data_Molecule from HDF5

_cell_length_a		16.454151
_cell_length_b		16.564962
_cell_length_c		16.566499
_cell_angle_alpha	90.241444
_cell_angle_beta	90.101040
_cell_angle_gamma	89.996405
_symmetry_space_group_name_H-M	'P 1'
_symmetry_Int_Tables_number		1

loop_
	_symmetry_equiv_pos_as_xyz
	x,y,z

loop_
	_atom_site_label
	_atom_site_type_symbol
	_atom_site_fract_x
	_atom_site_fract_y
	_atom_site_fract_z
	H0	H	0.397215	0.863476	0.698813
	H1	H	0.601499	0.178457	0.700207
	H2	H	0.609402	0.866862	0.253776
	H3	H	0.393088	0.177634	0.257414
	H4	H	0.720417	0.417402	0.823761
	H5	H	0.721991	0.628326	0.138192
	H6	H	0.278255	0.625458	0.823764
	H7	H	0.279371	0.419919	0.137888
	H8	H	0.841060	0.746713	0.371621
	H9	H	0.158605	0.739942	0.581362
	H10	H	0.841828	0.300734	0.583682
	H11	H	0.156957	0.302293	0.374278
	H12	H	0.840446	0.418677	0.698831
	H13	H	0.156251	0.626230	0.699194
	H14	H	0.840706	0.629962	0.256695
	H15	H	0.157417	0.419416	0.259740
	H16	H	0.395415	0.742204	0.823608
	H17	H	0.606903	0.745353	0.137291
	H18	H	0.602082	0.302254	0.823714
	H19	H	0.393644	0.300732	0.136740
	H20	H	0.722308	0.865011	0.372568
	H21	H	0.719921	0.178346	0.585796
	H22	H	0.280540	0.863364	0.581409
	H23	H	0.281589	0.179730	0.377925
	H24	H	0.889063	0.366151	0.204665
	H25	H	0.102567	0.678563	0.201162
	H26	H	0.100993	0.366261	0.758213
	H27	H	0.890985	0.679148	0.757956
	H28	H	0.220204	0.918755	0.322386
	H29	H	0.217215	0.125575	0.638500
	H30	H	0.774752	0.127600	0.322482
	H31	H	0.776213	0.916455	0.635915
	H32	H	0.343389	0.243067	0.875317
	H33	H	0.656298	0.247820	0.090107
	H34	H	0.345499	0.799086	0.086518
	H35	H	0.657456	0.797918	0.872750
	H36	H	0.343791	0.916759	0.201598
	H37	H	0.656336	0.132299	0.206064
	H38	H	0.342379	0.124164	0.760951
	H39	H	0.656653	0.913151	0.756561
	H40	H	0.890223	0.244713	0.321996
	H41	H	0.102706	0.244472	0.635757
	H42	H	0.103883	0.801556	0.322162
	H43	H	0.892723	0.800258	0.635734
	H44	H	0.216071	0.364653	0.876651
	H45	H	0.218810	0.678926	0.085090
	H46	H	0.777557	0.364257	0.085390
	H47	H	0.777545	0.680092	0.876678
	H48	H	0.409216	0.133449	0.569850
	H49	H	0.587725	0.910910	0.565018
	H50	H	0.580211	0.132089	0.389560
	H51	H	0.409995	0.909690	0.393347
	H52	H	0.592778	0.432812	0.095250
	H53	H	0.587759	0.610859	0.869812
	H54	H	0.412115	0.607642	0.090931
	H55	H	0.405892	0.435837	0.868966
	H56	H	0.114358	0.618506	0.386112
	H57	H	0.886440	0.610372	0.566686
	H58	H	0.111845	0.436970	0.570974
	H59	H	0.885517	0.433593	0.389253
	H60	H	0.112445	0.430712	0.568241
	H61	H	0.883937	0.613433	0.571886
	H62	H	0.107663	0.612118	0.400202
	H63	H	0.886201	0.432683	0.392831
	H64	H	0.414552	0.613900	0.092710
	H65	H	0.589002	0.610570	0.869259
	H66	H	0.587425	0.439815	0.091136
	H67	H	0.413267	0.429688	0.869353
	H68	H	0.586757	0.129801	0.399342
	H69	H	0.590580	0.907130	0.570097
	H70	H	0.404714	0.136198	0.574743
	H71	H	0.409850	0.908696	0.387662
	H72	H	0.913666	0.633122	0.072579
	H73	H	0.082474	0.412516	0.065255
	H74	H	0.091982	0.636372	0.888846
	H75	H	0.915124	0.414046	0.894151
	H76	H	0.087969	0.926427	0.594175
	H77	H	0.091756	0.110518	0.366619
	H78	H	0.911716	0.116562	0.591629
	H79	H	0.915494	0.931984	0.369208
	H80	H	0.614078	0.110820	0.890193
	H81	H	0.389520	0.106881	0.070803
	H82	H	0.611997	0.937509	0.068749
	H83	H	0.389992	0.938153	0.892370
	H84	H	0.613812	0.934027	0.067284
	H85	H	0.386312	0.113806	0.070609
	H86	H	0.614244	0.113531	0.891264
	H87	H	0.386114	0.930071	0.886083
	H88	H	0.906974	0.110340	0.590484
	H89	H	0.088993	0.111718	0.367348
	H90	H	0.095971	0.932323	0.593208
	H91	H	0.908155	0.935049	0.367330
	H92	H	0.085843	0.636430	0.887208
	H93	H	0.093859	0.407986	0.066546
	H94	H	0.915013	0.630169	0.065748
	H95	H	0.903013	0.409283	0.890943
	H96	H	0.411617	0.134643	0.576110
	H97	H	0.583873	0.909592	0.571190
	H98	H	0.591464	0.135361	0.390039
	H99	H	0.414477	0.910496	0.390163
	H100	H	0.583033	0.431056	0.092339
	H101	H	0.588267	0.609501	0.869428
	H102	H	0.407786	0.612540	0.093432
	H103	H	0.405639	0.427107	0.864760
	H104	H	0.108680	0.603037	0.386345
	H105	H	0.885050	0.616304	0.566065
	H106	H	0.109728	0.436062	0.564392
	H107	H	0.887060	0.436083	0.391443
	H108	H	0.908105	0.632987	0.067366
	H109	H	0.086064	0.407823	0.076340
	H110	H	0.087721	0.634926	0.893203
	H111	H	0.912663	0.409222	0.882188
	H112	H	0.086163	0.935517	0.590860
	H113	H	0.090535	0.113257	0.365847
	H114	H	0.913921	0.110288	0.587559
	H115	H	0.913545	0.939134	0.371426
	H116	H	0.613024	0.110933	0.892679
	H117	H	0.389449	0.111115	0.064652
	H118	H	0.611774	0.936409	0.064582
	H119	H	0.388695	0.928488	0.896353
	C120	C	0.377494	0.030263	0.603340
	C121	C	0.620080	1.012706	0.601263
	C122	C	0.620345	0.029734	0.358913
	C123	C	0.379399	1.013308	0.358958
	C124	C	0.620413	0.401731	-0.010742
	C125	C	0.621457	0.643429	0.972702
	C126	C	0.378722	0.643192	-0.011291
	C127	C	0.376561	0.399403	0.971562
	C128	C	0.006356	0.644248	0.357867
	C129	C	0.989788	0.644520	0.600044
	C130	C	0.007034	0.402078	0.599752
	C131	C	0.990351	0.401531	0.358401
	C132	C	0.877961	0.529414	0.101640
	C133	C	0.119522	0.513080	0.101581
	C134	C	0.119557	0.531824	0.858302
	C135	C	0.877148	0.514381	0.858036
	C136	C	0.121509	0.900120	0.488351
	C137	C	0.121138	0.143769	0.470716
	C138	C	0.877340	0.144090	0.486736
	C139	C	0.878565	0.901827	0.471843
	C140	C	0.508905	0.142466	0.860172
	C141	C	0.491570	0.144602	0.102971
	C142	C	0.508991	0.902563	0.099854
	C143	C	0.492080	0.899666	0.859084
	C144	C	0.377458	0.910794	0.659939
	C145	C	0.621314	0.131155	0.660925
	C146	C	0.625836	0.913279	0.295443
	C147	C	0.376095	0.130851	0.298700
	C148	C	0.679965	0.399230	0.870924
	C149	C	0.681953	0.646121	0.090875
	C150	C	0.318663	0.644182	0.870673
	C151	C	0.318028	0.399668	0.090268
	C152	C	0.888414	0.705895	0.354362
	C153	C	0.109982	0.701695	0.600640
	C154	C	0.888747	0.341555	0.601635
	C155	C	0.109725	0.342246	0.356079
	C156	C	0.888181	0.400097	0.659044
	C157	C	0.109111	0.645226	0.659390
	C158	C	0.888048	0.647406	0.297035
	C159	C	0.109647	0.400267	0.298944
	C160	C	0.376793	0.702231	0.870641
	C161	C	0.624896	0.704790	0.090387
	C162	C	0.621429	0.341935	0.870830
	C163	C	0.375074	0.340456	0.089614
	C164	C	0.682171	0.912433	0.354705
	C165	C	0.679562	0.131174	0.603568
	C166	C	0.319552	0.910983	0.601736
	C167	C	0.320234	0.131935	0.358422
	C168	C	0.872459	0.412789	0.163618
	C169	C	0.121363	0.631431	0.161357
	C170	C	0.120026	0.413195	0.798723
	C171	C	0.873396	0.632324	0.798145
	C172	C	0.180358	0.899431	0.369552
	C173	C	0.178677	0.144911	0.590251
	C174	C	0.815456	0.145860	0.369304
	C175	C	0.816893	0.898536	0.589155
	C176	C	0.390316	0.202295	0.857744
	C177	C	0.609179	0.206993	0.107471
	C178	C	0.391844	0.840161	0.103975
	C179	C	0.610091	0.838425	0.855043
	C180	C	0.391082	0.898720	0.161015
	C181	C	0.609230	0.149315	0.165141
	C182	C	0.389976	0.143578	0.800611
	C183	C	0.609941	0.896252	0.797610
	C184	C	0.873163	0.204248	0.369047
	C185	C	0.121631	0.203938	0.589042
	C186	C	0.122835	0.840979	0.369640
	C187	C	0.874919	0.840920	0.589036
	C188	C	0.177303	0.412466	0.857493
	C189	C	0.179145	0.631437	0.103634
	C190	C	0.816745	0.411709	0.104040
	C191	C	0.816877	0.632516	0.857342
	C192	C	0.401414	0.113204	0.580246
	C193	C	0.594811	0.930536	0.575849
	C194	C	0.593708	0.111208	0.385567
	C195	C	0.404201	0.930947	0.383478
	C196	C	0.595185	0.427098	0.071528
	C197	C	0.595680	0.617773	0.890756
	C198	C	0.403982	0.618555	0.070763
	C199	C	0.401174	0.423753	0.889120
	C200	C	0.088741	0.618597	0.383597
	C201	C	0.906728	0.620272	0.575495
	C202	C	0.089869	0.427206	0.574918
	C203	C	0.907820	0.426712	0.383864
	C204	C	0.904584	0.610865	0.075889
	C205	C	0.094535	0.430749	0.076621
	C206	C	0.095481	0.614415	0.882842
	C207	C	0.902843	0.432265	0.882181
	C208	C	0.097104	0.924315	0.571069
	C209	C	0.097217	0.119062	0.388062
	C210	C	0.903430	0.119546	0.568583
	C211	C	0.904904	0.927932	0.390560
	C212	C	0.592168	0.118412	0.884532
	C213	C	0.409701	0.118204	0.076443
	C214	C	0.591111	0.928564	0.074235
	C215	C	0.409525	0.925012	0.884563
	Zn216	Zn	0.500126	0.020627	0.731598
	Zn217	Zn	0.500426	0.022137	0.229710
	Zn218	Zn	0.749770	0.521855	-0.019193
	Zn219	Zn	0.248377	0.522199	-0.019397
	Zn220	Zn	-0.000922	0.772642	0.479303
	Zn221	Zn	-0.000987	0.272700	0.477991
	Zn222	Zn	-0.002012	0.523609	0.728945
	Zn223	Zn	-0.001800	0.521770	0.230405
	Zn224	Zn	0.500836	0.772417	-0.019824
	Zn225	Zn	0.500076	0.271792	-0.019105
	Zn226	Zn	0.748932	0.021963	0.479751
	Zn227	Zn	0.249998	0.022024	0.480146
	N228	N	0.412472	0.986173	0.661346
	N229	N	0.585313	0.056367	0.659816
	N230	N	0.588323	0.987473	0.297813
	N231	N	0.411995	0.056074	0.298723
	N232	N	0.679481	0.435488	0.945597
	N233	N	0.680134	0.608733	0.016582
	N234	N	0.319736	0.608080	0.945066
	N235	N	0.318677	0.435444	0.015646
	N236	N	0.963166	0.704131	0.391448
	N237	N	0.034678	0.701668	0.564683
	N238	N	0.963722	0.342614	0.565392
	N239	N	0.034510	0.342742	0.391961
	N240	N	0.962879	0.437013	0.658024
	N241	N	0.033312	0.610420	0.659407
	N242	N	0.962425	0.609781	0.299099
	N243	N	0.034256	0.436053	0.299963
	N244	N	0.413448	0.701841	0.945077
	N245	N	0.588164	0.703318	0.015861
	N246	N	0.585286	0.343229	0.945641
	N247	N	0.410457	0.340006	0.014705
	N248	N	0.678750	0.985740	0.393530
	N249	N	0.679171	0.056434	0.567402
	N250	N	0.319450	0.986291	0.567421
	N251	N	0.322071	0.057790	0.395377
	N252	N	0.909573	0.487097	0.162508
	N253	N	0.084971	0.556769	0.160317
	N254	N	0.085161	0.488506	0.798812
	N255	N	0.909929	0.557858	0.798224
	N256	N	0.180038	0.935208	0.444517
	N257	N	0.178722	0.108265	0.515580
	N258	N	0.817722	0.109345	0.443588
	N259	N	0.818688	0.935350	0.514978
	N260	N	0.465175	0.201416	0.894316
	N261	N	0.534986	0.204249	0.069221
	N262	N	0.466216	0.842529	0.066710
	N263	N	0.535862	0.840539	0.892634
	N264	N	0.465044	0.936781	0.158577
	N265	N	0.535163	0.111268	0.162437
	N266	N	0.464762	0.106810	0.802251
	N267	N	0.535486	0.933805	0.800133
	N268	N	0.910995	0.203294	0.443044
	N269	N	0.086852	0.203590	0.513666
	N270	N	0.087306	0.841278	0.444591
	N271	N	0.912368	0.842748	0.515014
	N272	N	0.177291	0.487170	0.893840
	N273	N	0.178199	0.556755	0.067214
	N274	N	0.820241	0.485298	0.066204
	N275	N	0.818949	0.558173	0.893765
	O276	O	1.219777	0.851016	-0.022261
	H277	H	1.203724	0.844701	-0.029627
	H278	H	1.229077	0.823834	-0.037107
	O279	O	-0.195200	-0.075406	0.986918
	H280	H	-0.211870	-0.089598	0.984777
	H281	H	-0.186788	-0.067378	1.002187
	O282	O	0.283650	0.306566	0.513358
	H283	H	0.273970	0.296703	0.542505
	H284	H	0.269994	0.294695	0.534561
	O285	O	0.558278	0.326456	0.513688
	H286	H	0.552665	0.326166	0.501403
	H287	H	0.587236	0.321100	0.499532
	O288	O	1.502571	-0.432384	1.439740
	H289	H	1.481205	-0.442288	1.436800
	H290	H	1.511186	-0.445610	1.438966
	O291	O	0.474678	0.738393	0.271545
	H292	H	0.454621	0.741595	0.261823
	H293	H	0.451678	0.744484	0.260315
	O294	O	0.203690	1.052435	-0.806023
	H295	H	0.210717	1.037918	-0.817085
	H296	H	0.219968	1.037757	-0.809599
	O297	O	0.722584	-0.418212	-0.587605
	H298	H	0.724000	-0.418991	-0.570246
	H299	H	0.725297	-0.407396	-0.561391
	O300	O	-0.319453	-0.661315	0.301312
	H301	H	-0.309300	-0.608786	0.288685
	H302	H	-0.372227	-0.671825	0.289340
	O303	O	0.000756	-0.069712	-0.043897
	H304	H	0.000768	-0.072100	-0.064113
	H305	H	-0.004557	-0.061351	-0.042741
	O306	O	0.326064	-0.546343	1.690392
	H307	H	0.315791	-0.550820	1.695092
	H308	H	0.319636	-0.570470	1.686764
	O309	O	0.287951	0.563738	0.268823
	H310	H	0.271723	0.552973	0.250814
	H311	H	0.293896	0.540828	0.287648
	O312	O	-0.212569	-0.002525	0.194323
	H313	H	-0.211882	0.009718	0.182818
	H314	H	-0.234337	0.006903	0.209784
	O315	O	0.855736	-0.160285	0.829894
	H316	H	0.859073	-0.172665	0.821510
	H317	H	0.851451	-0.150408	0.817225
	O318	O	0.714628	0.736927	0.506636
	H319	H	0.682622	0.748164	0.484472
	H320	H	0.734993	0.767566	0.496320
	O321	O	-0.018717	1.220159	1.034184
	H322	H	-0.008595	1.205030	1.030038
	H323	H	-0.014683	1.235162	1.041484
	O324	O	0.882707	-0.182103	0.958720
	H325	H	0.876126	-0.178215	0.955341
	H326	H	0.875972	-0.188912	0.962305
	O327	O	1.206287	-0.184588	0.775760
	H328	H	1.220484	-0.174729	0.780939
	H329	H	1.220043	-0.196592	0.758988
	O330	O	0.218558	-0.014558	0.765132
	H331	H	0.206250	-0.016748	0.764230
	H332	H	0.238950	-0.018254	0.742631
	O333	O	0.717182	0.551687	0.700007
	H334	H	0.728822	0.570055	0.700108
	H335	H	0.730458	0.572316	0.713245
	O336	O	0.815170	-0.168297	1.173143
	H337	H	0.818300	-0.133340	1.180820
	H338	H	0.813575	-0.174427	1.155662
	O339	O	0.716244	0.302416	0.456626
	H340	H	0.725918	0.292875	0.424946
	H341	H	0.729160	0.291204	0.431777
	O342	O	0.188537	0.833007	0.166031
	H343	H	0.178513	0.846594	0.136977
	H344	H	0.162054	0.847767	0.153977
	O345	O	0.458539	0.525217	0.476297
	H346	H	0.465069	0.533923	0.484301
	H347	H	0.459349	0.523189	0.473841
	O348	O	0.183494	1.214266	0.837083
	H349	H	0.174479	1.191262	0.855546
	H350	H	0.164911	1.213662	0.855541
	O351	O	-0.202944	0.231055	0.779277
	H352	H	-0.194783	0.222545	0.775797
	H353	H	-0.227266	0.256016	0.766092
	O354	O	1.460378	-0.434028	1.354264
	H355	H	1.472402	-0.433833	1.352320
	H356	H	1.442947	-0.428289	1.355183
	O357	O	0.324580	0.710150	0.659295
	H358	H	0.330085	0.692175	0.633801
	H359	H	0.341620	0.692449	0.645458
	O360	O	0.426546	0.558180	0.686403
	H361	H	0.416572	0.548155	0.683456
	H362	H	0.401322	0.558190	0.701710
	O363	O	0.452822	0.299138	0.451986
	H364	H	0.429490	0.291364	0.455521
	H365	H	0.451429	0.299753	0.451641
	O366	O	1.184991	-0.086423	1.019166
	H367	H	1.157770	-0.098726	1.010765
	H368	H	1.192587	-0.105006	1.004678
	O369	O	0.293370	0.318254	0.684389
	H370	H	0.284623	0.293494	0.712939
	H371	H	0.330925	0.306420	0.697691
	O372	O	0.477422	1.362398	0.655597
	H373	H	0.500186	1.374354	0.656007
	H374	H	0.492467	1.354313	0.653560
	O375	O	0.983481	-0.185839	0.188473
	H376	H	0.976218	-0.177850	0.199471
	H377	H	0.971236	-0.182289	0.202551
	O378	O	1.262291	1.287552	1.247271
	H379	H	1.247814	1.264998	1.243097
	H380	H	1.251692	1.275374	1.243071
	O381	O	0.048219	1.024196	-0.195008
	H382	H	0.028972	1.014207	-0.194610
	H383	H	0.046080	1.026460	-0.188863
	O384	O	0.715730	0.482123	0.537702
	H385	H	0.715103	0.472720	0.549330
	H386	H	0.709175	0.475441	0.548489
	O387	O	0.031452	0.800319	0.759689
	H388	H	0.047621	0.793392	0.751465
	H389	H	0.051287	0.784174	0.749612
	O390	O	0.035922	0.983297	1.198600
	H391	H	0.021444	0.988487	1.187754
	H392	H	0.049953	1.010214	1.208235
	O393	O	0.999138	-0.067953	-0.032712
	H394	H	0.986608	-0.058179	-0.029339
	H395	H	0.974717	-0.066580	-0.031726
	O396	O	1.217384	0.216432	-0.003281
	H397	H	1.217032	0.207523	-0.001484
	H398	H	1.234666	0.229812	-0.007713
	O399	O	0.012198	0.034258	0.807610
	H400	H	-0.003748	0.035721	0.802009
	H401	H	0.007585	0.033874	0.803236
	O402	O	1.028208	0.229402	1.078667
	H403	H	1.043268	0.215711	1.073765
	H404	H	1.017654	0.233547	1.050928
	O405	O	0.877114	0.139192	1.003632
	H406	H	0.866750	0.147161	0.982396
	H407	H	0.870940	0.132895	0.990570
	O408	O	0.846452	1.104286	0.973857
	H409	H	0.849535	1.095103	0.973792
	H410	H	0.845113	1.091099	0.973536
	O411	O	1.398097	1.372554	0.286469
	H412	H	1.408180	1.377794	0.289588
	H413	H	1.385258	1.359902	0.273649
	O414	O	0.028717	0.244520	0.203384
	H415	H	0.021067	0.253957	0.210224
	H416	H	0.051036	0.258722	0.213839
	O417	O	-1.033967	-0.095874	-0.042163
	H418	H	-1.042204	-0.102833	-0.046984
	H419	H	-1.043860	-0.100583	-0.042802
	O420	O	0.781215	0.057984	0.763453
	H421	H	0.775609	0.052715	0.755608
	H422	H	0.767266	0.073928	0.747180
	O423	O	1.297587	0.732559	0.274279
	H424	H	1.297593	0.684452	0.267477
	H425	H	1.263823	0.759449	0.238637
	O426	O	0.401132	0.685093	0.512588
	H427	H	0.375389	0.701465	0.490950
	H428	H	0.405748	0.655178	0.504708
	O429	O	0.849157	1.129650	-0.118076
	H430	H	0.853886	1.111835	-0.140394
	H431	H	0.823401	1.138662	-0.115688
	O432	O	1.713793	-0.503243	1.265059
	H433	H	1.742971	-0.498200	1.245353
	H434	H	1.718342	-0.478840	1.287053
	O435	O	0.119845	1.094433	0.930858
	H436	H	0.103378	1.098979	0.923422
	H437	H	0.121084	1.088267	0.936318
	O438	O	0.311602	0.470619	0.387927
	H439	H	0.305908	0.442036	0.395676
	H440	H	0.321832	0.470359	0.389579
	O441	O	0.297770	0.527812	0.554644
	H442	H	0.288229	0.506039	0.572339
	H443	H	0.293289	0.508568	0.532739
	O444	O	0.678133	0.336324	0.663745
	H445	H	0.661711	0.359161	0.655539
	H446	H	0.660579	0.344242	0.637430
	O447	O	0.889600	1.006757	0.999829
	H448	H	0.870082	1.006569	1.000351
	H449	H	0.893322	1.005393	0.994136
	O450	O	0.286673	0.743018	-0.556026
	H451	H	0.274604	0.747250	-0.585801
	H452	H	0.266380	0.760161	-0.575476
	O453	O	-0.481030	0.720558	0.678105
	H454	H	-0.485026	0.727747	0.666760
	H455	H	-0.495763	0.709119	0.676432
	O456	O	0.160986	1.111486	0.963681
	H457	H	0.157915	1.099519	0.968005
	H458	H	0.153592	1.093252	0.970030
	O459	O	0.562568	0.478305	0.698432
	H460	H	0.566108	0.501112	0.703101
	H461	H	0.564990	0.507873	0.696970
	O462	O	0.588938	0.733604	0.406227
	H463	H	0.562427	0.728432	0.386361
	H464	H	0.566813	0.723816	0.410791
	O465	O	0.553922	0.567582	0.302091
	H466	H	0.553334	0.567362	0.304956
	H467	H	0.554044	0.580570	0.302798
	O468	O	-0.064434	0.097263	-0.821309
	H469	H	-0.070942	0.106585	-0.828728
	H470	H	-0.058859	0.104167	-0.825443
	O471	O	0.692363	0.719898	0.674088
	H472	H	0.683718	0.717079	0.649988
	H473	H	0.665589	0.725003	0.653255
	O474	O	0.979940	1.235165	-0.207520
	H475	H	0.977181	1.248787	-0.207761
	H476	H	0.974268	1.230937	-0.214672
	O477	O	0.528090	0.371967	0.325224
	H478	H	0.525596	0.361274	0.333812
	H479	H	0.513821	0.369927	0.307171
