data_Molecule from HDF5

_cell_length_a		16.163250
_cell_length_b		16.482706
_cell_length_c		16.026325
_cell_angle_alpha	90.469034
_cell_angle_beta	90.274890
_cell_angle_gamma	90.469742
_symmetry_space_group_name_H-M	'P 1'
_symmetry_Int_Tables_number		1

loop_
	_symmetry_equiv_pos_as_xyz
	x,y,z

loop_
	_atom_site_label
	_atom_site_type_symbol
	_atom_site_fract_x
	_atom_site_fract_y
	_atom_site_fract_z
	H0	H	0.394330	0.843324	0.704305
	H1	H	0.596211	0.167331	0.709810
	H2	H	0.589345	0.842681	0.276317
	H3	H	0.399698	0.169233	0.279934
	H4	H	0.702154	0.407947	0.825603
	H5	H	0.708196	0.605897	0.158157
	H6	H	0.282826	0.597639	0.825756
	H7	H	0.282298	0.407728	0.159465
	H8	H	0.830395	0.719531	0.391021
	H9	H	0.156746	0.725899	0.599662
	H10	H	0.831140	0.286717	0.593997
	H11	H	0.157020	0.287410	0.386721
	H12	H	0.827326	0.409945	0.700996
	H13	H	0.160247	0.601241	0.704906
	H14	H	0.828565	0.599385	0.279903
	H15	H	0.159781	0.410516	0.280439
	H16	H	0.389729	0.719237	0.827823
	H17	H	0.598319	0.725832	0.156005
	H18	H	0.595841	0.286969	0.829106
	H19	H	0.391206	0.288893	0.157833
	H20	H	0.709094	0.843230	0.390690
	H21	H	0.715012	0.166145	0.595203
	H22	H	0.274765	0.844682	0.590374
	H23	H	0.277762	0.167009	0.390561
	H24	H	0.895931	0.342161	0.204307
	H25	H	0.094944	0.667412	0.209588
	H26	H	0.088906	0.341952	0.777158
	H27	H	0.897947	0.668675	0.780423
	H28	H	0.200968	0.909811	0.324158
	H29	H	0.209411	0.105268	0.657186
	H30	H	0.783476	0.098273	0.325501
	H31	H	0.783062	0.909745	0.658464
	H32	H	0.329621	0.219126	0.890815
	H33	H	0.656540	0.225532	0.098812
	H34	H	0.330265	0.788028	0.093059
	H35	H	0.657017	0.787349	0.888061
	H36	H	0.327909	0.909905	0.201171
	H37	H	0.659585	0.102998	0.204706
	H38	H	0.328612	0.099035	0.778834
	H39	H	0.660518	0.909928	0.779597
	H40	H	0.891773	0.218872	0.327192
	H41	H	0.099693	0.224707	0.655612
	H42	H	0.095663	0.786966	0.328761
	H43	H	0.892595	0.791371	0.657462
	H44	H	0.207138	0.342118	0.893321
	H45	H	0.213782	0.666116	0.094727
	H46	H	0.775210	0.343937	0.091137
	H47	H	0.777276	0.666734	0.891720
	H48	H	0.403099	0.121655	0.590741
	H49	H	0.586431	0.892100	0.581585
	H50	H	0.603045	0.123976	0.397448
	H51	H	0.395869	0.890919	0.401199
	H52	H	0.580199	0.410079	0.111787
	H53	H	0.575663	0.606406	0.873956
	H54	H	0.407856	0.598753	0.110850
	H55	H	0.399895	0.408506	0.873789
	H56	H	0.112745	0.600437	0.400499
	H57	H	0.877483	0.599084	0.579938
	H58	H	0.108692	0.422738	0.582286
	H59	H	0.876872	0.416270	0.394163
	H60	H	0.114869	0.410458	0.592249
	H61	H	0.875879	0.596331	0.587328
	H62	H	0.111002	0.602220	0.407443
	H63	H	0.873407	0.401278	0.396316
	H64	H	0.404560	0.601356	0.111727
	H65	H	0.595183	0.600445	0.869284
	H66	H	0.588630	0.414414	0.112931
	H67	H	0.402381	0.410583	0.874726
	H68	H	0.582540	0.121420	0.390670
	H69	H	0.591166	0.889375	0.583092
	H70	H	0.408007	0.117864	0.580345
	H71	H	0.392450	0.887813	0.392127
	H72	H	0.893578	0.621259	0.082260
	H73	H	0.097324	0.386423	0.087744
	H74	H	0.101741	0.624598	0.894129
	H75	H	0.890361	0.389428	0.901997
	H76	H	0.080918	0.912192	0.610996
	H77	H	0.080447	0.098633	0.373998
	H78	H	0.912656	0.089208	0.605533
	H79	H	0.899884	0.915527	0.374609
	H80	H	0.610821	0.099449	0.904893
	H81	H	0.373615	0.103282	0.084216
	H82	H	0.611135	0.911792	0.081880
	H83	H	0.380516	0.910604	0.911006
	H84	H	0.610923	0.913406	0.080668
	H85	H	0.377922	0.098535	0.077923
	H86	H	0.611655	0.098523	0.902782
	H87	H	0.377711	0.920118	0.890788
	H88	H	0.911561	0.110957	0.612312
	H89	H	0.087094	0.101372	0.370816
	H90	H	0.088600	0.912758	0.611818
	H91	H	0.908454	0.907882	0.375299
	H92	H	0.077075	0.618632	0.893308
	H93	H	0.080556	0.390077	0.092948
	H94	H	0.904105	0.621452	0.093785
	H95	H	0.897975	0.387604	0.889485
	H96	H	0.396041	0.120693	0.580859
	H97	H	0.586747	0.889976	0.585841
	H98	H	0.587564	0.116328	0.410984
	H99	H	0.402389	0.891239	0.393827
	H100	H	0.581601	0.418902	0.108475
	H101	H	0.581681	0.585952	0.878206
	H102	H	0.403917	0.597751	0.111090
	H103	H	0.402630	0.408331	0.874537
	H104	H	0.109987	0.595088	0.405260
	H105	H	0.875011	0.603718	0.585762
	H106	H	0.111166	0.406991	0.575552
	H107	H	0.879365	0.409842	0.408861
	H108	H	0.907749	0.616235	0.079543
	H109	H	0.086250	0.393486	0.075283
	H110	H	0.090619	0.616507	0.915144
	H111	H	0.904155	0.392636	0.901632
	H112	H	0.085040	0.918826	0.609692
	H113	H	0.086802	0.094371	0.373525
	H114	H	0.893077	0.097652	0.613899
	H115	H	0.898132	0.905815	0.370660
	H116	H	0.611566	0.100756	0.902481
	H117	H	0.376553	0.095556	0.086706
	H118	H	0.611332	0.914179	0.082545
	H119	H	0.372616	0.899264	0.893667
	C120	C	0.372158	0.013726	0.612627
	C121	C	0.618118	0.997116	0.614241
	C122	C	0.617220	0.013259	0.369965
	C123	C	0.370181	0.997277	0.367815
	C124	C	0.613269	0.384642	0.001633
	C125	C	0.614928	0.627601	0.983118
	C126	C	0.374295	0.625655	0.001437
	C127	C	0.372746	0.382241	0.984144
	C128	C	0.002564	0.626536	0.373222
	C129	C	0.985280	0.628199	0.614880
	C130	C	0.002621	0.384379	0.612652
	C131	C	0.985176	0.382154	0.370239
	C132	C	0.871816	0.512831	0.113877
	C133	C	0.117849	0.496651	0.115551
	C134	C	0.116687	0.512802	0.870842
	C135	C	0.870002	0.497206	0.869415
	C136	C	0.113789	0.885135	0.501101
	C137	C	0.115618	0.127535	0.482321
	C138	C	0.875443	0.125721	0.500756
	C139	C	0.872611	0.882568	0.483085
	C140	C	0.502488	0.126301	0.872594
	C141	C	0.484739	0.128151	0.113741
	C142	C	0.502149	0.884633	0.111128
	C143	C	0.485714	0.882558	0.869089
	C144	C	0.373631	0.891860	0.667114
	C145	C	0.616316	0.118740	0.671171
	C146	C	0.611579	0.891157	0.314091
	C147	C	0.376491	0.119988	0.315245
	C148	C	0.666711	0.387204	0.876120
	C149	C	0.671267	0.626774	0.108090
	C150	C	0.319115	0.619986	0.875968
	C151	C	0.318713	0.386407	0.109509
	C152	C	0.879154	0.681315	0.372521
	C153	C	0.108133	0.685898	0.616998
	C154	C	0.879490	0.326685	0.612126
	C155	C	0.108395	0.326726	0.369156
	C156	C	0.877829	0.387741	0.665908
	C157	C	0.109890	0.624280	0.669787
	C158	C	0.878258	0.621638	0.317295
	C159	C	0.109886	0.387999	0.316410
	C160	C	0.372564	0.680267	0.876852
	C161	C	0.616222	0.686021	0.107054
	C162	C	0.613700	0.326680	0.877896
	C163	C	0.372669	0.327005	0.108504
	C164	C	0.671032	0.891359	0.371162
	C165	C	0.675598	0.118307	0.614268
	C166	C	0.314539	0.892335	0.610102
	C167	C	0.316069	0.118908	0.370792
	C168	C	0.874404	0.391193	0.167874
	C169	C	0.115444	0.618876	0.171215
	C170	C	0.110987	0.390366	0.815215
	C171	C	0.875307	0.619552	0.816190
	C172	C	0.166274	0.887957	0.375098
	C173	C	0.172245	0.126074	0.607202
	C174	C	0.820194	0.120223	0.375316
	C175	C	0.818684	0.887451	0.608371
	C176	C	0.378673	0.181026	0.871687
	C177	C	0.607999	0.185521	0.115906
	C178	C	0.378866	0.827721	0.111149
	C179	C	0.608513	0.826418	0.869113
	C180	C	0.377716	0.888335	0.164926
	C181	C	0.609512	0.124570	0.168537
	C182	C	0.378022	0.120853	0.816473
	C183	C	0.610370	0.887693	0.815475
	C184	C	0.874348	0.180063	0.376258
	C185	C	0.117636	0.185491	0.606346
	C186	C	0.113360	0.827229	0.377270
	C187	C	0.873253	0.828710	0.607966
	C188	C	0.169838	0.390630	0.872995
	C189	C	0.174911	0.618123	0.114490
	C190	C	0.814177	0.392034	0.111457
	C191	C	0.815553	0.618463	0.872029
	C192	C	0.395425	0.098064	0.590566
	C193	C	0.595027	0.912425	0.590301
	C194	C	0.597130	0.098536	0.392836
	C195	C	0.390705	0.912087	0.389281
	C196	C	0.590187	0.407831	0.088624
	C197	C	0.591086	0.604439	0.896279
	C198	C	0.398375	0.605408	0.088695
	C199	C	0.394981	0.403174	0.897020
	C200	C	0.089059	0.605429	0.397294
	C201	C	0.898534	0.606090	0.591321
	C202	C	0.089140	0.406836	0.590004
	C203	C	0.898966	0.403017	0.392949
	C204	C	0.895103	0.597826	0.091765
	C205	C	0.094794	0.411891	0.092198
	C206	C	0.095798	0.597883	0.893847
	C207	C	0.891298	0.412014	0.891037
	C208	C	0.091394	0.908004	0.588259
	C209	C	0.091810	0.104744	0.395261
	C210	C	0.898830	0.105373	0.587858
	C211	C	0.895501	0.903414	0.396003
	C212	C	0.588839	0.105680	0.896237
	C213	C	0.398467	0.105876	0.089953
	C214	C	0.588776	0.906761	0.088381
	C215	C	0.399290	0.903638	0.891734
	Zn216	Zn	0.494728	0.005390	0.742572
	Zn217	Zn	0.494018	0.005472	0.239631
	Zn218	Zn	0.740508	0.505252	-0.008061
	Zn219	Zn	0.247331	0.504328	-0.007267
	Zn220	Zn	-0.006094	0.756399	0.493649
	Zn221	Zn	-0.005027	0.254928	0.491534
	Zn222	Zn	-0.006428	0.505435	0.741327
	Zn223	Zn	-0.005706	0.505140	0.244088
	Zn224	Zn	0.494019	0.754643	-0.008904
	Zn225	Zn	0.493827	0.255751	-0.006515
	Zn226	Zn	0.747568	0.004873	0.491735
	Zn227	Zn	0.241235	0.005454	0.490978
	N228	N	0.409012	0.968021	0.668773
	N229	N	0.581290	0.042338	0.671224
	N230	N	0.578988	0.968001	0.313207
	N231	N	0.409483	0.043313	0.313258
	N232	N	0.666438	0.422524	0.954301
	N233	N	0.670630	0.591234	0.030148
	N234	N	0.320162	0.586800	0.954432
	N235	N	0.318329	0.419843	0.031154
	N236	N	0.957464	0.684433	0.406559
	N237	N	0.029465	0.688653	0.583797
	N238	N	0.958305	0.324303	0.579822
	N239	N	0.030050	0.323082	0.402329
	N240	N	0.955310	0.422893	0.666162
	N241	N	0.032405	0.589088	0.668687
	N242	N	0.956172	0.588218	0.317527
	N243	N	0.032287	0.421609	0.316658
	N244	N	0.406161	0.684029	0.955914
	N245	N	0.581749	0.686417	0.028368
	N246	N	0.580893	0.325348	0.956891
	N247	N	0.405761	0.324357	0.029537
	N248	N	0.674637	0.968232	0.405162
	N249	N	0.676772	0.041774	0.579407
	N250	N	0.313362	0.969085	0.577032
	N251	N	0.311909	0.041613	0.402535
	N252	N	0.909549	0.467527	0.169387
	N253	N	0.080679	0.542430	0.172109
	N254	N	0.078644	0.467374	0.813856
	N255	N	0.908533	0.543005	0.814380
	N256	N	0.166589	0.923149	0.453253
	N257	N	0.171470	0.091220	0.529008
	N258	N	0.820730	0.086898	0.453786
	N259	N	0.818149	0.920057	0.529738
	N260	N	0.456977	0.184471	0.905886
	N261	N	0.529577	0.187861	0.082442
	N262	N	0.457464	0.825425	0.078328
	N263	N	0.529954	0.823119	0.901783
	N264	N	0.455390	0.923175	0.164915
	N265	N	0.531903	0.089454	0.167510
	N266	N	0.455977	0.087847	0.816681
	N267	N	0.532863	0.921573	0.815116
	N268	N	0.907882	0.183563	0.455154
	N269	N	0.083327	0.186541	0.527562
	N270	N	0.081684	0.825232	0.456763
	N271	N	0.906098	0.825559	0.528854
	N272	N	0.173329	0.467600	0.906799
	N273	N	0.176402	0.541254	0.080447
	N274	N	0.812615	0.468853	0.078617
	N275	N	0.811981	0.541368	0.904212
	O276	O	0.054566	0.097426	-0.031655
	H277	H	0.044297	0.099424	-0.018003
	H278	H	0.058157	0.095061	-0.033102
	O279	O	0.356092	0.380499	0.545228
	H280	H	0.346957	0.377466	0.544615
	H281	H	0.355030	0.390521	0.538552
	O282	O	0.412393	0.552535	0.534483
	H283	H	0.409994	0.555747	0.531561
	H284	H	0.410186	0.560630	0.530232
	O285	O	0.072287	0.912090	0.979414
	H286	H	0.072669	0.919899	0.980709
	H287	H	0.083747	0.908861	0.985241
	O288	O	0.525476	0.386120	0.515435
	H289	H	0.511034	0.387811	0.510733
	H290	H	0.519809	0.385221	0.527863
	O291	O	0.945980	0.990305	0.960734
	H292	H	0.947511	0.985082	0.961332
	H293	H	0.947428	0.989764	0.947563
	O294	O	0.989046	0.915079	0.958243
	H295	H	0.996221	0.910658	0.953283
	H296	H	0.993879	0.914349	0.953753
	O297	O	0.919559	-0.007853	1.040226
	H298	H	0.922166	-0.008825	1.035046
	H299	H	0.922871	-0.008968	1.043169
	O300	O	0.515005	0.490965	0.580382
	H301	H	0.516150	0.500471	0.583743
	H302	H	0.515919	0.492441	0.588364
	O303	O	0.978357	0.029549	-0.013459
	H304	H	0.969257	0.030950	-0.010426
	H305	H	0.980608	0.031241	-0.017622
	O306	O	0.062163	1.092917	0.992525
	H307	H	0.059450	1.100011	0.984629
	H308	H	0.072863	1.100639	0.989391
	O309	O	0.517486	0.394172	0.529447
	H310	H	0.516246	0.381913	0.531126
	H311	H	0.526054	0.390539	0.530032
	O312	O	0.996408	-0.034810	1.006736
	H313	H	0.992960	-0.032586	1.012663
	H314	H	0.982933	-0.038778	1.017995
	O315	O	0.497470	0.504564	0.462474
	H316	H	0.508485	0.504855	0.462886
	H317	H	0.492729	0.494356	0.470611
	O318	O	0.626245	0.420664	0.471473
	H319	H	0.625401	0.416052	0.474381
	H320	H	0.627160	0.418536	0.473416
	O321	O	1.011118	0.982835	1.042750
	H322	H	1.012148	0.987705	1.034202
	H323	H	1.006431	0.982388	1.036477
	O324	O	0.427280	0.547495	0.430585
	H325	H	0.434243	0.546948	0.425900
	H326	H	0.427461	0.540083	0.417866
	O327	O	0.530950	0.524888	0.518953
	H328	H	0.540948	0.538132	0.518194
	H329	H	0.517979	0.526122	0.526987
	O330	O	0.941487	-0.027763	1.016137
	H331	H	0.953551	-0.027617	1.023109
	H332	H	0.934962	-0.031902	1.025496
	O333	O	0.946113	1.062430	-0.028456
	H334	H	0.944818	1.059396	-0.019987
	H335	H	0.952406	1.060232	-0.029708
	O336	O	0.489018	0.554143	0.613986
	H337	H	0.488041	0.542166	0.607910
	H338	H	0.482013	0.561472	0.614336
	O339	O	0.492425	0.597446	0.522539
	H340	H	0.500891	0.589768	0.517207
	H341	H	0.497870	0.594280	0.537751
	O342	O	0.508186	0.461862	0.422927
	H343	H	0.505674	0.467459	0.433882
	H344	H	0.516717	0.450228	0.429979
	O345	O	0.067797	0.025917	-0.005758
	H346	H	0.074654	0.032360	0.000636
	H347	H	0.067841	0.018243	-0.001328
	O348	O	0.471224	0.472773	0.582349
	H349	H	0.464615	0.475239	0.595658
	H350	H	0.464060	0.462855	0.571237
	O351	O	0.493407	0.523157	0.422609
	H352	H	0.494264	0.513825	0.427732
	H353	H	0.497714	0.525490	0.419668
	O354	O	0.429396	0.629606	0.506940
	H355	H	0.441735	0.631228	0.496934
	H356	H	0.434576	0.636472	0.504684
	O357	O	0.581469	0.502714	0.457187
	H358	H	0.589148	0.505875	0.448750
	H359	H	0.583468	0.513476	0.473930
	O360	O	0.022121	-0.015687	0.037002
	H361	H	0.029489	-0.020990	0.032868
	H362	H	0.025932	-0.013098	0.039858
	O363	O	0.604675	0.604931	0.558851
	H364	H	0.606589	0.619355	0.566824
	H365	H	0.601041	0.602742	0.549133
	O366	O	0.020168	-0.031407	0.973577
	H367	H	0.018301	-0.029301	0.975144
	H368	H	0.017233	-0.037776	0.975241
	O369	O	0.363802	0.501284	0.467916
	H370	H	0.360953	0.506583	0.462148
	H371	H	0.369012	0.495512	0.462191
