data_Molecule from HDF5

_cell_length_a		16.211732
_cell_length_b		16.392588
_cell_length_c		16.233517
_cell_angle_alpha	89.890483
_cell_angle_beta	89.875601
_cell_angle_gamma	89.888759
_symmetry_space_group_name_H-M	'P 1'
_symmetry_Int_Tables_number		1

loop_
	_symmetry_equiv_pos_as_xyz
	x,y,z

loop_
	_atom_site_label
	_atom_site_type_symbol
	_atom_site_fract_x
	_atom_site_fract_y
	_atom_site_fract_z
	H0	H	0.397530	0.845262	0.719745
	H1	H	0.591000	0.171267	0.716785
	H2	H	0.594384	0.844371	0.290042
	H3	H	0.397000	0.170719	0.289337
	H4	H	0.709982	0.411304	0.840088
	H5	H	0.707839	0.603406	0.169492
	H6	H	0.284162	0.605169	0.839458
	H7	H	0.283222	0.412041	0.169229
	H8	H	0.831968	0.724117	0.405751
	H9	H	0.159392	0.724027	0.603579
	H10	H	0.831551	0.293997	0.605184
	H11	H	0.159041	0.292734	0.405432
	H12	H	0.831492	0.411564	0.718704
	H13	H	0.162009	0.603779	0.715172
	H14	H	0.831186	0.606988	0.291421
	H15	H	0.161133	0.411964	0.292845
	H16	H	0.395883	0.724348	0.841491
	H17	H	0.595244	0.722598	0.168607
	H18	H	0.596210	0.293425	0.840763
	H19	H	0.395440	0.292637	0.168576
	H20	H	0.710330	0.845047	0.407177
	H21	H	0.707733	0.170867	0.601335
	H22	H	0.281525	0.844716	0.603159
	H23	H	0.281181	0.171819	0.407235
	H24	H	0.898437	0.345111	0.220531
	H25	H	0.093269	0.672044	0.218209
	H26	H	0.095301	0.345159	0.790455
	H27	H	0.898338	0.671471	0.790437
	H28	H	0.208054	0.912170	0.340138
	H29	H	0.207875	0.104932	0.668844
	H30	H	0.784084	0.104215	0.339285
	H31	H	0.783993	0.912781	0.670079
	H32	H	0.331831	0.222892	0.906626
	H33	H	0.659979	0.222249	0.103594
	H34	H	0.331958	0.793401	0.104516
	H35	H	0.659946	0.793030	0.905216
	H36	H	0.330361	0.912313	0.216280
	H37	H	0.660773	0.104411	0.216831
	H38	H	0.330748	0.105902	0.791793
	H39	H	0.660955	0.911905	0.791813
	H40	H	0.895049	0.225189	0.341548
	H41	H	0.092243	0.220816	0.669082
	H42	H	0.095172	0.793486	0.341537
	H43	H	0.894706	0.792582	0.667829
	H44	H	0.210049	0.344558	0.907936
	H45	H	0.210056	0.671676	0.101975
	H46	H	0.781733	0.344395	0.104134
	H47	H	0.782255	0.670829	0.907431
	H48	H	0.403736	0.122481	0.596289
	H49	H	0.592853	0.889625	0.601494
	H50	H	0.585188	0.121410	0.413877
	H51	H	0.393602	0.886738	0.400701
	H52	H	0.594273	0.410919	0.123599
	H53	H	0.595985	0.592436	0.888219
	H54	H	0.406794	0.596625	0.119073
	H55	H	0.399889	0.417560	0.886682
	H56	H	0.111515	0.597648	0.410740
	H57	H	0.879213	0.599552	0.598462
	H58	H	0.115094	0.405016	0.595817
	H59	H	0.878294	0.418568	0.409656
	H60	H	0.109716	0.418137	0.590217
	H61	H	0.878224	0.603242	0.600455
	H62	H	0.115682	0.605987	0.406761
	H63	H	0.877411	0.411580	0.413753
	H64	H	0.406039	0.607260	0.122585
	H65	H	0.578355	0.602607	0.890425
	H66	H	0.587576	0.421715	0.119026
	H67	H	0.408112	0.415657	0.890056
	H68	H	0.592848	0.124126	0.411320
	H69	H	0.585300	0.892102	0.599588
	H70	H	0.396643	0.125421	0.597808
	H71	H	0.414186	0.895216	0.407484
	H72	H	0.908156	0.620582	0.095571
	H73	H	0.092859	0.390738	0.102558
	H74	H	0.091266	0.625300	0.907112
	H75	H	0.904418	0.392440	0.909544
	H76	H	0.088570	0.908191	0.623864
	H77	H	0.093374	0.099796	0.386413
	H78	H	0.905693	0.094730	0.618791
	H79	H	0.897729	0.918189	0.387197
	H80	H	0.612318	0.103082	0.916966
	H81	H	0.378070	0.106231	0.092978
	H82	H	0.614610	0.909080	0.095395
	H83	H	0.380422	0.910031	0.919950
	H84	H	0.610688	0.918099	0.093951
	H85	H	0.381359	0.096261	0.094455
	H86	H	0.612361	0.095585	0.908171
	H87	H	0.381160	0.923021	0.912858
	H88	H	0.906919	0.110888	0.622464
	H89	H	0.083589	0.098443	0.389928
	H90	H	0.092386	0.918939	0.622850
	H91	H	0.908232	0.918043	0.390044
	H92	H	0.087229	0.623124	0.910488
	H93	H	0.085520	0.394147	0.099601
	H94	H	0.895053	0.624233	0.094089
	H95	H	0.904705	0.392463	0.913066
	H96	H	0.402059	0.124621	0.603273
	H97	H	0.590632	0.892097	0.594330
	H98	H	0.586569	0.124266	0.405504
	H99	H	0.396256	0.894445	0.422933
	H100	H	0.581260	0.409711	0.120382
	H101	H	0.594853	0.612180	0.883562
	H102	H	0.396467	0.600964	0.122782
	H103	H	0.403479	0.409230	0.885791
	H104	H	0.111896	0.605363	0.416352
	H105	H	0.878897	0.603609	0.596407
	H106	H	0.114583	0.417048	0.604662
	H107	H	0.880794	0.418650	0.416936
	H108	H	0.900889	0.625732	0.106011
	H109	H	0.091846	0.393351	0.094589
	H110	H	0.092585	0.624215	0.912153
	H111	H	0.902167	0.392490	0.911479
	H112	H	0.082177	0.916110	0.619696
	H113	H	0.086667	0.107473	0.385099
	H114	H	0.892176	0.103258	0.625376
	H115	H	0.903371	0.909536	0.385963
	H116	H	0.615135	0.106188	0.906795
	H117	H	0.377523	0.101786	0.102665
	H118	H	0.613895	0.915125	0.102589
	H119	H	0.375315	0.910982	0.905966
	C120	C	0.372797	0.016359	0.627327
	C121	C	0.617032	0.999194	0.626152
	C122	C	0.617086	0.015609	0.382204
	C123	C	0.373169	0.999964	0.382434
	C124	C	0.617384	0.385993	0.012656
	C125	C	0.617461	0.629803	0.996132
	C126	C	0.374442	0.629904	0.013070
	C127	C	0.375125	0.386610	0.996239
	C128	C	0.004284	0.630700	0.383145
	C129	C	0.987690	0.629929	0.626481
	C130	C	0.004333	0.386113	0.626119
	C131	C	0.987333	0.387113	0.384112
	C132	C	0.873719	0.515799	0.127237
	C133	C	0.118031	0.500458	0.126721
	C134	C	0.118524	0.516121	0.882553
	C135	C	0.875194	0.500149	0.883100
	C136	C	0.116556	0.886736	0.513443
	C137	C	0.116121	0.129558	0.495971
	C138	C	0.873307	0.130795	0.513548
	C139	C	0.874629	0.887432	0.496214
	C140	C	0.504517	0.129891	0.882805
	C141	C	0.487554	0.129503	0.125601
	C142	C	0.504299	0.886334	0.125952
	C143	C	0.487387	0.886442	0.883692
	C144	C	0.376267	0.893685	0.682005
	C145	C	0.612465	0.122311	0.679754
	C146	C	0.614799	0.893219	0.327697
	C147	C	0.376015	0.122107	0.327326
	C148	C	0.672690	0.389968	0.889063
	C149	C	0.670725	0.625002	0.120304
	C150	C	0.320746	0.626322	0.888962
	C151	C	0.320605	0.390649	0.120118
	C152	C	0.880517	0.685483	0.385953
	C153	C	0.111129	0.685050	0.623577
	C154	C	0.880558	0.332289	0.624498
	C155	C	0.110647	0.331347	0.385658
	C156	C	0.880596	0.390575	0.680918
	C157	C	0.112216	0.625510	0.679234
	C158	C	0.880358	0.627569	0.328837
	C159	C	0.111756	0.390877	0.330188
	C160	C	0.376620	0.685205	0.889694
	C161	C	0.614921	0.684192	0.119828
	C162	C	0.616348	0.331343	0.889403
	C163	C	0.376566	0.331624	0.119846
	C164	C	0.672825	0.893590	0.385435
	C165	C	0.670438	0.122299	0.622325
	C166	C	0.318419	0.893723	0.624257
	C167	C	0.319075	0.122778	0.386308
	C168	C	0.877270	0.393553	0.182642
	C169	C	0.114577	0.623374	0.180854
	C170	C	0.115664	0.393504	0.828451
	C171	C	0.877968	0.622550	0.828339
	C172	C	0.170989	0.890524	0.389467
	C173	C	0.170150	0.125977	0.619840
	C174	C	0.820064	0.126530	0.388922
	C175	C	0.820380	0.891232	0.620485
	C176	C	0.380639	0.184911	0.885983
	C177	C	0.611229	0.183870	0.123277
	C178	C	0.380867	0.831455	0.124284
	C179	C	0.611197	0.831282	0.885369
	C180	C	0.380111	0.890592	0.179807
	C181	C	0.611503	0.125640	0.179826
	C182	C	0.380012	0.126368	0.829421
	C183	C	0.611533	0.890192	0.828961
	C184	C	0.875214	0.186344	0.390020
	C185	C	0.113031	0.183715	0.619865
	C186	C	0.114737	0.831740	0.390199
	C187	C	0.875562	0.831701	0.619499
	C188	C	0.172883	0.393501	0.886581
	C189	C	0.172726	0.623113	0.123082
	C190	C	0.819417	0.393176	0.124669
	C191	C	0.820042	0.622332	0.886321
	C192	C	0.394400	0.102043	0.605643
	C193	C	0.595886	0.913503	0.604781
	C194	C	0.594688	0.101150	0.403951
	C195	C	0.394854	0.914180	0.404045
	C196	C	0.594501	0.407691	0.098539
	C197	C	0.595949	0.608813	0.909734
	C198	C	0.396572	0.608198	0.099293
	C199	C	0.397343	0.407868	0.909916
	C200	C	0.090758	0.609381	0.404758
	C201	C	0.901005	0.608574	0.604876
	C202	C	0.090872	0.407252	0.603574
	C203	C	0.901063	0.409521	0.406680
	C204	C	0.894993	0.601332	0.105260
	C205	C	0.096383	0.415010	0.105362
	C206	C	0.096863	0.601840	0.903694
	C207	C	0.897362	0.414584	0.905090
	C208	C	0.094366	0.908205	0.599772
	C209	C	0.094347	0.108370	0.409453
	C210	C	0.895068	0.109294	0.599929
	C211	C	0.896714	0.908769	0.409807
	C212	C	0.590848	0.108116	0.904323
	C213	C	0.401169	0.107939	0.103281
	C214	C	0.590821	0.907656	0.103770
	C215	C	0.401239	0.908276	0.906201
	Zn216	Zn	0.495401	0.007690	0.755132
	Zn217	Zn	0.495825	0.007780	0.253317
	Zn218	Zn	0.745154	0.507399	0.004934
	Zn219	Zn	0.247031	0.508450	0.004364
	Zn220	Zn	-0.004585	0.758384	0.504838
	Zn221	Zn	-0.004917	0.258114	0.504616
	Zn222	Zn	-0.003148	0.507979	0.754146
	Zn223	Zn	-0.003880	0.508569	0.255856
	Zn224	Zn	0.495806	0.758092	0.004847
	Zn225	Zn	0.496318	0.257968	0.004852
	Zn226	Zn	0.746097	0.008184	0.504524
	Zn227	Zn	0.244413	0.007964	0.505129
	N228	N	0.409127	0.970909	0.684177
	N229	N	0.579917	0.044848	0.682285
	N230	N	0.580817	0.970200	0.325718
	N231	N	0.409237	0.044721	0.325070
	N232	N	0.673467	0.423264	0.966783
	N233	N	0.672568	0.591989	0.042567
	N234	N	0.319521	0.592430	0.966571
	N235	N	0.319767	0.424401	0.042557
	N236	N	0.958606	0.687458	0.419005
	N237	N	0.032644	0.688057	0.591593
	N238	N	0.958574	0.329463	0.591039
	N239	N	0.032410	0.329257	0.418681
	N240	N	0.958568	0.423554	0.681905
	N241	N	0.034447	0.591933	0.680958
	N242	N	0.958135	0.594043	0.327184
	N243	N	0.033925	0.424887	0.329045
	N244	N	0.409186	0.687698	0.967795
	N245	N	0.582178	0.687026	0.041719
	N246	N	0.582552	0.328924	0.967072
	N247	N	0.409626	0.328872	0.041722
	N248	N	0.674274	0.970762	0.418657
	N249	N	0.673338	0.044941	0.589764
	N250	N	0.316396	0.970981	0.590874
	N251	N	0.317232	0.045695	0.419862
	N252	N	0.909968	0.470848	0.184635
	N253	N	0.081462	0.546199	0.183348
	N254	N	0.082581	0.470805	0.825783
	N255	N	0.911279	0.545235	0.826156
	N256	N	0.171918	0.924098	0.467030
	N257	N	0.172181	0.092910	0.542135
	N258	N	0.818575	0.092881	0.466628
	N259	N	0.819776	0.925346	0.542910
	N260	N	0.458975	0.187282	0.918464
	N261	N	0.533088	0.186583	0.090531
	N262	N	0.459071	0.828774	0.091418
	N263	N	0.533055	0.828738	0.918703
	N264	N	0.458025	0.923850	0.181073
	N265	N	0.533673	0.092516	0.181308
	N266	N	0.457802	0.092684	0.827499
	N267	N	0.533769	0.923729	0.827962
	N268	N	0.907446	0.189063	0.468429
	N269	N	0.080072	0.185918	0.541674
	N270	N	0.081595	0.829140	0.468341
	N271	N	0.908582	0.829087	0.541369
	N272	N	0.174511	0.470778	0.919624
	N273	N	0.175032	0.545852	0.090096
	N274	N	0.817253	0.470205	0.090847
	N275	N	0.818262	0.545175	0.919820
	O276	O	0.044049	-0.054207	1.000591
	H277	H	0.039733	-0.059672	0.995504
	H278	H	0.043202	-0.043839	0.999035
	O279	O	0.527202	0.434957	0.426967
	H280	H	0.528860	0.433166	0.428154
	H281	H	0.531913	0.428120	0.424762
	O282	O	0.537421	0.431107	0.390672
	H283	H	0.528219	0.430862	0.388335
	H284	H	0.539495	0.432914	0.382831
	O285	O	0.539044	0.438213	0.433825
	H286	H	0.536589	0.433846	0.428621
	H287	H	0.540291	0.432958	0.441841
	O288	O	1.064286	-0.025332	-0.057734
	H289	H	1.071687	-0.024334	-0.066465
	H290	H	1.060450	-0.029383	-0.055135
	O291	O	0.037521	0.944216	0.966272
	H292	H	0.036180	0.938331	0.974578
	H293	H	0.035681	0.942344	0.968262
	O294	O	0.524702	0.451898	0.409325
	H295	H	0.525845	0.448723	0.410996
	H296	H	0.528713	0.456663	0.409657
	O297	O	1.033538	-0.045448	0.011130
	H298	H	1.037366	-0.040698	0.007763
	H299	H	1.043549	-0.051156	0.011796
