data_Molecule from HDF5

_cell_length_a		16.297415
_cell_length_b		16.170406
_cell_length_c		16.238364
_cell_angle_alpha	90.416338
_cell_angle_beta	89.992211
_cell_angle_gamma	89.766848
_symmetry_space_group_name_H-M	'P 1'
_symmetry_Int_Tables_number		1

loop_
	_symmetry_equiv_pos_as_xyz
	x,y,z

loop_
	_atom_site_label
	_atom_site_type_symbol
	_atom_site_fract_x
	_atom_site_fract_y
	_atom_site_fract_z
	H0	H	0.404164	0.839433	0.712619
	H1	H	0.600027	0.167595	0.716298
	H2	H	0.601733	0.839720	0.284534
	H3	H	0.402247	0.168805	0.287967
	H4	H	0.716150	0.401005	0.835477
	H5	H	0.716682	0.604168	0.162567
	H6	H	0.284276	0.604055	0.835858
	H7	H	0.284959	0.404640	0.162697
	H8	H	0.838427	0.717545	0.400532
	H9	H	0.165838	0.714869	0.598206
	H10	H	0.838161	0.290090	0.595013
	H11	H	0.165067	0.286715	0.399887
	H12	H	0.838304	0.401963	0.714027
	H13	H	0.163330	0.603118	0.717474
	H14	H	0.837661	0.599934	0.285323
	H15	H	0.164203	0.399823	0.282567
	H16	H	0.402151	0.717091	0.835281
	H17	H	0.598105	0.717612	0.164281
	H18	H	0.601133	0.285468	0.836155
	H19	H	0.402530	0.291034	0.163935
	H20	H	0.716780	0.839314	0.400278
	H21	H	0.716513	0.167972	0.602530
	H22	H	0.288167	0.839395	0.600036
	H23	H	0.284900	0.167475	0.402148
	H24	H	0.903973	0.337299	0.209537
	H25	H	0.100620	0.666170	0.216760
	H26	H	0.099933	0.337871	0.783401
	H27	H	0.900357	0.666894	0.785190
	H28	H	0.219628	0.900609	0.337272
	H29	H	0.215542	0.104193	0.664154
	H30	H	0.785086	0.102696	0.337265
	H31	H	0.788477	0.905569	0.664128
	H32	H	0.338095	0.217746	0.902279
	H33	H	0.665529	0.218498	0.099735
	H34	H	0.336867	0.791853	0.097854
	H35	H	0.664405	0.787310	0.900466
	H36	H	0.339042	0.905313	0.216510
	H37	H	0.665457	0.103915	0.216181
	H38	H	0.338716	0.103811	0.784766
	H39	H	0.664907	0.902275	0.784877
	H40	H	0.903541	0.214119	0.334659
	H41	H	0.099699	0.218623	0.662842
	H42	H	0.100736	0.787086	0.335670
	H43	H	0.903750	0.789766	0.663466
	H44	H	0.217882	0.339235	0.897137
	H45	H	0.214396	0.667489	0.100362
	H46	H	0.786119	0.338577	0.097344
	H47	H	0.785516	0.667098	0.899572
	H48	H	0.408384	0.118100	0.583096
	H49	H	0.598008	0.885555	0.592811
	H50	H	0.597059	0.119656	0.418401
	H51	H	0.408321	0.883440	0.398829
	H52	H	0.596322	0.407275	0.119041
	H53	H	0.602411	0.598229	0.878386
	H54	H	0.407039	0.595307	0.115383
	H55	H	0.415528	0.422617	0.887838
	H56	H	0.116552	0.587618	0.404862
	H57	H	0.886779	0.595220	0.585607
	H58	H	0.118973	0.406291	0.590158
	H59	H	0.888361	0.419858	0.404069
	H60	H	0.116430	0.414121	0.589801
	H61	H	0.885110	0.590630	0.597288
	H62	H	0.120451	0.597262	0.403360
	H63	H	0.880224	0.403078	0.392101
	H64	H	0.408457	0.600374	0.116544
	H65	H	0.592508	0.583712	0.885651
	H66	H	0.598444	0.417061	0.115503
	H67	H	0.416448	0.399697	0.882345
	H68	H	0.600593	0.125471	0.403757
	H69	H	0.594216	0.887150	0.592001
	H70	H	0.397800	0.125603	0.597885
	H71	H	0.420920	0.890564	0.409945
	H72	H	0.908697	0.622426	0.099092
	H73	H	0.087132	0.388777	0.086980
	H74	H	0.089569	0.616555	0.913752
	H75	H	0.900639	0.380669	0.899684
	H76	H	0.095058	0.912993	0.616312
	H77	H	0.095721	0.096078	0.381010
	H78	H	0.912832	0.099602	0.615948
	H79	H	0.917615	0.910530	0.384744
	H80	H	0.619997	0.105128	0.912240
	H81	H	0.386891	0.091396	0.096553
	H82	H	0.619045	0.910393	0.095025
	H83	H	0.388848	0.916614	0.914047
	H84	H	0.617665	0.909178	0.089576
	H85	H	0.383157	0.102609	0.098737
	H86	H	0.613364	0.086177	0.915301
	H87	H	0.383357	0.915933	0.895651
	H88	H	0.906229	0.099221	0.619219
	H89	H	0.098894	0.090680	0.382564
	H90	H	0.094219	0.906658	0.617695
	H91	H	0.906346	0.901903	0.379797
	H92	H	0.097786	0.621339	0.908364
	H93	H	0.101377	0.384323	0.085026
	H94	H	0.915124	0.617320	0.090470
	H95	H	0.917659	0.386429	0.900733
	H96	H	0.417273	0.121278	0.600405
	H97	H	0.597339	0.885479	0.589652
	H98	H	0.585438	0.119045	0.406851
	H99	H	0.404091	0.887196	0.415995
	H100	H	0.589316	0.412952	0.113965
	H101	H	0.584498	0.601327	0.883022
	H102	H	0.403539	0.599038	0.117482
	H103	H	0.396945	0.412144	0.879733
	H104	H	0.116742	0.594858	0.412288
	H105	H	0.882406	0.602978	0.594663
	H106	H	0.119318	0.411223	0.596332
	H107	H	0.884676	0.399970	0.413437
	H108	H	0.902692	0.620253	0.088591
	H109	H	0.095275	0.382562	0.098943
	H110	H	0.088419	0.620450	0.903128
	H111	H	0.906899	0.387622	0.915853
	H112	H	0.099805	0.908712	0.618303
	H113	H	0.092495	0.091525	0.384062
	H114	H	0.908727	0.093328	0.615281
	H115	H	0.903452	0.917170	0.382957
	H116	H	0.620255	0.092421	0.896769
	H117	H	0.386245	0.098625	0.087967
	H118	H	0.616878	0.913802	0.091646
	H119	H	0.382520	0.899783	0.906785
	C120	C	0.380301	0.012748	0.621709
	C121	C	0.624516	0.994876	0.621660
	C122	C	0.623575	0.012842	0.379368
	C123	C	0.380996	0.995417	0.379772
	C124	C	0.623220	0.381638	0.007769
	C125	C	0.622413	0.624375	0.990673
	C126	C	0.377766	0.626623	0.008180
	C127	C	0.380470	0.382913	0.991436
	C128	C	0.010223	0.622761	0.377911
	C129	C	0.993038	0.624639	0.621412
	C130	C	0.010071	0.381664	0.619894
	C131	C	0.992453	0.378646	0.375555
	C132	C	0.880341	0.510967	0.120282
	C133	C	0.122599	0.494156	0.120370
	C134	C	0.121762	0.511173	0.878145
	C135	C	0.879330	0.493821	0.877276
	C136	C	0.125112	0.880166	0.509200
	C137	C	0.123676	0.123337	0.490977
	C138	C	0.880353	0.125049	0.508377
	C139	C	0.880805	0.881859	0.491175
	C140	C	0.509950	0.124360	0.879086
	C141	C	0.493535	0.126674	0.123096
	C142	C	0.510054	0.882688	0.121337
	C143	C	0.492761	0.881271	0.877205
	C144	C	0.383647	0.888525	0.675588
	C145	C	0.620807	0.118513	0.678007
	C146	C	0.621774	0.888831	0.322790
	C147	C	0.382241	0.119413	0.325310
	C148	C	0.678438	0.381547	0.884558
	C149	C	0.678462	0.623952	0.113757
	C150	C	0.321974	0.624492	0.884847
	C151	C	0.323925	0.384818	0.114243
	C152	C	0.887191	0.679192	0.379694
	C153	C	0.116290	0.678635	0.619353
	C154	C	0.887026	0.327065	0.616303
	C155	C	0.116105	0.324086	0.379091
	C156	C	0.887063	0.382734	0.675446
	C157	C	0.115121	0.622529	0.678261
	C158	C	0.886734	0.620624	0.322760
	C159	C	0.115587	0.380280	0.320700
	C160	C	0.380596	0.680728	0.884536
	C161	C	0.619487	0.680306	0.114539
	C162	C	0.620944	0.324298	0.884898
	C163	C	0.381999	0.327954	0.114728
	C164	C	0.679325	0.888854	0.380076
	C165	C	0.678725	0.118700	0.621291
	C166	C	0.326011	0.888613	0.619614
	C167	C	0.323642	0.118629	0.381970
	C168	C	0.883203	0.386740	0.173165
	C169	C	0.120816	0.617271	0.178036
	C170	C	0.120171	0.387290	0.821542
	C171	C	0.880785	0.617634	0.822709
	C172	C	0.180865	0.881075	0.385721
	C173	C	0.177737	0.122983	0.614978
	C174	C	0.823821	0.122704	0.385638
	C175	C	0.826192	0.885057	0.614929
	C176	C	0.387169	0.180041	0.881719
	C177	C	0.616525	0.181242	0.120567
	C178	C	0.386446	0.828494	0.118819
	C179	C	0.615931	0.825722	0.880348
	C180	C	0.387375	0.884921	0.177613
	C181	C	0.616482	0.124451	0.178608
	C182	C	0.387330	0.123273	0.823096
	C183	C	0.615906	0.882555	0.822404
	C184	C	0.883161	0.177758	0.384369
	C185	C	0.120411	0.180275	0.614081
	C186	C	0.121904	0.824567	0.385053
	C187	C	0.883368	0.827259	0.614559
	C188	C	0.178981	0.388025	0.877862
	C189	C	0.177193	0.618072	0.119990
	C190	C	0.824593	0.387512	0.117258
	C191	C	0.823416	0.617769	0.879584
	C192	C	0.401698	0.099277	0.600197
	C193	C	0.602754	0.908181	0.598253
	C194	C	0.600959	0.099190	0.402892
	C195	C	0.404352	0.909348	0.401789
	C196	C	0.601118	0.405531	0.093831
	C197	C	0.599847	0.601322	0.904691
	C198	C	0.399836	0.604765	0.094141
	C199	C	0.403052	0.405148	0.905568
	C200	C	0.095558	0.600085	0.400268
	C201	C	0.907134	0.602739	0.599128
	C202	C	0.095920	0.403979	0.598378
	C203	C	0.906778	0.400907	0.396938
	C204	C	0.902318	0.597605	0.098949
	C205	C	0.100941	0.407517	0.097075
	C206	C	0.098669	0.597249	0.901579
	C207	C	0.901804	0.407231	0.899038
	C208	C	0.102968	0.902885	0.595163
	C209	C	0.102096	0.099631	0.404844
	C210	C	0.902677	0.103617	0.594655
	C211	C	0.902647	0.903486	0.404962
	C212	C	0.595786	0.101238	0.901531
	C213	C	0.407555	0.104186	0.100979
	C214	C	0.595617	0.904826	0.098894
	C215	C	0.407055	0.904083	0.899066
	Zn216	Zn	0.501735	0.003358	0.748792
	Zn217	Zn	0.502403	0.004438	0.250767
	Zn218	Zn	0.751808	0.503443	-0.001251
	Zn219	Zn	0.250609	0.503560	-0.000605
	Zn220	Zn	0.001972	0.752668	0.499621
	Zn221	Zn	0.002198	0.252218	0.498369
	Zn222	Zn	0.000421	0.502678	0.749357
	Zn223	Zn	0.001373	0.501307	0.248431
	Zn224	Zn	0.500698	0.753238	-0.000484
	Zn225	Zn	0.501782	0.253981	0.000508
	Zn226	Zn	0.752372	0.004151	0.500397
	Zn227	Zn	0.252385	0.002769	0.501376
	N228	N	0.416794	0.966649	0.677067
	N229	N	0.587703	0.040360	0.678353
	N230	N	0.587820	0.967002	0.322082
	N231	N	0.416942	0.041718	0.323541
	N232	N	0.680074	0.416686	0.962070
	N233	N	0.680363	0.590015	0.035805
	N234	N	0.319895	0.591748	0.962729
	N235	N	0.322936	0.418453	0.036709
	N236	N	0.964597	0.680616	0.413428
	N237	N	0.039204	0.679959	0.584721
	N238	N	0.964452	0.326064	0.582729
	N239	N	0.038677	0.322768	0.412490
	N240	N	0.964598	0.416207	0.677803
	N241	N	0.037371	0.589749	0.679797
	N242	N	0.964181	0.586099	0.321481
	N243	N	0.037854	0.413612	0.318371
	N244	N	0.414422	0.682401	0.962216
	N245	N	0.584968	0.680541	0.037146
	N246	N	0.587362	0.324413	0.962627
	N247	N	0.416648	0.326732	0.037421
	N248	N	0.680486	0.966820	0.414617
	N249	N	0.680975	0.040690	0.586901
	N250	N	0.323685	0.966781	0.586964
	N251	N	0.322949	0.040518	0.415198
	N252	N	0.916972	0.464639	0.175297
	N253	N	0.087664	0.539186	0.178370
	N254	N	0.085316	0.465066	0.821412
	N255	N	0.914654	0.539482	0.820967
	N256	N	0.183115	0.914774	0.463916
	N257	N	0.180003	0.088388	0.537304
	N258	N	0.822132	0.090546	0.463831
	N259	N	0.824107	0.918040	0.537079
	N260	N	0.464444	0.180851	0.915793
	N261	N	0.539107	0.182799	0.086905
	N262	N	0.463573	0.826994	0.084305
	N263	N	0.538394	0.824676	0.913713
	N264	N	0.465251	0.917629	0.179579
	N265	N	0.538749	0.091255	0.180482
	N266	N	0.464862	0.089480	0.821379
	N267	N	0.538240	0.916386	0.820259
	N268	N	0.917711	0.179228	0.461689
	N269	N	0.087328	0.180487	0.536136
	N270	N	0.088029	0.823741	0.462630
	N271	N	0.916837	0.825307	0.536702
	N272	N	0.179881	0.465920	0.912454
	N273	N	0.178380	0.540313	0.084909
	N274	N	0.822609	0.465934	0.085058
	N275	N	0.822379	0.539744	0.912795
	O276	O	0.053520	0.030946	0.002505
	H277	H	0.052601	0.035863	0.013432
	H278	H	0.058861	0.029276	0.001215
	O279	O	1.021763	1.016537	1.034632
	H280	H	1.021760	1.019556	1.040140
	H281	H	1.015271	1.018050	1.041760
	O282	O	0.474557	0.481815	0.575152
	H283	H	0.484913	0.495413	0.587239
	H284	H	0.468776	0.476551	0.581011
	O285	O	1.013003	-0.004424	0.935513
	H286	H	1.028202	-0.011924	0.929229
	H287	H	1.014711	-0.010601	0.943778
	O288	O	0.980881	0.003655	-0.049710
	H289	H	0.986853	0.001318	-0.049802
	H290	H	0.974755	0.007686	-0.046660
	O291	O	0.481816	0.483534	0.495657
	H292	H	0.484468	0.484706	0.497943
	H293	H	0.487105	0.466251	0.489338
	O294	O	1.537130	0.529256	0.586447
	H295	H	1.540783	0.535598	0.579206
	H296	H	1.543788	0.530043	0.594535
	O297	O	-0.470893	-0.586083	-0.547478
	H298	H	-0.471547	-0.598095	-0.552045
	H299	H	-0.465899	-0.582860	-0.554267
	O300	O	0.621106	0.561441	0.579623
	H301	H	0.617782	0.578959	0.569241
	H302	H	0.632420	0.557783	0.588273
	O303	O	0.517798	0.553414	0.593949
	H304	H	0.507676	0.559043	0.596024
	H305	H	0.516951	0.556297	0.597895
	O306	O	0.965920	0.033384	0.031848
	H307	H	0.968294	0.032934	0.032137
	H308	H	0.957282	0.030614	0.031375
	O309	O	-0.069302	-0.112173	1.066534
	H310	H	-0.074242	-0.121050	1.055875
	H311	H	-0.078372	-0.118625	1.075464
	O312	O	1.090948	0.921121	0.915819
	H313	H	1.097978	0.914975	0.908500
	H314	H	1.091690	0.911682	0.911690
	O315	O	0.515832	0.575170	0.448547
	H316	H	0.508572	0.576088	0.446185
	H317	H	0.517880	0.569045	0.445586
	O318	O	0.435655	0.468499	0.468985
	H319	H	0.442103	0.461772	0.468820
	H320	H	0.437486	0.465923	0.464274
	O321	O	0.032973	0.927671	0.926429
	H322	H	0.031474	0.930688	0.935216
	H323	H	0.036594	0.927555	0.920438
	O324	O	0.464850	0.493166	0.457968
	H325	H	0.465949	0.494381	0.459936
	H326	H	0.457376	0.497210	0.461382
	O327	O	0.511428	0.582380	0.449056
	H328	H	0.497665	0.591864	0.444680
	H329	H	0.517712	0.582113	0.439863
	O330	O	0.391130	0.443509	0.516726
	H331	H	0.394913	0.434114	0.515909
	H332	H	0.395204	0.445077	0.524122
	O333	O	0.481464	0.506101	0.490480
	H334	H	0.478720	0.497892	0.481876
	H335	H	0.489166	0.506609	0.496860
	O336	O	0.520039	0.542596	0.504854
	H337	H	0.506831	0.534603	0.501718
	H338	H	0.524257	0.542740	0.506289
	O339	O	0.990960	1.022072	0.017997
	H340	H	0.988919	1.034531	0.017969
	H341	H	0.991776	1.021558	0.021690
	O342	O	0.550107	0.502341	0.514308
	H343	H	0.533629	0.507668	0.514678
	H344	H	0.545833	0.499260	0.524553
	O345	O	0.408857	0.540525	0.473872
	H346	H	0.387592	0.548204	0.462796
	H347	H	0.407404	0.529780	0.476089
	O348	O	0.030239	-0.010721	0.038687
	H349	H	0.039731	-0.022127	0.028966
	H350	H	0.024319	0.004291	0.039740
	O351	O	-0.001767	0.952192	1.003958
	H352	H	-0.007876	0.953148	1.005527
	H353	H	-0.013819	0.958775	1.014346
	O354	O	0.568222	0.414402	0.408741
	H355	H	0.561714	0.418402	0.402778
	H356	H	0.581582	0.415905	0.423945
	O357	O	-0.001634	0.980497	1.062044
	H358	H	-0.002290	0.980953	1.067680
	H359	H	0.006013	0.978185	1.056543
