data_Molecule from HDF5

_cell_length_a		16.253916
_cell_length_b		16.195465
_cell_length_c		16.207853
_cell_angle_alpha	89.819062
_cell_angle_beta	89.467607
_cell_angle_gamma	90.128628
_symmetry_space_group_name_H-M	'P 1'
_symmetry_Int_Tables_number		1

loop_
	_symmetry_equiv_pos_as_xyz
	x,y,z

loop_
	_atom_site_label
	_atom_site_type_symbol
	_atom_site_fract_x
	_atom_site_fract_y
	_atom_site_fract_z
	H0	H	0.394350	0.840144	0.709904
	H1	H	0.591388	0.169590	0.707479
	H2	H	0.595432	0.841425	0.279785
	H3	H	0.396706	0.168879	0.281435
	H4	H	0.710610	0.405118	0.829729
	H5	H	0.708813	0.603477	0.157870
	H6	H	0.281100	0.606115	0.829518
	H7	H	0.275944	0.403141	0.157044
	H8	H	0.829671	0.719939	0.393588
	H9	H	0.157652	0.719227	0.589165
	H10	H	0.830922	0.289106	0.594457
	H11	H	0.158014	0.291532	0.391616
	H12	H	0.831287	0.404666	0.710221
	H13	H	0.157877	0.605355	0.705681
	H14	H	0.828762	0.603712	0.280236
	H15	H	0.157467	0.407176	0.276377
	H16	H	0.396887	0.721259	0.830472
	H17	H	0.593551	0.719159	0.158110
	H18	H	0.595716	0.289522	0.830274
	H19	H	0.393830	0.289709	0.158381
	H20	H	0.710311	0.841164	0.394573
	H21	H	0.708997	0.169147	0.594204
	H22	H	0.277420	0.841470	0.597144
	H23	H	0.280914	0.168355	0.395606
	H24	H	0.894062	0.341119	0.207700
	H25	H	0.092049	0.670067	0.203304
	H26	H	0.096343	0.340946	0.775485
	H27	H	0.897773	0.669306	0.780840
	H28	H	0.211640	0.906666	0.330804
	H29	H	0.207037	0.104431	0.658902
	H30	H	0.780640	0.105380	0.329885
	H31	H	0.778090	0.904632	0.657930
	H32	H	0.330233	0.219465	0.897888
	H33	H	0.658415	0.220004	0.092586
	H34	H	0.330996	0.789582	0.096992
	H35	H	0.658516	0.793527	0.896626
	H36	H	0.331182	0.904924	0.212749
	H37	H	0.658711	0.104742	0.207624
	H38	H	0.330001	0.105390	0.781458
	H39	H	0.657267	0.906784	0.779397
	H40	H	0.898570	0.218883	0.328594
	H41	H	0.093038	0.220641	0.657244
	H42	H	0.092661	0.794199	0.328265
	H43	H	0.892340	0.788396	0.656713
	H44	H	0.211228	0.340289	0.891901
	H45	H	0.208363	0.668669	0.089807
	H46	H	0.778023	0.340947	0.094902
	H47	H	0.779825	0.668202	0.893031
	H48	H	0.407448	0.122036	0.593235
	H49	H	0.581113	0.886645	0.594454
	H50	H	0.588721	0.124901	0.394295
	H51	H	0.410318	0.889602	0.404743
	H52	H	0.590683	0.417799	0.110511
	H53	H	0.577842	0.596913	0.880061
	H54	H	0.397666	0.596201	0.111967
	H55	H	0.412170	0.410863	0.879018
	H56	H	0.108040	0.587846	0.395407
	H57	H	0.878918	0.591266	0.586572
	H58	H	0.112721	0.413355	0.588225
	H59	H	0.875167	0.408757	0.397825
	H60	H	0.111621	0.407770	0.579784
	H61	H	0.874754	0.598123	0.590884
	H62	H	0.114967	0.606824	0.387295
	H63	H	0.877209	0.409942	0.403680
	H64	H	0.401837	0.592367	0.109060
	H65	H	0.592165	0.609652	0.872984
	H66	H	0.579944	0.412215	0.108771
	H67	H	0.398344	0.406484	0.873655
	H68	H	0.581642	0.120305	0.404829
	H69	H	0.583452	0.890633	0.579486
	H70	H	0.400141	0.120352	0.581613
	H71	H	0.400251	0.888968	0.411583
	H72	H	0.909927	0.617891	0.078846
	H73	H	0.080294	0.388237	0.086923
	H74	H	0.082917	0.620439	0.895444
	H75	H	0.901308	0.384836	0.896290
	H76	H	0.080875	0.913259	0.609224
	H77	H	0.093769	0.089391	0.377943
	H78	H	0.904607	0.098052	0.610271
	H79	H	0.893098	0.916110	0.374017
	H80	H	0.609171	0.096363	0.906743
	H81	H	0.377611	0.098151	0.090173
	H82	H	0.612604	0.910139	0.087502
	H83	H	0.376478	0.911099	0.904527
	H84	H	0.611363	0.911472	0.086708
	H85	H	0.377432	0.096789	0.087932
	H86	H	0.610898	0.092467	0.896416
	H87	H	0.376954	0.913104	0.903127
	H88	H	0.899615	0.098935	0.611634
	H89	H	0.080488	0.099607	0.379016
	H90	H	0.084781	0.906494	0.612823
	H91	H	0.908044	0.919413	0.379815
	H92	H	0.089979	0.619540	0.906933
	H93	H	0.087447	0.388452	0.079970
	H94	H	0.887457	0.625117	0.081178
	H95	H	0.908335	0.390066	0.902828
	H96	H	0.394511	0.125304	0.591677
	H97	H	0.594753	0.885612	0.587461
	H98	H	0.594101	0.122958	0.406215
	H99	H	0.399957	0.884915	0.400036
	H100	H	0.589144	0.406714	0.113849
	H101	H	0.596139	0.589965	0.876714
	H102	H	0.403197	0.598145	0.110811
	H103	H	0.400996	0.420729	0.878856
	H104	H	0.108771	0.605077	0.407805
	H105	H	0.877958	0.598711	0.582489
	H106	H	0.108388	0.417913	0.579604
	H107	H	0.877679	0.414428	0.399353
	H108	H	0.902407	0.626391	0.099838
	H109	H	0.089068	0.384292	0.089124
	H110	H	0.094776	0.624437	0.894902
	H111	H	0.898682	0.387618	0.906687
	H112	H	0.089084	0.914113	0.611636
	H113	H	0.095003	0.104937	0.373025
	H114	H	0.900665	0.093977	0.609958
	H115	H	0.904092	0.904282	0.374058
	H116	H	0.613334	0.103500	0.898019
	H117	H	0.378013	0.096320	0.090152
	H118	H	0.612411	0.911471	0.088622
	H119	H	0.376091	0.911264	0.902777
	C120	C	0.371406	0.014032	0.617966
	C121	C	0.615157	0.996385	0.616158
	C122	C	0.617132	0.014209	0.372846
	C123	C	0.374666	0.996088	0.375723
	C124	C	0.616119	0.383134	0.002722
	C125	C	0.616630	0.626880	0.985406
	C126	C	0.373156	0.625899	0.002482
	C127	C	0.372957	0.383170	0.985367
	C128	C	0.001934	0.627265	0.369667
	C129	C	0.985608	0.625782	0.613867
	C130	C	0.003274	0.382811	0.614207
	C131	C	0.985394	0.383265	0.370666
	C132	C	0.871218	0.514120	0.115310
	C133	C	0.114572	0.496035	0.113159
	C134	C	0.118118	0.512879	0.870051
	C135	C	0.874078	0.495949	0.872482
	C136	C	0.115144	0.883462	0.502559
	C137	C	0.116804	0.126872	0.485507
	C138	C	0.873783	0.126074	0.502144
	C139	C	0.871931	0.883333	0.484443
	C140	C	0.502652	0.126589	0.872777
	C141	C	0.485941	0.126578	0.116956
	C142	C	0.503487	0.882174	0.117545
	C143	C	0.485027	0.883796	0.873733
	C144	C	0.373695	0.889799	0.672970
	C145	C	0.612575	0.120075	0.670607
	C146	C	0.615431	0.890508	0.317453
	C147	C	0.376496	0.119668	0.319294
	C148	C	0.672357	0.385085	0.879015
	C149	C	0.670982	0.623794	0.108805
	C150	C	0.318659	0.625568	0.879057
	C151	C	0.315022	0.383744	0.108307
	C152	C	0.878539	0.682036	0.373438
	C153	C	0.108706	0.681631	0.609967
	C154	C	0.880043	0.326868	0.614128
	C155	C	0.108902	0.329312	0.372144
	C156	C	0.880161	0.384609	0.671521
	C157	C	0.108832	0.625053	0.668235
	C158	C	0.878205	0.624400	0.316572
	C159	C	0.108665	0.386766	0.314709
	C160	C	0.376123	0.682938	0.879352
	C161	C	0.613504	0.681353	0.108919
	C162	C	0.614913	0.327533	0.879205
	C163	C	0.373761	0.327709	0.109183
	C164	C	0.672466	0.890486	0.374687
	C165	C	0.671033	0.119875	0.614150
	C166	C	0.315677	0.890474	0.616926
	C167	C	0.319195	0.119488	0.376356
	C168	C	0.874143	0.390010	0.169886
	C169	C	0.112600	0.620178	0.167001
	C170	C	0.116494	0.389859	0.813776
	C171	C	0.876674	0.619921	0.817389
	C172	C	0.172731	0.886214	0.379504
	C173	C	0.170188	0.124767	0.609344
	C174	C	0.818853	0.124772	0.378545
	C175	C	0.816091	0.884562	0.608612
	C176	C	0.379423	0.182187	0.876633
	C177	C	0.609370	0.182136	0.113293
	C178	C	0.380183	0.826841	0.116943
	C179	C	0.608990	0.829913	0.875689
	C180	C	0.380266	0.884325	0.174703
	C181	C	0.609534	0.124961	0.170636
	C182	C	0.379047	0.125088	0.819000
	C183	C	0.608436	0.886295	0.817474
	C184	C	0.877085	0.181546	0.377963
	C185	C	0.113389	0.182797	0.608341
	C186	C	0.113754	0.830131	0.378302
	C187	C	0.872973	0.826862	0.607755
	C188	C	0.173629	0.389587	0.871433
	C189	C	0.170278	0.619728	0.110213
	C190	C	0.816388	0.389855	0.113833
	C191	C	0.818108	0.619404	0.873481
	C192	C	0.394103	0.100341	0.595509
	C193	C	0.592947	0.909952	0.593824
	C194	C	0.594766	0.100480	0.395201
	C195	C	0.396996	0.910101	0.398706
	C196	C	0.593344	0.405703	0.088913
	C197	C	0.595066	0.605144	0.898827
	C198	C	0.394547	0.602385	0.088453
	C199	C	0.396713	0.405997	0.899538
	C200	C	0.088228	0.606027	0.390445
	C201	C	0.899490	0.602698	0.592859
	C202	C	0.088641	0.406220	0.589756
	C203	C	0.899114	0.404685	0.393594
	C204	C	0.893243	0.600529	0.093040
	C205	C	0.092128	0.409513	0.091502
	C206	C	0.095679	0.599035	0.892424
	C207	C	0.896235	0.409846	0.895137
	C208	C	0.091752	0.904958	0.588963
	C209	C	0.095954	0.104442	0.398921
	C210	C	0.895349	0.103599	0.588206
	C211	C	0.894949	0.906552	0.398264
	C212	C	0.588689	0.104013	0.894155
	C213	C	0.399968	0.103768	0.095721
	C214	C	0.589603	0.904595	0.094459
	C215	C	0.398879	0.905379	0.896798
	Zn216	Zn	0.492907	0.004915	0.744962
	Zn217	Zn	0.495066	0.005041	0.245748
	Zn218	Zn	0.744847	0.504519	-0.006458
	Zn219	Zn	0.244306	0.503763	-0.006559
	Zn220	Zn	-0.006705	0.754799	0.492473
	Zn221	Zn	-0.005422	0.254770	0.492563
	Zn222	Zn	-0.005010	0.504720	0.743109
	Zn223	Zn	-0.006905	0.505575	0.242121
	Zn224	Zn	0.494272	0.754990	-0.005341
	Zn225	Zn	0.494605	0.254638	-0.004905
	Zn226	Zn	0.744441	0.005254	0.494388
	Zn227	Zn	0.244730	0.004840	0.495601
	N228	N	0.407699	0.967708	0.673799
	N229	N	0.578414	0.042236	0.671903
	N230	N	0.581772	0.968481	0.316036
	N231	N	0.410378	0.041927	0.318720
	N232	N	0.673428	0.418807	0.956921
	N233	N	0.672846	0.590316	0.030932
	N234	N	0.316662	0.590627	0.956653
	N235	N	0.314620	0.417575	0.030405
	N236	N	0.956466	0.684232	0.405767
	N237	N	0.030946	0.682411	0.577101
	N238	N	0.957475	0.325847	0.579196
	N239	N	0.031094	0.326952	0.406071
	N240	N	0.957914	0.418723	0.671996
	N241	N	0.031293	0.590886	0.670641
	N242	N	0.955993	0.591208	0.313968
	N243	N	0.030800	0.419827	0.313672
	N244	N	0.409324	0.683335	0.957109
	N245	N	0.580216	0.683131	0.031088
	N246	N	0.580769	0.326179	0.957113
	N247	N	0.409115	0.327096	0.031751
	N248	N	0.673752	0.968365	0.408327
	N249	N	0.672760	0.041836	0.580857
	N250	N	0.314062	0.968547	0.583391
	N251	N	0.318021	0.041714	0.410787
	N252	N	0.907518	0.468102	0.171050
	N253	N	0.078525	0.542223	0.169128
	N254	N	0.082704	0.467642	0.812791
	N255	N	0.910977	0.542329	0.816816
	N256	N	0.173757	0.918656	0.457870
	N257	N	0.172404	0.090730	0.531826
	N258	N	0.816583	0.091062	0.456772
	N259	N	0.815369	0.919099	0.530893
	N260	N	0.457271	0.183229	0.909242
	N261	N	0.531392	0.183484	0.080820
	N262	N	0.457812	0.825106	0.082576
	N263	N	0.531155	0.828066	0.909853
	N264	N	0.458086	0.917965	0.175403
	N265	N	0.531811	0.091154	0.173250
	N266	N	0.456614	0.091256	0.816406
	N267	N	0.530339	0.918834	0.815950
	N268	N	0.910592	0.182300	0.455598
	N269	N	0.081048	0.184304	0.530185
	N270	N	0.078578	0.828214	0.455810
	N271	N	0.906995	0.826019	0.529688
	N272	N	0.174984	0.467230	0.905581
	N273	N	0.171403	0.541494	0.077415
	N274	N	0.814487	0.468101	0.080361
	N275	N	0.816432	0.541386	0.907198
	O276	O	0.030344	-0.034019	0.034155
	H277	H	0.035400	-0.037045	0.037316
	H278	H	0.029860	-0.037650	0.039123
	O279	O	0.521793	0.583098	0.396274
	H280	H	0.520278	0.590259	0.393645
	H281	H	0.505394	0.585525	0.392987
	O282	O	0.406091	0.435697	0.600317
	H283	H	0.407307	0.421199	0.608873
	H284	H	0.407922	0.432108	0.604292
	O285	O	-0.002255	1.040184	1.003943
	H286	H	-0.005150	1.037278	0.991833
	H287	H	-0.012433	1.042277	1.004380
	O288	O	0.480187	0.519895	0.485947
	H289	H	0.481039	0.512934	0.476967
	H290	H	0.470319	0.523512	0.487698
	O291	O	0.993142	1.032482	0.971711
	H292	H	0.993842	1.026758	0.957156
	H293	H	0.988165	1.040346	0.962427
	O294	O	0.988777	0.927812	1.021184
	H295	H	1.001731	0.922179	1.027677
	H296	H	0.998976	0.929239	1.009638
	O297	O	1.043152	-0.035637	0.990509
	H298	H	1.042412	-0.032546	0.991561
	H299	H	1.044239	-0.040124	0.988949
	O300	O	0.507541	0.574099	0.506903
	H301	H	0.511759	0.567674	0.509817
	H302	H	0.491771	0.578110	0.509560
	O303	O	1.056365	-0.014221	0.003997
	H304	H	1.055233	-0.008112	-0.001960
	H305	H	1.059784	-0.007876	0.014273
	O306	O	0.064778	0.930327	0.961451
	H307	H	0.062166	0.924616	0.964809
	H308	H	0.066560	0.932382	0.956324
	O309	O	0.488610	0.462657	0.374782
	H310	H	0.492307	0.464813	0.376083
	H311	H	0.492011	0.468886	0.366237
	O312	O	0.942011	0.081610	1.042922
	H313	H	0.936933	0.081259	1.049137
	H314	H	0.940969	0.080075	1.034662
	O315	O	0.462905	0.511966	0.591168
	H316	H	0.462228	0.513938	0.596191
	H317	H	0.466160	0.500898	0.602526
	O318	O	0.473481	0.488318	0.539526
	H319	H	0.477395	0.493353	0.537071
	H320	H	0.486932	0.490260	0.554114
	O321	O	1.011523	0.983976	1.050249
	H322	H	1.009513	0.983356	1.059154
	H323	H	1.016589	0.992062	1.047086
	O324	O	0.520882	0.562400	0.502032
	H325	H	0.524110	0.572163	0.497226
	H326	H	0.517941	0.552150	0.504942
	O327	O	0.538768	0.442886	0.528429
	H328	H	0.545686	0.435343	0.528653
	H329	H	0.540162	0.439165	0.524245
	O330	O	1.026136	-0.023540	0.958390
	H331	H	1.024887	-0.027795	0.953871
	H332	H	1.028119	-0.025540	0.957250
	O333	O	0.917785	1.091607	-0.062929
	H334	H	0.915386	1.094458	-0.052622
	H335	H	0.912636	1.101009	-0.059665
	O336	O	0.359557	0.555467	0.447345
	H337	H	0.351927	0.548377	0.468197
	H338	H	0.364890	0.539660	0.441482
	O339	O	0.582511	0.500447	0.538080
	H340	H	0.579047	0.513363	0.542018
	H341	H	0.572038	0.498994	0.534243
	O342	O	0.472630	0.466536	0.558787
	H343	H	0.480096	0.468903	0.553124
	H344	H	0.479274	0.465384	0.549768
	O345	O	-0.066180	-0.029991	-0.080504
	H346	H	-0.070763	-0.032562	-0.080773
	H347	H	-0.070644	-0.025815	-0.071615
	O348	O	0.524109	0.444656	0.577191
	H349	H	0.538045	0.444845	0.584753
	H350	H	0.518863	0.465021	0.570686
	O351	O	0.560305	0.436026	0.441122
	H352	H	0.559785	0.440111	0.442100
	H353	H	0.567221	0.438124	0.440522
	O354	O	0.537760	0.537588	0.514346
	H355	H	0.525658	0.531828	0.504855
	H356	H	0.538495	0.538821	0.508470
	O357	O	0.369423	0.543872	0.493190
	H358	H	0.359537	0.548967	0.491372
	H359	H	0.368894	0.535454	0.503571
	O360	O	-0.006299	0.065839	-0.043947
	H361	H	-0.017494	0.067571	-0.047539
	H362	H	-0.001852	0.071627	-0.050575
	O363	O	0.438578	0.489564	0.381323
	H364	H	0.430986	0.483550	0.380375
	H365	H	0.444569	0.496949	0.371157
	O366	O	0.012675	0.004468	0.998837
	H367	H	0.014484	0.000505	1.007086
	H368	H	0.008836	0.004245	1.003187
	O369	O	0.572203	0.513881	0.469759
	H370	H	0.569695	0.517802	0.470024
	H371	H	0.572557	0.521296	0.475317
