data_Molecule from HDF5

_cell_length_a		16.498281
_cell_length_b		16.477906
_cell_length_c		16.490694
_cell_angle_alpha	90.036295
_cell_angle_beta	89.823498
_cell_angle_gamma	90.056561
_symmetry_space_group_name_H-M	'P 1'
_symmetry_Int_Tables_number		1

loop_
	_symmetry_equiv_pos_as_xyz
	x,y,z

loop_
	_atom_site_label
	_atom_site_type_symbol
	_atom_site_fract_x
	_atom_site_fract_y
	_atom_site_fract_z
	H0	H	0.391093	0.841785	0.707974
	H1	H	0.600096	0.158458	0.710061
	H2	H	0.605522	0.843501	0.263723
	H3	H	0.392133	0.157811	0.265574
	H4	H	0.716729	0.395494	0.830893
	H5	H	0.716393	0.603920	0.147627
	H6	H	0.275870	0.604042	0.831523
	H7	H	0.275380	0.395990	0.147168
	H8	H	0.839011	0.723849	0.383645
	H9	H	0.154985	0.721374	0.592161
	H10	H	0.840989	0.276690	0.597360
	H11	H	0.153360	0.280867	0.384305
	H12	H	0.839441	0.396429	0.710542
	H13	H	0.155248	0.604879	0.708655
	H14	H	0.837440	0.607169	0.268110
	H15	H	0.153167	0.396638	0.267106
	H16	H	0.394795	0.718142	0.830630
	H17	H	0.600257	0.720573	0.147328
	H18	H	0.600692	0.279015	0.830512
	H19	H	0.392344	0.279647	0.147153
	H20	H	0.721391	0.843916	0.379618
	H21	H	0.717990	0.158373	0.594786
	H22	H	0.275796	0.841976	0.591809
	H23	H	0.275276	0.158143	0.381427
	H24	H	0.888426	0.342792	0.212992
	H25	H	0.103171	0.656974	0.211919
	H26	H	0.105066	0.343489	0.765322
	H27	H	0.893495	0.657533	0.769814
	H28	H	0.218715	0.895682	0.330166
	H29	H	0.220881	0.109855	0.644250
	H30	H	0.771823	0.111505	0.331271
	H31	H	0.775467	0.897836	0.645500
	H32	H	0.337532	0.221385	0.884403
	H33	H	0.652194	0.225086	0.096361
	H34	H	0.339572	0.778324	0.096335
	H35	H	0.653400	0.779679	0.883266
	H36	H	0.342024	0.891663	0.214674
	H37	H	0.653801	0.108950	0.211665
	H38	H	0.336695	0.104360	0.769121
	H39	H	0.652619	0.896586	0.766278
	H40	H	0.889017	0.226860	0.331291
	H41	H	0.103289	0.224494	0.645160
	H42	H	0.103809	0.777792	0.331192
	H43	H	0.892887	0.782475	0.646279
	H44	H	0.218804	0.342620	0.882292
	H45	H	0.221049	0.655159	0.097513
	H46	H	0.775226	0.340562	0.094541
	H47	H	0.774864	0.656453	0.884623
	H48	H	0.402088	0.115408	0.578432
	H49	H	0.590673	0.886625	0.576285
	H50	H	0.579387	0.109170	0.402068
	H51	H	0.406503	0.890119	0.407777
	H52	H	0.589368	0.418430	0.099981
	H53	H	0.593053	0.591683	0.873752
	H54	H	0.410107	0.590677	0.101851
	H55	H	0.408319	0.405743	0.875493
	H56	H	0.102417	0.584439	0.409717
	H57	H	0.882076	0.590537	0.586489
	H58	H	0.110944	0.416389	0.583453
	H59	H	0.883713	0.413777	0.402298
	H60	H	0.111089	0.405904	0.575939
	H61	H	0.883084	0.596832	0.576767
	H62	H	0.108698	0.581675	0.389891
	H63	H	0.882897	0.413675	0.401558
	H64	H	0.403750	0.588297	0.103253
	H65	H	0.585647	0.582903	0.878815
	H66	H	0.575968	0.411218	0.099365
	H67	H	0.402585	0.411728	0.875638
	H68	H	0.588503	0.112201	0.402867
	H69	H	0.582039	0.888335	0.580443
	H70	H	0.409381	0.113932	0.582737
	H71	H	0.405252	0.886244	0.396379
	H72	H	0.902843	0.612714	0.077157
	H73	H	0.085528	0.388097	0.076078
	H74	H	0.079073	0.609400	0.902087
	H75	H	0.904658	0.386551	0.901189
	H76	H	0.084715	0.911278	0.600037
	H77	H	0.079471	0.087253	0.379256
	H78	H	0.906994	0.090870	0.600129
	H79	H	0.903562	0.916638	0.374867
	H80	H	0.607098	0.088399	0.898581
	H81	H	0.384597	0.088426	0.079059
	H82	H	0.609566	0.912002	0.077989
	H83	H	0.382170	0.906054	0.901744
	H84	H	0.609511	0.908949	0.075297
	H85	H	0.386118	0.087775	0.073169
	H86	H	0.607448	0.088875	0.898007
	H87	H	0.383881	0.912756	0.899028
	H88	H	0.905422	0.087616	0.598407
	H89	H	0.085629	0.095224	0.374548
	H90	H	0.087322	0.911012	0.601351
	H91	H	0.914716	0.914813	0.377538
	H92	H	0.091294	0.611925	0.905899
	H93	H	0.081880	0.387253	0.079480
	H94	H	0.907904	0.612519	0.081630
	H95	H	0.907105	0.385809	0.897269
	H96	H	0.408767	0.111231	0.574482
	H97	H	0.583265	0.890386	0.571137
	H98	H	0.583887	0.114456	0.394892
	H99	H	0.415797	0.890801	0.400440
	H100	H	0.588162	0.403830	0.104932
	H101	H	0.580982	0.594087	0.876608
	H102	H	0.408413	0.584558	0.099824
	H103	H	0.410060	0.413286	0.878543
	H104	H	0.111433	0.600463	0.399455
	H105	H	0.886259	0.585923	0.576694
	H106	H	0.106534	0.416604	0.571291
	H107	H	0.883669	0.412719	0.402175
	H108	H	0.909042	0.610227	0.075152
	H109	H	0.080797	0.389187	0.075082
	H110	H	0.087528	0.614898	0.893800
	H111	H	0.909555	0.387419	0.901240
	H112	H	0.086840	0.913733	0.599622
	H113	H	0.089877	0.084926	0.376167
	H114	H	0.909350	0.088553	0.599044
	H115	H	0.908520	0.906217	0.373548
	H116	H	0.607649	0.089230	0.898689
	H117	H	0.386938	0.083153	0.077048
	H118	H	0.608555	0.912752	0.074078
	H119	H	0.380280	0.907869	0.895049
	C120	C	0.374162	0.009015	0.610188
	C121	C	0.616639	0.992882	0.608553
	C122	C	0.618919	0.009125	0.365773
	C123	C	0.376877	0.992941	0.367835
	C124	C	0.616926	0.378330	-0.002798
	C125	C	0.617984	0.621368	0.980985
	C126	C	0.375468	0.620138	-0.002416
	C127	C	0.374783	0.378087	0.980759
	C128	C	0.003801	0.622051	0.367393
	C129	C	0.988506	0.622694	0.610612
	C130	C	0.005951	0.379656	0.610458
	C131	C	0.987383	0.380483	0.368476
	C132	C	0.873704	0.507730	0.110952
	C133	C	0.116348	0.491504	0.109996
	C134	C	0.118571	0.508309	0.867651
	C135	C	0.875403	0.490837	0.867937
	C136	C	0.118697	0.879176	0.496516
	C137	C	0.117976	0.122190	0.480327
	C138	C	0.874573	0.123153	0.495770
	C139	C	0.876021	0.880597	0.479479
	C140	C	0.503436	0.121557	0.866770
	C141	C	0.488991	0.120766	0.109539
	C142	C	0.505469	0.878917	0.109658
	C143	C	0.486901	0.878152	0.866845
	C144	C	0.372183	0.889604	0.668931
	C145	C	0.618177	0.111394	0.669279
	C146	C	0.623341	0.890840	0.304275
	C147	C	0.374465	0.110978	0.306533
	C148	C	0.676911	0.376617	0.878167
	C149	C	0.676938	0.622742	0.100034
	C150	C	0.316254	0.622143	0.878603
	C151	C	0.315331	0.376869	0.099664
	C152	C	0.885924	0.683408	0.365426
	C153	C	0.107352	0.681988	0.611305
	C154	C	0.887766	0.317951	0.614379
	C155	C	0.106327	0.320838	0.365831
	C156	C	0.887231	0.377207	0.670945
	C157	C	0.107507	0.624230	0.669413
	C158	C	0.885151	0.625114	0.307830
	C159	C	0.105832	0.378077	0.307404
	C160	C	0.375117	0.679035	0.878312
	C161	C	0.619370	0.681035	0.099860
	C162	C	0.619338	0.318501	0.878129
	C163	C	0.373356	0.318944	0.099783
	C164	C	0.681211	0.891239	0.361947
	C165	C	0.676906	0.111400	0.611958
	C166	C	0.314685	0.889884	0.611055
	C167	C	0.316369	0.111124	0.364223
	C168	C	0.870788	0.389710	0.172159
	C169	C	0.120514	0.609543	0.171504
	C170	C	0.122096	0.390456	0.806229
	C171	C	0.874382	0.609903	0.809107
	C172	C	0.178834	0.877341	0.377735
	C173	C	0.179983	0.127080	0.597337
	C174	C	0.812808	0.128324	0.378236
	C175	C	0.815761	0.879155	0.598160
	C176	C	0.384635	0.181212	0.865884
	C177	C	0.605716	0.183888	0.113458
	C178	C	0.387240	0.818316	0.113889
	C179	C	0.605903	0.819228	0.864518
	C180	C	0.388390	0.874821	0.172778
	C181	C	0.606481	0.126021	0.171148
	C182	C	0.384201	0.123105	0.808446
	C183	C	0.605547	0.877285	0.806468
	C184	C	0.871265	0.185748	0.378302
	C185	C	0.121011	0.183894	0.598015
	C186	C	0.121627	0.818604	0.378288
	C187	C	0.873753	0.821380	0.598485
	C188	C	0.179215	0.390126	0.864290
	C189	C	0.179204	0.608737	0.114336
	C190	C	0.814126	0.388601	0.113299
	C191	C	0.815616	0.609474	0.866425
	C192	C	0.399436	0.091917	0.585621
	C193	C	0.592203	0.910051	0.583374
	C194	C	0.591899	0.090660	0.392411
	C195	C	0.402010	0.910654	0.393843
	C196	C	0.591763	0.403578	0.079911
	C197	C	0.593552	0.596641	0.898050
	C198	C	0.400131	0.595091	0.080102
	C199	C	0.399943	0.403100	0.898049
	C200	C	0.086107	0.596189	0.392562
	C201	C	0.905476	0.598113	0.586814
	C202	C	0.088099	0.405446	0.584429
	C203	C	0.904981	0.406036	0.394461
	C204	C	0.899102	0.590127	0.085256
	C205	C	0.090197	0.409572	0.084338
	C206	C	0.093341	0.590932	0.893415
	C207	C	0.900119	0.408017	0.892624
	C208	C	0.093438	0.904716	0.579000
	C209	C	0.092287	0.096476	0.398046
	C210	C	0.900084	0.096736	0.577707
	C211	C	0.901724	0.905568	0.396955
	C212	C	0.585772	0.096131	0.891508
	C213	C	0.407081	0.093932	0.083748
	C214	C	0.587847	0.904055	0.083320
	C215	C	0.403679	0.902005	0.891527
	Zn216	Zn	0.495128	0.000174	0.738150
	Zn217	Zn	0.497805	0.000104	0.237944
	Zn218	Zn	0.745827	0.499318	-0.010416
	Zn219	Zn	0.246165	0.499355	-0.010727
	Zn220	Zn	-0.003480	0.750888	0.488517
	Zn221	Zn	-0.003420	0.251398	0.488708
	Zn222	Zn	-0.002255	0.500455	0.739388
	Zn223	Zn	-0.005153	0.500727	0.239303
	Zn224	Zn	0.496440	0.749906	-0.010811
	Zn225	Zn	0.496062	0.249500	-0.011461
	Zn226	Zn	0.746290	0.001359	0.487537
	Zn227	Zn	0.246970	0.001233	0.488140
	N228	N	0.407995	0.964873	0.668835
	N229	N	0.581263	0.036563	0.667199
	N230	N	0.585416	0.964936	0.306524
	N231	N	0.411225	0.036181	0.308395
	N232	N	0.675739	0.412886	0.953231
	N233	N	0.676412	0.586520	0.024979
	N234	N	0.316047	0.586701	0.953942
	N235	N	0.315732	0.412321	0.024389
	N236	N	0.960840	0.681572	0.401635
	N237	N	0.032156	0.681374	0.575839
	N238	N	0.962657	0.319304	0.577463
	N239	N	0.031735	0.322237	0.402946
	N240	N	0.961562	0.414600	0.668681
	N241	N	0.032524	0.587994	0.669218
	N242	N	0.959644	0.587992	0.308750
	N243	N	0.030711	0.414161	0.308851
	N244	N	0.411014	0.678225	0.953316
	N245	N	0.583414	0.680200	0.024740
	N246	N	0.582937	0.319491	0.953181
	N247	N	0.409069	0.319269	0.024600
	N248	N	0.678623	0.965875	0.399293
	N249	N	0.675935	0.036926	0.574685
	N250	N	0.315697	0.965315	0.575477
	N251	N	0.317642	0.036643	0.401455
	N252	N	0.906840	0.464774	0.171043
	N253	N	0.081847	0.535790	0.168853
	N254	N	0.085132	0.465095	0.808166
	N255	N	0.910740	0.535016	0.809889
	N256	N	0.176978	0.914528	0.452380
	N257	N	0.178070	0.089463	0.523141
	N258	N	0.814736	0.090167	0.452329
	N259	N	0.816707	0.914883	0.522942
	N260	N	0.459826	0.180303	0.901326
	N261	N	0.531520	0.180860	0.076016
	N262	N	0.461017	0.820862	0.075169
	N263	N	0.531021	0.819506	0.900999
	N264	N	0.462993	0.911746	0.170265
	N265	N	0.532718	0.087338	0.168636
	N266	N	0.459160	0.086671	0.808695
	N267	N	0.530296	0.913075	0.807691
	N268	N	0.908873	0.182694	0.452398
	N269	N	0.083208	0.181063	0.523973
	N270	N	0.085000	0.819641	0.453090
	N271	N	0.910238	0.821982	0.523463
	N272	N	0.176909	0.464432	0.901984
	N273	N	0.176594	0.534491	0.076649
	N274	N	0.815688	0.463227	0.075977
	N275	N	0.816203	0.534446	0.902406
	O276	O	0.436252	0.295231	0.690049
	H277	H	0.404689	0.300825	0.692913
	H278	H	0.427325	0.287644	0.713708
	O279	O	0.714909	0.717588	0.518982
	H280	H	0.726916	0.727093	0.549441
	H281	H	0.728643	0.732540	0.542437
	O282	O	1.058871	0.996243	0.146904
	H283	H	1.068493	1.001117	0.146527
	H284	H	1.067609	1.007611	0.134765
	O285	O	0.799634	0.191066	0.792382
	H286	H	0.806241	0.182790	0.812913
	H287	H	0.803470	0.176487	0.778516
	O288	O	0.150036	-0.138550	0.151982
	H289	H	0.140929	-0.140759	0.160740
	H290	H	0.156100	-0.139700	0.153839
	O291	O	0.966489	1.215451	-0.225840
	H292	H	0.953847	1.229148	-0.242022
	H293	H	0.972215	1.226428	-0.220374
	O294	O	0.524204	0.717432	-0.298343
	H295	H	0.545045	0.736175	-0.278724
	H296	H	0.551214	0.723562	-0.298803
	O297	O	0.385423	0.328709	0.642518
	H298	H	0.367168	0.333684	0.626712
	H299	H	0.387630	0.351498	0.637705
	O300	O	0.408146	0.505956	0.511411
	H301	H	0.417424	0.498957	0.519720
	H302	H	0.404721	0.519038	0.514705
	O303	O	0.138161	0.164149	0.890599
	H304	H	0.150310	0.137761	0.894710
	H305	H	0.117577	0.165826	0.897551
	O306	O	-0.190063	0.810363	1.168727
	H307	H	-0.200642	0.839603	1.156499
	H308	H	-0.164007	0.815401	1.181959
	O309	O	1.195441	0.954704	1.013495
	H310	H	1.197654	0.939200	1.016119
	H311	H	1.194351	0.952916	1.020063
	O312	O	0.593232	0.455644	0.437366
	H313	H	0.601381	0.469986	0.424648
	H314	H	0.607039	0.448551	0.429233
	O315	O	-0.217379	-0.025092	1.205008
	H316	H	-0.231831	-0.016253	1.226827
	H317	H	-0.211281	-0.011727	1.210179
	O318	O	-0.442556	0.640442	0.433651
	H319	H	-0.437743	0.633569	0.445320
	H320	H	-0.437236	0.637587	0.450137
	O321	O	0.549348	0.577882	0.542334
	H322	H	0.547462	0.575651	0.541688
	H323	H	0.563300	0.582901	0.560287
	O324	O	1.200742	-0.071227	0.777848
	H325	H	1.205638	-0.056811	0.762499
	H326	H	1.197182	-0.088158	0.780366
	O327	O	1.411788	0.505569	0.592129
	H328	H	1.418306	0.517356	0.584749
	H329	H	1.426465	0.503901	0.603874
	O330	O	1.021175	0.188206	0.156368
	H331	H	1.026344	0.189987	0.142062
	H332	H	1.025217	0.212704	0.175970
	O333	O	1.210521	0.786136	0.959428
	H334	H	1.214754	0.774638	0.967002
	H335	H	1.213605	0.785847	0.964189
	O336	O	0.908095	-0.030039	0.771207
	H337	H	0.929613	-0.004052	0.775932
	H338	H	0.914800	-0.051044	0.756689
	O339	O	0.319684	0.487254	0.687239
	H340	H	0.317671	0.499163	0.705763
	H341	H	0.326823	0.503140	0.671492
	O342	O	0.443568	0.292943	0.437720
	H343	H	0.440137	0.277188	0.439253
	H344	H	0.456231	0.285567	0.459714
	O345	O	-0.018090	0.065223	0.223631
	H346	H	-0.001226	0.075064	0.231481
	H347	H	0.000696	0.079361	0.225703
	O348	O	1.092448	0.036176	0.761497
	H349	H	1.103074	0.044048	0.749858
	H350	H	1.100103	0.049160	0.771256
	O351	O	1.121411	1.111261	0.119993
	H352	H	1.129664	1.123445	0.108098
	H353	H	1.108917	1.098906	0.111633
	O354	O	0.701907	0.521071	0.355279
	H355	H	0.691781	0.516566	0.378110
	H356	H	0.708349	0.543901	0.359312
	O357	O	0.815057	0.998705	0.792906
	H358	H	0.825094	0.991074	0.801027
	H359	H	0.818842	0.991863	0.789913
	O360	O	0.285558	0.710755	0.464695
	H361	H	0.295856	0.711819	0.440170
	H362	H	0.266784	0.729775	0.452397
	O363	O	0.153448	0.821190	-0.196229
	H364	H	0.152652	0.823882	-0.164535
	H365	H	0.172308	0.820122	-0.215490
	O366	O	0.948835	-0.218268	0.927845
	H367	H	0.959282	-0.217063	0.936656
	H368	H	0.962386	-0.228174	0.911778
	O369	O	0.713868	0.497781	0.496260
	H370	H	0.711759	0.495644	0.496358
	H371	H	0.712501	0.497520	0.494450
	O372	O	0.514691	0.299323	0.291378
	H373	H	0.501025	0.284719	0.286489
	H374	H	0.500840	0.314251	0.283370
	O375	O	0.968704	0.779847	0.206830
	H376	H	0.965153	0.797008	0.200096
	H377	H	0.969718	0.752288	0.242031
	O378	O	0.302563	0.689015	0.297832
	H379	H	0.328399	0.679715	0.302204
	H380	H	0.321540	0.661731	0.289623
	O381	O	0.984538	0.187290	0.004909
	H382	H	0.994888	0.181643	0.004241
	H383	H	0.965967	0.176482	0.007148
	O384	O	0.034317	-0.152143	0.768689
	H385	H	0.066260	-0.146324	0.769990
	H386	H	0.044187	-0.168180	0.752206
	O387	O	-0.204029	0.975857	0.989194
	H388	H	-0.206859	0.980472	1.020771
	H389	H	-0.204450	0.945550	0.989835
	O390	O	0.214508	0.215114	1.029651
	H391	H	0.212415	0.224648	1.012079
	H392	H	0.224110	0.228414	1.018690
	O393	O	1.061313	0.777384	0.046678
	H394	H	1.056938	0.780524	0.066464
	H395	H	1.067288	0.779225	0.049918
	O396	O	0.616437	0.499276	0.690100
	H397	H	0.613119	0.468084	0.686171
	H398	H	0.608950	0.487317	0.679870
	O399	O	0.702828	0.707104	0.690527
	H400	H	0.708334	0.651838	0.699144
	H401	H	0.736682	0.734580	0.726509
	O402	O	0.132685	0.001354	0.966125
	H403	H	0.116617	-0.011553	0.968529
	H404	H	0.139471	-0.015853	0.970058
	O405	O	-0.215313	-0.205878	0.004713
	H406	H	-0.198900	-0.213671	0.010541
	H407	H	-0.226689	-0.215384	0.021548
	O408	O	0.352923	0.291061	0.468299
	H409	H	0.361291	0.288775	0.462658
	H410	H	0.369731	0.291307	0.484303
	O411	O	0.599794	0.397753	0.598748
	H412	H	0.566977	0.386896	0.587974
	H413	H	0.606807	0.386207	0.584631
	O414	O	0.297056	0.515752	0.445513
	H415	H	0.290826	0.538040	0.453967
	H416	H	0.288857	0.505418	0.450621
	O417	O	0.387164	0.530517	0.572242
	H418	H	0.397939	0.514278	0.578091
	H419	H	0.405287	0.528230	0.558893
	O420	O	0.466860	0.708159	0.278206
	H421	H	0.484587	0.728747	0.271648
	H422	H	0.488713	0.715122	0.290332
	O423	O	-0.040375	1.085783	-0.008167
	H424	H	-0.038966	1.083159	-0.016552
	H425	H	-0.050435	1.073743	-0.014067
	O426	O	0.675482	1.317867	1.311016
	H427	H	0.651409	1.326538	1.296191
	H428	H	0.664884	1.348113	1.298247
	O429	O	0.052267	-0.821582	0.920469
	H430	H	0.059795	-0.835320	0.922889
	H431	H	0.031751	-0.819262	0.929337
	O432	O	0.711264	0.282992	0.468716
	H433	H	0.743931	0.246641	0.461760
	H434	H	0.698111	0.295467	0.419941
	O435	O	-0.067026	0.014938	0.039319
	H436	H	-0.061389	0.028287	0.041022
	H437	H	-0.080081	0.005822	0.019004
	O438	O	0.779015	0.214025	-0.044101
	H439	H	0.775167	0.210556	-0.055599
	H440	H	0.762489	0.230177	-0.040404
	O441	O	0.515252	0.526838	0.297228
	H442	H	0.529206	0.528996	0.295209
	H443	H	0.494860	0.544753	0.318291
	O444	O	-0.192752	0.808736	0.799300
	H445	H	-0.176156	0.829855	0.815567
	H446	H	-0.173413	0.828025	0.816495
	O447	O	1.203565	1.018604	1.196362
	H448	H	1.203866	1.026248	1.207083
	H449	H	1.209495	1.024703	1.188096
	O450	O	0.290699	0.505747	0.380225
	H451	H	0.284282	0.487757	0.389065
	H452	H	0.296311	0.502360	0.371618
	O453	O	0.448820	0.717152	0.527165
	H454	H	0.440435	0.712240	0.525401
	H455	H	0.452415	0.721989	0.542449
	O456	O	0.599198	0.487155	0.281242
	H457	H	0.614013	0.483853	0.274033
	H458	H	0.594602	0.498819	0.303793
	O459	O	0.584111	0.560589	0.644488
	H460	H	0.594723	0.559896	0.651499
	H461	H	0.585419	0.547625	0.636125
	O462	O	0.265839	1.266424	1.343970
	H463	H	0.247426	1.254699	1.335163
	H464	H	0.291875	1.254841	1.325223
	O465	O	0.790304	0.091617	0.075551
	H466	H	0.801897	0.097955	0.074219
	H467	H	0.783304	0.091877	0.064325
