data_Molecule from HDF5

_cell_length_a		16.356407
_cell_length_b		16.394925
_cell_length_c		16.409209
_cell_angle_alpha	89.927318
_cell_angle_beta	89.993073
_cell_angle_gamma	90.064275
_symmetry_space_group_name_H-M	'P 1'
_symmetry_Int_Tables_number		1

loop_
	_symmetry_equiv_pos_as_xyz
	x,y,z

loop_
	_atom_site_label
	_atom_site_type_symbol
	_atom_site_fract_x
	_atom_site_fract_y
	_atom_site_fract_z
	H0	H	0.396931	0.844066	0.714246
	H1	H	0.608889	0.162117	0.715664
	H2	H	0.604417	0.844045	0.273176
	H3	H	0.393894	0.162040	0.271161
	H4	H	0.721123	0.398064	0.834714
	H5	H	0.722230	0.611272	0.151784
	H6	H	0.278935	0.606939	0.832966
	H7	H	0.278316	0.399897	0.152739
	H8	H	0.841422	0.725565	0.388762
	H9	H	0.159643	0.725349	0.600920
	H10	H	0.842428	0.280304	0.601037
	H11	H	0.160896	0.284279	0.388077
	H12	H	0.840865	0.397183	0.715375
	H13	H	0.157598	0.611292	0.717681
	H14	H	0.842181	0.610529	0.271637
	H15	H	0.159423	0.399468	0.271696
	H16	H	0.394278	0.724264	0.832772
	H17	H	0.608045	0.728609	0.151226
	H18	H	0.601999	0.285030	0.833551
	H19	H	0.390180	0.279369	0.150672
	H20	H	0.720241	0.843950	0.389668
	H21	H	0.723004	0.161724	0.598212
	H22	H	0.278889	0.844362	0.600201
	H23	H	0.280508	0.163052	0.388299
	H24	H	0.895256	0.345689	0.215462
	H25	H	0.108897	0.662676	0.215867
	H26	H	0.108141	0.347718	0.768665
	H27	H	0.890411	0.662108	0.768349
	H28	H	0.220884	0.900183	0.333623
	H29	H	0.223129	0.109380	0.652197
	H30	H	0.778595	0.111506	0.335004
	H31	H	0.777346	0.895155	0.650631
	H32	H	0.341066	0.224761	0.885563
	H33	H	0.656552	0.228402	0.099511
	H34	H	0.339228	0.782595	0.097455
	H35	H	0.657546	0.780157	0.885395
	H36	H	0.340075	0.896434	0.215894
	H37	H	0.658896	0.108699	0.212912
	H38	H	0.343265	0.110506	0.768569
	H39	H	0.658861	0.894925	0.769441
	H40	H	0.894911	0.228137	0.336085
	H41	H	0.108771	0.227231	0.652096
	H42	H	0.108413	0.781740	0.335190
	H43	H	0.895172	0.781578	0.651703
	H44	H	0.220254	0.345782	0.887164
	H45	H	0.221194	0.663119	0.097971
	H46	H	0.777842	0.346087	0.099421
	H47	H	0.776520	0.662738	0.886765
	H48	H	0.408683	0.117362	0.578949
	H49	H	0.581961	0.890306	0.588439
	H50	H	0.588631	0.117834	0.400651
	H51	H	0.414545	0.891968	0.404231
	H52	H	0.584840	0.411277	0.106744
	H53	H	0.587112	0.589675	0.881793
	H54	H	0.408964	0.595249	0.107768
	H55	H	0.412327	0.411218	0.878779
	H56	H	0.114592	0.591906	0.403989
	H57	H	0.886266	0.596080	0.579318
	H58	H	0.113566	0.421943	0.586086
	H59	H	0.886585	0.414978	0.402424
	H60	H	0.115644	0.412008	0.583111
	H61	H	0.887942	0.591008	0.578914
	H62	H	0.115238	0.594158	0.403884
	H63	H	0.887710	0.413654	0.408562
	H64	H	0.409319	0.589857	0.104826
	H65	H	0.584658	0.594206	0.881675
	H66	H	0.591638	0.417356	0.107744
	H67	H	0.404148	0.412717	0.877385
	H68	H	0.589433	0.116963	0.404603
	H69	H	0.586638	0.893664	0.573842
	H70	H	0.414486	0.117486	0.586900
	H71	H	0.409526	0.890184	0.407394
	H72	H	0.910868	0.616824	0.080270
	H73	H	0.085011	0.391103	0.087171
	H74	H	0.087722	0.616660	0.909391
	H75	H	0.907465	0.390270	0.904515
	H76	H	0.088383	0.914540	0.606315
	H77	H	0.092186	0.092778	0.379527
	H78	H	0.917473	0.089618	0.604198
	H79	H	0.908768	0.920667	0.380484
	H80	H	0.608426	0.085453	0.912674
	H81	H	0.387703	0.087651	0.080728
	H82	H	0.611554	0.910966	0.076585
	H83	H	0.389137	0.918128	0.909019
	H84	H	0.609767	0.921978	0.080600
	H85	H	0.384572	0.091941	0.085835
	H86	H	0.616972	0.090024	0.894222
	H87	H	0.387245	0.919356	0.899919
	H88	H	0.912967	0.096743	0.607743
	H89	H	0.088690	0.093972	0.380860
	H90	H	0.090749	0.913279	0.607581
	H91	H	0.918266	0.915648	0.382638
	H92	H	0.088296	0.619072	0.903699
	H93	H	0.086792	0.392865	0.078812
	H94	H	0.909858	0.618756	0.083436
	H95	H	0.912911	0.392027	0.902073
	H96	H	0.417931	0.113419	0.578211
	H97	H	0.596617	0.886678	0.583979
	H98	H	0.592312	0.118623	0.402750
	H99	H	0.410096	0.888826	0.401490
	H100	H	0.583709	0.420264	0.103970
	H101	H	0.589571	0.593370	0.879597
	H102	H	0.414004	0.593358	0.104760
	H103	H	0.408607	0.417861	0.881195
	H104	H	0.114505	0.593193	0.405687
	H105	H	0.886140	0.591749	0.583927
	H106	H	0.109955	0.418371	0.576692
	H107	H	0.888649	0.419745	0.406222
	H108	H	0.912928	0.617223	0.082792
	H109	H	0.092608	0.389030	0.083487
	H110	H	0.082937	0.616019	0.904813
	H111	H	0.912023	0.393122	0.908101
	H112	H	0.090986	0.916088	0.606799
	H113	H	0.090995	0.096536	0.379689
	H114	H	0.908686	0.088846	0.606621
	H115	H	0.910354	0.910257	0.378011
	H116	H	0.616013	0.103846	0.909472
	H117	H	0.385401	0.094794	0.078753
	H118	H	0.614418	0.914008	0.088093
	H119	H	0.385381	0.911523	0.904670
	C120	C	0.380299	0.011633	0.614442
	C121	C	0.622442	0.994536	0.614990
	C122	C	0.622150	0.012281	0.371228
	C123	C	0.378952	0.994946	0.372026
	C124	C	0.619049	0.383884	0.001130
	C125	C	0.620806	0.625990	0.985083
	C126	C	0.378307	0.624738	0.000510
	C127	C	0.375979	0.381562	0.983995
	C128	C	0.009579	0.626115	0.372010
	C129	C	0.991450	0.625676	0.614832
	C130	C	0.008379	0.383141	0.614903
	C131	C	0.992639	0.384052	0.373545
	C132	C	0.878918	0.512997	0.114766
	C133	C	0.121512	0.495682	0.115158
	C134	C	0.119545	0.512702	0.872541
	C135	C	0.877604	0.496125	0.871466
	C136	C	0.122626	0.882174	0.502018
	C137	C	0.123166	0.126316	0.485137
	C138	C	0.879955	0.125427	0.501861
	C139	C	0.879745	0.882737	0.484750
	C140	C	0.509022	0.125138	0.871393
	C141	C	0.490387	0.125378	0.114649
	C142	C	0.507072	0.882041	0.114357
	C143	C	0.491994	0.882721	0.871592
	C144	C	0.378171	0.891822	0.674407
	C145	C	0.626132	0.114444	0.675241
	C146	C	0.623274	0.892133	0.312320
	C147	C	0.376336	0.114595	0.311562
	C148	C	0.680029	0.380899	0.881972
	C149	C	0.682276	0.629532	0.103939
	C150	C	0.318717	0.626067	0.880620
	C151	C	0.316761	0.379942	0.104515
	C152	C	0.889610	0.686043	0.369837
	C153	C	0.111377	0.685693	0.618608
	C154	C	0.889633	0.320847	0.618646
	C155	C	0.112665	0.324045	0.370464
	C156	C	0.888993	0.379257	0.675642
	C157	C	0.110359	0.628665	0.676723
	C158	C	0.889864	0.628834	0.311642
	C159	C	0.112324	0.381586	0.312527
	C160	C	0.376029	0.684364	0.880588
	C161	C	0.624832	0.687770	0.103768
	C162	C	0.620690	0.324474	0.881213
	C163	C	0.372642	0.320267	0.103308
	C164	C	0.681044	0.892046	0.370180
	C165	C	0.683325	0.114167	0.617256
	C166	C	0.319336	0.892159	0.617572
	C167	C	0.319631	0.114901	0.369860
	C168	C	0.876652	0.393224	0.175261
	C169	C	0.125499	0.615137	0.175325
	C170	C	0.123982	0.394439	0.810434
	C171	C	0.873089	0.614732	0.809367
	C172	C	0.182141	0.880744	0.382020
	C173	C	0.183573	0.128240	0.604335
	C174	C	0.819010	0.128931	0.382714
	C175	C	0.818038	0.878456	0.603520
	C176	C	0.389403	0.185197	0.867466
	C177	C	0.609455	0.187062	0.117336
	C178	C	0.387336	0.821793	0.116690
	C179	C	0.610694	0.821165	0.868190
	C180	C	0.387791	0.878617	0.175532
	C181	C	0.610494	0.127777	0.173939
	C182	C	0.390382	0.128062	0.809289
	C183	C	0.611062	0.878157	0.810150
	C184	C	0.876717	0.187280	0.383114
	C185	C	0.126400	0.186638	0.604375
	C186	C	0.126125	0.821601	0.382899
	C187	C	0.876792	0.821681	0.603921
	C188	C	0.180336	0.393603	0.869484
	C189	C	0.181947	0.615294	0.116726
	C190	C	0.818322	0.393470	0.117671
	C191	C	0.816471	0.615194	0.868434
	C192	C	0.406104	0.094335	0.588671
	C193	C	0.596071	0.911972	0.589573
	C194	C	0.597425	0.095928	0.395794
	C195	C	0.404033	0.911789	0.397299
	C196	C	0.593803	0.409032	0.084239
	C197	C	0.594642	0.599980	0.902499
	C198	C	0.403570	0.600091	0.083975
	C199	C	0.400957	0.406684	0.901025
	C200	C	0.093027	0.600649	0.397253
	C201	C	0.908381	0.600191	0.588590
	C202	C	0.091405	0.409731	0.589376
	C203	C	0.909337	0.409068	0.398646
	C204	C	0.904153	0.595985	0.089569
	C205	C	0.095507	0.412557	0.090268
	C206	C	0.093732	0.595720	0.898453
	C207	C	0.903482	0.413369	0.897463
	C208	C	0.097293	0.907509	0.585169
	C209	C	0.097957	0.101519	0.401689
	C210	C	0.905595	0.099398	0.584336
	C211	C	0.905270	0.908391	0.402060
	C212	C	0.592245	0.100195	0.897953
	C213	C	0.407390	0.099056	0.089223
	C214	C	0.590222	0.908003	0.088967
	C215	C	0.408919	0.908820	0.897284
	Zn216	Zn	0.501578	0.003631	0.743691
	Zn217	Zn	0.499539	0.003327	0.243302
	Zn218	Zn	0.749068	0.504119	-0.006286
	Zn219	Zn	0.248704	0.504382	-0.006563
	Zn220	Zn	0.001359	0.753710	0.493561
	Zn221	Zn	0.001526	0.254600	0.493632
	Zn222	Zn	-0.000957	0.504473	0.743506
	Zn223	Zn	0.000632	0.504422	0.243730
	Zn224	Zn	0.498538	0.754290	-0.007619
	Zn225	Zn	0.498581	0.254092	-0.007228
	Zn226	Zn	0.750393	0.003525	0.492876
	Zn227	Zn	0.250769	0.003601	0.493348
	N228	N	0.415011	0.967095	0.672886
	N229	N	0.589172	0.039051	0.674220
	N230	N	0.587624	0.968003	0.312694
	N231	N	0.412340	0.038859	0.312565
	N232	N	0.679152	0.417322	0.957426
	N233	N	0.679948	0.592053	0.029208
	N234	N	0.319787	0.589988	0.956277
	N235	N	0.318434	0.417169	0.029425
	N236	N	0.965284	0.684597	0.406395
	N237	N	0.036511	0.683976	0.580818
	N238	N	0.965100	0.322979	0.581964
	N239	N	0.037277	0.325416	0.407718
	N240	N	0.964031	0.417071	0.673547
	N241	N	0.034537	0.592369	0.674772
	N242	N	0.965487	0.592381	0.312828
	N243	N	0.036827	0.418259	0.314079
	N244	N	0.412221	0.683720	0.956284
	N245	N	0.587342	0.685857	0.028647
	N246	N	0.583507	0.326480	0.956157
	N247	N	0.408556	0.320805	0.027541
	N248	N	0.680630	0.967968	0.405795
	N249	N	0.681233	0.038892	0.580592
	N250	N	0.320486	0.967634	0.580810
	N251	N	0.321129	0.039586	0.406707
	N252	N	0.913432	0.468538	0.173693
	N253	N	0.088540	0.539745	0.174445
	N254	N	0.086938	0.469648	0.812252
	N255	N	0.910151	0.539635	0.811091
	N256	N	0.180224	0.917551	0.457272
	N257	N	0.181857	0.091738	0.529002
	N258	N	0.820864	0.091134	0.457366
	N259	N	0.819936	0.915928	0.528577
	N260	N	0.464071	0.183422	0.905580
	N261	N	0.533628	0.185708	0.081283
	N262	N	0.462635	0.823630	0.079679
	N263	N	0.535714	0.823897	0.905792
	N264	N	0.463408	0.915239	0.174398
	N265	N	0.535279	0.090193	0.172486
	N266	N	0.465950	0.091486	0.811664
	N267	N	0.536275	0.916133	0.812532
	N268	N	0.913894	0.185325	0.458206
	N269	N	0.089776	0.185723	0.529021
	N270	N	0.090091	0.822134	0.458604
	N271	N	0.914592	0.824105	0.529180
	N272	N	0.177537	0.468142	0.907460
	N273	N	0.179232	0.540263	0.079812
	N274	N	0.819637	0.468763	0.080806
	N275	N	0.818895	0.540359	0.906087
	O276	O	0.410522	0.542364	0.294340
	H277	H	0.411220	0.540197	0.296233
	H278	H	0.408417	0.549027	0.287979
	O279	O	0.136814	0.100984	0.151081
	H280	H	0.112528	0.101283	0.145324
	H281	H	0.132109	0.118679	0.136099
	O282	O	0.377773	0.622553	0.590623
	H283	H	0.379178	0.636313	0.574940
	H284	H	0.391624	0.610837	0.588728
	O285	O	1.586122	0.549848	0.520226
	H286	H	1.581112	0.544246	0.506690
	H287	H	1.584530	0.557936	0.513186
	O288	O	0.704947	0.297644	0.403110
	H289	H	0.722780	0.305149	0.404263
	H290	H	0.712177	0.289997	0.402144
	O291	O	0.453760	0.611856	0.324973
	H292	H	0.445385	0.603739	0.309716
	H293	H	0.464857	0.609965	0.328692
	O294	O	0.971375	0.790659	0.970620
	H295	H	0.965920	0.804814	0.976213
	H296	H	0.950169	0.784687	0.979895
	O297	O	0.524234	0.298537	0.280854
	H298	H	0.505549	0.286980	0.290477
	H299	H	0.524917	0.286417	0.268098
	O300	O	0.298000	0.704189	0.462885
	H301	H	0.278523	0.717878	0.460401
	H302	H	0.293354	0.703401	0.450719
	O303	O	0.474529	0.464914	0.584888
	H304	H	0.470997	0.462606	0.582038
	H305	H	0.477954	0.462899	0.587448
	O306	O	0.192674	-0.198616	0.924562
	H307	H	0.188249	-0.184783	0.951797
	H308	H	0.203956	-0.221181	0.938569
	O309	O	0.863602	-0.032321	-0.049705
	H310	H	0.855076	-0.018068	-0.069580
	H311	H	0.875076	-0.021000	-0.054328
	O312	O	0.632145	0.559365	0.361087
	H313	H	0.638063	0.546198	0.358490
	H314	H	0.632368	0.544490	0.350818
	O315	O	0.582001	0.570622	0.485665
	H316	H	0.575302	0.590882	0.472596
	H317	H	0.584990	0.576576	0.504330
	O318	O	0.193699	-0.077251	0.043950
	H319	H	0.171202	-0.062655	0.061536
	H320	H	0.201765	-0.064185	0.062386
	O321	O	0.701032	0.537297	0.332990
	H322	H	0.711013	0.529095	0.317656
	H323	H	0.694693	0.505962	0.345363
	O324	O	1.208412	0.027540	1.157555
	H325	H	1.218499	0.035732	1.171129
	H326	H	1.209632	0.045113	1.158363
	O327	O	0.393253	0.344231	0.652369
	H328	H	0.424401	0.339036	0.641640
	H329	H	0.395644	0.361854	0.662302
	O330	O	-0.209187	0.792076	1.001773
	H331	H	-0.212059	0.809623	0.994366
	H332	H	-0.234693	0.769050	1.011142
	O333	O	-0.203603	1.207212	-0.015051
	H334	H	-0.222005	1.212611	-0.039860
	H335	H	-0.205378	1.190182	-0.034678
	O336	O	0.973220	1.218979	-0.223777
	H337	H	0.981275	1.248434	-0.247223
	H338	H	0.998848	1.221044	-0.212054
	O339	O	0.002543	1.066405	1.038177
	H340	H	0.011690	1.086436	1.036754
	H341	H	-0.028389	1.060067	1.046143
	O342	O	0.364253	0.416124	0.639629
	H343	H	0.367535	0.441627	0.648074
	H344	H	0.383970	0.419525	0.631562
	O345	O	-0.185176	0.185108	0.820690
	H346	H	-0.169199	0.163152	0.804436
	H347	H	-0.160360	0.170269	0.811896
	O348	O	0.560917	0.380487	0.520826
	H349	H	0.566727	0.393763	0.523904
	H350	H	0.572362	0.384283	0.504203
	O351	O	1.089027	0.887984	0.147777
	H352	H	1.098235	0.907263	0.133327
	H353	H	1.088710	0.894941	0.140168
	O354	O	1.058132	1.155603	0.871508
	H355	H	1.070854	1.167842	0.892139
	H356	H	1.062850	1.145695	0.879534
	O357	O	-0.075531	-0.119679	-0.188902
	H358	H	-0.054583	-0.145097	-0.207687
	H359	H	-0.066751	-0.096128	-0.183235
	O360	O	0.202327	0.206531	1.000139
	H361	H	0.224097	0.201428	1.001807
	H362	H	0.224205	0.203772	0.981855
	O363	O	0.813612	-0.184451	0.176081
	H364	H	0.829506	-0.172439	0.191727
	H365	H	0.820544	-0.197129	0.145038
	O366	O	0.012929	0.007899	0.863320
	H367	H	0.032291	0.022875	0.865035
	H368	H	0.019726	0.028192	0.852089
	O369	O	1.309950	0.468868	1.427579
	H370	H	1.302055	0.443727	1.439693
	H371	H	1.318418	0.458829	1.425068
	O372	O	0.948319	0.851633	-0.176064
	H373	H	0.948853	0.855936	-0.153212
	H374	H	0.957427	0.824744	-0.174566
	O375	O	-0.711804	-0.707658	1.520850
	H376	H	-0.731708	-0.724889	1.541205
	H377	H	-0.714339	-0.713050	1.552144
	O378	O	0.429255	0.619144	0.346092
	H379	H	0.436858	0.607117	0.346834
	H380	H	0.424144	0.599190	0.335473
	O381	O	-0.211882	1.026007	-0.218815
	H382	H	-0.236763	1.024011	-0.244773
	H383	H	-0.195665	1.007863	-0.220201
	O384	O	0.390515	0.589057	0.310985
	H385	H	0.391120	0.576765	0.307678
	H386	H	0.385751	0.584680	0.320725
	O387	O	0.557725	0.696877	0.575647
	H388	H	0.568201	0.689645	0.562278
	H389	H	0.541806	0.705046	0.567985
	O390	O	0.980912	1.014432	0.188192
	H391	H	0.974751	1.008952	0.166619
	H392	H	0.974468	0.994357	0.196720
	O393	O	0.977162	-0.203954	1.206067
	H394	H	0.976626	-0.211115	1.214245
	H395	H	0.993593	-0.209761	1.216438
	O396	O	0.648084	0.467033	0.696800
	H397	H	0.665566	0.476105	0.703682
	H398	H	0.649507	0.482901	0.707047
	O399	O	0.573059	0.400073	0.585522
	H400	H	0.580053	0.401637	0.573151
	H401	H	0.573076	0.393887	0.579871
	O402	O	0.943072	1.129188	-0.015363
	H403	H	0.923001	1.133925	-0.015094
	H404	H	0.956759	1.123933	-0.002232
	O405	O	0.652887	0.682420	0.570857
	H406	H	0.647386	0.689504	0.546518
	H407	H	0.640427	0.682430	0.584331
	O408	O	0.522021	0.510162	0.581015
	H409	H	0.535987	0.532238	0.584399
	H410	H	0.523793	0.520945	0.586520
	O411	O	0.877360	1.207081	1.112925
	H412	H	0.880136	1.216263	1.107331
	H413	H	0.864285	1.188810	1.103152
	O414	O	0.208635	0.100617	0.953885
	H415	H	0.203588	0.084417	0.922521
	H416	H	0.198227	0.089702	0.964568
	O417	O	-0.117384	1.020863	1.048592
	H418	H	-0.116411	1.024520	1.046969
	H419	H	-0.116362	1.010479	1.037115
	O420	O	0.113981	0.852163	0.802857
	H421	H	0.085751	0.849648	0.797921
	H422	H	0.125470	0.846305	0.833041
	O423	O	0.214702	0.984256	-0.212733
	H424	H	0.229804	0.961315	-0.224094
	H425	H	0.223998	0.955822	-0.217259
	O426	O	0.690866	0.390865	0.302086
	H427	H	0.699623	0.374900	0.335266
	H428	H	0.671745	0.384511	0.294206
	O429	O	0.594714	0.644517	0.670928
	H430	H	0.582520	0.641716	0.667701
	H431	H	0.599247	0.640246	0.667029
	O432	O	0.539511	0.297523	0.448358
	H433	H	0.516831	0.295816	0.458413
	H434	H	0.556577	0.295628	0.453192
	O435	O	0.016894	0.166386	0.180404
	H436	H	0.001736	0.164897	0.165347
	H437	H	0.012972	0.159427	0.194794
	O438	O	-0.214578	0.975589	1.211482
	H439	H	-0.203106	0.953370	1.200528
	H440	H	-0.244348	0.976517	1.246197
	O441	O	0.321586	0.539241	0.644399
	H442	H	0.318250	0.539158	0.643502
	H443	H	0.332522	0.545545	0.637155
