data_Molecule from HDF5

_cell_length_a		16.319089
_cell_length_b		16.063907
_cell_length_c		16.264874
_cell_angle_alpha	89.121976
_cell_angle_beta	90.213351
_cell_angle_gamma	90.184272
_symmetry_space_group_name_H-M	'P 1'
_symmetry_Int_Tables_number		1

loop_
	_symmetry_equiv_pos_as_xyz
	x,y,z

loop_
	_atom_site_label
	_atom_site_type_symbol
	_atom_site_fract_x
	_atom_site_fract_y
	_atom_site_fract_z
	H0	H	0.388566	0.836201	0.711348
	H1	H	0.588078	0.167160	0.705787
	H2	H	0.586329	0.834492	0.285768
	H3	H	0.388591	0.164992	0.276270
	H4	H	0.703377	0.401264	0.834228
	H5	H	0.706393	0.601866	0.158436
	H6	H	0.269715	0.605458	0.832177
	H7	H	0.271190	0.397804	0.159355
	H8	H	0.823993	0.717387	0.394400
	H9	H	0.151882	0.713822	0.591174
	H10	H	0.824110	0.283924	0.593131
	H11	H	0.153337	0.291596	0.402883
	H12	H	0.824262	0.396282	0.712720
	H13	H	0.150269	0.599822	0.711153
	H14	H	0.825700	0.604167	0.275488
	H15	H	0.152397	0.405224	0.283842
	H16	H	0.388858	0.718774	0.831955
	H17	H	0.585291	0.711119	0.160876
	H18	H	0.581509	0.293763	0.830657
	H19	H	0.388263	0.282857	0.159669
	H20	H	0.702920	0.836294	0.398008
	H21	H	0.703731	0.166270	0.592643
	H22	H	0.274232	0.836114	0.595676
	H23	H	0.274186	0.166768	0.391546
	H24	H	0.888922	0.336484	0.212938
	H25	H	0.088105	0.667578	0.206201
	H26	H	0.084315	0.334412	0.787268
	H27	H	0.887030	0.665069	0.776267
	H28	H	0.204095	0.903801	0.331635
	H29	H	0.206700	0.100697	0.657233
	H30	H	0.770233	0.106009	0.332734
	H31	H	0.772279	0.896930	0.658273
	H32	H	0.323444	0.215269	0.895223
	H33	H	0.651626	0.212410	0.090230
	H34	H	0.323158	0.785910	0.092871
	H35	H	0.652310	0.790288	0.901726
	H36	H	0.324395	0.897546	0.212716
	H37	H	0.650364	0.100339	0.210700
	H38	H	0.325584	0.103203	0.776037
	H39	H	0.651356	0.902966	0.781434
	H40	H	0.890815	0.217504	0.331850
	H41	H	0.085290	0.208382	0.661058
	H42	H	0.084390	0.791920	0.329788
	H43	H	0.891221	0.784399	0.658673
	H44	H	0.201335	0.336234	0.899462
	H45	H	0.203331	0.666447	0.093142
	H46	H	0.773858	0.335945	0.097079
	H47	H	0.771849	0.666208	0.891921
	H48	H	0.392323	0.118851	0.578821
	H49	H	0.580476	0.883721	0.587880
	H50	H	0.577917	0.119994	0.399106
	H51	H	0.387270	0.881318	0.408261
	H52	H	0.582353	0.411870	0.113336
	H53	H	0.574359	0.592185	0.882406
	H54	H	0.394815	0.601000	0.114943
	H55	H	0.393860	0.413895	0.880486
	H56	H	0.103106	0.589054	0.394500
	H57	H	0.872609	0.595301	0.579060
	H58	H	0.101353	0.415674	0.593120
	H59	H	0.869720	0.397823	0.405937
	H60	H	0.107628	0.402762	0.600011
	H61	H	0.873932	0.583309	0.588017
	H62	H	0.107377	0.605014	0.397387
	H63	H	0.876717	0.418043	0.411560
	H64	H	0.384633	0.585984	0.113227
	H65	H	0.580234	0.600738	0.878004
	H66	H	0.575590	0.405470	0.112102
	H67	H	0.393297	0.406965	0.878328
	H68	H	0.577312	0.117356	0.403351
	H69	H	0.581063	0.882919	0.590452
	H70	H	0.392723	0.122731	0.590696
	H71	H	0.395790	0.879853	0.397876
	H72	H	0.900611	0.614903	0.074914
	H73	H	0.083801	0.381190	0.093312
	H74	H	0.078917	0.618760	0.902365
	H75	H	0.895676	0.381834	0.898605
	H76	H	0.076835	0.904615	0.610599
	H77	H	0.076773	0.111527	0.375532
	H78	H	0.889553	0.094346	0.614818
	H79	H	0.893263	0.901961	0.374969
	H80	H	0.603012	0.088308	0.896731
	H81	H	0.371678	0.088067	0.089833
	H82	H	0.603244	0.904526	0.087906
	H83	H	0.368942	0.906707	0.896392
	H84	H	0.603416	0.912019	0.093638
	H85	H	0.369636	0.094029	0.087245
	H86	H	0.608522	0.104308	0.893412
	H87	H	0.372132	0.906458	0.908625
	H88	H	0.893378	0.083648	0.610882
	H89	H	0.096040	0.093582	0.374532
	H90	H	0.086436	0.904339	0.614248
	H91	H	0.884650	0.917553	0.377418
	H92	H	0.078539	0.619141	0.901423
	H93	H	0.075523	0.383904	0.093651
	H94	H	0.885871	0.622874	0.083749
	H95	H	0.896864	0.385119	0.910630
	H96	H	0.403768	0.117971	0.585166
	H97	H	0.577688	0.882730	0.589942
	H98	H	0.581182	0.118683	0.403173
	H99	H	0.399165	0.885814	0.410582
	H100	H	0.583877	0.402995	0.115655
	H101	H	0.585372	0.591326	0.879205
	H102	H	0.402328	0.586254	0.107857
	H103	H	0.387894	0.412162	0.878849
	H104	H	0.102204	0.596216	0.409703
	H105	H	0.868084	0.596041	0.593726
	H106	H	0.103808	0.402225	0.585384
	H107	H	0.869955	0.414777	0.391522
	H108	H	0.901591	0.620068	0.093439
	H109	H	0.079884	0.383972	0.087423
	H110	H	0.078054	0.619276	0.902301
	H111	H	0.886694	0.380941	0.906428
	H112	H	0.083360	0.913773	0.609746
	H113	H	0.073044	0.086169	0.383690
	H114	H	0.900836	0.093107	0.611254
	H115	H	0.902395	0.916492	0.382195
	H116	H	0.602449	0.099660	0.908187
	H117	H	0.372694	0.089808	0.083418
	H118	H	0.605613	0.902674	0.096810
	H119	H	0.373818	0.917180	0.901744
	C120	C	0.367173	0.010643	0.615649
	C121	C	0.609282	0.992607	0.616823
	C122	C	0.608340	0.009383	0.374711
	C123	C	0.365762	0.991591	0.373858
	C124	C	0.608007	0.380207	0.004894
	C125	C	0.609487	0.622876	0.987602
	C126	C	0.364942	0.622617	0.004092
	C127	C	0.363827	0.379088	0.987431
	C128	C	-0.003443	0.625621	0.371376
	C129	C	0.979400	0.620997	0.616072
	C130	C	-0.003794	0.376903	0.620436
	C131	C	0.980210	0.381921	0.375600
	C132	C	0.867101	0.510135	0.115476
	C133	C	0.109316	0.492690	0.117928
	C134	C	0.107424	0.509574	0.875338
	C135	C	0.864457	0.491920	0.873934
	C136	C	0.110111	0.880411	0.503185
	C137	C	0.110769	0.123489	0.486459
	C138	C	0.865906	0.122008	0.504178
	C139	C	0.865149	0.879783	0.485941
	C140	C	0.496592	0.125121	0.870880
	C141	C	0.479211	0.120337	0.115644
	C142	C	0.495942	0.876805	0.120539
	C143	C	0.480027	0.881494	0.874819
	C144	C	0.368349	0.885939	0.673369
	C145	C	0.607671	0.117607	0.669077
	C146	C	0.606323	0.884386	0.322079
	C147	C	0.368254	0.116035	0.315464
	C148	C	0.663883	0.382625	0.882301
	C149	C	0.666949	0.621163	0.110104
	C150	C	0.308528	0.623842	0.881142
	C151	C	0.309252	0.378615	0.110618
	C152	C	0.873017	0.680149	0.373523
	C153	C	0.102635	0.676307	0.612923
	C154	C	0.873214	0.320823	0.615947
	C155	C	0.104015	0.328351	0.380901
	C156	C	0.873121	0.377418	0.674786
	C157	C	0.101669	0.619693	0.672634
	C158	C	0.874102	0.623923	0.314435
	C159	C	0.103395	0.384834	0.321606
	C160	C	0.367615	0.680318	0.880825
	C161	C	0.606717	0.675417	0.111331
	C162	C	0.603602	0.328678	0.880718
	C163	C	0.367366	0.321192	0.110591
	C164	C	0.664492	0.885302	0.377709
	C165	C	0.665455	0.116988	0.613031
	C166	C	0.311379	0.885832	0.615853
	C167	C	0.311227	0.116776	0.372604
	C168	C	0.868732	0.385840	0.174052
	C169	C	0.108053	0.617760	0.170168
	C170	C	0.105199	0.384432	0.823115
	C171	C	0.867124	0.616206	0.815857
	C172	C	0.165243	0.883879	0.380090
	C173	C	0.167294	0.120247	0.609222
	C174	C	0.809087	0.124149	0.381507
	C175	C	0.810216	0.878270	0.609372
	C176	C	0.372776	0.178502	0.874377
	C177	C	0.602635	0.175264	0.111898
	C178	C	0.372766	0.822313	0.115353
	C179	C	0.603247	0.827220	0.879567
	C180	C	0.373334	0.877712	0.175267
	C181	C	0.601840	0.119318	0.171838
	C182	C	0.373960	0.122746	0.814982
	C183	C	0.602695	0.883259	0.819697
	C184	C	0.869351	0.179467	0.380849
	C185	C	0.106854	0.173844	0.611033
	C186	C	0.105949	0.828085	0.379232
	C187	C	0.869520	0.822539	0.609631
	C188	C	0.163023	0.385322	0.879118
	C189	C	0.165030	0.617345	0.113755
	C190	C	0.811781	0.385326	0.116271
	C191	C	0.809602	0.616589	0.873000
	C192	C	0.389618	0.097507	0.591660
	C193	C	0.586458	0.905582	0.595584
	C194	C	0.585468	0.096054	0.395642
	C195	C	0.387622	0.904900	0.398297
	C196	C	0.586740	0.400709	0.091390
	C197	C	0.586512	0.601240	0.901945
	C198	C	0.387246	0.598130	0.089803
	C199	C	0.385307	0.403545	0.901463
	C200	C	0.082022	0.603619	0.394075
	C201	C	0.893716	0.598306	0.593561
	C202	C	0.082112	0.400137	0.599211
	C203	C	0.894308	0.403656	0.396862
	C204	C	0.889443	0.596905	0.091065
	C205	C	0.086677	0.405449	0.097413
	C206	C	0.084822	0.596530	0.895853
	C207	C	0.886473	0.405100	0.898142
	C208	C	0.088472	0.901384	0.589112
	C209	C	0.088676	0.103038	0.400216
	C210	C	0.888095	0.097450	0.590155
	C211	C	0.886860	0.904734	0.400236
	C212	C	0.582519	0.103789	0.892975
	C213	C	0.393532	0.097333	0.093515
	C214	C	0.582054	0.899654	0.099268
	C215	C	0.393977	0.903470	0.895894
	Zn216	Zn	0.488406	0.002245	0.743517
	Zn217	Zn	0.487562	-0.000242	0.247009
	Zn218	Zn	0.737133	0.501310	-0.003709
	Zn219	Zn	0.235627	0.501354	-0.003744
	Zn220	Zn	-0.012330	0.752347	0.494084
	Zn221	Zn	-0.011641	0.250324	0.496362
	Zn222	Zn	-0.013283	0.499836	0.747563
	Zn223	Zn	-0.011695	0.502472	0.244155
	Zn224	Zn	0.487792	0.750695	-0.003835
	Zn225	Zn	0.487134	0.251600	-0.005063
	Zn226	Zn	0.736364	0.001082	0.495538
	Zn227	Zn	0.238870	0.002058	0.495051
	N228	N	0.402171	0.964491	0.673361
	N229	N	0.573665	0.039266	0.671675
	N230	N	0.571880	0.962500	0.320139
	N231	N	0.401431	0.037309	0.315905
	N232	N	0.666795	0.413972	0.960519
	N233	N	0.668903	0.589237	0.032136
	N234	N	0.306930	0.588623	0.958897
	N235	N	0.306866	0.413919	0.033014
	N236	N	0.950020	0.681319	0.408240
	N237	N	0.025367	0.677534	0.578540
	N238	N	0.950639	0.320269	0.582794
	N239	N	0.026331	0.326531	0.414199
	N240	N	0.950721	0.411389	0.677711
	N241	N	0.024011	0.586193	0.674574
	N242	N	0.951817	0.590864	0.312903
	N243	N	0.025632	0.417281	0.318289
	N244	N	0.401980	0.679763	0.958153
	N245	N	0.571570	0.676679	0.034246
	N246	N	0.569115	0.327350	0.957916
	N247	N	0.400510	0.321321	0.032962
	N248	N	0.665990	0.963975	0.409644
	N249	N	0.666511	0.038098	0.581097
	N250	N	0.310637	0.964260	0.580487
	N251	N	0.309704	0.038553	0.408302
	N252	N	0.902617	0.464356	0.173519
	N253	N	0.074047	0.539133	0.172775
	N254	N	0.071209	0.462706	0.820758
	N255	N	0.900385	0.537638	0.816356
	N256	N	0.168182	0.915399	0.458074
	N257	N	0.169796	0.089608	0.530765
	N258	N	0.807120	0.089023	0.459168
	N259	N	0.807467	0.913252	0.531709
	N260	N	0.450073	0.180384	0.908503
	N261	N	0.525425	0.175931	0.077746
	N262	N	0.450208	0.821493	0.082243
	N263	N	0.525931	0.825868	0.913090
	N264	N	0.451136	0.910917	0.178420
	N265	N	0.524128	0.085536	0.173978
	N266	N	0.451813	0.090318	0.812762
	N267	N	0.525038	0.916288	0.816825
	N268	N	0.903874	0.178263	0.458180
	N269	N	0.072238	0.175954	0.533731
	N270	N	0.072274	0.825644	0.456796
	N271	N	0.902797	0.823325	0.532025
	N272	N	0.164697	0.464138	0.910887
	N273	N	0.166174	0.538428	0.082222
	N274	N	0.810573	0.463671	0.080672
	N275	N	0.807837	0.538273	0.908531
	O276	O	0.040982	-0.051088	0.019082
	H277	H	0.034052	-0.053522	0.015481
	H278	H	0.049787	-0.050300	0.027162
	O279	O	0.485288	0.399092	0.465309
	H280	H	0.482443	0.405633	0.470710
	H281	H	0.478973	0.384859	0.468164
	O282	O	0.533854	0.543272	0.582899
	H283	H	0.536108	0.557838	0.583409
	H284	H	0.526170	0.543351	0.567314
	O285	O	-0.059299	1.049582	0.086975
	H286	H	-0.056082	1.054214	0.082840
	H287	H	-0.045214	1.046897	0.091096
	O288	O	0.417605	0.423790	0.557769
	H289	H	0.411790	0.433037	0.563116
	H290	H	0.419035	0.413913	0.563996
	O291	O	1.032223	1.060650	0.984394
	H292	H	1.024988	1.059861	0.983835
	H293	H	1.025899	1.052085	0.984908
	O294	O	0.972401	0.905457	1.106195
	H295	H	0.964107	0.906438	1.107399
	H296	H	0.973141	0.907521	1.112809
	O297	O	0.940882	0.021525	0.924992
	H298	H	0.945438	0.014002	0.932096
	H299	H	0.934137	0.028045	0.915321
	O300	O	0.491743	0.606511	0.457852
	H301	H	0.502501	0.595880	0.454185
	H302	H	0.498656	0.616953	0.454173
	O303	O	0.916101	0.080271	-0.029583
	H304	H	0.911589	0.068716	-0.031407
	H305	H	0.920953	0.071171	-0.032170
	O306	O	0.085033	1.004432	0.963102
	H307	H	0.090161	0.999975	0.962363
	H308	H	0.072195	1.008511	0.951878
	O309	O	0.986799	0.910795	0.915716
	H310	H	0.989607	0.915510	0.908641
	H311	H	0.988826	0.906789	0.914450
	O312	O	0.896967	0.007291	0.957876
	H313	H	0.882241	0.001430	0.972115
	H314	H	0.893434	0.009560	0.954438
	O315	O	0.954494	1.011202	0.025668
	H316	H	0.951952	1.002400	0.040776
	H317	H	0.963589	1.012356	0.030921
	O318	O	0.589212	0.482269	0.527246
	H319	H	0.596315	0.488681	0.525776
	H320	H	0.592270	0.480476	0.532358
	O321	O	0.899235	1.013878	1.005099
	H322	H	0.904777	1.026165	1.009829
	H323	H	0.893693	1.021889	1.000422
	O324	O	0.400583	0.513609	0.621689
	H325	H	0.402518	0.513394	0.628879
	H326	H	0.407254	0.509280	0.616866
	O327	O	0.510078	0.516831	0.407519
	H328	H	0.509541	0.520632	0.410611
	H329	H	0.513312	0.517029	0.414007
	O330	O	1.037029	-0.055335	0.962127
	H331	H	1.042849	-0.054749	0.967049
	H332	H	1.031634	-0.064862	0.964620
	O333	O	0.870992	0.905699	0.114147
	H334	H	0.865474	0.904347	0.114695
	H335	H	0.870224	0.911163	0.107515
	O336	O	0.519614	0.555631	0.522155
	H337	H	0.519988	0.554537	0.524177
	H338	H	0.516819	0.551801	0.515702
	O339	O	0.423302	0.548766	0.384667
	H340	H	0.419299	0.555504	0.380766
	H341	H	0.405811	0.551840	0.384315
	O342	O	0.400439	0.509999	0.491969
	H343	H	0.388984	0.518497	0.495405
	H344	H	0.407985	0.510870	0.507630
	O345	O	0.042686	-0.033675	-0.054741
	H346	H	0.042450	-0.028822	-0.058335
	H347	H	0.048489	-0.031283	-0.053125
	O348	O	0.482443	0.494238	0.562357
	H349	H	0.478822	0.484404	0.570263
	H350	H	0.483211	0.491303	0.569747
	O351	O	0.537944	0.641332	0.486797
	H352	H	0.530764	0.639051	0.483165
	H353	H	0.542897	0.636754	0.481733
	O354	O	0.494559	0.616781	0.448076
	H355	H	0.486109	0.622554	0.442559
	H356	H	0.490517	0.612683	0.440623
	O357	O	0.483833	0.475902	0.554615
	H358	H	0.471134	0.483246	0.538156
	H359	H	0.488478	0.467341	0.551934
	O360	O	0.413667	-0.482327	0.589296
	H361	H	0.418088	-0.474793	0.589553
	H362	H	0.408941	-0.486555	0.609573
	O363	O	0.496358	0.445438	0.475416
	H364	H	0.492550	0.446373	0.471608
	H365	H	0.505255	0.444350	0.465659
	O366	O	0.029696	0.013919	0.986392
	H367	H	0.040185	0.014215	0.987434
	H368	H	0.025774	0.015930	0.978216
	O369	O	0.537789	0.514683	0.446241
	H370	H	0.540772	0.515861	0.453477
	H371	H	0.537602	0.516715	0.435426
