data_Molecule from HDF5

_cell_length_a		16.516550
_cell_length_b		16.493511
_cell_length_c		16.298055
_cell_angle_alpha	90.125245
_cell_angle_beta	89.874375
_cell_angle_gamma	89.950802
_symmetry_space_group_name_H-M	'P 1'
_symmetry_Int_Tables_number		1

loop_
	_symmetry_equiv_pos_as_xyz
	x,y,z

loop_
	_atom_site_label
	_atom_site_type_symbol
	_atom_site_fract_x
	_atom_site_fract_y
	_atom_site_fract_z
	H0	H	0.407508	0.837578	0.727536
	H1	H	0.610430	0.155187	0.731132
	H2	H	0.613503	0.838489	0.289523
	H3	H	0.403724	0.154290	0.288906
	H4	H	0.730666	0.390322	0.854348
	H5	H	0.731872	0.605955	0.170417
	H6	H	0.291014	0.596090	0.851909
	H7	H	0.284635	0.386867	0.171374
	H8	H	0.851063	0.721142	0.404954
	H9	H	0.165794	0.717630	0.614716
	H10	H	0.851879	0.274599	0.619936
	H11	H	0.164825	0.272786	0.401854
	H12	H	0.849885	0.394778	0.732469
	H13	H	0.166824	0.599463	0.730169
	H14	H	0.851517	0.605628	0.288617
	H15	H	0.165999	0.392732	0.289201
	H16	H	0.405548	0.713770	0.852307
	H17	H	0.615720	0.720379	0.171090
	H18	H	0.611803	0.276763	0.852382
	H19	H	0.402040	0.272795	0.171336
	H20	H	0.734680	0.841298	0.400458
	H21	H	0.729579	0.154044	0.617210
	H22	H	0.285682	0.840529	0.616137
	H23	H	0.284471	0.154403	0.401751
	H24	H	0.901058	0.341282	0.236722
	H25	H	0.112305	0.655857	0.231528
	H26	H	0.111841	0.338411	0.790142
	H27	H	0.905845	0.656285	0.795001
	H28	H	0.232241	0.890088	0.352807
	H29	H	0.229493	0.104556	0.669864
	H30	H	0.783942	0.107560	0.353949
	H31	H	0.787090	0.892308	0.669846
	H32	H	0.353040	0.221494	0.902067
	H33	H	0.664032	0.221041	0.120457
	H34	H	0.351751	0.772944	0.119911
	H35	H	0.665978	0.773892	0.905109
	H36	H	0.351786	0.889191	0.235656
	H37	H	0.665507	0.102295	0.233872
	H38	H	0.350934	0.100790	0.790296
	H39	H	0.667040	0.893182	0.790997
	H40	H	0.898764	0.223337	0.353713
	H41	H	0.113237	0.219434	0.670799
	H42	H	0.116210	0.774448	0.352824
	H43	H	0.903639	0.778497	0.670867
	H44	H	0.230114	0.338276	0.904386
	H45	H	0.234175	0.651829	0.121498
	H46	H	0.781741	0.341556	0.124089
	H47	H	0.784979	0.653178	0.905683
	H48	H	0.418323	0.108631	0.595851
	H49	H	0.601550	0.882770	0.598614
	H50	H	0.594156	0.106449	0.427056
	H51	H	0.421196	0.885788	0.423493
	H52	H	0.603260	0.412688	0.127809
	H53	H	0.594398	0.579252	0.901480
	H54	H	0.417628	0.587654	0.128794
	H55	H	0.414079	0.416356	0.901179
	H56	H	0.119947	0.580080	0.417258
	H57	H	0.893908	0.593281	0.599869
	H58	H	0.119726	0.410777	0.597713
	H59	H	0.895248	0.407862	0.423293
	H60	H	0.121314	0.409323	0.602837
	H61	H	0.894993	0.585327	0.602785
	H62	H	0.123577	0.596012	0.421447
	H63	H	0.899555	0.409368	0.431458
	H64	H	0.418093	0.579910	0.126830
	H65	H	0.593775	0.586533	0.899822
	H66	H	0.588215	0.414784	0.122352
	H67	H	0.429032	0.406364	0.902355
	H68	H	0.601167	0.109486	0.425670
	H69	H	0.598877	0.883807	0.600175
	H70	H	0.412671	0.112778	0.602895
	H71	H	0.421230	0.887118	0.427291
	H72	H	0.920730	0.604736	0.090372
	H73	H	0.099219	0.382509	0.101497
	H74	H	0.098713	0.610885	0.916958
	H75	H	0.918081	0.384807	0.926577
	H76	H	0.096640	0.908168	0.625554
	H77	H	0.092122	0.086081	0.398168
	H78	H	0.922742	0.084010	0.622471
	H79	H	0.929234	0.917237	0.401902
	H80	H	0.623128	0.087242	0.918850
	H81	H	0.395027	0.091397	0.097190
	H82	H	0.621642	0.901522	0.095749
	H83	H	0.395979	0.904639	0.922224
	H84	H	0.617064	0.912176	0.094017
	H85	H	0.401280	0.079237	0.091463
	H86	H	0.620113	0.088059	0.927110
	H87	H	0.394078	0.904355	0.917891
	H88	H	0.920590	0.088544	0.624470
	H89	H	0.097009	0.087123	0.397296
	H90	H	0.098844	0.910452	0.624933
	H91	H	0.924636	0.899505	0.395594
	H92	H	0.096780	0.607117	0.927950
	H93	H	0.091375	0.385718	0.100748
	H94	H	0.911961	0.612176	0.100741
	H95	H	0.916510	0.382254	0.921954
	H96	H	0.422284	0.111303	0.604710
	H97	H	0.598997	0.884701	0.597134
	H98	H	0.596207	0.109453	0.419632
	H99	H	0.417679	0.885624	0.425855
	H100	H	0.592561	0.400060	0.127635
	H101	H	0.600114	0.583459	0.898445
	H102	H	0.424423	0.584538	0.125238
	H103	H	0.414640	0.399536	0.893366
	H104	H	0.116832	0.585418	0.433067
	H105	H	0.892077	0.591647	0.608168
	H106	H	0.120830	0.406103	0.598978
	H107	H	0.899177	0.416118	0.424711
	H108	H	0.926004	0.608305	0.104424
	H109	H	0.096905	0.386030	0.094758
	H110	H	0.107405	0.611406	0.925063
	H111	H	0.921370	0.383934	0.922536
	H112	H	0.095561	0.910834	0.623884
	H113	H	0.096229	0.082636	0.399193
	H114	H	0.918158	0.084251	0.624993
	H115	H	0.911364	0.913989	0.395051
	H116	H	0.619830	0.080293	0.923529
	H117	H	0.395546	0.079229	0.105492
	H118	H	0.621580	0.909843	0.104219
	H119	H	0.394111	0.900596	0.920436
	C120	C	0.386152	0.006394	0.632835
	C121	C	0.630315	0.988258	0.631541
	C122	C	0.630621	0.005132	0.389721
	C123	C	0.387093	0.989413	0.390857
	C124	C	0.628302	0.375860	0.021179
	C125	C	0.629422	0.617333	1.004260
	C126	C	0.388334	0.615346	0.021138
	C127	C	0.386191	0.373628	1.003737
	C128	C	0.016278	0.619717	0.390665
	C129	C	0.998738	0.620302	0.634369
	C130	C	0.016669	0.376741	0.632803
	C131	C	1.000776	0.377243	0.391121
	C132	C	0.885706	0.505690	0.134038
	C133	C	0.129090	0.488284	0.132686
	C134	C	0.131118	0.504805	0.890532
	C135	C	0.886974	0.488317	0.891641
	C136	C	0.130039	0.876739	0.519775
	C137	C	0.128734	0.118647	0.502828
	C138	C	0.886731	0.119698	0.519770
	C139	C	0.888584	0.877785	0.502538
	C140	C	0.516961	0.117377	0.890036
	C141	C	0.500102	0.117483	0.132385
	C142	C	0.516632	0.874931	0.132433
	C143	C	0.499681	0.873123	0.888829
	C144	C	0.386871	0.885934	0.689716
	C145	C	0.630458	0.107566	0.691645
	C146	C	0.632853	0.886389	0.328678
	C147	C	0.384820	0.107263	0.328867
	C148	C	0.689636	0.372730	0.901507
	C149	C	0.690618	0.622063	0.123362
	C150	C	0.329861	0.615788	0.900179
	C151	C	0.325342	0.369687	0.123654
	C152	C	0.898361	0.680906	0.387007
	C153	C	0.118225	0.678566	0.634572
	C154	C	0.898469	0.315910	0.636794
	C155	C	0.118069	0.314606	0.385499
	C156	C	0.897549	0.375480	0.693026
	C157	C	0.118950	0.619391	0.691377
	C158	C	0.898446	0.622789	0.329304
	C159	C	0.118775	0.374167	0.329192
	C160	C	0.387087	0.674058	0.900272
	C161	C	0.632802	0.679328	0.123554
	C162	C	0.630846	0.316230	0.900699
	C163	C	0.383474	0.312622	0.123530
	C164	C	0.693020	0.887801	0.384216
	C165	C	0.689678	0.107033	0.635022
	C166	C	0.326417	0.887388	0.634400
	C167	C	0.325627	0.107183	0.385358
	C168	C	0.882301	0.388475	0.196906
	C169	C	0.131505	0.607661	0.192630
	C170	C	0.131413	0.385889	0.829760
	C171	C	0.886431	0.607779	0.833400
	C172	C	0.191560	0.872642	0.400468
	C173	C	0.189328	0.122172	0.622400
	C174	C	0.824796	0.124396	0.401234
	C175	C	0.827440	0.874675	0.622181
	C176	C	0.399553	0.179574	0.885539
	C177	C	0.617254	0.179829	0.137675
	C178	C	0.398713	0.813541	0.137175
	C179	C	0.618718	0.814044	0.886790
	C180	C	0.398705	0.871676	0.194689
	C181	C	0.618014	0.120639	0.194176
	C182	C	0.398585	0.119638	0.829697
	C183	C	0.619169	0.873293	0.829910
	C184	C	0.882083	0.182264	0.401392
	C185	C	0.131474	0.179583	0.622539
	C186	C	0.133696	0.815052	0.400518
	C187	C	0.885459	0.817938	0.622645
	C188	C	0.190111	0.385608	0.886922
	C189	C	0.191945	0.605652	0.137630
	C190	C	0.823214	0.388387	0.140287
	C191	C	0.826032	0.606401	0.888550
	C192	C	0.410656	0.089342	0.608261
	C193	C	0.606395	0.905374	0.606023
	C194	C	0.604676	0.087079	0.416430
	C195	C	0.412585	0.907419	0.417837
	C196	C	0.602178	0.401772	0.104273
	C197	C	0.603487	0.590762	0.921362
	C198	C	0.412770	0.590978	0.105185
	C199	C	0.412004	0.399628	0.920682
	C200	C	0.098877	0.594436	0.416547
	C201	C	0.915326	0.596950	0.610633
	C202	C	0.099008	0.401524	0.607102
	C203	C	0.919188	0.403669	0.418513
	C204	C	0.911975	0.587202	0.106446
	C205	C	0.103239	0.406258	0.106556
	C206	C	0.107724	0.587904	0.916036
	C207	C	0.911539	0.405226	0.916661
	C208	C	0.104433	0.902613	0.603264
	C209	C	0.102734	0.092589	0.419829
	C210	C	0.913019	0.093263	0.602620
	C211	C	0.914261	0.902941	0.419121
	C212	C	0.599535	0.092358	0.915881
	C213	C	0.418535	0.091048	0.105450
	C214	C	0.598514	0.900508	0.105784
	C215	C	0.416318	0.896649	0.913166
	Zn216	Zn	0.508643	-0.003517	0.761157
	Zn217	Zn	0.508287	-0.003533	0.261315
	Zn218	Zn	0.757423	0.496696	0.012780
	Zn219	Zn	0.259144	0.495025	0.012950
	Zn220	Zn	0.008010	0.748705	0.511681
	Zn221	Zn	0.008053	0.247218	0.511365
	Zn222	Zn	0.008351	0.497270	0.762527
	Zn223	Zn	0.008276	0.498232	0.261683
	Zn224	Zn	0.508349	0.745217	0.011947
	Zn225	Zn	0.508465	0.246912	0.011809
	Zn226	Zn	0.759676	-0.002583	0.510514
	Zn227	Zn	0.257500	-0.001887	0.510829
	N228	N	0.422952	0.960898	0.689189
	N229	N	0.594238	0.032707	0.689576
	N230	N	0.594663	0.960346	0.331992
	N231	N	0.422458	0.033020	0.332248
	N232	N	0.688499	0.408823	0.977649
	N233	N	0.688392	0.583955	0.048332
	N234	N	0.330337	0.580465	0.976434
	N235	N	0.326906	0.406807	0.048259
	N236	N	0.972639	0.678967	0.424398
	N237	N	0.042459	0.679371	0.600043
	N238	N	0.973338	0.316675	0.600011
	N239	N	0.043696	0.316411	0.423315
	N240	N	0.971953	0.412709	0.690622
	N241	N	0.043536	0.584252	0.691706
	N242	N	0.973027	0.585523	0.331454
	N243	N	0.044764	0.412143	0.332397
	N244	N	0.422344	0.674362	0.976644
	N245	N	0.595321	0.676378	0.048459
	N246	N	0.593696	0.317993	0.976154
	N247	N	0.420358	0.314801	0.047917
	N248	N	0.691826	0.962625	0.421225
	N249	N	0.689824	0.031872	0.598603
	N250	N	0.325564	0.963365	0.600195
	N251	N	0.326886	0.032815	0.423039
	N252	N	0.920446	0.462283	0.193011
	N253	N	0.093209	0.533760	0.189801
	N254	N	0.095362	0.460994	0.831880
	N255	N	0.923626	0.533190	0.835193
	N256	N	0.189300	0.910279	0.475628
	N257	N	0.187901	0.085234	0.546816
	N258	N	0.827467	0.086223	0.476062
	N259	N	0.829096	0.911085	0.546295
	N260	N	0.474284	0.178311	0.922550
	N261	N	0.543037	0.177956	0.099973
	N262	N	0.472901	0.815415	0.099126
	N263	N	0.543305	0.813604	0.922557
	N264	N	0.473006	0.909067	0.192117
	N265	N	0.544101	0.082435	0.190920
	N266	N	0.472522	0.081718	0.832648
	N267	N	0.543985	0.909162	0.830857
	N268	N	0.919896	0.179378	0.476264
	N269	N	0.094511	0.177582	0.547097
	N270	N	0.096039	0.817479	0.475787
	N271	N	0.922585	0.819561	0.547306
	N272	N	0.190197	0.460436	0.923933
	N273	N	0.190589	0.530439	0.101151
	N274	N	0.824901	0.462549	0.102250
	N275	N	0.826009	0.530775	0.923733
	O276	O	-0.182993	0.185338	-0.181821
	H277	H	-0.161856	0.186400	-0.160733
	H278	H	-0.164800	0.175647	-0.174244
	O279	O	0.811493	-0.175318	1.094655
	H280	H	0.810868	-0.157910	1.090236
	H281	H	0.819968	-0.183107	1.096982
	O282	O	0.382402	0.463696	0.499483
	H283	H	0.386766	0.452289	0.507736
	H284	H	0.376896	0.464130	0.476451
	O285	O	0.514852	0.661814	0.470841
	H286	H	0.541006	0.644366	0.463030
	H287	H	0.516542	0.653602	0.474689
	O288	O	1.210688	0.795775	-0.184852
	H289	H	1.203360	0.831842	-0.191545
	H290	H	1.212981	0.772005	-0.213698
	O291	O	-0.111689	0.161249	0.069065
	H292	H	-0.103685	0.155414	0.079182
	H293	H	-0.096343	0.159853	0.075598
	O294	O	0.043304	-0.050085	1.178685
	H295	H	0.042868	-0.064100	1.170429
	H296	H	0.041385	-0.037856	1.170373
	O297	O	0.273936	0.741948	0.257217
	H298	H	0.268190	0.755632	0.291005
	H299	H	0.294047	0.749846	0.247421
	O300	O	0.481407	0.701905	0.309592
	H301	H	0.493094	0.706661	0.292073
	H302	H	0.496913	0.703021	0.313493
	O303	O	0.309746	0.632389	0.468935
	H304	H	0.314698	0.625906	0.486405
	H305	H	0.312157	0.648249	0.457708
	O306	O	0.457183	0.473190	0.346738
	H307	H	0.450718	0.455237	0.338271
	H308	H	0.447617	0.476112	0.355057
	O309	O	0.372222	0.455527	0.705915
	H310	H	0.381656	0.447608	0.712350
	H311	H	0.387500	0.480226	0.714121
	O312	O	0.215357	0.776256	0.999353
	H313	H	0.209612	0.781459	0.962170
	H314	H	0.240370	0.749344	0.986958
	O315	O	0.710917	0.571931	0.418008
	H316	H	0.730876	0.579129	0.402665
	H317	H	0.699701	0.562117	0.414443
	O318	O	0.574059	0.553408	0.519820
	H319	H	0.577959	0.549537	0.517574
	H320	H	0.573978	0.550289	0.512047
	O321	O	0.213382	-0.088816	0.051217
	H322	H	0.226120	-0.124709	0.038803
	H323	H	0.206256	-0.090425	0.066042
	O324	O	0.592067	0.703252	0.526645
	H325	H	0.588359	0.712746	0.514102
	H326	H	0.605121	0.706032	0.515172
	O327	O	0.584582	0.627317	0.461728
	H328	H	0.594469	0.616369	0.458778
	H329	H	0.596685	0.619874	0.465708
	O330	O	0.042652	0.780724	-0.199330
	H331	H	0.039755	0.764061	-0.190303
	H332	H	0.043236	0.771972	-0.217126
	O333	O	1.032992	-0.214777	1.031351
	H334	H	1.029619	-0.210857	1.025670
	H335	H	1.046787	-0.218780	1.017876
	O336	O	-0.102510	-0.194286	-0.115970
	H337	H	-0.113246	-0.183416	-0.101898
	H338	H	-0.108247	-0.193009	-0.096724
	O339	O	-0.208170	0.956244	1.223080
	H340	H	-0.224017	0.948156	1.243213
	H341	H	-0.197622	0.950618	1.221978
	O342	O	0.013431	0.963060	1.111546
	H343	H	0.010196	0.974638	1.125270
	H344	H	0.013493	0.967789	1.109406
	O345	O	0.994197	1.206275	-0.170767
	H346	H	1.006333	1.192189	-0.157183
	H347	H	1.000553	1.220391	-0.178575
	O348	O	0.653635	0.505768	0.661336
	H349	H	0.652028	0.500814	0.669007
	H350	H	0.649180	0.503822	0.651909
	O351	O	-0.134074	0.960146	0.945164
	H352	H	-0.147801	0.973447	0.951002
	H353	H	-0.124958	0.949031	0.948818
	O354	O	0.044288	0.876364	0.207958
	H355	H	0.056749	0.868316	0.198741
	H356	H	0.060670	0.870334	0.222648
	O357	O	-0.020497	0.013144	0.921327
	H358	H	-0.007731	0.005478	0.921090
	H359	H	-0.013665	0.006181	0.918087
	O360	O	0.451974	0.336001	0.486197
	H361	H	0.438070	0.338417	0.486870
	H362	H	0.446592	0.336260	0.475686
	O363	O	0.183527	0.078514	1.207077
	H364	H	0.197305	0.090672	1.188025
	H365	H	0.187037	0.066996	1.206836
	O366	O	0.875862	1.027294	-0.184544
	H367	H	0.869987	1.025135	-0.181360
	H368	H	0.860566	1.019331	-0.192619
	O369	O	0.707677	0.313247	0.489278
	H370	H	0.696011	0.324158	0.500361
	H371	H	0.724019	0.296300	0.491730
	O372	O	0.565376	0.455908	0.651187
	H373	H	0.558945	0.458642	0.661954
	H374	H	0.572034	0.464762	0.659426
	O375	O	0.513613	0.393249	0.719994
	H376	H	0.523249	0.383020	0.716456
	H377	H	0.518321	0.404280	0.725446
	O378	O	0.414289	0.522642	0.466268
	H379	H	0.420277	0.517319	0.474437
	H380	H	0.403015	0.520636	0.467307
	O381	O	1.340116	0.535902	0.617735
	H382	H	1.339032	0.538836	0.623005
	H383	H	1.337268	0.519866	0.593671
	O384	O	0.574309	0.702507	0.715706
	H385	H	0.578969	0.707603	0.728946
	H386	H	0.599662	0.695464	0.712290
	O387	O	0.045589	0.038434	0.935409
	H388	H	0.048664	0.039450	0.946608
	H389	H	0.038321	0.023097	0.932334
	O390	O	-0.516286	-0.556944	-0.635224
	H391	H	-0.528058	-0.562036	-0.632107
	H392	H	-0.528258	-0.543458	-0.649472
	O393	O	1.228548	0.966244	0.796405
	H394	H	1.238080	0.969982	0.767183
	H395	H	1.221554	0.971131	0.789956
	O396	O	1.200936	0.046372	-0.030177
	H397	H	1.199649	0.024794	-0.023123
	H398	H	1.205381	0.028380	-0.048142
	O399	O	0.901630	-0.195734	1.184664
	H400	H	0.930797	-0.211426	1.200780
	H401	H	0.902868	-0.188223	1.164244
	O402	O	1.122224	1.104333	0.811652
	H403	H	1.103723	1.096290	0.825052
	H404	H	1.106441	1.107084	0.827370
	O405	O	1.038991	1.210047	0.021692
	H406	H	1.042148	1.208800	0.020365
	H407	H	1.050468	1.214888	0.019550
	O408	O	0.791533	0.212373	-0.013128
	H409	H	0.764693	0.239661	-0.009809
	H410	H	0.805479	0.203414	-0.007560
	O411	O	0.594204	1.303557	0.327560
	H412	H	0.579754	1.297476	0.319020
	H413	H	0.585454	1.296796	0.353361
	O414	O	0.473148	0.327814	0.482825
	H415	H	0.465892	0.316208	0.486678
	H416	H	0.449179	0.332257	0.482519
	O417	O	0.429402	0.334643	0.637766
	H418	H	0.432015	0.348889	0.628191
	H419	H	0.436896	0.337110	0.631112
	O420	O	0.187935	0.095526	0.169324
	H421	H	0.181294	0.086191	0.149872
	H422	H	0.182216	0.104906	0.181433
	O423	O	-0.191171	0.913052	-0.098370
	H424	H	-0.197896	0.911065	-0.100646
	H425	H	-0.188438	0.929152	-0.087270
	O426	O	0.803570	0.179815	0.213955
	H427	H	0.805999	0.192053	0.227056
	H428	H	0.787404	0.177547	0.207883
	O429	O	0.703900	0.641243	0.708582
	H430	H	0.693629	0.608957	0.704506
	H431	H	0.722710	0.648244	0.687759
	O432	O	0.665064	0.379400	0.655311
	H433	H	0.665968	0.374090	0.638724
	H434	H	0.674069	0.370089	0.664847
	O435	O	0.403622	0.630873	0.672807
	H436	H	0.414982	0.629431	0.668818
	H437	H	0.415530	0.609379	0.665386
	O438	O	0.706114	0.504797	-0.614100
	H439	H	0.716487	0.489799	-0.638403
	H440	H	0.695517	0.470744	-0.602274
	O441	O	1.054858	0.210463	0.217997
	H442	H	1.055676	0.198918	0.207620
	H443	H	1.060506	0.230006	0.251587
	O444	O	-0.154521	1.003729	1.062651
	H445	H	-0.150487	1.023135	1.065036
	H446	H	-0.168239	1.001366	1.060853
	O447	O	0.298670	0.511892	0.301332
	H448	H	0.310531	0.552284	0.305939
	H449	H	0.273946	0.526884	0.278684
	O450	O	0.223025	1.180428	1.023984
	H451	H	0.250402	1.182836	1.012967
	H452	H	0.233280	1.165819	1.019700
	O453	O	0.343026	0.285582	0.539970
	H454	H	0.340819	0.286154	0.575305
	H455	H	0.319830	0.276938	0.551182
