data_Molecule from HDF5

_cell_length_a		16.426900
_cell_length_b		16.380064
_cell_length_c		16.517125
_cell_angle_alpha	89.903107
_cell_angle_beta	89.974293
_cell_angle_gamma	90.096178
_symmetry_space_group_name_H-M	'P 1'
_symmetry_Int_Tables_number		1

loop_
	_symmetry_equiv_pos_as_xyz
	x,y,z

loop_
	_atom_site_label
	_atom_site_type_symbol
	_atom_site_fract_x
	_atom_site_fract_y
	_atom_site_fract_z
	H0	H	0.401287	0.838058	0.733919
	H1	H	0.613725	0.155083	0.736718
	H2	H	0.609236	0.836980	0.293992
	H3	H	0.398489	0.154564	0.291156
	H4	H	0.728756	0.387671	0.856995
	H5	H	0.725756	0.600530	0.171667
	H6	H	0.284018	0.597565	0.857027
	H7	H	0.283111	0.388677	0.172877
	H8	H	0.844831	0.715986	0.412275
	H9	H	0.164414	0.711991	0.614733
	H10	H	0.846052	0.273308	0.620747
	H11	H	0.163254	0.275850	0.409996
	H12	H	0.846458	0.387461	0.738006
	H13	H	0.162795	0.599475	0.734798
	H14	H	0.845032	0.600401	0.294430
	H15	H	0.163256	0.391539	0.294343
	H16	H	0.401452	0.714199	0.856718
	H17	H	0.608600	0.716260	0.172273
	H18	H	0.610126	0.273073	0.856102
	H19	H	0.397947	0.272039	0.172112
	H20	H	0.722312	0.835122	0.411830
	H21	H	0.726526	0.155578	0.619436
	H22	H	0.286073	0.838030	0.617277
	H23	H	0.284365	0.155781	0.407963
	H24	H	0.894457	0.339354	0.239311
	H25	H	0.107280	0.653749	0.233711
	H26	H	0.110135	0.337164	0.792067
	H27	H	0.898079	0.654598	0.793880
	H28	H	0.225089	0.893222	0.356316
	H29	H	0.230885	0.105868	0.670877
	H30	H	0.784387	0.100481	0.357285
	H31	H	0.780783	0.887973	0.672061
	H32	H	0.346190	0.218096	0.905787
	H33	H	0.662319	0.218280	0.117426
	H34	H	0.346379	0.776158	0.117630
	H35	H	0.663437	0.774268	0.908883
	H36	H	0.348072	0.888566	0.237285
	H37	H	0.661070	0.105604	0.237824
	H38	H	0.347126	0.103756	0.790309
	H39	H	0.663483	0.889913	0.791719
	H40	H	0.898756	0.218266	0.358507
	H41	H	0.111807	0.219019	0.672487
	H42	H	0.108648	0.776113	0.357537
	H43	H	0.899580	0.774416	0.673307
	H44	H	0.224587	0.335129	0.908853
	H45	H	0.223032	0.653340	0.116987
	H46	H	0.782639	0.337138	0.119566
	H47	H	0.784082	0.654869	0.909733
	H48	H	0.410069	0.113632	0.603433
	H49	H	0.590916	0.883614	0.605234
	H50	H	0.599397	0.111414	0.425214
	H51	H	0.418455	0.885061	0.428257
	H52	H	0.589303	0.406069	0.124623
	H53	H	0.601874	0.575727	0.901136
	H54	H	0.414110	0.587266	0.129262
	H55	H	0.417884	0.412404	0.905094
	H56	H	0.118370	0.588327	0.425969
	H57	H	0.891256	0.585642	0.599924
	H58	H	0.120158	0.401036	0.605087
	H59	H	0.895255	0.416918	0.427711
	H60	H	0.113405	0.410221	0.597280
	H61	H	0.890201	0.580344	0.607494
	H62	H	0.116843	0.583267	0.423266
	H63	H	0.887190	0.404216	0.419120
	H64	H	0.411651	0.584972	0.129509
	H65	H	0.582477	0.581856	0.906477
	H66	H	0.594065	0.406609	0.125999
	H67	H	0.418776	0.400603	0.901697
	H68	H	0.591679	0.110260	0.420049
	H69	H	0.590831	0.884722	0.601322
	H70	H	0.422716	0.111888	0.609463
	H71	H	0.411837	0.882265	0.426183
	H72	H	0.912802	0.611247	0.105864
	H73	H	0.093985	0.379284	0.104142
	H74	H	0.096315	0.610193	0.922506
	H75	H	0.922246	0.384396	0.926029
	H76	H	0.095321	0.908806	0.626828
	H77	H	0.089187	0.080866	0.406245
	H78	H	0.914737	0.083060	0.628023
	H79	H	0.918143	0.904462	0.403291
	H80	H	0.618807	0.086100	0.922301
	H81	H	0.395386	0.075502	0.100833
	H82	H	0.622119	0.905442	0.112001
	H83	H	0.392283	0.904048	0.926707
	H84	H	0.618154	0.901371	0.096554
	H85	H	0.389643	0.083095	0.107840
	H86	H	0.615822	0.085356	0.929806
	H87	H	0.393114	0.909365	0.924136
	H88	H	0.917266	0.081111	0.625878
	H89	H	0.092371	0.094094	0.400767
	H90	H	0.094086	0.904310	0.627787
	H91	H	0.910606	0.903886	0.400881
	H92	H	0.089091	0.606903	0.923911
	H93	H	0.091744	0.379630	0.107662
	H94	H	0.918213	0.608612	0.104835
	H95	H	0.913413	0.384127	0.932068
	H96	H	0.421148	0.107905	0.596184
	H97	H	0.594337	0.883277	0.602147
	H98	H	0.592088	0.107233	0.429143
	H99	H	0.418244	0.882500	0.421151
	H100	H	0.591546	0.410215	0.123608
	H101	H	0.595532	0.595690	0.897846
	H102	H	0.414546	0.583913	0.127625
	H103	H	0.408013	0.407177	0.900035
	H104	H	0.119621	0.587330	0.420307
	H105	H	0.887900	0.589538	0.607801
	H106	H	0.116739	0.413318	0.609983
	H107	H	0.892774	0.401893	0.435732
	H108	H	0.914524	0.608497	0.100685
	H109	H	0.090423	0.381231	0.103983
	H110	H	0.095217	0.606659	0.929813
	H111	H	0.913191	0.380415	0.922400
	H112	H	0.097827	0.906060	0.629036
	H113	H	0.102201	0.083685	0.401557
	H114	H	0.918027	0.084184	0.627546
	H115	H	0.913422	0.910868	0.403737
	H116	H	0.615155	0.079495	0.924587
	H117	H	0.392916	0.086507	0.096640
	H118	H	0.615126	0.916280	0.101827
	H119	H	0.390907	0.905533	0.921420
	C120	C	0.385041	0.005957	0.635146
	C121	C	0.625941	0.988416	0.635575
	C122	C	0.626112	0.004203	0.393282
	C123	C	0.383981	0.988038	0.392524
	C124	C	0.625199	0.374251	0.021276
	C125	C	0.625807	0.616683	1.005952
	C126	C	0.381990	0.616767	0.024182
	C127	C	0.382002	0.373088	1.006251
	C128	C	0.012723	0.617810	0.392429
	C129	C	0.995421	0.616306	0.635878
	C130	C	0.012639	0.374185	0.636787
	C131	C	0.996405	0.375503	0.394507
	C132	C	0.882257	0.504688	0.136601
	C133	C	0.124205	0.485636	0.135827
	C134	C	0.125360	0.503096	0.893388
	C135	C	0.883073	0.487266	0.893611
	C136	C	0.126791	0.875334	0.523186
	C137	C	0.127385	0.118754	0.506662
	C138	C	0.883911	0.116048	0.523657
	C139	C	0.881802	0.873724	0.506671
	C140	C	0.512599	0.117183	0.892105
	C141	C	0.495988	0.116845	0.135168
	C142	C	0.513821	0.874843	0.135572
	C143	C	0.496860	0.874120	0.891951
	C144	C	0.382550	0.885905	0.694261
	C145	C	0.630147	0.107623	0.696096
	C146	C	0.627584	0.884502	0.334147
	C147	C	0.380843	0.107061	0.331530
	C148	C	0.687334	0.370367	0.903787
	C149	C	0.686008	0.619068	0.124639
	C150	C	0.323628	0.616718	0.904618
	C151	C	0.322312	0.370096	0.125135
	C152	C	0.892837	0.677016	0.392013
	C153	C	0.116062	0.673859	0.635100
	C154	C	0.893604	0.312971	0.639226
	C155	C	0.115732	0.315807	0.392053
	C156	C	0.893758	0.370150	0.697633
	C157	C	0.115345	0.617592	0.694530
	C158	C	0.892744	0.619111	0.333955
	C159	C	0.115506	0.373407	0.334313
	C160	C	0.381997	0.674716	0.904296
	C161	C	0.627720	0.676501	0.124778
	C162	C	0.628086	0.313332	0.903208
	C163	C	0.379728	0.312100	0.124766
	C164	C	0.684087	0.883587	0.392747
	C165	C	0.686637	0.107803	0.637737
	C166	C	0.325296	0.885934	0.636293
	C167	C	0.324144	0.107776	0.390036
	C168	C	0.877901	0.386011	0.197914
	C169	C	0.126012	0.605795	0.194242
	C170	C	0.128069	0.384195	0.832547
	C171	C	0.879961	0.606667	0.833448
	C172	C	0.185795	0.874228	0.404231
	C173	C	0.189559	0.122879	0.624094
	C174	C	0.823799	0.118877	0.404944
	C175	C	0.821622	0.870629	0.625123
	C176	C	0.393887	0.178193	0.888576
	C177	C	0.614926	0.178251	0.136924
	C178	C	0.394331	0.815167	0.136857
	C179	C	0.615870	0.813898	0.890175
	C180	C	0.395186	0.871297	0.196235
	C181	C	0.614402	0.122172	0.196459
	C182	C	0.394269	0.120886	0.830854
	C183	C	0.615884	0.871392	0.831780
	C184	C	0.881024	0.177336	0.405244
	C185	C	0.130058	0.179158	0.625124
	C186	C	0.127763	0.815949	0.404580
	C187	C	0.880771	0.813921	0.625650
	C188	C	0.185043	0.383442	0.890906
	C189	C	0.183887	0.605405	0.136661
	C190	C	0.822043	0.385143	0.138423
	C191	C	0.823185	0.606819	0.891255
	C192	C	0.410533	0.089498	0.610174
	C193	C	0.599573	0.905461	0.610202
	C194	C	0.601554	0.087722	0.417686
	C195	C	0.409000	0.904838	0.417878
	C196	C	0.599240	0.400214	0.103428
	C197	C	0.600798	0.591522	0.923515
	C198	C	0.406376	0.592583	0.107277
	C199	C	0.407378	0.399115	0.923854
	C200	C	0.096337	0.593425	0.416297
	C201	C	0.911676	0.592003	0.612023
	C202	C	0.095185	0.400552	0.611472
	C203	C	0.913382	0.400565	0.420068
	C204	C	0.907951	0.587758	0.111272
	C205	C	0.099205	0.401821	0.112135
	C206	C	0.100638	0.586289	0.918293
	C207	C	0.909004	0.404469	0.919387
	C208	C	0.102637	0.899498	0.606219
	C209	C	0.101776	0.093578	0.424254
	C210	C	0.909653	0.090314	0.605681
	C211	C	0.907033	0.899057	0.424130
	C212	C	0.595096	0.091127	0.918034
	C213	C	0.413943	0.089615	0.109497
	C214	C	0.596878	0.900599	0.110567
	C215	C	0.413783	0.899315	0.916713
	Zn216	Zn	0.505704	-0.003249	0.763943
	Zn217	Zn	0.505355	-0.004021	0.264425
	Zn218	Zn	0.754932	0.495749	0.013965
	Zn219	Zn	0.253603	0.493816	0.015257
	Zn220	Zn	0.004476	0.745859	0.514955
	Zn221	Zn	0.004605	0.246367	0.515125
	Zn222	Zn	0.003677	0.495544	0.765448
	Zn223	Zn	0.003572	0.495158	0.264884
	Zn224	Zn	0.504984	0.745450	0.014341
	Zn225	Zn	0.503670	0.244808	0.013752
	Zn226	Zn	0.753835	-0.003825	0.514928
	Zn227	Zn	0.256297	-0.002484	0.514395
	N228	N	0.418714	0.961568	0.693816
	N229	N	0.593034	0.032235	0.694897
	N230	N	0.592632	0.960682	0.333881
	N231	N	0.417353	0.031658	0.332857
	N232	N	0.685700	0.407526	0.978366
	N233	N	0.685100	0.582654	0.049702
	N234	N	0.323232	0.581766	0.980284
	N235	N	0.323456	0.407065	0.050370
	N236	N	0.968376	0.676367	0.427751
	N237	N	0.040345	0.673512	0.599833
	N238	N	0.968480	0.315505	0.602001
	N239	N	0.040438	0.316689	0.428578
	N240	N	0.968770	0.407352	0.696451
	N241	N	0.039034	0.582887	0.695397
	N242	N	0.968311	0.583412	0.334010
	N243	N	0.040166	0.409640	0.335704
	N244	N	0.417480	0.674873	0.979652
	N245	N	0.591129	0.675188	0.050045
	N246	N	0.590285	0.315689	0.977344
	N247	N	0.415735	0.313542	0.049652
	N248	N	0.683423	0.959272	0.428635
	N249	N	0.684207	0.032624	0.600917
	N250	N	0.326538	0.961894	0.600513
	N251	N	0.325909	0.032728	0.427192
	N252	N	0.914399	0.461420	0.197072
	N253	N	0.089921	0.530097	0.193952
	N254	N	0.091452	0.459487	0.833984
	N255	N	0.916122	0.531147	0.834364
	N256	N	0.185374	0.910394	0.479137
	N257	N	0.188138	0.086175	0.549452
	N258	N	0.825418	0.081607	0.479497
	N259	N	0.822136	0.907022	0.550189
	N260	N	0.468462	0.175816	0.926264
	N261	N	0.540354	0.175011	0.099554
	N262	N	0.469281	0.817124	0.099989
	N263	N	0.540779	0.815324	0.926881
	N264	N	0.470606	0.907664	0.195601
	N265	N	0.539515	0.084817	0.195518
	N266	N	0.469104	0.083537	0.833015
	N267	N	0.540666	0.908016	0.832705
	N268	N	0.917965	0.175706	0.479835
	N269	N	0.092083	0.176667	0.551007
	N270	N	0.091713	0.816430	0.479598
	N271	N	0.917568	0.815577	0.550906
	N272	N	0.183555	0.458394	0.928095
	N273	N	0.182878	0.529777	0.100981
	N274	N	0.824499	0.460065	0.101048
	N275	N	0.824754	0.531360	0.927822
	O276	O	-0.182362	0.152263	-0.152137
	H277	H	-0.159204	0.157490	-0.138510
	H278	H	-0.172461	0.160567	-0.131934
	O279	O	0.793124	-0.006693	1.025280
	H280	H	0.795480	-0.019020	1.000667
	H281	H	0.788032	-0.039946	1.035046
	O282	O	0.327665	0.515248	0.590311
	H283	H	0.330811	0.511196	0.592051
	H284	H	0.344291	0.521309	0.591508
	O285	O	0.624944	0.542396	0.320842
	H286	H	0.600334	0.555293	0.325056
	H287	H	0.646479	0.531563	0.306396
	O288	O	1.206553	0.793776	-0.188499
	H289	H	1.233806	0.793016	-0.211959
	H290	H	1.212895	0.813219	-0.187905
	O291	O	-0.130396	0.193314	0.154477
	H292	H	-0.126190	0.174858	0.148682
	H293	H	-0.118744	0.183160	0.142547
	O294	O	0.098996	0.006424	1.163777
	H295	H	0.085065	-0.004105	1.155815
	H296	H	0.092497	0.004800	1.162141
	O297	O	0.271856	1.233610	-0.264307
	H298	H	0.271626	1.234756	-0.270141
	H299	H	0.250988	1.226901	-0.267365
	O300	O	0.313124	0.558299	0.335668
	H301	H	0.299312	0.543970	0.335556
	H302	H	0.314810	0.550127	0.346774
	O303	O	0.416486	0.517265	0.346334
	H304	H	0.418089	0.510073	0.335715
	H305	H	0.394051	0.526464	0.348141
	O306	O	0.678465	0.649484	0.516471
	H307	H	0.663757	0.635957	0.532183
	H308	H	0.709143	0.676225	0.519702
	O309	O	0.477222	0.691158	0.624818
	H310	H	0.459056	0.697925	0.608865
	H311	H	0.501691	0.697703	0.610898
	O312	O	0.175097	1.074761	1.145504
	H313	H	0.182084	1.048384	1.133789
	H314	H	0.177291	1.088325	1.120654
	O315	O	0.652092	0.638554	0.429567
	H316	H	0.643221	0.631271	0.432676
	H317	H	0.644758	0.625101	0.423791
	O318	O	0.509331	0.633255	0.718439
	H319	H	0.519059	0.645511	0.720244
	H320	H	0.506449	0.645160	0.708920
	O321	O	0.220091	-0.139794	-0.088289
	H322	H	0.224752	-0.142221	-0.092336
	H323	H	0.220910	-0.133731	-0.123123
	O324	O	0.320792	0.691251	0.379448
	H325	H	0.300742	0.704609	0.352503
	H326	H	0.322656	0.652723	0.370102
	O327	O	0.368922	0.689593	0.492757
	H328	H	0.358003	0.702643	0.478295
	H329	H	0.379601	0.684343	0.462632
	O330	O	0.037675	0.774709	-0.206132
	H331	H	0.071143	0.767842	-0.214650
	H332	H	0.044713	0.756779	-0.224967
	O333	O	1.113929	-0.161634	1.007686
	H334	H	1.116355	-0.156783	1.011858
	H335	H	1.121474	-0.165195	0.994130
	O336	O	-0.044126	-0.187449	0.010335
	H337	H	-0.033771	-0.184160	-0.007144
	H338	H	-0.038850	-0.185379	0.007010
	O339	O	-0.112635	0.816658	1.017999
	H340	H	-0.093993	0.807777	1.026482
	H341	H	-0.096868	0.807116	1.003995
	O342	O	0.385367	0.749110	1.287177
	H343	H	0.386491	0.752493	1.269847
	H344	H	0.350156	0.759805	1.286686
	O345	O	0.967342	1.200560	-0.189614
	H346	H	0.969668	1.197024	-0.196373
	H347	H	0.971423	1.214396	-0.179615
	O348	O	0.593734	0.471793	0.647160
	H349	H	0.594560	0.460485	0.645504
	H350	H	0.601500	0.471945	0.633645
	O351	O	-0.090911	0.878079	1.119062
	H352	H	-0.092162	0.871439	1.124810
	H353	H	-0.093904	0.858728	1.106496
	O354	O	-0.118150	0.906067	0.237632
	H355	H	-0.130737	0.906828	0.260236
	H356	H	-0.106883	0.883935	0.244772
	O357	O	0.149085	-0.174617	1.174747
	H358	H	0.132238	-0.162553	1.169940
	H359	H	0.127466	-0.160722	1.158315
	O360	O	0.539362	0.383359	0.601698
	H361	H	0.548991	0.376283	0.591415
	H362	H	0.552190	0.372353	0.611113
	O363	O	0.011623	-0.056798	1.219829
	H364	H	0.029901	-0.065107	1.225257
	H365	H	0.009417	-0.057354	1.217120
	O366	O	1.005179	1.000047	-0.095891
	H367	H	1.000594	0.986216	-0.090287
	H368	H	1.003209	0.990752	-0.110192
	O369	O	0.706255	0.411013	0.346768
	H370	H	0.717318	0.397170	0.348555
	H371	H	0.711375	0.415656	0.347013
	O372	O	0.327380	0.351285	0.666100
	H373	H	0.319536	0.366228	0.663309
	H374	H	0.339316	0.356758	0.667668
	O375	O	0.708518	0.516039	0.722772
	H376	H	0.720615	0.502469	0.733061
	H377	H	0.713051	0.513164	0.717213
	O378	O	0.530876	0.286613	0.302789
	H379	H	0.534742	0.270907	0.302550
	H380	H	0.523985	0.278004	0.304207
	O381	O	1.569450	0.397481	0.562345
	H382	H	1.556486	0.410647	0.554932
	H383	H	1.580820	0.408627	0.566263
	O384	O	0.685364	0.677333	0.683934
	H385	H	0.694837	0.641112	0.683280
	H386	H	0.665679	0.683628	0.671565
	O387	O	-0.132770	-0.085652	0.961789
	H388	H	-0.125607	-0.094014	0.965074
	H389	H	-0.148202	-0.088154	0.951821
	O390	O	-0.588202	-0.671028	-0.369427
	H391	H	-0.599228	-0.669922	-0.342078
	H392	H	-0.592643	-0.668433	-0.369912
	O393	O	1.162759	1.003177	0.797065
	H394	H	1.152445	1.018017	0.784528
	H395	H	1.158160	1.000921	0.796804
	O396	O	1.197481	0.042066	0.006571
	H397	H	1.180304	0.053441	0.022189
	H398	H	1.196930	0.051419	-0.001576
	O399	O	1.066026	-0.025932	1.150261
	H400	H	1.090852	-0.032742	1.152086
	H401	H	1.054266	-0.034851	1.146322
	O402	O	1.018454	1.007357	0.795064
	H403	H	1.022647	0.992582	0.794520
	H404	H	0.996339	0.993985	0.795311
	O405	O	1.026777	1.196218	-0.051549
	H406	H	1.017268	1.201520	-0.038151
	H407	H	1.006275	1.189560	-0.047211
	O408	O	0.805498	0.198044	-0.005800
	H409	H	0.782327	0.203165	-0.000263
	H410	H	0.805667	0.188273	0.018485
	O411	O	0.572907	1.600724	0.460393
	H412	H	0.576205	1.595069	0.446674
	H413	H	0.580369	1.596152	0.452058
	O414	O	0.518496	0.391525	0.542012
	H415	H	0.522390	0.400636	0.534856
	H416	H	0.505195	0.373913	0.545326
	O417	O	0.456375	0.323178	0.714794
	H418	H	0.427348	0.328923	0.722914
	H419	H	0.452958	0.317367	0.723111
	O420	O	0.086845	0.103320	0.182973
	H421	H	0.098250	0.106775	0.189311
	H422	H	0.116897	0.096235	0.179301
	O423	O	-0.203328	1.010016	-0.193730
	H424	H	-0.212956	1.011206	-0.217226
	H425	H	-0.200900	1.044138	-0.189460
	O426	O	0.866101	0.061866	0.163588
	H427	H	0.861278	0.067976	0.169214
	H428	H	0.850610	0.047605	0.159881
	O429	O	0.681840	0.602682	0.355554
	H430	H	0.702587	0.584528	0.365246
	H431	H	0.683669	0.604935	0.352487
	O432	O	0.422545	0.347431	0.425649
	H433	H	0.426168	0.331744	0.437833
	H434	H	0.437223	0.341721	0.434908
	O435	O	0.311900	0.655418	0.679172
	H436	H	0.316363	0.638050	0.657413
	H437	H	0.342089	0.648463	0.658572
	O438	O	0.402665	0.437373	-0.598367
	H439	H	0.400746	0.422713	-0.590426
	H440	H	0.417603	0.440706	-0.581693
	O441	O	1.098622	0.106944	0.043424
	H442	H	1.089297	0.106460	0.046157
	H443	H	1.106318	0.102512	0.042758
	O444	O	0.004020	0.927177	1.141393
	H445	H	0.011989	0.941766	1.138609
	H446	H	-0.011481	0.923189	1.151063
	O447	O	0.599407	0.402328	0.461655
	H448	H	0.599048	0.406301	0.449759
	H449	H	0.606211	0.395175	0.474442
	O450	O	0.217580	1.208548	1.041926
	H451	H	0.214618	1.218518	1.023370
	H452	H	0.236181	1.218529	1.034471
	O453	O	0.636315	0.416316	0.387246
	H454	H	0.612987	0.411854	0.375670
	H455	H	0.638573	0.400750	0.374525
