data_Molecule from HDF5

_cell_length_a		16.140299
_cell_length_b		16.245320
_cell_length_c		16.302233
_cell_angle_alpha	90.177228
_cell_angle_beta	89.949224
_cell_angle_gamma	89.995365
_symmetry_space_group_name_H-M	'P 1'
_symmetry_Int_Tables_number		1

loop_
	_symmetry_equiv_pos_as_xyz
	x,y,z

loop_
	_atom_site_label
	_atom_site_type_symbol
	_atom_site_fract_x
	_atom_site_fract_y
	_atom_site_fract_z
	H0	H	0.399113	0.834254	0.710364
	H1	H	0.600217	0.161877	0.711776
	H2	H	0.600041	0.835143	0.279246
	H3	H	0.398957	0.161717	0.277887
	H4	H	0.716485	0.398016	0.830878
	H5	H	0.713415	0.595072	0.158209
	H6	H	0.288435	0.594951	0.830458
	H7	H	0.288196	0.400921	0.157789
	H8	H	0.835509	0.711459	0.397406
	H9	H	0.165397	0.714015	0.593725
	H10	H	0.835629	0.287218	0.591891
	H11	H	0.165550	0.283552	0.395390
	H12	H	0.837097	0.399641	0.709410
	H13	H	0.166449	0.598106	0.708183
	H14	H	0.836824	0.598892	0.280678
	H15	H	0.166270	0.400131	0.281665
	H16	H	0.402319	0.711641	0.830589
	H17	H	0.601363	0.713578	0.156391
	H18	H	0.601610	0.281705	0.831223
	H19	H	0.401866	0.282884	0.157462
	H20	H	0.712845	0.834380	0.397495
	H21	H	0.713697	0.163051	0.594087
	H22	H	0.286460	0.833088	0.590358
	H23	H	0.286407	0.163543	0.397891
	H24	H	0.902572	0.334974	0.210158
	H25	H	0.103382	0.662490	0.211927
	H26	H	0.102474	0.335240	0.777542
	H27	H	0.901719	0.662491	0.780406
	H28	H	0.213873	0.898180	0.331291
	H29	H	0.213176	0.097427	0.658876
	H30	H	0.785925	0.095710	0.330789
	H31	H	0.785660	0.902540	0.659230
	H32	H	0.337339	0.212605	0.894699
	H33	H	0.666536	0.211051	0.092441
	H34	H	0.336549	0.784713	0.090918
	H35	H	0.666697	0.784928	0.895540
	H36	H	0.336027	0.897506	0.208479
	H37	H	0.664979	0.098203	0.209841
	H38	H	0.336306	0.096666	0.781808
	H39	H	0.664837	0.898029	0.778222
	H40	H	0.898672	0.215442	0.332212
	H41	H	0.099093	0.214099	0.657949
	H42	H	0.099703	0.781856	0.332266
	H43	H	0.899193	0.784092	0.658615
	H44	H	0.214590	0.333556	0.896739
	H45	H	0.216396	0.662885	0.092978
	H46	H	0.788207	0.333384	0.091809
	H47	H	0.787481	0.662608	0.898160
	H48	H	0.403801	0.115671	0.587657
	H49	H	0.582197	0.886630	0.583117
	H50	H	0.593650	0.117735	0.396980
	H51	H	0.402342	0.881947	0.408786
	H52	H	0.594455	0.401948	0.112367
	H53	H	0.594623	0.596379	0.875885
	H54	H	0.403721	0.591566	0.112053
	H55	H	0.410971	0.406587	0.878884
	H56	H	0.116557	0.589023	0.408571
	H57	H	0.883273	0.585545	0.594990
	H58	H	0.120546	0.402395	0.588273
	H59	H	0.882367	0.405980	0.400331
	H60	H	0.117618	0.407132	0.583003
	H61	H	0.880839	0.598925	0.590350
	H62	H	0.117892	0.587419	0.399128
	H63	H	0.883317	0.405135	0.402603
	H64	H	0.413172	0.585757	0.108006
	H65	H	0.599480	0.590374	0.875224
	H66	H	0.595700	0.404153	0.111179
	H67	H	0.411069	0.401393	0.877575
	H68	H	0.587581	0.115134	0.401792
	H69	H	0.600465	0.882055	0.579859
	H70	H	0.407414	0.115704	0.592757
	H71	H	0.402424	0.878110	0.392997
	H72	H	0.905046	0.615694	0.087088
	H73	H	0.086277	0.382739	0.096092
	H74	H	0.088388	0.615377	0.895324
	H75	H	0.918365	0.384094	0.900245
	H76	H	0.087297	0.896100	0.613123
	H77	H	0.096158	0.095520	0.376278
	H78	H	0.905571	0.090518	0.611441
	H79	H	0.911743	0.903302	0.379812
	H80	H	0.622709	0.093162	0.892986
	H81	H	0.382294	0.093757	0.086504
	H82	H	0.619712	0.909992	0.093172
	H83	H	0.382729	0.905341	0.900254
	H84	H	0.621248	0.898818	0.088868
	H85	H	0.384637	0.088353	0.083677
	H86	H	0.618866	0.095176	0.910350
	H87	H	0.382708	0.902672	0.902492
	H88	H	0.908868	0.093565	0.610614
	H89	H	0.093606	0.085477	0.379823
	H90	H	0.102986	0.906368	0.614404
	H91	H	0.903331	0.900622	0.376667
	H92	H	0.094580	0.612794	0.909236
	H93	H	0.091023	0.385910	0.078724
	H94	H	0.907511	0.616813	0.093156
	H95	H	0.904002	0.382833	0.908800
	H96	H	0.410208	0.113125	0.587397
	H97	H	0.591603	0.879367	0.596449
	H98	H	0.595314	0.115726	0.404304
	H99	H	0.415762	0.884451	0.399571
	H100	H	0.593316	0.404326	0.110596
	H101	H	0.592530	0.589116	0.877463
	H102	H	0.414012	0.597307	0.110899
	H103	H	0.405898	0.404058	0.876512
	H104	H	0.120412	0.595544	0.402665
	H105	H	0.885397	0.588573	0.581645
	H106	H	0.119038	0.409109	0.589984
	H107	H	0.883747	0.408530	0.401814
	H108	H	0.911157	0.614187	0.088180
	H109	H	0.103327	0.378346	0.090231
	H110	H	0.103413	0.619683	0.898232
	H111	H	0.904680	0.377496	0.892387
	H112	H	0.087232	0.914410	0.607268
	H113	H	0.086065	0.093432	0.378644
	H114	H	0.905179	0.095595	0.612274
	H115	H	0.904544	0.909444	0.379576
	H116	H	0.616035	0.079149	0.902401
	H117	H	0.382946	0.088608	0.088978
	H118	H	0.617517	0.907599	0.081787
	H119	H	0.384426	0.905380	0.902984
	C120	C	0.378028	0.006252	0.616865
	C121	C	0.621045	0.990344	0.616349
	C122	C	0.621417	0.007389	0.372866
	C123	C	0.377989	0.990094	0.372556
	C124	C	0.623191	0.375580	0.002891
	C125	C	0.623715	0.620102	0.984704
	C126	C	0.380464	0.620021	0.002587
	C127	C	0.379929	0.375498	0.985394
	C128	C	0.009552	0.619677	0.374483
	C129	C	0.992140	0.620623	0.617081
	C130	C	0.009817	0.378147	0.615559
	C131	C	0.992020	0.377300	0.373260
	C132	C	0.879400	0.506815	0.117094
	C133	C	0.123226	0.490621	0.116877
	C134	C	0.123781	0.507041	0.872444
	C135	C	0.879975	0.489860	0.872689
	C136	C	0.121401	0.876422	0.503543
	C137	C	0.121091	0.120541	0.486275
	C138	C	0.877523	0.121399	0.503581
	C139	C	0.877658	0.876670	0.486633
	C140	C	0.510175	0.118231	0.873683
	C141	C	0.492380	0.119199	0.115327
	C142	C	0.510073	0.876749	0.115851
	C143	C	0.492278	0.876176	0.872707
	C144	C	0.379442	0.883049	0.671808
	C145	C	0.619599	0.113215	0.672967
	C146	C	0.620057	0.884138	0.317316
	C147	C	0.379314	0.113102	0.316469
	C148	C	0.678557	0.377941	0.879851
	C149	C	0.676749	0.616440	0.108854
	C150	C	0.325608	0.616181	0.879514
	C151	C	0.325017	0.379194	0.108533
	C152	C	0.885109	0.674399	0.376755
	C153	C	0.116020	0.676566	0.614308
	C154	C	0.885219	0.323921	0.612966
	C155	C	0.116294	0.321494	0.375219
	C156	C	0.885836	0.380243	0.670945
	C157	C	0.116832	0.618629	0.670996
	C158	C	0.885815	0.618484	0.318677
	C159	C	0.116665	0.379343	0.318498
	C160	C	0.382244	0.674349	0.879515
	C161	C	0.621093	0.675351	0.107879
	C162	C	0.621723	0.319882	0.879871
	C163	C	0.381760	0.320653	0.108519
	C164	C	0.676020	0.883737	0.376305
	C165	C	0.676040	0.113992	0.614408
	C166	C	0.323435	0.882429	0.612147
	C167	C	0.323455	0.114019	0.376209
	C168	C	0.882026	0.383634	0.171881
	C169	C	0.122531	0.613558	0.173198
	C170	C	0.121771	0.383703	0.816645
	C171	C	0.882036	0.613413	0.818373
	C172	C	0.176430	0.878036	0.380435
	C173	C	0.175978	0.117927	0.609658
	C174	C	0.823085	0.117341	0.379953
	C175	C	0.822556	0.880655	0.609964
	C176	C	0.386328	0.174474	0.875612
	C177	C	0.616954	0.173816	0.113317
	C178	C	0.385955	0.821468	0.112531
	C179	C	0.616829	0.821719	0.874514
	C180	C	0.385879	0.877555	0.171021
	C181	C	0.616195	0.117630	0.171306
	C182	C	0.385481	0.116527	0.819410
	C183	C	0.616053	0.878086	0.816574
	C184	C	0.879185	0.176594	0.380494
	C185	C	0.119272	0.176059	0.609331
	C186	C	0.119488	0.820186	0.380889
	C187	C	0.879393	0.822284	0.609905
	C188	C	0.177803	0.383034	0.875625
	C189	C	0.179167	0.613754	0.114182
	C190	C	0.825527	0.382781	0.112723
	C191	C	0.824846	0.613457	0.876637
	C192	C	0.400508	0.092563	0.595571
	C193	C	0.598085	0.904586	0.593178
	C194	C	0.598853	0.093874	0.394648
	C195	C	0.400286	0.903748	0.394001
	C196	C	0.600919	0.397105	0.089006
	C197	C	0.601981	0.598438	0.898586
	C198	C	0.403353	0.598103	0.088142
	C199	C	0.402613	0.397343	0.899722
	C200	C	0.095964	0.597294	0.396754
	C201	C	0.905527	0.597737	0.595258
	C202	C	0.096688	0.399794	0.593534
	C203	C	0.905551	0.399751	0.395232
	C204	C	0.901431	0.593352	0.095643
	C205	C	0.100434	0.404467	0.094738
	C206	C	0.101890	0.593417	0.894463
	C207	C	0.902406	0.403669	0.893953
	C208	C	0.099123	0.898962	0.589335
	C209	C	0.098497	0.098094	0.400493
	C210	C	0.900020	0.099774	0.589286
	C211	C	0.899943	0.898157	0.400823
	C212	C	0.596762	0.095695	0.895495
	C213	C	0.405877	0.096853	0.092995
	C214	C	0.596896	0.898908	0.094187
	C215	C	0.405719	0.898034	0.895263
	Zn216	Zn	0.500109	-0.002017	0.745474
	Zn217	Zn	0.500344	-0.001427	0.243970
	Zn218	Zn	0.750823	0.497797	-0.005574
	Zn219	Zn	0.251951	0.498220	-0.005619
	Zn220	Zn	-0.000638	0.747943	0.495499
	Zn221	Zn	0.000262	0.249570	0.494683
	Zn222	Zn	0.002065	0.498492	0.743912
	Zn223	Zn	0.001513	0.499361	0.245918
	Zn224	Zn	0.501779	0.748868	-0.006383
	Zn225	Zn	0.502146	0.246707	-0.005628
	Zn226	Zn	0.749289	-0.000936	0.494776
	Zn227	Zn	0.249615	-0.001232	0.494835
	N228	N	0.412435	0.961091	0.675033
	N229	N	0.586179	0.035300	0.674321
	N230	N	0.586881	0.962136	0.314988
	N231	N	0.412255	0.034906	0.313872
	N232	N	0.679498	0.411949	0.957258
	N233	N	0.678359	0.582610	0.031452
	N234	N	0.324428	0.583206	0.957112
	N235	N	0.323692	0.412441	0.031067
	N236	N	0.963059	0.675437	0.410728
	N237	N	0.037381	0.677782	0.581624
	N238	N	0.963297	0.322604	0.578966
	N239	N	0.037827	0.319981	0.408552
	N240	N	0.964324	0.413101	0.672618
	N241	N	0.038758	0.584565	0.672990
	N242	N	0.964014	0.584836	0.317371
	N243	N	0.038535	0.413261	0.316985
	N244	N	0.415881	0.676723	0.957060
	N245	N	0.588926	0.678006	0.029711
	N246	N	0.588121	0.318202	0.957372
	N247	N	0.415414	0.318301	0.030943
	N248	N	0.677181	0.961569	0.409878
	N249	N	0.677000	0.036632	0.579876
	N250	N	0.322356	0.960181	0.578839
	N251	N	0.322350	0.036481	0.410092
	N252	N	0.914778	0.461841	0.174552
	N253	N	0.088247	0.535852	0.174814
	N254	N	0.089008	0.461915	0.814329
	N255	N	0.915491	0.535466	0.815512
	N256	N	0.177911	0.912347	0.457786
	N257	N	0.177361	0.084249	0.532017
	N258	N	0.821871	0.083740	0.457330
	N259	N	0.821340	0.913931	0.532448
	N260	N	0.464909	0.175842	0.908454
	N261	N	0.539048	0.174956	0.079270
	N262	N	0.464387	0.820543	0.079126
	N263	N	0.539051	0.820616	0.908935
	N264	N	0.464014	0.911242	0.173179
	N265	N	0.537722	0.084277	0.172777
	N266	N	0.463309	0.082364	0.817958
	N267	N	0.537538	0.911096	0.815191
	N268	N	0.912393	0.179136	0.458102
	N269	N	0.085728	0.177729	0.531703
	N270	N	0.085893	0.819009	0.458405
	N271	N	0.912666	0.819432	0.532165
	N272	N	0.179092	0.460730	0.909487
	N273	N	0.179471	0.536276	0.079854
	N274	N	0.823620	0.460576	0.079502
	N275	N	0.823576	0.535756	0.909923
	O276	O	0.975453	1.016268	-0.011098
	H277	H	0.971954	1.012764	-0.012947
	H278	H	0.986250	1.020312	-0.005046
	O279	O	0.022202	-0.038937	1.005217
	H280	H	0.020190	-0.044107	1.007668
	H281	H	0.017919	-0.036709	1.007895
	O282	O	0.057641	-0.033999	0.065219
	H283	H	0.057472	-0.024934	0.063888
	H284	H	0.061715	-0.032551	0.074380
	O285	O	0.498674	0.476451	0.438719
	H286	H	0.500738	0.484187	0.436831
	H287	H	0.497409	0.484110	0.442685
	O288	O	-0.008543	0.066396	0.013644
	H289	H	-0.002804	0.067469	0.016153
	H290	H	-0.010140	0.074346	0.024434
	O291	O	0.023066	0.984997	-0.082276
	H292	H	0.017757	0.982233	-0.083473
	H293	H	0.017270	0.978071	-0.093605
	O294	O	-0.026432	0.989173	-0.029325
	H295	H	-0.029470	0.978846	-0.024553
	H296	H	-0.024606	0.987056	-0.025490
	O297	O	0.498511	0.465379	0.519901
	H298	H	0.497662	0.469992	0.523442
	H299	H	0.505240	0.463135	0.518906
	O300	O	0.459398	0.520914	0.488665
	H301	H	0.457241	0.529864	0.498992
	H302	H	0.457200	0.524885	0.482515
	O303	O	1.023360	-0.053451	1.075618
	H304	H	1.017097	-0.049169	1.073760
	H305	H	1.027778	-0.051489	1.070645
	O306	O	0.026359	1.052789	1.080060
	H307	H	0.030734	1.051877	1.079920
	H308	H	0.037277	1.060331	1.074710
	O309	O	0.015206	0.932533	0.908532
	H310	H	0.018623	0.933123	0.897536
	H311	H	0.025347	0.934708	0.909322
	O312	O	0.084430	-0.001160	1.026764
	H313	H	0.081366	-0.002432	1.029228
	H314	H	0.088426	0.002788	1.024071
	O315	O	0.561371	0.535089	0.524275
	H316	H	0.561356	0.535188	0.515563
	H317	H	0.563642	0.526571	0.526952
	O318	O	0.041747	0.026077	1.091258
	H319	H	0.035182	0.018418	1.089570
	H320	H	0.038663	0.027010	1.090650
	O321	O	0.533066	0.508198	0.424640
	H322	H	0.525496	0.508097	0.422857
	H323	H	0.532609	0.511779	0.408546
	O324	O	1.023273	-0.052059	0.972346
	H325	H	1.017921	-0.047937	0.962848
	H326	H	1.024700	-0.064737	0.966698
	O327	O	0.958803	0.941041	1.015359
	H328	H	0.953009	0.938880	1.023401
	H329	H	0.957004	0.949685	1.025503
	O330	O	0.554082	0.549194	0.477853
	H331	H	0.565259	0.543309	0.486008
	H332	H	0.564722	0.553530	0.479799
	O333	O	0.519929	0.517776	0.499995
	H334	H	0.525628	0.529711	0.498210
	H335	H	0.523760	0.519905	0.502350
	O336	O	0.551656	0.543020	0.509073
	H337	H	0.555662	0.534462	0.505902
	H338	H	0.549190	0.543027	0.509426
	O339	O	0.453253	0.515380	0.526733
	H340	H	0.440973	0.516342	0.530179
	H341	H	0.448375	0.513922	0.523075
	O342	O	0.522028	0.505074	0.459480
	H343	H	0.514845	0.502207	0.463211
	H344	H	0.520546	0.496473	0.465507
	O345	O	0.538120	0.444332	0.407453
	H346	H	0.539781	0.438418	0.401530
	H347	H	0.539626	0.445140	0.414909
