data_Molecule from HDF5

_cell_length_a		16.446204
_cell_length_b		16.170469
_cell_length_c		16.100664
_cell_angle_alpha	90.580031
_cell_angle_beta	90.197030
_cell_angle_gamma	90.171685
_symmetry_space_group_name_H-M	'P 1'
_symmetry_Int_Tables_number		1

loop_
	_symmetry_equiv_pos_as_xyz
	x,y,z

loop_
	_atom_site_label
	_atom_site_type_symbol
	_atom_site_fract_x
	_atom_site_fract_y
	_atom_site_fract_z
	H0	H	0.403244	0.838789	0.701687
	H1	H	0.594782	0.170315	0.706533
	H2	H	0.592880	0.839948	0.278385
	H3	H	0.402527	0.171216	0.281743
	H4	H	0.713966	0.402908	0.828919
	H5	H	0.714160	0.609160	0.157692
	H6	H	0.280859	0.607000	0.830630
	H7	H	0.283094	0.403665	0.157234
	H8	H	0.835240	0.719308	0.395009
	H9	H	0.158845	0.725395	0.596723
	H10	H	0.835436	0.289640	0.592949
	H11	H	0.159497	0.288188	0.393737
	H12	H	0.834204	0.410184	0.706693
	H13	H	0.159671	0.608725	0.712365
	H14	H	0.835026	0.600651	0.280440
	H15	H	0.159349	0.403643	0.277265
	H16	H	0.402672	0.714861	0.826822
	H17	H	0.597040	0.719741	0.158125
	H18	H	0.595605	0.292539	0.827003
	H19	H	0.401290	0.292237	0.157972
	H20	H	0.713390	0.841546	0.388699
	H21	H	0.715643	0.168426	0.597343
	H22	H	0.280198	0.841714	0.594262
	H23	H	0.280157	0.168276	0.391635
	H24	H	0.902567	0.339353	0.202212
	H25	H	0.094625	0.671219	0.208999
	H26	H	0.094029	0.342143	0.778573
	H27	H	0.902947	0.672701	0.785354
	H28	H	0.212247	0.899869	0.329570
	H29	H	0.215497	0.109148	0.656656
	H30	H	0.781499	0.104912	0.329223
	H31	H	0.782176	0.905701	0.657643
	H32	H	0.338345	0.220761	0.890698
	H33	H	0.661451	0.222836	0.093539
	H34	H	0.337770	0.789365	0.090765
	H35	H	0.661800	0.789980	0.893490
	H36	H	0.336206	0.907862	0.203777
	H37	H	0.660753	0.105618	0.210277
	H38	H	0.336914	0.101787	0.778549
	H39	H	0.661786	0.906462	0.777170
	H40	H	0.900329	0.215653	0.327896
	H41	H	0.094519	0.218417	0.659746
	H42	H	0.092870	0.790834	0.328781
	H43	H	0.902155	0.796709	0.660193
	H44	H	0.214728	0.343148	0.888842
	H45	H	0.218004	0.668447	0.100992
	H46	H	0.780655	0.342291	0.093260
	H47	H	0.782259	0.670340	0.895001
	H48	H	0.400226	0.123738	0.585020
	H49	H	0.588379	0.885814	0.592062
	H50	H	0.603673	0.128508	0.396524
	H51	H	0.397203	0.886200	0.398945
	H52	H	0.595689	0.409956	0.113917
	H53	H	0.590171	0.601939	0.873193
	H54	H	0.406546	0.600705	0.112767
	H55	H	0.398198	0.416086	0.873714
	H56	H	0.116586	0.603350	0.395859
	H57	H	0.882338	0.597115	0.593312
	H58	H	0.115317	0.405608	0.586688
	H59	H	0.885555	0.412175	0.407200
	H60	H	0.109003	0.416091	0.579097
	H61	H	0.879669	0.605373	0.591084
	H62	H	0.111105	0.602559	0.412455
	H63	H	0.882221	0.415721	0.392242
	H64	H	0.405142	0.594319	0.110786
	H65	H	0.598125	0.593790	0.873925
	H66	H	0.593945	0.423436	0.109539
	H67	H	0.410178	0.418443	0.878430
	H68	H	0.578464	0.121430	0.395747
	H69	H	0.587302	0.891379	0.574909
	H70	H	0.408270	0.123261	0.588554
	H71	H	0.405338	0.886646	0.393327
	H72	H	0.905410	0.620972	0.079958
	H73	H	0.087055	0.392086	0.078620
	H74	H	0.097535	0.625443	0.904306
	H75	H	0.915617	0.390663	0.896344
	H76	H	0.086963	0.915543	0.611820
	H77	H	0.090347	0.093973	0.375792
	H78	H	0.900518	0.088587	0.610913
	H79	H	0.906456	0.907539	0.375428
	H80	H	0.616063	0.104478	0.903013
	H81	H	0.381404	0.105965	0.087680
	H82	H	0.616970	0.906336	0.084310
	H83	H	0.381680	0.901008	0.900199
	H84	H	0.612619	0.916696	0.080461
	H85	H	0.386756	0.098620	0.076706
	H86	H	0.613271	0.094420	0.903178
	H87	H	0.386652	0.914540	0.902053
	H88	H	0.913632	0.100253	0.609832
	H89	H	0.088013	0.095119	0.375814
	H90	H	0.095084	0.914767	0.613608
	H91	H	0.898724	0.910443	0.373575
	H92	H	0.087500	0.623269	0.902315
	H93	H	0.099180	0.387774	0.080625
	H94	H	0.897005	0.625640	0.090401
	H95	H	0.901562	0.392413	0.913248
	H96	H	0.406638	0.119664	0.579178
	H97	H	0.602039	0.884254	0.581696
	H98	H	0.592536	0.117838	0.418369
	H99	H	0.406473	0.889920	0.403147
	H100	H	0.583338	0.413364	0.108465
	H101	H	0.587724	0.590644	0.877428
	H102	H	0.411833	0.596786	0.109683
	H103	H	0.406150	0.405604	0.873737
	H104	H	0.110251	0.588907	0.402337
	H105	H	0.883027	0.600938	0.584867
	H106	H	0.112778	0.419173	0.592896
	H107	H	0.879145	0.401273	0.398257
	H108	H	0.910731	0.623983	0.092385
	H109	H	0.090110	0.386924	0.090884
	H110	H	0.091255	0.621898	0.911939
	H111	H	0.894866	0.383991	0.893923
	H112	H	0.092300	0.921687	0.610872
	H113	H	0.090797	0.096231	0.374958
	H114	H	0.897702	0.104582	0.615696
	H115	H	0.904329	0.915715	0.375827
	H116	H	0.617208	0.099039	0.892921
	H117	H	0.385170	0.091526	0.089003
	H118	H	0.615974	0.915646	0.091059
	H119	H	0.381573	0.910523	0.888551
	C120	C	0.376952	0.013143	0.612891
	C121	C	0.620574	0.996209	0.613495
	C122	C	0.618875	0.013639	0.372491
	C123	C	0.375127	0.996561	0.370128
	C124	C	0.619493	0.385770	0.001242
	C125	C	0.620565	0.626475	0.984066
	C126	C	0.378538	0.625812	0.002052
	C127	C	0.376565	0.383610	0.984034
	C128	C	0.005710	0.626150	0.374036
	C129	C	0.989286	0.630295	0.618486
	C130	C	0.005411	0.384737	0.615185
	C131	C	0.988944	0.380966	0.370431
	C132	C	0.875924	0.514436	0.115099
	C133	C	0.120992	0.497122	0.115663
	C134	C	0.119920	0.515231	0.873909
	C135	C	0.876074	0.498082	0.873130
	C136	C	0.118881	0.885050	0.502776
	C137	C	0.119127	0.125939	0.484431
	C138	C	0.876040	0.125973	0.502686
	C139	C	0.875709	0.884149	0.484616
	C140	C	0.508198	0.126965	0.870375
	C141	C	0.491027	0.128776	0.114985
	C142	C	0.507859	0.883888	0.113373
	C143	C	0.490777	0.881224	0.868958
	C144	C	0.381119	0.888789	0.666166
	C145	C	0.616393	0.120587	0.669286
	C146	C	0.614536	0.889191	0.316393
	C147	C	0.380110	0.121143	0.317344
	C148	C	0.675404	0.384680	0.877910
	C149	C	0.676173	0.627478	0.108187
	C150	C	0.320878	0.625242	0.878961
	C151	C	0.321426	0.384678	0.107957
	C152	C	0.883586	0.681129	0.375466
	C153	C	0.110719	0.686781	0.616748
	C154	C	0.883695	0.328479	0.613106
	C155	C	0.110908	0.325898	0.373236
	C156	C	0.883269	0.388327	0.669787
	C157	C	0.111044	0.629107	0.674521
	C158	C	0.883519	0.622260	0.318053
	C159	C	0.110814	0.383242	0.314982
	C160	C	0.381056	0.679288	0.877240
	C161	C	0.617847	0.682359	0.108723
	C162	C	0.616294	0.329808	0.876714
	C163	C	0.379940	0.328916	0.108374
	C164	C	0.674721	0.890362	0.370896
	C165	C	0.676189	0.119757	0.614778
	C166	C	0.320234	0.890124	0.612129
	C167	C	0.319503	0.119840	0.372070
	C168	C	0.880575	0.389357	0.166804
	C169	C	0.116926	0.621433	0.172070
	C170	C	0.115950	0.391419	0.816426
	C171	C	0.881174	0.622953	0.821105
	C172	C	0.174285	0.882290	0.378760
	C173	C	0.176077	0.127101	0.607942
	C174	C	0.820483	0.124047	0.378134
	C175	C	0.820525	0.886343	0.608847
	C176	C	0.386447	0.182065	0.871318
	C177	C	0.612785	0.184920	0.114017
	C178	C	0.386020	0.827834	0.110882
	C179	C	0.613251	0.826994	0.872165
	C180	C	0.385388	0.886720	0.167307
	C181	C	0.612519	0.126769	0.172059
	C182	C	0.385798	0.122867	0.815362
	C183	C	0.613213	0.884854	0.814264
	C184	C	0.879241	0.179226	0.377563
	C185	C	0.116138	0.181705	0.609398
	C186	C	0.114553	0.828341	0.378418
	C187	C	0.880162	0.832153	0.610185
	C188	C	0.175833	0.391876	0.871279
	C189	C	0.178108	0.619933	0.118282
	C190	C	0.820024	0.390962	0.112654
	C191	C	0.820915	0.621722	0.875303
	C192	C	0.398628	0.099658	0.590756
	C193	C	0.598952	0.909584	0.589749
	C194	C	0.597696	0.100086	0.396556
	C195	C	0.396491	0.910143	0.391979
	C196	C	0.597419	0.408971	0.088128
	C197	C	0.598561	0.602589	0.897170
	C198	C	0.401253	0.603755	0.088682
	C199	C	0.398485	0.406554	0.897682
	C200	C	0.090582	0.604499	0.396869
	C201	C	0.903849	0.607820	0.596161
	C202	C	0.090386	0.407063	0.592848
	C203	C	0.904131	0.403299	0.392668
	C204	C	0.897926	0.601056	0.094077
	C205	C	0.098701	0.411212	0.090862
	C206	C	0.098410	0.601234	0.898918
	C207	C	0.897458	0.411519	0.894750
	C208	C	0.097609	0.909762	0.589597
	C209	C	0.096389	0.102071	0.397985
	C210	C	0.897585	0.104470	0.589413
	C211	C	0.896676	0.905083	0.397583
	C212	C	0.593510	0.105640	0.893098
	C213	C	0.406340	0.105678	0.091399
	C214	C	0.593061	0.906378	0.091689
	C215	C	0.405715	0.902489	0.890581
	Zn216	Zn	0.499043	0.004647	0.741326
	Zn217	Zn	0.498691	0.005458	0.243273
	Zn218	Zn	0.747596	0.506095	-0.006732
	Zn219	Zn	0.249345	0.505806	-0.005900
	Zn220	Zn	-0.002752	0.757873	0.494690
	Zn221	Zn	-0.002606	0.253124	0.493369
	Zn222	Zn	-0.002015	0.507470	0.745978
	Zn223	Zn	-0.002028	0.504830	0.242809
	Zn224	Zn	0.500054	0.753516	-0.007490
	Zn225	Zn	0.499141	0.257294	-0.007745
	Zn226	Zn	0.748444	0.005112	0.492830
	Zn227	Zn	0.246896	0.004866	0.492368
	N228	N	0.415945	0.966409	0.666638
	N229	N	0.582470	0.042715	0.668606
	N230	N	0.580602	0.966854	0.317241
	N231	N	0.413847	0.043483	0.316079
	N232	N	0.677258	0.418817	0.956328
	N233	N	0.677880	0.593267	0.029465
	N234	N	0.319282	0.592746	0.957559
	N235	N	0.319179	0.417803	0.029554
	N236	N	0.960446	0.683711	0.409437
	N237	N	0.033792	0.687601	0.582700
	N238	N	0.960618	0.326097	0.579859
	N239	N	0.034179	0.324286	0.406897
	N240	N	0.959935	0.422719	0.671265
	N241	N	0.034535	0.594764	0.675744
	N242	N	0.960302	0.588797	0.316982
	N243	N	0.034078	0.416899	0.313014
	N244	N	0.416435	0.679708	0.954799
	N245	N	0.584106	0.682115	0.030495
	N246	N	0.582084	0.330471	0.954610
	N247	N	0.413409	0.327852	0.030193
	N248	N	0.677284	0.968684	0.405377
	N249	N	0.678820	0.041425	0.580758
	N250	N	0.317497	0.968510	0.579774
	N251	N	0.315859	0.041038	0.403617
	N252	N	0.914716	0.467206	0.168520
	N253	N	0.082035	0.543950	0.170575
	N254	N	0.081889	0.468972	0.817830
	N255	N	0.914459	0.544959	0.819385
	N256	N	0.176863	0.917162	0.457179
	N257	N	0.178117	0.093272	0.529143
	N258	N	0.818408	0.091744	0.456708
	N259	N	0.817560	0.917748	0.529833
	N260	N	0.463464	0.184973	0.904855
	N261	N	0.536147	0.186278	0.079200
	N262	N	0.463247	0.825849	0.078255
	N263	N	0.536204	0.824486	0.905394
	N264	N	0.461981	0.921027	0.168907
	N265	N	0.535780	0.092860	0.172875
	N266	N	0.462621	0.089361	0.814597
	N267	N	0.536253	0.917821	0.812105
	N268	N	0.913088	0.180586	0.455799
	N269	N	0.081283	0.180975	0.531567
	N270	N	0.081018	0.829915	0.456594
	N271	N	0.914072	0.830819	0.532095
	N272	N	0.178489	0.469918	0.906231
	N273	N	0.180760	0.541640	0.084133
	N274	N	0.817168	0.469666	0.081181
	N275	N	0.817700	0.543093	0.906895
	O276	O	0.147135	0.049344	0.043958
	H277	H	0.141572	0.044336	0.037700
	H278	H	0.160123	0.056084	0.053588
	O279	O	1.466775	0.559884	1.458583
	H280	H	1.465937	0.561350	1.461108
	H281	H	1.460752	0.573987	1.451172
	O282	O	0.370228	0.491193	0.470766
	H283	H	0.374182	0.478323	0.470594
	H284	H	0.371726	0.488738	0.463936
	O285	O	1.042051	-0.000959	0.981894
	H286	H	1.045898	-0.007326	0.986318
	H287	H	1.038587	0.008822	0.988444
	O288	O	1.070538	0.098570	0.011819
	H289	H	1.069881	0.094680	0.010733
	H290	H	1.072003	0.098841	0.015513
	O291	O	0.584493	0.460109	0.515617
	H292	H	0.597619	0.454580	0.510649
	H293	H	0.580557	0.465696	0.518272
	O294	O	1.422284	0.547867	0.482888
	H295	H	1.432749	0.545335	0.494081
	H296	H	1.417028	0.559921	0.479405
	O297	O	-0.584424	-0.505806	-0.566544
	H298	H	-0.583717	-0.507995	-0.561324
	H299	H	-0.585875	-0.503549	-0.559769
	O300	O	0.501075	0.534283	0.581134
	H301	H	0.489296	0.526449	0.588860
	H302	H	0.510591	0.528328	0.594555
	O303	O	0.461415	0.451441	0.477001
	H304	H	0.467716	0.448519	0.479038
	H305	H	0.466629	0.458836	0.478389
	O306	O	1.097962	0.057122	-0.059585
	H307	H	1.100554	0.053625	-0.055994
	H308	H	1.097156	0.066768	-0.059481
	O309	O	-0.454049	-0.410076	1.471924
	H310	H	-0.454439	-0.410176	1.475193
	H311	H	-0.446670	-0.407132	1.476145
	O312	O	1.111874	1.060938	1.133170
	H313	H	1.119567	1.062857	1.132563
	H314	H	1.112878	1.072887	1.139416
	O315	O	0.445097	0.532503	0.470067
	H316	H	0.440007	0.545431	0.457831
	H317	H	0.453324	0.533352	0.470623
	O318	O	0.637804	0.406851	0.372860
	H319	H	0.644419	0.403681	0.364652
	H320	H	0.641291	0.415024	0.374885
	O321	O	0.066682	1.066013	1.026132
	H322	H	0.064966	1.064057	1.027394
	H323	H	0.070456	1.073102	1.021806
	O324	O	0.611073	0.558266	0.535034
	H325	H	0.615645	0.569047	0.540278
	H326	H	0.617029	0.560403	0.526717
	O327	O	0.557472	0.570703	0.514816
	H328	H	0.565900	0.584200	0.520967
	H329	H	0.543264	0.571073	0.520099
	O330	O	0.423283	0.461263	0.496342
	H331	H	0.425364	0.453827	0.488054
	H332	H	0.420575	0.461977	0.506506
	O333	O	0.531752	0.429645	0.500517
	H334	H	0.524765	0.435519	0.495207
	H335	H	0.531905	0.423533	0.498496
	O336	O	0.435911	0.561239	0.427193
	H337	H	0.432946	0.562686	0.429060
	H338	H	0.444837	0.568611	0.428756
	O339	O	1.008156	0.980010	-0.083318
	H340	H	1.018037	0.980328	-0.080421
	H341	H	1.005006	0.970900	-0.079715
	O342	O	0.503971	0.393926	0.501725
	H343	H	0.504569	0.390600	0.499198
	H344	H	0.512793	0.400130	0.510583
	O345	O	0.420451	0.484747	0.528165
	H346	H	0.415608	0.480250	0.528000
	H347	H	0.416708	0.482936	0.532122
	O348	O	0.116389	0.099064	0.059932
	H349	H	0.125694	0.091670	0.052453
	H350	H	0.120795	0.116194	0.070315
	O351	O	0.085299	0.982088	0.962961
	H352	H	0.092449	0.978388	0.956591
	H353	H	0.084809	0.980875	0.967522
	O354	O	0.476012	0.511846	0.631966
	H355	H	0.462448	0.506939	0.640114
	H356	H	0.485058	0.493564	0.616907
	O357	O	0.061987	1.057861	1.022525
	H358	H	0.066417	1.062786	1.029864
	H359	H	0.062466	1.057233	1.021601
