data_Molecule from HDF5

_cell_length_a		16.504443
_cell_length_b		15.971760
_cell_length_c		16.255177
_cell_angle_alpha	90.123388
_cell_angle_beta	89.396889
_cell_angle_gamma	89.922186
_symmetry_space_group_name_H-M	'P 1'
_symmetry_Int_Tables_number		1

loop_
	_symmetry_equiv_pos_as_xyz
	x,y,z

loop_
	_atom_site_label
	_atom_site_type_symbol
	_atom_site_fract_x
	_atom_site_fract_y
	_atom_site_fract_z
	H0	H	0.392168	0.830732	0.715162
	H1	H	0.590033	0.162264	0.714524
	H2	H	0.594834	0.831044	0.285176
	H3	H	0.398740	0.163859	0.292147
	H4	H	0.718636	0.389598	0.839759
	H5	H	0.714269	0.601812	0.162184
	H6	H	0.278951	0.601556	0.839033
	H7	H	0.274084	0.389125	0.162077
	H8	H	0.832174	0.711351	0.405972
	H9	H	0.157530	0.713115	0.596501
	H10	H	0.832630	0.283838	0.601076
	H11	H	0.156498	0.281470	0.401230
	H12	H	0.836188	0.395237	0.724242
	H13	H	0.157436	0.599458	0.716851
	H14	H	0.835845	0.601201	0.283303
	H15	H	0.155133	0.391932	0.281105
	H16	H	0.402590	0.709458	0.835956
	H17	H	0.593462	0.711954	0.164118
	H18	H	0.592912	0.283233	0.836671
	H19	H	0.400809	0.286882	0.167354
	H20	H	0.712716	0.831582	0.393793
	H21	H	0.710702	0.160566	0.604609
	H22	H	0.276995	0.831660	0.602087
	H23	H	0.280694	0.161054	0.398797
	H24	H	0.898526	0.330617	0.215814
	H25	H	0.093870	0.662545	0.214395
	H26	H	0.097574	0.331022	0.786311
	H27	H	0.901675	0.663652	0.793314
	H28	H	0.214115	0.892718	0.337979
	H29	H	0.213188	0.103073	0.662215
	H30	H	0.777270	0.100405	0.337732
	H31	H	0.771809	0.891235	0.661302
	H32	H	0.333263	0.211639	0.907500
	H33	H	0.659408	0.207630	0.094887
	H34	H	0.334854	0.779831	0.099748
	H35	H	0.659195	0.783189	0.899995
	H36	H	0.333836	0.895658	0.218892
	H37	H	0.656428	0.097951	0.218000
	H38	H	0.332797	0.098555	0.786717
	H39	H	0.653493	0.891531	0.776789
	H40	H	0.900677	0.210053	0.335311
	H41	H	0.086084	0.208026	0.666463
	H42	H	0.091031	0.783817	0.335798
	H43	H	0.898098	0.787282	0.666344
	H44	H	0.214367	0.331728	0.897408
	H45	H	0.213572	0.660750	0.104094
	H46	H	0.781433	0.331008	0.103826
	H47	H	0.780410	0.659957	0.898995
	H48	H	0.392612	0.119256	0.599254
	H49	H	0.585918	0.877784	0.589376
	H50	H	0.588500	0.113055	0.416311
	H51	H	0.402170	0.878757	0.415301
	H52	H	0.595670	0.415151	0.116633
	H53	H	0.587387	0.594149	0.881896
	H54	H	0.394901	0.581121	0.117458
	H55	H	0.409428	0.405604	0.887032
	H56	H	0.111059	0.587644	0.399106
	H57	H	0.879524	0.591147	0.603329
	H58	H	0.108468	0.397998	0.583187
	H59	H	0.881758	0.408415	0.412233
	H60	H	0.107614	0.416723	0.596666
	H61	H	0.880830	0.593256	0.596728
	H62	H	0.111423	0.596140	0.408550
	H63	H	0.880428	0.407492	0.406536
	H64	H	0.411658	0.579542	0.112399
	H65	H	0.601926	0.586408	0.881002
	H66	H	0.581092	0.401867	0.116172
	H67	H	0.403191	0.400845	0.882942
	H68	H	0.591359	0.116953	0.407259
	H69	H	0.580202	0.879944	0.588405
	H70	H	0.411296	0.114578	0.598113
	H71	H	0.398080	0.874343	0.406954
	H72	H	0.914490	0.612440	0.094410
	H73	H	0.085812	0.376639	0.097440
	H74	H	0.098334	0.618720	0.908815
	H75	H	0.904015	0.376743	0.913579
	H76	H	0.087792	0.906954	0.617138
	H77	H	0.088131	0.080358	0.386732
	H78	H	0.894841	0.084674	0.617150
	H79	H	0.900483	0.902027	0.381981
	H80	H	0.610993	0.091206	0.903530
	H81	H	0.378192	0.098647	0.099435
	H82	H	0.607769	0.907830	0.088539
	H83	H	0.382203	0.903577	0.912892
	H84	H	0.610278	0.909761	0.098050
	H85	H	0.382387	0.087715	0.093061
	H86	H	0.607885	0.086982	0.909287
	H87	H	0.381306	0.906715	0.908261
	H88	H	0.901574	0.086354	0.614626
	H89	H	0.085596	0.093233	0.384091
	H90	H	0.089237	0.908168	0.617488
	H91	H	0.898159	0.908720	0.383459
	H92	H	0.086816	0.616171	0.905166
	H93	H	0.081888	0.380859	0.086194
	H94	H	0.901158	0.613443	0.082862
	H95	H	0.909750	0.377579	0.910028
	H96	H	0.399341	0.112147	0.583154
	H97	H	0.583967	0.880085	0.584077
	H98	H	0.581668	0.114674	0.408388
	H99	H	0.408022	0.877801	0.406736
	H100	H	0.599013	0.396872	0.123124
	H101	H	0.589348	0.577937	0.888252
	H102	H	0.405611	0.595548	0.118616
	H103	H	0.401493	0.409102	0.884883
	H104	H	0.107188	0.584679	0.411269
	H105	H	0.882089	0.586501	0.598307
	H106	H	0.115603	0.396401	0.604959
	H107	H	0.879969	0.403506	0.410256
	H108	H	0.898683	0.619222	0.098523
	H109	H	0.093700	0.376827	0.087189
	H110	H	0.089731	0.613754	0.917464
	H111	H	0.908725	0.379135	0.916568
	H112	H	0.087645	0.908726	0.616507
	H113	H	0.096924	0.088116	0.381261
	H114	H	0.897971	0.091579	0.617564
	H115	H	0.905551	0.907233	0.385599
	H116	H	0.609219	0.083489	0.901753
	H117	H	0.378955	0.087269	0.104950
	H118	H	0.611965	0.900585	0.094714
	H119	H	0.379843	0.900758	0.907792
	C120	C	0.371606	0.005804	0.622340
	C121	C	0.612924	0.987888	0.619379
	C122	C	0.616612	0.005566	0.379016
	C123	C	0.374835	0.987178	0.381012
	C124	C	0.620262	0.374171	0.010252
	C125	C	0.620250	0.617417	0.991614
	C126	C	0.375765	0.616903	0.008997
	C127	C	0.374916	0.374929	0.992610
	C128	C	0.003381	0.619539	0.378765
	C129	C	0.987595	0.619835	0.625380
	C130	C	0.004120	0.374481	0.625423
	C131	C	0.986822	0.375732	0.379442
	C132	C	0.875425	0.505577	0.122711
	C133	C	0.116497	0.487435	0.120709
	C134	C	0.119931	0.506182	0.880196
	C135	C	0.878161	0.487250	0.883161
	C136	C	0.117178	0.876597	0.509018
	C137	C	0.117153	0.118006	0.492252
	C138	C	0.871245	0.118462	0.508711
	C139	C	0.871860	0.876031	0.491568
	C140	C	0.502829	0.117848	0.878511
	C141	C	0.487550	0.119125	0.124948
	C142	C	0.503901	0.874881	0.123976
	C143	C	0.487254	0.873911	0.878343
	C144	C	0.372442	0.880586	0.677731
	C145	C	0.610732	0.112669	0.676479
	C146	C	0.615054	0.880881	0.322323
	C147	C	0.378241	0.113413	0.327743
	C148	C	0.678193	0.372405	0.887951
	C149	C	0.675675	0.619424	0.113733
	C150	C	0.318832	0.618888	0.887206
	C151	C	0.315371	0.372517	0.114353
	C152	C	0.881404	0.674722	0.383662
	C153	C	0.109081	0.675596	0.619234
	C154	C	0.881698	0.320341	0.622921
	C155	C	0.108196	0.319145	0.380793
	C156	C	0.883454	0.375744	0.684228
	C157	C	0.109093	0.618606	0.678881
	C158	C	0.883218	0.619787	0.322484
	C159	C	0.107369	0.374238	0.320938
	C160	C	0.380347	0.672808	0.885649
	C161	C	0.615205	0.674104	0.114825
	C162	C	0.615722	0.319346	0.886250
	C163	C	0.378399	0.321341	0.117042
	C164	C	0.673601	0.881138	0.376874
	C165	C	0.670771	0.111713	0.621722
	C166	C	0.314955	0.881259	0.621530
	C167	C	0.319551	0.112257	0.380928
	C168	C	0.877599	0.380556	0.178850
	C169	C	0.114488	0.612616	0.176632
	C170	C	0.118009	0.381125	0.823667
	C171	C	0.880448	0.612968	0.828951
	C172	C	0.174284	0.875006	0.386395
	C173	C	0.173229	0.119968	0.614205
	C174	C	0.816404	0.118914	0.385838
	C175	C	0.812922	0.874451	0.613771
	C176	C	0.381523	0.174132	0.884478
	C177	C	0.610255	0.171661	0.117961
	C178	C	0.383095	0.817663	0.121322
	C179	C	0.609830	0.819657	0.879190
	C180	C	0.382520	0.875613	0.180328
	C181	C	0.608719	0.117279	0.179193
	C182	C	0.381278	0.117500	0.824795
	C183	C	0.606845	0.873501	0.817874
	C184	C	0.877478	0.173728	0.384924
	C185	C	0.110475	0.172841	0.616222
	C186	C	0.112779	0.821060	0.385247
	C187	C	0.875357	0.822265	0.616184
	C188	C	0.176126	0.381250	0.878943
	C189	C	0.174061	0.611711	0.121874
	C190	C	0.819617	0.380635	0.122760
	C191	C	0.820609	0.611384	0.881838
	C192	C	0.394276	0.092812	0.600052
	C193	C	0.589974	0.901530	0.594653
	C194	C	0.593859	0.092461	0.403541
	C195	C	0.396501	0.899718	0.403159
	C196	C	0.598233	0.397712	0.096245
	C197	C	0.599045	0.593290	0.905914
	C198	C	0.397709	0.592522	0.094155
	C199	C	0.397945	0.398340	0.907136
	C200	C	0.087954	0.596518	0.400186
	C201	C	0.902948	0.596964	0.605507
	C202	C	0.088550	0.396991	0.601780
	C203	C	0.902587	0.399514	0.402962
	C204	C	0.897823	0.592303	0.098844
	C205	C	0.093880	0.400617	0.097079
	C206	C	0.098111	0.593490	0.903760
	C207	C	0.900937	0.400423	0.906481
	C208	C	0.094555	0.900825	0.594971
	C209	C	0.096311	0.094050	0.406218
	C210	C	0.891896	0.094664	0.594264
	C211	C	0.894725	0.899112	0.405892
	C212	C	0.587488	0.094196	0.898858
	C213	C	0.402155	0.097563	0.105169
	C214	C	0.588257	0.898872	0.100704
	C215	C	0.403004	0.896831	0.902474
	Zn216	Zn	0.492963	-0.004758	0.748407
	Zn217	Zn	0.494667	-0.002775	0.254471
	Zn218	Zn	0.748817	0.496074	0.001133
	Zn219	Zn	0.245952	0.495923	0.001134
	Zn220	Zn	-0.005967	0.748994	0.501299
	Zn221	Zn	-0.005204	0.246397	0.500911
	Zn222	Zn	-0.003035	0.497140	0.755414
	Zn223	Zn	-0.003769	0.496702	0.249496
	Zn224	Zn	0.498022	0.745408	0.000260
	Zn225	Zn	0.496272	0.247367	0.001952
	Zn226	Zn	0.742615	-0.003810	0.499514
	Zn227	Zn	0.247296	-0.002744	0.499573
	N228	N	0.407112	0.958800	0.678406
	N229	N	0.575382	0.034652	0.674982
	N230	N	0.580416	0.959244	0.323472
	N231	N	0.412189	0.034635	0.327730
	N232	N	0.681062	0.405578	0.966208
	N233	N	0.678686	0.584820	0.036118
	N234	N	0.315734	0.584993	0.964973
	N235	N	0.312780	0.405086	0.035891
	N236	N	0.957135	0.674534	0.418170
	N237	N	0.032647	0.676442	0.586521
	N238	N	0.957608	0.319439	0.587167
	N239	N	0.032414	0.319991	0.416592
	N240	N	0.960663	0.408154	0.686289
	N241	N	0.032532	0.584830	0.682980
	N242	N	0.960082	0.586223	0.319307
	N243	N	0.030898	0.408856	0.319946
	N244	N	0.415137	0.671563	0.962328
	N245	N	0.581382	0.673061	0.037829
	N246	N	0.580503	0.320102	0.963374
	N247	N	0.414592	0.322451	0.040426
	N248	N	0.674640	0.959883	0.411501
	N249	N	0.672248	0.033160	0.587013
	N250	N	0.314357	0.960196	0.587767
	N251	N	0.317077	0.032902	0.413132
	N252	N	0.911451	0.459173	0.178896
	N253	N	0.079532	0.534375	0.176214
	N254	N	0.084089	0.459852	0.823885
	N255	N	0.915675	0.534810	0.829930
	N256	N	0.177255	0.908724	0.464428
	N257	N	0.177472	0.086817	0.535900
	N258	N	0.812351	0.085364	0.463712
	N259	N	0.810447	0.906570	0.535285
	N260	N	0.458073	0.174436	0.917112
	N261	N	0.533756	0.173200	0.085263
	N262	N	0.459591	0.817345	0.086729
	N263	N	0.534592	0.819750	0.916209
	N264	N	0.458849	0.909960	0.182333
	N265	N	0.531345	0.085345	0.183639
	N266	N	0.457775	0.083251	0.820768
	N267	N	0.529643	0.906408	0.817165
	N268	N	0.910884	0.173571	0.462294
	N269	N	0.076151	0.171552	0.539459
	N270	N	0.078058	0.821803	0.462681
	N271	N	0.911351	0.823209	0.539207
	N272	N	0.177478	0.460100	0.913347
	N273	N	0.175263	0.532832	0.087699
	N274	N	0.817704	0.459634	0.089039
	N275	N	0.819019	0.532185	0.914723
	O276	O	0.442283	-0.464192	1.427965
	H277	H	0.434732	-0.461973	1.414358
	H278	H	0.433232	-0.453524	1.437497
	O279	O	0.332212	0.451058	0.527222
	H280	H	0.336757	0.449682	0.524465
	H281	H	0.337539	0.441493	0.540973
	O282	O	0.618192	0.459749	0.575465
	H283	H	0.615786	0.465449	0.578595
	H284	H	0.629103	0.436858	0.584571
	O285	O	0.359262	0.482254	0.437312
	H286	H	0.348739	0.478422	0.457923
	H287	H	0.349341	0.494684	0.429364
	O288	O	0.593174	0.592530	0.592173
	H289	H	0.604408	0.594281	0.589956
	H290	H	0.591739	0.594301	0.590495
	O291	O	-0.020996	0.049349	1.022699
	H292	H	-0.030264	0.053383	1.014092
	H293	H	-0.024093	0.046043	1.026449
	O294	O	1.024511	1.124950	0.080640
	H295	H	1.042769	1.128389	0.089983
	H296	H	1.031999	1.126759	0.075774
	O297	O	0.994742	0.844696	0.012980
	H298	H	0.990833	0.844381	0.003178
	H299	H	1.001353	0.838742	0.000030
	O300	O	0.470709	0.448743	0.568362
	H301	H	0.472324	0.445940	0.561037
	H302	H	0.470862	0.467088	0.574417
	O303	O	0.570304	0.508501	0.397276
	H304	H	0.580899	0.519313	0.390631
	H305	H	0.550989	0.512270	0.397839
	O306	O	0.482096	0.588026	0.554797
	H307	H	0.491809	0.589513	0.549668
	H308	H	0.489712	0.597117	0.556416
	O309	O	0.517452	0.377256	0.540534
	H310	H	0.510391	0.384414	0.535081
	H311	H	0.538082	0.373269	0.543460
	O312	O	0.966039	1.033917	0.887660
	H313	H	0.958716	1.025302	0.890521
	H314	H	0.972863	1.038006	0.880187
	O315	O	1.052862	0.952555	0.066944
	H316	H	1.043750	0.957430	0.069726
	H317	H	1.052036	0.933432	0.071779
	O318	O	0.487737	0.463578	0.446563
	H319	H	0.496122	0.463794	0.445420
	H320	H	0.501937	0.462782	0.442871
	O321	O	0.382930	0.454555	0.635473
	H322	H	0.376582	0.444272	0.657914
	H323	H	0.403864	0.452728	0.632228
	O324	O	-0.050693	1.029963	0.900555
	H325	H	-0.055991	1.017831	0.895726
	H326	H	-0.044097	1.033154	0.895810
	O327	O	-0.083894	0.924199	1.035060
	H328	H	-0.089350	0.944982	1.027684
	H329	H	-0.091202	0.910017	1.043895
	O330	O	0.037672	-0.059077	0.031997
	H331	H	0.038089	-0.062669	0.026121
	H332	H	0.038855	-0.052516	0.029054
	O333	O	0.489941	0.440981	0.398541
	H334	H	0.486333	0.438506	0.404476
	H335	H	0.481655	0.433831	0.387113
	O336	O	-0.093771	-0.088194	0.089614
	H337	H	-0.075339	-0.086474	0.085313
	H338	H	-0.087476	-0.086932	0.080799
	O339	O	0.033101	0.010633	-0.010347
	H340	H	0.042627	0.015172	0.004673
	H341	H	0.028182	0.012343	-0.022718
	O342	O	0.612202	0.424996	0.429702
	H343	H	0.623343	0.418060	0.436987
	H344	H	0.620510	0.423891	0.423323
	O345	O	-0.033016	0.935408	1.012043
	H346	H	-0.036498	0.931733	1.021499
	H347	H	-0.035548	0.924915	0.995135
	O348	O	0.519823	0.530731	0.528643
	H349	H	0.511364	0.521350	0.534325
	H350	H	0.527168	0.516673	0.518680
	O351	O	0.496794	0.481305	0.474031
	H352	H	0.496821	0.465253	0.463008
	H353	H	0.496899	0.485085	0.472797
	O354	O	0.474970	1.436274	-0.496119
	H355	H	0.483561	1.435080	-0.507600
	H356	H	0.468897	1.438153	-0.490516
	O357	O	0.893333	0.921506	1.038315
	H358	H	0.884147	0.925367	1.037653
	H359	H	0.894068	0.912411	1.042017
	O360	O	1.034453	-0.001293	0.917056
	H361	H	1.050615	-0.000053	0.919741
	H362	H	1.031753	-0.000188	0.913721
	O363	O	0.636593	0.575484	0.625877
	H364	H	0.634185	0.569029	0.626752
	H365	H	0.625430	0.571282	0.627245
	O366	O	0.401241	0.499978	0.508922
	H367	H	0.400213	0.506587	0.501731
	H368	H	0.401722	0.507583	0.516569
	O369	O	1.057232	0.059587	-0.068096
	H370	H	1.065097	0.064724	-0.071295
	H371	H	1.054792	0.053694	-0.062904
	O372	O	0.539078	0.630449	0.359186
	H373	H	0.537075	0.610506	0.345797
	H374	H	0.525755	0.647205	0.349434
	O375	O	0.911875	0.060088	0.934378
	H376	H	0.900847	0.058513	0.940936
	H377	H	0.912848	0.062176	0.923507
	O378	O	-0.417597	1.458448	-0.424758
	H379	H	-0.423455	1.460173	-0.437881
	H380	H	-0.412154	1.452195	-0.431293
	O381	O	0.362577	0.572670	0.395128
	H382	H	0.350037	0.561243	0.403872
	H383	H	0.358214	0.578047	0.387768
	O384	O	1.007100	1.126126	-0.006334
	H385	H	1.004817	1.114136	0.001113
	H386	H	1.013982	1.129470	-0.015858
	O387	O	1.019923	-0.098646	0.934696
	H388	H	1.012557	-0.103836	0.941803
	H389	H	1.021537	-0.093460	0.934011
	O390	O	1.127826	1.120464	0.074860
	H391	H	1.124291	1.123365	0.075004
	H392	H	1.121184	1.127342	0.074234
	O393	O	0.557367	0.541417	0.423528
	H394	H	0.556983	0.543240	0.427674
	H395	H	0.556546	0.539720	0.425631
