data_Molecule from HDF5

_cell_length_a		16.200792
_cell_length_b		16.310329
_cell_length_c		16.341325
_cell_angle_alpha	89.964780
_cell_angle_beta	90.035868
_cell_angle_gamma	90.165986
_symmetry_space_group_name_H-M	'P 1'
_symmetry_Int_Tables_number		1

loop_
	_symmetry_equiv_pos_as_xyz
	x,y,z

loop_
	_atom_site_label
	_atom_site_type_symbol
	_atom_site_fract_x
	_atom_site_fract_y
	_atom_site_fract_z
	H0	H	0.400235	0.836875	0.714844
	H1	H	0.599719	0.162830	0.715014
	H2	H	0.598692	0.836915	0.285174
	H3	H	0.400164	0.163287	0.283419
	H4	H	0.713009	0.403351	0.835688
	H5	H	0.714891	0.597869	0.163552
	H6	H	0.285869	0.597127	0.836261
	H7	H	0.286455	0.402575	0.163937
	H8	H	0.835534	0.713185	0.402359
	H9	H	0.163938	0.714469	0.598543
	H10	H	0.836380	0.284110	0.598618
	H11	H	0.164713	0.286405	0.402441
	H12	H	0.835309	0.401115	0.713329
	H13	H	0.164003	0.598903	0.714623
	H14	H	0.835890	0.597771	0.286392
	H15	H	0.163937	0.401253	0.285819
	H16	H	0.402233	0.713948	0.836987
	H17	H	0.598852	0.714727	0.162766
	H18	H	0.598933	0.284898	0.837065
	H19	H	0.400714	0.283821	0.163089
	H20	H	0.712577	0.836573	0.403176
	H21	H	0.713183	0.164166	0.595345
	H22	H	0.285952	0.836467	0.597068
	H23	H	0.285689	0.164330	0.401988
	H24	H	0.901353	0.336517	0.215189
	H25	H	0.099262	0.662906	0.215034
	H26	H	0.099769	0.336887	0.784531
	H27	H	0.901530	0.663463	0.785551
	H28	H	0.214783	0.903092	0.336445
	H29	H	0.213744	0.097954	0.663406
	H30	H	0.786722	0.097638	0.335648
	H31	H	0.786334	0.902942	0.663394
	H32	H	0.335580	0.213378	0.902435
	H33	H	0.664600	0.214205	0.097497
	H34	H	0.335005	0.786502	0.097310
	H35	H	0.664760	0.787396	0.903213
	H36	H	0.335355	0.901505	0.214317
	H37	H	0.664693	0.098910	0.213489
	H38	H	0.335573	0.098247	0.785294
	H39	H	0.664691	0.902115	0.786665
	H40	H	0.901014	0.216333	0.337043
	H41	H	0.100046	0.215958	0.662241
	H42	H	0.098467	0.784808	0.336965
	H43	H	0.900014	0.784279	0.662641
	H44	H	0.211871	0.335799	0.904484
	H45	H	0.214031	0.663527	0.097397
	H46	H	0.786285	0.335777	0.097127
	H47	H	0.786641	0.663421	0.903249
	H48	H	0.412989	0.112358	0.585092
	H49	H	0.585570	0.885409	0.592772
	H50	H	0.592527	0.115039	0.410644
	H51	H	0.403008	0.881290	0.399923
	H52	H	0.599896	0.414591	0.115645
	H53	H	0.594741	0.599612	0.881872
	H54	H	0.409504	0.589038	0.114337
	H55	H	0.404130	0.404488	0.882956
	H56	H	0.118200	0.588365	0.400785
	H57	H	0.883286	0.591544	0.591272
	H58	H	0.114336	0.411431	0.586926
	H59	H	0.881520	0.401243	0.407967
	H60	H	0.117671	0.412337	0.599756
	H61	H	0.882432	0.591574	0.594982
	H62	H	0.119642	0.600701	0.407782
	H63	H	0.885094	0.409580	0.412561
	H64	H	0.409821	0.598680	0.117117
	H65	H	0.597872	0.589590	0.883930
	H66	H	0.582762	0.408144	0.111951
	H67	H	0.406330	0.409978	0.884900
	H68	H	0.598126	0.118507	0.404325
	H69	H	0.597523	0.883577	0.588763
	H70	H	0.397235	0.119296	0.593309
	H71	H	0.416204	0.887022	0.406431
	H72	H	0.920228	0.612327	0.092507
	H73	H	0.091908	0.383210	0.095318
	H74	H	0.080568	0.611817	0.909534
	H75	H	0.909155	0.386752	0.911529
	H76	H	0.095547	0.913815	0.614608
	H77	H	0.094223	0.093264	0.383664
	H78	H	0.903002	0.091552	0.616575
	H79	H	0.907897	0.909062	0.384562
	H80	H	0.613491	0.082426	0.907699
	H81	H	0.384166	0.092952	0.090204
	H82	H	0.617516	0.903091	0.091924
	H83	H	0.382290	0.909618	0.901320
	H84	H	0.615124	0.910622	0.090152
	H85	H	0.382854	0.089259	0.093443
	H86	H	0.621497	0.097169	0.897659
	H87	H	0.381504	0.900099	0.907681
	H88	H	0.909884	0.089983	0.613953
	H89	H	0.092025	0.092729	0.384163
	H90	H	0.085068	0.906098	0.614024
	H91	H	0.908622	0.903529	0.383584
	H92	H	0.102537	0.616504	0.915386
	H93	H	0.091372	0.384105	0.093128
	H94	H	0.899192	0.615756	0.083447
	H95	H	0.900350	0.381466	0.906286
	H96	H	0.413403	0.117961	0.603088
	H97	H	0.594470	0.880952	0.600693
	H98	H	0.589156	0.116996	0.402285
	H99	H	0.402736	0.885417	0.414557
	H100	H	0.595737	0.396874	0.119368
	H101	H	0.587596	0.592093	0.885685
	H102	H	0.401407	0.593545	0.118280
	H103	H	0.410569	0.405327	0.885434
	H104	H	0.114039	0.589619	0.414395
	H105	H	0.881663	0.595103	0.593273
	H106	H	0.119101	0.400507	0.593516
	H107	H	0.882642	0.409976	0.402620
	H108	H	0.903165	0.620484	0.105429
	H109	H	0.093447	0.382805	0.093581
	H110	H	0.095327	0.620205	0.894480
	H111	H	0.910181	0.383024	0.900837
	H112	H	0.096233	0.900909	0.617915
	H113	H	0.092881	0.094533	0.383357
	H114	H	0.908310	0.096295	0.615952
	H115	H	0.903476	0.905689	0.382553
	H116	H	0.616122	0.099426	0.915908
	H117	H	0.381696	0.094356	0.094289
	H118	H	0.618091	0.908733	0.097855
	H119	H	0.385377	0.910198	0.912489
	C120	C	0.378662	0.008602	0.622147
	C121	C	0.621471	0.991658	0.621788
	C122	C	0.621472	0.008783	0.377952
	C123	C	0.378432	0.992274	0.378281
	C124	C	0.621856	0.378064	0.008042
	C125	C	0.622202	0.621962	0.991722
	C126	C	0.378667	0.621477	0.008282
	C127	C	0.378347	0.378007	0.991944
	C128	C	0.008796	0.621225	0.378839
	C129	C	0.991111	0.621682	0.621748
	C130	C	0.008331	0.378773	0.621594
	C131	C	0.991720	0.378471	0.379163
	C132	C	0.878539	0.507998	0.121764
	C133	C	0.121393	0.491475	0.122111
	C134	C	0.121644	0.508277	0.878224
	C135	C	0.878596	0.491654	0.878134
	C136	C	0.121134	0.878498	0.507843
	C137	C	0.121853	0.121918	0.491496
	C138	C	0.878605	0.121328	0.507541
	C139	C	0.878087	0.877981	0.491555
	C140	C	0.508359	0.121195	0.878807
	C141	C	0.491804	0.120952	0.120917
	C142	C	0.508239	0.878718	0.121553
	C143	C	0.491634	0.878543	0.878653
	C144	C	0.380376	0.885531	0.676818
	C145	C	0.619813	0.114476	0.676786
	C146	C	0.619288	0.885802	0.322741
	C147	C	0.379957	0.114930	0.322118
	C148	C	0.675745	0.381879	0.884864
	C149	C	0.677039	0.618475	0.114841
	C150	C	0.324108	0.617961	0.885088
	C151	C	0.323251	0.380967	0.114922
	C152	C	0.884704	0.675605	0.381665
	C153	C	0.114897	0.676870	0.619319
	C154	C	0.885009	0.322583	0.618862
	C155	C	0.115558	0.323777	0.381889
	C156	C	0.884590	0.380363	0.676093
	C157	C	0.114781	0.619595	0.676995
	C158	C	0.885012	0.618534	0.323751
	C159	C	0.115295	0.380882	0.324048
	C160	C	0.381629	0.676078	0.885313
	C161	C	0.619355	0.676674	0.114418
	C162	C	0.619079	0.323063	0.885293
	C163	C	0.380354	0.322223	0.114719
	C164	C	0.675445	0.885331	0.381788
	C165	C	0.676026	0.114972	0.617467
	C166	C	0.323400	0.885580	0.618660
	C167	C	0.323434	0.115548	0.381126
	C168	C	0.880853	0.384980	0.176714
	C169	C	0.119570	0.614439	0.177001
	C170	C	0.119960	0.385559	0.822908
	C171	C	0.881068	0.614795	0.823417
	C172	C	0.176250	0.882137	0.385004
	C173	C	0.176675	0.119118	0.614375
	C174	C	0.824157	0.118468	0.384429
	C175	C	0.823186	0.881155	0.614391
	C176	C	0.384542	0.175870	0.881331
	C177	C	0.615643	0.176239	0.118316
	C178	C	0.384200	0.823697	0.118573
	C179	C	0.615625	0.824358	0.882120
	C180	C	0.384361	0.881069	0.176509
	C181	C	0.615487	0.119165	0.175978
	C182	C	0.384732	0.118825	0.823273
	C183	C	0.615624	0.881407	0.824333
	C184	C	0.881103	0.177220	0.385165
	C185	C	0.119855	0.177404	0.614001
	C186	C	0.119014	0.823229	0.385232
	C187	C	0.880062	0.822621	0.614133
	C188	C	0.175903	0.384975	0.882123
	C189	C	0.176430	0.614664	0.118631
	C190	C	0.823842	0.384688	0.118071
	C191	C	0.824195	0.614925	0.881948
	C192	C	0.401321	0.094449	0.600361
	C193	C	0.599100	0.905460	0.600566
	C194	C	0.599721	0.094683	0.399346
	C195	C	0.400787	0.906759	0.400470
	C196	C	0.599502	0.400028	0.093720
	C197	C	0.600059	0.600206	0.905914
	C198	C	0.400539	0.599934	0.094183
	C199	C	0.400593	0.400078	0.906510
	C200	C	0.095070	0.599311	0.401068
	C201	C	0.904776	0.599186	0.599741
	C202	C	0.094705	0.401362	0.599912
	C203	C	0.905381	0.400570	0.401107
	C204	C	0.901040	0.593929	0.100059
	C205	C	0.098838	0.405455	0.100291
	C206	C	0.099393	0.593975	0.900063
	C207	C	0.900396	0.405868	0.899740
	C208	C	0.098826	0.900422	0.593431
	C209	C	0.099694	0.100002	0.405694
	C210	C	0.900701	0.099088	0.593404
	C211	C	0.900207	0.899810	0.405768
	C212	C	0.594827	0.099465	0.900633
	C213	C	0.405200	0.098887	0.098968
	C214	C	0.594531	0.900830	0.099785
	C215	C	0.405098	0.900186	0.900675
	Zn216	Zn	0.500109	-0.000330	0.750531
	Zn217	Zn	0.499864	0.000413	0.249411
	Zn218	Zn	0.750272	0.499820	-0.000180
	Zn219	Zn	0.249618	0.499993	0.000107
	Zn220	Zn	-0.000462	0.749094	0.500312
	Zn221	Zn	0.000637	0.250532	0.500174
	Zn222	Zn	-0.000196	0.500039	0.749744
	Zn223	Zn	0.000288	0.499865	0.250826
	Zn224	Zn	0.499768	0.750840	-0.000120
	Zn225	Zn	0.500121	0.249438	-0.000053
	Zn226	Zn	0.749465	0.000060	0.499414
	Zn227	Zn	0.250236	0.000592	0.500256
	N228	N	0.414015	0.963081	0.679018
	N229	N	0.586465	0.036792	0.679359
	N230	N	0.586149	0.963435	0.320394
	N231	N	0.413320	0.037376	0.320124
	N232	N	0.677276	0.415476	0.962079
	N233	N	0.678706	0.585029	0.037498
	N234	N	0.322145	0.584760	0.962516
	N235	N	0.321982	0.415094	0.037770
	N236	N	0.962603	0.677372	0.415276
	N237	N	0.037045	0.678307	0.585615
	N238	N	0.962945	0.321735	0.585452
	N239	N	0.037680	0.322338	0.415538
	N240	N	0.962327	0.414918	0.677614
	N241	N	0.036907	0.585808	0.678386
	N242	N	0.963079	0.585260	0.322202
	N243	N	0.037339	0.414107	0.322216
	N244	N	0.414818	0.678358	0.962855
	N245	N	0.586000	0.678970	0.037012
	N246	N	0.586196	0.320743	0.962963
	N247	N	0.413927	0.320387	0.037407
	N248	N	0.676754	0.962716	0.415333
	N249	N	0.677133	0.037487	0.584027
	N250	N	0.322336	0.963075	0.585131
	N251	N	0.322345	0.038270	0.415364
	N252	N	0.914095	0.462740	0.179237
	N253	N	0.086011	0.536814	0.179184
	N254	N	0.086787	0.463191	0.820499
	N255	N	0.914064	0.537110	0.820924
	N256	N	0.177715	0.915671	0.462250
	N257	N	0.177984	0.085416	0.537168
	N258	N	0.822589	0.084450	0.461606
	N259	N	0.821968	0.914955	0.537151
	N260	N	0.462537	0.177614	0.914930
	N261	N	0.537821	0.177266	0.084622
	N262	N	0.462125	0.822419	0.084975
	N263	N	0.537545	0.822817	0.915433
	N264	N	0.462420	0.914531	0.178486
	N265	N	0.537510	0.085198	0.177489
	N266	N	0.462685	0.085457	0.821720
	N267	N	0.537413	0.914272	0.821975
	N268	N	0.914160	0.179176	0.462777
	N269	N	0.086378	0.178986	0.536577
	N270	N	0.085345	0.821117	0.462603
	N271	N	0.913502	0.820477	0.536784
	N272	N	0.177124	0.462338	0.915847
	N273	N	0.177561	0.537183	0.085170
	N274	N	0.822517	0.462105	0.084538
	N275	N	0.822720	0.537528	0.915413
