data_Molecule from HDF5

_cell_length_a		16.375505
_cell_length_b		16.178538
_cell_length_c		16.155235
_cell_angle_alpha	89.938553
_cell_angle_beta	89.719175
_cell_angle_gamma	90.068172
_symmetry_space_group_name_H-M	'P 1'
_symmetry_Int_Tables_number		1

loop_
	_symmetry_equiv_pos_as_xyz
	x,y,z

loop_
	_atom_site_label
	_atom_site_type_symbol
	_atom_site_fract_x
	_atom_site_fract_y
	_atom_site_fract_z
	H0	H	0.397412	0.837640	0.715493
	H1	H	0.591534	0.168452	0.712423
	H2	H	0.591822	0.837299	0.289990
	H3	H	0.399430	0.167615	0.289480
	H4	H	0.711441	0.402230	0.837714
	H5	H	0.709217	0.604788	0.165172
	H6	H	0.282093	0.602549	0.836025
	H7	H	0.277373	0.402556	0.164451
	H8	H	0.832891	0.718036	0.402192
	H9	H	0.158267	0.718264	0.598970
	H10	H	0.832330	0.287298	0.599898
	H11	H	0.158322	0.287547	0.399904
	H12	H	0.831718	0.404548	0.715528
	H13	H	0.158735	0.600705	0.714542
	H14	H	0.831817	0.601268	0.288342
	H15	H	0.157415	0.403818	0.283963
	H16	H	0.399060	0.716793	0.836377
	H17	H	0.589974	0.714133	0.167401
	H18	H	0.592377	0.290970	0.836374
	H19	H	0.394534	0.288653	0.166505
	H20	H	0.710119	0.838874	0.400315
	H21	H	0.711376	0.165777	0.602148
	H22	H	0.277764	0.838676	0.604002
	H23	H	0.279922	0.166204	0.400804
	H24	H	0.896734	0.338122	0.214320
	H25	H	0.091174	0.667557	0.213552
	H26	H	0.091850	0.337458	0.789159
	H27	H	0.898773	0.668323	0.788103
	H28	H	0.211404	0.902005	0.337650
	H29	H	0.209657	0.103212	0.664875
	H30	H	0.780834	0.102436	0.336472
	H31	H	0.777713	0.901033	0.664570
	H32	H	0.332107	0.217672	0.903836
	H33	H	0.657511	0.218392	0.100483
	H34	H	0.332168	0.788083	0.101459
	H35	H	0.658729	0.789608	0.902318
	H36	H	0.332467	0.904436	0.217755
	H37	H	0.657758	0.100880	0.215348
	H38	H	0.331987	0.101698	0.787677
	H39	H	0.657704	0.904979	0.784844
	H40	H	0.899743	0.214882	0.335869
	H41	H	0.092562	0.215532	0.665914
	H42	H	0.093001	0.790472	0.334703
	H43	H	0.896334	0.788254	0.665532
	H44	H	0.211762	0.340107	0.898457
	H45	H	0.209704	0.666945	0.100931
	H46	H	0.777679	0.340072	0.102876
	H47	H	0.780310	0.667570	0.900571
	H48	H	0.396209	0.120456	0.590929
	H49	H	0.587588	0.885985	0.588837
	H50	H	0.591526	0.122289	0.403603
	H51	H	0.398672	0.885008	0.413607
	H52	H	0.589371	0.412047	0.119979
	H53	H	0.577180	0.596028	0.887031
	H54	H	0.406246	0.590432	0.115630
	H55	H	0.397526	0.409838	0.881892
	H56	H	0.110649	0.593560	0.409938
	H57	H	0.879224	0.593782	0.599179
	H58	H	0.113065	0.406613	0.599053
	H59	H	0.879867	0.405767	0.412875
	H60	H	0.111649	0.405219	0.589528
	H61	H	0.878802	0.599256	0.593112
	H62	H	0.111674	0.593687	0.402961
	H63	H	0.881075	0.413300	0.408305
	H64	H	0.400945	0.602767	0.121837
	H65	H	0.593039	0.606171	0.879441
	H66	H	0.586185	0.414999	0.117899
	H67	H	0.404138	0.416276	0.886312
	H68	H	0.583409	0.119084	0.409077
	H69	H	0.589892	0.883953	0.595299
	H70	H	0.401302	0.121951	0.599085
	H71	H	0.400057	0.883582	0.407654
	H72	H	0.901496	0.619802	0.089719
	H73	H	0.078216	0.387834	0.094082
	H74	H	0.095545	0.624409	0.903285
	H75	H	0.904593	0.385676	0.906254
	H76	H	0.086334	0.906033	0.619501
	H77	H	0.090747	0.084835	0.385911
	H78	H	0.902867	0.095759	0.618798
	H79	H	0.905781	0.900486	0.381020
	H80	H	0.610528	0.095230	0.908474
	H81	H	0.381018	0.097221	0.087421
	H82	H	0.608389	0.920127	0.096581
	H83	H	0.378472	0.904184	0.910709
	H84	H	0.616108	0.903338	0.104702
	H85	H	0.380537	0.087915	0.099239
	H86	H	0.611572	0.096339	0.905034
	H87	H	0.381116	0.913111	0.911661
	H88	H	0.899101	0.093747	0.619635
	H89	H	0.080306	0.099452	0.383796
	H90	H	0.090193	0.912823	0.618944
	H91	H	0.891421	0.913965	0.380688
	H92	H	0.079227	0.618618	0.904908
	H93	H	0.090842	0.386892	0.082959
	H94	H	0.895689	0.623032	0.094508
	H95	H	0.902107	0.387802	0.915115
	H96	H	0.404505	0.117658	0.590648
	H97	H	0.583329	0.885920	0.594262
	H98	H	0.592822	0.120392	0.413514
	H99	H	0.404593	0.885884	0.411629
	H100	H	0.585729	0.409145	0.120098
	H101	H	0.594932	0.585967	0.883991
	H102	H	0.392814	0.591553	0.119707
	H103	H	0.406565	0.406840	0.883187
	H104	H	0.112506	0.599930	0.406830
	H105	H	0.881463	0.592426	0.591523
	H106	H	0.109111	0.413776	0.593372
	H107	H	0.877702	0.406191	0.404433
	H108	H	0.903360	0.621455	0.098208
	H109	H	0.092520	0.381987	0.098715
	H110	H	0.090928	0.618045	0.917318
	H111	H	0.896205	0.384884	0.908949
	H112	H	0.083035	0.913205	0.616470
	H113	H	0.097172	0.099388	0.379458
	H114	H	0.902191	0.091517	0.617631
	H115	H	0.908622	0.918579	0.387643
	H116	H	0.611717	0.099404	0.907714
	H117	H	0.375457	0.102183	0.100842
	H118	H	0.610329	0.903279	0.085551
	H119	H	0.377729	0.910590	0.904220
	C120	C	0.372147	0.011220	0.623207
	C121	C	0.615637	0.994172	0.621823
	C122	C	0.617088	0.011333	0.379999
	C123	C	0.373596	0.993800	0.381374
	C124	C	0.616036	0.382619	0.010336
	C125	C	0.616161	0.624470	0.992820
	C126	C	0.373335	0.624141	0.009904
	C127	C	0.373169	0.381824	0.992627
	C128	C	0.003868	0.624434	0.378831
	C129	C	0.987176	0.624274	0.622917
	C130	C	0.003594	0.380216	0.622971
	C131	C	0.986885	0.380060	0.378734
	C132	C	0.871967	0.512631	0.123363
	C133	C	0.115291	0.494389	0.120910
	C134	C	0.116963	0.511740	0.879238
	C135	C	0.873183	0.494733	0.880565
	C136	C	0.116072	0.881543	0.509361
	C137	C	0.117213	0.123529	0.492137
	C138	C	0.873285	0.123288	0.509863
	C139	C	0.872681	0.881059	0.491908
	C140	C	0.503332	0.125116	0.879555
	C141	C	0.486329	0.124690	0.124145
	C142	C	0.503761	0.880209	0.124549
	C143	C	0.486871	0.881215	0.879574
	C144	C	0.375574	0.887068	0.678442
	C145	C	0.612497	0.118636	0.675990
	C146	C	0.613100	0.886974	0.326178
	C147	C	0.377850	0.118042	0.326545
	C148	C	0.672506	0.383281	0.886857
	C149	C	0.671139	0.623612	0.116458
	C150	C	0.319245	0.622775	0.885483
	C151	C	0.316370	0.383183	0.115922
	C152	C	0.881273	0.679806	0.381916
	C153	C	0.109762	0.680099	0.619569
	C154	C	0.881014	0.325207	0.620469
	C155	C	0.109470	0.325354	0.380303
	C156	C	0.880626	0.383552	0.677826
	C157	C	0.110077	0.621546	0.676923
	C158	C	0.880796	0.622018	0.325002
	C159	C	0.109201	0.383186	0.322465
	C160	C	0.377860	0.678913	0.885381
	C161	C	0.611959	0.678291	0.117466
	C162	C	0.613255	0.328042	0.886080
	C163	C	0.374589	0.326560	0.116829
	C164	C	0.672155	0.887833	0.381026
	C165	C	0.671767	0.117515	0.620766
	C166	C	0.316345	0.887616	0.622984
	C167	C	0.318530	0.117483	0.381974
	C168	C	0.875048	0.387977	0.177926
	C169	C	0.111912	0.618504	0.175729
	C170	C	0.113577	0.387310	0.825106
	C171	C	0.877723	0.619018	0.825453
	C172	C	0.172649	0.882582	0.386127
	C173	C	0.171712	0.122653	0.615920
	C174	C	0.818806	0.122346	0.385892
	C175	C	0.816427	0.881792	0.615568
	C176	C	0.380853	0.180062	0.882833
	C177	C	0.608980	0.180422	0.121206
	C178	C	0.380823	0.825773	0.122054
	C179	C	0.609727	0.826932	0.881877
	C180	C	0.380986	0.883177	0.180140
	C181	C	0.609121	0.122194	0.178362
	C182	C	0.380765	0.122117	0.825237
	C183	C	0.609383	0.884491	0.823632
	C184	C	0.877927	0.177971	0.385410
	C185	C	0.113370	0.178328	0.616452
	C186	C	0.113809	0.827080	0.384727
	C187	C	0.875147	0.825544	0.616040
	C188	C	0.173090	0.388573	0.879665
	C189	C	0.171097	0.618012	0.120166
	C190	C	0.816211	0.388885	0.122359
	C191	C	0.818724	0.618646	0.881450
	C192	C	0.394137	0.097632	0.600362
	C193	C	0.593420	0.907660	0.599445
	C194	C	0.595540	0.098140	0.402317
	C195	C	0.394758	0.907230	0.404184
	C196	C	0.593696	0.405272	0.097037
	C197	C	0.594695	0.602442	0.906035
	C198	C	0.393914	0.601700	0.096670
	C199	C	0.395999	0.404519	0.906157
	C200	C	0.089337	0.602270	0.400088
	C201	C	0.901929	0.601887	0.601051
	C202	C	0.089118	0.402006	0.600766
	C203	C	0.901543	0.402060	0.401725
	C204	C	0.893836	0.598986	0.100861
	C205	C	0.093639	0.408024	0.098511
	C206	C	0.094967	0.598043	0.901812
	C207	C	0.894621	0.408242	0.903288
	C208	C	0.093323	0.903870	0.595862
	C209	C	0.095815	0.101240	0.405515
	C210	C	0.895002	0.100408	0.596483
	C211	C	0.895199	0.904179	0.405525
	C212	C	0.589250	0.103444	0.900905
	C213	C	0.401165	0.102378	0.102471
	C214	C	0.589433	0.902315	0.102129
	C215	C	0.401160	0.902915	0.902276
	Zn216	Zn	0.494938	0.003125	0.750206
	Zn217	Zn	0.495543	0.002300	0.252954
	Zn218	Zn	0.744087	0.503924	0.001627
	Zn219	Zn	0.244557	0.503409	0.000340
	Zn220	Zn	-0.004811	0.753212	0.500302
	Zn221	Zn	-0.004263	0.250714	0.501151
	Zn222	Zn	-0.004720	0.502460	0.752563
	Zn223	Zn	-0.005447	0.502984	0.249979
	Zn224	Zn	0.495543	0.752074	0.001826
	Zn225	Zn	0.494695	0.253863	0.002182
	Zn226	Zn	0.744494	0.002809	0.500760
	Zn227	Zn	0.244272	0.002456	0.501958
	N228	N	0.409772	0.964803	0.678697
	N229	N	0.578143	0.040940	0.676605
	N230	N	0.579528	0.964872	0.325408
	N231	N	0.411442	0.040156	0.325965
	N232	N	0.674143	0.416530	0.965140
	N233	N	0.673836	0.590873	0.037884
	N234	N	0.316282	0.589463	0.963851
	N235	N	0.315228	0.416670	0.037592
	N236	N	0.958548	0.681239	0.414759
	N237	N	0.032397	0.682028	0.586730
	N238	N	0.958363	0.323032	0.587044
	N239	N	0.032449	0.323498	0.414698
	N240	N	0.957842	0.417093	0.679522
	N241	N	0.032888	0.587772	0.679304
	N242	N	0.957893	0.588036	0.322968
	N243	N	0.031902	0.416452	0.321137
	N244	N	0.410501	0.680194	0.963683
	N245	N	0.578406	0.678872	0.039546
	N246	N	0.578675	0.327421	0.963897
	N247	N	0.409362	0.325819	0.039235
	N248	N	0.674360	0.966221	0.413889
	N249	N	0.673876	0.039162	0.587837
	N250	N	0.314143	0.965806	0.589563
	N251	N	0.315834	0.039258	0.415392
	N252	N	0.909004	0.465822	0.178773
	N253	N	0.077870	0.540802	0.176356
	N254	N	0.079498	0.465001	0.824576
	N255	N	0.910840	0.540765	0.824579
	N256	N	0.174083	0.915943	0.464574
	N257	N	0.174025	0.089343	0.537772
	N258	N	0.815932	0.088966	0.464326
	N259	N	0.814796	0.915402	0.537309
	N260	N	0.458141	0.182107	0.915773
	N261	N	0.531695	0.182249	0.088343
	N262	N	0.458180	0.823812	0.088345
	N263	N	0.532532	0.825116	0.916089
	N264	N	0.458444	0.916187	0.181859
	N265	N	0.532064	0.088223	0.180439
	N266	N	0.457987	0.088949	0.822847
	N267	N	0.531946	0.917362	0.821971
	N268	N	0.911138	0.178660	0.463407
	N269	N	0.079989	0.178863	0.538463
	N270	N	0.079061	0.826514	0.462407
	N271	N	0.909484	0.824935	0.538162
	N272	N	0.175227	0.466893	0.912707
	N273	N	0.173321	0.539791	0.086865
	N274	N	0.814200	0.467204	0.089111
	N275	N	0.816035	0.540576	0.915116
	O276	O	0.533685	0.545797	0.436767
	H277	H	0.532882	0.543943	0.436171
	H278	H	0.533815	0.550926	0.438651
	O279	O	0.552822	0.523719	0.522539
	H280	H	0.541278	0.519510	0.526651
	H281	H	0.554625	0.530368	0.531965
	O282	O	0.453390	0.460003	0.433967
	H283	H	0.456720	0.471568	0.429396
	H284	H	0.445249	0.459321	0.431613
	O285	O	0.041351	1.029284	0.947728
	H286	H	0.047386	1.016175	0.941680
	H287	H	0.044402	1.025758	0.936094
	O288	O	0.500394	0.452235	0.559803
	H289	H	0.505114	0.447684	0.557529
	H290	H	0.499264	0.449858	0.566482
	O291	O	-0.016598	0.085063	0.991565
	H292	H	-0.015439	0.089864	0.985596
	H293	H	-0.005595	0.084324	0.988503
	O294	O	0.503110	0.390205	0.531683
	H295	H	0.499891	0.382201	0.530159
	H296	H	0.501816	0.387066	0.527695
	O297	O	0.488933	0.521571	0.553766
	H298	H	0.482581	0.510202	0.548203
	H299	H	0.492380	0.519953	0.558676
	O300	O	0.473554	0.510735	0.495173
	H301	H	0.477452	0.514474	0.493586
	H302	H	0.485969	0.512846	0.501302
	O303	O	0.457873	0.538921	0.454803
	H304	H	0.457391	0.543157	0.453806
	H305	H	0.473265	0.535908	0.451695
	O306	O	1.023377	-0.038244	0.905801
	H307	H	1.013708	-0.039302	0.913201
	H308	H	1.021762	-0.049341	0.901816
	O309	O	0.448250	0.485345	0.464282
	H310	H	0.437649	0.483718	0.458950
	H311	H	0.448236	0.486854	0.455693
	O312	O	0.554189	0.480805	0.493576
	H313	H	0.559746	0.475738	0.494104
	H314	H	0.556472	0.484185	0.491007
	O315	O	1.079103	-0.002808	0.980866
	H316	H	1.082307	0.008978	0.979145
	H317	H	1.072152	-0.001447	0.988862
	O318	O	0.043368	-0.012573	-0.091479
	H319	H	0.041912	-0.004437	-0.088913
	H320	H	0.037857	-0.029926	-0.096692
	O321	O	0.602036	0.502072	0.425308
	H322	H	0.594575	0.504569	0.425499
	H323	H	0.604678	0.501965	0.426319
	O324	O	1.026655	0.006738	-0.018801
	H325	H	1.027503	0.013168	-0.010377
	H326	H	1.026525	0.017504	-0.021589
	O327	O	1.026212	0.970215	-0.022411
	H328	H	1.024419	0.965009	-0.031356
	H329	H	1.035566	0.974971	-0.014642
	O330	O	0.575509	0.516652	0.464102
	H331	H	0.580024	0.513985	0.453686
	H332	H	0.570685	0.529860	0.470488
	O333	O	0.472201	0.481856	0.533060
	H334	H	0.468912	0.488813	0.538476
	H335	H	0.476710	0.479142	0.527977
