data_Molecule from HDF5

_cell_length_a		16.180495
_cell_length_b		16.426177
_cell_length_c		15.996834
_cell_angle_alpha	90.479442
_cell_angle_beta	90.962373
_cell_angle_gamma	91.468201
_symmetry_space_group_name_H-M	'P 1'
_symmetry_Int_Tables_number		1

loop_
	_symmetry_equiv_pos_as_xyz
	x,y,z

loop_
	_atom_site_label
	_atom_site_type_symbol
	_atom_site_fract_x
	_atom_site_fract_y
	_atom_site_fract_z
	H0	H	0.403409	0.837303	0.706192
	H1	H	0.608109	0.163637	0.718412
	H2	H	0.592699	0.838054	0.284151
	H3	H	0.409133	0.165250	0.282814
	H4	H	0.704142	0.407864	0.830152
	H5	H	0.722408	0.603777	0.163640
	H6	H	0.289839	0.592368	0.830916
	H7	H	0.289747	0.401829	0.165594
	H8	H	0.837154	0.713295	0.395804
	H9	H	0.165635	0.727703	0.606772
	H10	H	0.841097	0.281924	0.598571
	H11	H	0.166114	0.290541	0.395980
	H12	H	0.835344	0.407013	0.701015
	H13	H	0.167535	0.605954	0.715283
	H14	H	0.836457	0.592699	0.284732
	H15	H	0.168947	0.412734	0.289106
	H16	H	0.401975	0.713167	0.832469
	H17	H	0.610659	0.719966	0.164454
	H18	H	0.596675	0.287903	0.833566
	H19	H	0.400082	0.283677	0.164213
	H20	H	0.711946	0.838924	0.398904
	H21	H	0.725909	0.163858	0.603669
	H22	H	0.281332	0.841314	0.592827
	H23	H	0.289424	0.165172	0.394633
	H24	H	0.902647	0.338996	0.208227
	H25	H	0.105906	0.666771	0.214164
	H26	H	0.090308	0.339248	0.784214
	H27	H	0.907477	0.666950	0.783669
	H28	H	0.202894	0.911925	0.328702
	H29	H	0.225016	0.107998	0.662921
	H30	H	0.789893	0.094892	0.332315
	H31	H	0.793053	0.905238	0.666428
	H32	H	0.338020	0.211955	0.893824
	H33	H	0.663968	0.225894	0.107550
	H34	H	0.341614	0.778888	0.098583
	H35	H	0.668435	0.789930	0.899445
	H36	H	0.335561	0.903440	0.201128
	H37	H	0.667471	0.102095	0.213592
	H38	H	0.337187	0.090106	0.783143
	H39	H	0.669756	0.908356	0.788983
	H40	H	0.902531	0.213471	0.331858
	H41	H	0.111347	0.224161	0.663555
	H42	H	0.099380	0.789630	0.333609
	H43	H	0.903934	0.788701	0.664466
	H44	H	0.209032	0.337934	0.898243
	H45	H	0.228345	0.662634	0.103910
	H46	H	0.783881	0.340066	0.092289
	H47	H	0.788247	0.665658	0.896957
	H48	H	0.414411	0.117702	0.591426
	H49	H	0.595423	0.883224	0.600230
	H50	H	0.594545	0.115055	0.410359
	H51	H	0.403854	0.887709	0.399746
	H52	H	0.590811	0.408546	0.117872
	H53	H	0.595313	0.587802	0.880639
	H54	H	0.422934	0.587886	0.113811
	H55	H	0.403837	0.413295	0.882471
	H56	H	0.116752	0.599682	0.420439
	H57	H	0.882336	0.597615	0.594263
	H58	H	0.121282	0.419951	0.598195
	H59	H	0.885877	0.407703	0.406461
	H60	H	0.124227	0.406895	0.592484
	H61	H	0.884093	0.601926	0.585943
	H62	H	0.120212	0.594941	0.401832
	H63	H	0.884230	0.407142	0.401170
	H64	H	0.418409	0.599360	0.118542
	H65	H	0.584986	0.600044	0.881444
	H66	H	0.599975	0.411939	0.120255
	H67	H	0.413709	0.400961	0.880905
	H68	H	0.605913	0.118861	0.409738
	H69	H	0.588772	0.888651	0.587227
	H70	H	0.415883	0.117601	0.591796
	H71	H	0.397702	0.886117	0.403697
	H72	H	0.925799	0.613621	0.084830
	H73	H	0.085714	0.389488	0.090834
	H74	H	0.092767	0.614567	0.913904
	H75	H	0.895507	0.384056	0.895183
	H76	H	0.096416	0.920165	0.617075
	H77	H	0.087200	0.114879	0.376505
	H78	H	0.925796	0.098492	0.615799
	H79	H	0.901577	0.908416	0.378097
	H80	H	0.624914	0.110381	0.905221
	H81	H	0.383244	0.095983	0.087192
	H82	H	0.616573	0.918984	0.084645
	H83	H	0.386029	0.905295	0.903539
	H84	H	0.624657	0.914940	0.105492
	H85	H	0.385216	0.092080	0.085790
	H86	H	0.615731	0.100324	0.925071
	H87	H	0.384680	0.900216	0.900349
	H88	H	0.911996	0.103601	0.621292
	H89	H	0.110294	0.096459	0.373673
	H90	H	0.089829	0.914078	0.616897
	H91	H	0.910563	0.909882	0.380312
	H92	H	0.108135	0.618989	0.912592
	H93	H	0.101388	0.386045	0.086385
	H94	H	0.900269	0.619851	0.081454
	H95	H	0.906893	0.388291	0.896840
	H96	H	0.414508	0.117836	0.590636
	H97	H	0.603817	0.884472	0.588083
	H98	H	0.598730	0.119781	0.400210
	H99	H	0.397925	0.884323	0.396792
	H100	H	0.593052	0.418107	0.116565
	H101	H	0.599767	0.602278	0.874842
	H102	H	0.409994	0.589101	0.117324
	H103	H	0.398348	0.398270	0.875947
	H104	H	0.123895	0.613382	0.408067
	H105	H	0.887302	0.592542	0.585491
	H106	H	0.117990	0.417519	0.583670
	H107	H	0.884260	0.403145	0.404108
	H108	H	0.911723	0.623111	0.105862
	H109	H	0.096667	0.383566	0.101791
	H110	H	0.097828	0.621010	0.900116
	H111	H	0.899118	0.388635	0.907037
	H112	H	0.098258	0.912498	0.619661
	H113	H	0.084548	0.086916	0.386306
	H114	H	0.912461	0.088646	0.616640
	H115	H	0.906577	0.901682	0.378106
	H116	H	0.618633	0.086702	0.905090
	H117	H	0.382530	0.092151	0.090201
	H118	H	0.625209	0.898441	0.089873
	H119	H	0.385910	0.900019	0.906511
	C120	C	0.382436	0.010368	0.617946
	C121	C	0.627265	0.992751	0.622551
	C122	C	0.623790	0.010032	0.377545
	C123	C	0.376890	0.993871	0.372752
	C124	C	0.620644	0.383448	0.007585
	C125	C	0.625965	0.625857	0.989134
	C126	C	0.385601	0.619224	0.006684
	C127	C	0.378017	0.376631	0.989900
	C128	C	0.010976	0.626536	0.377971
	C129	C	0.993534	0.628009	0.620910
	C130	C	0.011794	0.383683	0.618164
	C131	C	0.994064	0.381620	0.376369
	C132	C	0.881442	0.511204	0.118084
	C133	C	0.126663	0.493620	0.122875
	C134	C	0.123210	0.510347	0.878232
	C135	C	0.876438	0.494942	0.872840
	C136	C	0.120611	0.886653	0.507130
	C137	C	0.127012	0.129286	0.488490
	C138	C	0.885291	0.122951	0.507756
	C139	C	0.880013	0.879975	0.489734
	C140	C	0.511040	0.122878	0.879154
	C141	C	0.492651	0.124401	0.119793
	C142	C	0.512638	0.880302	0.119422
	C143	C	0.495150	0.877609	0.876081
	C144	C	0.382982	0.886856	0.669828
	C145	C	0.627813	0.115269	0.679916
	C146	C	0.615414	0.887018	0.322209
	C147	C	0.385341	0.116332	0.318967
	C148	C	0.669983	0.386482	0.880977
	C149	C	0.683992	0.623953	0.114251
	C150	C	0.328198	0.614395	0.880833
	C151	C	0.325577	0.380460	0.115430
	C152	C	0.886705	0.677107	0.377067
	C153	C	0.117037	0.687117	0.623723
	C154	C	0.889253	0.323149	0.616621
	C155	C	0.117544	0.328811	0.377628
	C156	C	0.886066	0.385891	0.667329
	C157	C	0.117913	0.626905	0.677967
	C158	C	0.886446	0.617066	0.321546
	C159	C	0.119169	0.389821	0.324870
	C160	C	0.383693	0.674430	0.881821
	C161	C	0.628188	0.681553	0.114474
	C162	C	0.616445	0.326915	0.882661
	C163	C	0.380848	0.321991	0.114653
	C164	C	0.674924	0.887429	0.379304
	C165	C	0.686180	0.115204	0.622685
	C166	C	0.322241	0.888799	0.613752
	C167	C	0.326272	0.116624	0.375027
	C168	C	0.882303	0.388029	0.171093
	C169	C	0.126820	0.617152	0.177687
	C170	C	0.114385	0.387755	0.821731
	C171	C	0.884659	0.617818	0.819922
	C172	C	0.169620	0.890176	0.379967
	C173	C	0.185759	0.127533	0.613403
	C174	C	0.828017	0.116936	0.381977
	C175	C	0.828342	0.883933	0.615926
	C176	C	0.387088	0.174347	0.876317
	C177	C	0.615772	0.184493	0.123817
	C178	C	0.389511	0.820000	0.116897
	C179	C	0.619211	0.826241	0.879227
	C180	C	0.386562	0.881946	0.168222
	C181	C	0.617467	0.123246	0.176625
	C182	C	0.386685	0.113943	0.821205
	C183	C	0.619944	0.885396	0.824229
	C184	C	0.884047	0.175769	0.381652
	C185	C	0.129295	0.185552	0.613592
	C186	C	0.117787	0.829328	0.382435
	C187	C	0.883822	0.826305	0.615238
	C188	C	0.172881	0.386977	0.879080
	C189	C	0.187388	0.615148	0.122618
	C190	C	0.823331	0.388435	0.113564
	C191	C	0.825441	0.617305	0.876528
	C192	C	0.407640	0.095706	0.597352
	C193	C	0.603075	0.907549	0.598915
	C194	C	0.605193	0.095741	0.400020
	C195	C	0.394558	0.908158	0.393758
	C196	C	0.600661	0.406087	0.095546
	C197	C	0.600822	0.603308	0.901761
	C198	C	0.410054	0.598276	0.093919
	C199	C	0.399060	0.397860	0.902199
	C200	C	0.097981	0.608204	0.402634
	C201	C	0.907002	0.604134	0.596072
	C202	C	0.098674	0.407992	0.597524
	C203	C	0.907338	0.400482	0.397534
	C204	C	0.905516	0.596642	0.096866
	C205	C	0.101820	0.408511	0.099798
	C206	C	0.104887	0.595858	0.901702
	C207	C	0.894839	0.409095	0.893538
	C208	C	0.100786	0.909097	0.595119
	C209	C	0.101462	0.106284	0.401374
	C210	C	0.909798	0.102948	0.595117
	C211	C	0.900223	0.900539	0.401778
	C212	C	0.597448	0.104478	0.904332
	C213	C	0.406167	0.100369	0.094949
	C214	C	0.599629	0.904127	0.099372
	C215	C	0.408134	0.896228	0.897060
	Zn216	Zn	0.504289	0.000582	0.749956
	Zn217	Zn	0.500983	0.001673	0.245530
	Zn218	Zn	0.749171	0.503262	-0.002972
	Zn219	Zn	0.253857	0.499608	-0.000684
	Zn220	Zn	0.002094	0.755962	0.499625
	Zn221	Zn	0.004319	0.254700	0.497781
	Zn222	Zn	0.001819	0.503865	0.746283
	Zn223	Zn	0.003047	0.503186	0.249567
	Zn224	Zn	0.505092	0.751528	-0.001382
	Zn225	Zn	0.501272	0.253317	-0.000473
	Zn226	Zn	0.755310	0.001481	0.499739
	Zn227	Zn	0.250300	0.004535	0.495955
	N228	N	0.419757	0.963477	0.672638
	N229	N	0.591634	0.038298	0.679787
	N230	N	0.584612	0.964274	0.320649
	N231	N	0.416351	0.039177	0.317540
	N232	N	0.672577	0.421201	0.959716
	N233	N	0.682534	0.589831	0.035254
	N234	N	0.329234	0.580790	0.959458
	N235	N	0.323747	0.413639	0.036748
	N236	N	0.965315	0.683015	0.411628
	N237	N	0.038554	0.687904	0.588783
	N238	N	0.968500	0.321917	0.586811
	N239	N	0.038840	0.323495	0.408939
	N240	N	0.963514	0.423148	0.668585
	N241	N	0.040164	0.590965	0.676478
	N242	N	0.964788	0.586557	0.322161
	N243	N	0.041457	0.421947	0.323810
	N244	N	0.418811	0.677542	0.960896
	N245	N	0.592677	0.682722	0.035506
	N246	N	0.586507	0.324949	0.962514
	N247	N	0.412573	0.319488	0.035340
	N248	N	0.680343	0.964852	0.413047
	N249	N	0.686125	0.038189	0.587822
	N250	N	0.321854	0.966569	0.582063
	N251	N	0.320818	0.039529	0.407841
	N252	N	0.917783	0.465242	0.174205
	N253	N	0.089631	0.540766	0.178065
	N254	N	0.084328	0.465225	0.820909
	N255	N	0.915667	0.540642	0.817433
	N256	N	0.171358	0.925269	0.458449
	N257	N	0.184600	0.093284	0.534473
	N258	N	0.828797	0.084655	0.461070
	N259	N	0.825887	0.916571	0.536877
	N260	N	0.465311	0.179951	0.911673
	N261	N	0.537266	0.185325	0.089134
	N262	N	0.468850	0.818857	0.087309
	N263	N	0.540517	0.821036	0.910491
	N264	N	0.464073	0.918974	0.169822
	N265	N	0.539893	0.086449	0.174189
	N266	N	0.464734	0.082568	0.822861
	N267	N	0.541779	0.916712	0.822178
	N268	N	0.919173	0.179776	0.460853
	N269	N	0.093689	0.186669	0.534779
	N270	N	0.088097	0.826907	0.462648
	N271	N	0.915176	0.823688	0.535876
	N272	N	0.178541	0.464275	0.913417
	N273	N	0.187590	0.537379	0.089554
	N274	N	0.822819	0.465871	0.081461
	N275	N	0.820030	0.539854	0.908555
	O276	O	-0.038853	-0.010842	0.014157
	H277	H	-0.042829	-0.014609	0.003055
	H278	H	-0.044502	-0.013405	0.008197
	O279	O	1.012707	0.949720	0.995156
	H280	H	1.008396	0.950102	0.997798
	H281	H	1.017408	0.952695	0.993102
	O282	O	0.377276	0.403720	0.515147
	H283	H	0.389834	0.398246	0.539156
	H284	H	0.361311	0.379978	0.517899
	O285	O	0.926411	0.017438	0.978976
	H286	H	0.927250	0.018800	0.992734
	H287	H	0.920469	0.017431	0.984147
	O288	O	1.035351	-0.014844	0.022515
	H289	H	1.028539	-0.017608	0.025009
	H290	H	1.034816	-0.013899	0.031750
	O291	O	0.525565	0.363934	0.426496
	H292	H	0.514707	0.370767	0.416322
	H293	H	0.519504	0.366969	0.427688
	O294	O	1.511566	0.494938	0.505924
	H295	H	1.498903	0.489418	0.504889
	H296	H	1.513606	0.508022	0.500281
	O297	O	-0.449881	-0.569295	-0.412600
	H298	H	-0.441926	-0.577285	-0.416362
	H299	H	-0.446438	-0.562141	-0.425724
	O300	O	0.505919	0.535542	0.488100
	H301	H	0.509180	0.531530	0.481873
	H302	H	0.489983	0.536534	0.487292
	O303	O	0.493049	0.594250	0.424302
	H304	H	0.488609	0.605040	0.412260
	H305	H	0.491435	0.605014	0.431723
	O306	O	0.985289	0.001264	-0.037723
	H307	H	0.981800	0.004421	-0.037229
	H308	H	0.992141	0.002865	-0.035686
	O309	O	0.038575	-0.043965	0.988710
	H310	H	0.034155	-0.043986	0.987694
	H311	H	0.041309	-0.046605	0.981717
	O312	O	1.032964	1.045421	1.048969
	H313	H	1.036498	1.051501	1.057014
	H314	H	1.028403	1.054569	1.043324
	O315	O	0.485323	0.549461	0.517775
	H316	H	0.480063	0.554565	0.510028
	H317	H	0.483423	0.544650	0.520834
	O318	O	0.442315	0.634989	0.440384
	H319	H	0.445804	0.638550	0.451570
	H320	H	0.433784	0.633771	0.450780
	O321	O	-0.022257	1.056822	1.064112
	H322	H	-0.011651	1.056701	1.066069
	H323	H	-0.029291	1.060158	1.058442
	O324	O	0.517822	0.482822	0.503186
	H325	H	0.515631	0.481495	0.502647
	H326	H	0.528254	0.490528	0.505618
	O327	O	0.448732	0.417695	0.528767
	H328	H	0.454290	0.416969	0.530501
	H329	H	0.459171	0.414063	0.524785
	O330	O	0.534460	0.560301	0.517469
	H331	H	0.537951	0.553744	0.528670
	H332	H	0.530413	0.563049	0.515326
	O333	O	0.443180	0.377968	0.543903
	H334	H	0.450686	0.380076	0.554140
	H335	H	0.458679	0.385387	0.542923
	O336	O	0.567625	0.541241	0.565893
	H337	H	0.563923	0.548424	0.568563
	H338	H	0.575797	0.546295	0.565349
	O339	O	1.027181	0.953617	0.045177
	H340	H	1.030921	0.956631	0.046051
	H341	H	1.038686	0.954067	0.051029
	O342	O	0.444217	0.556506	0.516455
	H343	H	0.443794	0.551070	0.520466
	H344	H	0.436326	0.545520	0.519694
	O345	O	0.536420	0.467665	0.453151
	H346	H	0.534528	0.472394	0.451127
	H347	H	0.529750	0.478205	0.457485
	O348	O	-0.011954	-0.010949	-0.029588
	H349	H	-0.013381	-0.010038	-0.019254
	H350	H	-0.025266	-0.012188	-0.029743
	O351	O	0.048613	1.047925	1.062375
	H352	H	0.066419	1.047545	1.051293
	H353	H	0.055567	1.061364	1.067452
	O354	O	0.575543	0.539741	0.585963
	H355	H	0.581284	0.544053	0.585828
	H356	H	0.580597	0.548434	0.583674
	O357	O	-0.034486	0.960782	0.954737
	H358	H	-0.026577	0.963934	0.964243
	H359	H	-0.035044	0.954537	0.954095
