data_Molecule from HDF5

_cell_length_a		16.308621
_cell_length_b		16.015828
_cell_length_c		16.357410
_cell_angle_alpha	90.345928
_cell_angle_beta	90.554238
_cell_angle_gamma	89.647248
_symmetry_space_group_name_H-M	'P 1'
_symmetry_Int_Tables_number		1

loop_
	_symmetry_equiv_pos_as_xyz
	x,y,z

loop_
	_atom_site_label
	_atom_site_type_symbol
	_atom_site_fract_x
	_atom_site_fract_y
	_atom_site_fract_z
	H0	H	0.403608	0.841420	0.708541
	H1	H	0.602625	0.171281	0.717414
	H2	H	0.602197	0.843617	0.282081
	H3	H	0.398184	0.174042	0.283283
	H4	H	0.718765	0.402434	0.834589
	H5	H	0.721385	0.608992	0.158967
	H6	H	0.281972	0.610359	0.835842
	H7	H	0.287249	0.407827	0.159221
	H8	H	0.837784	0.722209	0.398181
	H9	H	0.167019	0.719908	0.595345
	H10	H	0.837117	0.297304	0.588890
	H11	H	0.165167	0.291235	0.399012
	H12	H	0.839478	0.405495	0.711578
	H13	H	0.163543	0.610109	0.717029
	H14	H	0.840256	0.610420	0.277085
	H15	H	0.164477	0.402892	0.279553
	H16	H	0.404015	0.718840	0.832922
	H17	H	0.600322	0.721252	0.161033
	H18	H	0.598490	0.290665	0.833941
	H19	H	0.408623	0.296998	0.161638
	H20	H	0.716360	0.843248	0.398507
	H21	H	0.713332	0.174523	0.599015
	H22	H	0.290402	0.842040	0.593744
	H23	H	0.284303	0.172810	0.397012
	H24	H	0.904010	0.343347	0.208807
	H25	H	0.103201	0.672251	0.214048
	H26	H	0.104426	0.343132	0.779614
	H27	H	0.899173	0.673032	0.780541
	H28	H	0.219856	0.903022	0.334778
	H29	H	0.221687	0.112061	0.658031
	H30	H	0.780473	0.111531	0.336378
	H31	H	0.786721	0.907090	0.659739
	H32	H	0.338232	0.223058	0.897931
	H33	H	0.666162	0.220312	0.097367
	H34	H	0.337322	0.794852	0.093144
	H35	H	0.665741	0.793215	0.903369
	H36	H	0.338651	0.907975	0.212538
	H37	H	0.662273	0.112474	0.219650
	H38	H	0.339470	0.110216	0.778164
	H39	H	0.663720	0.901129	0.780666
	H40	H	0.903198	0.219149	0.332129
	H41	H	0.099519	0.222809	0.659414
	H42	H	0.098070	0.792026	0.332570
	H43	H	0.909396	0.796767	0.660979
	H44	H	0.218034	0.342717	0.896706
	H45	H	0.215711	0.673650	0.098372
	H46	H	0.790871	0.342334	0.094573
	H47	H	0.785331	0.673257	0.896009
	H48	H	0.406430	0.125887	0.584126
	H49	H	0.591474	0.890140	0.587012
	H50	H	0.580794	0.127958	0.395287
	H51	H	0.415137	0.891461	0.406129
	H52	H	0.602535	0.419457	0.113480
	H53	H	0.599966	0.593168	0.880540
	H54	H	0.409037	0.602676	0.113588
	H55	H	0.409030	0.407753	0.878758
	H56	H	0.115772	0.589449	0.401277
	H57	H	0.882269	0.612258	0.589237
	H58	H	0.112577	0.421677	0.577513
	H59	H	0.885825	0.411163	0.403406
	H60	H	0.118915	0.424829	0.601946
	H61	H	0.889373	0.597522	0.579673
	H62	H	0.122318	0.604014	0.397830
	H63	H	0.886843	0.423044	0.398872
	H64	H	0.407622	0.601164	0.114444
	H65	H	0.587261	0.596091	0.885074
	H66	H	0.596098	0.416186	0.110860
	H67	H	0.400563	0.420402	0.881077
	H68	H	0.586313	0.120621	0.421596
	H69	H	0.598986	0.888877	0.586993
	H70	H	0.410305	0.128109	0.596472
	H71	H	0.406745	0.888928	0.404943
	H72	H	0.921178	0.622911	0.084273
	H73	H	0.091540	0.390076	0.091289
	H74	H	0.087038	0.621436	0.915186
	H75	H	0.913731	0.390532	0.903693
	H76	H	0.095630	0.914731	0.612314
	H77	H	0.092949	0.096073	0.381040
	H78	H	0.909315	0.107890	0.614505
	H79	H	0.898707	0.916619	0.378874
	H80	H	0.621232	0.101410	0.899849
	H81	H	0.385201	0.098658	0.093539
	H82	H	0.617598	0.918320	0.091973
	H83	H	0.384895	0.915043	0.899620
	H84	H	0.618083	0.914976	0.094128
	H85	H	0.383138	0.106563	0.091363
	H86	H	0.615604	0.100196	0.916335
	H87	H	0.383710	0.914161	0.899624
	H88	H	0.903887	0.101431	0.614085
	H89	H	0.093432	0.100423	0.380450
	H90	H	0.101373	0.916184	0.612706
	H91	H	0.910505	0.923463	0.383953
	H92	H	0.100213	0.628522	0.907086
	H93	H	0.094720	0.391516	0.082993
	H94	H	0.903004	0.627372	0.080038
	H95	H	0.907625	0.388149	0.903136
	H96	H	0.418557	0.124260	0.586903
	H97	H	0.596533	0.887371	0.592766
	H98	H	0.606050	0.132651	0.406012
	H99	H	0.411642	0.887954	0.398325
	H100	H	0.601484	0.411279	0.114761
	H101	H	0.595139	0.605171	0.878832
	H102	H	0.409203	0.600226	0.113136
	H103	H	0.415967	0.419908	0.884927
	H104	H	0.116936	0.600339	0.412160
	H105	H	0.885047	0.595840	0.597751
	H106	H	0.122356	0.402037	0.590950
	H107	H	0.882493	0.413077	0.391628
	H108	H	0.909284	0.630367	0.098043
	H109	H	0.100841	0.386730	0.089214
	H110	H	0.085394	0.626617	0.898559
	H111	H	0.911444	0.388029	0.898512
	H112	H	0.097418	0.919827	0.610756
	H113	H	0.096214	0.096983	0.380454
	H114	H	0.911609	0.100035	0.611499
	H115	H	0.910128	0.909533	0.380235
	H116	H	0.614788	0.085586	0.904680
	H117	H	0.386619	0.100088	0.086132
	H118	H	0.617057	0.914883	0.089676
	H119	H	0.384056	0.914004	0.900991
	C120	C	0.382543	0.016618	0.616970
	C121	C	0.624046	0.998452	0.619904
	C122	C	0.621560	0.017863	0.377492
	C123	C	0.380183	0.999187	0.374780
	C124	C	0.626575	0.384811	0.005130
	C125	C	0.623863	0.628310	0.988739
	C126	C	0.379242	0.630050	0.006040
	C127	C	0.380835	0.386743	0.988968
	C128	C	0.010610	0.628449	0.374286
	C129	C	0.993422	0.630511	0.618710
	C130	C	0.010101	0.387198	0.616914
	C131	C	0.993483	0.385473	0.371989
	C132	C	0.883121	0.516866	0.115730
	C133	C	0.124583	0.498783	0.118587
	C134	C	0.122097	0.516549	0.876441
	C135	C	0.880404	0.498575	0.873517
	C136	C	0.125381	0.885773	0.504660
	C137	C	0.124189	0.129340	0.487745
	C138	C	0.878953	0.131229	0.505623
	C139	C	0.879825	0.887239	0.488735
	C140	C	0.509822	0.127190	0.876559
	C141	C	0.493025	0.130786	0.120592
	C142	C	0.509662	0.886941	0.119282
	C143	C	0.492597	0.884508	0.873927
	C144	C	0.383955	0.891123	0.671079
	C145	C	0.621936	0.122590	0.677712
	C146	C	0.621700	0.893403	0.320356
	C147	C	0.379326	0.123993	0.320127
	C148	C	0.680459	0.384272	0.883103
	C149	C	0.681654	0.628118	0.110928
	C150	C	0.321623	0.629220	0.883927
	C151	C	0.325998	0.388231	0.111003
	C152	C	0.887172	0.684671	0.376920
	C153	C	0.117184	0.683956	0.616533
	C154	C	0.886444	0.333413	0.611482
	C155	C	0.116426	0.329019	0.377170
	C156	C	0.887704	0.387554	0.672470
	C157	C	0.115605	0.629221	0.677076
	C158	C	0.888517	0.629206	0.316630
	C159	C	0.115842	0.384597	0.317720
	C160	C	0.382190	0.683307	0.882482
	C161	C	0.621705	0.684036	0.111900
	C162	C	0.621156	0.328033	0.882958
	C163	C	0.385952	0.332820	0.112308
	C164	C	0.678498	0.893121	0.378487
	C165	C	0.677146	0.124235	0.619003
	C166	C	0.327688	0.891535	0.614141
	C167	C	0.322684	0.123662	0.376822
	C168	C	0.884735	0.392324	0.170776
	C169	C	0.122484	0.622999	0.175308
	C170	C	0.122864	0.392386	0.818811
	C171	C	0.879686	0.623430	0.818185
	C172	C	0.180939	0.884464	0.382846
	C173	C	0.181886	0.130217	0.609743
	C174	C	0.820794	0.129964	0.384091
	C175	C	0.825568	0.888239	0.611325
	C176	C	0.387312	0.184742	0.877408
	C177	C	0.616700	0.184116	0.118390
	C178	C	0.386429	0.832094	0.114699
	C179	C	0.616431	0.829695	0.880420
	C180	C	0.387286	0.888478	0.174112
	C181	C	0.614676	0.130438	0.179269
	C182	C	0.388029	0.128506	0.817767
	C183	C	0.615145	0.883332	0.819189
	C184	C	0.882086	0.183339	0.381908
	C185	C	0.121384	0.185922	0.610169
	C186	C	0.120314	0.829432	0.381680
	C187	C	0.886034	0.832724	0.611815
	C188	C	0.179601	0.392236	0.877002
	C189	C	0.178682	0.623676	0.117957
	C190	C	0.828731	0.391791	0.113571
	C191	C	0.823296	0.623399	0.875632
	C192	C	0.404958	0.103601	0.595516
	C193	C	0.602136	0.911390	0.596070
	C194	C	0.597893	0.104705	0.400872
	C195	C	0.404084	0.912095	0.396641
	C196	C	0.606099	0.408628	0.090952
	C197	C	0.600914	0.605070	0.903739
	C198	C	0.401909	0.607936	0.091547
	C199	C	0.402269	0.409368	0.903675
	C200	C	0.096180	0.604892	0.397165
	C201	C	0.907865	0.608304	0.595711
	C202	C	0.095694	0.409553	0.596158
	C203	C	0.907452	0.408828	0.392246
	C204	C	0.904905	0.604217	0.093898
	C205	C	0.102400	0.411741	0.094712
	C206	C	0.097808	0.603249	0.900094
	C207	C	0.903950	0.411631	0.895349
	C208	C	0.104397	0.909818	0.589750
	C209	C	0.100985	0.104957	0.402521
	C210	C	0.901559	0.109511	0.591270
	C211	C	0.900276	0.909763	0.403121
	C212	C	0.595120	0.102919	0.900087
	C213	C	0.407253	0.108314	0.097223
	C214	C	0.595265	0.909389	0.098069
	C215	C	0.406568	0.907573	0.894138
	Zn216	Zn	0.501692	0.006007	0.745490
	Zn217	Zn	0.500793	0.009357	0.248516
	Zn218	Zn	0.754997	0.507466	-0.003785
	Zn219	Zn	0.250573	0.508218	-0.002375
	Zn220	Zn	0.002534	0.757891	0.496505
	Zn221	Zn	0.001558	0.258510	0.495221
	Zn222	Zn	0.001333	0.507963	0.747345
	Zn223	Zn	0.002777	0.507570	0.243929
	Zn224	Zn	0.501420	0.757531	-0.002954
	Zn225	Zn	0.502687	0.257297	-0.002329
	Zn226	Zn	0.750375	0.009373	0.498793
	Zn227	Zn	0.254625	0.007484	0.496492
	N228	N	0.417197	0.969804	0.673190
	N229	N	0.589608	0.043392	0.678288
	N230	N	0.586955	0.971970	0.319623
	N231	N	0.414356	0.045540	0.318901
	N232	N	0.683978	0.418764	0.960275
	N233	N	0.683095	0.594175	0.033527
	N234	N	0.319482	0.596912	0.961739
	N235	N	0.322526	0.421077	0.033501
	N236	N	0.964193	0.684410	0.412129
	N237	N	0.040414	0.684869	0.581044
	N238	N	0.963315	0.333307	0.577598
	N239	N	0.039149	0.329232	0.410114
	N240	N	0.965640	0.420259	0.676185
	N241	N	0.037660	0.596696	0.678718
	N242	N	0.966081	0.594853	0.315051
	N243	N	0.038325	0.418654	0.314080
	N244	N	0.417210	0.684197	0.959392
	N245	N	0.586562	0.684463	0.034963
	N246	N	0.588385	0.328327	0.960062
	N247	N	0.419524	0.331881	0.035374
	N248	N	0.678591	0.971645	0.413256
	N249	N	0.678731	0.045762	0.584108
	N250	N	0.326622	0.970455	0.581121
	N251	N	0.323078	0.044981	0.410227
	N252	N	0.917993	0.471065	0.172092
	N253	N	0.089651	0.544122	0.175792
	N254	N	0.087727	0.470728	0.818447
	N255	N	0.914335	0.544777	0.816680
	N256	N	0.184316	0.918654	0.460226
	N257	N	0.183896	0.095924	0.532354
	N258	N	0.818754	0.098244	0.462128
	N259	N	0.821418	0.921179	0.533761
	N260	N	0.463997	0.183906	0.913302
	N261	N	0.540056	0.184477	0.082650
	N262	N	0.463591	0.830995	0.081145
	N263	N	0.539276	0.830092	0.913679
	N264	N	0.464846	0.921878	0.177044
	N265	N	0.536657	0.097997	0.180552
	N266	N	0.465233	0.093329	0.817184
	N267	N	0.537203	0.916584	0.815049
	N268	N	0.917652	0.184281	0.458423
	N269	N	0.086166	0.185280	0.533266
	N270	N	0.086496	0.830096	0.458354
	N271	N	0.918967	0.832122	0.534686
	N272	N	0.179091	0.470571	0.912193
	N273	N	0.179784	0.545370	0.083160
	N274	N	0.827897	0.470203	0.079760
	N275	N	0.823256	0.544749	0.909053
	O276	O	0.544691	0.555704	0.501016
	H277	H	0.549003	0.558041	0.507917
	H278	H	0.546074	0.558003	0.499203
	O279	O	1.096388	0.067844	1.022849
	H280	H	1.087785	0.064742	1.015410
	H281	H	1.086781	0.065534	1.028453
	O282	O	1.051285	0.967571	-0.051890
	H283	H	1.056631	0.962229	-0.061658
	H284	H	1.038141	0.960514	-0.046694
	O285	O	1.146055	-0.022531	0.981356
	H286	H	1.155146	-0.027925	0.983029
	H287	H	1.146970	-0.017723	0.971251
	O288	O	0.561619	0.587030	0.620092
	H289	H	0.572968	0.596470	0.620896
	H290	H	0.566890	0.586441	0.622251
	O291	O	0.562653	0.634304	0.492046
	H292	H	0.560042	0.630381	0.495197
	H293	H	0.558818	0.631987	0.497508
	O294	O	0.490419	0.487108	0.589390
	H295	H	0.493575	0.481359	0.595042
	H296	H	0.495327	0.493559	0.591509
	O297	O	-0.005239	-0.025015	0.999440
	H298	H	-0.005646	-0.027971	0.996149
	H299	H	-0.006431	-0.009937	0.995883
	O300	O	0.634752	0.433478	0.514380
	H301	H	0.629921	0.424727	0.514314
	H302	H	0.634342	0.452014	0.509455
	O303	O	0.415838	0.526886	0.413179
	H304	H	0.420115	0.515432	0.408314
	H305	H	0.415055	0.518285	0.409993
	O306	O	-0.040971	1.124215	0.995199
	H307	H	-0.043980	1.136064	1.003526
	H308	H	-0.029583	1.135422	1.003216
	O309	O	0.523801	0.550948	0.586081
	H310	H	0.524186	0.547619	0.593320
	H311	H	0.517841	0.554087	0.595235
	O312	O	-0.122010	0.054305	-0.006439
	H313	H	-0.117944	0.058814	-0.016400
	H314	H	-0.119237	0.057868	-0.010193
	O315	O	0.908609	-0.115042	-0.009565
	H316	H	0.892431	-0.112900	-0.004687
	H317	H	0.914950	-0.117627	-0.002460
	O318	O	0.974570	1.137303	1.028844
	H319	H	0.981601	1.136072	1.031122
	H320	H	0.970222	1.144464	1.023226
	O321	O	0.001511	0.039266	0.959961
	H322	H	0.004055	0.040375	0.959994
	H323	H	0.000147	0.044650	0.959381
	O324	O	0.476760	0.443707	0.486459
	H325	H	0.489868	0.446808	0.470232
	H326	H	0.480019	0.444174	0.486530
	O327	O	0.002500	0.022938	-0.154286
	H328	H	-0.002649	0.029287	-0.155548
	H329	H	-0.005249	0.026603	-0.152852
	O330	O	0.531726	0.479661	0.432317
	H331	H	0.525821	0.482585	0.435544
	H332	H	0.537671	0.481381	0.436890
	O333	O	0.032989	1.007954	1.032003
	H334	H	0.031683	1.004164	1.031522
	H335	H	0.039948	1.006443	1.025149
	O336	O	0.081221	-0.008930	0.027549
	H337	H	0.075025	-0.009402	0.027250
	H338	H	0.098557	-0.007960	0.042361
	O339	O	0.506781	0.563923	0.504010
	H340	H	0.491272	0.563966	0.504322
	H341	H	0.505045	0.561232	0.502925
	O342	O	1.023448	1.033719	0.931954
	H343	H	1.025325	1.030741	0.943585
	H344	H	1.020408	1.034418	0.923993
	O345	O	0.900748	1.064879	-0.078813
	H346	H	0.907680	1.073019	-0.079056
	H347	H	0.895030	1.068379	-0.085328
	O348	O	0.500211	0.496562	0.444254
	H349	H	0.496354	0.500734	0.438142
	H350	H	0.511142	0.503964	0.445535
	O351	O	0.499588	0.524717	0.373868
	H352	H	0.502605	0.526201	0.369100
	H353	H	0.497446	0.530109	0.382470
	O354	O	0.000203	0.033259	0.018596
	H355	H	0.003345	0.039631	0.016080
	H356	H	0.007413	0.032284	0.027979
	O357	O	1.020708	-0.027448	1.148374
	H358	H	1.017509	-0.041691	1.164706
	H359	H	1.017324	-0.030759	1.135702
	O360	O	0.597840	0.457284	0.550148
	H361	H	0.602330	0.462725	0.557596
	H362	H	0.595706	0.442848	0.534772
	O363	O	0.400782	0.478325	0.472457
	H364	H	0.396424	0.476521	0.457135
	H365	H	0.391427	0.478967	0.461536
	O366	O	1.092924	0.994269	1.037902
	H367	H	1.099362	0.982953	1.033080
	H368	H	1.104826	0.996359	1.049774
	O369	O	0.919403	-0.015091	0.970990
	H370	H	0.923739	-0.010030	0.961192
	H371	H	0.912818	-0.014208	0.962654
	O372	O	-0.032245	-0.104872	-0.005522
	H373	H	-0.041339	-0.100016	0.002637
	H374	H	-0.042784	-0.103447	-0.007397
	O375	O	1.020850	-0.038193	0.029279
	H376	H	1.023382	-0.047575	0.030496
	H377	H	1.023677	-0.034828	0.040091
	O378	O	0.448987	0.521476	0.549973
	H379	H	0.440339	0.522232	0.546068
	H380	H	0.443862	0.517529	0.556490
	O381	O	0.519075	0.505950	0.503355
	H382	H	0.518928	0.516231	0.514800
	H383	H	0.526525	0.513879	0.507097
