data_Molecule from HDF5

_cell_length_a		16.236283
_cell_length_b		16.263166
_cell_length_c		16.299440
_cell_angle_alpha	90.123999
_cell_angle_beta	89.963230
_cell_angle_gamma	89.859675
_symmetry_space_group_name_H-M	'P 1'
_symmetry_Int_Tables_number		1

loop_
	_symmetry_equiv_pos_as_xyz
	x,y,z

loop_
	_atom_site_label
	_atom_site_type_symbol
	_atom_site_fract_x
	_atom_site_fract_y
	_atom_site_fract_z
	H0	H	0.402614	0.842897	0.718957
	H1	H	0.597292	0.171415	0.716361
	H2	H	0.600155	0.843066	0.288290
	H3	H	0.401236	0.170294	0.289785
	H4	H	0.715531	0.408477	0.840469
	H5	H	0.715229	0.605755	0.167500
	H6	H	0.287121	0.604082	0.840076
	H7	H	0.288326	0.409823	0.168254
	H8	H	0.837683	0.719964	0.405610
	H9	H	0.166415	0.720122	0.602722
	H10	H	0.837542	0.292889	0.602353
	H11	H	0.165371	0.291203	0.404515
	H12	H	0.837242	0.407777	0.717762
	H13	H	0.165415	0.604368	0.719052
	H14	H	0.838070	0.605079	0.289656
	H15	H	0.164967	0.406203	0.289092
	H16	H	0.403716	0.720405	0.839828
	H17	H	0.600234	0.722518	0.167309
	H18	H	0.598765	0.293071	0.839953
	H19	H	0.403141	0.293446	0.167225
	H20	H	0.713942	0.841921	0.406144
	H21	H	0.714157	0.170387	0.600944
	H22	H	0.290018	0.840892	0.599835
	H23	H	0.286949	0.170097	0.406682
	H24	H	0.902014	0.342737	0.218330
	H25	H	0.099251	0.668831	0.219069
	H26	H	0.099290	0.341335	0.789879
	H27	H	0.900055	0.669320	0.787279
	H28	H	0.216814	0.905770	0.339890
	H29	H	0.214862	0.103940	0.667838
	H30	H	0.786847	0.104372	0.339755
	H31	H	0.787276	0.909424	0.667970
	H32	H	0.336437	0.219326	0.907915
	H33	H	0.665012	0.220274	0.101892
	H34	H	0.337533	0.793718	0.102983
	H35	H	0.665426	0.792594	0.905257
	H36	H	0.337274	0.909079	0.218004
	H37	H	0.664184	0.106862	0.218773
	H38	H	0.336704	0.106257	0.790318
	H39	H	0.665444	0.908335	0.789412
	H40	H	0.903102	0.220624	0.339928
	H41	H	0.098952	0.221243	0.667406
	H42	H	0.099316	0.791824	0.340155
	H43	H	0.902304	0.791766	0.667313
	H44	H	0.216241	0.341716	0.905134
	H45	H	0.213160	0.670350	0.101471
	H46	H	0.787298	0.342900	0.101109
	H47	H	0.787038	0.671104	0.907158
	H48	H	0.411485	0.120778	0.593908
	H49	H	0.590322	0.889276	0.602713
	H50	H	0.596486	0.123733	0.414094
	H51	H	0.420683	0.889021	0.396943
	H52	H	0.589550	0.409186	0.120873
	H53	H	0.586019	0.586652	0.893741
	H54	H	0.414131	0.601870	0.118172
	H55	H	0.410896	0.417460	0.889901
	H56	H	0.122273	0.599096	0.400924
	H57	H	0.884898	0.599426	0.597456
	H58	H	0.121160	0.407598	0.601731
	H59	H	0.886438	0.417957	0.413968
	H60	H	0.117155	0.411422	0.589182
	H61	H	0.885570	0.599496	0.595874
	H62	H	0.119532	0.606292	0.415621
	H63	H	0.883540	0.414511	0.405490
	H64	H	0.403718	0.606959	0.123802
	H65	H	0.585850	0.614066	0.885989
	H66	H	0.599979	0.412974	0.122941
	H67	H	0.410140	0.407545	0.885874
	H68	H	0.594271	0.123786	0.406907
	H69	H	0.591323	0.892369	0.591329
	H70	H	0.400890	0.123985	0.595567
	H71	H	0.413732	0.895686	0.426187
	H72	H	0.911574	0.622412	0.098246
	H73	H	0.088623	0.388813	0.100379
	H74	H	0.094276	0.621891	0.913326
	H75	H	0.911479	0.390378	0.908704
	H76	H	0.095626	0.918758	0.618346
	H77	H	0.097513	0.098353	0.387067
	H78	H	0.903226	0.094192	0.619431
	H79	H	0.912464	0.907389	0.386675
	H80	H	0.619395	0.104553	0.912160
	H81	H	0.383763	0.100920	0.095540
	H82	H	0.618703	0.915544	0.099189
	H83	H	0.383397	0.911900	0.909094
	H84	H	0.619546	0.911971	0.095139
	H85	H	0.384154	0.098932	0.099327
	H86	H	0.616283	0.096107	0.911367
	H87	H	0.385640	0.914584	0.914835
	H88	H	0.913858	0.100511	0.618051
	H89	H	0.092744	0.096829	0.388032
	H90	H	0.090079	0.911351	0.619072
	H91	H	0.901100	0.911356	0.385496
	H92	H	0.094840	0.623185	0.909381
	H93	H	0.095186	0.389990	0.090520
	H94	H	0.905847	0.623473	0.094976
	H95	H	0.907830	0.391269	0.913825
	H96	H	0.408652	0.124720	0.604380
	H97	H	0.600374	0.887821	0.597375
	H98	H	0.589645	0.121405	0.412771
	H99	H	0.392312	0.884087	0.407342
	H100	H	0.592018	0.419949	0.118262
	H101	H	0.609262	0.598810	0.883552
	H102	H	0.404124	0.595407	0.119665
	H103	H	0.401754	0.413532	0.884941
	H104	H	0.115976	0.590155	0.414032
	H105	H	0.885884	0.598328	0.596274
	H106	H	0.117607	0.420581	0.600032
	H107	H	0.883287	0.408568	0.413118
	H108	H	0.905930	0.624090	0.101344
	H109	H	0.099782	0.386316	0.100811
	H110	H	0.090873	0.621468	0.910216
	H111	H	0.905357	0.387530	0.908191
	H112	H	0.098701	0.910403	0.622091
	H113	H	0.093337	0.101953	0.387135
	H114	H	0.903335	0.106378	0.622867
	H115	H	0.909310	0.918817	0.389924
	H116	H	0.619716	0.100937	0.904392
	H117	H	0.382588	0.102921	0.098850
	H118	H	0.616987	0.916904	0.094389
	H119	H	0.385071	0.918331	0.909390
	C120	C	0.378731	0.014646	0.626004
	C121	C	0.621900	0.998248	0.624867
	C122	C	0.622522	0.015012	0.382063
	C123	C	0.379694	0.998022	0.382217
	C124	C	0.622469	0.385197	0.012506
	C125	C	0.622388	0.628676	0.995623
	C126	C	0.378985	0.629128	0.012234
	C127	C	0.379360	0.385101	0.995338
	C128	C	0.010205	0.627151	0.382223
	C129	C	0.993650	0.628045	0.625923
	C130	C	0.009928	0.385095	0.624960
	C131	C	0.992902	0.384658	0.382369
	C132	C	0.879345	0.515096	0.126184
	C133	C	0.122393	0.496946	0.125477
	C134	C	0.122079	0.513647	0.882505
	C135	C	0.879007	0.498063	0.882006
	C136	C	0.123211	0.884463	0.511971
	C137	C	0.122676	0.127521	0.495492
	C138	C	0.879014	0.128257	0.511784
	C139	C	0.879288	0.884523	0.495676
	C140	C	0.509673	0.128537	0.882104
	C141	C	0.492144	0.129156	0.126055
	C142	C	0.509847	0.886579	0.124655
	C143	C	0.493156	0.886066	0.882295
	C144	C	0.381896	0.891553	0.680895
	C145	C	0.618759	0.122097	0.679314
	C146	C	0.620621	0.892021	0.326064
	C147	C	0.381679	0.121401	0.327907
	C148	C	0.677478	0.387854	0.889127
	C149	C	0.677260	0.626200	0.118885
	C150	C	0.324553	0.625472	0.888885
	C151	C	0.325475	0.388940	0.119024
	C152	C	0.886816	0.682348	0.385265
	C153	C	0.117114	0.682771	0.623524
	C154	C	0.886444	0.330606	0.622243
	C155	C	0.116563	0.329420	0.384815
	C156	C	0.886319	0.387579	0.679764
	C157	C	0.116587	0.625289	0.681391
	C158	C	0.886988	0.625120	0.327480
	C159	C	0.116456	0.386368	0.327302
	C160	C	0.382370	0.683467	0.888944
	C161	C	0.620312	0.684398	0.118567
	C162	C	0.619715	0.330328	0.888979
	C163	C	0.382164	0.330671	0.118412
	C164	C	0.677165	0.891288	0.384624
	C165	C	0.676428	0.121803	0.621716
	C166	C	0.325984	0.890467	0.621654
	C167	C	0.324677	0.121294	0.385866
	C168	C	0.881780	0.391625	0.180593
	C169	C	0.119667	0.620299	0.180888
	C170	C	0.119966	0.390324	0.827511
	C171	C	0.880446	0.620915	0.826269
	C172	C	0.178313	0.886186	0.388687
	C173	C	0.177204	0.124992	0.618990
	C174	C	0.824383	0.125358	0.388777
	C175	C	0.824605	0.888045	0.618915
	C176	C	0.385630	0.182290	0.886411
	C177	C	0.615818	0.183263	0.122978
	C178	C	0.386348	0.831445	0.122909
	C179	C	0.616441	0.830435	0.884612
	C180	C	0.386247	0.888828	0.180039
	C181	C	0.615417	0.126572	0.180934
	C182	C	0.385826	0.125748	0.828308
	C183	C	0.616413	0.887973	0.827057
	C184	C	0.882356	0.182850	0.388749
	C185	C	0.119242	0.182578	0.618883
	C186	C	0.120408	0.829185	0.388853
	C187	C	0.881582	0.829609	0.618640
	C188	C	0.177911	0.390640	0.884909
	C189	C	0.176228	0.621038	0.122705
	C190	C	0.824716	0.391739	0.122522
	C191	C	0.824139	0.621752	0.885554
	C192	C	0.400446	0.100944	0.604495
	C193	C	0.600388	0.912215	0.603528
	C194	C	0.600090	0.100696	0.404712
	C195	C	0.402175	0.911720	0.403952
	C196	C	0.600369	0.407402	0.098291
	C197	C	0.600298	0.606461	0.909951
	C198	C	0.400993	0.607866	0.098275
	C199	C	0.401134	0.406633	0.909171
	C200	C	0.096830	0.605314	0.403947
	C201	C	0.907588	0.605741	0.603220
	C202	C	0.096297	0.406712	0.603367
	C203	C	0.906619	0.407058	0.404365
	C204	C	0.901345	0.601116	0.104592
	C205	C	0.100968	0.410736	0.103531
	C206	C	0.099643	0.599762	0.904510
	C207	C	0.901540	0.412007	0.903864
	C208	C	0.101348	0.906787	0.597633
	C209	C	0.101018	0.105536	0.409638
	C210	C	0.900512	0.106774	0.597974
	C211	C	0.901169	0.906062	0.409657
	C212	C	0.596195	0.107077	0.903186
	C213	C	0.405829	0.107437	0.104230
	C214	C	0.596161	0.908452	0.102703
	C215	C	0.406925	0.908430	0.904523
	Zn216	Zn	0.500878	0.007086	0.753834
	Zn217	Zn	0.500582	0.007032	0.253501
	Zn218	Zn	0.751080	0.506705	0.004353
	Zn219	Zn	0.250630	0.506394	0.004022
	Zn220	Zn	0.001772	0.755877	0.503839
	Zn221	Zn	0.001323	0.256880	0.503658
	Zn222	Zn	0.000966	0.505706	0.753563
	Zn223	Zn	0.001578	0.505327	0.254005
	Zn224	Zn	0.501378	0.758012	0.004011
	Zn225	Zn	0.501183	0.256545	0.003689
	Zn226	Zn	0.750873	0.006285	0.503431
	Zn227	Zn	0.251291	0.005688	0.503586
	N228	N	0.413941	0.969708	0.683615
	N229	N	0.585286	0.044518	0.681287
	N230	N	0.587210	0.969838	0.324388
	N231	N	0.415135	0.043601	0.325608
	N232	N	0.679484	0.421152	0.966756
	N233	N	0.678526	0.591971	0.041558
	N234	N	0.322230	0.592496	0.966509
	N235	N	0.323758	0.422171	0.041421
	N236	N	0.964462	0.683600	0.418763
	N237	N	0.039441	0.684657	0.589744
	N238	N	0.964137	0.329121	0.588784
	N239	N	0.038759	0.328380	0.418315
	N240	N	0.964169	0.420925	0.681492
	N241	N	0.038889	0.591871	0.682686
	N242	N	0.964704	0.591321	0.325753
	N243	N	0.038606	0.420034	0.325532
	N244	N	0.415155	0.686060	0.966720
	N245	N	0.586691	0.685912	0.041093
	N246	N	0.586286	0.328558	0.966622
	N247	N	0.415071	0.328140	0.040577
	N248	N	0.678661	0.968622	0.418671
	N249	N	0.678635	0.043818	0.588686
	N250	N	0.323636	0.968274	0.588474
	N251	N	0.323371	0.043498	0.418887
	N252	N	0.915003	0.469308	0.182949
	N253	N	0.086854	0.542222	0.182600
	N254	N	0.085936	0.467961	0.825845
	N255	N	0.913712	0.543044	0.823839
	N256	N	0.180221	0.919978	0.466308
	N257	N	0.179504	0.091354	0.541417
	N258	N	0.822425	0.092074	0.466327
	N259	N	0.822889	0.921251	0.541259
	N260	N	0.463464	0.183742	0.919522
	N261	N	0.538176	0.184990	0.089409
	N262	N	0.464146	0.829893	0.089312
	N263	N	0.538750	0.829287	0.918158
	N264	N	0.463907	0.922513	0.181189
	N265	N	0.537353	0.093809	0.183131
	N266	N	0.464109	0.093327	0.825238
	N267	N	0.538620	0.921707	0.825622
	N268	N	0.915264	0.185024	0.466404
	N269	N	0.086116	0.184311	0.541309
	N270	N	0.086750	0.828070	0.466214
	N271	N	0.915065	0.827381	0.541195
	N272	N	0.179174	0.468383	0.918424
	N273	N	0.178079	0.543631	0.088965
	N274	N	0.823313	0.469389	0.089263
	N275	N	0.823163	0.544293	0.919498
	O276	O	0.577875	0.481343	0.484431
	H277	H	0.582357	0.479968	0.487023
	H278	H	0.580767	0.486652	0.483809
	O279	O	0.071169	-0.075581	-0.057080
	H280	H	0.065431	-0.081278	-0.062320
	H281	H	0.074834	-0.072244	-0.058129
	O282	O	0.547728	0.473674	0.531658
	H283	H	0.556432	0.468218	0.533162
	H284	H	0.543559	0.469939	0.526103
	O285	O	0.539705	0.518364	0.562804
	H286	H	0.538499	0.517981	0.571425
	H287	H	0.535155	0.521903	0.571449
	O288	O	1.018490	-0.008846	-0.064672
	H289	H	1.024817	-0.011656	-0.067469
	H290	H	1.013896	-0.013967	-0.062556
	O291	O	-0.426557	0.565187	-0.425210
	H292	H	-0.428311	0.567949	-0.430449
	H293	H	-0.428303	0.565868	-0.426263
	O294	O	0.573763	0.531634	0.579298
	H295	H	0.580495	0.532557	0.593044
	H296	H	0.584004	0.536397	0.572379
	O297	O	0.035216	0.951198	-0.056369
	H298	H	0.044530	0.948835	-0.057171
	H299	H	0.039974	0.941175	-0.056609
	O300	O	1.038616	-0.048918	0.905999
	H301	H	1.035685	-0.031424	0.904610
	H302	H	1.037515	-0.064843	0.892906
	O303	O	0.552313	0.513422	0.443643
	H304	H	0.557795	0.510305	0.432013
	H305	H	0.553308	0.512286	0.446323
	O306	O	0.090779	0.970024	0.925127
	H307	H	0.088913	0.977755	0.930052
	H308	H	0.092384	0.965654	0.929687
	O309	O	0.578737	0.511838	0.544029
	H310	H	0.575601	0.518939	0.553829
	H311	H	0.576822	0.506859	0.538672
