data_Molecule from HDF5

_cell_length_a		16.595660
_cell_length_b		16.587341
_cell_length_c		16.721325
_cell_angle_alpha	89.962970
_cell_angle_beta	89.813735
_cell_angle_gamma	89.897827
_symmetry_space_group_name_H-M	'P 1'
_symmetry_Int_Tables_number		1

loop_
	_symmetry_equiv_pos_as_xyz
	x,y,z

loop_
	_atom_site_label
	_atom_site_type_symbol
	_atom_site_fract_x
	_atom_site_fract_y
	_atom_site_fract_z
	H0	H	0.370729	0.847325	0.728997
	H1	H	0.589632	0.152875	0.732247
	H2	H	0.578058	0.842661	0.290941
	H3	H	0.376195	0.159191	0.289387
	H4	H	0.701504	0.395189	0.852077
	H5	H	0.701307	0.607686	0.160063
	H6	H	0.253824	0.609743	0.853169
	H7	H	0.256396	0.395202	0.159473
	H8	H	0.821579	0.719647	0.404565
	H9	H	0.135727	0.719427	0.608802
	H10	H	0.820923	0.284385	0.607570
	H11	H	0.134688	0.280678	0.403366
	H12	H	0.820833	0.400512	0.723965
	H13	H	0.133091	0.608369	0.729304
	H14	H	0.822069	0.604215	0.288204
	H15	H	0.133703	0.394632	0.284451
	H16	H	0.368769	0.726984	0.853892
	H17	H	0.584214	0.723216	0.160738
	H18	H	0.586632	0.277829	0.852076
	H19	H	0.374394	0.279586	0.159894
	H20	H	0.694685	0.842579	0.406805
	H21	H	0.701690	0.155405	0.613159
	H22	H	0.258334	0.845443	0.610176
	H23	H	0.259903	0.158987	0.405739
	H24	H	0.871162	0.345064	0.229382
	H25	H	0.083214	0.656485	0.227201
	H26	H	0.083691	0.344379	0.785094
	H27	H	0.869669	0.654893	0.783302
	H28	H	0.198102	0.898189	0.349988
	H29	H	0.201629	0.108033	0.660358
	H30	H	0.758674	0.105117	0.351165
	H31	H	0.757276	0.897004	0.661231
	H32	H	0.324293	0.222955	0.900971
	H33	H	0.637122	0.217922	0.106372
	H34	H	0.321825	0.782850	0.109115
	H35	H	0.632751	0.777078	0.898608
	H36	H	0.321983	0.897682	0.226542
	H37	H	0.636180	0.104998	0.225391
	H38	H	0.325153	0.109122	0.782223
	H39	H	0.631919	0.892259	0.781295
	H40	H	0.872264	0.223957	0.351865
	H41	H	0.084163	0.223489	0.661557
	H42	H	0.083096	0.781032	0.350193
	H43	H	0.874899	0.781040	0.661929
	H44	H	0.197576	0.343616	0.903044
	H45	H	0.200701	0.655176	0.112391
	H46	H	0.757272	0.344756	0.112036
	H47	H	0.754269	0.654545	0.899557
	H48	H	0.387366	0.112326	0.590248
	H49	H	0.560968	0.891451	0.593909
	H50	H	0.571991	0.115671	0.413817
	H51	H	0.390112	0.889020	0.413335
	H52	H	0.566637	0.409191	0.116856
	H53	H	0.563167	0.583426	0.900553
	H54	H	0.387756	0.591314	0.117484
	H55	H	0.390334	0.407333	0.893186
	H56	H	0.090263	0.592407	0.419132
	H57	H	0.870208	0.583934	0.591953
	H58	H	0.088952	0.418102	0.594964
	H59	H	0.867313	0.411572	0.419499
	H60	H	0.092995	0.410929	0.601117
	H61	H	0.864594	0.589041	0.603394
	H62	H	0.089308	0.585340	0.415357
	H63	H	0.866946	0.415426	0.415621
	H64	H	0.388866	0.586124	0.115339
	H65	H	0.563045	0.592625	0.895574
	H66	H	0.568266	0.408864	0.117674
	H67	H	0.385700	0.413542	0.893556
	H68	H	0.567510	0.114187	0.411979
	H69	H	0.565702	0.891005	0.588846
	H70	H	0.391403	0.114270	0.598716
	H71	H	0.385352	0.888376	0.416679
	H72	H	0.889421	0.610747	0.091763
	H73	H	0.067764	0.389490	0.093134
	H74	H	0.066587	0.611158	0.920075
	H75	H	0.887134	0.386466	0.913360
	H76	H	0.068259	0.913187	0.617182
	H77	H	0.066540	0.090777	0.396691
	H78	H	0.885632	0.095116	0.619252
	H79	H	0.889024	0.913041	0.396235
	H80	H	0.591106	0.085559	0.913361
	H81	H	0.369163	0.088263	0.094950
	H82	H	0.591064	0.912136	0.100373
	H83	H	0.367821	0.911111	0.922644
	H84	H	0.591150	0.908816	0.096799
	H85	H	0.365051	0.089595	0.103968
	H86	H	0.589628	0.090097	0.920846
	H87	H	0.369669	0.919451	0.919109
	H88	H	0.886644	0.084339	0.615717
	H89	H	0.067967	0.089165	0.396908
	H90	H	0.065141	0.909569	0.616673
	H91	H	0.890119	0.904988	0.393534
	H92	H	0.066772	0.613071	0.915247
	H93	H	0.068663	0.387557	0.098140
	H94	H	0.885835	0.613155	0.097560
	H95	H	0.895249	0.389797	0.914805
	H96	H	0.396713	0.109644	0.591853
	H97	H	0.567141	0.888769	0.595195
	H98	H	0.569033	0.113682	0.417250
	H99	H	0.385379	0.885476	0.411480
	H100	H	0.567785	0.411014	0.118001
	H101	H	0.570771	0.586828	0.895276
	H102	H	0.393001	0.589879	0.115269
	H103	H	0.393202	0.413839	0.895680
	H104	H	0.092514	0.591619	0.411934
	H105	H	0.865758	0.596883	0.592032
	H106	H	0.090558	0.408389	0.591178
	H107	H	0.864618	0.410443	0.414831
	H108	H	0.893167	0.611137	0.097872
	H109	H	0.063259	0.389845	0.096802
	H110	H	0.062547	0.611153	0.916856
	H111	H	0.889033	0.389914	0.921419
	H112	H	0.069225	0.908588	0.618049
	H113	H	0.066128	0.089331	0.397416
	H114	H	0.895417	0.091161	0.615267
	H115	H	0.882599	0.909021	0.392671
	H116	H	0.587192	0.081602	0.919848
	H117	H	0.365182	0.096775	0.097119
	H118	H	0.589678	0.913316	0.095788
	H119	H	0.365659	0.912682	0.913938
	C120	C	0.357904	0.009804	0.626487
	C121	C	0.598908	0.992294	0.626511
	C122	C	0.599404	0.009617	0.385019
	C123	C	0.357093	0.992608	0.384975
	C124	C	0.600283	0.378281	0.014906
	C125	C	0.599090	0.621260	0.998379
	C126	C	0.355701	0.623360	0.015087
	C127	C	0.357441	0.379238	0.996508
	C128	C	-0.012963	0.621447	0.385095
	C129	C	0.969914	0.622190	0.627917
	C130	C	-0.013204	0.381112	0.626936
	C131	C	0.969820	0.380203	0.385259
	C132	C	0.857160	0.508584	0.127928
	C133	C	0.099481	0.491651	0.128036
	C134	C	0.098316	0.508503	0.885569
	C135	C	0.856786	0.491426	0.884648
	C136	C	0.099987	0.878970	0.514532
	C137	C	0.099611	0.122444	0.498727
	C138	C	0.856782	0.122656	0.514377
	C139	C	0.856611	0.878561	0.497534
	C140	C	0.487302	0.120613	0.885083
	C141	C	0.470758	0.122515	0.128323
	C142	C	0.487006	0.880278	0.128295
	C143	C	0.469757	0.880118	0.885026
	C144	C	0.353639	0.893435	0.687914
	C145	C	0.605412	0.107285	0.690197
	C146	C	0.598117	0.890137	0.329195
	C147	C	0.356915	0.111683	0.328014
	C148	C	0.661208	0.376480	0.898551
	C149	C	0.660344	0.625157	0.114035
	C150	C	0.294148	0.627613	0.899627
	C151	C	0.297043	0.376953	0.113191
	C152	C	0.869087	0.680603	0.384962
	C153	C	0.088044	0.680965	0.628761
	C154	C	0.867932	0.323931	0.626673
	C155	C	0.087807	0.320615	0.384233
	C156	C	0.868136	0.381264	0.684717
	C157	C	0.086725	0.625361	0.688380
	C158	C	0.869004	0.622930	0.327438
	C159	C	0.087276	0.377088	0.325251
	C160	C	0.351499	0.685965	0.900033
	C161	C	0.602142	0.682641	0.114265
	C162	C	0.603999	0.318235	0.898430
	C163	C	0.355805	0.319820	0.113420
	C164	C	0.655932	0.890048	0.386739
	C165	C	0.661210	0.108485	0.630759
	C166	C	0.297534	0.892716	0.629076
	C167	C	0.299244	0.111602	0.385885
	C168	C	0.853790	0.391946	0.188863
	C169	C	0.101837	0.609102	0.187641
	C170	C	0.101275	0.391104	0.825588
	C171	C	0.852480	0.608176	0.823769
	C172	C	0.159190	0.878708	0.397297
	C173	C	0.160826	0.125731	0.614481
	C174	C	0.797512	0.124485	0.397901
	C175	C	0.797135	0.877854	0.614606
	C176	C	0.370946	0.182639	0.882209
	C177	C	0.589594	0.179377	0.126685
	C178	C	0.368905	0.822349	0.128420
	C179	C	0.586117	0.818020	0.880994
	C180	C	0.368990	0.879491	0.186710
	C181	C	0.589065	0.123026	0.185762
	C182	C	0.371180	0.125934	0.823576
	C183	C	0.585743	0.874982	0.822481
	C184	C	0.854183	0.183469	0.398394
	C185	C	0.102410	0.183199	0.614861
	C186	C	0.101661	0.820539	0.397242
	C187	C	0.855650	0.820524	0.615295
	C188	C	0.157825	0.390601	0.884308
	C189	C	0.159893	0.608831	0.130209
	C190	C	0.797045	0.391563	0.130464
	C191	C	0.795212	0.608064	0.881882
	C192	C	0.384359	0.091081	0.600988
	C193	C	0.572057	0.911470	0.600174
	C194	C	0.576450	0.092904	0.407876
	C195	C	0.380228	0.909377	0.407333
	C196	C	0.574791	0.402824	0.096216
	C197	C	0.573047	0.595017	0.918003
	C198	C	0.382288	0.596529	0.095216
	C199	C	0.382597	0.404485	0.915353
	C200	C	0.069294	0.596747	0.408773
	C201	C	0.888132	0.597306	0.602926
	C202	C	0.069228	0.405441	0.602532
	C203	C	0.887771	0.405178	0.409517
	C204	C	0.882297	0.590408	0.102833
	C205	C	0.073917	0.410131	0.103131
	C206	C	0.072623	0.590421	0.910221
	C207	C	0.882961	0.409916	0.909724
	C208	C	0.074602	0.903531	0.596183
	C209	C	0.074258	0.096885	0.417985
	C210	C	0.882090	0.097501	0.595676
	C211	C	0.880526	0.902063	0.415589
	C212	C	0.568281	0.093542	0.910738
	C213	C	0.387974	0.098548	0.105234
	C214	C	0.569412	0.904502	0.104354
	C215	C	0.388667	0.906896	0.911056
	Zn216	Zn	0.478245	0.001096	0.755461
	Zn217	Zn	0.478604	0.001513	0.256704
	Zn218	Zn	0.728878	0.500124	0.006850
	Zn219	Zn	0.227602	0.500384	0.005372
	Zn220	Zn	-0.021424	0.750071	0.506548
	Zn221	Zn	-0.021680	0.251693	0.506644
	Zn222	Zn	-0.021513	0.500717	0.756467
	Zn223	Zn	-0.022041	0.500600	0.256379
	Zn224	Zn	0.478542	0.751476	0.006434
	Zn225	Zn	0.479373	0.249940	0.005566
	Zn226	Zn	0.727960	0.000822	0.505764
	Zn227	Zn	0.228622	0.001019	0.506157
	N228	N	0.390721	0.967253	0.686399
	N229	N	0.567093	0.034040	0.687542
	N230	N	0.564100	0.965720	0.327669
	N231	N	0.391942	0.036544	0.327077
	N232	N	0.659088	0.413041	0.972132
	N233	N	0.658776	0.587780	0.040872
	N234	N	0.296299	0.589518	0.972448
	N235	N	0.298023	0.413352	0.039510
	N236	N	0.943712	0.680147	0.419863
	N237	N	0.014321	0.679125	0.591718
	N238	N	0.942913	0.323502	0.591606
	N239	N	0.013822	0.322482	0.421101
	N240	N	0.943301	0.415752	0.685133
	N241	N	0.012355	0.589398	0.687971
	N242	N	0.943528	0.586904	0.327149
	N243	N	0.012845	0.413314	0.325777
	N244	N	0.388953	0.683700	0.973012
	N245	N	0.564750	0.680552	0.041226
	N246	N	0.567049	0.318993	0.971934
	N247	N	0.392665	0.320984	0.039812
	N248	N	0.657110	0.965486	0.420511
	N249	N	0.657192	0.035934	0.591582
	N250	N	0.299817	0.966193	0.591694
	N251	N	0.299031	0.036435	0.420320
	N252	N	0.890210	0.465995	0.187589
	N253	N	0.065175	0.535040	0.186573
	N254	N	0.065046	0.465595	0.826085
	N255	N	0.890313	0.534623	0.825402
	N256	N	0.158620	0.914208	0.471527
	N257	N	0.158972	0.088429	0.541403
	N258	N	0.798679	0.087529	0.471284
	N259	N	0.797423	0.913050	0.540407
	N260	N	0.444241	0.179537	0.919689
	N261	N	0.514681	0.179495	0.091976
	N262	N	0.443374	0.822768	0.092469
	N263	N	0.512916	0.821086	0.919343
	N264	N	0.443544	0.914770	0.186795
	N265	N	0.513866	0.088657	0.187304
	N266	N	0.444716	0.088047	0.825233
	N267	N	0.512129	0.912674	0.824671
	N268	N	0.890124	0.182692	0.472133
	N269	N	0.064734	0.181296	0.542000
	N270	N	0.065784	0.820327	0.471434
	N271	N	0.891833	0.820619	0.541372
	N272	N	0.156418	0.464856	0.920621
	N273	N	0.158930	0.534559	0.093888
	N274	N	0.798671	0.465381	0.093435
	N275	N	0.797988	0.534416	0.919346
	O276	O	0.417739	1.355849	0.356195
	H277	H	0.425856	1.355554	0.362014
	H278	H	0.426155	1.378509	0.364142
	O279	O	-0.053666	-0.221536	0.224956
	H280	H	-0.035825	-0.193524	0.230628
	H281	H	-0.041882	-0.231662	0.249252
	O282	O	1.138875	-0.035858	1.009961
	H283	H	1.141436	-0.035255	1.022332
	H284	H	1.137552	-0.014866	1.012159
	O285	O	0.450677	0.690773	0.287134
	H286	H	0.423694	0.695544	0.284781
	H287	H	0.449078	0.709867	0.275549
	O288	O	0.923332	0.939846	-0.225722
	H289	H	0.926770	0.918161	-0.224599
	H290	H	0.921677	0.951749	-0.220558
	O291	O	0.262558	0.533859	0.286164
	H292	H	0.266785	0.520072	0.292432
	H293	H	0.244629	0.521921	0.275065
	O294	O	1.268857	0.285044	0.597827
	H295	H	1.275790	0.265096	0.598239
	H296	H	1.275242	0.301367	0.609795
	O297	O	1.011433	0.130681	-0.103808
	H298	H	1.006923	0.132445	-0.101105
	H299	H	1.004123	0.117745	-0.108649
	O300	O	0.202088	0.214503	1.038849
	H301	H	0.202288	0.220533	1.065056
	H302	H	0.208767	0.237109	1.046166
	O303	O	0.247480	0.518269	0.517687
	H304	H	0.249418	0.531302	0.529595
	H305	H	0.251487	0.526390	0.539523
	O306	O	0.679545	0.544361	0.715227
	H307	H	0.698383	0.534029	0.727585
	H308	H	0.650818	0.530285	0.713212
	O309	O	0.480718	0.495826	0.268268
	H310	H	0.489975	0.495469	0.268106
	H311	H	0.499791	0.509551	0.267263
	O312	O	0.255772	0.719196	0.463181
	H313	H	0.251659	0.729207	0.465779
	H314	H	0.242889	0.729900	0.461973
	O315	O	0.773990	1.021328	0.795089
	H316	H	0.772880	1.017642	0.785087
	H317	H	0.768638	1.022828	0.816939
	O318	O	0.542490	0.632788	0.576633
	H319	H	0.543125	0.645652	0.589573
	H320	H	0.525157	0.628384	0.578563
	O321	O	0.536663	0.444156	0.739887
	H322	H	0.517079	0.444025	0.735341
	H323	H	0.516891	0.443186	0.737860
	O324	O	1.175851	0.792909	-0.199693
	H325	H	1.157313	0.823012	-0.198467
	H326	H	1.157002	0.806005	-0.184053
	O327	O	0.186777	0.206287	1.213439
	H328	H	0.152200	0.207487	1.205879
	H329	H	0.210240	0.240084	1.244112
	O330	O	0.525504	0.329474	0.569570
	H331	H	0.535155	0.338183	0.568344
	H332	H	0.526473	0.325919	0.561027
	O333	O	0.801395	0.171239	-0.003434
	H334	H	0.817643	0.159999	-0.034077
	H335	H	0.781465	0.164754	0.008148
	O336	O	0.458750	0.282638	0.726289
	H337	H	0.445688	0.281730	0.721931
	H338	H	0.452294	0.262240	0.733538
	O339	O	1.285074	-0.299647	0.703720
	H340	H	1.278356	-0.303567	0.721252
	H341	H	1.275935	-0.280267	0.715544
	O342	O	0.165119	-0.024620	-0.152136
	H343	H	0.172609	-0.011474	-0.162676
	H344	H	0.161765	-0.006344	-0.156814
	O345	O	-0.491405	0.279576	1.282759
	H346	H	-0.469511	0.266417	1.266975
	H347	H	-0.504312	0.271778	1.279854
	O348	O	-0.227071	0.209611	-0.207336
	H349	H	-0.263813	0.239060	-0.237045
	H350	H	-0.235803	0.181418	-0.183557
	O351	O	1.439430	0.568936	-0.510223
	H352	H	1.440605	0.577628	-0.512389
	H353	H	1.429999	0.572792	-0.505659
	O354	O	-0.000401	-0.064402	1.105346
	H355	H	0.015303	-0.058102	1.128130
	H356	H	0.011225	-0.089021	1.106771
	O357	O	0.991733	0.222054	0.230178
	H358	H	0.989801	0.249903	0.247211
	H359	H	0.980976	0.225531	0.207734
	O360	O	0.203871	0.036141	1.234313
	H361	H	0.197292	0.076128	1.229738
	H362	H	0.234284	0.042762	1.263907
	O363	O	-0.211699	0.160601	0.173203
	H364	H	-0.204080	0.125975	0.173366
	H365	H	-0.196042	0.156649	0.141633
	O366	O	0.670772	0.688978	0.315252
	H367	H	0.651987	0.673439	0.335224
	H368	H	0.651194	0.669165	0.333309
	O369	O	0.435767	0.394536	0.533020
	H370	H	0.445674	0.400346	0.537543
	H371	H	0.438159	0.393760	0.505762
	O372	O	0.956933	0.987375	-0.095698
	H373	H	0.955529	0.994537	-0.092151
	H374	H	0.957736	0.958364	-0.098599
	O375	O	0.980168	-0.143122	0.060452
	H376	H	0.988262	-0.128486	0.054478
	H377	H	1.001116	-0.154144	0.067178
	O378	O	0.763999	0.792956	0.216077
	H379	H	0.736490	0.756893	0.249209
	H380	H	0.815942	0.782896	0.217358
	O381	O	0.096237	0.868803	1.025367
	H382	H	0.116625	0.865209	1.015128
	H383	H	0.088334	0.860256	1.040511
	O384	O	0.940707	0.228327	0.773841
	H385	H	0.917329	0.245671	0.758528
	H386	H	0.910149	0.240724	0.763372
	O387	O	1.013261	0.926589	0.237590
	H388	H	0.999264	0.963013	0.247598
	H389	H	1.043768	0.943469	0.231361
	O390	O	0.757643	0.778395	0.029801
	H391	H	0.735837	0.753772	0.044849
	H392	H	0.766038	0.780202	0.067822
	O393	O	0.493777	0.477024	0.517271
	H394	H	0.503381	0.485705	0.514015
	H395	H	0.486865	0.469184	0.523400
	O396	O	-0.228260	1.164448	1.005309
	H397	H	-0.232708	1.152983	1.018211
	H398	H	-0.242059	1.172045	0.997793
	O399	O	-0.059839	0.206931	1.049966
	H400	H	-0.062795	0.198479	1.041698
	H401	H	-0.057928	0.209010	1.027496
	O402	O	0.074099	0.016625	0.817848
	H403	H	0.076685	0.028197	0.816342
	H404	H	0.057434	0.019293	0.817932
	O405	O	1.260387	0.450925	0.724116
	H406	H	1.258777	0.414513	0.726423
	H407	H	1.241826	0.435803	0.731633
	O408	O	-0.184495	0.028437	0.063730
	H409	H	-0.185597	0.026496	0.068475
	H410	H	-0.176870	0.016161	0.074399
	O411	O	0.747831	0.964191	1.235046
	H412	H	0.739671	0.929132	1.245349
	H413	H	0.729357	0.945981	1.252918
	O414	O	0.271793	0.705971	0.297150
	H415	H	0.260404	0.695786	0.287641
	H416	H	0.270380	0.682085	0.315033
	O417	O	0.691303	0.286937	0.474619
	H418	H	0.714314	0.279249	0.481977
	H419	H	0.699906	0.300506	0.471938
	O420	O	0.308312	0.451836	0.597958
	H421	H	0.324414	0.479091	0.588293
	H422	H	0.296440	0.443137	0.614779
	O423	O	0.018732	0.212610	0.954084
	H424	H	0.010938	0.210004	0.941170
	H425	H	-0.001751	0.214532	0.950228
	O426	O	0.680297	0.721844	0.525569
	H427	H	0.698779	0.746813	0.536327
	H428	H	0.677380	0.717156	0.559549
	O429	O	0.941321	0.770320	0.955855
	H430	H	0.944912	0.772376	0.966965
	H431	H	0.943023	0.767350	0.964435
	O432	O	0.670778	0.305496	0.309602
	H433	H	0.651710	0.302958	0.333716
	H434	H	0.687420	0.281835	0.302584
	O435	O	0.392512	0.548331	0.740768
	H436	H	0.387805	0.571128	0.747484
	H437	H	0.377073	0.535872	0.737999
	O438	O	0.320851	-0.651251	0.647419
	H439	H	0.297260	-0.678091	0.666513
	H440	H	0.333083	-0.652621	0.621774
	O441	O	-0.057680	0.067284	0.242295
	H442	H	-0.075818	0.075550	0.233098
	H443	H	-0.051231	0.094120	0.239851
	O444	O	0.580252	0.484603	0.514992
	H445	H	0.581862	0.487693	0.503413
	H446	H	0.573566	0.498605	0.504734
	O447	O	0.176279	0.799138	0.975435
	H448	H	0.197123	0.783657	0.958977
	H449	H	0.188683	0.822394	0.967490
	O450	O	-0.211531	0.810509	0.814607
	H451	H	-0.199325	0.830229	0.834287
	H452	H	-0.200492	0.824724	0.829566
	O453	O	0.699627	0.437587	0.577913
	H454	H	0.688088	0.456924	0.577113
	H455	H	0.698282	0.453473	0.567631
	O456	O	-0.230276	-0.088093	0.951142
	H457	H	-0.228412	-0.083931	0.964351
	H458	H	-0.231488	-0.107566	0.978276
	O459	O	1.146448	1.111834	-0.195358
	H460	H	1.133038	1.110637	-0.192565
	H461	H	1.128234	1.104120	-0.180390
	O462	O	0.511083	0.573228	0.378328
	H463	H	0.516109	0.581421	0.374480
	H464	H	0.516320	0.576129	0.378658
	O465	O	1.169982	-0.191294	0.192135
	H466	H	1.160644	-0.185912	0.163464
	H467	H	1.175943	-0.203211	0.205911
	O468	O	0.261413	0.394143	0.474373
	H469	H	0.255330	0.389773	0.490356
	H470	H	0.262198	0.409415	0.481132
	O471	O	0.442615	0.722364	0.470644
	H472	H	0.436510	0.731713	0.481433
	H473	H	0.445578	0.722495	0.483130
	O474	O	0.686033	0.711131	0.715778
	H475	H	0.709235	0.737029	0.746431
	H476	H	0.680773	0.669547	0.721030
	O477	O	0.599835	0.522836	1.470290
	H478	H	0.604395	0.544472	1.476983
	H479	H	0.579778	0.522741	1.480722
	O480	O	0.698652	0.472939	0.281642
	H481	H	0.708666	0.453723	0.270406
	H482	H	0.709689	0.442357	0.271322
	O483	O	0.577264	0.627226	0.456689
	H484	H	0.560519	0.623832	0.455796
	H485	H	0.590330	0.636980	0.456340
	O486	O	0.665931	0.309631	0.699437
	H487	H	0.648901	0.336278	0.688317
	H488	H	0.643535	0.322943	0.680589
	O489	O	1.004344	0.782099	-0.204307
	H490	H	0.991973	0.774503	-0.202088
	H491	H	1.000971	0.765467	-0.205327
	O492	O	0.207544	0.008137	0.015141
	H493	H	0.205776	0.026481	0.032968
	H494	H	0.209951	0.018577	0.025055
	O495	O	0.022179	1.105757	1.083383
	H496	H	0.014939	1.101888	1.090197
	H497	H	0.025755	1.092861	1.068709
	O498	O	1.287975	1.316076	1.312208
	H499	H	1.299383	1.335343	1.336453
	H500	H	1.310991	1.332977	1.326346
	O501	O	0.501355	0.721180	0.728991
	H502	H	0.523544	0.728666	0.733203
	H503	H	0.505825	0.734594	0.742732
