data_Molecule from HDF5

_cell_length_a		16.135082
_cell_length_b		16.066487
_cell_length_c		16.510910
_cell_angle_alpha	89.960913
_cell_angle_beta	89.829489
_cell_angle_gamma	90.176921
_symmetry_space_group_name_H-M	'P 1'
_symmetry_Int_Tables_number		1

loop_
	_symmetry_equiv_pos_as_xyz
	x,y,z

loop_
	_atom_site_label
	_atom_site_type_symbol
	_atom_site_fract_x
	_atom_site_fract_y
	_atom_site_fract_z
	H0	H	0.368368	0.829723	0.718377
	H1	H	0.575951	0.157667	0.718387
	H2	H	0.576720	0.830790	0.284382
	H3	H	0.368562	0.156387	0.283772
	H4	H	0.689933	0.393019	0.840659
	H5	H	0.689791	0.595258	0.163532
	H6	H	0.257261	0.593118	0.840001
	H7	H	0.253508	0.392010	0.162809
	H8	H	0.807781	0.708084	0.403485
	H9	H	0.138381	0.708079	0.596261
	H10	H	0.807856	0.286117	0.596447
	H11	H	0.139262	0.285534	0.406212
	H12	H	0.811105	0.389404	0.718787
	H13	H	0.135791	0.600231	0.717939
	H14	H	0.811407	0.600610	0.281498
	H15	H	0.137511	0.393946	0.285017
	H16	H	0.373793	0.709817	0.839988
	H17	H	0.572113	0.711542	0.163012
	H18	H	0.571865	0.278753	0.839488
	H19	H	0.373664	0.278405	0.163794
	H20	H	0.687123	0.830488	0.403080
	H21	H	0.681316	0.162264	0.596641
	H22	H	0.257559	0.828713	0.600482
	H23	H	0.264321	0.161194	0.406982
	H24	H	0.870432	0.331905	0.219412
	H25	H	0.079335	0.658140	0.218269
	H26	H	0.074483	0.330934	0.783689
	H27	H	0.870353	0.657829	0.784196
	H28	H	0.188872	0.896988	0.340035
	H29	H	0.187643	0.094101	0.663134
	H30	H	0.756560	0.097674	0.340200
	H31	H	0.755099	0.896686	0.662646
	H32	H	0.306000	0.203071	0.907081
	H33	H	0.637821	0.205786	0.097017
	H34	H	0.307003	0.781064	0.098662
	H35	H	0.638049	0.782851	0.906039
	H36	H	0.309938	0.886679	0.220650
	H37	H	0.634005	0.098602	0.219418
	H38	H	0.308738	0.094308	0.785123
	H39	H	0.635667	0.889941	0.782887
	H40	H	0.875688	0.211533	0.340034
	H41	H	0.068132	0.209774	0.664281
	H42	H	0.073263	0.780731	0.339575
	H43	H	0.871676	0.777550	0.662026
	H44	H	0.181526	0.327187	0.905165
	H45	H	0.185465	0.659868	0.096542
	H46	H	0.760324	0.328426	0.099797
	H47	H	0.762212	0.660324	0.905995
	H48	H	0.382049	0.110035	0.587727
	H49	H	0.565842	0.874575	0.595389
	H50	H	0.567380	0.115538	0.403514
	H51	H	0.376881	0.874388	0.411918
	H52	H	0.561768	0.393295	0.117813
	H53	H	0.562894	0.592888	0.886491
	H54	H	0.372532	0.584416	0.117153
	H55	H	0.381429	0.399693	0.887668
	H56	H	0.092735	0.587120	0.401471
	H57	H	0.859293	0.574832	0.595837
	H58	H	0.091773	0.406909	0.594000
	H59	H	0.856143	0.408302	0.408253
	H60	H	0.091932	0.405487	0.596772
	H61	H	0.851502	0.590414	0.601200
	H62	H	0.091021	0.591693	0.411646
	H63	H	0.855039	0.405014	0.405460
	H64	H	0.382498	0.582838	0.113167
	H65	H	0.574019	0.587315	0.886262
	H66	H	0.573353	0.400860	0.118784
	H67	H	0.376288	0.396522	0.885110
	H68	H	0.555368	0.111381	0.405450
	H69	H	0.557549	0.877974	0.594908
	H70	H	0.375652	0.114764	0.598795
	H71	H	0.381373	0.873913	0.404273
	H72	H	0.879265	0.613913	0.093872
	H73	H	0.050531	0.382236	0.087160
	H74	H	0.071069	0.612980	0.911639
	H75	H	0.893533	0.378844	0.907956
	H76	H	0.066148	0.897737	0.617257
	H77	H	0.061372	0.096571	0.386893
	H78	H	0.875262	0.087436	0.616700
	H79	H	0.882941	0.908016	0.388937
	H80	H	0.591402	0.083197	0.902876
	H81	H	0.350351	0.085506	0.105716
	H82	H	0.592269	0.901815	0.097348
	H83	H	0.357748	0.907252	0.912057
	H84	H	0.588623	0.903725	0.089144
	H85	H	0.353501	0.091399	0.086882
	H86	H	0.592248	0.088173	0.907549
	H87	H	0.353651	0.905374	0.900899
	H88	H	0.879410	0.090715	0.616348
	H89	H	0.076268	0.094209	0.383015
	H90	H	0.068558	0.905892	0.616138
	H91	H	0.881773	0.899724	0.386761
	H92	H	0.065696	0.616077	0.899951
	H93	H	0.074464	0.373485	0.089030
	H94	H	0.887813	0.612358	0.095970
	H95	H	0.875629	0.377293	0.916849
	H96	H	0.388250	0.110967	0.599555
	H97	H	0.562770	0.877625	0.588671
	H98	H	0.563374	0.111247	0.414465
	H99	H	0.386107	0.877489	0.410889
	H100	H	0.561756	0.407086	0.113674
	H101	H	0.564514	0.580656	0.889774
	H102	H	0.379793	0.592391	0.117554
	H103	H	0.375430	0.402432	0.887295
	H104	H	0.087906	0.580495	0.409874
	H105	H	0.856737	0.588620	0.584900
	H106	H	0.092217	0.403515	0.594646
	H107	H	0.856236	0.404295	0.409942
	H108	H	0.885159	0.610745	0.087971
	H109	H	0.059823	0.372971	0.108968
	H110	H	0.058564	0.610870	0.908655
	H111	H	0.877510	0.371135	0.897746
	H112	H	0.060803	0.903539	0.614399
	H113	H	0.067874	0.081822	0.388920
	H114	H	0.875226	0.093233	0.618172
	H115	H	0.876251	0.905387	0.386790
	H116	H	0.588304	0.081827	0.909297
	H117	H	0.358795	0.071970	0.092356
	H118	H	0.587755	0.908988	0.095689
	H119	H	0.352730	0.895706	0.908810
	C120	C	0.351313	0.003052	0.624060
	C121	C	0.592279	0.985758	0.621940
	C122	C	0.593327	0.003994	0.379018
	C123	C	0.352210	0.984670	0.380708
	C124	C	0.595090	0.371185	0.010007
	C125	C	0.595759	0.616820	0.993955
	C126	C	0.350188	0.615905	0.009702
	C127	C	0.348898	0.370401	0.993252
	C128	C	-0.017621	0.617076	0.378457
	C129	C	0.964019	0.616255	0.622610
	C130	C	-0.016862	0.375091	0.623118
	C131	C	0.964685	0.375782	0.379533
	C132	C	0.853371	0.503480	0.122431
	C133	C	0.093186	0.485441	0.122687
	C134	C	0.093164	0.503332	0.879129
	C135	C	0.852333	0.484839	0.879705
	C136	C	0.095085	0.873309	0.509609
	C137	C	0.095514	0.118545	0.493240
	C138	C	0.849202	0.119657	0.510233
	C139	C	0.850349	0.874231	0.493425
	C140	C	0.481399	0.114009	0.878758
	C141	C	0.462912	0.114109	0.123388
	C142	C	0.481119	0.873143	0.123126
	C143	C	0.463398	0.872789	0.879247
	C144	C	0.350006	0.878895	0.679956
	C145	C	0.593257	0.109272	0.678877
	C146	C	0.594714	0.880093	0.322980
	C147	C	0.350978	0.107883	0.323388
	C148	C	0.651404	0.373025	0.888838
	C149	C	0.651686	0.615299	0.115124
	C150	C	0.294994	0.613656	0.888270
	C151	C	0.292229	0.371997	0.114613
	C152	C	0.857989	0.672062	0.381899
	C153	C	0.088358	0.671559	0.618282
	C154	C	0.857900	0.321351	0.618806
	C155	C	0.089343	0.321311	0.383981
	C156	C	0.859597	0.373173	0.679440
	C157	C	0.087145	0.617535	0.678697
	C158	C	0.859662	0.618320	0.321294
	C159	C	0.088453	0.375532	0.323844
	C160	C	0.353218	0.671677	0.888212
	C161	C	0.593188	0.673307	0.114906
	C162	C	0.592517	0.315864	0.888294
	C163	C	0.351745	0.315233	0.115214
	C164	C	0.649968	0.879900	0.381964
	C165	C	0.645983	0.111552	0.618593
	C166	C	0.295218	0.878367	0.620957
	C167	C	0.299120	0.110311	0.384814
	C168	C	0.852351	0.380248	0.180050
	C169	C	0.096278	0.609245	0.179119
	C170	C	0.092811	0.379718	0.822813
	C171	C	0.851674	0.608841	0.823284
	C172	C	0.151363	0.876022	0.388572
	C173	C	0.149988	0.115292	0.614779
	C174	C	0.794626	0.117595	0.388546
	C175	C	0.793792	0.875974	0.614475
	C176	C	0.356354	0.167651	0.884237
	C177	C	0.587643	0.169474	0.119282
	C178	C	0.356834	0.817471	0.119868
	C179	C	0.588282	0.818791	0.883682
	C180	C	0.358361	0.870096	0.180652
	C181	C	0.585841	0.115700	0.179634
	C182	C	0.357665	0.113178	0.823818
	C183	C	0.586925	0.872087	0.822687
	C184	C	0.853919	0.174356	0.388438
	C185	C	0.090447	0.172685	0.615568
	C186	C	0.093613	0.818344	0.388135
	C187	C	0.851335	0.816486	0.613965
	C188	C	0.146072	0.377733	0.883211
	C189	C	0.148839	0.610188	0.118451
	C190	C	0.797474	0.378668	0.120609
	C191	C	0.797768	0.610020	0.883557
	C192	C	0.375030	0.089565	0.601964
	C193	C	0.568876	0.899318	0.599390
	C194	C	0.569166	0.090256	0.401170
	C195	C	0.374782	0.897780	0.402681
	C196	C	0.572397	0.393807	0.094742
	C197	C	0.573636	0.593827	0.909536
	C198	C	0.372007	0.593320	0.093971
	C199	C	0.371150	0.392826	0.908887
	C200	C	0.068330	0.593421	0.401008
	C201	C	0.877860	0.591831	0.600462
	C202	C	0.069452	0.398549	0.601465
	C203	C	0.878285	0.399153	0.401278
	C204	C	0.877043	0.590010	0.099347
	C205	C	0.068815	0.398750	0.101372
	C206	C	0.071430	0.590713	0.900571
	C207	C	0.875293	0.398250	0.901193
	C208	C	0.071802	0.895869	0.594255
	C209	C	0.074668	0.097264	0.408159
	C210	C	0.870429	0.097240	0.595154
	C211	C	0.873549	0.897578	0.409133
	C212	C	0.568183	0.091157	0.900215
	C213	C	0.376771	0.090185	0.101366
	C214	C	0.567229	0.897614	0.100610
	C215	C	0.377062	0.895827	0.901123
	Zn216	Zn	0.472816	-0.006816	0.750210
	Zn217	Zn	0.471913	-0.006534	0.252094
	Zn218	Zn	0.725175	0.493967	0.001804
	Zn219	Zn	0.219669	0.493365	0.001238
	Zn220	Zn	-0.026984	0.743847	0.500422
	Zn221	Zn	-0.027051	0.249126	0.501854
	Zn222	Zn	-0.026883	0.494668	0.750724
	Zn223	Zn	-0.026393	0.495882	0.250620
	Zn224	Zn	0.472205	0.746613	0.002201
	Zn225	Zn	0.472004	0.241694	0.001699
	Zn226	Zn	0.719673	-0.003245	0.500993
	Zn227	Zn	0.225363	-0.005213	0.501999
	N228	N	0.384395	0.957280	0.681773
	N229	N	0.560730	0.030076	0.681144
	N230	N	0.560464	0.958384	0.320958
	N231	N	0.383175	0.028691	0.320531
	N232	N	0.653317	0.406565	0.965545
	N233	N	0.653441	0.580755	0.038746
	N234	N	0.292939	0.579552	0.964581
	N235	N	0.290145	0.405535	0.037870
	N236	N	0.935372	0.671336	0.416729
	N237	N	0.010713	0.670977	0.584232
	N238	N	0.935590	0.322167	0.584429
	N239	N	0.011396	0.321246	0.418026
	N240	N	0.938424	0.406048	0.682293
	N241	N	0.008553	0.583729	0.681625
	N242	N	0.938029	0.584990	0.318919
	N243	N	0.009791	0.408502	0.320915
	N244	N	0.386715	0.673339	0.964670
	N245	N	0.559160	0.674396	0.038717
	N246	N	0.558215	0.314414	0.964682
	N247	N	0.386073	0.313851	0.038871
	N248	N	0.649405	0.958011	0.416015
	N249	N	0.645685	0.033708	0.583672
	N250	N	0.295782	0.956563	0.586888
	N251	N	0.299568	0.032640	0.419781
	N252	N	0.886209	0.458982	0.181490
	N253	N	0.062120	0.530661	0.181668
	N254	N	0.060812	0.458938	0.820147
	N255	N	0.884982	0.530151	0.820592
	N256	N	0.152383	0.909472	0.465240
	N257	N	0.153349	0.082718	0.537870
	N258	N	0.791553	0.084389	0.465252
	N259	N	0.792875	0.911065	0.538470
	N260	N	0.434553	0.168535	0.917736
	N261	N	0.510171	0.168568	0.084754
	N262	N	0.434310	0.819222	0.084858
	N263	N	0.510572	0.818844	0.918032
	N264	N	0.436669	0.904137	0.182803
	N265	N	0.507358	0.082037	0.182401
	N266	N	0.436477	0.080864	0.820385
	N267	N	0.508264	0.904945	0.819690
	N268	N	0.887249	0.175715	0.465076
	N269	N	0.057480	0.175146	0.538819
	N270	N	0.059412	0.816380	0.464474
	N271	N	0.885660	0.815220	0.537666
	N272	N	0.146785	0.455762	0.917459
	N273	N	0.147057	0.532322	0.084030
	N274	N	0.797965	0.456351	0.085574
	N275	N	0.797944	0.532063	0.917921
	O276	O	0.622894	-0.383604	1.552882
	H277	H	0.624465	-0.383575	1.554869
	H278	H	0.615109	-0.370094	1.548671
	O279	O	0.471591	0.539236	0.407204
	H280	H	0.465335	0.541563	0.403107
	H281	H	0.462543	0.551103	0.409814
	O282	O	0.559871	1.412719	0.454362
	H283	H	0.568657	1.419610	0.464076
	H284	H	0.566237	1.400358	0.441169
	O285	O	0.532088	0.498341	0.599126
	H286	H	0.543098	0.506489	0.611004
	H287	H	0.540293	0.489412	0.611926
	O288	O	0.561628	0.419278	0.538387
	H289	H	0.564369	0.420457	0.537752
	H290	H	0.563326	0.428842	0.518315
	O291	O	0.516359	-0.513357	1.417589
	H292	H	0.502091	-0.515460	1.421928
	H293	H	0.507761	-0.505584	1.419676
	O294	O	1.054638	1.047670	0.100573
	H295	H	1.056279	1.048128	0.097592
	H296	H	1.063519	1.048677	0.094856
	O297	O	0.889464	0.890559	0.002854
	H298	H	0.881449	0.894476	0.000541
	H299	H	0.888001	0.891311	0.007410
	O300	O	0.889943	0.959167	0.166338
	H301	H	0.885558	0.961855	0.176397
	H302	H	0.896730	0.944459	0.166086
	O303	O	0.469874	0.510506	0.436748
	H304	H	0.474964	0.513921	0.429670
	H305	H	0.463885	0.515373	0.451859
	O306	O	0.418300	0.483488	0.440957
	H307	H	0.412471	0.478199	0.449757
	H308	H	0.419434	0.482480	0.438220
	O309	O	0.461079	0.409636	0.642549
	H310	H	0.457077	0.419660	0.653060
	H311	H	0.459431	0.403079	0.644110
	O312	O	1.331345	0.595313	1.456011
	H313	H	1.315359	0.579715	1.458750
	H314	H	1.328624	0.612190	1.465330
	O315	O	1.090043	0.884300	-0.087130
	H316	H	1.084253	0.883675	-0.084812
	H317	H	1.098815	0.885470	-0.087728
	O318	O	1.006787	-0.063922	-0.150114
	H319	H	1.001233	-0.063556	-0.142522
	H320	H	0.997820	-0.070814	-0.156718
	O321	O	0.398448	0.521214	0.362416
	H322	H	0.400433	0.516421	0.367969
	H323	H	0.385473	0.518270	0.354636
	O324	O	-0.061535	0.902822	1.024588
	H325	H	-0.057313	0.911182	1.031123
	H326	H	-0.061080	0.909520	1.020908
	O327	O	-0.074974	1.065873	0.921685
	H328	H	-0.077543	1.067008	0.925500
	H329	H	-0.076422	1.061598	0.929716
	O330	O	-0.525875	0.600865	0.491331
	H331	H	-0.522968	0.600158	0.485525
	H332	H	-0.518897	0.594730	0.495007
	O333	O	0.443821	0.346078	0.423364
	H334	H	0.460581	0.346172	0.412986
	H335	H	0.451703	0.345452	0.445389
	O336	O	0.017824	0.095797	0.059135
	H337	H	0.012657	0.109222	0.058450
	H338	H	0.036769	0.086362	0.062545
	O339	O	-0.055855	0.018754	0.096330
	H340	H	-0.045740	0.026631	0.106693
	H341	H	-0.072978	0.025235	0.096084
	O342	O	0.539893	0.569568	0.632575
	H343	H	0.549805	0.568431	0.638382
	H344	H	0.541965	0.571152	0.646113
	O345	O	0.435649	0.500202	1.382012
	H346	H	0.425878	0.498100	1.411754
	H347	H	0.415683	0.495944	1.368958
	O348	O	0.857327	1.121184	1.026522
	H349	H	0.872585	1.126707	1.033169
	H350	H	0.862068	1.125153	1.041588
	O351	O	0.466038	0.489261	0.593882
	H352	H	0.469032	0.481980	0.590553
	H353	H	0.477369	0.502447	0.590605
	O354	O	0.882957	1.009151	-0.970448
	H355	H	0.880641	1.006954	-0.969871
	H356	H	0.890480	1.011931	-0.973537
	O357	O	0.972889	1.036648	0.972859
	H358	H	0.966610	1.042315	0.966816
	H359	H	0.978041	1.038611	0.984950
	O360	O	0.998283	-0.061496	1.084190
	H361	H	0.993407	-0.069671	1.077828
	H362	H	1.007291	-0.066566	1.090157
	O363	O	-0.022798	0.955113	0.068101
	H364	H	-0.023490	0.956549	0.073196
	H365	H	-0.021445	0.959351	0.072613
	O366	O	0.302122	0.497643	0.567899
	H367	H	0.301401	0.494230	0.559722
	H368	H	0.297504	0.491431	0.582239
	O369	O	1.078623	-0.056847	-0.038385
	H370	H	1.080577	-0.059608	-0.037617
	H371	H	1.076730	-0.071475	-0.051421
	O372	O	0.618829	0.409957	0.440132
	H373	H	0.620300	0.410111	0.437184
	H374	H	0.610177	0.417747	0.435699
	O375	O	1.019305	0.071354	0.870204
	H376	H	1.023257	0.063121	0.873477
	H377	H	1.006573	0.056857	0.868281
	O378	O	-0.513030	1.466597	-0.374104
	H379	H	-0.498424	1.474667	-0.371904
	H380	H	-0.524136	1.463038	-0.363874
	O381	O	0.390122	0.513740	0.654622
	H382	H	0.380377	0.500167	0.672924
	H383	H	0.389885	0.508667	0.652985
	O384	O	1.887625	1.073121	-0.997661
	H385	H	1.880972	1.083265	-0.990368
	H386	H	1.881921	1.076382	-1.001400
	O387	O	0.949468	-0.091726	1.023503
	H388	H	0.942646	-0.084866	1.040339
	H389	H	0.940075	-0.095594	1.027135
	O390	O	1.364492	0.396808	0.483876
	H391	H	1.358469	0.393587	0.492786
	H392	H	1.373646	0.391224	0.488869
	O393	O	1.063106	1.053195	0.053671
	H394	H	1.060723	1.051411	0.060057
	H395	H	1.066757	1.058815	0.059985
