data_Molecule from HDF5

_cell_length_a		16.198398
_cell_length_b		16.312108
_cell_length_c		16.285633
_cell_angle_alpha	90.266489
_cell_angle_beta	89.831754
_cell_angle_gamma	89.943234
_symmetry_space_group_name_H-M	'P 1'
_symmetry_Int_Tables_number		1

loop_
	_symmetry_equiv_pos_as_xyz
	x,y,z

loop_
	_atom_site_label
	_atom_site_type_symbol
	_atom_site_fract_x
	_atom_site_fract_y
	_atom_site_fract_z
	H0	H	0.404300	0.842998	0.715309
	H1	H	0.600514	0.170490	0.714642
	H2	H	0.602376	0.843543	0.284117
	H3	H	0.403869	0.170002	0.286093
	H4	H	0.717574	0.406985	0.835829
	H5	H	0.716540	0.603390	0.164739
	H6	H	0.290787	0.603016	0.836514
	H7	H	0.289331	0.409075	0.164036
	H8	H	0.840143	0.720941	0.401805
	H9	H	0.168368	0.721113	0.597600
	H10	H	0.839275	0.295309	0.596139
	H11	H	0.167898	0.291051	0.399326
	H12	H	0.839665	0.409187	0.712689
	H13	H	0.168388	0.606284	0.713787
	H14	H	0.839428	0.603862	0.287170
	H15	H	0.168902	0.407820	0.285633
	H16	H	0.405314	0.720351	0.836417
	H17	H	0.602546	0.721700	0.164301
	H18	H	0.603103	0.290555	0.836754
	H19	H	0.403387	0.291064	0.163318
	H20	H	0.717727	0.842941	0.400850
	H21	H	0.715077	0.170779	0.597904
	H22	H	0.290056	0.842409	0.597157
	H23	H	0.290344	0.170437	0.404315
	H24	H	0.905019	0.342558	0.213620
	H25	H	0.102305	0.669277	0.214887
	H26	H	0.102685	0.343439	0.783127
	H27	H	0.905219	0.670002	0.786267
	H28	H	0.218521	0.907591	0.336406
	H29	H	0.215454	0.103881	0.664609
	H30	H	0.790428	0.102692	0.335786
	H31	H	0.789992	0.911514	0.664521
	H32	H	0.339639	0.220121	0.903058
	H33	H	0.668570	0.219751	0.098013
	H34	H	0.339029	0.793511	0.098979
	H35	H	0.668631	0.792758	0.901860
	H36	H	0.338913	0.909207	0.213717
	H37	H	0.667721	0.105957	0.214873
	H38	H	0.338650	0.104249	0.787830
	H39	H	0.668630	0.908619	0.786041
	H40	H	0.905481	0.219358	0.335422
	H41	H	0.101585	0.222476	0.663588
	H42	H	0.103644	0.790804	0.336559
	H43	H	0.902668	0.791700	0.663453
	H44	H	0.219489	0.342725	0.899824
	H45	H	0.217625	0.669692	0.098519
	H46	H	0.790523	0.342151	0.096212
	H47	H	0.790123	0.670053	0.903685
	H48	H	0.411630	0.122729	0.598130
	H49	H	0.602359	0.887350	0.596732
	H50	H	0.593227	0.126339	0.395490
	H51	H	0.409729	0.893363	0.416509
	H52	H	0.594447	0.408001	0.117050
	H53	H	0.595170	0.604337	0.882848
	H54	H	0.402736	0.598070	0.118902
	H55	H	0.410239	0.413029	0.883749
	H56	H	0.120580	0.601560	0.409944
	H57	H	0.886974	0.600532	0.592153
	H58	H	0.124630	0.402706	0.589923
	H59	H	0.885370	0.413227	0.402237
	H60	H	0.116807	0.419869	0.581372
	H61	H	0.887173	0.598796	0.593148
	H62	H	0.120808	0.595793	0.406406
	H63	H	0.885287	0.409392	0.406155
	H64	H	0.416651	0.596168	0.113447
	H65	H	0.601690	0.597421	0.883023
	H66	H	0.602645	0.413800	0.118322
	H67	H	0.413840	0.414561	0.884533
	H68	H	0.587079	0.118012	0.414817
	H69	H	0.590105	0.890744	0.596232
	H70	H	0.410392	0.121913	0.592556
	H71	H	0.402866	0.885733	0.400358
	H72	H	0.908260	0.625258	0.102447
	H73	H	0.085657	0.394416	0.086133
	H74	H	0.100295	0.623103	0.907239
	H75	H	0.920108	0.393732	0.907942
	H76	H	0.092735	0.911549	0.615979
	H77	H	0.099017	0.094084	0.384323
	H78	H	0.899327	0.101072	0.619011
	H79	H	0.904619	0.915211	0.382110
	H80	H	0.621586	0.100408	0.906354
	H81	H	0.387350	0.101781	0.089694
	H82	H	0.619908	0.913034	0.088356
	H83	H	0.384374	0.909175	0.903614
	H84	H	0.620047	0.917226	0.094026
	H85	H	0.387865	0.095221	0.093247
	H86	H	0.620368	0.099103	0.907143
	H87	H	0.387256	0.911011	0.911674
	H88	H	0.914248	0.094963	0.613443
	H89	H	0.092110	0.100220	0.384650
	H90	H	0.098280	0.910777	0.618081
	H91	H	0.915206	0.916619	0.386253
	H92	H	0.095854	0.622315	0.903969
	H93	H	0.108275	0.388576	0.084616
	H94	H	0.916849	0.619694	0.092747
	H95	H	0.902905	0.388615	0.911331
	H96	H	0.406125	0.124482	0.596729
	H97	H	0.596963	0.891618	0.586405
	H98	H	0.608165	0.124934	0.411859
	H99	H	0.420780	0.891536	0.401167
	H100	H	0.593729	0.417404	0.114873
	H101	H	0.593055	0.596462	0.886578
	H102	H	0.412576	0.609541	0.118734
	H103	H	0.413121	0.410491	0.883560
	H104	H	0.122549	0.601329	0.403394
	H105	H	0.885828	0.601245	0.594556
	H106	H	0.123306	0.419627	0.601244
	H107	H	0.886877	0.413939	0.407215
	H108	H	0.903875	0.623103	0.088709
	H109	H	0.096623	0.386217	0.104541
	H110	H	0.094720	0.621873	0.909809
	H111	H	0.909003	0.386511	0.894323
	H112	H	0.096666	0.916366	0.616065
	H113	H	0.100335	0.103227	0.381322
	H114	H	0.913189	0.110728	0.618583
	H115	H	0.911930	0.906612	0.382606
	H116	H	0.621103	0.097853	0.905650
	H117	H	0.385595	0.101256	0.096439
	H118	H	0.622617	0.910374	0.094749
	H119	H	0.386989	0.917265	0.905723
	C120	C	0.381139	0.014959	0.623120
	C121	C	0.624163	0.998322	0.621700
	C122	C	0.624976	0.014827	0.378156
	C123	C	0.382073	0.998350	0.378445
	C124	C	0.625387	0.384442	0.008483
	C125	C	0.625352	0.628229	0.992374
	C126	C	0.382348	0.628796	0.008680
	C127	C	0.382653	0.384479	0.991880
	C128	C	0.012633	0.627453	0.378528
	C129	C	0.995459	0.628785	0.621545
	C130	C	0.012726	0.386493	0.619311
	C131	C	0.995121	0.384239	0.377241
	C132	C	0.881721	0.514450	0.121943
	C133	C	0.125132	0.497692	0.120830
	C134	C	0.126452	0.514842	0.877354
	C135	C	0.881982	0.497949	0.877462
	C136	C	0.125052	0.884626	0.508330
	C137	C	0.125246	0.128244	0.491685
	C138	C	0.881540	0.128967	0.508066
	C139	C	0.881605	0.884584	0.491679
	C140	C	0.512376	0.127322	0.878932
	C141	C	0.495388	0.128157	0.121690
	C142	C	0.512082	0.885598	0.120996
	C143	C	0.495085	0.884550	0.878436
	C144	C	0.384296	0.891524	0.677100
	C145	C	0.621273	0.121584	0.676926
	C146	C	0.622956	0.892339	0.322055
	C147	C	0.384186	0.121310	0.324360
	C148	C	0.679820	0.387010	0.884859
	C149	C	0.679366	0.624609	0.115715
	C150	C	0.328473	0.624213	0.885300
	C151	C	0.327037	0.388001	0.115136
	C152	C	0.888929	0.682510	0.381352
	C153	C	0.119195	0.683438	0.618465
	C154	C	0.888459	0.332692	0.616552
	C155	C	0.119090	0.329277	0.379563
	C156	C	0.888717	0.389160	0.674440
	C157	C	0.119142	0.626253	0.676003
	C158	C	0.888728	0.624561	0.324303
	C159	C	0.119637	0.387208	0.322847
	C160	C	0.385307	0.682605	0.885540
	C161	C	0.623009	0.683744	0.115442
	C162	C	0.623202	0.328795	0.885435
	C163	C	0.383944	0.329653	0.114749
	C164	C	0.680013	0.891979	0.380212
	C165	C	0.678258	0.121791	0.618885
	C166	C	0.327277	0.891354	0.618730
	C167	C	0.327589	0.121573	0.383274
	C168	C	0.884983	0.391238	0.175723
	C169	C	0.122620	0.620649	0.176732
	C170	C	0.123903	0.392026	0.821404
	C171	C	0.884741	0.621066	0.823718
	C172	C	0.180346	0.887415	0.385039
	C173	C	0.178467	0.125044	0.615439
	C174	C	0.827361	0.124482	0.384815
	C175	C	0.827333	0.889566	0.615467
	C176	C	0.388445	0.182224	0.882256
	C177	C	0.619213	0.182810	0.118907
	C178	C	0.387982	0.831161	0.118790
	C179	C	0.619422	0.829978	0.881016
	C180	C	0.387989	0.888406	0.176131
	C181	C	0.618732	0.126301	0.177050
	C182	C	0.388025	0.124274	0.825245
	C183	C	0.619574	0.887840	0.823839
	C184	C	0.885041	0.182294	0.384540
	C185	C	0.122430	0.184214	0.614755
	C186	C	0.123228	0.829533	0.385073
	C187	C	0.883062	0.829845	0.614817
	C188	C	0.181508	0.391619	0.879535
	C189	C	0.179639	0.620981	0.118620
	C190	C	0.827857	0.390929	0.117502
	C191	C	0.827325	0.620981	0.881860
	C192	C	0.402891	0.100779	0.602098
	C193	C	0.602860	0.912019	0.599767
	C194	C	0.602700	0.100923	0.400729
	C195	C	0.404592	0.912334	0.399754
	C196	C	0.603390	0.406441	0.094482
	C197	C	0.603171	0.606034	0.906234
	C198	C	0.404150	0.607480	0.094970
	C199	C	0.405646	0.406337	0.906142
	C200	C	0.099075	0.605907	0.400118
	C201	C	0.908889	0.606702	0.599753
	C202	C	0.099245	0.407801	0.597278
	C203	C	0.908442	0.405763	0.398850
	C204	C	0.903048	0.600398	0.100890
	C205	C	0.103238	0.411995	0.098369
	C206	C	0.103710	0.600373	0.900288
	C207	C	0.904230	0.411746	0.898379
	C208	C	0.102637	0.906702	0.594352
	C209	C	0.103452	0.105893	0.405626
	C210	C	0.902704	0.108400	0.594772
	C211	C	0.904186	0.906223	0.405980
	C212	C	0.598800	0.105516	0.900076
	C213	C	0.409130	0.105896	0.099621
	C214	C	0.598542	0.907078	0.098853
	C215	C	0.408606	0.906105	0.900477
	Zn216	Zn	0.503650	0.006150	0.750857
	Zn217	Zn	0.503802	0.006928	0.249400
	Zn218	Zn	0.753562	0.505940	-0.000504
	Zn219	Zn	0.254328	0.506257	-0.000083
	Zn220	Zn	0.003845	0.756316	0.499791
	Zn221	Zn	0.004023	0.257124	0.499141
	Zn222	Zn	0.004071	0.506870	0.748665
	Zn223	Zn	0.004092	0.505612	0.250200
	Zn224	Zn	0.503827	0.757399	0.000353
	Zn225	Zn	0.504200	0.255875	0.000547
	Zn226	Zn	0.752746	0.006716	0.500284
	Zn227	Zn	0.253557	0.006234	0.500690
	N228	N	0.416978	0.969253	0.680014
	N229	N	0.588576	0.043836	0.678727
	N230	N	0.589722	0.969863	0.320705
	N231	N	0.417470	0.043735	0.321312
	N232	N	0.681235	0.420889	0.962222
	N233	N	0.680893	0.590899	0.038165
	N234	N	0.326756	0.591398	0.962936
	N235	N	0.326344	0.421537	0.037694
	N236	N	0.967016	0.684511	0.414327
	N237	N	0.040997	0.685337	0.585498
	N238	N	0.966488	0.330684	0.583147
	N239	N	0.040883	0.327439	0.412607
	N240	N	0.967047	0.421985	0.676327
	N241	N	0.041077	0.593016	0.677953
	N242	N	0.966450	0.590744	0.322706
	N243	N	0.041608	0.420597	0.321343
	N244	N	0.418238	0.685443	0.963403
	N245	N	0.589947	0.685896	0.037720
	N246	N	0.589867	0.327224	0.963345
	N247	N	0.417465	0.327146	0.037075
	N248	N	0.681428	0.969320	0.414573
	N249	N	0.680024	0.044238	0.585027
	N250	N	0.325161	0.968957	0.585960
	N251	N	0.326260	0.043976	0.416049
	N252	N	0.917750	0.469041	0.178613
	N253	N	0.089468	0.543090	0.178150
	N254	N	0.090476	0.469546	0.819848
	N255	N	0.918102	0.543488	0.820990
	N256	N	0.181422	0.920977	0.462786
	N257	N	0.180442	0.091111	0.537903
	N258	N	0.825170	0.091997	0.462641
	N259	N	0.826019	0.922962	0.538065
	N260	N	0.466681	0.184222	0.914951
	N261	N	0.541368	0.184087	0.085236
	N262	N	0.466115	0.829142	0.085499
	N263	N	0.541240	0.827824	0.914151
	N264	N	0.465918	0.921818	0.177431
	N265	N	0.540859	0.092995	0.178684
	N266	N	0.465891	0.090832	0.823199
	N267	N	0.541304	0.920672	0.821855
	N268	N	0.918070	0.185028	0.462289
	N269	N	0.089750	0.186184	0.536825
	N270	N	0.089559	0.827646	0.462718
	N271	N	0.915904	0.826651	0.536851
	N272	N	0.182988	0.469025	0.913738
	N273	N	0.181548	0.543516	0.084734
	N274	N	0.825945	0.468435	0.084382
	N275	N	0.825770	0.543354	0.914508
	O276	O	0.474061	0.457200	0.512109
	H277	H	0.485885	0.457438	0.504133
	H278	H	0.478203	0.449151	0.509511
	O279	O	0.006503	-0.018849	0.057867
	H280	H	0.006826	-0.018888	0.066573
	H281	H	0.014410	-0.018259	0.060009
	O282	O	0.558812	0.513579	0.538628
	H283	H	0.563701	0.515160	0.546756
	H284	H	0.557482	0.511386	0.536100
	O285	O	0.503225	0.492499	0.540130
	H286	H	0.500692	0.481196	0.549987
	H287	H	0.509497	0.492813	0.546418
	O288	O	1.050378	-0.009362	0.041903
	H289	H	1.043002	-0.007166	0.046503
	H290	H	1.050916	-0.019801	0.048907
	O291	O	-0.489365	0.514058	-0.440381
	H292	H	-0.487106	0.512084	-0.440478
	H293	H	-0.488671	0.511922	-0.439359
	O294	O	0.538347	0.488389	0.550169
	H295	H	0.536096	0.490409	0.552044
	H296	H	0.541659	0.486883	0.548327
	O297	O	0.068882	0.975201	0.051912
	H298	H	0.078887	0.970327	0.049748
	H299	H	0.077448	0.970846	0.044162
	O300	O	1.020126	-0.024240	1.013872
	H301	H	1.008963	-0.024192	1.014819
	H302	H	1.021662	-0.022140	1.012711
	O303	O	0.512764	0.513142	0.547294
	H304	H	0.516195	0.520415	0.549421
	H305	H	0.504183	0.524722	0.551587
	O306	O	0.045623	0.946296	1.049613
	H307	H	0.046524	0.947979	1.049332
	H308	H	0.044056	0.951727	1.052334
	O309	O	0.508838	0.542927	0.504511
	H310	H	0.506136	0.550989	0.508556
	H311	H	0.501850	0.539726	0.500865
