data_Molecule from HDF5

_cell_length_a		16.201780
_cell_length_b		16.380193
_cell_length_c		16.162285
_cell_angle_alpha	89.769365
_cell_angle_beta	90.220617
_cell_angle_gamma	90.142250
_symmetry_space_group_name_H-M	'P 1'
_symmetry_Int_Tables_number		1

loop_
	_symmetry_equiv_pos_as_xyz
	x,y,z

loop_
	_atom_site_label
	_atom_site_type_symbol
	_atom_site_fract_x
	_atom_site_fract_y
	_atom_site_fract_z
	H0	H	0.406239	0.832806	0.715589
	H1	H	0.603075	0.158269	0.716602
	H2	H	0.600543	0.832481	0.288297
	H3	H	0.403683	0.158521	0.284801
	H4	H	0.713606	0.399258	0.835586
	H5	H	0.717667	0.592154	0.166366
	H6	H	0.288330	0.592222	0.835818
	H7	H	0.291374	0.396368	0.165785
	H8	H	0.838702	0.712711	0.398409
	H9	H	0.165835	0.711853	0.603370
	H10	H	0.839869	0.278033	0.602170
	H11	H	0.166492	0.281323	0.401351
	H12	H	0.837944	0.397672	0.713450
	H13	H	0.167398	0.593004	0.714091
	H14	H	0.837621	0.592844	0.286614
	H15	H	0.167301	0.400056	0.289719
	H16	H	0.400945	0.711167	0.836127
	H17	H	0.604607	0.710375	0.165312
	H18	H	0.601406	0.281050	0.836501
	H19	H	0.404671	0.279896	0.165150
	H20	H	0.718848	0.833603	0.402391
	H21	H	0.719644	0.158525	0.600435
	H22	H	0.286814	0.833564	0.601955
	H23	H	0.289165	0.159080	0.402289
	H24	H	0.903248	0.332940	0.217098
	H25	H	0.102277	0.658471	0.214946
	H26	H	0.099893	0.332010	0.787777
	H27	H	0.905492	0.658085	0.785333
	H28	H	0.214119	0.900180	0.335589
	H29	H	0.216916	0.092485	0.666292
	H30	H	0.789566	0.093816	0.336920
	H31	H	0.790525	0.897529	0.666243
	H32	H	0.339852	0.211186	0.898951
	H33	H	0.666623	0.210321	0.102558
	H34	H	0.340051	0.776638	0.102120
	H35	H	0.667294	0.779275	0.900581
	H36	H	0.337720	0.895924	0.214354
	H37	H	0.668445	0.091046	0.213127
	H38	H	0.339022	0.093920	0.785993
	H39	H	0.668374	0.898540	0.788486
	H40	H	0.901115	0.212277	0.337973
	H41	H	0.104594	0.210635	0.664769
	H42	H	0.101843	0.781307	0.337063
	H43	H	0.901595	0.779212	0.665529
	H44	H	0.217439	0.331882	0.902134
	H45	H	0.221434	0.656876	0.100498
	H46	H	0.788529	0.332334	0.099804
	H47	H	0.786697	0.657386	0.898626
	H48	H	0.397957	0.115196	0.594294
	H49	H	0.596354	0.880419	0.596449
	H50	H	0.596525	0.110246	0.414016
	H51	H	0.403929	0.879186	0.410119
	H52	H	0.596116	0.403510	0.117821
	H53	H	0.588754	0.582448	0.888058
	H54	H	0.409947	0.588463	0.118917
	H55	H	0.401087	0.401347	0.879786
	H56	H	0.119164	0.591229	0.412302
	H57	H	0.883121	0.592355	0.596574
	H58	H	0.122194	0.393129	0.591521
	H59	H	0.888178	0.405847	0.414374
	H60	H	0.116557	0.407771	0.586891
	H61	H	0.886763	0.590449	0.585946
	H62	H	0.118372	0.587353	0.409487
	H63	H	0.883970	0.405576	0.403146
	H64	H	0.412926	0.582861	0.115774
	H65	H	0.591913	0.598038	0.881415
	H66	H	0.594177	0.399830	0.118272
	H67	H	0.412958	0.410570	0.886878
	H68	H	0.601692	0.114003	0.403868
	H69	H	0.596634	0.880606	0.594360
	H70	H	0.417276	0.112345	0.604576
	H71	H	0.409242	0.878667	0.403276
	H72	H	0.909303	0.612119	0.094213
	H73	H	0.096616	0.377279	0.102583
	H74	H	0.096260	0.608850	0.914409
	H75	H	0.908669	0.378121	0.904672
	H76	H	0.099583	0.908500	0.618539
	H77	H	0.099419	0.090955	0.381682
	H78	H	0.909398	0.089956	0.620634
	H79	H	0.908402	0.901618	0.383169
	H80	H	0.619312	0.086178	0.912398
	H81	H	0.384561	0.082779	0.101445
	H82	H	0.618850	0.899562	0.089993
	H83	H	0.384973	0.896760	0.908883
	H84	H	0.618576	0.906682	0.094730
	H85	H	0.383171	0.097779	0.092340
	H86	H	0.620731	0.088451	0.907013
	H87	H	0.389176	0.904158	0.914371
	H88	H	0.912651	0.082912	0.617426
	H89	H	0.093658	0.085844	0.385010
	H90	H	0.087360	0.902802	0.616567
	H91	H	0.909984	0.906632	0.384633
	H92	H	0.102699	0.613666	0.906052
	H93	H	0.089610	0.381658	0.093816
	H94	H	0.912155	0.610646	0.093102
	H95	H	0.909635	0.379952	0.908330
	H96	H	0.414847	0.107926	0.583619
	H97	H	0.598072	0.879013	0.595210
	H98	H	0.590404	0.110810	0.404178
	H99	H	0.411825	0.882091	0.411460
	H100	H	0.597676	0.399958	0.119396
	H101	H	0.604168	0.586692	0.882010
	H102	H	0.416779	0.588449	0.117212
	H103	H	0.416296	0.394712	0.883437
	H104	H	0.120961	0.591635	0.407142
	H105	H	0.886873	0.582426	0.593605
	H106	H	0.122090	0.405403	0.602847
	H107	H	0.882853	0.395154	0.409333
	H108	H	0.909833	0.610246	0.091362
	H109	H	0.101275	0.379337	0.091306
	H110	H	0.091533	0.609761	0.904165
	H111	H	0.905476	0.377856	0.907871
	H112	H	0.098093	0.895429	0.621487
	H113	H	0.092433	0.093858	0.383262
	H114	H	0.916950	0.089654	0.618203
	H115	H	0.913262	0.902267	0.384427
	H116	H	0.620590	0.091274	0.911803
	H117	H	0.389074	0.083027	0.084357
	H118	H	0.621345	0.899415	0.097307
	H119	H	0.386226	0.905332	0.904798
	C120	C	0.381323	0.004298	0.623339
	C121	C	0.625919	0.987662	0.623621
	C122	C	0.624557	0.004169	0.379536
	C123	C	0.380531	0.987615	0.379079
	C124	C	0.624284	0.373357	0.009536
	C125	C	0.624832	0.617009	0.992621
	C126	C	0.382525	0.615898	0.008733
	C127	C	0.381818	0.372961	0.992086
	C128	C	0.010812	0.618020	0.379745
	C129	C	0.993881	0.617019	0.622051
	C130	C	0.011621	0.373598	0.622664
	C131	C	0.993914	0.374666	0.380688
	C132	C	0.881401	0.503694	0.122318
	C133	C	0.125605	0.486689	0.123979
	C134	C	0.124599	0.502883	0.879917
	C135	C	0.880181	0.486492	0.878049
	C136	C	0.123825	0.874081	0.509792
	C137	C	0.124776	0.117762	0.492249
	C138	C	0.882469	0.116899	0.510315
	C139	C	0.881747	0.874451	0.493142
	C140	C	0.511705	0.116865	0.880201
	C141	C	0.494445	0.116022	0.121931
	C142	C	0.511281	0.872789	0.122625
	C143	C	0.495349	0.873786	0.880326
	C144	C	0.384366	0.881629	0.678355
	C145	C	0.623536	0.109869	0.678781
	C146	C	0.621533	0.881288	0.325476
	C147	C	0.383971	0.110035	0.323308
	C148	C	0.677378	0.377528	0.885095
	C149	C	0.680109	0.613161	0.116888
	C150	C	0.326229	0.613404	0.884841
	C151	C	0.327821	0.375354	0.116270
	C152	C	0.887268	0.673282	0.380222
	C153	C	0.117241	0.672987	0.621977
	C154	C	0.888409	0.317240	0.621521
	C155	C	0.117504	0.319734	0.382261
	C156	C	0.887402	0.376611	0.676693
	C157	C	0.118055	0.613707	0.676894
	C158	C	0.886695	0.614190	0.324149
	C159	C	0.118233	0.378952	0.327003
	C160	C	0.382571	0.672273	0.885205
	C161	C	0.624075	0.671932	0.116461
	C162	C	0.621662	0.318691	0.885611
	C163	C	0.384114	0.317391	0.115929
	C164	C	0.680135	0.881941	0.382440
	C165	C	0.681325	0.110098	0.620809
	C166	C	0.325485	0.882065	0.621541
	C167	C	0.326525	0.110265	0.381395
	C168	C	0.882984	0.381321	0.178480
	C169	C	0.123349	0.609448	0.178088
	C170	C	0.120675	0.380531	0.825503
	C171	C	0.883790	0.609231	0.822625
	C172	C	0.177794	0.878171	0.385471
	C173	C	0.179779	0.113759	0.616685
	C174	C	0.826955	0.114609	0.386225
	C175	C	0.827526	0.876966	0.617046
	C176	C	0.388526	0.172571	0.880072
	C177	C	0.617785	0.171895	0.121663
	C178	C	0.388274	0.816010	0.121294
	C179	C	0.618739	0.818051	0.881332
	C180	C	0.387109	0.875407	0.177030
	C181	C	0.618557	0.112665	0.176794
	C182	C	0.388077	0.114034	0.824234
	C183	C	0.619364	0.877400	0.825913
	C184	C	0.882507	0.173231	0.386731
	C185	C	0.123968	0.172359	0.616164
	C186	C	0.122120	0.818925	0.386357
	C187	C	0.883199	0.818145	0.616496
	C188	C	0.178992	0.380386	0.882619
	C189	C	0.182477	0.608587	0.121197
	C190	C	0.826134	0.381058	0.120017
	C191	C	0.825261	0.608977	0.879581
	C192	C	0.403607	0.089775	0.600833
	C193	C	0.603580	0.902010	0.601750
	C194	C	0.602665	0.089624	0.400971
	C195	C	0.401937	0.902163	0.401611
	C196	C	0.602423	0.394864	0.096283
	C197	C	0.601765	0.595315	0.906166
	C198	C	0.406361	0.593192	0.095048
	C199	C	0.403668	0.395530	0.905630
	C200	C	0.096900	0.596322	0.402753
	C201	C	0.907859	0.594840	0.598963
	C202	C	0.097890	0.395636	0.600240
	C203	C	0.907447	0.395993	0.402538
	C204	C	0.903931	0.588999	0.099651
	C205	C	0.102644	0.401388	0.102214
	C206	C	0.103111	0.588592	0.901799
	C207	C	0.901675	0.400822	0.900398
	C208	C	0.101498	0.895732	0.596540
	C209	C	0.101960	0.096664	0.405796
	C210	C	0.906105	0.094140	0.596464
	C211	C	0.904002	0.896910	0.406392
	C212	C	0.597983	0.094987	0.903578
	C213	C	0.407962	0.094315	0.099428
	C214	C	0.597294	0.895340	0.100505
	C215	C	0.409242	0.895552	0.902775
	Zn216	Zn	0.503631	-0.004269	0.752276
	Zn217	Zn	0.502926	-0.004693	0.250336
	Zn218	Zn	0.752106	0.495031	0.000677
	Zn219	Zn	0.254633	0.494387	0.000805
	Zn220	Zn	0.002577	0.745605	0.501454
	Zn221	Zn	0.003039	0.245261	0.501147
	Zn222	Zn	0.003176	0.495295	0.750276
	Zn223	Zn	0.002580	0.495816	0.252129
	Zn224	Zn	0.503469	0.744899	0.000675
	Zn225	Zn	0.503020	0.244965	0.001322
	Zn226	Zn	0.754377	-0.003639	0.501286
	Zn227	Zn	0.251873	-0.003911	0.501261
	N228	N	0.418379	0.958529	0.679500
	N229	N	0.589894	0.032682	0.680490
	N230	N	0.587606	0.958204	0.323585
	N231	N	0.416706	0.032500	0.321501
	N232	N	0.679153	0.410787	0.963087
	N233	N	0.680595	0.579763	0.038924
	N234	N	0.326277	0.579100	0.962625
	N235	N	0.326433	0.409343	0.038325
	N236	N	0.965330	0.675723	0.413838
	N237	N	0.039199	0.675094	0.588470
	N238	N	0.966505	0.315172	0.588675
	N239	N	0.039328	0.317128	0.415113
	N240	N	0.965079	0.410913	0.677683
	N241	N	0.040373	0.579484	0.677124
	N242	N	0.964476	0.580481	0.323593
	N243	N	0.040366	0.412216	0.325763
	N244	N	0.416496	0.674051	0.963521
	N245	N	0.590353	0.674393	0.038174
	N246	N	0.589320	0.316031	0.964196
	N247	N	0.416730	0.315520	0.037590
	N248	N	0.682065	0.959158	0.415423
	N249	N	0.683083	0.032924	0.587553
	N250	N	0.323422	0.959400	0.587992
	N251	N	0.324329	0.033318	0.415374
	N252	N	0.916778	0.458469	0.179913
	N253	N	0.088617	0.532701	0.179960
	N254	N	0.087652	0.457833	0.823755
	N255	N	0.916999	0.532052	0.821432
	N256	N	0.179093	0.911770	0.463440
	N257	N	0.180303	0.080475	0.538697
	N258	N	0.826873	0.080354	0.464103
	N259	N	0.826442	0.911208	0.539130
	N260	N	0.466368	0.174321	0.914393
	N261	N	0.539568	0.174021	0.088180
	N262	N	0.466497	0.814118	0.088517
	N263	N	0.540746	0.816006	0.914623
	N264	N	0.464593	0.909968	0.178066
	N265	N	0.541036	0.078437	0.176964
	N266	N	0.465727	0.080200	0.824110
	N267	N	0.541737	0.911301	0.825068
	N268	N	0.916556	0.174689	0.464815
	N269	N	0.090409	0.175085	0.537910
	N270	N	0.089649	0.816325	0.464784
	N271	N	0.916149	0.816536	0.538135
	N272	N	0.181618	0.457632	0.915617
	N273	N	0.184062	0.531266	0.088364
	N274	N	0.825126	0.458219	0.085591
	N275	N	0.822795	0.531740	0.913329
	O276	O	0.943168	0.926048	0.002870
	H277	H	0.948330	0.934716	0.005670
	H278	H	0.943606	0.917205	-0.000134
	O279	O	0.031091	-0.042105	-0.037049
	H280	H	0.037120	-0.038097	-0.036488
	H281	H	0.024626	-0.046240	-0.028834
	O282	O	-0.013134	-0.009438	1.055687
	H283	H	-0.005344	-0.002227	1.067569
	H284	H	-0.007866	-0.005507	1.051906
	O285	O	0.489094	0.582219	0.472723
	H286	H	0.497194	0.582292	0.469923
	H287	H	0.492235	0.586257	0.474335
	O288	O	0.447923	0.610281	0.485661
	H289	H	0.447828	0.613230	0.480862
	H290	H	0.440337	0.618122	0.477159
	O291	O	0.445760	0.588411	0.507064
	H292	H	0.443590	0.588052	0.516525
	H293	H	0.435820	0.590958	0.505186
	O294	O	0.004820	-0.008263	-0.074783
	H295	H	-0.003183	-0.007001	-0.087546
	H296	H	0.001157	-0.016857	-0.073373
	O297	O	0.442351	0.583826	0.453878
	H298	H	0.441457	0.575719	0.459267
	H299	H	0.443591	0.591964	0.456694
	O300	O	0.054150	0.969325	1.026883
	H301	H	0.046077	0.970507	1.034655
	H302	H	0.060788	0.967574	1.020570
	O303	O	0.428297	0.571211	0.464588
	H304	H	0.432586	0.564979	0.461672
	H305	H	0.432568	0.568737	0.454851
	O306	O	0.021223	-0.059613	0.943836
	H307	H	0.011879	-0.064306	0.942262
	H308	H	0.018419	-0.053082	0.936054
	O309	O	1.055693	0.949412	0.977590
	H310	H	1.048660	0.936583	0.972452
	H311	H	1.055083	0.948765	0.978596
	O312	O	0.511592	0.593720	0.510296
	H313	H	0.507077	0.601000	0.510286
	H314	H	0.504738	0.587857	0.513564
	O315	O	0.423807	0.579367	0.476183
	H316	H	0.437232	0.586170	0.475083
	H317	H	0.409862	0.580744	0.468046
	O318	O	-0.053763	0.993759	0.021089
	H319	H	-0.053922	0.996438	0.012783
	H320	H	-0.057952	0.995696	0.014482
	O321	O	0.965988	1.017712	-0.010878
	H322	H	0.961664	1.014219	-0.013827
	H323	H	0.970470	1.019005	-0.010488
