data_Molecule from HDF5

_cell_length_a		16.210928
_cell_length_b		16.331398
_cell_length_c		16.252234
_cell_angle_alpha	89.996059
_cell_angle_beta	90.228259
_cell_angle_gamma	90.152503
_symmetry_space_group_name_H-M	'P 1'
_symmetry_Int_Tables_number		1

loop_
	_symmetry_equiv_pos_as_xyz
	x,y,z

loop_
	_atom_site_label
	_atom_site_type_symbol
	_atom_site_fract_x
	_atom_site_fract_y
	_atom_site_fract_z
	H0	H	0.407106	0.838463	0.718767
	H1	H	0.605755	0.164072	0.720896
	H2	H	0.604542	0.839278	0.289855
	H3	H	0.405152	0.165489	0.288381
	H4	H	0.717926	0.404752	0.840102
	H5	H	0.719528	0.600478	0.168453
	H6	H	0.291006	0.600766	0.839552
	H7	H	0.291595	0.403807	0.168498
	H8	H	0.840439	0.715839	0.404340
	H9	H	0.168650	0.717001	0.605262
	H10	H	0.841541	0.286678	0.602934
	H11	H	0.170059	0.287230	0.405479
	H12	H	0.840090	0.404570	0.716505
	H13	H	0.168946	0.600497	0.718973
	H14	H	0.840555	0.598347	0.290979
	H15	H	0.170094	0.403340	0.289959
	H16	H	0.405099	0.717363	0.840146
	H17	H	0.607004	0.719023	0.166580
	H18	H	0.604381	0.287374	0.840432
	H19	H	0.405908	0.285906	0.167248
	H20	H	0.718420	0.838891	0.407359
	H21	H	0.720949	0.164628	0.604326
	H22	H	0.290431	0.838811	0.603426
	H23	H	0.290633	0.165356	0.406145
	H24	H	0.906395	0.338633	0.218373
	H25	H	0.105001	0.666174	0.219889
	H26	H	0.103001	0.339870	0.789575
	H27	H	0.906133	0.665548	0.789257
	H28	H	0.217713	0.904784	0.340335
	H29	H	0.220274	0.100026	0.669198
	H30	H	0.790760	0.098775	0.340967
	H31	H	0.792767	0.904166	0.669423
	H32	H	0.341961	0.217183	0.902002
	H33	H	0.669657	0.217111	0.104877
	H34	H	0.341299	0.786092	0.102997
	H35	H	0.669912	0.789616	0.907190
	H36	H	0.341433	0.901838	0.219698
	H37	H	0.669346	0.099944	0.219564
	H38	H	0.341159	0.098904	0.790040
	H39	H	0.670158	0.904438	0.792127
	H40	H	0.905149	0.216246	0.341374
	H41	H	0.107992	0.219015	0.668206
	H42	H	0.103498	0.787270	0.340818
	H43	H	0.905377	0.786167	0.667777
	H44	H	0.219120	0.339010	0.905352
	H45	H	0.221152	0.666326	0.102500
	H46	H	0.790373	0.339339	0.102542
	H47	H	0.791685	0.665910	0.906505
	H48	H	0.414386	0.118668	0.600707
	H49	H	0.595804	0.884079	0.606898
	H50	H	0.593560	0.118438	0.407481
	H51	H	0.403274	0.883622	0.409213
	H52	H	0.606093	0.411473	0.122592
	H53	H	0.591466	0.594887	0.889213
	H54	H	0.418215	0.586201	0.116546
	H55	H	0.413507	0.410100	0.888094
	H56	H	0.121571	0.602606	0.418973
	H57	H	0.888357	0.601107	0.586617
	H58	H	0.119463	0.415086	0.591491
	H59	H	0.889449	0.409203	0.412490
	H60	H	0.123802	0.412205	0.604914
	H61	H	0.890344	0.583936	0.597180
	H62	H	0.119238	0.586766	0.416230
	H63	H	0.888210	0.408656	0.410427
	H64	H	0.420293	0.602200	0.120441
	H65	H	0.600509	0.603341	0.883716
	H66	H	0.592168	0.414346	0.117215
	H67	H	0.412705	0.407262	0.886895
	H68	H	0.597226	0.116658	0.418139
	H69	H	0.594991	0.887833	0.592719
	H70	H	0.415464	0.116730	0.595911
	H71	H	0.419026	0.886180	0.405230
	H72	H	0.910924	0.619279	0.098454
	H73	H	0.109108	0.384736	0.094374
	H74	H	0.101050	0.621563	0.904669
	H75	H	0.914115	0.389191	0.917657
	H76	H	0.094377	0.895486	0.624572
	H77	H	0.096005	0.092924	0.390044
	H78	H	0.921030	0.084798	0.616102
	H79	H	0.910513	0.910920	0.388529
	H80	H	0.627468	0.103852	0.904218
	H81	H	0.389230	0.095395	0.092420
	H82	H	0.626363	0.901571	0.104091
	H83	H	0.387760	0.912260	0.906669
	H84	H	0.619563	0.906875	0.087907
	H85	H	0.389367	0.090798	0.097370
	H86	H	0.619618	0.099365	0.925871
	H87	H	0.386721	0.902563	0.911441
	H88	H	0.919944	0.107646	0.623457
	H89	H	0.095172	0.095649	0.388523
	H90	H	0.111199	0.912329	0.624276
	H91	H	0.915358	0.907486	0.388618
	H92	H	0.090965	0.616835	0.912156
	H93	H	0.095229	0.384855	0.108138
	H94	H	0.914817	0.618720	0.098510
	H95	H	0.902415	0.383143	0.909767
	H96	H	0.410749	0.118270	0.596497
	H97	H	0.607741	0.882399	0.598634
	H98	H	0.603759	0.120814	0.410046
	H99	H	0.413491	0.889271	0.420126
	H100	H	0.595227	0.400309	0.121718
	H101	H	0.603699	0.590775	0.886810
	H102	H	0.405512	0.594410	0.123038
	H103	H	0.410124	0.409839	0.886914
	H104	H	0.125005	0.596450	0.404361
	H105	H	0.883321	0.599973	0.605949
	H106	H	0.123912	0.401624	0.595455
	H107	H	0.889087	0.406752	0.412010
	H108	H	0.912311	0.617968	0.095521
	H109	H	0.090780	0.391364	0.090454
	H110	H	0.102885	0.618020	0.917315
	H111	H	0.915971	0.385464	0.903102
	H112	H	0.088901	0.916696	0.616195
	H113	H	0.097823	0.095181	0.388798
	H114	H	0.900056	0.093606	0.625796
	H115	H	0.909840	0.905237	0.386674
	H116	H	0.619555	0.082183	0.910365
	H117	H	0.387560	0.097816	0.098796
	H118	H	0.621011	0.918825	0.101199
	H119	H	0.390839	0.911066	0.916455
	C120	C	0.384591	0.009955	0.626376
	C121	C	0.627710	0.992911	0.627381
	C122	C	0.626799	0.010758	0.383602
	C123	C	0.383182	0.994011	0.382625
	C124	C	0.626638	0.380679	0.012531
	C125	C	0.627402	0.624558	0.995272
	C126	C	0.384952	0.623207	0.012004
	C127	C	0.383460	0.380008	0.995515
	C128	C	0.013292	0.623290	0.383918
	C129	C	0.995973	0.623791	0.625939
	C130	C	0.013599	0.381172	0.625571
	C131	C	0.997648	0.379854	0.382889
	C132	C	0.883684	0.510580	0.125763
	C133	C	0.127753	0.494733	0.126402
	C134	C	0.126787	0.511027	0.882512
	C135	C	0.882879	0.493722	0.881987
	C136	C	0.126851	0.879944	0.513182
	C137	C	0.126629	0.123758	0.496975
	C138	C	0.884118	0.123645	0.513399
	C139	C	0.883406	0.879726	0.496258
	C140	C	0.513994	0.123519	0.883163
	C141	C	0.497122	0.123443	0.125591
	C142	C	0.513754	0.879971	0.126236
	C143	C	0.497088	0.880850	0.883395
	C144	C	0.386525	0.887369	0.681467
	C145	C	0.625671	0.115670	0.682825
	C146	C	0.624384	0.887863	0.328368
	C147	C	0.385300	0.116790	0.326737
	C148	C	0.680521	0.384159	0.888978
	C149	C	0.682034	0.620928	0.119152
	C150	C	0.329091	0.620890	0.888604
	C151	C	0.328953	0.383089	0.119311
	C152	C	0.889569	0.677830	0.385055
	C153	C	0.119472	0.679191	0.624671
	C154	C	0.890216	0.325554	0.622751
	C155	C	0.120876	0.324822	0.385199
	C156	C	0.889690	0.383571	0.679758
	C157	C	0.119885	0.621266	0.681365
	C158	C	0.889533	0.619597	0.328577
	C159	C	0.120953	0.383024	0.327987
	C160	C	0.385873	0.678740	0.888842
	C161	C	0.626008	0.679870	0.118360
	C162	C	0.624459	0.325425	0.889414
	C163	C	0.385880	0.324662	0.118875
	C164	C	0.681199	0.887712	0.386693
	C165	C	0.682739	0.116087	0.624646
	C166	C	0.328478	0.887554	0.624098
	C167	C	0.328374	0.116839	0.385318
	C168	C	0.886120	0.387404	0.180609
	C169	C	0.125594	0.617407	0.181958
	C170	C	0.123899	0.388323	0.827521
	C171	C	0.885973	0.616933	0.827239
	C172	C	0.180745	0.883719	0.389545
	C173	C	0.182899	0.121377	0.620176
	C174	C	0.828497	0.120207	0.390032
	C175	C	0.829624	0.883240	0.620093
	C176	C	0.390943	0.179129	0.883011
	C177	C	0.620621	0.179005	0.124231
	C178	C	0.390401	0.824021	0.123753
	C179	C	0.620846	0.826774	0.886507
	C180	C	0.390312	0.881601	0.181668
	C181	C	0.620772	0.120596	0.180980
	C182	C	0.390573	0.120175	0.827292
	C183	C	0.621156	0.884219	0.829662
	C184	C	0.885380	0.178502	0.390507
	C185	C	0.126672	0.180134	0.619752
	C186	C	0.123832	0.825302	0.389730
	C187	C	0.885981	0.824925	0.619489
	C188	C	0.181272	0.387973	0.885412
	C189	C	0.183423	0.617534	0.123780
	C190	C	0.828482	0.387755	0.122915
	C191	C	0.828942	0.617029	0.885318
	C192	C	0.407030	0.095693	0.604086
	C193	C	0.605898	0.907057	0.605926
	C194	C	0.604706	0.096382	0.405370
	C195	C	0.405305	0.908518	0.404776
	C196	C	0.604556	0.402471	0.098426
	C197	C	0.605247	0.602852	0.908903
	C198	C	0.408108	0.600792	0.097912
	C199	C	0.405625	0.402289	0.909532
	C200	C	0.099652	0.601638	0.406553
	C201	C	0.909668	0.601518	0.603218
	C202	C	0.100048	0.403502	0.603889
	C203	C	0.911101	0.401667	0.405114
	C204	C	0.906184	0.596373	0.104129
	C205	C	0.104998	0.409133	0.104324
	C206	C	0.104788	0.596598	0.904779
	C207	C	0.904498	0.407909	0.903665
	C208	C	0.104689	0.901662	0.599451
	C209	C	0.103153	0.101256	0.411372
	C210	C	0.906946	0.101636	0.599715
	C211	C	0.905320	0.901597	0.410110
	C212	C	0.600145	0.101590	0.906681
	C213	C	0.410989	0.101247	0.102814
	C214	C	0.600031	0.902489	0.104161
	C215	C	0.410717	0.902352	0.905102
	Zn216	Zn	0.505977	0.001385	0.755289
	Zn217	Zn	0.505266	0.002361	0.254388
	Zn218	Zn	0.755088	0.502565	0.004131
	Zn219	Zn	0.255984	0.502509	0.003797
	Zn220	Zn	0.004683	0.751849	0.504368
	Zn221	Zn	0.005943	0.252350	0.505087
	Zn222	Zn	0.004991	0.502534	0.754029
	Zn223	Zn	0.005314	0.502414	0.254967
	Zn224	Zn	0.505279	0.751813	0.003805
	Zn225	Zn	0.505557	0.252034	0.003932
	Zn226	Zn	0.755682	0.001778	0.505619
	Zn227	Zn	0.254830	0.002385	0.504971
	N228	N	0.420743	0.964505	0.682717
	N229	N	0.592101	0.038244	0.684485
	N230	N	0.591161	0.965313	0.326299
	N231	N	0.418641	0.039304	0.324930
	N232	N	0.682039	0.417904	0.966466
	N233	N	0.682921	0.586965	0.041603
	N234	N	0.328380	0.586951	0.966087
	N235	N	0.327386	0.416620	0.041666
	N236	N	0.967743	0.680418	0.418645
	N237	N	0.041397	0.680845	0.590906
	N238	N	0.968305	0.323731	0.590038
	N239	N	0.043018	0.322967	0.418532
	N240	N	0.967505	0.417561	0.681469
	N241	N	0.042083	0.587519	0.682203
	N242	N	0.967342	0.586275	0.327845
	N243	N	0.043149	0.416262	0.326274
	N244	N	0.420022	0.680107	0.966572
	N245	N	0.592797	0.682065	0.040529
	N246	N	0.591554	0.323157	0.967256
	N247	N	0.418785	0.322487	0.040965
	N248	N	0.682880	0.965015	0.420268
	N249	N	0.684203	0.038871	0.591005
	N250	N	0.327122	0.964898	0.590525
	N251	N	0.327025	0.039730	0.419294
	N252	N	0.919919	0.464794	0.182506
	N253	N	0.091781	0.540000	0.183695
	N254	N	0.090674	0.465724	0.825799
	N255	N	0.918859	0.539241	0.825077
	N256	N	0.182953	0.916733	0.467530
	N257	N	0.183149	0.087103	0.542818
	N258	N	0.827690	0.086823	0.467693
	N259	N	0.827962	0.916773	0.542352
	N260	N	0.468627	0.181146	0.917240
	N261	N	0.542616	0.180875	0.090470
	N262	N	0.468250	0.822782	0.090364
	N263	N	0.542699	0.824745	0.919257
	N264	N	0.468006	0.915645	0.183377
	N265	N	0.543064	0.086929	0.182025
	N266	N	0.468154	0.086302	0.827237
	N267	N	0.543080	0.916921	0.827373
	N268	N	0.919201	0.180744	0.468382
	N269	N	0.092366	0.181536	0.542105
	N270	N	0.091142	0.823014	0.467560
	N271	N	0.918569	0.822574	0.541538
	N272	N	0.183213	0.465203	0.919024
	N273	N	0.184885	0.540352	0.090087
	N274	N	0.826609	0.465231	0.089937
	N275	N	0.827011	0.539613	0.918734
	O276	O	0.471826	0.493851	0.463185
	H277	H	0.462958	0.494890	0.459982
	H278	H	0.472258	0.504569	0.467126
	O279	O	0.094139	0.068112	0.042858
	H280	H	0.094789	0.077069	0.047066
	H281	H	0.091725	0.073119	0.044473
	O282	O	0.432669	0.477162	0.437950
	H283	H	0.432197	0.485344	0.436397
	H284	H	0.434256	0.475953	0.427222
	O285	O	0.473793	0.502897	0.446129
	H286	H	0.470519	0.495385	0.449494
	H287	H	0.466892	0.503382	0.442022
	O288	O	1.072420	0.141967	0.069141
	H289	H	1.068276	0.139005	0.080967
	H290	H	1.066675	0.153953	0.065040
	O291	O	-0.579930	0.535320	-0.568500
	H292	H	-0.587417	0.523288	-0.571334
	H293	H	-0.579713	0.536181	-0.575369
	O294	O	0.483876	0.526385	0.442255
	H295	H	0.484239	0.535632	0.434040
	H296	H	0.479038	0.526814	0.439502
	O297	O	0.069516	1.120594	0.084804
	H298	H	0.073657	1.114467	0.082624
	H299	H	0.073945	1.117250	0.079664
	O300	O	1.061671	0.076231	0.997316
	H301	H	1.064028	0.072630	0.997485
	H302	H	1.070086	0.083013	0.992292
	O303	O	0.444772	0.507302	0.373056
	H304	H	0.451038	0.496594	0.375406
	H305	H	0.445820	0.516887	0.380725
	O306	O	0.075441	1.100935	1.013502
	H307	H	0.080625	1.103409	1.017976
	H308	H	0.073389	1.104631	1.017923
	O309	O	0.444918	0.503078	0.465935
	H310	H	0.443879	0.498420	0.461583
	H311	H	0.445926	0.501505	0.470633
