data_Molecule from HDF5

_cell_length_a		16.649611
_cell_length_b		16.632352
_cell_length_c		16.469604
_cell_angle_alpha	90.150534
_cell_angle_beta	89.942838
_cell_angle_gamma	89.965675
_symmetry_space_group_name_H-M	'P 1'
_symmetry_Int_Tables_number		1

loop_
	_symmetry_equiv_pos_as_xyz
	x,y,z

loop_
	_atom_site_label
	_atom_site_type_symbol
	_atom_site_fract_x
	_atom_site_fract_y
	_atom_site_fract_z
	H0	H	0.394636	0.838528	0.708818
	H1	H	0.601866	0.151328	0.714709
	H2	H	0.598684	0.840225	0.271805
	H3	H	0.388065	0.150881	0.267937
	H4	H	0.715754	0.390387	0.833800
	H5	H	0.711982	0.596155	0.151101
	H6	H	0.278011	0.598314	0.832528
	H7	H	0.275782	0.391760	0.148305
	H8	H	0.840458	0.715202	0.388283
	H9	H	0.150875	0.718832	0.598865
	H10	H	0.840327	0.273653	0.597460
	H11	H	0.150832	0.271909	0.383734
	H12	H	0.839247	0.392467	0.712268
	H13	H	0.152227	0.600772	0.712572
	H14	H	0.839572	0.597298	0.272288
	H15	H	0.151991	0.389953	0.268972
	H16	H	0.393124	0.714963	0.833161
	H17	H	0.596924	0.712598	0.149797
	H18	H	0.602325	0.272821	0.835090
	H19	H	0.393465	0.277466	0.149424
	H20	H	0.717912	0.841529	0.385755
	H21	H	0.720782	0.150792	0.601030
	H22	H	0.273675	0.840819	0.597085
	H23	H	0.269206	0.149773	0.381561
	H24	H	0.893822	0.337889	0.210052
	H25	H	0.097279	0.653070	0.208668
	H26	H	0.099618	0.339148	0.769262
	H27	H	0.894780	0.653835	0.774344
	H28	H	0.216270	0.891244	0.335517
	H29	H	0.217977	0.103021	0.648794
	H30	H	0.775716	0.100341	0.334045
	H31	H	0.775262	0.892258	0.647949
	H32	H	0.341750	0.219533	0.883821
	H33	H	0.650132	0.219300	0.100587
	H34	H	0.340111	0.775364	0.094757
	H35	H	0.651388	0.773295	0.884002
	H36	H	0.339674	0.892568	0.211156
	H37	H	0.650425	0.102156	0.215563
	H38	H	0.339735	0.101623	0.769485
	H39	H	0.651433	0.891015	0.768730
	H40	H	0.890460	0.217745	0.334778
	H41	H	0.101541	0.218208	0.648895
	H42	H	0.098118	0.778155	0.333736
	H43	H	0.889817	0.774594	0.648260
	H44	H	0.219303	0.339923	0.882069
	H45	H	0.215750	0.651912	0.094036
	H46	H	0.775351	0.338503	0.095736
	H47	H	0.773264	0.650971	0.885648
	H48	H	0.408105	0.107944	0.581331
	H49	H	0.590013	0.882230	0.581286
	H50	H	0.581365	0.108390	0.398969
	H51	H	0.404179	0.883581	0.401307
	H52	H	0.585628	0.408499	0.103443
	H53	H	0.586883	0.587179	0.876885
	H54	H	0.402381	0.583536	0.104486
	H55	H	0.409438	0.403416	0.877720
	H56	H	0.107361	0.581180	0.399846
	H57	H	0.883370	0.589490	0.579061
	H58	H	0.102463	0.416625	0.576632
	H59	H	0.889358	0.413168	0.408757
	H60	H	0.111082	0.404117	0.589557
	H61	H	0.886398	0.582945	0.580153
	H62	H	0.111709	0.590604	0.395163
	H63	H	0.882638	0.408422	0.393897
	H64	H	0.409233	0.583882	0.101985
	H65	H	0.587461	0.581405	0.879021
	H66	H	0.583614	0.406305	0.104388
	H67	H	0.405077	0.407458	0.877864
	H68	H	0.582738	0.104870	0.410166
	H69	H	0.581291	0.885919	0.581179
	H70	H	0.405659	0.106749	0.577136
	H71	H	0.409917	0.886458	0.402692
	H72	H	0.906143	0.606047	0.081012
	H73	H	0.088004	0.382896	0.078789
	H74	H	0.088965	0.606275	0.906899
	H75	H	0.910240	0.386761	0.908305
	H76	H	0.087144	0.907717	0.606040
	H77	H	0.086195	0.081535	0.380137
	H78	H	0.905400	0.088852	0.606090
	H79	H	0.908111	0.907417	0.379036
	H80	H	0.604713	0.079600	0.906465
	H81	H	0.384035	0.093131	0.075691
	H82	H	0.608331	0.906375	0.083813
	H83	H	0.385371	0.903070	0.905913
	H84	H	0.608763	0.900927	0.081015
	H85	H	0.389456	0.078526	0.074591
	H86	H	0.607421	0.082235	0.898414
	H87	H	0.385218	0.909585	0.900563
	H88	H	0.905795	0.078325	0.603163
	H89	H	0.080523	0.080839	0.381281
	H90	H	0.083050	0.909816	0.604045
	H91	H	0.906584	0.903199	0.378028
	H92	H	0.089999	0.609062	0.898345
	H93	H	0.085463	0.383099	0.080359
	H94	H	0.902973	0.607333	0.078751
	H95	H	0.896854	0.381851	0.902999
	H96	H	0.403136	0.108569	0.581208
	H97	H	0.587065	0.887338	0.573649
	H98	H	0.591647	0.110287	0.404293
	H99	H	0.404757	0.886688	0.407284
	H100	H	0.586181	0.406062	0.105308
	H101	H	0.581838	0.583730	0.878967
	H102	H	0.406732	0.590389	0.104849
	H103	H	0.410573	0.409192	0.879703
	H104	H	0.108108	0.590604	0.406086
	H105	H	0.883108	0.586759	0.585757
	H106	H	0.106581	0.398280	0.571048
	H107	H	0.884161	0.397233	0.406576
	H108	H	0.903034	0.608024	0.082954
	H109	H	0.085969	0.385236	0.077745
	H110	H	0.081480	0.606461	0.901303
	H111	H	0.909300	0.382641	0.893990
	H112	H	0.082692	0.905020	0.605799
	H113	H	0.082810	0.086095	0.379664
	H114	H	0.914479	0.084476	0.600738
	H115	H	0.903753	0.906304	0.377626
	H116	H	0.607266	0.088666	0.905277
	H117	H	0.382591	0.082911	0.087902
	H118	H	0.606660	0.905785	0.078372
	H119	H	0.382212	0.901805	0.898262
	C120	C	0.374341	0.004444	0.612200
	C121	C	0.617999	0.987715	0.612580
	C122	C	0.617203	0.005057	0.371005
	C123	C	0.373482	0.987826	0.370279
	C124	C	0.617642	0.373828	0.000604
	C125	C	0.616744	0.615636	0.982813
	C126	C	0.375342	0.616869	-0.000652
	C127	C	0.375953	0.374976	0.982568
	C128	C	0.005115	0.617558	0.369490
	C129	C	0.987566	0.618153	0.613468
	C130	C	0.003495	0.374953	0.611920
	C131	C	0.988118	0.374006	0.370232
	C132	C	0.873870	0.503455	0.112410
	C133	C	0.117637	0.487169	0.111191
	C134	C	0.118554	0.504089	0.868721
	C135	C	0.874317	0.487209	0.870105
	C136	C	0.115956	0.875766	0.500899
	C137	C	0.116805	0.116697	0.483447
	C138	C	0.875485	0.116791	0.499895
	C139	C	0.874091	0.874087	0.482385
	C140	C	0.504255	0.116442	0.870416
	C141	C	0.487458	0.117515	0.113308
	C142	C	0.504678	0.873603	0.112735
	C143	C	0.487589	0.873294	0.869014
	C144	C	0.374591	0.885991	0.670195
	C145	C	0.619916	0.104814	0.674001
	C146	C	0.618034	0.887244	0.311398
	C147	C	0.370083	0.104206	0.308529
	C148	C	0.676728	0.371398	0.881698
	C149	C	0.673619	0.615614	0.102690
	C150	C	0.317288	0.617308	0.880234
	C151	C	0.316264	0.373573	0.101146
	C152	C	0.887185	0.675690	0.368998
	C153	C	0.104554	0.678130	0.616068
	C154	C	0.886604	0.314530	0.615127
	C155	C	0.104558	0.312622	0.366261
	C156	C	0.886180	0.373736	0.672135
	C157	C	0.105244	0.619319	0.672691
	C158	C	0.886866	0.617124	0.311359
	C159	C	0.104841	0.371090	0.308930
	C160	C	0.374348	0.675513	0.880493
	C161	C	0.616561	0.673801	0.102310
	C162	C	0.620289	0.312904	0.882382
	C163	C	0.374518	0.316529	0.101793
	C164	C	0.677316	0.888100	0.367884
	C165	C	0.679254	0.104376	0.617547
	C166	C	0.314311	0.887126	0.614929
	C167	C	0.310854	0.103548	0.365047
	C168	C	0.874204	0.385226	0.170925
	C169	C	0.117259	0.605509	0.169652
	C170	C	0.119124	0.386387	0.808694
	C171	C	0.874159	0.605843	0.812130
	C172	C	0.175873	0.873556	0.382508
	C173	C	0.177555	0.120961	0.601482
	C174	C	0.815396	0.118959	0.381365
	C175	C	0.815041	0.873185	0.601147
	C176	C	0.388023	0.178453	0.866417
	C177	C	0.603694	0.178886	0.118021
	C178	C	0.386886	0.815044	0.113700
	C179	C	0.604812	0.813516	0.866072
	C180	C	0.386668	0.873408	0.171418
	C181	C	0.603615	0.120470	0.175194
	C182	C	0.387215	0.119662	0.809364
	C183	C	0.604745	0.871959	0.808763
	C184	C	0.872636	0.176929	0.381539
	C185	C	0.119723	0.178238	0.601509
	C186	C	0.117305	0.817108	0.381612
	C187	C	0.871851	0.814746	0.600933
	C188	C	0.178483	0.386686	0.864921
	C189	C	0.176196	0.604912	0.112703
	C190	C	0.815223	0.385527	0.114018
	C191	C	0.813986	0.604431	0.867657
	C192	C	0.398643	0.086281	0.587195
	C193	C	0.593056	0.906325	0.586123
	C194	C	0.592256	0.086765	0.396901
	C195	C	0.399100	0.906546	0.396461
	C196	C	0.592420	0.399455	0.082917
	C197	C	0.592547	0.591036	0.899893
	C198	C	0.399434	0.592870	0.082122
	C199	C	0.401203	0.399667	0.899929
	C200	C	0.087627	0.594183	0.393502
	C201	C	0.905617	0.593443	0.588649
	C202	C	0.085300	0.399307	0.586413
	C203	C	0.906593	0.399206	0.395788
	C204	C	0.897278	0.585651	0.088000
	C205	C	0.093289	0.405025	0.086134
	C206	C	0.093999	0.585794	0.894927
	C207	C	0.898583	0.405096	0.894581
	C208	C	0.091223	0.900435	0.583601
	C209	C	0.090710	0.090333	0.401721
	C210	C	0.901183	0.091282	0.581901
	C211	C	0.899001	0.898584	0.399748
	C212	C	0.585310	0.090862	0.896103
	C213	C	0.406327	0.092148	0.086847
	C214	C	0.586609	0.897426	0.088241
	C215	C	0.405561	0.897782	0.894421
	Zn216	Zn	0.495637	-0.004515	0.741159
	Zn217	Zn	0.495374	-0.004017	0.241832
	Zn218	Zn	0.745319	0.495019	-0.009059
	Zn219	Zn	0.247060	0.495254	-0.009809
	Zn220	Zn	-0.003854	0.746350	0.491951
	Zn221	Zn	-0.003872	0.244955	0.491368
	Zn222	Zn	-0.004165	0.496640	0.741288
	Zn223	Zn	-0.003450	0.495088	0.240848
	Zn224	Zn	0.496590	0.744869	-0.009415
	Zn225	Zn	0.496187	0.246080	-0.008232
	Zn226	Zn	0.747007	-0.003403	0.491885
	Zn227	Zn	0.244709	-0.003764	0.491964
	N228	N	0.410959	0.960018	0.668873
	N229	N	0.582391	0.031256	0.671077
	N230	N	0.581220	0.961073	0.313257
	N231	N	0.408467	0.031207	0.311754
	N232	N	0.675557	0.408266	0.956336
	N233	N	0.674107	0.580373	0.027235
	N234	N	0.317615	0.581508	0.955095
	N235	N	0.316743	0.408958	0.025849
	N236	N	0.961932	0.676346	0.404050
	N237	N	0.030186	0.677625	0.579978
	N238	N	0.960823	0.314943	0.578688
	N239	N	0.030797	0.314039	0.403495
	N240	N	0.960061	0.410317	0.670441
	N241	N	0.031414	0.582858	0.671404
	N242	N	0.961458	0.581869	0.311173
	N243	N	0.031522	0.408625	0.311296
	N244	N	0.409568	0.675619	0.955777
	N245	N	0.581976	0.674093	0.026602
	N246	N	0.584429	0.314109	0.957538
	N247	N	0.410790	0.317222	0.026872
	N248	N	0.677135	0.962582	0.403946
	N249	N	0.678029	0.030713	0.579871
	N250	N	0.313875	0.961853	0.579664
	N251	N	0.312869	0.030071	0.402903
	N252	N	0.909844	0.459680	0.170413
	N253	N	0.081693	0.530963	0.169158
	N254	N	0.082804	0.460496	0.810633
	N255	N	0.910786	0.531825	0.813314
	N256	N	0.175293	0.909157	0.457763
	N257	N	0.176008	0.083663	0.527069
	N258	N	0.816941	0.082401	0.456071
	N259	N	0.816391	0.909386	0.526426
	N260	N	0.461697	0.176852	0.903619
	N261	N	0.530445	0.177026	0.080022
	N262	N	0.461430	0.814853	0.078079
	N263	N	0.530817	0.814269	0.902953
	N264	N	0.460901	0.909152	0.171066
	N265	N	0.530232	0.082981	0.172444
	N266	N	0.460517	0.081763	0.811599
	N267	N	0.530845	0.908401	0.810499
	N268	N	0.909013	0.175936	0.456242
	N269	N	0.082720	0.175980	0.526837
	N270	N	0.080799	0.818123	0.456334
	N271	N	0.907929	0.815110	0.525927
	N272	N	0.178573	0.461165	0.901361
	N273	N	0.176628	0.530173	0.077230
	N274	N	0.814604	0.460141	0.078637
	N275	N	0.813608	0.529522	0.902622
	O276	O	0.209990	0.783594	-0.037114
	H277	H	0.216870	0.801354	-0.038948
	H278	H	0.229248	0.777001	-0.047726
	O279	O	0.464233	0.715774	0.307085
	H280	H	0.448099	0.716942	0.309493
	H281	H	0.459317	0.724081	0.292364
	O282	O	1.158283	0.071601	1.201538
	H283	H	1.162784	0.086100	1.213872
	H284	H	1.149065	0.071298	1.193285
	O285	O	0.277199	0.460839	0.709528
	H286	H	0.251984	0.469634	0.726773
	H287	H	0.279178	0.479470	0.700811
	O288	O	0.404091	0.441539	0.598015
	H289	H	0.405550	0.445706	0.584080
	H290	H	0.408535	0.432462	0.603165
	O291	O	0.279566	0.269791	0.518731
	H292	H	0.270575	0.267738	0.533817
	H293	H	0.261601	0.258128	0.531586
	O294	O	0.922975	-0.155459	0.975694
	H295	H	0.905055	-0.156994	0.979223
	H296	H	0.922760	-0.142655	0.988843
	O297	O	0.685133	0.688577	0.307391
	H298	H	0.672332	0.673224	0.331335
	H299	H	0.659688	0.671484	0.322629
	O300	O	-0.035547	0.218783	0.770313
	H301	H	-0.077186	0.215293	0.773741
	H302	H	-0.047374	0.243925	0.741871
	O303	O	0.699761	0.700717	0.694247
	H304	H	0.716941	0.711555	0.684670
	H305	H	0.707887	0.706045	0.690120
	O306	O	0.710337	0.277427	0.467790
	H307	H	0.733321	0.268901	0.453646
	H308	H	0.719782	0.289529	0.462186
	O309	O	0.275205	0.457384	0.398437
	H310	H	0.279772	0.469936	0.394361
	H311	H	0.264927	0.451821	0.393717
	O312	O	0.535222	0.636283	0.702736
	H313	H	0.535221	0.644368	0.709740
	H314	H	0.548454	0.634132	0.712059
	O315	O	0.991803	0.985656	1.191923
	H316	H	0.997578	0.995484	1.190030
	H317	H	0.984685	0.987282	1.189223
	O318	O	0.417132	0.596970	0.530997
	H319	H	0.423624	0.613699	0.534874
	H320	H	0.411173	0.601005	0.524942
	O321	O	0.206542	0.786341	0.784768
	H322	H	0.228127	0.767079	0.796560
	H323	H	0.198819	0.800809	0.775406
	O324	O	0.784427	0.781486	0.198442
	H325	H	0.790875	0.816774	0.201504
	H326	H	0.751620	0.752687	0.233837
	O327	O	0.196952	0.195320	1.184993
	H328	H	0.210359	0.182762	1.187551
	H329	H	0.174388	0.195080	1.157664
	O330	O	0.699476	0.500201	0.529982
	H331	H	0.685499	0.500396	0.534476
	H332	H	0.694920	0.503820	0.531252
	O333	O	0.292908	0.425418	0.327207
	H334	H	0.298742	0.428184	0.325953
	H335	H	0.286829	0.420344	0.308710
	O336	O	0.705713	0.293542	0.291995
	H337	H	0.714578	0.274937	0.282129
	H338	H	0.675658	0.283466	0.297246
	O339	O	0.788423	0.024124	0.781292
	H340	H	0.798388	0.028495	0.777362
	H341	H	0.778204	0.032362	0.770666
	O342	O	-0.039383	-0.225647	0.212145
	H343	H	-0.058572	-0.233639	0.196097
	H344	H	-0.046455	-0.256031	0.236273
	O345	O	-0.223329	1.213589	0.955082
	H346	H	-0.230164	1.208593	0.971796
	H347	H	-0.237241	1.221014	0.971943
	O348	O	0.601770	0.417009	0.535427
	H349	H	0.605112	0.410823	0.554503
	H350	H	0.593765	0.411907	0.543894
	O351	O	0.477396	0.651674	0.361888
	H352	H	0.473918	0.669094	0.347485
	H353	H	0.477727	0.642159	0.365300
	O354	O	0.076302	0.190582	0.941796
	H355	H	0.068760	0.186826	0.934033
	H356	H	0.075694	0.186076	0.939958
	O357	O	0.312324	0.426639	0.334137
	H358	H	0.326168	0.427160	0.344709
	H359	H	0.317005	0.432158	0.336765
	O360	O	0.298363	0.294762	0.687053
	H361	H	0.289460	0.344832	0.691493
	H362	H	0.330004	0.286123	0.682940
	O363	O	0.101460	0.010511	0.128368
	H364	H	0.092270	0.008046	0.132534
	H365	H	0.095552	0.015331	0.110663
	O366	O	0.652333	0.553438	0.361431
	H367	H	0.639036	0.539533	0.354141
	H368	H	0.668779	0.527637	0.360603
	O369	O	0.766634	0.066907	0.046000
	H370	H	0.770279	0.056136	0.045398
	H371	H	0.767605	0.041563	0.038665
	O372	O	0.775483	0.773744	0.024663
	H373	H	0.752424	0.742988	0.028451
	H374	H	0.779980	0.778888	0.061582
	O375	O	0.912712	0.014131	0.182949
	H376	H	0.918819	0.020000	0.186409
	H377	H	0.916726	-0.014786	0.179147
	O378	O	0.672219	0.406669	0.283985
	H379	H	0.688937	0.401827	0.264542
	H380	H	0.660551	0.373023	0.285733
	O381	O	0.057312	0.877460	0.871105
	H382	H	0.063945	0.870480	0.859155
	H383	H	0.067780	0.881077	0.859612
	O384	O	0.890535	0.110270	1.180724
	H385	H	0.903103	0.111995	1.169007
	H386	H	0.898341	0.093786	1.173158
	O387	O	0.965136	0.932074	-0.203380
	H388	H	0.990145	0.923723	-0.211099
	H389	H	0.975237	0.929876	-0.194737
	O390	O	0.400869	0.516270	0.488273
	H391	H	0.401350	0.512705	0.470870
	H392	H	0.402076	0.510649	0.480852
	O393	O	0.444740	0.550910	0.700685
	H394	H	0.441011	0.554430	0.691808
	H395	H	0.447194	0.552992	0.694834
	O396	O	0.071986	0.884910	0.878899
	H397	H	0.076925	0.876394	0.867174
	H398	H	0.077279	0.887581	0.871736
	O399	O	0.043519	0.065786	0.793508
	H400	H	0.050399	0.077524	0.788284
	H401	H	0.038931	0.066061	0.793435
	O402	O	0.530230	0.347307	0.484355
	H403	H	0.543016	0.339780	0.480425
	H404	H	0.527195	0.356304	0.482365
	O405	O	1.025741	0.212632	1.149113
	H406	H	1.035069	0.228475	1.156949
	H407	H	1.038387	0.205864	1.151322
	O408	O	0.220021	0.217959	0.021703
	H409	H	0.232121	0.227934	0.014452
	H410	H	0.219405	0.227153	0.021028
	O411	O	0.812158	0.817614	0.805598
	H412	H	0.834245	0.823058	0.825129
	H413	H	0.826761	0.836616	0.805846
	O414	O	0.589055	0.415741	0.545828
	H415	H	0.591130	0.424788	0.545469
	H416	H	0.590462	0.428586	0.536306
	O417	O	0.665493	0.395775	0.606379
	H418	H	0.655955	0.392025	0.599821
	H419	H	0.668566	0.403758	0.604501
	O420	O	0.333827	0.683568	0.660451
	H421	H	0.342074	0.667077	0.650173
	H422	H	0.341321	0.682689	0.641965
	O423	O	-0.054941	0.191400	1.045280
	H424	H	-0.057276	0.183286	1.035380
	H425	H	-0.042091	0.203591	1.043136
	O426	O	0.504750	0.690146	0.576856
	H427	H	0.494811	0.697268	0.592192
	H428	H	0.513438	0.696997	0.581418
	O429	O	0.936286	1.029102	0.914046
	H430	H	0.935729	1.026234	0.915966
	H431	H	0.933707	1.029649	0.908157
	O432	O	0.711035	0.706724	0.519184
	H433	H	0.731192	0.723578	0.516820
	H434	H	0.713167	0.681933	0.504576
	O435	O	0.186229	0.808295	0.181318
	H436	H	0.166938	0.837989	0.175312
	H437	H	0.169541	0.816905	0.150722
	O438	O	0.060163	-0.217671	0.026342
	H439	H	0.075066	-0.221023	0.007763
	H440	H	0.057553	-0.218233	0.010429
	O441	O	0.230638	-0.040088	0.023133
	H442	H	0.227096	-0.026782	0.029908
	H443	H	0.238760	-0.019713	0.018472
	O444	O	0.272518	0.718958	0.466361
	H445	H	0.280596	0.719888	0.429719
	H446	H	0.249844	0.743563	0.450577
	O447	O	0.216560	0.961116	0.774096
	H448	H	0.199177	0.956226	0.782699
	H449	H	0.245744	0.963589	0.744896
	O450	O	0.104014	1.087949	0.907479
	H451	H	0.076213	1.082068	0.901794
	H452	H	0.127069	1.091487	0.902415
	O453	O	0.497972	0.345964	0.340590
	H454	H	0.491718	0.346294	0.351445
	H455	H	0.494039	0.340947	0.332653
	O456	O	0.170457	0.065309	0.883842
	H457	H	0.163481	0.067503	0.881201
	H458	H	0.156367	0.080344	0.873268
	O459	O	0.775799	0.957746	0.203596
	H460	H	0.780008	0.961752	0.221545
	H461	H	0.772307	0.964983	0.204458
	O462	O	0.588761	0.620033	0.386371
	H463	H	0.577404	0.614792	0.390680
	H464	H	0.590350	0.615112	0.388493
	O465	O	0.764444	-0.066310	-0.054216
	H466	H	0.765363	-0.082062	-0.055132
	H467	H	0.768216	-0.080390	-0.070785
	O468	O	0.439286	0.485266	0.277239
	H469	H	0.433794	0.485027	0.280081
	H470	H	0.438756	0.481004	0.282062
	O471	O	0.462940	0.263202	0.458739
	H472	H	0.448933	0.259152	0.489910
	H473	H	0.477403	0.264392	0.467254
	O474	O	0.284147	0.709668	0.285567
	H475	H	0.272460	0.699245	0.266352
	H476	H	0.280970	0.722480	0.265738
	O477	O	0.594260	0.419448	1.613930
	H478	H	0.573853	0.412911	1.607640
	H479	H	0.572432	0.434161	1.606047
	O480	O	0.444972	0.315363	0.669638
	H481	H	0.435336	0.304470	0.666320
	H482	H	0.452666	0.309682	0.674338
	O483	O	0.632208	0.475255	0.617529
	H484	H	0.633317	0.496289	0.613157
	H485	H	0.641537	0.482237	0.627553
	O486	O	0.805771	0.188511	0.796452
	H487	H	0.788890	0.180620	0.799450
	H488	H	0.792196	0.196608	0.826275
	O489	O	0.957126	0.899189	0.006338
	H490	H	0.946164	0.885988	-0.000637
	H491	H	0.946471	0.913922	0.031357
