data_Molecule from HDF5

_cell_length_a		16.256783
_cell_length_b		16.314557
_cell_length_c		16.271531
_cell_angle_alpha	90.032930
_cell_angle_beta	89.868143
_cell_angle_gamma	89.938322
_symmetry_space_group_name_H-M	'P 1'
_symmetry_Int_Tables_number		1

loop_
	_symmetry_equiv_pos_as_xyz
	x,y,z

loop_
	_atom_site_label
	_atom_site_type_symbol
	_atom_site_fract_x
	_atom_site_fract_y
	_atom_site_fract_z
	H0	H	0.402140	0.836540	0.713724
	H1	H	0.599158	0.163466	0.714138
	H2	H	0.599068	0.837619	0.284046
	H3	H	0.402929	0.164012	0.286850
	H4	H	0.714187	0.401674	0.836289
	H5	H	0.712511	0.596942	0.164610
	H6	H	0.286949	0.597393	0.835918
	H7	H	0.285999	0.403341	0.164077
	H8	H	0.836509	0.714652	0.402442
	H9	H	0.164206	0.712984	0.598037
	H10	H	0.836344	0.284794	0.599847
	H11	H	0.163664	0.285710	0.402042
	H12	H	0.836594	0.402018	0.714950
	H13	H	0.163721	0.597187	0.714109
	H14	H	0.835589	0.596855	0.287755
	H15	H	0.164618	0.402105	0.286542
	H16	H	0.400771	0.715023	0.836054
	H17	H	0.596673	0.714203	0.164083
	H18	H	0.598684	0.285309	0.836561
	H19	H	0.402010	0.287374	0.164443
	H20	H	0.713932	0.836583	0.401203
	H21	H	0.713892	0.162852	0.596930
	H22	H	0.286672	0.836042	0.596525
	H23	H	0.285404	0.163550	0.401898
	H24	H	0.901520	0.336220	0.214973
	H25	H	0.097679	0.663078	0.213909
	H26	H	0.099395	0.336482	0.784981
	H27	H	0.901730	0.663097	0.786457
	H28	H	0.213149	0.903554	0.335197
	H29	H	0.213405	0.097071	0.664143
	H30	H	0.786223	0.097565	0.336237
	H31	H	0.784888	0.901810	0.663710
	H32	H	0.335741	0.215220	0.901854
	H33	H	0.663755	0.213522	0.096990
	H34	H	0.336302	0.786204	0.099114
	H35	H	0.663678	0.785639	0.901426
	H36	H	0.336357	0.902910	0.214212
	H37	H	0.663789	0.097895	0.212993
	H38	H	0.335122	0.098600	0.786238
	H39	H	0.664007	0.902908	0.785603
	H40	H	0.900348	0.215039	0.336856
	H41	H	0.098134	0.213819	0.663780
	H42	H	0.097371	0.786400	0.336102
	H43	H	0.901462	0.786320	0.664113
	H44	H	0.216564	0.337291	0.900783
	H45	H	0.213817	0.664068	0.097492
	H46	H	0.785349	0.335876	0.098220
	H47	H	0.786282	0.663063	0.902879
	H48	H	0.406744	0.115953	0.591724
	H49	H	0.593886	0.883795	0.591050
	H50	H	0.589360	0.113714	0.412417
	H51	H	0.404019	0.881776	0.402683
	H52	H	0.591552	0.416218	0.114171
	H53	H	0.598374	0.593399	0.881628
	H54	H	0.419585	0.600711	0.115185
	H55	H	0.410851	0.392947	0.880445
	H56	H	0.118439	0.596860	0.403079
	H57	H	0.882128	0.597331	0.592460
	H58	H	0.114394	0.410077	0.587319
	H59	H	0.880096	0.403775	0.400737
	H60	H	0.118441	0.409280	0.600098
	H61	H	0.884917	0.591382	0.590790
	H62	H	0.116140	0.594510	0.411891
	H63	H	0.883506	0.401462	0.413817
	H64	H	0.394817	0.601956	0.122248
	H65	H	0.591315	0.589647	0.885556
	H66	H	0.585281	0.401707	0.116662
	H67	H	0.393506	0.412330	0.880758
	H68	H	0.601202	0.118913	0.407370
	H69	H	0.594318	0.882371	0.595157
	H70	H	0.405149	0.117361	0.594302
	H71	H	0.411204	0.884645	0.404581
	H72	H	0.911760	0.615764	0.097003
	H73	H	0.101388	0.381937	0.088038
	H74	H	0.093044	0.617050	0.904519
	H75	H	0.921126	0.388851	0.910257
	H76	H	0.095758	0.911658	0.616111
	H77	H	0.090131	0.094467	0.383434
	H78	H	0.911446	0.093974	0.615808
	H79	H	0.915698	0.913494	0.387850
	H80	H	0.615944	0.105802	0.918081
	H81	H	0.379015	0.089894	0.110564
	H82	H	0.614069	0.910389	0.087554
	H83	H	0.384332	0.909946	0.907355
	H84	H	0.618011	0.908741	0.098791
	H85	H	0.379613	0.110344	0.086750
	H86	H	0.610151	0.077683	0.911164
	H87	H	0.381250	0.905594	0.903303
	H88	H	0.904379	0.096261	0.618670
	H89	H	0.096441	0.094768	0.381769
	H90	H	0.088249	0.905049	0.616015
	H91	H	0.910505	0.894967	0.380999
	H92	H	0.092663	0.615619	0.907555
	H93	H	0.093821	0.381155	0.101573
	H94	H	0.906137	0.613732	0.087857
	H95	H	0.895376	0.382300	0.918089
	H96	H	0.408353	0.116217	0.594174
	H97	H	0.590659	0.884576	0.593708
	H98	H	0.590427	0.117828	0.399347
	H99	H	0.405379	0.884144	0.409974
	H100	H	0.600798	0.403847	0.120111
	H101	H	0.590900	0.598022	0.883143
	H102	H	0.404746	0.579846	0.113079
	H103	H	0.418316	0.416498	0.889683
	H104	H	0.116143	0.587702	0.404702
	H105	H	0.882105	0.592587	0.596832
	H106	H	0.118982	0.398238	0.592141
	H107	H	0.885594	0.414401	0.408660
	H108	H	0.901507	0.618172	0.096197
	H109	H	0.086673	0.387366	0.089043
	H110	H	0.095445	0.616899	0.906246
	H111	H	0.903639	0.377800	0.891785
	H112	H	0.096723	0.901995	0.619219
	H113	H	0.093741	0.089738	0.383826
	H114	H	0.905227	0.088893	0.615871
	H115	H	0.896685	0.909715	0.380870
	H116	H	0.621960	0.095941	0.890103
	H117	H	0.390054	0.081025	0.082573
	H118	H	0.618956	0.899827	0.090715
	H119	H	0.382855	0.904256	0.909234
	C120	C	0.378462	0.008527	0.621519
	C121	C	0.621385	0.991631	0.621216
	C122	C	0.621986	0.008659	0.377738
	C123	C	0.378624	0.991605	0.377872
	C124	C	0.621378	0.378704	0.008443
	C125	C	0.621342	0.621702	0.991987
	C126	C	0.378310	0.621989	0.008208
	C127	C	0.378736	0.378920	0.991968
	C128	C	0.008422	0.621437	0.378678
	C129	C	0.991441	0.621515	0.621923
	C130	C	0.008812	0.378041	0.621836
	C131	C	0.991422	0.378434	0.378893
	C132	C	0.877869	0.507807	0.122263
	C133	C	0.121705	0.491672	0.120956
	C134	C	0.122104	0.508479	0.878206
	C135	C	0.878227	0.491424	0.878835
	C136	C	0.121731	0.878413	0.508542
	C137	C	0.121729	0.121241	0.491672
	C138	C	0.878886	0.121267	0.508358
	C139	C	0.878621	0.878116	0.491722
	C140	C	0.507574	0.121870	0.878358
	C141	C	0.491072	0.122085	0.121512
	C142	C	0.508476	0.878826	0.120638
	C143	C	0.491378	0.878546	0.878267
	C144	C	0.381337	0.885085	0.676009
	C145	C	0.618910	0.114591	0.675976
	C146	C	0.619304	0.885958	0.322502
	C147	C	0.381686	0.115159	0.323897
	C148	C	0.676288	0.381486	0.885030
	C149	C	0.675271	0.618342	0.115519
	C150	C	0.324012	0.618512	0.884812
	C151	C	0.323751	0.382349	0.115283
	C152	C	0.885197	0.676654	0.381568
	C153	C	0.114922	0.675911	0.619163
	C154	C	0.885170	0.323113	0.619692
	C155	C	0.115116	0.323425	0.381137
	C156	C	0.885301	0.381063	0.676991
	C157	C	0.114949	0.617954	0.676168
	C158	C	0.884835	0.618061	0.324893
	C159	C	0.115349	0.381501	0.324119
	C160	C	0.380762	0.676711	0.884951
	C161	C	0.617832	0.676422	0.115277
	C162	C	0.619322	0.323290	0.885463
	C163	C	0.381160	0.324731	0.115451
	C164	C	0.676739	0.885769	0.380209
	C165	C	0.676113	0.114469	0.617938
	C166	C	0.324068	0.884931	0.617995
	C167	C	0.323650	0.114843	0.381275
	C168	C	0.880708	0.385019	0.177205
	C169	C	0.118693	0.614712	0.176085
	C170	C	0.119846	0.385377	0.822921
	C171	C	0.881163	0.614334	0.824146
	C172	C	0.175842	0.881995	0.384608
	C173	C	0.176144	0.118085	0.615114
	C174	C	0.823823	0.118462	0.385330
	C175	C	0.822948	0.881047	0.614882
	C176	C	0.384311	0.176974	0.881475
	C177	C	0.614895	0.176210	0.117984
	C178	C	0.385064	0.823995	0.119059
	C179	C	0.615108	0.823877	0.880826
	C180	C	0.385049	0.882065	0.176210
	C181	C	0.614861	0.118779	0.175561
	C182	C	0.384073	0.119108	0.824037
	C183	C	0.615149	0.881866	0.823447
	C184	C	0.880923	0.176354	0.385284
	C185	C	0.118414	0.175749	0.615188
	C186	C	0.118469	0.823850	0.384892
	C187	C	0.881132	0.823868	0.615255
	C188	C	0.177903	0.385782	0.880478
	C189	C	0.175998	0.614961	0.118165
	C190	C	0.822960	0.384915	0.119218
	C191	C	0.823659	0.614413	0.881939
	C192	C	0.400311	0.094299	0.599687
	C193	C	0.599465	0.905545	0.599711
	C194	C	0.599847	0.094753	0.399696
	C195	C	0.400532	0.905786	0.399202
	C196	C	0.599129	0.400778	0.094829
	C197	C	0.599770	0.599994	0.905714
	C198	C	0.399937	0.600597	0.094417
	C199	C	0.401182	0.400606	0.905892
	C200	C	0.094834	0.599574	0.400305
	C201	C	0.905085	0.599996	0.599807
	C202	C	0.094943	0.399406	0.599737
	C203	C	0.905289	0.400009	0.401104
	C204	C	0.900007	0.593749	0.100200
	C205	C	0.100235	0.405727	0.099266
	C206	C	0.100203	0.594381	0.899740
	C207	C	0.900217	0.405181	0.900381
	C208	C	0.099835	0.899938	0.594775
	C209	C	0.099759	0.099382	0.405239
	C210	C	0.900616	0.099479	0.594620
	C211	C	0.900968	0.899594	0.405467
	C212	C	0.593803	0.099748	0.900063
	C213	C	0.404949	0.100098	0.099763
	C214	C	0.594632	0.900021	0.098784
	C215	C	0.405214	0.900192	0.900193
	Zn216	Zn	0.499752	0.000108	0.750083
	Zn217	Zn	0.500322	0.000517	0.249212
	Zn218	Zn	0.749543	0.499710	0.000155
	Zn219	Zn	0.250459	0.500163	-0.000148
	Zn220	Zn	0.000236	0.749644	0.500596
	Zn221	Zn	-0.000035	0.249770	0.500113
	Zn222	Zn	0.000027	0.499777	0.749983
	Zn223	Zn	0.000531	0.499770	0.250406
	Zn224	Zn	0.499808	0.750081	-0.000292
	Zn225	Zn	0.499734	0.250311	0.000538
	Zn226	Zn	0.749967	-0.000550	0.499736
	Zn227	Zn	0.250174	-0.000035	0.499970
	N228	N	0.414138	0.962756	0.678621
	N229	N	0.585347	0.037157	0.677988
	N230	N	0.586201	0.963582	0.320710
	N231	N	0.415189	0.037596	0.321674
	N232	N	0.677517	0.415125	0.962705
	N233	N	0.677335	0.584933	0.037851
	N234	N	0.322567	0.585103	0.962490
	N235	N	0.322191	0.415260	0.037425
	N236	N	0.963056	0.678563	0.414684
	N237	N	0.037075	0.678169	0.586066
	N238	N	0.962895	0.321178	0.585917
	N239	N	0.037278	0.321420	0.414748
	N240	N	0.962841	0.414587	0.678346
	N241	N	0.037096	0.584806	0.677836
	N242	N	0.962557	0.584762	0.322752
	N243	N	0.037533	0.414914	0.322741
	N244	N	0.413774	0.679074	0.962782
	N245	N	0.585179	0.678683	0.037263
	N246	N	0.585729	0.321591	0.963178
	N247	N	0.414791	0.322595	0.037748
	N248	N	0.678128	0.963076	0.414192
	N249	N	0.677445	0.037011	0.584542
	N250	N	0.322144	0.962588	0.584759
	N251	N	0.321700	0.037186	0.414178
	N252	N	0.914240	0.462420	0.179094
	N253	N	0.085499	0.537091	0.177931
	N254	N	0.085719	0.462664	0.821479
	N255	N	0.914377	0.536642	0.821923
	N256	N	0.178004	0.915018	0.462485
	N257	N	0.178130	0.084853	0.537386
	N258	N	0.822711	0.084478	0.462796
	N259	N	0.821673	0.914260	0.537025
	N260	N	0.462220	0.178730	0.914708
	N261	N	0.537045	0.178264	0.085093
	N262	N	0.462605	0.822201	0.085023
	N263	N	0.537331	0.821763	0.914254
	N264	N	0.462746	0.915617	0.177336
	N265	N	0.536855	0.086005	0.177971
	N266	N	0.461707	0.085533	0.822116
	N267	N	0.537243	0.914939	0.821630
	N268	N	0.914420	0.178223	0.462797
	N269	N	0.085394	0.177947	0.537225
	N270	N	0.085513	0.821628	0.462881
	N271	N	0.914856	0.821784	0.537600
	N272	N	0.179377	0.463232	0.913930
	N273	N	0.177985	0.537468	0.084659
	N274	N	0.821196	0.462423	0.085831
	N275	N	0.821921	0.536975	0.915134
