data_Molecule from HDF5

_cell_length_a		16.302155
_cell_length_b		16.163578
_cell_length_c		16.168713
_cell_angle_alpha	89.296521
_cell_angle_beta	88.898638
_cell_angle_gamma	90.584573
_symmetry_space_group_name_H-M	'P 1'
_symmetry_Int_Tables_number		1

loop_
	_symmetry_equiv_pos_as_xyz
	x,y,z

loop_
	_atom_site_label
	_atom_site_type_symbol
	_atom_site_fract_x
	_atom_site_fract_y
	_atom_site_fract_z
	H0	H	0.398477	0.840704	0.715995
	H1	H	0.601322	0.170387	0.705001
	H2	H	0.602202	0.838753	0.281622
	H3	H	0.410234	0.169258	0.281868
	H4	H	0.723454	0.406301	0.832296
	H5	H	0.720559	0.606455	0.159109
	H6	H	0.298037	0.604345	0.828085
	H7	H	0.281469	0.396744	0.155516
	H8	H	0.839804	0.718753	0.397823
	H9	H	0.165095	0.719706	0.591454
	H10	H	0.840338	0.285799	0.599674
	H11	H	0.166647	0.291186	0.394565
	H12	H	0.842091	0.398668	0.717574
	H13	H	0.168260	0.600934	0.701353
	H14	H	0.840019	0.602919	0.281086
	H15	H	0.166924	0.406778	0.277746
	H16	H	0.409010	0.721969	0.832516
	H17	H	0.600186	0.715816	0.160773
	H18	H	0.606540	0.293041	0.831037
	H19	H	0.402028	0.289277	0.159573
	H20	H	0.720006	0.839366	0.393909
	H21	H	0.720344	0.167802	0.590958
	H22	H	0.283797	0.840878	0.602346
	H23	H	0.293538	0.168997	0.395259
	H24	H	0.900355	0.339391	0.213922
	H25	H	0.102360	0.669420	0.204169
	H26	H	0.101516	0.337587	0.781664
	H27	H	0.912030	0.667266	0.780877
	H28	H	0.225259	0.904434	0.333733
	H29	H	0.216746	0.105350	0.660118
	H30	H	0.796318	0.102898	0.330859
	H31	H	0.781312	0.897075	0.658021
	H32	H	0.340292	0.219315	0.900178
	H33	H	0.666779	0.220169	0.091826
	H34	H	0.341629	0.784899	0.102092
	H35	H	0.667900	0.791972	0.893307
	H36	H	0.341663	0.901212	0.217298
	H37	H	0.668071	0.102577	0.203529
	H38	H	0.340002	0.105911	0.782308
	H39	H	0.666108	0.906953	0.776203
	H40	H	0.909172	0.217044	0.332420
	H41	H	0.098306	0.215075	0.660817
	H42	H	0.105310	0.793211	0.330755
	H43	H	0.899751	0.786752	0.660153
	H44	H	0.221353	0.339485	0.892203
	H45	H	0.220865	0.668176	0.089045
	H46	H	0.784254	0.339854	0.100911
	H47	H	0.794220	0.667060	0.892751
	H48	H	0.407614	0.127486	0.601409
	H49	H	0.596575	0.884444	0.589150
	H50	H	0.592013	0.120145	0.393347
	H51	H	0.418670	0.888798	0.408993
	H52	H	0.593493	0.411524	0.113280
	H53	H	0.598578	0.605376	0.876818
	H54	H	0.403479	0.596178	0.115863
	H55	H	0.415753	0.424407	0.880242
	H56	H	0.119548	0.596616	0.397650
	H57	H	0.885908	0.599437	0.584126
	H58	H	0.123523	0.401270	0.588495
	H59	H	0.884609	0.406886	0.401043
	H60	H	0.118718	0.410357	0.578027
	H61	H	0.889691	0.585415	0.587672
	H62	H	0.120512	0.599513	0.398190
	H63	H	0.886719	0.405526	0.409643
	H64	H	0.407575	0.582968	0.109827
	H65	H	0.609359	0.596682	0.876424
	H66	H	0.593312	0.411321	0.113050
	H67	H	0.424398	0.403196	0.876855
	H68	H	0.603462	0.118354	0.410464
	H69	H	0.585287	0.888458	0.590410
	H70	H	0.423613	0.117847	0.584472
	H71	H	0.408369	0.888249	0.413041
	H72	H	0.908262	0.620769	0.083128
	H73	H	0.097743	0.384223	0.088015
	H74	H	0.100305	0.620721	0.896143
	H75	H	0.906250	0.384468	0.911388
	H76	H	0.088032	0.914084	0.610573
	H77	H	0.098831	0.095676	0.379464
	H78	H	0.908261	0.089946	0.613580
	H79	H	0.920952	0.912457	0.380557
	H80	H	0.618899	0.098405	0.902051
	H81	H	0.384941	0.093761	0.099747
	H82	H	0.623043	0.903707	0.085809
	H83	H	0.387882	0.904300	0.915744
	H84	H	0.617488	0.915051	0.082330
	H85	H	0.385713	0.103786	0.087599
	H86	H	0.619195	0.095641	0.897295
	H87	H	0.391629	0.920215	0.912185
	H88	H	0.909661	0.093479	0.614155
	H89	H	0.100703	0.099469	0.377402
	H90	H	0.090704	0.904501	0.615595
	H91	H	0.910134	0.903132	0.374750
	H92	H	0.103080	0.621130	0.898593
	H93	H	0.088825	0.387748	0.088609
	H94	H	0.913057	0.621801	0.090522
	H95	H	0.912121	0.382931	0.900237
	H96	H	0.400303	0.122384	0.578668
	H97	H	0.592254	0.889167	0.580106
	H98	H	0.611334	0.126847	0.392933
	H99	H	0.409867	0.884289	0.401682
	H100	H	0.594093	0.411425	0.113182
	H101	H	0.596141	0.592333	0.881990
	H102	H	0.417789	0.594927	0.110375
	H103	H	0.402501	0.407220	0.870775
	H104	H	0.119957	0.599208	0.399783
	H105	H	0.884106	0.594300	0.598332
	H106	H	0.120573	0.415451	0.592345
	H107	H	0.888170	0.414335	0.405433
	H108	H	0.917654	0.618550	0.083345
	H109	H	0.093810	0.388362	0.079716
	H110	H	0.104392	0.622029	0.894877
	H111	H	0.919397	0.388253	0.909378
	H112	H	0.097801	0.913189	0.613944
	H113	H	0.102705	0.093944	0.378234
	H114	H	0.905855	0.092265	0.615814
	H115	H	0.906504	0.917943	0.377492
	H116	H	0.621719	0.101257	0.898013
	H117	H	0.390501	0.088707	0.085548
	H118	H	0.622761	0.913445	0.094842
	H119	H	0.385853	0.910212	0.900502
	C120	C	0.379771	0.013621	0.619745
	C121	C	0.622379	0.995845	0.614340
	C122	C	0.628764	0.012705	0.371344
	C123	C	0.385405	0.996097	0.377426
	C124	C	0.625279	0.383645	0.004703
	C125	C	0.628263	0.626410	0.987041
	C126	C	0.383886	0.623230	0.003502
	C127	C	0.382601	0.381289	0.984691
	C128	C	0.011894	0.626798	0.371740
	C129	C	0.994591	0.622825	0.615539
	C130	C	0.012918	0.379082	0.617785
	C131	C	0.994410	0.381225	0.374230
	C132	C	0.881534	0.512318	0.117457
	C133	C	0.123905	0.495589	0.113210
	C134	C	0.129268	0.511965	0.869455
	C135	C	0.885317	0.493771	0.875547
	C136	C	0.124407	0.882417	0.504963
	C137	C	0.126531	0.125298	0.487111
	C138	C	0.882765	0.121978	0.505539
	C139	C	0.881081	0.880245	0.486285
	C140	C	0.511934	0.127516	0.872863
	C141	C	0.495121	0.124944	0.116567
	C142	C	0.513074	0.880190	0.119564
	C143	C	0.495691	0.883156	0.876329
	C144	C	0.379263	0.890117	0.677724
	C145	C	0.621359	0.120505	0.667823
	C146	C	0.624032	0.888246	0.318051
	C147	C	0.389513	0.120132	0.320598
	C148	C	0.683823	0.386615	0.880841
	C149	C	0.682295	0.625130	0.110317
	C150	C	0.332956	0.624314	0.878578
	C151	C	0.321787	0.379253	0.107207
	C152	C	0.888982	0.681468	0.376248
	C153	C	0.117070	0.680170	0.611457
	C154	C	0.889678	0.323181	0.618658
	C155	C	0.117717	0.328133	0.374701
	C156	C	0.890645	0.379335	0.677381
	C157	C	0.118612	0.621170	0.666188
	C158	C	0.888951	0.623438	0.318593
	C159	C	0.117704	0.385635	0.316520
	C160	C	0.388494	0.682545	0.880744
	C161	C	0.622718	0.679866	0.111196
	C162	C	0.626069	0.329716	0.880524
	C163	C	0.381822	0.325649	0.109307
	C164	C	0.682581	0.888593	0.374000
	C165	C	0.680583	0.119353	0.611234
	C166	C	0.322181	0.890146	0.620876
	C167	C	0.331203	0.119804	0.377041
	C168	C	0.880867	0.388670	0.175537
	C169	C	0.122659	0.619869	0.166871
	C170	C	0.124001	0.387508	0.817240
	C171	C	0.890067	0.617954	0.818461
	C172	C	0.184685	0.884915	0.382182
	C173	C	0.179263	0.124379	0.611113
	C174	C	0.831906	0.122170	0.380508
	C175	C	0.821118	0.878542	0.609330
	C176	C	0.389264	0.182482	0.877922
	C177	C	0.618029	0.181550	0.112327
	C178	C	0.390627	0.823058	0.121099
	C179	C	0.618664	0.829096	0.874587
	C180	C	0.390602	0.880907	0.178497
	C181	C	0.618900	0.122997	0.167780
	C182	C	0.389055	0.125799	0.819430
	C183	C	0.617716	0.886164	0.815992
	C184	C	0.888109	0.178782	0.381427
	C185	C	0.120468	0.179297	0.611330
	C186	C	0.124793	0.829537	0.380808
	C187	C	0.880401	0.823932	0.610546
	C188	C	0.183270	0.388308	0.872463
	C189	C	0.181851	0.619066	0.109598
	C190	C	0.822885	0.389118	0.119306
	C191	C	0.831752	0.617926	0.874632
	C192	C	0.403545	0.100136	0.595269
	C193	C	0.598332	0.909736	0.592904
	C194	C	0.608416	0.099380	0.392493
	C195	C	0.406175	0.909378	0.401000
	C196	C	0.600787	0.405122	0.090928
	C197	C	0.607704	0.604590	0.900817
	C198	C	0.403580	0.598393	0.089728
	C199	C	0.407138	0.404768	0.898383
	C200	C	0.097671	0.605113	0.392415
	C201	C	0.908875	0.599809	0.595788
	C202	C	0.098874	0.402249	0.593260
	C203	C	0.908648	0.402602	0.398228
	C204	C	0.905892	0.598007	0.092825
	C205	C	0.100185	0.409204	0.091938
	C206	C	0.108734	0.599009	0.890282
	C207	C	0.906223	0.407540	0.899975
	C208	C	0.099424	0.904022	0.591155
	C209	C	0.106750	0.102886	0.400794
	C210	C	0.902085	0.098744	0.592018
	C211	C	0.905367	0.904241	0.399787
	C212	C	0.597900	0.105155	0.893015
	C213	C	0.409324	0.102028	0.096842
	C214	C	0.598830	0.903827	0.094745
	C215	C	0.410566	0.905024	0.901881
	Zn216	Zn	0.501817	0.004758	0.745535
	Zn217	Zn	0.504985	0.004097	0.246069
	Zn218	Zn	0.754882	0.503800	-0.004192
	Zn219	Zn	0.255466	0.502996	-0.008390
	Zn220	Zn	0.002377	0.753339	0.495898
	Zn221	Zn	0.003602	0.250759	0.496331
	Zn222	Zn	0.005004	0.502374	0.744598
	Zn223	Zn	0.003028	0.503409	0.244397
	Zn224	Zn	0.504777	0.752273	-0.003000
	Zn225	Zn	0.504011	0.254924	-0.004363
	Zn226	Zn	0.754527	0.002712	0.494375
	Zn227	Zn	0.254210	0.004832	0.497525
	N228	N	0.414228	0.968075	0.677406
	N229	N	0.585845	0.042681	0.669959
	N230	N	0.591441	0.966387	0.316073
	N231	N	0.422612	0.042169	0.320685
	N232	N	0.683479	0.419255	0.959031
	N233	N	0.686145	0.592899	0.031929
	N234	N	0.329950	0.587881	0.955899
	N235	N	0.321856	0.412978	0.028677
	N236	N	0.966396	0.683558	0.408530
	N237	N	0.039205	0.681311	0.580637
	N238	N	0.966875	0.322902	0.582279
	N239	N	0.040148	0.325186	0.409894
	N240	N	0.968220	0.413341	0.677013
	N241	N	0.041513	0.585756	0.668960
	N242	N	0.966424	0.590399	0.315363
	N243	N	0.039910	0.417929	0.316244
	N244	N	0.419237	0.682088	0.959482
	N245	N	0.589745	0.680910	0.033544
	N246	N	0.590284	0.327705	0.958410
	N247	N	0.418961	0.326751	0.032199
	N248	N	0.685790	0.967005	0.406219
	N249	N	0.681422	0.040890	0.578827
	N250	N	0.322423	0.968148	0.585682
	N251	N	0.328506	0.041460	0.411786
	N252	N	0.916593	0.466161	0.174610
	N253	N	0.087301	0.542046	0.169029
	N254	N	0.091337	0.465585	0.815145
	N255	N	0.922794	0.539795	0.818948
	N256	N	0.184624	0.917346	0.460615
	N257	N	0.183241	0.091585	0.533075
	N258	N	0.828361	0.087310	0.458452
	N259	N	0.821363	0.913017	0.531082
	N260	N	0.466611	0.183555	0.910372
	N261	N	0.540085	0.182990	0.081101
	N262	N	0.468036	0.822306	0.085359
	N263	N	0.541924	0.827159	0.911422
	N264	N	0.468007	0.915368	0.177838
	N265	N	0.541559	0.088311	0.170616
	N266	N	0.466472	0.092341	0.816143
	N267	N	0.540201	0.919318	0.816975
	N268	N	0.919081	0.179047	0.459947
	N269	N	0.088272	0.180122	0.533219
	N270	N	0.087983	0.827841	0.458163
	N271	N	0.916860	0.824807	0.532912
	N272	N	0.186637	0.466897	0.904028
	N273	N	0.182784	0.540641	0.077048
	N274	N	0.822797	0.467138	0.084191
	N275	N	0.828693	0.539839	0.909446
	O276	O	0.538025	0.421951	0.401649
	H277	H	0.543712	0.434347	0.398294
	H278	H	0.529319	0.425119	0.409465
	O279	O	0.484912	0.370385	0.529182
	H280	H	0.482086	0.360687	0.543998
	H281	H	0.486962	0.377213	0.520876
	O282	O	1.083286	0.881919	-0.097737
	H283	H	1.077894	0.879617	-0.096848
	H284	H	1.083563	0.868289	-0.090673
	O285	O	1.025129	0.088651	0.967412
	H286	H	1.024119	0.069687	0.966150
	H287	H	1.025500	0.096303	0.969584
	O288	O	0.407110	0.548122	0.493555
	H289	H	0.402063	0.568230	0.500314
	H290	H	0.411585	0.550824	0.496374
	O291	O	0.399532	0.462043	0.487757
	H292	H	0.399757	0.466213	0.479910
	H293	H	0.394265	0.451396	0.492885
	O294	O	0.551510	0.459742	0.460550
	H295	H	0.560285	0.458092	0.463118
	H296	H	0.546093	0.455593	0.466083
	O297	O	0.136851	0.120610	1.059778
	H298	H	0.132361	0.122946	1.048623
	H299	H	0.143016	0.115368	1.060258
	O300	O	0.482545	0.556826	0.490742
	H301	H	0.479519	0.557542	0.477551
	H302	H	0.474808	0.556501	0.496250
	O303	O	0.501053	0.543776	0.469408
	H304	H	0.494143	0.542998	0.464172
	H305	H	0.496408	0.548992	0.478751
	O306	O	-0.051284	0.920251	1.069342
	H307	H	-0.052356	0.919314	1.080381
	H308	H	-0.049567	0.915091	1.063806
	O309	O	0.431608	0.521288	0.442613
	H310	H	0.427456	0.523182	0.453394
	H311	H	0.424598	0.518908	0.429435
	O312	O	-0.091870	-0.062074	-0.042738
	H313	H	-0.081953	-0.068803	-0.036575
	H314	H	-0.098987	-0.063571	-0.031701
	O315	O	0.940641	-0.068388	0.090615
	H316	H	0.924079	-0.053889	0.095259
	H317	H	0.941157	-0.070530	0.090251
	O318	O	1.060278	1.033447	0.958446
	H319	H	1.055335	1.014043	0.973472
	H320	H	1.072443	1.028932	0.945769
	O321	O	-0.045510	0.062481	1.053215
	H322	H	-0.041264	0.058997	1.054460
	H323	H	-0.051767	0.075441	1.053411
	O324	O	0.623401	0.569081	0.621153
	H325	H	0.630141	0.569455	0.616359
	H326	H	0.625225	0.560606	0.620272
	O327	O	0.091507	-0.017302	0.012484
	H328	H	0.097835	-0.022434	0.006790
	H329	H	0.094694	-0.014834	0.011556
	O330	O	0.467345	0.472093	0.635263
	H331	H	0.459408	0.480466	0.636436
	H332	H	0.464912	0.473836	0.643605
	O333	O	0.011314	0.934312	1.063396
	H334	H	0.008441	0.933220	1.060561
	H335	H	0.006403	0.926159	1.061248
	O336	O	-0.018064	-0.127164	0.087805
	H337	H	-0.005605	-0.123048	0.089922
	H338	H	-0.015069	-0.137590	0.105945
	O339	O	0.477069	0.577304	0.437665
	H340	H	0.474852	0.584252	0.437124
	H341	H	0.472123	0.573733	0.437360
	O342	O	0.943086	1.014266	1.059664
	H343	H	0.940190	1.015768	1.067237
	H344	H	0.946974	1.026996	1.046191
	O345	O	1.005814	1.036616	-0.049938
	H346	H	1.004923	1.046209	-0.058005
	H347	H	0.995960	1.029302	-0.051032
	O348	O	0.614780	0.490736	0.578699
	H349	H	0.612225	0.478353	0.577581
	H350	H	0.609105	0.487890	0.566763
	O351	O	0.408354	0.517484	0.536344
	H352	H	0.421596	0.538730	0.541357
	H353	H	0.409339	0.515180	0.539389
	O354	O	0.505883	0.446189	0.537643
	H355	H	0.507401	0.444696	0.537163
	H356	H	0.507252	0.436107	0.534272
	O357	O	0.926798	0.011176	0.922816
	H358	H	0.924880	0.011681	0.940766
	H359	H	0.919817	0.018725	0.918184
	O360	O	0.517070	0.670600	0.559277
	H361	H	0.525004	0.664014	0.572427
	H362	H	0.537158	0.669662	0.555050
	O363	O	0.458227	0.482250	0.428608
	H364	H	0.441826	0.489679	0.424802
	H365	H	0.462836	0.486672	0.428755
	O366	O	1.094985	0.990469	0.888280
	H367	H	1.092085	0.971834	0.897588
	H368	H	1.087905	0.991018	0.890682
	O369	O	1.118139	0.030064	1.056937
	H370	H	1.112624	0.030996	1.056373
	H371	H	1.113264	0.043497	1.054663
	O372	O	-0.158478	-0.009764	0.004790
	H373	H	-0.169226	0.001425	0.009818
	H374	H	-0.146889	-0.007921	0.003655
	O375	O	0.941916	0.092031	-0.025845
	H376	H	0.944679	0.087715	-0.050031
	H377	H	0.937251	0.088466	-0.028654
	O378	O	0.522121	0.463793	0.436807
	H379	H	0.525165	0.463701	0.425627
	H380	H	0.518574	0.459719	0.442555
	O381	O	0.570276	0.594469	0.497381
	H382	H	0.570234	0.584487	0.496450
	H383	H	0.575373	0.590521	0.499456
