data_Molecule from HDF5

_cell_length_a		16.259063
_cell_length_b		16.246467
_cell_length_c		16.167068
_cell_angle_alpha	89.898505
_cell_angle_beta	90.336359
_cell_angle_gamma	89.712641
_symmetry_space_group_name_H-M	'P 1'
_symmetry_Int_Tables_number		1

loop_
	_symmetry_equiv_pos_as_xyz
	x,y,z

loop_
	_atom_site_label
	_atom_site_type_symbol
	_atom_site_fract_x
	_atom_site_fract_y
	_atom_site_fract_z
	H0	H	0.405686	0.845135	0.711691
	H1	H	0.600481	0.173226	0.712549
	H2	H	0.601120	0.845819	0.285300
	H3	H	0.398619	0.172919	0.281367
	H4	H	0.716749	0.408491	0.832997
	H5	H	0.720438	0.608456	0.160156
	H6	H	0.286429	0.608342	0.833183
	H7	H	0.291328	0.409745	0.161849
	H8	H	0.839186	0.725716	0.395636
	H9	H	0.167458	0.722891	0.597259
	H10	H	0.839717	0.294279	0.596569
	H11	H	0.165939	0.291455	0.396840
	H12	H	0.838692	0.411069	0.710613
	H13	H	0.166801	0.606585	0.713942
	H14	H	0.840171	0.609728	0.279871
	H15	H	0.167451	0.410489	0.284628
	H16	H	0.401484	0.724824	0.832943
	H17	H	0.604249	0.722456	0.161391
	H18	H	0.602037	0.293528	0.833344
	H19	H	0.406006	0.295213	0.161911
	H20	H	0.718083	0.847142	0.398889
	H21	H	0.719955	0.171745	0.602752
	H22	H	0.288649	0.844485	0.597963
	H23	H	0.283563	0.171835	0.396416
	H24	H	0.906254	0.345499	0.212134
	H25	H	0.102984	0.673280	0.211701
	H26	H	0.101312	0.344172	0.784136
	H27	H	0.902067	0.671937	0.781509
	H28	H	0.217183	0.908652	0.333986
	H29	H	0.217743	0.107562	0.662365
	H30	H	0.782179	0.112326	0.335225
	H31	H	0.789726	0.909765	0.662369
	H32	H	0.339379	0.226196	0.896743
	H33	H	0.666221	0.222846	0.100993
	H34	H	0.339797	0.792233	0.097784
	H35	H	0.665726	0.791039	0.897835
	H36	H	0.338020	0.909539	0.212289
	H37	H	0.665147	0.106987	0.215302
	H38	H	0.338458	0.109908	0.780502
	H39	H	0.666516	0.908003	0.783072
	H40	H	0.900496	0.224777	0.332173
	H41	H	0.103245	0.223227	0.661965
	H42	H	0.102187	0.795372	0.332183
	H43	H	0.904938	0.794146	0.661440
	H44	H	0.219488	0.344865	0.896962
	H45	H	0.219358	0.672031	0.097996
	H46	H	0.789676	0.344820	0.097064
	H47	H	0.784325	0.670443	0.892809
	H48	H	0.405161	0.125017	0.584268
	H49	H	0.596915	0.891733	0.593785
	H50	H	0.594364	0.126437	0.410083
	H51	H	0.412650	0.895143	0.408920
	H52	H	0.588787	0.410055	0.114619
	H53	H	0.584672	0.608210	0.879487
	H54	H	0.413101	0.593218	0.111789
	H55	H	0.406978	0.423405	0.880733
	H56	H	0.120594	0.606880	0.406365
	H57	H	0.884939	0.599470	0.595994
	H58	H	0.122251	0.404724	0.590885
	H59	H	0.887425	0.416071	0.407365
	H60	H	0.115765	0.419991	0.582151
	H61	H	0.885019	0.611739	0.586664
	H62	H	0.118035	0.598992	0.408433
	H63	H	0.887970	0.421406	0.404332
	H64	H	0.417017	0.608141	0.115382
	H65	H	0.604023	0.601539	0.876653
	H66	H	0.606959	0.411274	0.119450
	H67	H	0.417629	0.416197	0.881474
	H68	H	0.593236	0.127960	0.403651
	H69	H	0.593390	0.893814	0.589416
	H70	H	0.405851	0.127357	0.592813
	H71	H	0.403539	0.890740	0.406572
	H72	H	0.911608	0.626525	0.092984
	H73	H	0.098779	0.389958	0.094433
	H74	H	0.097998	0.625883	0.904887
	H75	H	0.916840	0.394903	0.909535
	H76	H	0.091155	0.917758	0.612819
	H77	H	0.086266	0.109311	0.379543
	H78	H	0.912133	0.108420	0.615597
	H79	H	0.913135	0.926598	0.384329
	H80	H	0.617530	0.093653	0.904880
	H81	H	0.384194	0.107756	0.088622
	H82	H	0.616278	0.920934	0.087989
	H83	H	0.384222	0.914882	0.902433
	H84	H	0.620206	0.916956	0.097859
	H85	H	0.387589	0.101464	0.083704
	H86	H	0.622035	0.104822	0.899724
	H87	H	0.387705	0.915948	0.911244
	H88	H	0.906261	0.097834	0.614937
	H89	H	0.103058	0.100546	0.377404
	H90	H	0.095525	0.910788	0.616543
	H91	H	0.914926	0.910128	0.379703
	H92	H	0.091712	0.624125	0.902376
	H93	H	0.093222	0.394223	0.089371
	H94	H	0.915571	0.622110	0.083541
	H95	H	0.902200	0.389952	0.907566
	H96	H	0.413929	0.124217	0.589290
	H97	H	0.599352	0.892396	0.587253
	H98	H	0.588088	0.124981	0.406849
	H99	H	0.411214	0.891101	0.399617
	H100	H	0.597705	0.426138	0.111172
	H101	H	0.589871	0.588308	0.884274
	H102	H	0.402731	0.603013	0.117548
	H103	H	0.406897	0.411046	0.876031
	H104	H	0.121539	0.601410	0.400660
	H105	H	0.890146	0.597573	0.581752
	H106	H	0.121229	0.420896	0.599224
	H107	H	0.885326	0.416158	0.401759
	H108	H	0.905249	0.625877	0.083240
	H109	H	0.101076	0.392298	0.087069
	H110	H	0.093999	0.624215	0.908910
	H111	H	0.912066	0.389377	0.895777
	H112	H	0.099282	0.918610	0.615421
	H113	H	0.088977	0.091639	0.384828
	H114	H	0.917225	0.098241	0.611043
	H115	H	0.899913	0.918466	0.376828
	H116	H	0.616900	0.104347	0.912672
	H117	H	0.385431	0.099940	0.092256
	H118	H	0.619784	0.910650	0.088914
	H119	H	0.388417	0.922156	0.905266
	C120	C	0.380648	0.017332	0.618669
	C121	C	0.624704	1.000857	0.620164
	C122	C	0.622469	0.018405	0.377767
	C123	C	0.379109	1.000462	0.375536
	C124	C	0.625748	0.386649	0.006299
	C125	C	0.623814	0.628784	0.988502
	C126	C	0.380761	0.630808	0.005956
	C127	C	0.382552	0.387931	0.988408
	C128	C	0.012092	0.631766	0.374805
	C129	C	0.994925	0.631198	0.618655
	C130	C	0.011254	0.386992	0.619004
	C131	C	0.994849	0.388045	0.375627
	C132	C	0.882201	0.517348	0.117422
	C133	C	0.126010	0.500414	0.119245
	C134	C	0.124380	0.516720	0.876198
	C135	C	0.880431	0.499298	0.874502
	C136	C	0.124359	0.886836	0.506320
	C137	C	0.123182	0.129573	0.489154
	C138	C	0.880711	0.131547	0.505811
	C139	C	0.881393	0.888601	0.488895
	C140	C	0.510936	0.131242	0.875432
	C141	C	0.493685	0.130819	0.119423
	C142	C	0.510765	0.886895	0.120450
	C143	C	0.494573	0.887354	0.876244
	C144	C	0.384150	0.893976	0.674449
	C145	C	0.621442	0.124158	0.675495
	C146	C	0.621218	0.895006	0.322767
	C147	C	0.379576	0.123706	0.319454
	C148	C	0.679922	0.387887	0.882383
	C149	C	0.681796	0.627899	0.111434
	C150	C	0.324711	0.628871	0.882176
	C151	C	0.328350	0.389850	0.112580
	C152	C	0.888594	0.688075	0.375417
	C153	C	0.118141	0.685896	0.617846
	C154	C	0.888530	0.332001	0.616742
	C155	C	0.117424	0.330880	0.377481
	C156	C	0.887832	0.390307	0.673162
	C157	C	0.117992	0.627641	0.675563
	C158	C	0.888980	0.630249	0.318150
	C159	C	0.118144	0.389797	0.321452
	C160	C	0.381784	0.686997	0.882346
	C161	C	0.623791	0.684488	0.112165
	C162	C	0.622822	0.330853	0.882532
	C163	C	0.385419	0.332882	0.112665
	C164	C	0.679842	0.895955	0.379045
	C165	C	0.681037	0.123333	0.620919
	C166	C	0.326027	0.893848	0.617880
	C167	C	0.321890	0.123112	0.376491
	C168	C	0.885417	0.394137	0.173848
	C169	C	0.123444	0.623898	0.174369
	C170	C	0.122129	0.393207	0.821506
	C171	C	0.881692	0.622606	0.818505
	C172	C	0.179842	0.888422	0.382918
	C173	C	0.179880	0.127928	0.613109
	C174	C	0.821812	0.131832	0.383484
	C175	C	0.827023	0.890027	0.612766
	C176	C	0.388188	0.188007	0.876616
	C177	C	0.616861	0.185404	0.119806
	C178	C	0.388400	0.830539	0.118202
	C179	C	0.617178	0.829811	0.877823
	C180	C	0.387398	0.889203	0.174913
	C181	C	0.616346	0.127842	0.176966
	C182	C	0.387746	0.129944	0.818917
	C183	C	0.617393	0.887983	0.820697
	C184	C	0.880896	0.187449	0.382104
	C185	C	0.123034	0.185608	0.612700
	C186	C	0.122324	0.832272	0.382000
	C187	C	0.884123	0.832092	0.612464
	C188	C	0.181063	0.393810	0.877368
	C189	C	0.181558	0.623295	0.117908
	C190	C	0.827428	0.393952	0.116646
	C191	C	0.823243	0.621794	0.874355
	C192	C	0.402048	0.103283	0.595594
	C193	C	0.602961	0.914934	0.597149
	C194	C	0.598771	0.104164	0.400343
	C195	C	0.402446	0.914612	0.398247
	C196	C	0.604140	0.409190	0.092593
	C197	C	0.599900	0.606179	0.902433
	C198	C	0.404065	0.608267	0.092403
	C199	C	0.404230	0.410248	0.901996
	C200	C	0.097887	0.609079	0.398154
	C201	C	0.909047	0.609441	0.595019
	C202	C	0.097435	0.408889	0.597393
	C203	C	0.909155	0.411191	0.397913
	C204	C	0.904468	0.602748	0.093735
	C205	C	0.104120	0.414443	0.096965
	C206	C	0.101331	0.602632	0.898595
	C207	C	0.903690	0.413465	0.897539
	C208	C	0.101864	0.909132	0.592414
	C209	C	0.099730	0.107020	0.403109
	C210	C	0.904706	0.108285	0.591589
	C211	C	0.903020	0.911654	0.402570
	C212	C	0.596663	0.107722	0.898897
	C213	C	0.408080	0.109242	0.095202
	C214	C	0.596409	0.909557	0.097991
	C215	C	0.408995	0.910895	0.899223
	Zn216	Zn	0.502913	0.008680	0.747088
	Zn217	Zn	0.501277	0.009441	0.248419
	Zn218	Zn	0.752923	0.507826	-0.003834
	Zn219	Zn	0.253806	0.508345	-0.002872
	Zn220	Zn	0.003198	0.760193	0.496327
	Zn221	Zn	0.002811	0.258747	0.496802
	Zn222	Zn	0.002767	0.508457	0.747497
	Zn223	Zn	0.003697	0.509274	0.246720
	Zn224	Zn	0.503228	0.758489	-0.002069
	Zn225	Zn	0.503417	0.259943	-0.001940
	Zn226	Zn	0.752428	0.010418	0.498547
	Zn227	Zn	0.251435	0.008377	0.498037
	N228	N	0.417361	0.971648	0.675035
	N229	N	0.587144	0.046893	0.675039
	N230	N	0.586252	0.972260	0.321652
	N231	N	0.414288	0.046287	0.318493
	N232	N	0.681981	0.421601	0.960288
	N233	N	0.681973	0.593953	0.033413
	N234	N	0.324135	0.594788	0.960062
	N235	N	0.326273	0.423339	0.034259
	N236	N	0.966233	0.689222	0.409931
	N237	N	0.040654	0.688062	0.583133
	N238	N	0.966221	0.329958	0.583752
	N239	N	0.039601	0.329681	0.410544
	N240	N	0.965316	0.423987	0.674670
	N241	N	0.040279	0.594368	0.676211
	N242	N	0.966545	0.596208	0.317552
	N243	N	0.040915	0.424646	0.320228
	N244	N	0.415741	0.688439	0.960553
	N245	N	0.588337	0.685160	0.034717
	N246	N	0.589999	0.329762	0.960721
	N247	N	0.418273	0.331452	0.034497
	N248	N	0.680518	0.973716	0.412557
	N249	N	0.683078	0.045803	0.587060
	N250	N	0.323742	0.971587	0.584011
	N251	N	0.321630	0.045612	0.410837
	N252	N	0.918541	0.471870	0.174646
	N253	N	0.089730	0.546451	0.175605
	N254	N	0.087608	0.470547	0.820521
	N255	N	0.916718	0.545377	0.818499
	N256	N	0.181464	0.921654	0.461150
	N257	N	0.180213	0.093759	0.535263
	N258	N	0.821543	0.097827	0.461308
	N259	N	0.825148	0.924527	0.534945
	N260	N	0.465736	0.188852	0.911185
	N261	N	0.539596	0.187414	0.084539
	N262	N	0.466252	0.828968	0.085053
	N263	N	0.539803	0.829581	0.911812
	N264	N	0.464548	0.923445	0.176470
	N265	N	0.538665	0.094702	0.177049
	N266	N	0.465297	0.095575	0.817953
	N267	N	0.540158	0.923195	0.819910
	N268	N	0.916787	0.187451	0.459424
	N269	N	0.088583	0.186798	0.534745
	N270	N	0.088800	0.830912	0.459820
	N271	N	0.917251	0.831085	0.534474
	N272	N	0.182434	0.471739	0.910711
	N273	N	0.183202	0.545588	0.084189
	N274	N	0.825507	0.471362	0.082279
	N275	N	0.822297	0.544093	0.908313
	O276	O	0.467050	0.521881	0.473867
	H277	H	0.470626	0.533905	0.474361
	H278	H	0.475595	0.522242	0.462513
	O279	O	1.002851	0.136210	1.033189
	H280	H	1.003877	0.129581	1.028981
	H281	H	1.001893	0.140499	1.041549
	O282	O	1.100079	0.952650	0.006726
	H283	H	1.100761	0.946041	0.008910
	H284	H	1.102600	0.952814	0.013814
	O285	O	1.052882	-0.029648	1.020557
	H286	H	1.064124	-0.041941	1.023470
	H287	H	1.050234	-0.026546	1.026322
	O288	O	0.584691	0.523129	0.529200
	H289	H	0.577783	0.530699	0.527908
	H290	H	0.585838	0.536243	0.525165
	O291	O	0.498090	0.519298	0.438315
	H292	H	0.489512	0.516037	0.431362
	H293	H	0.497321	0.522025	0.436484
	O294	O	0.538188	0.564249	0.512040
	H295	H	0.533641	0.567786	0.508631
	H296	H	0.547470	0.568960	0.511224
	O297	O	-0.077586	-0.089498	1.114328
	H298	H	-0.077190	-0.090867	1.116291
	H299	H	-0.068447	-0.071858	1.111152
	O300	O	0.475970	0.481663	0.518953
	H301	H	0.470530	0.486155	0.523595
	H302	H	0.466535	0.485804	0.517293
	O303	O	0.558855	0.473401	0.556956
	H304	H	0.566461	0.485739	0.564264
	H305	H	0.573547	0.470267	0.554475
	O306	O	0.102721	0.941453	0.973976
	H307	H	0.104822	0.935670	0.968671
	H308	H	0.092586	0.931309	0.951103
	O309	O	0.559038	0.469251	0.520879
	H310	H	0.555507	0.465327	0.521056
	H311	H	0.562593	0.476818	0.533950
	O312	O	-0.011495	0.015832	-0.085080
	H313	H	-0.012166	0.022031	-0.074296
	H314	H	-0.001630	0.025826	-0.079609
	O315	O	1.039094	-0.052893	-0.074226
	H316	H	1.041883	-0.046751	-0.079226
	H317	H	1.037355	-0.061496	-0.079148
	O318	O	1.145111	1.028898	1.101103
	H319	H	1.138853	1.043226	1.105148
	H320	H	1.158409	1.022342	1.110043
	O321	O	-0.119313	-0.011344	1.114745
	H322	H	-0.120341	-0.008706	1.133319
	H323	H	-0.109447	-0.004237	1.112309
	O324	O	0.541038	0.474004	0.517204
	H325	H	0.536728	0.471058	0.515779
	H326	H	0.547176	0.474570	0.507289
	O327	O	0.010268	0.074455	-0.079816
	H328	H	0.007644	0.077783	-0.073910
	H329	H	0.013970	0.084845	-0.070577
	O330	O	0.526158	0.524708	0.477240
	H331	H	0.530008	0.519070	0.471617
	H332	H	0.523651	0.524087	0.471094
	O333	O	0.028221	1.042417	1.074457
	H334	H	0.020956	1.038981	1.070543
	H335	H	0.016609	1.048024	1.061062
	O336	O	0.043457	-0.026989	-0.029258
	H337	H	0.034446	-0.029276	-0.022998
	H338	H	0.045380	-0.027440	-0.025348
	O339	O	0.519792	0.599400	0.564941
	H340	H	0.504306	0.599222	0.567008
	H341	H	0.516078	0.592739	0.568445
	O342	O	0.873386	1.148226	0.896019
	H343	H	0.882326	1.144839	0.887307
	H344	H	0.845928	1.157294	0.888387
	O345	O	0.995184	1.172691	0.025707
	H346	H	1.007606	1.169029	0.014625
	H347	H	0.995779	1.177208	0.003026
	O348	O	0.610104	0.482349	0.472937
	H349	H	0.606435	0.489328	0.481024
	H350	H	0.625862	0.488256	0.481801
	O351	O	0.404664	0.467605	0.553423
	H352	H	0.411122	0.460201	0.560753
	H353	H	0.399225	0.459966	0.542323
	O354	O	-0.027685	0.023439	0.086472
	H355	H	-0.029059	0.024438	0.095080
	H356	H	-0.030691	0.016815	0.078606
	O357	O	0.847188	-0.013412	0.919001
	H358	H	0.856789	-0.017548	0.921288
	H359	H	0.843814	-0.013414	0.926293
	O360	O	0.408283	0.495480	0.408834
	H361	H	0.405951	0.484825	0.406301
	H362	H	0.421604	0.492277	0.404867
	O363	O	0.485908	0.505537	0.402108
	H364	H	0.484240	0.490075	0.413469
	H365	H	0.478883	0.513623	0.389940
	O366	O	0.947088	0.941196	0.938137
	H367	H	0.941508	0.949485	0.932844
	H368	H	0.941442	0.926942	0.919711
	O369	O	0.941795	0.035825	1.029666
	H370	H	0.963281	0.031745	1.031979
	H371	H	0.934342	0.029566	1.027825
	O372	O	-0.036166	-0.125776	0.031541
	H373	H	-0.033318	-0.123644	0.032479
	H374	H	-0.034424	-0.124849	0.039867
	O375	O	1.123851	-0.093592	-0.150984
	H376	H	1.124501	-0.089193	-0.149817
	H377	H	1.130664	-0.107253	-0.140959
	O378	O	0.466991	0.520334	0.454161
	H379	H	0.475785	0.503113	0.462681
	H380	H	0.469160	0.525036	0.454021
	O381	O	0.554287	0.568583	0.457340
	H382	H	0.554350	0.571492	0.458310
	H383	H	0.554347	0.566812	0.462665
