data_Molecule from HDF5

_cell_length_a		16.369080
_cell_length_b		16.130243
_cell_length_c		16.171363
_cell_angle_alpha	89.987820
_cell_angle_beta	90.069299
_cell_angle_gamma	90.098629
_symmetry_space_group_name_H-M	'P 1'
_symmetry_Int_Tables_number		1

loop_
	_symmetry_equiv_pos_as_xyz
	x,y,z

loop_
	_atom_site_label
	_atom_site_type_symbol
	_atom_site_fract_x
	_atom_site_fract_y
	_atom_site_fract_z
	H0	H	0.405530	0.844031	0.710002
	H1	H	0.602773	0.174075	0.712067
	H2	H	0.601305	0.844339	0.284655
	H3	H	0.407081	0.174341	0.285560
	H4	H	0.716699	0.407846	0.831753
	H5	H	0.720344	0.608710	0.159818
	H6	H	0.287562	0.607982	0.833386
	H7	H	0.284600	0.404890	0.160106
	H8	H	0.840082	0.724458	0.395896
	H9	H	0.166901	0.721451	0.592257
	H10	H	0.840018	0.294211	0.592838
	H11	H	0.167169	0.294398	0.398454
	H12	H	0.839936	0.409412	0.709512
	H13	H	0.165179	0.608969	0.711816
	H14	H	0.839613	0.606103	0.280871
	H15	H	0.165863	0.408716	0.279585
	H16	H	0.405212	0.721744	0.832314
	H17	H	0.600402	0.720810	0.162735
	H18	H	0.598957	0.295372	0.831105
	H19	H	0.406065	0.295353	0.163285
	H20	H	0.717659	0.845271	0.396917
	H21	H	0.720699	0.172808	0.599776
	H22	H	0.288181	0.845398	0.598675
	H23	H	0.289539	0.173572	0.397363
	H24	H	0.903902	0.343173	0.209235
	H25	H	0.101929	0.672710	0.209623
	H26	H	0.099307	0.342700	0.783056
	H27	H	0.904274	0.673227	0.782314
	H28	H	0.221301	0.907008	0.332893
	H29	H	0.220315	0.110640	0.660703
	H30	H	0.785084	0.112406	0.333896
	H31	H	0.786800	0.905363	0.660030
	H32	H	0.339750	0.223070	0.897928
	H33	H	0.666032	0.224874	0.097729
	H34	H	0.340598	0.792837	0.097906
	H35	H	0.665474	0.793296	0.899067
	H36	H	0.340062	0.909405	0.212683
	H37	H	0.665681	0.109265	0.213245
	H38	H	0.340744	0.109103	0.780899
	H39	H	0.665150	0.907571	0.781612
	H40	H	0.906392	0.221300	0.331274
	H41	H	0.102303	0.222128	0.661761
	H42	H	0.100409	0.796542	0.330501
	H43	H	0.906693	0.794945	0.661113
	H44	H	0.219163	0.344182	0.894592
	H45	H	0.220106	0.671562	0.100286
	H46	H	0.788005	0.343508	0.095555
	H47	H	0.786976	0.671649	0.893434
	H48	H	0.398070	0.130911	0.587722
	H49	H	0.600094	0.888714	0.593561
	H50	H	0.605173	0.129530	0.406576
	H51	H	0.409837	0.889210	0.401017
	H52	H	0.599176	0.419221	0.113930
	H53	H	0.586311	0.603437	0.881312
	H54	H	0.413516	0.608442	0.117231
	H55	H	0.402329	0.420053	0.879032
	H56	H	0.122906	0.608560	0.395019
	H57	H	0.886652	0.600427	0.591088
	H58	H	0.117575	0.417686	0.585579
	H59	H	0.886538	0.415066	0.398072
	H60	H	0.120560	0.418568	0.595075
	H61	H	0.886178	0.603808	0.588786
	H62	H	0.117457	0.605968	0.409894
	H63	H	0.886828	0.410645	0.402963
	H64	H	0.400562	0.595831	0.117395
	H65	H	0.602287	0.607874	0.875590
	H66	H	0.593958	0.417170	0.113003
	H67	H	0.415397	0.422169	0.883906
	H68	H	0.591799	0.128531	0.397797
	H69	H	0.590398	0.892832	0.590406
	H70	H	0.418166	0.128422	0.600376
	H71	H	0.415431	0.892189	0.406686
	H72	H	0.916502	0.624499	0.089174
	H73	H	0.093266	0.392635	0.080427
	H74	H	0.101675	0.626235	0.907012
	H75	H	0.915819	0.394722	0.913404
	H76	H	0.091129	0.906356	0.614864
	H77	H	0.097274	0.089406	0.382491
	H78	H	0.910274	0.106346	0.615950
	H79	H	0.914467	0.914556	0.379833
	H80	H	0.619747	0.100970	0.901885
	H81	H	0.385856	0.107558	0.088798
	H82	H	0.619903	0.913452	0.093473
	H83	H	0.388291	0.915062	0.908483
	H84	H	0.619317	0.914996	0.089503
	H85	H	0.389594	0.096452	0.088903
	H86	H	0.618309	0.105128	0.907334
	H87	H	0.387158	0.919720	0.901788
	H88	H	0.906319	0.095064	0.613501
	H89	H	0.089220	0.107038	0.379849
	H90	H	0.108903	0.916307	0.616334
	H91	H	0.904360	0.916037	0.376616
	H92	H	0.094755	0.627668	0.899852
	H93	H	0.101430	0.387629	0.088498
	H94	H	0.907603	0.624432	0.080559
	H95	H	0.895371	0.386081	0.903472
	H96	H	0.417506	0.122230	0.578576
	H97	H	0.598057	0.893372	0.582981
	H98	H	0.591928	0.123915	0.412971
	H99	H	0.406912	0.891069	0.409275
	H100	H	0.598078	0.415073	0.114685
	H101	H	0.598384	0.590960	0.881522
	H102	H	0.416475	0.592256	0.109773
	H103	H	0.411192	0.408820	0.878460
	H104	H	0.116486	0.594324	0.399181
	H105	H	0.886947	0.600842	0.587215
	H106	H	0.120957	0.409779	0.590657
	H107	H	0.888148	0.417516	0.403899
	H108	H	0.905722	0.628549	0.091956
	H109	H	0.090176	0.390834	0.092089
	H110	H	0.092332	0.623209	0.908916
	H111	H	0.915032	0.388418	0.891317
	H112	H	0.092526	0.926210	0.609720
	H113	H	0.107926	0.103978	0.375418
	H114	H	0.917896	0.097068	0.612056
	H115	H	0.909835	0.924294	0.381383
	H116	H	0.617547	0.098125	0.907531
	H117	H	0.385389	0.101502	0.098208
	H118	H	0.618650	0.917683	0.092748
	H119	H	0.384686	0.912036	0.902176
	C120	C	0.382455	0.018288	0.618623
	C121	C	0.625383	1.000176	0.618891
	C122	C	0.624625	0.018453	0.376358
	C123	C	0.382181	1.000017	0.376520
	C124	C	0.624584	0.387400	0.004813
	C125	C	0.624821	0.629861	0.988082
	C126	C	0.381240	0.628989	0.006216
	C127	C	0.380929	0.386721	0.988877
	C128	C	0.011504	0.631468	0.372480
	C129	C	0.994341	0.630577	0.617510
	C130	C	0.011866	0.386421	0.618392
	C131	C	0.995126	0.386047	0.373387
	C132	C	0.881655	0.516772	0.116450
	C133	C	0.124279	0.499196	0.117146
	C134	C	0.124377	0.517047	0.875134
	C135	C	0.880475	0.498820	0.873907
	C136	C	0.125716	0.887224	0.504822
	C137	C	0.126336	0.129775	0.488056
	C138	C	0.882176	0.129815	0.505467
	C139	C	0.881340	0.887854	0.487773
	C140	C	0.511284	0.130420	0.875772
	C141	C	0.494875	0.130811	0.120074
	C142	C	0.511697	0.886206	0.120696
	C143	C	0.494298	0.886937	0.875609
	C144	C	0.385105	0.893682	0.673240
	C145	C	0.623009	0.124647	0.674575
	C146	C	0.621988	0.893801	0.321808
	C147	C	0.385849	0.124772	0.322298
	C148	C	0.679002	0.388354	0.880800
	C149	C	0.681520	0.628495	0.111351
	C150	C	0.325709	0.627834	0.882396
	C151	C	0.323909	0.386166	0.111806
	C152	C	0.888844	0.686565	0.375044
	C153	C	0.117562	0.684994	0.614020
	C154	C	0.888911	0.331413	0.614249
	C155	C	0.118122	0.331780	0.377216
	C156	C	0.888878	0.388674	0.672375
	C157	C	0.116808	0.628568	0.673307
	C158	C	0.888557	0.627648	0.317962
	C159	C	0.117485	0.388674	0.318181
	C160	C	0.383954	0.684696	0.882166
	C161	C	0.621825	0.683937	0.112766
	C162	C	0.620344	0.332167	0.880626
	C163	C	0.384268	0.331689	0.113248
	C164	C	0.680023	0.894441	0.377611
	C165	C	0.681874	0.124034	0.619008
	C166	C	0.326933	0.894186	0.617678
	C167	C	0.327573	0.124317	0.377990
	C168	C	0.883715	0.392539	0.171824
	C169	C	0.122655	0.623155	0.172647
	C170	C	0.120818	0.392506	0.819954
	C171	C	0.883557	0.623400	0.819148
	C172	C	0.182281	0.887740	0.381728
	C173	C	0.182072	0.129551	0.611568
	C174	C	0.824722	0.130376	0.382401
	C175	C	0.825276	0.887002	0.611014
	C176	C	0.388852	0.185776	0.877589
	C177	C	0.617302	0.186862	0.117666
	C178	C	0.389345	0.830746	0.118154
	C179	C	0.616739	0.831246	0.878547
	C180	C	0.388988	0.888871	0.175390
	C181	C	0.617237	0.129000	0.175184
	C182	C	0.389496	0.129478	0.818826
	C183	C	0.616580	0.888381	0.820024
	C184	C	0.885069	0.184768	0.381093
	C185	C	0.123218	0.184893	0.612277
	C186	C	0.121798	0.833157	0.380200
	C187	C	0.885097	0.831970	0.611572
	C188	C	0.180077	0.393088	0.875475
	C189	C	0.181077	0.622602	0.117848
	C190	C	0.826045	0.392788	0.115288
	C191	C	0.825466	0.622947	0.874653
	C192	C	0.404547	0.104849	0.595752
	C193	C	0.602964	0.913914	0.595724
	C194	C	0.602726	0.104802	0.399133
	C195	C	0.404238	0.913175	0.399016
	C196	C	0.603323	0.410469	0.091446
	C197	C	0.602386	0.607337	0.901736
	C198	C	0.403506	0.605606	0.092408
	C199	C	0.403244	0.409909	0.902862
	C200	C	0.096952	0.609528	0.394599
	C201	C	0.908778	0.608362	0.595409
	C202	C	0.097536	0.408699	0.596772
	C203	C	0.909544	0.407904	0.395087
	C204	C	0.903520	0.603492	0.093841
	C205	C	0.101523	0.412780	0.093802
	C206	C	0.102629	0.603314	0.898358
	C207	C	0.902119	0.412132	0.896255
	C208	C	0.103733	0.909734	0.591240
	C209	C	0.104493	0.106812	0.401608
	C210	C	0.904868	0.106440	0.591394
	C211	C	0.903198	0.911290	0.401506
	C212	C	0.596431	0.107863	0.898791
	C213	C	0.409081	0.108402	0.098346
	C214	C	0.597147	0.908702	0.098601
	C215	C	0.408932	0.909136	0.897607
	Zn216	Zn	0.503227	0.009408	0.746355
	Zn217	Zn	0.503299	0.008958	0.248898
	Zn218	Zn	0.753387	0.508210	-0.004652
	Zn219	Zn	0.252383	0.507958	-0.002764
	Zn220	Zn	0.003188	0.759769	0.495650
	Zn221	Zn	0.004159	0.257274	0.496650
	Zn222	Zn	0.002512	0.508667	0.747131
	Zn223	Zn	0.003015	0.508184	0.243739
	Zn224	Zn	0.502618	0.757811	-0.002024
	Zn225	Zn	0.503117	0.259173	-0.002290
	Zn226	Zn	0.752909	0.009522	0.497341
	Zn227	Zn	0.254649	0.009119	0.497488
	N228	N	0.419024	0.971736	0.673860
	N229	N	0.588810	0.046635	0.675052
	N230	N	0.588435	0.971853	0.320549
	N231	N	0.419040	0.046377	0.321182
	N232	N	0.681713	0.421896	0.959087
	N233	N	0.683415	0.595530	0.032820
	N234	N	0.323765	0.594217	0.960530
	N235	N	0.321599	0.419628	0.033477
	N236	N	0.966170	0.688999	0.408084
	N237	N	0.040441	0.686306	0.580066
	N238	N	0.966562	0.329642	0.581529
	N239	N	0.040929	0.329761	0.410518
	N240	N	0.966268	0.421986	0.675107
	N241	N	0.039207	0.595544	0.675592
	N242	N	0.965919	0.594243	0.316017
	N243	N	0.040046	0.421806	0.315837
	N244	N	0.417783	0.685412	0.960194
	N245	N	0.587353	0.685054	0.035139
	N246	N	0.587200	0.331649	0.958812
	N247	N	0.419172	0.332051	0.035883
	N248	N	0.681894	0.972953	0.410792
	N249	N	0.683444	0.045827	0.585252
	N250	N	0.325080	0.972638	0.584456
	N251	N	0.325063	0.045675	0.410732
	N252	N	0.917652	0.470544	0.172607
	N253	N	0.087960	0.545454	0.172318
	N254	N	0.087151	0.470665	0.819327
	N255	N	0.917377	0.545388	0.818721
	N256	N	0.184800	0.920633	0.460155
	N257	N	0.184060	0.096084	0.533340
	N258	N	0.822838	0.096972	0.460722
	N259	N	0.822788	0.921144	0.532996
	N260	N	0.465621	0.186771	0.912160
	N261	N	0.540101	0.188152	0.084158
	N262	N	0.466571	0.829156	0.084917
	N263	N	0.539612	0.829889	0.912364
	N264	N	0.466236	0.922753	0.177196
	N265	N	0.540275	0.094640	0.176649
	N266	N	0.466684	0.095715	0.817664
	N267	N	0.539573	0.922208	0.817896
	N268	N	0.920249	0.184478	0.458481
	N269	N	0.089065	0.185380	0.534339
	N270	N	0.087467	0.832410	0.457888
	N271	N	0.919200	0.832295	0.533937
	N272	N	0.182518	0.471256	0.909119
	N273	N	0.182186	0.544245	0.084011
	N274	N	0.824804	0.471069	0.081285
	N275	N	0.823242	0.544493	0.908049
	O276	O	0.534450	0.617972	0.520976
	H277	H	0.523063	0.615292	0.526889
	H278	H	0.531564	0.617655	0.522079
	O279	O	1.122421	0.009739	1.000549
	H280	H	1.131803	0.028449	1.003482
	H281	H	1.108851	0.001636	1.008644
	O282	O	0.879522	0.969216	-0.008628
	H283	H	0.877879	0.969385	-0.015307
	H284	H	0.885729	0.956476	-0.007380
	O285	O	1.065431	-0.002025	0.887008
	H286	H	1.061752	-0.001064	0.881237
	H287	H	1.065312	-0.005711	0.896481
	O288	O	0.525576	0.584532	0.547599
	H289	H	0.527374	0.586412	0.553334
	H290	H	0.535289	0.567018	0.533960
	O291	O	0.509394	0.419667	0.453742
	H292	H	0.512309	0.413179	0.467812
	H293	H	0.510669	0.421229	0.457010
	O294	O	0.447983	0.531455	0.553713
	H295	H	0.453879	0.530769	0.541387
	H296	H	0.465350	0.538784	0.549949
	O297	O	-0.100746	-0.001623	0.981195
	H298	H	-0.103815	0.012493	0.990682
	H299	H	-0.109665	0.005648	0.981515
	O300	O	0.570395	0.528065	0.565148
	H301	H	0.573917	0.534160	0.561114
	H302	H	0.578732	0.539366	0.565145
	O303	O	0.522789	0.599660	0.436556
	H304	H	0.522530	0.582659	0.442188
	H305	H	0.516912	0.607210	0.443201
	O306	O	0.005902	1.139819	1.120592
	H307	H	0.001143	1.127790	1.115373
	H308	H	0.004777	1.143557	1.133354
	O309	O	0.415041	0.570231	0.456535
	H310	H	0.416531	0.557471	0.442909
	H311	H	0.411468	0.574258	0.459320
	O312	O	0.006407	0.156161	-0.089062
	H313	H	-0.000648	0.161232	-0.088951
	H314	H	0.011843	0.164787	-0.097079
	O315	O	1.014750	0.022706	-0.125873
	H316	H	1.023001	0.035088	-0.123341
	H317	H	1.018192	0.011630	-0.115344
	O318	O	1.042370	0.875329	0.943975
	H319	H	1.034289	0.891480	0.945787
	H320	H	1.030337	0.873955	0.956913
	O321	O	0.023633	-0.014101	0.981719
	H322	H	0.036568	-0.016602	0.967303
	H323	H	0.024042	-0.022641	0.985982
	O324	O	0.550242	0.413554	0.588685
	H325	H	0.536785	0.412753	0.591616
	H326	H	0.555418	0.416497	0.596094
	O327	O	0.019919	-0.065319	0.036058
	H328	H	0.007163	-0.057577	0.019202
	H329	H	0.028181	-0.075876	0.035732
	O330	O	0.576354	0.501891	0.415662
	H331	H	0.579667	0.500000	0.417056
	H332	H	0.576243	0.495993	0.404704
	O333	O	-0.075418	0.996642	1.061769
	H334	H	-0.084412	0.987811	1.056620
	H335	H	-0.074481	1.003142	1.046620
	O336	O	-0.047632	0.083364	0.137034
	H337	H	-0.052195	0.072127	0.141472
	H338	H	-0.046307	0.071520	0.125528
	O339	O	0.514467	0.386523	0.532771
	H340	H	0.515232	0.380820	0.539019
	H341	H	0.510332	0.391083	0.530934
	O342	O	0.851199	1.032919	0.920631
	H343	H	0.844986	1.028087	0.922245
	H344	H	0.844154	1.041194	0.925209
	O345	O	0.886276	1.048315	-0.035613
	H346	H	0.876991	1.049148	-0.029488
	H347	H	0.890917	1.049436	-0.031551
	O348	O	0.392415	0.508387	0.545433
	H349	H	0.397538	0.507409	0.550025
	H350	H	0.383751	0.519890	0.546300
	O351	O	0.509724	0.460510	0.460024
	H352	H	0.498288	0.458435	0.457661
	H353	H	0.507254	0.470783	0.457250
	O354	O	0.011211	-0.154532	-0.035836
	H355	H	0.011028	-0.160194	-0.033584
	H356	H	0.015529	-0.156589	-0.049456
	O357	O	1.076410	-0.092369	0.930785
	H358	H	1.077558	-0.084925	0.932898
	H359	H	1.073714	-0.080138	0.925656
	O360	O	0.584528	0.616946	0.514914
	H361	H	0.583187	0.618379	0.516626
	H362	H	0.578239	0.620576	0.517956
	O363	O	0.446159	0.484664	0.513044
	H364	H	0.444579	0.487461	0.522045
	H365	H	0.437721	0.486204	0.499015
	O366	O	1.120733	1.003890	1.090079
	H367	H	1.122026	1.016106	1.097109
	H368	H	1.115455	1.006082	1.080782
	O369	O	1.033009	0.054352	1.021637
	H370	H	1.052234	0.042314	1.031594
	H371	H	1.032245	0.054097	1.021388
	O372	O	0.035241	0.067864	0.101320
	H373	H	0.038702	0.069396	0.108682
	H374	H	0.035051	0.060079	0.115461
	O375	O	1.139880	-0.043661	-0.009174
	H376	H	1.145290	-0.047937	-0.004421
	H377	H	1.139276	-0.027174	-0.007613
	O378	O	0.441699	0.499311	0.462974
	H379	H	0.451066	0.503760	0.461148
	H380	H	0.438383	0.499555	0.471863
	O381	O	0.464349	0.512789	0.432031
	H382	H	0.455654	0.520516	0.433836
	H383	H	0.459001	0.512161	0.436012
