data_Molecule from HDF5

_cell_length_a		16.236627
_cell_length_b		16.146407
_cell_length_c		16.280596
_cell_angle_alpha	89.644265
_cell_angle_beta	90.225095
_cell_angle_gamma	89.379289
_symmetry_space_group_name_H-M	'P 1'
_symmetry_Int_Tables_number		1

loop_
	_symmetry_equiv_pos_as_xyz
	x,y,z

loop_
	_atom_site_label
	_atom_site_type_symbol
	_atom_site_fract_x
	_atom_site_fract_y
	_atom_site_fract_z
	H0	H	0.404786	0.844583	0.713034
	H1	H	0.601059	0.172812	0.711569
	H2	H	0.603794	0.844039	0.283613
	H3	H	0.398305	0.172170	0.279500
	H4	H	0.720474	0.408986	0.833900
	H5	H	0.718041	0.605168	0.161009
	H6	H	0.287829	0.612466	0.834359
	H7	H	0.290503	0.409320	0.160563
	H8	H	0.839618	0.724750	0.395305
	H9	H	0.167956	0.718131	0.593333
	H10	H	0.837634	0.295841	0.595721
	H11	H	0.167112	0.290735	0.399644
	H12	H	0.840522	0.408956	0.715002
	H13	H	0.166643	0.607783	0.711349
	H14	H	0.840795	0.611051	0.278175
	H15	H	0.168037	0.406916	0.283132
	H16	H	0.404078	0.724375	0.834269
	H17	H	0.601593	0.720418	0.161547
	H18	H	0.603246	0.294882	0.832817
	H19	H	0.408121	0.293621	0.161106
	H20	H	0.718359	0.844183	0.399039
	H21	H	0.715783	0.172808	0.597391
	H22	H	0.293171	0.842829	0.596444
	H23	H	0.284134	0.171957	0.395999
	H24	H	0.907345	0.345445	0.211527
	H25	H	0.103526	0.673444	0.210684
	H26	H	0.106464	0.344837	0.782466
	H27	H	0.902443	0.673592	0.780741
	H28	H	0.221058	0.904681	0.334522
	H29	H	0.217251	0.104971	0.660075
	H30	H	0.784462	0.111332	0.334007
	H31	H	0.788172	0.906730	0.659473
	H32	H	0.340388	0.227801	0.895545
	H33	H	0.668491	0.217517	0.096227
	H34	H	0.338304	0.795055	0.096103
	H35	H	0.667058	0.793273	0.900934
	H36	H	0.339774	0.908175	0.213800
	H37	H	0.664987	0.107369	0.215255
	H38	H	0.338859	0.112493	0.779942
	H39	H	0.666403	0.905915	0.781634
	H40	H	0.900685	0.225952	0.333936
	H41	H	0.102094	0.220376	0.660965
	H42	H	0.101781	0.793748	0.332228
	H43	H	0.906037	0.792815	0.660208
	H44	H	0.223628	0.345601	0.897509
	H45	H	0.215010	0.674326	0.093695
	H46	H	0.793297	0.345146	0.097862
	H47	H	0.785450	0.672637	0.894996
	H48	H	0.413247	0.126118	0.590634
	H49	H	0.586756	0.893050	0.591533
	H50	H	0.590468	0.125934	0.401462
	H51	H	0.404342	0.890202	0.410792
	H52	H	0.598594	0.411917	0.113318
	H53	H	0.585377	0.599057	0.884891
	H54	H	0.416088	0.617154	0.117826
	H55	H	0.422991	0.418574	0.885035
	H56	H	0.120169	0.601046	0.405936
	H57	H	0.884799	0.605712	0.586747
	H58	H	0.117772	0.420453	0.589140
	H59	H	0.884916	0.407596	0.408927
	H60	H	0.121662	0.411557	0.594084
	H61	H	0.889228	0.597207	0.583546
	H62	H	0.120641	0.597145	0.401531
	H63	H	0.891451	0.428532	0.407285
	H64	H	0.392889	0.600217	0.118623
	H65	H	0.598456	0.611632	0.875766
	H66	H	0.601939	0.411524	0.115134
	H67	H	0.409436	0.411973	0.878079
	H68	H	0.590947	0.124634	0.408036
	H69	H	0.600446	0.892352	0.581494
	H70	H	0.408767	0.124137	0.583166
	H71	H	0.409939	0.886760	0.395810
	H72	H	0.908138	0.633266	0.099938
	H73	H	0.102197	0.389832	0.091893
	H74	H	0.096520	0.626401	0.906273
	H75	H	0.909972	0.393734	0.913388
	H76	H	0.104780	0.910677	0.615819
	H77	H	0.092465	0.096307	0.381121
	H78	H	0.906267	0.089949	0.611434
	H79	H	0.913383	0.927640	0.384384
	H80	H	0.621855	0.103975	0.900989
	H81	H	0.388697	0.097592	0.083198
	H82	H	0.620240	0.917434	0.095761
	H83	H	0.383107	0.907965	0.904605
	H84	H	0.621181	0.909198	0.091313
	H85	H	0.384445	0.099838	0.094939
	H86	H	0.619240	0.098563	0.907640
	H87	H	0.389820	0.923809	0.912657
	H88	H	0.918368	0.102833	0.611777
	H89	H	0.091467	0.100559	0.380987
	H90	H	0.096939	0.918615	0.610846
	H91	H	0.917792	0.909209	0.379557
	H92	H	0.097252	0.628425	0.900816
	H93	H	0.096482	0.391724	0.091419
	H94	H	0.924220	0.622678	0.084448
	H95	H	0.909716	0.387138	0.898738
	H96	H	0.403697	0.127970	0.589721
	H97	H	0.601366	0.887200	0.597469
	H98	H	0.595837	0.128219	0.404160
	H99	H	0.419848	0.894008	0.406907
	H100	H	0.600578	0.415188	0.113047
	H101	H	0.603793	0.593568	0.880643
	H102	H	0.418433	0.589580	0.109264
	H103	H	0.409247	0.427665	0.882148
	H104	H	0.122786	0.601806	0.400375
	H105	H	0.885190	0.598067	0.593149
	H106	H	0.118458	0.410902	0.585038
	H107	H	0.883774	0.418731	0.390578
	H108	H	0.900740	0.627291	0.077776
	H109	H	0.099258	0.392349	0.086476
	H110	H	0.092380	0.625990	0.902232
	H111	H	0.923491	0.394054	0.905099
	H112	H	0.093482	0.906850	0.613335
	H113	H	0.095862	0.099543	0.379418
	H114	H	0.902524	0.106775	0.617237
	H115	H	0.900241	0.916008	0.376426
	H116	H	0.619885	0.095446	0.898678
	H117	H	0.385055	0.108582	0.086312
	H118	H	0.617308	0.916447	0.086041
	H119	H	0.385552	0.923509	0.894642
	C120	C	0.381201	0.017212	0.617735
	C121	C	0.624942	0.999389	0.619384
	C122	C	0.622926	0.017487	0.376141
	C123	C	0.380266	0.999160	0.374756
	C124	C	0.628686	0.384725	0.005981
	C125	C	0.624547	0.629205	0.988777
	C126	C	0.380848	0.631900	0.006779
	C127	C	0.384468	0.388952	0.989358
	C128	C	0.012684	0.630330	0.373342
	C129	C	0.994577	0.629046	0.617087
	C130	C	0.011488	0.385854	0.619085
	C131	C	0.995132	0.387504	0.375136
	C132	C	0.883815	0.518665	0.117146
	C133	C	0.126217	0.500354	0.117991
	C134	C	0.126525	0.518428	0.874686
	C135	C	0.882945	0.500247	0.875364
	C136	C	0.126444	0.883797	0.505138
	C137	C	0.123083	0.127493	0.488490
	C138	C	0.879327	0.130866	0.505747
	C139	C	0.881731	0.887064	0.488274
	C140	C	0.511975	0.130596	0.873312
	C141	C	0.494405	0.129398	0.118068
	C142	C	0.511170	0.886200	0.119384
	C143	C	0.494290	0.887699	0.875550
	C144	C	0.384503	0.893433	0.674466
	C145	C	0.621805	0.123377	0.674358
	C146	C	0.622821	0.893242	0.321606
	C147	C	0.379392	0.122911	0.318071
	C148	C	0.683018	0.388248	0.882761
	C149	C	0.680057	0.626028	0.112038
	C150	C	0.325556	0.631484	0.883511
	C151	C	0.328953	0.389907	0.111874
	C152	C	0.889031	0.686782	0.375132
	C153	C	0.118531	0.682196	0.614362
	C154	C	0.887547	0.332208	0.616542
	C155	C	0.118358	0.329855	0.378976
	C156	C	0.888826	0.388579	0.675748
	C157	C	0.117726	0.627154	0.673186
	C158	C	0.889562	0.630273	0.316972
	C159	C	0.118764	0.387689	0.320982
	C160	C	0.383387	0.687384	0.883357
	C161	C	0.622135	0.683325	0.112213
	C162	C	0.624854	0.331311	0.882204
	C163	C	0.387281	0.332247	0.112212
	C164	C	0.679875	0.893298	0.378936
	C165	C	0.678809	0.123358	0.617253
	C166	C	0.328767	0.892613	0.616651
	C167	C	0.322644	0.122771	0.376076
	C168	C	0.886974	0.394413	0.173496
	C169	C	0.123325	0.624031	0.173169
	C170	C	0.126607	0.394355	0.819639
	C171	C	0.882896	0.624229	0.818878
	C172	C	0.182160	0.885912	0.382785
	C173	C	0.179266	0.125513	0.611477
	C174	C	0.823007	0.130522	0.382798
	C175	C	0.826351	0.887235	0.610879
	C176	C	0.389211	0.189097	0.875182
	C177	C	0.618677	0.181636	0.116451
	C178	C	0.387557	0.832183	0.116463
	C179	C	0.617876	0.831162	0.879361
	C180	C	0.388141	0.888554	0.175112
	C181	C	0.617005	0.126662	0.175515
	C182	C	0.388329	0.131545	0.817564
	C183	C	0.617440	0.887266	0.819946
	C184	C	0.880953	0.187502	0.382777
	C185	C	0.121551	0.182618	0.611683
	C186	C	0.123032	0.830289	0.381644
	C187	C	0.884912	0.830476	0.611069
	C188	C	0.184639	0.394574	0.877171
	C189	C	0.178841	0.624787	0.114762
	C190	C	0.830359	0.394336	0.116878
	C191	C	0.824503	0.623708	0.875553
	C192	C	0.402309	0.103771	0.594652
	C193	C	0.602826	0.913237	0.596888
	C194	C	0.599396	0.103876	0.397978
	C195	C	0.404297	0.912721	0.397636
	C196	C	0.606832	0.406366	0.091718
	C197	C	0.602371	0.607578	0.902649
	C198	C	0.402799	0.608962	0.093056
	C199	C	0.407251	0.412496	0.903762
	C200	C	0.098935	0.606857	0.396041
	C201	C	0.908567	0.606926	0.594397
	C202	C	0.097166	0.407844	0.596172
	C203	C	0.908988	0.411308	0.396070
	C204	C	0.904741	0.605077	0.094128
	C205	C	0.105530	0.413647	0.096406
	C206	C	0.102372	0.604531	0.896461
	C207	C	0.907284	0.414067	0.898770
	C208	C	0.104718	0.905526	0.591261
	C209	C	0.100083	0.105248	0.402870
	C210	C	0.902202	0.107002	0.591319
	C211	C	0.903896	0.910817	0.402441
	C212	C	0.597774	0.106384	0.895777
	C213	C	0.408458	0.108438	0.094947
	C214	C	0.597291	0.907888	0.097503
	C215	C	0.408418	0.911518	0.897383
	Zn216	Zn	0.502329	0.008761	0.745636
	Zn217	Zn	0.502487	0.008446	0.247222
	Zn218	Zn	0.755034	0.508515	-0.002416
	Zn219	Zn	0.254307	0.510225	-0.002809
	Zn220	Zn	0.003623	0.756999	0.496177
	Zn221	Zn	0.002555	0.257509	0.497060
	Zn222	Zn	0.003685	0.509110	0.746839
	Zn223	Zn	0.004335	0.509170	0.245172
	Zn224	Zn	0.502803	0.758384	-0.002201
	Zn225	Zn	0.505364	0.257780	-0.003124
	Zn226	Zn	0.751732	0.009024	0.496874
	Zn227	Zn	0.253355	0.007034	0.497338
	N228	N	0.416269	0.971889	0.675422
	N229	N	0.588977	0.045349	0.675724
	N230	N	0.588001	0.971433	0.319824
	N231	N	0.414416	0.044901	0.316984
	N232	N	0.685680	0.420518	0.960727
	N233	N	0.681585	0.593058	0.034281
	N234	N	0.323747	0.597807	0.961401
	N235	N	0.327180	0.424294	0.034334
	N236	N	0.966731	0.687069	0.409460
	N237	N	0.041042	0.683578	0.580192
	N238	N	0.964885	0.330292	0.582137
	N239	N	0.040348	0.329574	0.411768
	N240	N	0.966780	0.421194	0.677446
	N241	N	0.039579	0.594853	0.675086
	N242	N	0.967577	0.596146	0.315626
	N243	N	0.041258	0.422842	0.318397
	N244	N	0.416893	0.687841	0.961120
	N245	N	0.588333	0.685372	0.034502
	N246	N	0.591979	0.328752	0.959912
	N247	N	0.421058	0.331584	0.034894
	N248	N	0.680033	0.971499	0.412298
	N249	N	0.681080	0.045188	0.583780
	N250	N	0.326656	0.970565	0.581977
	N251	N	0.323229	0.044736	0.410605
	N252	N	0.919595	0.472526	0.173773
	N253	N	0.091335	0.545496	0.175433
	N254	N	0.091163	0.472163	0.818151
	N255	N	0.918405	0.546361	0.818576
	N256	N	0.184458	0.918275	0.460805
	N257	N	0.180095	0.091744	0.534101
	N258	N	0.821723	0.096039	0.460319
	N259	N	0.824212	0.921839	0.533334
	N260	N	0.466938	0.188782	0.909125
	N261	N	0.541364	0.183679	0.081275
	N262	N	0.465136	0.830545	0.082694
	N263	N	0.540433	0.831420	0.913360
	N264	N	0.465852	0.921655	0.176839
	N265	N	0.538629	0.095135	0.176883
	N266	N	0.465819	0.096081	0.816010
	N267	N	0.539602	0.921818	0.817530
	N268	N	0.915063	0.187905	0.460154
	N269	N	0.087506	0.184186	0.534098
	N270	N	0.089023	0.828851	0.458916
	N271	N	0.918457	0.830041	0.533615
	N272	N	0.184809	0.472644	0.910626
	N273	N	0.180997	0.546768	0.081228
	N274	N	0.828065	0.472464	0.082590
	N275	N	0.824445	0.545677	0.910114
	O276	O	0.576968	0.413084	0.482884
	H277	H	0.576650	0.401082	0.484884
	H278	H	0.578107	0.423392	0.466646
	O279	O	1.003460	0.038472	1.016234
	H280	H	0.998067	0.045523	1.018121
	H281	H	1.004805	0.061370	1.006704
	O282	O	1.058759	1.081407	0.014592
	H283	H	1.042397	1.071999	0.004152
	H284	H	1.069080	1.081822	0.019165
	O285	O	1.134735	0.030507	1.094382
	H286	H	1.132041	0.027979	1.091557
	H287	H	1.128577	0.035582	1.094221
	O288	O	0.530751	0.518224	0.553444
	H289	H	0.535310	0.517968	0.560900
	H290	H	0.529029	0.519249	0.557293
	O291	O	0.557641	0.444196	0.471280
	H292	H	0.565008	0.448022	0.460340
	H293	H	0.556393	0.446600	0.465859
	O294	O	0.463778	0.522990	0.551942
	H295	H	0.466643	0.527284	0.557329
	H296	H	0.458739	0.522035	0.549631
	O297	O	-0.086673	-0.017058	1.079861
	H298	H	-0.074907	-0.004219	1.081248
	H299	H	-0.081304	-0.022636	1.089817
	O300	O	0.592509	0.484482	0.447896
	H301	H	0.606481	0.484040	0.433184
	H302	H	0.578974	0.482688	0.454265
	O303	O	0.479778	0.598049	0.443348
	H304	H	0.488107	0.596203	0.446850
	H305	H	0.476775	0.593686	0.444084
	O306	O	-0.092225	1.088359	0.940128
	H307	H	-0.091980	1.090785	0.937260
	H308	H	-0.079490	1.087630	0.925914
	O309	O	0.494268	0.596254	0.506137
	H310	H	0.496066	0.603417	0.507528
	H311	H	0.497610	0.587223	0.517513
	O312	O	-0.026262	0.059449	0.173877
	H313	H	-0.023345	0.063967	0.171080
	H314	H	-0.023008	0.063362	0.173297
	O315	O	1.111836	0.151342	0.023589
	H316	H	1.103358	0.145616	0.013035
	H317	H	1.106458	0.152868	0.032704
	O318	O	0.947068	0.969012	0.816227
	H319	H	0.932985	0.960790	0.818452
	H320	H	0.943207	0.974926	0.812711
	O321	O	0.030960	0.000514	0.913262
	H322	H	0.027819	0.009430	0.919051
	H323	H	0.034241	-0.002411	0.929290
	O324	O	0.474759	0.480197	0.517582
	H325	H	0.476162	0.489602	0.508195
	H326	H	0.473866	0.477371	0.521104
	O327	O	0.143170	-0.119415	-0.147184
	H328	H	0.152016	-0.131346	-0.152112
	H329	H	0.143669	-0.118574	-0.153235
	O330	O	0.537268	0.463713	0.387292
	H331	H	0.543179	0.469595	0.397995
	H332	H	0.538752	0.460897	0.380771
	O333	O	-0.076512	0.991055	1.016769
	H334	H	-0.066172	0.994511	1.022760
	H335	H	-0.073110	0.986182	1.018039
	O336	O	-0.152085	0.107647	0.002817
	H337	H	-0.148276	0.103402	-0.007849
	H338	H	-0.154064	0.110575	0.005600
	O339	O	0.501343	0.535812	0.500531
	H340	H	0.501982	0.528231	0.507132
	H341	H	0.507427	0.527944	0.494491
	O342	O	0.946926	0.878593	1.086196
	H343	H	0.960527	0.887224	1.083984
	H344	H	0.939023	0.871250	1.088513
	O345	O	0.921990	1.175354	-0.162472
	H346	H	0.925001	1.165952	-0.176472
	H347	H	0.897313	1.179982	-0.174435
	O348	O	0.403536	0.585334	0.485500
	H349	H	0.395940	0.592721	0.486251
	H350	H	0.397145	0.583652	0.490659
	O351	O	0.513252	0.447333	0.609202
	H352	H	0.503958	0.454458	0.616004
	H353	H	0.508313	0.445324	0.612346
	O354	O	0.102710	-0.029743	-0.148921
	H355	H	0.112282	-0.035157	-0.162523
	H356	H	0.108001	-0.034899	-0.142949
	O357	O	1.036941	0.030552	1.087894
	H358	H	1.041497	0.031417	1.075812
	H359	H	1.027217	0.032384	1.101287
	O360	O	0.483295	0.533997	0.515855
	H361	H	0.470703	0.528708	0.506477
	H362	H	0.479743	0.531356	0.518000
	O363	O	0.453563	0.480582	0.469304
	H364	H	0.454091	0.468902	0.462979
	H365	H	0.453473	0.487726	0.474777
	O366	O	1.044331	1.034555	0.960302
	H367	H	1.045008	1.034900	0.966731
	H368	H	1.050982	1.035875	0.955279
	O369	O	1.046001	-0.047619	0.967406
	H370	H	1.038872	-0.030654	0.977654
	H371	H	1.043401	-0.048482	0.962445
	O372	O	0.073737	0.013963	0.062851
	H373	H	0.091100	0.010167	0.073465
	H374	H	0.065079	0.006040	0.048401
	O375	O	0.911097	-0.141857	0.046921
	H376	H	0.898970	-0.151907	0.049570
	H377	H	0.908579	-0.135491	0.050633
	O378	O	0.438385	0.462883	0.584123
	H379	H	0.438707	0.475494	0.591384
	H380	H	0.427967	0.465558	0.578651
	O381	O	0.496593	0.487293	0.532511
	H382	H	0.495451	0.487174	0.533997
	H383	H	0.502852	0.482526	0.518627
