data_Molecule from HDF5

_cell_length_a		16.509894
_cell_length_b		16.334697
_cell_length_c		16.315885
_cell_angle_alpha	89.850800
_cell_angle_beta	90.159630
_cell_angle_gamma	89.926466
_symmetry_space_group_name_H-M	'P 1'
_symmetry_Int_Tables_number		1

loop_
	_symmetry_equiv_pos_as_xyz
	x,y,z

loop_
	_atom_site_label
	_atom_site_type_symbol
	_atom_site_fract_x
	_atom_site_fract_y
	_atom_site_fract_z
	H0	H	0.398157	0.838140	0.716808
	H1	H	0.604811	0.158057	0.716307
	H2	H	0.608373	0.840087	0.273936
	H3	H	0.394533	0.156963	0.274322
	H4	H	0.720275	0.392933	0.837991
	H5	H	0.724826	0.610726	0.152850
	H6	H	0.276047	0.606983	0.837540
	H7	H	0.275260	0.390000	0.154527
	H8	H	0.843249	0.723329	0.386617
	H9	H	0.157649	0.718942	0.602345
	H10	H	0.844553	0.273327	0.604474
	H11	H	0.157388	0.274504	0.388942
	H12	H	0.842783	0.392253	0.717734
	H13	H	0.157570	0.603229	0.718828
	H14	H	0.842948	0.606340	0.271595
	H15	H	0.154744	0.387010	0.268927
	H16	H	0.392746	0.721156	0.837373
	H17	H	0.604081	0.718959	0.156096
	H18	H	0.603618	0.278775	0.836954
	H19	H	0.393869	0.276867	0.156674
	H20	H	0.725208	0.840979	0.387666
	H21	H	0.722451	0.156593	0.603816
	H22	H	0.279253	0.839379	0.604512
	H23	H	0.275058	0.154964	0.385007
	H24	H	0.892441	0.340620	0.217755
	H25	H	0.106553	0.656755	0.218204
	H26	H	0.101901	0.338653	0.778108
	H27	H	0.895398	0.659125	0.775678
	H28	H	0.223584	0.890866	0.337782
	H29	H	0.222692	0.103262	0.655687
	H30	H	0.774465	0.108982	0.339401
	H31	H	0.780435	0.891381	0.655354
	H32	H	0.340988	0.218499	0.891076
	H33	H	0.656344	0.221538	0.103059
	H34	H	0.341179	0.777564	0.102700
	H35	H	0.657532	0.775645	0.892284
	H36	H	0.344035	0.891033	0.220231
	H37	H	0.658060	0.104876	0.218168
	H38	H	0.341604	0.100192	0.776249
	H39	H	0.659134	0.892977	0.777826
	H40	H	0.895006	0.220137	0.337260
	H41	H	0.105860	0.217157	0.656102
	H42	H	0.106028	0.777550	0.335417
	H43	H	0.898041	0.777850	0.655983
	H44	H	0.223100	0.341496	0.887550
	H45	H	0.221078	0.657121	0.102320
	H46	H	0.774210	0.342550	0.104849
	H47	H	0.776188	0.657562	0.887205
	H48	H	0.410549	0.111303	0.582368
	H49	H	0.586441	0.887717	0.578348
	H50	H	0.601884	0.113052	0.418366
	H51	H	0.418660	0.888228	0.412344
	H52	H	0.586273	0.409639	0.110183
	H53	H	0.582852	0.583037	0.885255
	H54	H	0.410469	0.591259	0.111802
	H55	H	0.406505	0.408847	0.881857
	H56	H	0.114291	0.588126	0.401945
	H57	H	0.886203	0.593281	0.582239
	H58	H	0.115054	0.405411	0.588747
	H59	H	0.889810	0.414913	0.407924
	H60	H	0.113153	0.407508	0.583172
	H61	H	0.889231	0.582951	0.582425
	H62	H	0.112191	0.589845	0.411895
	H63	H	0.886441	0.408593	0.405712
	H64	H	0.403883	0.584802	0.111201
	H65	H	0.584908	0.592575	0.881090
	H66	H	0.589134	0.411915	0.110857
	H67	H	0.409911	0.414660	0.883571
	H68	H	0.588876	0.116600	0.393775
	H69	H	0.601532	0.880841	0.585711
	H70	H	0.410952	0.112268	0.584765
	H71	H	0.406850	0.884306	0.414049
	H72	H	0.903368	0.614965	0.082046
	H73	H	0.087999	0.384816	0.083243
	H74	H	0.089949	0.614950	0.905129
	H75	H	0.914598	0.387339	0.911808
	H76	H	0.094264	0.914647	0.609041
	H77	H	0.086666	0.085343	0.383280
	H78	H	0.907995	0.078996	0.609376
	H79	H	0.918837	0.913135	0.385729
	H80	H	0.613983	0.087915	0.903597
	H81	H	0.390885	0.083183	0.079995
	H82	H	0.612837	0.905400	0.082330
	H83	H	0.386409	0.907368	0.909115
	H84	H	0.610062	0.911294	0.082550
	H85	H	0.386512	0.082881	0.090744
	H86	H	0.614547	0.092940	0.907447
	H87	H	0.389408	0.912610	0.908206
	H88	H	0.918987	0.086002	0.607897
	H89	H	0.089613	0.087292	0.381589
	H90	H	0.084224	0.908606	0.607458
	H91	H	0.910028	0.906137	0.380022
	H92	H	0.084391	0.611941	0.906776
	H93	H	0.086082	0.385676	0.082762
	H94	H	0.917258	0.614086	0.089258
	H95	H	0.901199	0.384713	0.911998
	H96	H	0.412616	0.110681	0.583368
	H97	H	0.586332	0.882287	0.595460
	H98	H	0.575181	0.104454	0.415198
	H99	H	0.413294	0.882598	0.403123
	H100	H	0.585677	0.413542	0.109050
	H101	H	0.592173	0.584222	0.881150
	H102	H	0.412555	0.582824	0.108718
	H103	H	0.413182	0.408807	0.883456
	H104	H	0.110114	0.580801	0.408264
	H105	H	0.884900	0.587993	0.590864
	H106	H	0.112929	0.411443	0.588317
	H107	H	0.889756	0.408664	0.412600
	H108	H	0.915542	0.608623	0.074224
	H109	H	0.087546	0.385650	0.080467
	H110	H	0.089683	0.612383	0.910595
	H111	H	0.908619	0.383010	0.900371
	H112	H	0.093249	0.903463	0.613224
	H113	H	0.089769	0.083857	0.382503
	H114	H	0.908136	0.091219	0.613686
	H115	H	0.907655	0.918440	0.383121
	H116	H	0.612143	0.087233	0.909897
	H117	H	0.384957	0.092491	0.084116
	H118	H	0.613404	0.909598	0.087470
	H119	H	0.386434	0.909170	0.903644
	C120	C	0.379729	0.006307	0.616504
	C121	C	0.623100	0.988868	0.618552
	C122	C	0.622355	0.006891	0.375165
	C123	C	0.379206	0.989655	0.375117
	C124	C	0.619831	0.378312	0.005317
	C125	C	0.619576	0.620067	0.987744
	C126	C	0.376836	0.619583	0.004910
	C127	C	0.377332	0.377343	0.987864
	C128	C	0.008302	0.620075	0.373695
	C129	C	0.991368	0.619748	0.617455
	C130	C	0.009467	0.375556	0.619190
	C131	C	0.991848	0.376474	0.374712
	C132	C	0.877976	0.508222	0.116222
	C133	C	0.120714	0.489662	0.116777
	C134	C	0.120449	0.507773	0.875011
	C135	C	0.876724	0.490269	0.874338
	C136	C	0.122656	0.876051	0.504620
	C137	C	0.122002	0.118211	0.487703
	C138	C	0.878688	0.119529	0.505334
	C139	C	0.879985	0.878631	0.487695
	C140	C	0.508529	0.120402	0.874875
	C141	C	0.491599	0.119185	0.117579
	C142	C	0.508255	0.876087	0.118279
	C143	C	0.491491	0.876713	0.875036
	C144	C	0.378698	0.886244	0.677143
	C145	C	0.623771	0.109726	0.677443
	C146	C	0.625921	0.887910	0.313950
	C147	C	0.376258	0.108955	0.313997
	C148	C	0.680217	0.374954	0.885775
	C149	C	0.682782	0.625875	0.106001
	C150	C	0.316194	0.623825	0.885418
	C151	C	0.315959	0.372786	0.107230
	C152	C	0.890402	0.682455	0.369617
	C153	C	0.110153	0.679441	0.620601
	C154	C	0.891260	0.314409	0.621824
	C155	C	0.109637	0.314347	0.370605
	C156	C	0.890299	0.373552	0.678404
	C157	C	0.110114	0.621543	0.678328
	C158	C	0.890295	0.624113	0.312030
	C159	C	0.108366	0.370774	0.310829
	C160	C	0.374630	0.680559	0.885039
	C161	C	0.622321	0.679906	0.107689
	C162	C	0.622079	0.317867	0.885530
	C163	C	0.375224	0.316569	0.108455
	C164	C	0.684349	0.888301	0.370748
	C165	C	0.682486	0.109081	0.621369
	C166	C	0.319558	0.886838	0.621055
	C167	C	0.316483	0.107785	0.369233
	C168	C	0.874522	0.388631	0.177843
	C169	C	0.124045	0.608972	0.178182
	C170	C	0.121472	0.386958	0.816491
	C171	C	0.876014	0.610662	0.814616
	C172	C	0.183130	0.873074	0.385027
	C173	C	0.182787	0.121300	0.607494
	C174	C	0.815898	0.125709	0.386796
	C175	C	0.820222	0.874214	0.607752
	C176	C	0.388767	0.178991	0.872674
	C177	C	0.609509	0.180854	0.120793
	C178	C	0.389240	0.816877	0.121054
	C179	C	0.610298	0.816002	0.873859
	C180	C	0.390792	0.873384	0.179852
	C181	C	0.610466	0.122348	0.177921
	C182	C	0.388986	0.120091	0.815521
	C183	C	0.611161	0.874433	0.816639
	C184	C	0.876059	0.180955	0.385528
	C185	C	0.124529	0.178099	0.607798
	C186	C	0.124641	0.816378	0.384230
	C187	C	0.878759	0.817585	0.607629
	C188	C	0.181554	0.388531	0.871083
	C189	C	0.181366	0.609053	0.120578
	C190	C	0.815482	0.389581	0.121784
	C191	C	0.816718	0.610163	0.870522
	C192	C	0.404380	0.089658	0.590803
	C193	C	0.598664	0.905412	0.593657
	C194	C	0.596217	0.089841	0.401667
	C195	C	0.405482	0.906574	0.402069
	C196	C	0.594294	0.404419	0.088514
	C197	C	0.593974	0.594038	0.904065
	C198	C	0.401814	0.593805	0.088772
	C199	C	0.402535	0.403350	0.904771
	C200	C	0.090709	0.593890	0.399659
	C201	C	0.908458	0.595169	0.592467
	C202	C	0.091981	0.400865	0.594264
	C203	C	0.909982	0.403243	0.401246
	C204	C	0.904353	0.590719	0.089643
	C205	C	0.094522	0.406859	0.090067
	C206	C	0.095289	0.591319	0.900169
	C207	C	0.901102	0.406832	0.900412
	C208	C	0.097898	0.901547	0.588158
	C209	C	0.096346	0.092750	0.404441
	C210	C	0.904442	0.093075	0.588633
	C211	C	0.904785	0.905141	0.404496
	C212	C	0.591828	0.096418	0.899687
	C213	C	0.408921	0.093458	0.092234
	C214	C	0.590732	0.901376	0.091757
	C215	C	0.408970	0.902297	0.899722
	Zn216	Zn	0.501040	-0.001837	0.745649
	Zn217	Zn	0.500701	-0.001724	0.247249
	Zn218	Zn	0.748249	0.500090	-0.004093
	Zn219	Zn	0.248275	0.498502	-0.003801
	Zn220	Zn	0.000661	0.748869	0.495548
	Zn221	Zn	0.001082	0.247201	0.496674
	Zn222	Zn	-0.000511	0.498385	0.746971
	Zn223	Zn	-0.000617	0.498365	0.244542
	Zn224	Zn	0.498702	0.747661	-0.003413
	Zn225	Zn	0.498914	0.249262	-0.003106
	Zn226	Zn	0.750073	-0.001771	0.497147
	Zn227	Zn	0.250902	-0.002586	0.495749
	N228	N	0.415610	0.961391	0.674343
	N229	N	0.587769	0.033933	0.676240
	N230	N	0.587887	0.962663	0.316795
	N231	N	0.414565	0.034383	0.317711
	N232	N	0.679114	0.411689	0.961403
	N233	N	0.681022	0.589138	0.030268
	N234	N	0.317555	0.586567	0.960995
	N235	N	0.317044	0.409823	0.031494
	N236	N	0.965071	0.680055	0.407107
	N237	N	0.035498	0.678606	0.583455
	N238	N	0.966360	0.315497	0.585653
	N239	N	0.036136	0.317950	0.409691
	N240	N	0.964780	0.410750	0.676817
	N241	N	0.035080	0.585128	0.676700
	N242	N	0.964561	0.586195	0.314320
	N243	N	0.033869	0.408428	0.313034
	N244	N	0.411425	0.678272	0.960710
	N245	N	0.583463	0.676090	0.033152
	N246	N	0.585175	0.319947	0.960837
	N247	N	0.412531	0.319057	0.033312
	N248	N	0.682324	0.963572	0.407932
	N249	N	0.682142	0.033146	0.585472
	N250	N	0.320053	0.962596	0.584001
	N251	N	0.318239	0.032216	0.406556
	N252	N	0.912906	0.463083	0.174396
	N253	N	0.087151	0.533557	0.176085
	N254	N	0.083965	0.462091	0.818987
	N255	N	0.912445	0.534916	0.816575
	N256	N	0.182205	0.909227	0.460882
	N257	N	0.181693	0.085083	0.531527
	N258	N	0.817350	0.088521	0.462416
	N259	N	0.820708	0.911417	0.532006
	N260	N	0.464080	0.179317	0.908676
	N261	N	0.534771	0.178883	0.083875
	N262	N	0.463447	0.818445	0.083459
	N263	N	0.534911	0.817311	0.909418
	N264	N	0.465992	0.909398	0.178279
	N265	N	0.535904	0.084720	0.176126
	N266	N	0.464506	0.084658	0.816487
	N267	N	0.536375	0.911393	0.817012
	N268	N	0.914336	0.177352	0.460415
	N269	N	0.087553	0.176437	0.532371
	N270	N	0.087699	0.818195	0.459635
	N271	N	0.914963	0.819888	0.531962
	N272	N	0.181138	0.464731	0.906488
	N273	N	0.179333	0.533756	0.083242
	N274	N	0.817472	0.464872	0.084239
	N275	N	0.817086	0.534230	0.907059
	O276	O	0.315335	0.403599	0.430510
	H277	H	0.323193	0.397577	0.442759
	H278	H	0.306237	0.415071	0.464760
	O279	O	0.646587	0.405983	0.500847
	H280	H	0.625299	0.394486	0.520807
	H281	H	0.643905	0.391221	0.510594
	O282	O	0.483631	0.679003	0.552982
	H283	H	0.487695	0.669441	0.577106
	H284	H	0.467840	0.683692	0.557286
	O285	O	1.005795	1.158186	0.132035
	H286	H	1.016845	1.168732	0.127085
	H287	H	1.005079	1.158822	0.124123
	O288	O	0.376272	0.571360	0.651621
	H289	H	0.383690	0.569416	0.651373
	H290	H	0.369222	0.596632	0.638900
	O291	O	0.467438	0.288484	0.400246
	H292	H	0.467879	0.286901	0.397219
	H293	H	0.462651	0.297481	0.394359
	O294	O	0.903284	0.937284	1.103914
	H295	H	0.911142	0.940079	1.095552
	H296	H	0.914567	0.939070	1.108420
	O297	O	0.542905	0.351433	0.300918
	H298	H	0.538229	0.386583	0.297564
	H299	H	0.530096	0.338752	0.285421
	O300	O	0.498228	0.302608	0.640211
	H301	H	0.495975	0.326790	0.633476
	H302	H	0.505326	0.274925	0.658941
	O303	O	0.318232	0.675752	0.318423
	H304	H	0.367716	0.684555	0.310355
	H305	H	0.311763	0.625926	0.305764
	O306	O	-0.042146	-0.113907	0.871467
	H307	H	-0.033299	-0.108952	0.871300
	H308	H	-0.042614	-0.106032	0.872437
	O309	O	0.937814	0.006183	0.041872
	H310	H	0.929467	0.012903	0.054880
	H311	H	0.940954	0.011704	0.037283
	O312	O	0.338900	0.517364	0.320164
	H313	H	0.315398	0.514343	0.303056
	H314	H	0.336993	0.507684	0.334904
	O315	O	0.305140	0.524953	0.486499
	H316	H	0.294770	0.549151	0.497946
	H317	H	0.299757	0.524614	0.504411
	O318	O	0.014250	0.194502	-0.080500
	H319	H	0.013637	0.190787	-0.098748
	H320	H	0.038787	0.199372	-0.088605
	O321	O	0.703476	0.709730	0.516839
	H322	H	0.723689	0.729856	0.512696
	H323	H	0.708242	0.686377	0.513294
	O324	O	1.087843	-0.069150	1.142632
	H325	H	1.079523	-0.077076	1.114697
	H326	H	1.072023	-0.070838	1.138135
	O327	O	0.687175	0.480704	0.305384
	H328	H	0.694436	0.474849	0.292438
	H329	H	0.672417	0.473841	0.296859
	O330	O	-0.205159	1.199660	0.936385
	H331	H	-0.214326	1.203596	0.939191
	H332	H	-0.207513	1.208030	0.932719
	O333	O	0.136262	1.024932	-0.006561
	H334	H	0.140409	1.028243	0.005745
	H335	H	0.144589	1.026490	-0.001478
	O336	O	1.205971	0.829072	-0.060989
	H337	H	1.199051	0.840452	-0.059214
	H338	H	1.221343	0.813643	-0.062843
	O339	O	0.130536	0.965481	0.882136
	H340	H	0.126819	0.963488	0.881971
	H341	H	0.115198	0.978388	0.872927
	O342	O	0.518337	0.610726	0.286055
	H343	H	0.525033	0.614343	0.292149
	H344	H	0.517191	0.631616	0.285842
	O345	O	-0.097901	-0.146578	1.202511
	H346	H	-0.125174	-0.156315	1.198064
	H347	H	-0.113534	-0.162921	1.222662
	O348	O	0.289579	0.284640	0.521517
	H349	H	0.302604	0.294315	0.525761
	H350	H	0.268944	0.253590	0.519623
	O351	O	1.004074	0.803899	-0.072908
	H352	H	0.986628	0.799100	-0.069841
	H353	H	0.999868	0.817769	-0.071355
	O354	O	0.791133	1.052230	1.055080
	H355	H	0.780833	1.058427	1.079567
	H356	H	0.805450	1.062382	1.049365
	O357	O	0.025002	0.124679	-0.113802
	H358	H	0.033418	0.107262	-0.109815
	H359	H	0.020350	0.118952	-0.093226
	O360	O	0.311586	0.334264	0.685658
	H361	H	0.306306	0.356549	0.667006
	H362	H	0.317454	0.324291	0.683820
	O363	O	1.049525	-0.093016	-0.125168
	H364	H	1.057694	-0.091799	-0.119642
	H365	H	1.024945	-0.088874	-0.122175
	O366	O	0.203962	0.068972	1.108278
	H367	H	0.213896	0.048157	1.120136
	H368	H	0.186840	0.078965	1.122364
	O369	O	0.795617	0.017882	0.797620
	H370	H	0.793571	0.036492	0.797017
	H371	H	0.782537	0.018770	0.790773
	O372	O	0.495814	0.672787	0.682321
	H373	H	0.533740	0.668848	0.685701
	H374	H	0.505119	0.667953	0.693370
	O375	O	-0.404636	-0.469375	1.473224
	H376	H	-0.409952	-0.469229	1.464036
	H377	H	-0.413044	-0.455567	1.469694
	O378	O	0.621865	0.613725	0.356228
	H379	H	0.620812	0.618932	0.332266
	H380	H	0.627277	0.598970	0.369967
	O381	O	0.194149	1.139461	0.068979
	H382	H	0.201910	1.132255	0.084995
	H383	H	0.196451	1.138007	0.079400
	O384	O	0.706039	0.520901	0.699296
	H385	H	0.711533	0.516809	0.707596
	H386	H	0.717661	0.514074	0.686864
	O387	O	0.285727	0.709938	0.477364
	H388	H	0.297099	0.701596	0.429214
	H389	H	0.261801	0.741793	0.474293
	O390	O	0.865425	0.917144	0.203047
	H391	H	0.876239	0.921075	0.208565
	H392	H	0.871628	0.913355	0.217673
	O393	O	1.194587	0.002051	0.895112
	H394	H	1.206035	0.002301	0.907082
	H395	H	1.201333	0.014926	0.900077
	O396	O	0.668482	0.677731	0.672954
	H397	H	0.661480	0.653890	0.676393
	H398	H	0.681225	0.671883	0.640692
	O399	O	0.699728	0.301608	0.358289
	H400	H	0.710413	0.289529	0.378914
	H401	H	0.677418	0.306819	0.352138
	O402	O	0.843973	0.888098	0.105019
	H403	H	0.847372	0.887687	0.065313
	H404	H	0.834403	0.918310	0.118414
	O405	O	0.472389	0.582639	0.334554
	H406	H	0.476702	0.577138	0.340773
	H407	H	0.455932	0.600994	0.356579
	O408	O	0.314074	0.486927	0.704103
	H409	H	0.326479	0.471145	0.710562
	H410	H	0.303973	0.499318	0.710877
	O411	O	0.836097	0.881056	0.960901
	H412	H	0.839116	0.900371	0.949665
	H413	H	0.839038	0.875844	0.950653
	O414	O	0.603335	0.309665	0.599551
	H415	H	0.581821	0.329210	0.602064
	H416	H	0.592202	0.322589	0.597783
	O417	O	0.098195	0.986746	1.149636
	H418	H	0.077022	0.995160	1.145377
	H419	H	0.095603	0.961433	1.168183
	O420	O	0.009624	0.832200	0.909935
	H421	H	0.000316	0.825282	0.919500
	H422	H	0.006327	0.826824	0.910784
	O423	O	0.031436	1.199726	0.133407
	H424	H	0.027717	1.203856	0.115733
	H425	H	0.014579	1.195735	0.134043
	O426	O	0.506116	0.617267	0.480961
	H427	H	0.514312	0.622513	0.495776
	H428	H	0.490948	0.630637	0.495154
	O429	O	0.541357	0.423737	0.702487
	H430	H	0.521692	0.423985	0.709208
	H431	H	0.551371	0.427204	0.694288
	O432	O	0.720893	0.446100	0.545727
	H433	H	0.714868	0.420627	0.532801
	H434	H	0.722393	0.447652	0.535067
	O435	O	-0.129024	0.188574	-0.088382
	H436	H	-0.135453	0.196459	-0.101494
	H437	H	-0.121930	0.185152	-0.078383
	O438	O	0.012118	1.120334	0.860959
	H439	H	0.012814	1.132485	0.841082
	H440	H	0.007885	1.104781	0.865026
	O441	O	0.470935	0.358794	0.425423
	H442	H	0.471726	0.343476	0.425344
	H443	H	0.453139	0.379895	0.434459
