data_Molecule from HDF5

_cell_length_a		16.283730
_cell_length_b		16.284854
_cell_length_c		16.204121
_cell_angle_alpha	89.947510
_cell_angle_beta	89.744134
_cell_angle_gamma	90.103163
_symmetry_space_group_name_H-M	'P 1'
_symmetry_Int_Tables_number		1

loop_
	_symmetry_equiv_pos_as_xyz
	x,y,z

loop_
	_atom_site_label
	_atom_site_type_symbol
	_atom_site_fract_x
	_atom_site_fract_y
	_atom_site_fract_z
	H0	H	0.400303	0.839259	0.717502
	H1	H	0.599065	0.165401	0.713737
	H2	H	0.601910	0.839716	0.281827
	H3	H	0.401714	0.165597	0.286022
	H4	H	0.717285	0.400639	0.837347
	H5	H	0.715968	0.602309	0.165179
	H6	H	0.285953	0.600518	0.837127
	H7	H	0.283360	0.398911	0.163630
	H8	H	0.839703	0.717405	0.399585
	H9	H	0.162899	0.717982	0.604659
	H10	H	0.837568	0.283866	0.603657
	H11	H	0.162614	0.282781	0.399618
	H12	H	0.838342	0.398295	0.718685
	H13	H	0.164827	0.597486	0.714403
	H14	H	0.838639	0.598958	0.285874
	H15	H	0.163044	0.397607	0.282784
	H16	H	0.400000	0.716828	0.836887
	H17	H	0.601764	0.719383	0.163892
	H18	H	0.602433	0.286192	0.837559
	H19	H	0.401487	0.287226	0.164850
	H20	H	0.718536	0.839071	0.396976
	H21	H	0.717691	0.163476	0.600813
	H22	H	0.281712	0.840365	0.606815
	H23	H	0.282973	0.164087	0.399188
	H24	H	0.901321	0.336972	0.215732
	H25	H	0.102157	0.663180	0.216922
	H26	H	0.099306	0.336209	0.786898
	H27	H	0.903513	0.662963	0.785345
	H28	H	0.217778	0.901032	0.337668
	H29	H	0.214897	0.102594	0.665175
	H30	H	0.787414	0.100228	0.337784
	H31	H	0.783716	0.899100	0.664569
	H32	H	0.337445	0.217119	0.901227
	H33	H	0.663611	0.217233	0.098931
	H34	H	0.337292	0.783902	0.103512
	H35	H	0.662730	0.784786	0.898026
	H36	H	0.337499	0.901857	0.218898
	H37	H	0.663445	0.103072	0.215315
	H38	H	0.337400	0.101423	0.786245
	H39	H	0.663796	0.903940	0.785035
	H40	H	0.899368	0.216196	0.338911
	H41	H	0.098387	0.215624	0.665070
	H42	H	0.104145	0.782728	0.338613
	H43	H	0.899765	0.784276	0.665290
	H44	H	0.217917	0.337509	0.900501
	H45	H	0.217430	0.663636	0.100561
	H46	H	0.782435	0.338655	0.103255
	H47	H	0.784385	0.663354	0.898310
	H48	H	0.401290	0.121227	0.598739
	H49	H	0.600284	0.884619	0.587171
	H50	H	0.598737	0.118985	0.409186
	H51	H	0.410182	0.885389	0.405679
	H52	H	0.594185	0.401685	0.120542
	H53	H	0.595847	0.597401	0.882734
	H54	H	0.404114	0.590713	0.118113
	H55	H	0.403104	0.411221	0.882072
	H56	H	0.117863	0.593601	0.410684
	H57	H	0.883665	0.592953	0.595580
	H58	H	0.117565	0.404819	0.595036
	H59	H	0.885651	0.414827	0.406021
	H60	H	0.117189	0.404767	0.591629
	H61	H	0.886051	0.591840	0.590431
	H62	H	0.116046	0.588316	0.411406
	H63	H	0.882173	0.401733	0.405871
	H64	H	0.413607	0.588224	0.115214
	H65	H	0.596425	0.586679	0.886132
	H66	H	0.597370	0.415414	0.118177
	H67	H	0.414369	0.413659	0.886830
	H68	H	0.593140	0.117656	0.405047
	H69	H	0.591500	0.882579	0.601335
	H70	H	0.413996	0.117268	0.596241
	H71	H	0.413854	0.889017	0.413133
	H72	H	0.910967	0.616788	0.095841
	H73	H	0.088302	0.386125	0.093638
	H74	H	0.102479	0.619115	0.907015
	H75	H	0.910519	0.383700	0.902662
	H76	H	0.086769	0.906719	0.616982
	H77	H	0.096021	0.095394	0.382383
	H78	H	0.898867	0.085886	0.619750
	H79	H	0.910333	0.905731	0.383433
	H80	H	0.618192	0.093414	0.900222
	H81	H	0.383623	0.091362	0.096161
	H82	H	0.615960	0.909434	0.091044
	H83	H	0.384224	0.898800	0.919647
	H84	H	0.615264	0.910813	0.087476
	H85	H	0.382709	0.099189	0.094409
	H86	H	0.619205	0.102231	0.908932
	H87	H	0.388766	0.922778	0.912164
	H88	H	0.916658	0.087722	0.614679
	H89	H	0.093619	0.087340	0.385685
	H90	H	0.094089	0.907567	0.619593
	H91	H	0.909071	0.909909	0.384637
	H92	H	0.089257	0.617472	0.901949
	H93	H	0.093616	0.385232	0.086946
	H94	H	0.910977	0.614931	0.090050
	H95	H	0.912368	0.387425	0.914738
	H96	H	0.404535	0.117131	0.586043
	H97	H	0.584162	0.888817	0.588338
	H98	H	0.593098	0.116060	0.412524
	H99	H	0.405005	0.886748	0.413604
	H100	H	0.584264	0.410355	0.115268
	H101	H	0.586817	0.592306	0.886262
	H102	H	0.410318	0.597584	0.118302
	H103	H	0.411799	0.401735	0.882575
	H104	H	0.118006	0.590441	0.406637
	H105	H	0.885848	0.588681	0.593884
	H106	H	0.116169	0.408331	0.593933
	H107	H	0.887249	0.406877	0.418040
	H108	H	0.905552	0.617134	0.092258
	H109	H	0.096554	0.382404	0.094449
	H110	H	0.091579	0.613000	0.915082
	H111	H	0.901084	0.382492	0.911589
	H112	H	0.090533	0.912880	0.616246
	H113	H	0.087822	0.093468	0.386035
	H114	H	0.907646	0.101419	0.621938
	H115	H	0.912855	0.908687	0.386615
	H116	H	0.614845	0.091285	0.910813
	H117	H	0.385206	0.094157	0.089132
	H118	H	0.614208	0.913396	0.090335
	H119	H	0.379031	0.906310	0.895511
	C120	C	0.377714	0.010941	0.623748
	C121	C	0.621430	0.993013	0.621320
	C122	C	0.623891	0.010285	0.378209
	C123	C	0.380051	0.994275	0.380729
	C124	C	0.621989	0.380207	0.009468
	C125	C	0.622778	0.623086	0.992747
	C126	C	0.380043	0.621705	0.008891
	C127	C	0.380018	0.379809	0.992224
	C128	C	0.010100	0.621288	0.379581
	C129	C	0.992586	0.620912	0.622637
	C130	C	0.009323	0.377106	0.623315
	C131	C	0.992200	0.377389	0.379479
	C132	C	0.879206	0.509067	0.122612
	C133	C	0.123071	0.492021	0.121842
	C134	C	0.123386	0.508817	0.878929
	C135	C	0.879023	0.491928	0.879474
	C136	C	0.122359	0.878988	0.510137
	C137	C	0.121581	0.122022	0.492856
	C138	C	0.878964	0.121317	0.510390
	C139	C	0.879646	0.877855	0.492531
	C140	C	0.509308	0.124439	0.878379
	C141	C	0.491789	0.123863	0.122013
	C142	C	0.508054	0.880271	0.121790
	C143	C	0.491682	0.879819	0.878772
	C144	C	0.379580	0.888433	0.680342
	C145	C	0.619698	0.116091	0.676767
	C146	C	0.622086	0.888078	0.320655
	C147	C	0.381414	0.116708	0.324267
	C148	C	0.679171	0.381047	0.886668
	C149	C	0.678649	0.622381	0.115669
	C150	C	0.323968	0.620740	0.885843
	C151	C	0.322833	0.380622	0.115138
	C152	C	0.888050	0.678262	0.380608
	C153	C	0.114845	0.678151	0.622683
	C154	C	0.886459	0.321698	0.622902
	C155	C	0.114063	0.321069	0.380240
	C156	C	0.886918	0.378666	0.680307
	C157	C	0.115579	0.618551	0.677676
	C158	C	0.887487	0.619664	0.323735
	C159	C	0.114413	0.378079	0.321836
	C160	C	0.380615	0.678536	0.885846
	C161	C	0.621616	0.680478	0.115274
	C162	C	0.621824	0.323914	0.886644
	C163	C	0.381416	0.324601	0.115674
	C164	C	0.680125	0.887897	0.377867
	C165	C	0.678648	0.115141	0.620381
	C166	C	0.320644	0.888747	0.624694
	C167	C	0.322038	0.115859	0.380588
	C168	C	0.880349	0.386197	0.178724
	C169	C	0.121801	0.614674	0.178355
	C170	C	0.120526	0.385215	0.824280
	C171	C	0.882171	0.614349	0.823090
	C172	C	0.179987	0.880294	0.386997
	C173	C	0.177062	0.121870	0.616090
	C174	C	0.824340	0.120072	0.387101
	C175	C	0.822334	0.879348	0.615626
	C176	C	0.386351	0.179288	0.881191
	C177	C	0.614665	0.179766	0.119840
	C178	C	0.385955	0.822842	0.122781
	C179	C	0.614169	0.823650	0.879095
	C180	C	0.386069	0.881438	0.180166
	C181	C	0.614670	0.122608	0.177242
	C182	C	0.386111	0.121834	0.824010
	C183	C	0.614736	0.882950	0.822886
	C184	C	0.880286	0.177737	0.387672
	C185	C	0.119108	0.178020	0.616042
	C186	C	0.123229	0.821599	0.387415
	C187	C	0.880205	0.822029	0.615976
	C188	C	0.179346	0.385884	0.880814
	C189	C	0.179007	0.614794	0.120376
	C190	C	0.821402	0.387023	0.122488
	C191	C	0.823237	0.614512	0.879671
	C192	C	0.400120	0.096371	0.600468
	C193	C	0.598490	0.907382	0.598802
	C194	C	0.601358	0.095437	0.401768
	C195	C	0.403082	0.909190	0.404047
	C196	C	0.598873	0.402731	0.095788
	C197	C	0.599662	0.599418	0.907262
	C198	C	0.402686	0.598923	0.094817
	C199	C	0.403111	0.402322	0.905981
	C200	C	0.095157	0.597709	0.402915
	C201	C	0.907335	0.598041	0.599610
	C202	C	0.094710	0.399474	0.600269
	C203	C	0.906969	0.401017	0.402990
	C204	C	0.902537	0.594340	0.099641
	C205	C	0.099752	0.406829	0.098578
	C206	C	0.101037	0.594266	0.901272
	C207	C	0.901400	0.406487	0.902870
	C208	C	0.097797	0.902279	0.595383
	C209	C	0.099176	0.098868	0.407081
	C210	C	0.901261	0.098290	0.596715
	C211	C	0.903697	0.901100	0.407005
	C212	C	0.595112	0.102231	0.900178
	C213	C	0.406236	0.101249	0.099937
	C214	C	0.593082	0.904242	0.097003
	C215	C	0.406147	0.902318	0.902284
	Zn216	Zn	0.500176	0.002644	0.750718
	Zn217	Zn	0.500925	0.002365	0.250626
	Zn218	Zn	0.750583	0.501156	0.001077
	Zn219	Zn	0.251849	0.500864	0.000257
	Zn220	Zn	0.001515	0.749594	0.501822
	Zn221	Zn	-0.000103	0.249145	0.501800
	Zn222	Zn	0.001261	0.499277	0.750751
	Zn223	Zn	0.001581	0.499850	0.250932
	Zn224	Zn	0.500198	0.750758	0.000522
	Zn225	Zn	0.500765	0.251654	0.000575
	Zn226	Zn	0.751793	0.000321	0.500956
	Zn227	Zn	0.250129	0.001550	0.502124
	N228	N	0.414530	0.965414	0.679929
	N229	N	0.584876	0.039029	0.677620
	N230	N	0.587792	0.965264	0.320663
	N231	N	0.416856	0.040249	0.324163
	N232	N	0.679205	0.415273	0.964137
	N233	N	0.679265	0.587179	0.038458
	N234	N	0.323577	0.586077	0.963195
	N235	N	0.321968	0.414236	0.037226
	N236	N	0.965388	0.679575	0.414383
	N237	N	0.037355	0.679975	0.589405
	N238	N	0.963512	0.320743	0.587865
	N239	N	0.037112	0.320622	0.415180
	N240	N	0.964223	0.412431	0.680840
	N241	N	0.038676	0.583746	0.677989
	N242	N	0.964388	0.584933	0.322903
	N243	N	0.037440	0.412592	0.321293
	N244	N	0.414732	0.679369	0.963499
	N245	N	0.587845	0.681249	0.037658
	N246	N	0.586818	0.323396	0.964077
	N247	N	0.416161	0.323931	0.038164
	N248	N	0.681612	0.964826	0.412845
	N249	N	0.679758	0.037710	0.586708
	N250	N	0.319281	0.965754	0.590296
	N251	N	0.321270	0.038656	0.415173
	N252	N	0.915977	0.462926	0.178809
	N253	N	0.087836	0.537159	0.179647
	N254	N	0.086525	0.462423	0.822801
	N255	N	0.916045	0.537086	0.822865
	N256	N	0.179670	0.915093	0.464310
	N257	N	0.178789	0.087809	0.538425
	N258	N	0.823333	0.085832	0.464614
	N259	N	0.821802	0.913469	0.537801
	N260	N	0.464012	0.181042	0.914209
	N261	N	0.537298	0.180657	0.086195
	N262	N	0.462829	0.822197	0.087212
	N263	N	0.536611	0.821477	0.912950
	N264	N	0.463195	0.916311	0.179658
	N265	N	0.537447	0.088415	0.178793
	N266	N	0.463619	0.088454	0.822087
	N267	N	0.537437	0.917109	0.822590
	N268	N	0.913577	0.178532	0.465453
	N269	N	0.085208	0.178244	0.538465
	N270	N	0.088143	0.820685	0.464788
	N271	N	0.915086	0.821066	0.538539
	N272	N	0.181460	0.463627	0.913814
	N273	N	0.179917	0.537639	0.086139
	N274	N	0.820759	0.464192	0.088228
	N275	N	0.821383	0.537330	0.914005
	O276	O	0.785236	-0.401640	1.281191
	H277	H	0.795115	-0.406189	1.276705
	H278	H	0.786888	-0.394922	1.281863
	O279	O	0.506534	0.528243	0.460992
	H280	H	0.515501	0.533777	0.470808
	H281	H	0.503032	0.519159	0.452792
	O282	O	0.565042	0.401677	0.537280
	H283	H	0.574977	0.397395	0.542472
	H284	H	0.560174	0.397152	0.551683
	O285	O	0.580497	0.455577	0.541019
	H286	H	0.581008	0.452612	0.548082
	H287	H	0.573638	0.456830	0.542811
	O288	O	0.498415	0.617411	0.398399
	H289	H	0.490256	0.623429	0.385266
	H290	H	0.486917	0.613393	0.406459
	O291	O	-0.032529	-0.069603	0.973585
	H292	H	-0.034925	-0.068707	0.959965
	H293	H	-0.028901	-0.061527	0.961413
	O294	O	1.075947	0.982696	0.051117
	H295	H	1.069268	0.969809	0.041673
	H296	H	1.075949	0.979936	0.039869
	O297	O	1.001941	0.931429	0.058878
	H298	H	1.000240	0.928750	0.061573
	H299	H	1.010049	0.935475	0.053126
	O300	O	0.561797	0.615188	0.468472
	H301	H	0.556049	0.607076	0.475437
	H302	H	0.573184	0.629469	0.471742
	O303	O	0.387192	0.482341	0.576865
	H304	H	0.393070	0.472548	0.584310
	H305	H	0.389624	0.492432	0.581459
	O306	O	0.542103	0.589112	0.651823
	H307	H	0.533120	0.595092	0.649845
	H308	H	0.539194	0.581990	0.650219
	O309	O	0.462725	0.548977	0.386986
	H310	H	0.460684	0.537271	0.383490
	H311	H	0.468559	0.544902	0.383134
	O312	O	0.915262	0.920928	0.927340
	H313	H	0.909394	0.906746	0.933938
	H314	H	0.915015	0.927669	0.932860
	O315	O	1.024894	0.954965	0.129107
	H316	H	1.015148	0.958095	0.134589
	H317	H	1.031330	0.935437	0.136317
	O318	O	0.457465	0.461847	0.354203
	H319	H	0.470242	0.457574	0.360648
	H320	H	0.456240	0.455009	0.366535
	O321	O	0.539515	0.442820	0.653160
	H322	H	0.527526	0.439250	0.652843
	H323	H	0.542785	0.447234	0.648351
	O324	O	0.051053	1.127778	0.987061
	H325	H	0.055916	1.136786	0.980957
	H326	H	0.050117	1.114393	1.004997
	O327	O	-0.033643	1.051016	0.974539
	H328	H	-0.020133	1.057093	0.974422
	H329	H	-0.032779	1.057282	0.973492
	O330	O	-0.016950	-0.088135	0.026880
	H331	H	-0.029412	-0.086578	0.044543
	H332	H	-0.030014	-0.092749	0.034171
	O333	O	0.326187	0.671590	0.387765
	H334	H	0.316966	0.667206	0.376032
	H335	H	0.338923	0.666576	0.380766
	O336	O	0.093420	-0.030469	-0.103818
	H337	H	0.092734	-0.027036	-0.097306
	H338	H	0.092304	-0.030042	-0.106235
	O339	O	-0.062560	-0.139678	0.071214
	H340	H	-0.071015	-0.156093	0.072788
	H341	H	-0.063615	-0.118091	0.071755
	O342	O	0.542351	0.482193	0.442982
	H343	H	0.555815	0.473198	0.441312
	H344	H	0.531782	0.486312	0.452074
	O345	O	0.074812	1.000556	1.008505
	H346	H	0.069791	0.996813	1.006980
	H347	H	0.086563	1.000021	1.012298
	O348	O	0.519362	0.362210	0.550634
	H349	H	0.515328	0.361167	0.550611
	H350	H	0.507248	0.358656	0.549460
	O351	O	0.536467	0.517296	0.480911
	H352	H	0.542362	0.527352	0.484341
	H353	H	0.535391	0.520131	0.480171
	O354	O	0.061640	1.099066	0.004953
	H355	H	0.055440	1.079361	0.007899
	H356	H	0.069395	1.106293	-0.004578
	O357	O	0.415245	0.491544	0.517884
	H358	H	0.408578	0.502167	0.494932
	H359	H	0.420220	0.491411	0.507689
	O360	O	1.015711	-0.115289	0.993339
	H361	H	1.003768	-0.119404	0.997388
	H362	H	1.003876	-0.108637	0.997099
	O363	O	0.430038	0.674690	0.464116
	H364	H	0.426577	0.685226	0.453409
	H365	H	0.426605	0.668481	0.459722
	O366	O	0.523411	0.537355	0.639144
	H367	H	0.528765	0.526241	0.640810
	H368	H	0.525776	0.534909	0.639701
	O369	O	0.878007	0.014345	0.086614
	H370	H	0.885677	0.012511	0.073485
	H371	H	0.877916	0.011886	0.089295
	O372	O	0.421255	0.395932	0.543899
	H373	H	0.420514	0.394948	0.544425
	H374	H	0.426135	0.414759	0.533914
	O375	O	0.940248	0.114466	0.922781
	H376	H	0.941836	0.116352	0.921002
	H377	H	0.939611	0.117371	0.912576
	O378	O	-0.439584	1.562398	-0.434039
	H379	H	-0.440290	1.556654	-0.428128
	H380	H	-0.434008	1.569713	-0.435731
	O381	O	0.469844	0.346014	0.492212
	H382	H	0.473097	0.348451	0.494779
	H383	H	0.468588	0.347387	0.506278
	O384	O	0.943176	1.010717	0.050457
	H385	H	0.940815	1.020764	0.058068
	H386	H	0.941774	1.018083	0.052031
	O387	O	0.970169	0.058688	1.046428
	H388	H	0.978171	0.063829	1.046330
	H389	H	0.956845	0.058619	1.054034
	O390	O	0.999507	1.027719	-0.071382
	H391	H	1.008227	1.011328	-0.074021
	H392	H	1.010125	1.027645	-0.061960
	O393	O	0.504394	0.636052	0.359694
	H394	H	0.484355	0.625269	0.367963
	H395	H	0.504509	0.644260	0.362457
