data_Molecule from HDF5

_cell_length_a		16.591019
_cell_length_b		16.623916
_cell_length_c		16.535726
_cell_angle_alpha	89.963429
_cell_angle_beta	89.982166
_cell_angle_gamma	89.969981
_symmetry_space_group_name_H-M	'P 1'
_symmetry_Int_Tables_number		1

loop_
	_symmetry_equiv_pos_as_xyz
	x,y,z

loop_
	_atom_site_label
	_atom_site_type_symbol
	_atom_site_fract_x
	_atom_site_fract_y
	_atom_site_fract_z
	H0	H	0.373518	0.811818	0.720358
	H1	H	0.582925	0.124508	0.721778
	H2	H	0.583938	0.813477	0.277157
	H3	H	0.369553	0.123533	0.276324
	H4	H	0.695616	0.366203	0.842017
	H5	H	0.697566	0.574541	0.155558
	H6	H	0.252173	0.577427	0.843006
	H7	H	0.257476	0.367359	0.156278
	H8	H	0.820614	0.691065	0.395217
	H9	H	0.133623	0.690050	0.605232
	H10	H	0.822137	0.246672	0.605801
	H11	H	0.134532	0.249480	0.394673
	H12	H	0.820014	0.365249	0.719280
	H13	H	0.133478	0.573881	0.721225
	H14	H	0.821261	0.575567	0.278060
	H15	H	0.133818	0.366585	0.278744
	H16	H	0.366829	0.694798	0.844131
	H17	H	0.580389	0.689328	0.156730
	H18	H	0.579140	0.250156	0.842394
	H19	H	0.370307	0.248076	0.154763
	H20	H	0.701435	0.814412	0.391505
	H21	H	0.698712	0.124871	0.604572
	H22	H	0.255765	0.812321	0.605999
	H23	H	0.253257	0.123828	0.393197
	H24	H	0.872692	0.314200	0.220144
	H25	H	0.082309	0.625863	0.220680
	H26	H	0.084493	0.314310	0.775396
	H27	H	0.871899	0.625028	0.778550
	H28	H	0.199577	0.863036	0.344240
	H29	H	0.200210	0.075616	0.656644
	H30	H	0.758298	0.073954	0.341827
	H31	H	0.757475	0.866170	0.656124
	H32	H	0.321279	0.193164	0.889595
	H33	H	0.629525	0.194234	0.107522
	H34	H	0.320053	0.747814	0.106301
	H35	H	0.631812	0.747514	0.895148
	H36	H	0.320809	0.864254	0.222566
	H37	H	0.631016	0.075958	0.221955
	H38	H	0.321817	0.075340	0.774930
	H39	H	0.632707	0.864379	0.779172
	H40	H	0.874506	0.190578	0.342469
	H41	H	0.085604	0.192870	0.655251
	H42	H	0.083990	0.746740	0.344266
	H43	H	0.872061	0.748875	0.656108
	H44	H	0.200460	0.314378	0.890965
	H45	H	0.197909	0.625756	0.103710
	H46	H	0.754681	0.315004	0.105402
	H47	H	0.752975	0.624098	0.892690
	H48	H	0.388638	0.079598	0.589074
	H49	H	0.562644	0.858222	0.590766
	H50	H	0.564424	0.079251	0.412346
	H51	H	0.392066	0.859966	0.414314
	H52	H	0.566972	0.379229	0.112514
	H53	H	0.558257	0.559428	0.888763
	H54	H	0.388045	0.557626	0.110230
	H55	H	0.386177	0.382128	0.886204
	H56	H	0.089544	0.562460	0.412208
	H57	H	0.865886	0.552507	0.592266
	H58	H	0.089585	0.382628	0.590415
	H59	H	0.864365	0.378994	0.409151
	H60	H	0.089819	0.378246	0.587736
	H61	H	0.862287	0.564693	0.593057
	H62	H	0.086949	0.555833	0.413607
	H63	H	0.865670	0.377384	0.412830
	H64	H	0.386574	0.559900	0.110990
	H65	H	0.566728	0.560245	0.885879
	H66	H	0.564521	0.383249	0.110564
	H67	H	0.389115	0.381606	0.886881
	H68	H	0.570225	0.081943	0.410676
	H69	H	0.568809	0.858639	0.582940
	H70	H	0.391595	0.078104	0.587104
	H71	H	0.384949	0.856550	0.413146
	H72	H	0.889593	0.581709	0.089199
	H73	H	0.063198	0.357816	0.092192
	H74	H	0.064058	0.579919	0.910076
	H75	H	0.885249	0.356150	0.908084
	H76	H	0.064239	0.876071	0.613213
	H77	H	0.063371	0.058556	0.389230
	H78	H	0.888298	0.063870	0.613213
	H79	H	0.886881	0.881419	0.386576
	H80	H	0.586332	0.059435	0.914515
	H81	H	0.363282	0.061066	0.087429
	H82	H	0.589566	0.877415	0.090429
	H83	H	0.363770	0.879327	0.910322
	H84	H	0.587591	0.877235	0.084804
	H85	H	0.366823	0.055743	0.082396
	H86	H	0.586944	0.055827	0.910757
	H87	H	0.365946	0.880764	0.913946
	H88	H	0.884821	0.054398	0.611463
	H89	H	0.067747	0.057825	0.387892
	H90	H	0.069813	0.881377	0.613128
	H91	H	0.891421	0.880208	0.387771
	H92	H	0.062908	0.579479	0.911696
	H93	H	0.065565	0.359298	0.084587
	H94	H	0.885784	0.581016	0.084603
	H95	H	0.888351	0.358562	0.909935
	H96	H	0.387652	0.078397	0.585369
	H97	H	0.572154	0.854970	0.591731
	H98	H	0.565260	0.081484	0.406558
	H99	H	0.390331	0.856839	0.407439
	H100	H	0.561857	0.379161	0.111903
	H101	H	0.564333	0.552852	0.889338
	H102	H	0.385225	0.557389	0.110737
	H103	H	0.387485	0.379619	0.885698
	H104	H	0.089744	0.557476	0.407059
	H105	H	0.867472	0.560132	0.582170
	H106	H	0.087791	0.382282	0.585632
	H107	H	0.866348	0.381778	0.411495
	H108	H	0.884157	0.583638	0.089554
	H109	H	0.070363	0.356227	0.090117
	H110	H	0.065336	0.579924	0.912288
	H111	H	0.884664	0.357498	0.912354
	H112	H	0.062605	0.882599	0.610119
	H113	H	0.065419	0.054516	0.390140
	H114	H	0.894140	0.056496	0.608507
	H115	H	0.888791	0.876764	0.385556
	H116	H	0.588884	0.060609	0.910186
	H117	H	0.364788	0.053949	0.089845
	H118	H	0.587690	0.882197	0.088034
	H119	H	0.365433	0.883019	0.910537
	C120	C	0.356271	-0.023539	0.620932
	C121	C	0.599497	0.960384	0.620848
	C122	C	0.599126	-0.022292	0.377348
	C123	C	0.355854	0.960501	0.378659
	C124	C	0.596552	0.348401	0.008006
	C125	C	0.596116	0.589867	0.991396
	C126	C	0.353618	0.591536	0.007488
	C127	C	0.354924	0.348711	0.989627
	C128	C	-0.014699	0.590822	0.378672
	C129	C	0.968720	0.590846	0.621492
	C130	C	-0.013846	0.348125	0.620676
	C131	C	0.969031	0.348306	0.378552
	C132	C	0.854913	0.478936	0.120434
	C133	C	0.098211	0.461345	0.120650
	C134	C	0.097485	0.477458	0.878186
	C135	C	0.854533	0.460435	0.877926
	C136	C	0.098078	0.847961	0.508759
	C137	C	0.098806	0.090034	0.492209
	C138	C	0.857146	0.090521	0.507346
	C139	C	0.856737	0.848075	0.490555
	C140	C	0.484732	0.090875	0.877748
	C141	C	0.467424	0.090437	0.119984
	C142	C	0.485098	0.847200	0.121162
	C143	C	0.468089	0.848378	0.879321
	C144	C	0.354637	0.858962	0.680867
	C145	C	0.601587	0.077422	0.681618
	C146	C	0.601791	0.860638	0.317204
	C147	C	0.352014	0.077309	0.317270
	C148	C	0.655788	0.347386	0.889384
	C149	C	0.657112	0.592669	0.108844
	C150	C	0.292627	0.595255	0.890127
	C151	C	0.296059	0.347803	0.108551
	C152	C	0.867783	0.651016	0.376449
	C153	C	0.086568	0.650254	0.623550
	C154	C	0.868900	0.286990	0.623712
	C155	C	0.087396	0.289658	0.376579
	C156	C	0.867778	0.345964	0.680189
	C157	C	0.086454	0.592413	0.681361
	C158	C	0.867769	0.593534	0.318378
	C159	C	0.086880	0.347445	0.318593
	C160	C	0.349628	0.653804	0.890715
	C161	C	0.598550	0.649458	0.109518
	C162	C	0.597865	0.289835	0.889374
	C163	C	0.352431	0.288776	0.107966
	C164	C	0.660483	0.861019	0.374092
	C165	C	0.659083	0.077988	0.623336
	C166	C	0.296091	0.859084	0.623857
	C167	C	0.294239	0.077215	0.375243
	C168	C	0.853327	0.361469	0.180629
	C169	C	0.100410	0.578840	0.180464
	C170	C	0.101365	0.360605	0.816693
	C171	C	0.852963	0.578106	0.818183
	C172	C	0.159085	0.845079	0.391175
	C173	C	0.159880	0.093364	0.609533
	C174	C	0.798158	0.092501	0.388903
	C175	C	0.797073	0.847067	0.608805
	C176	C	0.367867	0.152059	0.872886
	C177	C	0.583467	0.152697	0.124317
	C178	C	0.367269	0.787619	0.124345
	C179	C	0.585365	0.788007	0.877058
	C180	C	0.367633	0.845519	0.182074
	C181	C	0.584100	0.094108	0.181564
	C182	C	0.368242	0.093629	0.815632
	C183	C	0.585794	0.846031	0.819472
	C184	C	0.855885	0.150363	0.389324
	C185	C	0.102855	0.151723	0.608878
	C186	C	0.101462	0.787339	0.391181
	C187	C	0.854157	0.788840	0.608958
	C188	C	0.159646	0.360891	0.873874
	C189	C	0.158178	0.578775	0.122459
	C190	C	0.794977	0.361710	0.123331
	C191	C	0.793986	0.577726	0.874902
	C192	C	0.381804	0.057665	0.594702
	C193	C	0.574937	0.878511	0.595740
	C194	C	0.573857	0.059454	0.402610
	C195	C	0.381578	0.879048	0.404276
	C196	C	0.571550	0.373279	0.090302
	C197	C	0.570555	0.564747	0.909502
	C198	C	0.379246	0.565539	0.089234
	C199	C	0.380238	0.373972	0.907788
	C200	C	0.067436	0.565666	0.403799
	C201	C	0.886691	0.566315	0.596345
	C202	C	0.067764	0.373631	0.595260
	C203	C	0.886881	0.372387	0.403824
	C204	C	0.879504	0.560677	0.095097
	C205	C	0.073560	0.379231	0.095860
	C206	C	0.071549	0.558697	0.904142
	C207	C	0.879104	0.378721	0.903001
	C208	C	0.072805	0.872981	0.590827
	C209	C	0.072904	0.064241	0.410273
	C210	C	0.881902	0.065341	0.589651
	C211	C	0.881753	0.872383	0.408154
	C212	C	0.566128	0.065883	0.904350
	C213	C	0.386243	0.064147	0.093853
	C214	C	0.566967	0.871888	0.095324
	C215	C	0.386350	0.873827	0.904483
	Zn216	Zn	0.477425	-0.031489	0.749564
	Zn217	Zn	0.476804	-0.030765	0.249300
	Zn218	Zn	0.725135	0.469523	-0.000629
	Zn219	Zn	0.226305	0.469525	-0.001442
	Zn220	Zn	-0.022505	0.718988	0.499836
	Zn221	Zn	-0.021407	0.219253	0.499541
	Zn222	Zn	-0.023456	0.469034	0.749426
	Zn223	Zn	-0.023335	0.469901	0.249518
	Zn224	Zn	0.475697	0.718780	-0.000320
	Zn225	Zn	0.475456	0.219494	-0.001324
	Zn226	Zn	0.727999	-0.030075	0.498956
	Zn227	Zn	0.227353	-0.031295	0.500418
	N228	N	0.391257	0.932949	0.679386
	N229	N	0.565432	0.003219	0.680515
	N230	N	0.564291	0.934336	0.319044
	N231	N	0.389503	0.003671	0.319123
	N232	N	0.655198	0.383067	0.964304
	N233	N	0.655898	0.556583	0.034195
	N234	N	0.295040	0.557518	0.963744
	N235	N	0.297183	0.384073	0.033949
	N236	N	0.942093	0.649602	0.412948
	N237	N	0.012173	0.649562	0.587200
	N238	N	0.943519	0.287950	0.587605
	N239	N	0.012898	0.289708	0.412757
	N240	N	0.941616	0.383265	0.678589
	N241	N	0.011940	0.556461	0.680416
	N242	N	0.942118	0.557065	0.319388
	N243	N	0.012187	0.383179	0.319471
	N244	N	0.386830	0.651952	0.965027
	N245	N	0.561289	0.647978	0.035389
	N246	N	0.561899	0.290217	0.964161
	N247	N	0.388096	0.288830	0.033036
	N248	N	0.659096	0.935066	0.410857
	N249	N	0.658093	0.004116	0.586245
	N250	N	0.296907	0.933293	0.587326
	N251	N	0.296358	0.003516	0.412547
	N252	N	0.889815	0.435551	0.179155
	N253	N	0.063866	0.504786	0.179506
	N254	N	0.063423	0.434097	0.819169
	N255	N	0.889895	0.504263	0.819952
	N256	N	0.157279	0.882028	0.465353
	N257	N	0.157403	0.055291	0.535855
	N258	N	0.798597	0.056134	0.463504
	N259	N	0.798321	0.883121	0.534104
	N260	N	0.441420	0.150537	0.910843
	N261	N	0.509744	0.150649	0.086838
	N262	N	0.441384	0.788235	0.087356
	N263	N	0.510967	0.789198	0.913377
	N264	N	0.441993	0.881758	0.180140
	N265	N	0.510851	0.055929	0.178951
	N266	N	0.441782	0.056277	0.818469
	N267	N	0.511749	0.882759	0.820607
	N268	N	0.891675	0.149311	0.464088
	N269	N	0.065638	0.149651	0.534796
	N270	N	0.064247	0.788960	0.465348
	N271	N	0.890502	0.789124	0.534281
	N272	N	0.157248	0.434504	0.911555
	N273	N	0.157079	0.504408	0.086165
	N274	N	0.795539	0.435833	0.086740
	N275	N	0.794517	0.503628	0.911384
	O276	O	-0.049445	1.187449	-0.218035
	H277	H	-0.054919	1.173711	-0.228205
	H278	H	-0.046972	1.193555	-0.242142
	O279	O	0.382643	0.416505	0.367065
	H280	H	0.382900	0.426769	0.355783
	H281	H	0.383409	0.398058	0.362282
	O282	O	1.256515	0.456573	0.667053
	H283	H	1.254026	0.481557	0.667393
	H284	H	1.262565	0.465811	0.684091
	O285	O	0.638563	0.515107	0.527297
	H286	H	0.644028	0.510081	0.529135
	H287	H	0.640976	0.508236	0.538667
	O288	O	0.311652	0.302347	0.348043
	H289	H	0.333542	0.317858	0.362174
	H290	H	0.329897	0.312912	0.367319
	O291	O	0.697952	0.247415	0.461975
	H292	H	0.693405	0.263524	0.455884
	H293	H	0.724668	0.219847	0.464308
	O294	O	1.316061	0.554309	1.709083
	H295	H	1.317258	0.556744	1.702161
	H296	H	1.331508	0.561604	1.702437
	O297	O	0.451891	0.251751	0.710462
	H298	H	0.444997	0.251400	0.706632
	H299	H	0.450445	0.239839	0.725091
	O300	O	-0.193122	-0.003142	0.987297
	H301	H	-0.190783	-0.008536	0.980322
	H302	H	-0.196800	-0.010544	0.976951
	O303	O	0.523489	0.328833	0.534542
	H304	H	0.525974	0.334341	0.527923
	H305	H	0.516596	0.329799	0.524481
	O306	O	0.690704	0.494549	0.706886
	H307	H	0.703855	0.511757	0.719290
	H308	H	0.693696	0.514172	0.714110
	O309	O	0.396421	0.503856	0.506507
	H310	H	0.409664	0.505464	0.513482
	H311	H	0.403573	0.502586	0.497062
	O312	O	0.416513	0.238526	0.445751
	H313	H	0.408302	0.237923	0.453503
	H314	H	0.411685	0.239420	0.443808
	O315	O	0.948566	1.143880	1.083794
	H316	H	0.948401	1.144015	1.072650
	H317	H	0.953941	1.131196	1.082480
	O318	O	-0.336184	0.230742	0.674977
	H319	H	-0.339331	0.234984	0.670484
	H320	H	-0.329440	0.223217	0.686189
	O321	O	0.683405	0.678998	0.710025
	H322	H	0.681578	0.685673	0.673500
	H323	H	0.714772	0.706207	0.736308
	O324	O	0.921210	0.956208	-0.103727
	H325	H	0.935726	0.959661	-0.105154
	H326	H	0.916066	0.944336	-0.105700
	O327	O	0.186845	-0.244755	0.973345
	H328	H	0.209395	-0.257001	0.980346
	H329	H	0.195181	-0.218505	0.990498
	O330	O	0.162387	0.775422	-0.190377
	H331	H	0.185282	0.793231	-0.210702
	H332	H	0.168316	0.769316	-0.138704
	O333	O	0.786569	0.157398	1.187135
	H334	H	0.800260	0.133165	1.170562
	H335	H	0.809541	0.151361	1.160181
	O336	O	0.618218	0.322342	0.690429
	H337	H	0.617324	0.328537	0.688415
	H338	H	0.606912	0.328407	0.683854
	O339	O	0.984603	-0.194936	1.049017
	H340	H	0.993413	-0.199227	1.065242
	H341	H	0.981170	-0.191988	1.069813
	O342	O	0.429555	0.635361	0.588880
	H343	H	0.427159	0.638009	0.581752
	H344	H	0.424100	0.637428	0.588536
	O345	O	-0.100399	0.973850	0.975002
	H346	H	-0.100984	0.969769	0.960230
	H347	H	-0.090033	0.979518	0.988267
	O348	O	0.527226	0.446931	0.597422
	H349	H	0.535568	0.445107	0.606013
	H350	H	0.527494	0.440864	0.600820
	O351	O	0.019648	0.975416	0.173526
	H352	H	0.010392	0.984694	0.167920
	H353	H	0.031348	0.998717	0.179997
	O354	O	0.202650	0.191883	1.029551
	H355	H	0.209257	0.197690	1.030718
	H356	H	0.213744	0.209223	1.047588
	O357	O	0.274430	0.671349	0.302616
	H358	H	0.306029	0.654389	0.303749
	H359	H	0.257901	0.677671	0.285799
	O360	O	0.690694	0.477445	0.352323
	H361	H	0.697757	0.483236	0.342643
	H362	H	0.686864	0.471094	0.345820
	O363	O	0.306354	0.695365	-0.537379
	H364	H	0.285744	0.708924	-0.548278
	H365	H	0.311581	0.694820	-0.571280
	O366	O	0.379784	0.561955	0.499510
	H367	H	0.392528	0.547719	0.499578
	H368	H	0.372317	0.556653	0.505191
	O369	O	1.031376	0.159949	0.003177
	H370	H	1.027632	0.161703	-0.005222
	H371	H	1.033457	0.158247	-0.013170
	O372	O	1.196301	0.998195	0.214790
	H373	H	1.198086	1.013893	0.225288
	H374	H	1.200448	1.003809	0.238842
	O375	O	0.790882	-0.216718	-0.189060
	H376	H	0.806854	-0.199980	-0.172433
	H377	H	0.813213	-0.200567	-0.173824
	O378	O	0.654744	0.686520	0.504445
	H379	H	0.654628	0.680535	0.497102
	H380	H	0.662418	0.691497	0.501381
	O381	O	-0.065767	0.933992	0.861904
	H382	H	-0.075578	0.925354	0.873549
	H383	H	-0.071435	0.918700	0.866744
	O384	O	1.198121	-0.064972	1.019965
	H385	H	1.199854	-0.054333	1.049358
	H386	H	1.191477	-0.038467	1.004698
	O387	O	0.783286	0.775793	0.193698
	H388	H	0.791521	0.777250	0.177471
	H389	H	0.778099	0.768513	0.210564
	O390	O	0.898532	0.960387	0.094169
	H391	H	0.911971	0.944868	0.089758
	H392	H	0.879770	0.965567	0.119949
	O393	O	0.684503	0.255270	0.289037
	H394	H	0.709421	0.230229	0.270704
	H395	H	0.690576	0.262056	0.296425
	O396	O	0.157704	1.121836	0.852466
	H397	H	0.138956	1.117998	0.858491
	H398	H	0.158778	1.118702	0.837345
	O399	O	0.176978	0.171795	1.203384
	H400	H	0.163537	0.167761	1.187413
	H401	H	0.203446	0.190256	1.229590
	O402	O	0.432599	-0.491530	0.523701
	H403	H	0.429166	-0.494766	0.526861
	H404	H	0.429286	-0.503155	0.514912
	O405	O	1.760196	0.752897	0.024554
	H406	H	1.764832	0.738049	0.030155
	H407	H	1.756548	0.735229	0.033062
	O408	O	-0.186608	-0.021261	-0.217097
	H409	H	-0.173973	-0.006390	-0.217394
	H410	H	-0.197173	-0.016926	-0.226503
	O411	O	0.778371	1.024836	1.059921
	H412	H	0.771341	1.008422	1.074828
	H413	H	0.770034	1.006168	1.043971
	O414	O	0.443530	0.688803	0.278289
	H415	H	0.447851	0.713792	0.261250
	H416	H	0.440214	0.683686	0.282113
	O417	O	1.007228	1.183077	0.214040
	H418	H	1.009119	1.187021	0.217450
	H419	H	1.019611	1.196312	0.218488
	O420	O	0.834571	1.141581	0.825098
	H421	H	0.852305	1.136642	0.841070
	H422	H	0.836156	1.142938	0.839009
	O423	O	-0.143277	-0.059044	1.220726
	H424	H	-0.154429	-0.062215	1.235217
	H425	H	-0.129549	-0.064336	1.217492
	O426	O	0.508662	0.685887	0.719143
	H427	H	0.535915	0.684877	0.717357
	H428	H	0.516287	0.704691	0.737928
	O429	O	0.918016	0.745827	0.936047
	H430	H	0.939785	0.738384	0.928993
	H431	H	0.927460	0.743673	0.929960
	O432	O	0.634648	0.631749	0.313432
	H433	H	0.609011	0.638838	0.335555
	H434	H	0.628902	0.603401	0.323272
	O435	O	-0.876815	0.775781	-0.866336
	H436	H	-0.883496	0.786074	-0.876719
	H437	H	-0.886010	0.791426	-0.866689
	O438	O	0.001773	-0.254811	-0.221683
	H439	H	0.034605	-0.258213	-0.225582
	H440	H	0.024936	-0.272587	-0.240367
	O441	O	0.195548	-0.063696	-0.221055
	H442	H	0.188383	-0.058257	-0.207676
	H443	H	0.226467	-0.068937	-0.245154
	O444	O	0.257768	0.467922	0.332991
	H445	H	0.255619	0.478284	0.327828
	H446	H	0.249956	0.462826	0.331544
	O447	O	0.264771	1.252980	0.526997
	H448	H	0.268371	1.252547	0.548625
	H449	H	0.243392	1.246153	0.534383
	O450	O	-0.296036	1.407820	1.527257
	H451	H	-0.292260	1.410975	1.555298
	H452	H	-0.299502	1.404555	1.512437
	O453	O	1.028608	0.843884	1.166329
	H454	H	1.026417	0.848362	1.154685
	H455	H	1.013626	0.837224	1.157567
	O456	O	0.455146	0.418724	1.572119
	H457	H	0.463751	0.422595	1.588547
	H458	H	0.465897	0.417007	1.550778
	O459	O	0.948131	0.750960	0.216089
	H460	H	0.943124	0.751837	0.207962
	H461	H	0.939896	0.730892	0.236876
	O462	O	0.429376	0.637231	0.538650
	H463	H	0.434556	0.651839	0.536120
	H464	H	0.429313	0.635262	0.536728
	O465	O	1.497560	0.526224	0.376182
	H466	H	1.504720	0.531195	0.371362
	H467	H	1.490212	0.532492	0.383720
	O468	O	0.602207	0.360607	0.298741
	H469	H	0.626568	0.344714	0.290450
	H470	H	0.590650	0.340723	0.306729
	O471	O	0.282906	0.272351	0.693503
	H472	H	0.270820	0.292594	0.686463
	H473	H	0.300666	0.290807	0.704056
	O474	O	0.407690	0.573732	0.391937
	H475	H	0.404106	0.577318	0.405894
	H476	H	0.405943	0.567009	0.398879
	O477	O	0.938321	-0.010098	2.024767
	H478	H	0.951099	-0.012058	2.026102
	H479	H	0.930396	-0.003931	2.023975
	O480	O	0.127057	1.083819	-0.028047
	H481	H	0.131882	1.101027	-0.029744
	H482	H	0.131290	1.101515	-0.037538
	O483	O	-0.245230	1.186033	-0.035321
	H484	H	-0.246163	1.177531	-0.027813
	H485	H	-0.265525	1.204649	-0.037095
	O486	O	1.045943	0.021853	0.788513
	H487	H	1.051427	0.016009	0.792769
	H488	H	1.038646	0.001349	0.789748
	O489	O	1.472767	0.314683	0.297797
	H490	H	1.483016	0.299877	0.300473
	H491	H	1.503138	0.318526	0.296580
