data_Molecule from HDF5

_cell_length_a		16.415543
_cell_length_b		16.306199
_cell_length_c		16.303118
_cell_angle_alpha	90.162841
_cell_angle_beta	90.208945
_cell_angle_gamma	89.924321
_symmetry_space_group_name_H-M	'P 1'
_symmetry_Int_Tables_number		1

loop_
	_symmetry_equiv_pos_as_xyz
	x,y,z

loop_
	_atom_site_label
	_atom_site_type_symbol
	_atom_site_fract_x
	_atom_site_fract_y
	_atom_site_fract_z
	H0	H	0.411956	0.825111	0.714895
	H1	H	0.612906	0.147970	0.721559
	H2	H	0.612837	0.825121	0.283341
	H3	H	0.408062	0.148132	0.282954
	H4	H	0.727293	0.384824	0.839620
	H5	H	0.730822	0.592902	0.162172
	H6	H	0.291065	0.588112	0.839233
	H7	H	0.293074	0.386197	0.163024
	H8	H	0.850130	0.707971	0.395938
	H9	H	0.171081	0.704603	0.602186
	H10	H	0.848843	0.270123	0.600471
	H11	H	0.170394	0.267134	0.397575
	H12	H	0.848441	0.386849	0.717219
	H13	H	0.171443	0.588106	0.718979
	H14	H	0.849775	0.590559	0.281259
	H15	H	0.170923	0.385549	0.283118
	H16	H	0.408911	0.702743	0.838106
	H17	H	0.611400	0.705301	0.163037
	H18	H	0.609176	0.270438	0.839164
	H19	H	0.408763	0.270832	0.162697
	H20	H	0.728761	0.825863	0.397671
	H21	H	0.728898	0.148959	0.604659
	H22	H	0.292314	0.826794	0.606152
	H23	H	0.292071	0.147756	0.399108
	H24	H	0.907004	0.326588	0.219463
	H25	H	0.114090	0.648662	0.221440
	H26	H	0.113084	0.326433	0.781545
	H27	H	0.906105	0.648388	0.781342
	H28	H	0.233657	0.878622	0.342871
	H29	H	0.231309	0.092635	0.661838
	H30	H	0.788592	0.091536	0.341046
	H31	H	0.791310	0.883799	0.661559
	H32	H	0.350618	0.206844	0.896316
	H33	H	0.670210	0.208568	0.107149
	H34	H	0.350367	0.768839	0.101564
	H35	H	0.668991	0.764907	0.895278
	H36	H	0.351166	0.881954	0.220565
	H37	H	0.670927	0.090487	0.222838
	H38	H	0.350324	0.088303	0.782397
	H39	H	0.670437	0.881625	0.780648
	H40	H	0.905415	0.205932	0.339359
	H41	H	0.113629	0.206654	0.661771
	H42	H	0.114489	0.766416	0.341600
	H43	H	0.907385	0.769003	0.662532
	H44	H	0.230341	0.327192	0.895894
	H45	H	0.229529	0.648351	0.105320
	H46	H	0.788995	0.327347	0.106297
	H47	H	0.787215	0.647043	0.893321
	H48	H	0.416854	0.103075	0.587460
	H49	H	0.602597	0.871043	0.594157
	H50	H	0.605159	0.102363	0.413813
	H51	H	0.430417	0.874433	0.410260
	H52	H	0.600384	0.400204	0.115102
	H53	H	0.608770	0.584759	0.881091
	H54	H	0.424616	0.570415	0.111774
	H55	H	0.415718	0.392619	0.884538
	H56	H	0.122623	0.580404	0.415652
	H57	H	0.893160	0.589982	0.587643
	H58	H	0.128203	0.392264	0.599973
	H59	H	0.897070	0.394120	0.414432
	H60	H	0.123475	0.390885	0.584674
	H61	H	0.901352	0.571314	0.584048
	H62	H	0.122000	0.572485	0.411722
	H63	H	0.897063	0.401145	0.408430
	H64	H	0.424170	0.588667	0.117398
	H65	H	0.604070	0.562278	0.890192
	H66	H	0.598883	0.398323	0.115695
	H67	H	0.415864	0.401456	0.886043
	H68	H	0.595889	0.101603	0.408390
	H69	H	0.599582	0.873214	0.590474
	H70	H	0.418276	0.104988	0.596608
	H71	H	0.414403	0.873322	0.420054
	H72	H	0.919203	0.599768	0.083374
	H73	H	0.107261	0.371924	0.087670
	H74	H	0.096722	0.604356	0.901998
	H75	H	0.923459	0.375145	0.912430
	H76	H	0.105502	0.891586	0.619816
	H77	H	0.104366	0.081662	0.383677
	H78	H	0.922804	0.086054	0.617451
	H79	H	0.918677	0.893287	0.385118
	H80	H	0.624002	0.078150	0.915807
	H81	H	0.396065	0.077701	0.095207
	H82	H	0.625364	0.896833	0.094238
	H83	H	0.397111	0.888787	0.920233
	H84	H	0.623378	0.894823	0.087059
	H85	H	0.396523	0.081500	0.089442
	H86	H	0.622971	0.073501	0.910858
	H87	H	0.399517	0.907916	0.906094
	H88	H	0.911626	0.074942	0.617126
	H89	H	0.105770	0.069054	0.387878
	H90	H	0.106479	0.905619	0.614431
	H91	H	0.915830	0.901610	0.387292
	H92	H	0.093396	0.597110	0.918862
	H93	H	0.100911	0.370791	0.097196
	H94	H	0.916672	0.603942	0.093291
	H95	H	0.914411	0.372886	0.913661
	H96	H	0.425203	0.101604	0.592010
	H97	H	0.605440	0.872417	0.589288
	H98	H	0.596561	0.098373	0.417795
	H99	H	0.416005	0.867477	0.402105
	H100	H	0.601573	0.398136	0.116600
	H101	H	0.586398	0.580076	0.890000
	H102	H	0.408885	0.577711	0.119152
	H103	H	0.423476	0.396138	0.887209
	H104	H	0.125791	0.578864	0.406964
	H105	H	0.893196	0.575612	0.602340
	H106	H	0.121646	0.404381	0.592386
	H107	H	0.893350	0.393104	0.405972
	H108	H	0.926620	0.600016	0.091877
	H109	H	0.096256	0.375360	0.087618
	H110	H	0.110119	0.604825	0.915113
	H111	H	0.918606	0.370926	0.904888
	H112	H	0.093121	0.897719	0.614100
	H113	H	0.093465	0.075533	0.389535
	H114	H	0.926071	0.071396	0.611432
	H115	H	0.924739	0.899239	0.388184
	H116	H	0.625863	0.079487	0.909241
	H117	H	0.398939	0.074848	0.089909
	H118	H	0.622904	0.902205	0.089529
	H119	H	0.390118	0.888216	0.897137
	C120	C	0.390428	-0.003876	0.621931
	C121	C	0.633205	0.978677	0.623219
	C122	C	0.630683	-0.005162	0.380945
	C123	C	0.389085	0.978101	0.379790
	C124	C	0.630909	0.366934	0.009599
	C125	C	0.631794	0.608511	0.993030
	C126	C	0.388444	0.608530	0.009100
	C127	C	0.388310	0.366412	0.992484
	C128	C	0.018259	0.609179	0.379520
	C129	C	1.001772	0.609353	0.622532
	C130	C	0.018199	0.365764	0.622078
	C131	C	1.001758	0.365307	0.378916
	C132	C	0.888865	0.495305	0.121574
	C133	C	0.132340	0.479125	0.122723
	C134	C	0.131261	0.495869	0.879945
	C135	C	0.887525	0.478964	0.878754
	C136	C	0.132827	0.865760	0.510124
	C137	C	0.132095	0.107506	0.493282
	C138	C	0.888893	0.108297	0.508843
	C139	C	0.888999	0.866384	0.493137
	C140	C	0.518694	0.107931	0.880201
	C141	C	0.502672	0.109385	0.123579
	C142	C	0.518606	0.866209	0.121387
	C143	C	0.501693	0.864203	0.877720
	C144	C	0.391730	0.873770	0.677617
	C145	C	0.632723	0.099854	0.682051
	C146	C	0.631534	0.873454	0.322171
	C147	C	0.388863	0.099680	0.321917
	C148	C	0.688258	0.365840	0.887992
	C149	C	0.690702	0.610619	0.113993
	C150	C	0.330671	0.607483	0.887530
	C151	C	0.331333	0.366532	0.114313
	C152	C	0.898044	0.668135	0.377914
	C153	C	0.123056	0.666104	0.622405
	C154	C	0.896868	0.308834	0.620517
	C155	C	0.122433	0.306921	0.378725
	C156	C	0.896753	0.367139	0.678470
	C157	C	0.122905	0.608343	0.680562
	C158	C	0.897682	0.609705	0.320585
	C159	C	0.122635	0.365562	0.321476
	C160	C	0.389243	0.664497	0.886966
	C161	C	0.631201	0.666593	0.114566
	C162	C	0.629467	0.309081	0.887513
	C163	C	0.389064	0.309183	0.114393
	C164	C	0.689117	0.873625	0.379611
	C165	C	0.690225	0.100388	0.623859
	C166	C	0.332052	0.875091	0.623505
	C167	C	0.331163	0.099423	0.379673
	C168	C	0.887686	0.374981	0.180572
	C169	C	0.133061	0.600079	0.182061
	C170	C	0.132091	0.374850	0.820743
	C171	C	0.886756	0.600041	0.820163
	C172	C	0.193201	0.861730	0.390570
	C173	C	0.191231	0.110158	0.613946
	C174	C	0.828556	0.110040	0.388472
	C175	C	0.830275	0.865157	0.613504
	C176	C	0.398446	0.166694	0.878350
	C177	C	0.622446	0.168749	0.125456
	C178	C	0.398294	0.807746	0.121233
	C179	C	0.621651	0.804628	0.876725
	C180	C	0.398822	0.864237	0.180330
	C181	C	0.622849	0.110264	0.183303
	C182	C	0.398414	0.108107	0.821288
	C183	C	0.622199	0.862725	0.819583
	C184	C	0.887135	0.166565	0.387554
	C185	C	0.132554	0.166884	0.613839
	C186	C	0.133616	0.805894	0.389760
	C187	C	0.888624	0.808138	0.614118
	C188	C	0.190514	0.375232	0.877746
	C189	C	0.190824	0.600070	0.124531
	C190	C	0.829044	0.375206	0.123978
	C191	C	0.827534	0.599254	0.875973
	C192	C	0.413489	0.081038	0.598751
	C193	C	0.609518	0.893965	0.598540
	C194	C	0.606159	0.078937	0.405955
	C195	C	0.413294	0.893675	0.403701
	C196	C	0.607299	0.391625	0.093872
	C197	C	0.606894	0.583037	0.908803
	C198	C	0.412174	0.585591	0.094143
	C199	C	0.411466	0.389942	0.908026
	C200	C	0.101752	0.584474	0.404206
	C201	C	0.917770	0.585794	0.598346
	C202	C	0.102528	0.388988	0.599270
	C203	C	0.917858	0.389195	0.402713
	C204	C	0.913605	0.579320	0.096513
	C205	C	0.108380	0.394674	0.097864
	C206	C	0.106972	0.580182	0.904887
	C207	C	0.911943	0.394767	0.903381
	C208	C	0.108407	0.891150	0.594262
	C209	C	0.108196	0.082457	0.408897
	C210	C	0.913287	0.084442	0.593252
	C211	C	0.913064	0.890913	0.408659
	C212	C	0.602450	0.084059	0.904972
	C213	C	0.418855	0.084908	0.098650
	C214	C	0.602262	0.890936	0.097295
	C215	C	0.417481	0.888086	0.900938
	Zn216	Zn	0.510460	-0.013368	0.750471
	Zn217	Zn	0.510992	-0.013621	0.251293
	Zn218	Zn	0.760258	0.487566	0.000960
	Zn219	Zn	0.259654	0.487611	0.001273
	Zn220	Zn	0.010193	0.738064	0.501221
	Zn221	Zn	0.009929	0.236261	0.500321
	Zn222	Zn	0.010084	0.487542	0.751694
	Zn223	Zn	0.010095	0.487513	0.250397
	Zn224	Zn	0.510155	0.736987	0.000336
	Zn225	Zn	0.510077	0.237821	0.001248
	Zn226	Zn	0.760240	-0.012511	0.500645
	Zn227	Zn	0.261663	-0.012963	0.502341
	N228	N	0.427538	0.949881	0.676799
	N229	N	0.598291	0.023027	0.681997
	N230	N	0.595526	0.949572	0.323399
	N231	N	0.424051	0.023038	0.321706
	N232	N	0.689231	0.400995	0.964690
	N233	N	0.691112	0.575624	0.037258
	N234	N	0.330205	0.573588	0.964531
	N235	N	0.330606	0.401151	0.037548
	N236	N	0.973985	0.667916	0.413814
	N237	N	0.046731	0.666892	0.587287
	N238	N	0.973285	0.307809	0.586397
	N239	N	0.046125	0.306480	0.413338
	N240	N	0.973202	0.401591	0.679706
	N241	N	0.046385	0.574074	0.680919
	N242	N	0.973376	0.573721	0.321460
	N243	N	0.046627	0.401046	0.321374
	N244	N	0.424333	0.665413	0.963704
	N245	N	0.595539	0.665601	0.038100
	N246	N	0.594736	0.309499	0.964127
	N247	N	0.423773	0.308733	0.037744
	N248	N	0.688685	0.950135	0.415467
	N249	N	0.690751	0.023764	0.588557
	N250	N	0.331174	0.952103	0.589473
	N251	N	0.330907	0.022830	0.414525
	N252	N	0.924242	0.450680	0.179080
	N253	N	0.097519	0.523718	0.181295
	N254	N	0.095665	0.450809	0.822209
	N255	N	0.923313	0.524235	0.821614
	N256	N	0.192567	0.898605	0.466506
	N257	N	0.190900	0.073819	0.537773
	N258	N	0.829531	0.074432	0.464758
	N259	N	0.830579	0.900761	0.537305
	N260	N	0.474272	0.166892	0.914150
	N261	N	0.546599	0.168439	0.089294
	N262	N	0.473861	0.809023	0.085138
	N263	N	0.545844	0.805356	0.912173
	N264	N	0.474547	0.899840	0.180442
	N265	N	0.547210	0.074136	0.182180
	N266	N	0.474235	0.072209	0.822228
	N267	N	0.546647	0.899088	0.820092
	N268	N	0.923921	0.165583	0.463373
	N269	N	0.096361	0.165407	0.537791
	N270	N	0.096807	0.808361	0.465117
	N271	N	0.924337	0.808923	0.537988
	N272	N	0.190014	0.451470	0.913847
	N273	N	0.190518	0.523805	0.088435
	N274	N	0.829661	0.451467	0.088134
	N275	N	0.828020	0.522925	0.911822
	O276	O	0.433972	0.522098	0.425937
	H277	H	0.441512	0.525825	0.434230
	H278	H	0.444036	0.519461	0.435994
	O279	O	0.416040	0.401150	0.415970
	H280	H	0.402699	0.389406	0.417739
	H281	H	0.412347	0.405701	0.426665
	O282	O	1.125535	-0.195480	0.814843
	H283	H	1.148432	-0.183144	0.811820
	H284	H	1.135620	-0.208428	0.828619
	O285	O	0.957876	0.824196	0.932511
	H286	H	0.977660	0.832078	0.946305
	H287	H	0.966961	0.815338	0.918125
	O288	O	0.822769	1.158914	0.832422
	H289	H	0.817932	1.135122	0.845783
	H290	H	0.817576	1.151179	0.825940
	O291	O	0.062951	0.797856	0.018089
	H292	H	0.075201	0.802295	0.027725
	H293	H	0.049859	0.792266	0.041599
	O294	O	0.178969	1.130826	0.993407
	H295	H	0.181824	1.144343	0.986020
	H296	H	0.160279	1.113934	0.972641
	O297	O	0.537290	0.523600	0.637666
	H298	H	0.530653	0.516411	0.635932
	H299	H	0.541218	0.539541	0.639748
	O300	O	1.200599	-0.088526	0.000993
	H301	H	1.187333	-0.091034	0.013805
	H302	H	1.203697	-0.076744	0.005355
	O303	O	-0.038613	0.825521	1.191303
	H304	H	-0.035044	0.845890	1.195669
	H305	H	-0.048219	0.831661	1.208276
	O306	O	0.546135	0.470618	0.441691
	H307	H	0.559281	0.470912	0.438769
	H308	H	0.555008	0.469349	0.445618
	O309	O	0.468639	0.472586	0.510925
	H310	H	0.464975	0.483199	0.514860
	H311	H	0.477978	0.475769	0.510205
	O312	O	0.093102	0.022680	0.007369
	H313	H	0.088052	0.038568	-0.002516
	H314	H	0.107228	0.033158	0.016161
	O315	O	0.675776	1.521069	-0.528817
	H316	H	0.673875	1.513016	-0.535852
	H317	H	0.668074	1.520506	-0.535490
	O318	O	-0.125824	0.881309	0.923702
	H319	H	-0.114330	0.862229	0.915908
	H320	H	-0.125200	0.875585	0.934130
	O321	O	1.151230	-0.016737	1.172618
	H322	H	1.174153	-0.011284	1.190006
	H323	H	1.153803	0.000986	1.152745
	O324	O	0.624634	0.479996	-0.581346
	H325	H	0.634528	0.467357	-0.576318
	H326	H	0.641580	0.478089	-0.604136
	O327	O	0.567458	0.591510	0.566115
	H328	H	0.586029	0.594887	0.559604
	H329	H	0.572605	0.595297	0.567893
	O330	O	0.123070	0.191614	1.204996
	H331	H	0.108282	0.189327	1.212424
	H332	H	0.133777	0.199601	1.196859
	O333	O	-0.189402	0.192553	0.977391
	H334	H	-0.190064	0.211898	0.985544
	H335	H	-0.185380	0.194651	0.964796
	O336	O	0.485166	0.458440	0.526846
	H337	H	0.464904	0.457622	0.533473
	H338	H	0.483091	0.475002	0.513160
	O339	O	0.963747	0.199507	-0.203325
	H340	H	0.965327	0.223289	-0.225413
	H341	H	0.925703	0.193865	-0.193141
	O342	O	0.042518	-0.146884	-0.188707
	H343	H	0.057979	-0.154875	-0.190434
	H344	H	0.040080	-0.160721	-0.201627
	O345	O	0.482720	-0.588188	1.622743
	H346	H	0.478938	-0.586149	1.620214
	H347	H	0.487323	-0.577461	1.620296
	O348	O	0.800211	0.814102	-0.001069
	H349	H	0.806200	0.790039	-0.001152
	H350	H	0.800709	0.805619	0.019302
	O351	O	0.410913	0.564775	0.579752
	H352	H	0.419349	0.565013	0.575309
	H353	H	0.408202	0.578973	0.575907
	O354	O	0.837582	-0.123013	1.174487
	H355	H	0.834625	-0.084657	1.179568
	H356	H	0.847703	-0.132839	1.154386
	O357	O	0.080566	-0.021835	0.808615
	H358	H	0.080118	-0.027171	0.793183
	H359	H	0.070359	-0.024082	0.804400
	O360	O	0.578122	0.557121	0.437187
	H361	H	0.571307	0.540898	0.425478
	H362	H	0.593940	0.541695	0.443490
	O363	O	0.108521	1.049337	0.960835
	H364	H	0.094338	1.084889	0.948337
	H365	H	0.107961	1.040935	0.969168
	O366	O	0.630702	0.456734	0.425597
	H367	H	0.641424	0.438608	0.445464
	H368	H	0.620171	0.460827	0.433001
	O369	O	0.199883	1.173514	0.096222
	H370	H	0.216672	1.189070	0.066417
	H371	H	0.174937	1.164975	0.088916
	O372	O	0.005486	1.083636	0.099605
	H373	H	0.016902	1.096293	0.114199
	H374	H	0.015957	1.080627	0.086711
	O375	O	-0.017196	-0.041998	1.199026
	H376	H	-0.022431	-0.046268	1.208298
	H377	H	-0.016128	-0.035347	1.197360
	O378	O	0.451039	0.631259	0.448959
	H379	H	0.457989	0.632062	0.447492
	H380	H	0.454302	0.639419	0.440697
	O381	O	1.065602	-0.171374	0.129163
	H382	H	1.075338	-0.163817	0.146349
	H383	H	1.052458	-0.159822	0.127709
	O384	O	0.888476	0.974908	0.064838
	H385	H	0.877582	0.970425	0.060981
	H386	H	0.886755	0.976566	0.046179
	O387	O	0.169780	-0.018212	-0.139435
	H388	H	0.166414	-0.020100	-0.130864
	H389	H	0.158197	-0.021572	-0.132136
	O390	O	0.022669	1.144763	0.016058
	H391	H	0.016284	1.132652	0.006960
	H392	H	0.027219	1.149732	0.021178
	O393	O	1.095337	1.045668	0.941657
	H394	H	1.086198	1.038004	0.942192
	H395	H	1.098647	1.041478	0.946029
	O396	O	0.477288	0.520028	0.609422
	H397	H	0.477714	0.530121	0.609036
	H398	H	0.488370	0.531715	0.620942
	O399	O	-0.117109	1.024256	1.167222
	H400	H	-0.120162	1.019753	1.171068
	H401	H	-0.111312	1.031319	1.147996
	O402	O	-0.199754	1.016142	-0.190166
	H403	H	-0.217775	1.017778	-0.212124
	H404	H	-0.206993	0.987162	-0.160519
	O405	O	1.514953	1.456956	0.546230
	H406	H	1.500271	1.457188	0.545152
	H407	H	1.510657	1.466400	0.549393
	O408	O	0.389136	1.598386	-0.513418
	H409	H	0.388828	1.609913	-0.520226
	H410	H	0.384802	1.598164	-0.527245
	O411	O	0.618302	-0.626589	0.477155
	H412	H	0.599618	-0.627402	0.486408
	H413	H	0.607018	-0.627794	0.477558
	O414	O	0.515457	0.326337	0.537806
	H415	H	0.512161	0.318774	0.544422
	H416	H	0.500174	0.327542	0.544263
	O417	O	0.472694	0.420340	0.389971
	H418	H	0.467792	0.427067	0.394176
	H419	H	0.464481	0.411102	0.389410
