data_Molecule from HDF5

_cell_length_a		16.710139
_cell_length_b		16.617614
_cell_length_c		16.583192
_cell_angle_alpha	89.980010
_cell_angle_beta	89.972469
_cell_angle_gamma	89.817200
_symmetry_space_group_name_H-M	'P 1'
_symmetry_Int_Tables_number		1

loop_
	_symmetry_equiv_pos_as_xyz
	x,y,z

loop_
	_atom_site_label
	_atom_site_type_symbol
	_atom_site_fract_x
	_atom_site_fract_y
	_atom_site_fract_z
	H0	H	0.389014	0.849891	0.720981
	H1	H	0.595566	0.163050	0.721027
	H2	H	0.599388	0.852486	0.278562
	H3	H	0.390222	0.163736	0.283556
	H4	H	0.711396	0.402749	0.844629
	H5	H	0.712653	0.611323	0.157088
	H6	H	0.265508	0.616859	0.849191
	H7	H	0.271452	0.401602	0.156703
	H8	H	0.837201	0.728395	0.397372
	H9	H	0.146203	0.729728	0.608916
	H10	H	0.843923	0.277276	0.615930
	H11	H	0.145245	0.282622	0.393909
	H12	H	0.841707	0.397110	0.727602
	H13	H	0.146000	0.613095	0.725112
	H14	H	0.836070	0.610789	0.282616
	H15	H	0.144478	0.398641	0.276795
	H16	H	0.383011	0.731586	0.847810
	H17	H	0.597281	0.728452	0.156804
	H18	H	0.593956	0.289495	0.843482
	H19	H	0.388436	0.286486	0.157434
	H20	H	0.717480	0.852959	0.392691
	H21	H	0.715767	0.160672	0.608741
	H22	H	0.272333	0.851017	0.605851
	H23	H	0.270706	0.162208	0.395498
	H24	H	0.887311	0.350587	0.222430
	H25	H	0.097001	0.661131	0.224933
	H26	H	0.102506	0.354220	0.775988
	H27	H	0.885159	0.660809	0.779888
	H28	H	0.211842	0.903210	0.344278
	H29	H	0.220254	0.118392	0.652144
	H30	H	0.766022	0.118326	0.349210
	H31	H	0.769028	0.898458	0.655438
	H32	H	0.336832	0.227027	0.898028
	H33	H	0.648812	0.226089	0.104760
	H34	H	0.341346	0.779683	0.114205
	H35	H	0.645604	0.782008	0.893888
	H36	H	0.339075	0.898870	0.226848
	H37	H	0.647765	0.111423	0.223114
	H38	H	0.336523	0.109534	0.782106
	H39	H	0.645930	0.897719	0.777334
	H40	H	0.881665	0.234013	0.349766
	H41	H	0.104804	0.233816	0.652557
	H42	H	0.094937	0.788078	0.343811
	H43	H	0.885817	0.784089	0.656393
	H44	H	0.217162	0.353616	0.892412
	H45	H	0.219123	0.657229	0.115524
	H46	H	0.770712	0.351052	0.106881
	H47	H	0.767875	0.660087	0.893687
	H48	H	0.404350	0.117274	0.587294
	H49	H	0.580311	0.897449	0.582441
	H50	H	0.583344	0.115738	0.421146
	H51	H	0.402582	0.896153	0.418016
	H52	H	0.585334	0.414638	0.115493
	H53	H	0.583430	0.589985	0.890151
	H54	H	0.408441	0.595340	0.110588
	H55	H	0.402585	0.414266	0.886601
	H56	H	0.105450	0.593987	0.406434
	H57	H	0.882228	0.595904	0.590645
	H58	H	0.102473	0.418714	0.585833
	H59	H	0.883055	0.421498	0.416925
	H60	H	0.099983	0.422915	0.584028
	H61	H	0.881697	0.595801	0.588982
	H62	H	0.105390	0.602320	0.412621
	H63	H	0.880175	0.420106	0.408502
	H64	H	0.403575	0.593313	0.113214
	H65	H	0.575573	0.592626	0.892465
	H66	H	0.582992	0.418773	0.113747
	H67	H	0.399630	0.421345	0.889244
	H68	H	0.584281	0.120838	0.409391
	H69	H	0.585989	0.893985	0.590557
	H70	H	0.399874	0.119497	0.590300
	H71	H	0.398895	0.892799	0.410495
	H72	H	0.899061	0.618886	0.089780
	H73	H	0.076731	0.394807	0.094516
	H74	H	0.078298	0.618878	0.909560
	H75	H	0.902847	0.394105	0.912808
	H76	H	0.083012	0.914864	0.614685
	H77	H	0.076292	0.092595	0.391676
	H78	H	0.903539	0.094374	0.613845
	H79	H	0.902616	0.921331	0.390637
	H80	H	0.606535	0.101127	0.907914
	H81	H	0.381865	0.095899	0.092142
	H82	H	0.604868	0.917910	0.094178
	H83	H	0.383855	0.920231	0.918984
	H84	H	0.601207	0.915313	0.082814
	H85	H	0.380799	0.098813	0.093230
	H86	H	0.603369	0.097992	0.913894
	H87	H	0.383253	0.924009	0.910757
	H88	H	0.905176	0.085391	0.609311
	H89	H	0.080271	0.095245	0.390206
	H90	H	0.084065	0.919891	0.613296
	H91	H	0.907161	0.917672	0.390541
	H92	H	0.071924	0.613270	0.918631
	H93	H	0.075761	0.399320	0.083661
	H94	H	0.899371	0.619824	0.093389
	H95	H	0.906221	0.395674	0.913942
	H96	H	0.405314	0.118834	0.592459
	H97	H	0.576046	0.896729	0.591255
	H98	H	0.573165	0.115559	0.412925
	H99	H	0.407370	0.894982	0.410295
	H100	H	0.580903	0.414325	0.114766
	H101	H	0.580511	0.597909	0.887410
	H102	H	0.406882	0.589435	0.110307
	H103	H	0.406958	0.419682	0.890888
	H104	H	0.101355	0.594049	0.416062
	H105	H	0.882986	0.594483	0.589520
	H106	H	0.101768	0.422535	0.588726
	H107	H	0.879249	0.413840	0.414719
	H108	H	0.902335	0.617837	0.091249
	H109	H	0.086314	0.394292	0.087434
	H110	H	0.083593	0.617247	0.920526
	H111	H	0.902951	0.395988	0.916360
	H112	H	0.079870	0.917967	0.611756
	H113	H	0.080361	0.090404	0.390323
	H114	H	0.912245	0.092848	0.609408
	H115	H	0.902145	0.916247	0.388045
	H116	H	0.604489	0.094028	0.907383
	H117	H	0.382603	0.098236	0.090237
	H118	H	0.598089	0.926086	0.087480
	H119	H	0.380869	0.915369	0.911779
	C120	C	0.370779	0.015502	0.622434
	C121	C	0.613460	0.998368	0.621619
	C122	C	0.614159	0.015383	0.380467
	C123	C	0.371691	0.998144	0.380682
	C124	C	0.613501	0.385197	0.010237
	C125	C	0.612366	0.626712	0.992912
	C126	C	0.371011	0.627807	0.010176
	C127	C	0.371072	0.385769	0.992344
	C128	C	0.000954	0.628123	0.380130
	C129	C	0.983778	0.628761	0.623606
	C130	C	0.001800	0.385635	0.622622
	C131	C	0.982814	0.385028	0.380075
	C132	C	0.869231	0.515428	0.123228
	C133	C	0.112782	0.497881	0.123033
	C134	C	0.112910	0.515254	0.881416
	C135	C	0.871007	0.497454	0.880847
	C136	C	0.113865	0.885476	0.509759
	C137	C	0.113609	0.127136	0.492126
	C138	C	0.871680	0.127660	0.510209
	C139	C	0.871120	0.885416	0.492514
	C140	C	0.501256	0.128347	0.879363
	C141	C	0.484444	0.128834	0.123234
	C142	C	0.500449	0.885746	0.122892
	C143	C	0.484024	0.885767	0.880334
	C144	C	0.369888	0.897392	0.681626
	C145	C	0.615078	0.115807	0.681874
	C146	C	0.617856	0.898747	0.318984
	C147	C	0.370592	0.116332	0.321996
	C148	C	0.672195	0.383792	0.891866
	C149	C	0.672814	0.629720	0.110207
	C150	C	0.306991	0.633903	0.895181
	C151	C	0.311567	0.383325	0.109895
	C152	C	0.883624	0.687728	0.378980
	C153	C	0.099660	0.689511	0.627071
	C154	C	0.888896	0.320282	0.630953
	C155	C	0.098865	0.323322	0.375682
	C156	C	0.887802	0.379577	0.686915
	C157	C	0.099648	0.631622	0.684766
	C158	C	0.883126	0.629253	0.321909
	C159	C	0.098345	0.380974	0.317692
	C160	C	0.365578	0.690716	0.894362
	C161	C	0.615329	0.687650	0.110057
	C162	C	0.613751	0.327544	0.891379
	C163	C	0.369781	0.326202	0.110259
	C164	C	0.676367	0.899277	0.375757
	C165	C	0.674343	0.114880	0.625713
	C166	C	0.311788	0.897956	0.624362
	C167	C	0.311673	0.115669	0.378138
	C168	C	0.868576	0.397634	0.182560
	C169	C	0.115838	0.614100	0.185084
	C170	C	0.118904	0.400221	0.817842
	C171	C	0.867157	0.613877	0.819735
	C172	C	0.172338	0.884247	0.391432
	C173	C	0.178208	0.134245	0.606515
	C174	C	0.807903	0.134474	0.395291
	C175	C	0.809920	0.881489	0.609169
	C176	C	0.383514	0.186838	0.879441
	C177	C	0.601925	0.187121	0.123929
	C178	C	0.386424	0.822252	0.129666
	C179	C	0.599305	0.823104	0.876495
	C180	C	0.385529	0.881652	0.185841
	C181	C	0.601254	0.130095	0.182669
	C182	C	0.383296	0.128780	0.821619
	C183	C	0.599700	0.880825	0.818496
	C184	C	0.865191	0.192271	0.395662
	C185	C	0.120490	0.191567	0.606826
	C186	C	0.114380	0.826953	0.391435
	C187	C	0.868174	0.824436	0.609297
	C188	C	0.176130	0.399971	0.875785
	C189	C	0.176107	0.612538	0.130306
	C190	C	0.810437	0.397828	0.125331
	C191	C	0.808699	0.613398	0.876449
	C192	C	0.395978	0.097102	0.597332
	C193	C	0.588061	0.917299	0.595278
	C194	C	0.587664	0.096221	0.406897
	C195	C	0.396127	0.916115	0.405648
	C196	C	0.589776	0.409054	0.093004
	C197	C	0.586988	0.600974	0.911461
	C198	C	0.398460	0.600356	0.090659
	C199	C	0.395779	0.411231	0.910440
	C200	C	0.082746	0.603816	0.404698
	C201	C	0.903255	0.602654	0.597156
	C202	C	0.080906	0.413469	0.594277
	C203	C	0.901998	0.410859	0.406248
	C204	C	0.893226	0.597551	0.098499
	C205	C	0.087006	0.417004	0.096124
	C206	C	0.085734	0.595612	0.908633
	C207	C	0.896804	0.416268	0.906940
	C208	C	0.089351	0.910561	0.591753
	C209	C	0.086442	0.100231	0.411568
	C210	C	0.899295	0.099080	0.590043
	C211	C	0.896607	0.911335	0.411034
	C212	C	0.583393	0.104460	0.902668
	C213	C	0.402876	0.104635	0.098842
	C214	C	0.580636	0.912075	0.095875
	C215	C	0.403424	0.912397	0.906369
	Zn216	Zn	0.492631	0.006564	0.750477
	Zn217	Zn	0.492973	0.006931	0.252381
	Zn218	Zn	0.741473	0.505882	0.001162
	Zn219	Zn	0.242018	0.507356	0.002226
	Zn220	Zn	-0.007140	0.757009	0.501168
	Zn221	Zn	-0.007301	0.256154	0.501750
	Zn222	Zn	-0.007520	0.507003	0.751897
	Zn223	Zn	-0.008910	0.506653	0.251594
	Zn224	Zn	0.491889	0.755965	0.001315
	Zn225	Zn	0.492826	0.257249	0.001169
	Zn226	Zn	0.742896	0.006635	0.501023
	Zn227	Zn	0.242785	0.006486	0.500524
	N228	N	0.405454	0.971803	0.681167
	N229	N	0.577882	0.042301	0.679576
	N230	N	0.579794	0.971972	0.321680
	N231	N	0.407035	0.042134	0.323057
	N232	N	0.672540	0.418811	0.966945
	N233	N	0.671374	0.592591	0.036260
	N234	N	0.310310	0.595463	0.968413
	N235	N	0.311880	0.419517	0.035549
	N236	N	0.958016	0.687351	0.414336
	N237	N	0.026456	0.688090	0.589836
	N238	N	0.960771	0.323847	0.591433
	N239	N	0.025815	0.325390	0.413584
	N240	N	0.958990	0.419680	0.681838
	N241	N	0.026388	0.594605	0.682703
	N242	N	0.957000	0.592984	0.322373
	N243	N	0.025224	0.418520	0.320272
	N244	N	0.404460	0.687130	0.967152
	N245	N	0.578636	0.686076	0.035987
	N246	N	0.578343	0.327830	0.966129
	N247	N	0.405911	0.327282	0.035796
	N248	N	0.674301	0.972985	0.413032
	N249	N	0.673495	0.040880	0.588975
	N250	N	0.311670	0.972633	0.588689
	N251	N	0.311923	0.041015	0.413607
	N252	N	0.904529	0.471856	0.181477
	N253	N	0.077110	0.541543	0.180931
	N254	N	0.080108	0.472968	0.821309
	N255	N	0.905447	0.540657	0.822266
	N256	N	0.172445	0.919899	0.466185
	N257	N	0.174035	0.094509	0.534138
	N258	N	0.811829	0.094672	0.467626
	N259	N	0.811540	0.918754	0.535275
	N260	N	0.457866	0.186861	0.914492
	N261	N	0.528069	0.186790	0.087781
	N262	N	0.458779	0.824873	0.090599
	N263	N	0.526254	0.826098	0.914408
	N264	N	0.457633	0.920486	0.181762
	N265	N	0.527207	0.094756	0.182560
	N266	N	0.457525	0.093132	0.821360
	N267	N	0.527071	0.919418	0.820793
	N268	N	0.904222	0.188169	0.468188
	N269	N	0.080848	0.187226	0.534673
	N270	N	0.079050	0.827271	0.466225
	N271	N	0.905752	0.826908	0.535796
	N272	N	0.172640	0.472747	0.914750
	N273	N	0.174332	0.539164	0.092317
	N274	N	0.810669	0.472110	0.089111
	N275	N	0.810988	0.539921	0.913963
	O276	O	0.297357	1.317289	0.310688
	H277	H	0.316354	1.345043	0.318586
	H278	H	0.313795	1.325966	0.342260
	O279	O	0.036119	-0.222436	0.050500
	H280	H	0.052233	-0.227364	0.059393
	H281	H	0.038857	-0.224245	0.058069
	O282	O	0.782053	0.093572	1.022437
	H283	H	0.776767	0.105140	1.043211
	H284	H	0.785476	0.096481	1.018738
	O285	O	0.315790	0.418258	0.423749
	H286	H	0.330767	0.417680	0.424127
	H287	H	0.321556	0.421390	0.427867
	O288	O	0.981376	0.898531	0.077239
	H289	H	0.979949	0.874877	0.082560
	H290	H	0.987327	0.899230	0.070982
	O291	O	0.268412	0.529645	0.298842
	H292	H	0.262644	0.540646	0.286413
	H293	H	0.275235	0.531392	0.292963
	O294	O	0.758909	-0.056167	0.939958
	H295	H	0.757869	-0.047541	0.958342
	H296	H	0.761800	-0.050652	0.939927
	O297	O	1.063285	0.116707	0.072592
	H298	H	1.069376	0.113444	0.059518
	H299	H	1.071925	0.104627	0.078829
	O300	O	0.216451	0.231347	1.036253
	H301	H	0.231312	0.256975	1.039100
	H302	H	0.220086	0.233840	1.050147
	O303	O	0.493978	0.724829	0.323842
	H304	H	0.472966	0.738757	0.331924
	H305	H	0.472154	0.723476	0.312721
	O306	O	0.523792	0.285513	0.275534
	H307	H	0.549797	0.278717	0.274788
	H308	H	0.527229	0.265339	0.262815
	O309	O	0.456002	0.290831	0.480706
	H310	H	0.457621	0.290135	0.482633
	H311	H	0.464439	0.303570	0.477488
	O312	O	0.279539	0.720759	0.293477
	H313	H	0.277624	0.701672	0.280146
	H314	H	0.258682	0.740211	0.292841
	O315	O	0.955841	0.968337	0.774908
	H316	H	0.952588	0.968850	0.774010
	H317	H	0.964311	0.981033	0.772584
	O318	O	0.708780	0.723079	0.533850
	H319	H	0.711405	0.734611	0.544602
	H320	H	0.713912	0.734349	0.554587
	O321	O	0.590352	0.566018	0.636751
	H322	H	0.605963	0.560776	0.648552
	H323	H	0.581257	0.557567	0.621992
	O324	O	0.941480	0.784087	-0.069317
	H325	H	0.943874	0.790376	-0.064941
	H326	H	0.952192	0.781910	-0.067852
	O327	O	-0.015454	0.017730	1.234506
	H328	H	-0.011213	0.020358	1.234636
	H329	H	0.000249	0.021391	1.238276
	O330	O	0.719603	0.572309	0.448199
	H331	H	0.719725	0.575784	0.430485
	H332	H	0.717147	0.596093	0.452309
	O333	O	0.700057	0.356552	0.305064
	H334	H	0.674181	0.374159	0.311031
	H335	H	0.715991	0.346110	0.315554
	O336	O	0.682293	0.501752	0.288483
	H337	H	0.687417	0.501780	0.280603
	H338	H	0.688953	0.493271	0.290951
	O339	O	1.209543	-0.206342	0.779777
	H340	H	1.197514	-0.175981	0.788187
	H341	H	1.186784	-0.194324	0.805192
	O342	O	0.093535	-0.027819	0.162216
	H343	H	0.108407	-0.021121	0.171590
	H344	H	0.088171	-0.038825	0.146265
	O345	O	-0.271943	0.447704	1.554080
	H346	H	-0.271589	0.463942	1.530692
	H347	H	-0.271401	0.459632	1.576651
	O348	O	-0.219505	0.213768	-0.210429
	H349	H	-0.227363	0.211715	-0.170498
	H350	H	-0.243580	0.234102	-0.230737
	O351	O	1.307774	0.686144	-0.312599
	H352	H	1.319906	0.685941	-0.339805
	H353	H	1.276171	0.720752	-0.283158
	O354	O	0.021259	0.225806	1.226857
	H355	H	0.029561	0.240718	1.239118
	H356	H	0.020996	0.228379	1.227397
	O357	O	0.712670	0.294254	0.488273
	H358	H	0.725697	0.291764	0.490977
	H359	H	0.720228	0.298073	0.496894
	O360	O	-0.044405	-0.215953	1.220044
	H361	H	-0.050812	-0.237747	1.239961
	H362	H	-0.081394	-0.212879	1.220370
	O363	O	-0.223629	-0.213688	0.032413
	H364	H	-0.214778	-0.210668	0.014957
	H365	H	-0.236075	-0.236623	0.034851
	O366	O	0.421604	0.555008	0.725474
	H367	H	0.410392	0.583233	0.722401
	H368	H	0.428599	0.569043	0.722761
	O369	O	0.454067	0.283293	0.721763
	H370	H	0.435453	0.263616	0.736927
	H371	H	0.443868	0.276894	0.725026
	O372	O	0.931598	0.970382	0.002736
	H373	H	0.915978	0.959200	0.014930
	H374	H	0.925618	0.969752	-0.007953
	O375	O	1.046399	0.057987	-0.208837
	H376	H	1.033616	0.068871	-0.208712
	H377	H	1.054620	0.060211	-0.211630
	O378	O	0.682354	0.692952	0.313317
	H379	H	0.661548	0.685948	0.336553
	H380	H	0.677929	0.698059	0.305872
	O381	O	-0.223393	0.976689	1.220121
	H382	H	-0.231175	0.973296	1.225924
	H383	H	-0.221553	0.977016	1.233469
	O384	O	0.982176	0.224014	0.777992
	H385	H	0.951583	0.224174	0.777568
	H386	H	0.961518	0.241842	0.761134
	O387	O	1.217581	1.039674	0.219101
	H388	H	1.233028	1.061946	0.239257
	H389	H	1.221425	1.066940	0.228071
	O390	O	0.785680	0.801902	0.205735
	H391	H	0.769061	0.800799	0.221350
	H392	H	0.780441	0.813414	0.167459
	O393	O	0.415727	0.472807	0.584123
	H394	H	0.419301	0.485629	0.586920
	H395	H	0.413078	0.471658	0.588893
	O396	O	0.227760	0.979853	1.035255
	H397	H	0.229994	0.995304	1.054261
	H398	H	0.230975	0.977766	1.035825
	O399	O	-0.222040	0.027561	0.779815
	H400	H	-0.225905	0.045231	0.774282
	H401	H	-0.241702	0.030298	0.780627
	O402	O	0.194577	0.205729	0.801786
	H403	H	0.182861	0.200915	0.816842
	H404	H	0.187948	0.197604	0.795090
	O405	O	1.204096	0.097347	0.930227
	H406	H	1.204725	0.096807	0.929995
	H407	H	1.205999	0.114275	0.941991
	O408	O	-0.071880	0.231610	0.057660
	H409	H	-0.060368	0.227282	0.054238
	H410	H	-0.049179	0.218239	0.070873
	O411	O	0.919674	1.096067	1.002154
	H412	H	0.906330	1.091224	0.989321
	H413	H	0.926190	1.096143	1.012276
	O414	O	0.441007	0.452681	0.279540
	H415	H	0.447553	0.453325	0.279396
	H416	H	0.460402	0.450404	0.279969
	O417	O	0.439447	0.669298	0.572210
	H418	H	0.434541	0.657738	0.565547
	H419	H	0.424931	0.676266	0.557986
	O420	O	0.281534	0.297114	0.519744
	H421	H	0.274422	0.277117	0.520153
	H422	H	0.288964	0.309871	0.531474
	O423	O	-0.078576	-0.010049	1.088711
	H424	H	-0.088684	-0.000262	1.094211
	H425	H	-0.080745	-0.010745	1.091513
	O426	O	0.465123	0.536488	0.517349
	H427	H	0.473525	0.545737	0.520617
	H428	H	0.477968	0.548049	0.513408
	O429	O	1.201631	0.777526	0.977961
	H430	H	1.230408	0.764411	0.969581
	H431	H	1.203235	0.789287	0.957656
	O432	O	0.792782	0.198869	0.198724
	H433	H	0.784907	0.210981	0.213553
	H434	H	0.814146	0.184200	0.187731
	O435	O	0.270181	0.731509	0.469406
	H436	H	0.248615	0.744456	0.446890
	H437	H	0.250542	0.717219	0.476559
	O438	O	0.523352	-0.541689	0.590029
	H439	H	0.514708	-0.544706	0.589128
	H440	H	0.507703	-0.549844	0.598040
	O441	O	-0.222873	0.221658	-0.008272
	H442	H	-0.224574	0.232263	-0.000410
	H443	H	-0.205275	0.236402	0.005845
	O444	O	0.319477	0.512542	0.548513
	H445	H	0.311555	0.516707	0.564326
	H446	H	0.317732	0.489181	0.556480
	O447	O	0.213890	0.982843	0.768290
	H448	H	0.221154	0.988473	0.743873
	H449	H	0.227550	0.979631	0.778626
	O450	O	-0.295323	0.714470	0.708007
	H451	H	-0.274828	0.716678	0.732351
	H452	H	-0.298342	0.719323	0.713775
	O453	O	0.286419	0.307525	0.697542
	H454	H	0.274685	0.285875	0.709439
	H455	H	0.283691	0.338622	0.687678
	O456	O	-0.197295	-0.185571	0.814290
	H457	H	-0.173531	-0.177075	0.835297
	H458	H	-0.188809	-0.157675	0.831835
	O459	O	1.142406	0.880953	-0.093848
	H460	H	1.128943	0.906279	-0.079721
	H461	H	1.142246	0.889212	-0.076015
	O462	O	0.526515	0.718744	0.712410
	H463	H	0.533235	0.733188	0.729714
	H464	H	0.536829	0.719609	0.697868
	O465	O	1.181279	-0.179606	0.181733
	H466	H	1.154874	-0.163527	0.171588
	H467	H	1.179890	-0.164278	0.157851
	O468	O	0.548657	0.463656	0.448264
	H469	H	0.543025	0.472426	0.450022
	H470	H	0.547682	0.480007	0.445153
	O471	O	0.504256	0.557154	0.292040
	H472	H	0.514082	0.558595	0.295450
	H473	H	0.503523	0.558649	0.290014
	O474	O	0.519339	0.731090	0.470026
	H475	H	0.511903	0.733303	0.476028
	H476	H	0.509929	0.736413	0.477026
	O477	O	0.421209	0.651992	1.391190
	H478	H	0.427185	0.651685	1.389244
	H479	H	0.406943	0.660615	1.391452
	O480	O	0.678092	0.505495	0.709292
	H481	H	0.664269	0.507526	0.711459
	H482	H	0.685982	0.515729	0.720316
	O483	O	0.597632	0.296153	0.447969
	H484	H	0.607709	0.290727	0.466990
	H485	H	0.600199	0.325762	0.446900
	O486	O	0.685493	0.318616	0.690404
	H487	H	0.659336	0.338482	0.681751
	H488	H	0.685677	0.324197	0.671703
	O489	O	0.986937	0.998940	-0.077199
	H490	H	0.990464	1.002447	-0.083220
	H491	H	0.983927	1.017157	-0.069193
	O492	O	0.051206	0.242567	-0.055143
	H493	H	0.051588	0.248511	-0.083220
	H494	H	0.050474	0.238441	-0.045589
	O495	O	-0.005258	0.823358	0.778849
	H496	H	-0.001513	0.833726	0.785258
	H497	H	-0.004292	0.820563	0.759483
	O498	O	1.203924	1.211428	1.210260
	H499	H	1.174290	1.221087	1.191700
	H500	H	1.233113	1.247053	1.242348
	O501	O	0.278565	0.465896	0.699709
	H502	H	0.283939	0.475223	0.713569
	H503	H	0.276835	0.469563	0.714592
