data_Molecule from HDF5

_cell_length_a		16.581764
_cell_length_b		16.588680
_cell_length_c		16.584046
_cell_angle_alpha	90.073361
_cell_angle_beta	90.102655
_cell_angle_gamma	89.746423
_symmetry_space_group_name_H-M	'P 1'
_symmetry_Int_Tables_number		1

loop_
	_symmetry_equiv_pos_as_xyz
	x,y,z

loop_
	_atom_site_label
	_atom_site_type_symbol
	_atom_site_fract_x
	_atom_site_fract_y
	_atom_site_fract_z
	H0	H	0.379448	0.839584	0.713667
	H1	H	0.592468	0.150429	0.713313
	H2	H	0.590067	0.838511	0.270605
	H3	H	0.381677	0.152328	0.270545
	H4	H	0.706278	0.390338	0.832038
	H5	H	0.705745	0.596628	0.147029
	H6	H	0.262028	0.603354	0.835764
	H7	H	0.265529	0.388493	0.145116
	H8	H	0.831706	0.715935	0.385592
	H9	H	0.140678	0.719265	0.600526
	H10	H	0.828749	0.276660	0.593133
	H11	H	0.142253	0.271576	0.386227
	H12	H	0.830309	0.389860	0.711243
	H13	H	0.141205	0.602591	0.714906
	H14	H	0.831222	0.599131	0.269765
	H15	H	0.142889	0.387374	0.269096
	H16	H	0.377784	0.719608	0.835971
	H17	H	0.591249	0.714772	0.146654
	H18	H	0.591041	0.273793	0.832155
	H19	H	0.382697	0.273849	0.145666
	H20	H	0.705826	0.837629	0.387648
	H21	H	0.707055	0.151286	0.595798
	H22	H	0.261125	0.841274	0.600052
	H23	H	0.264284	0.150981	0.385925
	H24	H	0.886629	0.336502	0.207908
	H25	H	0.094117	0.648806	0.213785
	H26	H	0.095593	0.338296	0.765928
	H27	H	0.882895	0.651341	0.770254
	H28	H	0.210119	0.886608	0.335580
	H29	H	0.211294	0.103009	0.645564
	H30	H	0.766782	0.097181	0.334403
	H31	H	0.766702	0.890849	0.647639
	H32	H	0.330445	0.218851	0.882158
	H33	H	0.644188	0.212488	0.091950
	H34	H	0.330522	0.775558	0.093959
	H35	H	0.643847	0.774257	0.887613
	H36	H	0.329811	0.893285	0.209353
	H37	H	0.644374	0.096979	0.208823
	H38	H	0.329627	0.100741	0.767523
	H39	H	0.643941	0.890233	0.770485
	H40	H	0.885411	0.211725	0.333549
	H41	H	0.092070	0.216496	0.647018
	H42	H	0.095513	0.770445	0.335840
	H43	H	0.881795	0.771844	0.646440
	H44	H	0.210788	0.338086	0.882926
	H45	H	0.210227	0.648728	0.097178
	H46	H	0.769379	0.336856	0.091872
	H47	H	0.766278	0.650932	0.887119
	H48	H	0.398193	0.105802	0.577277
	H49	H	0.572783	0.885194	0.577732
	H50	H	0.576323	0.107649	0.402396
	H51	H	0.397063	0.883562	0.401126
	H52	H	0.580626	0.406215	0.101671
	H53	H	0.574064	0.588017	0.876631
	H54	H	0.399579	0.581491	0.100560
	H55	H	0.397861	0.402082	0.875271
	H56	H	0.099474	0.579274	0.398665
	H57	H	0.875853	0.581183	0.581528
	H58	H	0.098343	0.405361	0.579700
	H59	H	0.875371	0.404808	0.402512
	H60	H	0.098705	0.403475	0.577742
	H61	H	0.875054	0.586355	0.575963
	H62	H	0.101287	0.585965	0.402585
	H63	H	0.873394	0.405979	0.394618
	H64	H	0.401088	0.583003	0.099685
	H65	H	0.580014	0.583607	0.876310
	H66	H	0.574940	0.402775	0.100902
	H67	H	0.394837	0.411772	0.878708
	H68	H	0.579554	0.109015	0.399901
	H69	H	0.581123	0.882139	0.577349
	H70	H	0.403445	0.104065	0.578790
	H71	H	0.398552	0.882539	0.399620
	H72	H	0.897131	0.606218	0.081443
	H73	H	0.073665	0.384600	0.074950
	H74	H	0.065415	0.602935	0.898717
	H75	H	0.892818	0.379871	0.898682
	H76	H	0.070019	0.911234	0.597662
	H77	H	0.073904	0.086156	0.378705
	H78	H	0.892881	0.086028	0.604943
	H79	H	0.899705	0.907697	0.380896
	H80	H	0.596484	0.078373	0.898926
	H81	H	0.372773	0.091348	0.078848
	H82	H	0.598592	0.910942	0.085498
	H83	H	0.377732	0.910611	0.904478
	H84	H	0.601427	0.897838	0.082955
	H85	H	0.376920	0.081911	0.075331
	H86	H	0.599157	0.086094	0.899627
	H87	H	0.374240	0.908552	0.896239
	H88	H	0.896985	0.083416	0.602912
	H89	H	0.078493	0.080126	0.379115
	H90	H	0.071292	0.903987	0.601936
	H91	H	0.898831	0.900904	0.377653
	H92	H	0.074930	0.601241	0.911703
	H93	H	0.078663	0.381988	0.076668
	H94	H	0.896132	0.605923	0.078877
	H95	H	0.902320	0.381994	0.895173
	H96	H	0.401052	0.102906	0.573917
	H97	H	0.576716	0.881480	0.584531
	H98	H	0.576044	0.107681	0.397617
	H99	H	0.398942	0.883941	0.401188
	H100	H	0.580726	0.399497	0.103423
	H101	H	0.573607	0.581248	0.879290
	H102	H	0.399087	0.583143	0.100890
	H103	H	0.404321	0.407994	0.881123
	H104	H	0.097177	0.579599	0.406297
	H105	H	0.878344	0.579555	0.574513
	H106	H	0.097574	0.405990	0.577469
	H107	H	0.871842	0.398865	0.397869
	H108	H	0.894737	0.607593	0.081073
	H109	H	0.074194	0.382545	0.080872
	H110	H	0.080708	0.608309	0.898343
	H111	H	0.899583	0.384992	0.905074
	H112	H	0.077279	0.910082	0.602126
	H113	H	0.071394	0.079898	0.381728
	H114	H	0.897589	0.087706	0.605343
	H115	H	0.893104	0.905877	0.378294
	H116	H	0.596088	0.082758	0.906131
	H117	H	0.372628	0.083259	0.085213
	H118	H	0.597115	0.905842	0.072992
	H119	H	0.373598	0.902093	0.903214
	C120	C	0.366608	0.002184	0.610583
	C121	C	0.608696	0.986090	0.612502
	C122	C	0.608125	0.003783	0.368961
	C123	C	0.365803	0.986865	0.369182
	C124	C	0.609017	0.372128	-0.002167
	C125	C	0.607309	0.615258	0.981362
	C126	C	0.365402	0.616242	-0.001617
	C127	C	0.366497	0.374358	0.981328
	C128	C	-0.003949	0.614420	0.369959
	C129	C	0.978665	0.615594	0.611216
	C130	C	-0.004896	0.373112	0.611108
	C131	C	0.977579	0.371662	0.367859
	C132	C	0.865475	0.502737	0.111471
	C133	C	0.108564	0.485709	0.111128
	C134	C	0.108024	0.501834	0.868784
	C135	C	0.865683	0.486019	0.868204
	C136	C	0.107593	0.873859	0.498747
	C137	C	0.107424	0.115393	0.482608
	C138	C	0.864680	0.116118	0.499999
	C139	C	0.865758	0.873032	0.482343
	C140	C	0.494425	0.115919	0.868132
	C141	C	0.477925	0.116236	0.110863
	C142	C	0.495365	0.873859	0.111862
	C143	C	0.478392	0.873632	0.869111
	C144	C	0.362143	0.886239	0.672960
	C145	C	0.610239	0.103689	0.672643
	C146	C	0.608980	0.885532	0.310227
	C147	C	0.363156	0.104910	0.310048
	C148	C	0.667067	0.371428	0.879345
	C149	C	0.666254	0.615743	0.099710
	C150	C	0.303042	0.620465	0.882223
	C151	C	0.306118	0.371163	0.098515
	C152	C	0.878555	0.675399	0.367444
	C153	C	0.094631	0.677674	0.616833
	C154	C	0.876553	0.314849	0.612608
	C155	C	0.095502	0.311712	0.367075
	C156	C	0.877287	0.371540	0.671229
	C157	C	0.094887	0.619664	0.673942
	C158	C	0.878259	0.617316	0.309811
	C159	C	0.095833	0.369249	0.309041
	C160	C	0.360606	0.678398	0.882372
	C161	C	0.609502	0.674632	0.099427
	C162	C	0.609602	0.313550	0.879372
	C163	C	0.364192	0.313948	0.098721
	C164	C	0.666439	0.885108	0.368577
	C165	C	0.667572	0.104016	0.614452
	C166	C	0.303427	0.886794	0.616214
	C167	C	0.304835	0.104274	0.367358
	C168	C	0.866337	0.383997	0.169083
	C169	C	0.112031	0.602295	0.173133
	C170	C	0.113051	0.385168	0.806613
	C171	C	0.864330	0.604230	0.809860
	C172	C	0.169753	0.869133	0.382515
	C173	C	0.169784	0.119671	0.599284
	C174	C	0.806353	0.116283	0.381361
	C175	C	0.806035	0.871348	0.600406
	C176	C	0.377231	0.177844	0.864614
	C177	C	0.596831	0.173593	0.111084
	C178	C	0.377331	0.815437	0.112804
	C179	C	0.596593	0.813930	0.868240
	C180	C	0.377025	0.873580	0.170372
	C181	C	0.596775	0.116458	0.169420
	C182	C	0.376731	0.119235	0.807546
	C183	C	0.596526	0.871321	0.809888
	C184	C	0.865086	0.172976	0.380951
	C185	C	0.110446	0.176090	0.600202
	C186	C	0.112413	0.811388	0.382557
	C187	C	0.863169	0.812485	0.599881
	C188	C	0.170283	0.385032	0.865031
	C189	C	0.169735	0.602249	0.115233
	C190	C	0.808277	0.384033	0.111186
	C191	C	0.806403	0.604139	0.867851
	C192	C	0.393270	0.083242	0.583976
	C193	C	0.583930	0.904148	0.587172
	C194	C	0.584032	0.086600	0.393144
	C195	C	0.391052	0.904789	0.393631
	C196	C	0.585415	0.395864	0.080569
	C197	C	0.582815	0.591138	0.898843
	C198	C	0.392194	0.589863	0.079325
	C199	C	0.391982	0.399965	0.899595
	C200	C	0.077951	0.588890	0.395224
	C201	C	0.897542	0.589630	0.584850
	C202	C	0.076783	0.397979	0.585681
	C203	C	0.895017	0.396124	0.391650
	C204	C	0.889224	0.585211	0.087493
	C205	C	0.082721	0.404197	0.085005
	C206	C	0.081254	0.582950	0.895249
	C207	C	0.890869	0.403592	0.892708
	C208	C	0.080555	0.900913	0.579627
	C209	C	0.081758	0.089647	0.401108
	C210	C	0.888659	0.092454	0.582927
	C211	C	0.890364	0.897621	0.400452
	C212	C	0.575933	0.089908	0.894101
	C213	C	0.395432	0.092563	0.086737
	C214	C	0.577599	0.897887	0.087662
	C215	C	0.396521	0.899503	0.894032
	Zn216	Zn	0.486349	-0.005240	0.740263
	Zn217	Zn	0.486708	-0.004180	0.240022
	Zn218	Zn	0.736727	0.493895	-0.010556
	Zn219	Zn	0.237005	0.494208	-0.009933
	Zn220	Zn	-0.012061	0.744359	0.490638
	Zn221	Zn	-0.013519	0.244250	0.490613
	Zn222	Zn	-0.012966	0.493984	0.739606
	Zn223	Zn	-0.012228	0.493723	0.240063
	Zn224	Zn	0.486614	0.745001	-0.009534
	Zn225	Zn	0.486803	0.244650	-0.010852
	Zn226	Zn	0.736729	-0.005615	0.490796
	Zn227	Zn	0.236628	-0.005546	0.490647
	N228	N	0.400912	0.959108	0.669451
	N229	N	0.574420	0.029210	0.671677
	N230	N	0.573625	0.960459	0.310264
	N231	N	0.400129	0.030700	0.310831
	N232	N	0.667226	0.406867	0.954199
	N233	N	0.665209	0.579648	0.025107
	N234	N	0.305896	0.582430	0.955461
	N235	N	0.307513	0.407970	0.024462
	N236	N	0.953024	0.673999	0.403888
	N237	N	0.021515	0.675073	0.578300
	N238	N	0.950762	0.315568	0.575883
	N239	N	0.021006	0.313014	0.402908
	N240	N	0.952082	0.406915	0.670592
	N241	N	0.021831	0.581348	0.670503
	N242	N	0.952276	0.580176	0.311192
	N243	N	0.021503	0.405920	0.309451
	N244	N	0.398570	0.676132	0.955679
	N245	N	0.573532	0.674497	0.024715
	N246	N	0.574608	0.313479	0.954268
	N247	N	0.401026	0.315804	0.024725
	N248	N	0.666322	0.959764	0.404272
	N249	N	0.666817	0.029746	0.577822
	N250	N	0.306207	0.960053	0.578155
	N251	N	0.306179	0.029713	0.403366
	N252	N	0.901096	0.458904	0.169608
	N253	N	0.074698	0.528708	0.170735
	N254	N	0.074975	0.458895	0.808719
	N255	N	0.900385	0.529622	0.810097
	N256	N	0.167010	0.907280	0.456021
	N257	N	0.168122	0.082688	0.525229
	N258	N	0.805675	0.082010	0.456684
	N259	N	0.807351	0.908174	0.526348
	N260	N	0.451580	0.176112	0.901460
	N261	N	0.521943	0.173749	0.075370
	N262	N	0.452014	0.815342	0.077194
	N263	N	0.521986	0.815006	0.903902
	N264	N	0.451604	0.908979	0.170102
	N265	N	0.521743	0.081750	0.169602
	N266	N	0.450610	0.081650	0.809669
	N267	N	0.521881	0.907522	0.810036
	N268	N	0.900404	0.173203	0.455896
	N269	N	0.072554	0.173849	0.526605
	N270	N	0.074378	0.814171	0.456054
	N271	N	0.899383	0.813222	0.525418
	N272	N	0.167500	0.458781	0.902832
	N273	N	0.167613	0.528686	0.077324
	N274	N	0.807389	0.458981	0.076188
	N275	N	0.806970	0.529390	0.903112
	O276	O	0.148139	0.893751	0.005224
	H277	H	0.140524	0.901304	0.006737
	H278	H	0.159724	0.891077	0.006158
	O279	O	0.301721	0.708919	0.487596
	H280	H	0.280555	0.732266	0.479803
	H281	H	0.321599	0.704408	0.467713
	O282	O	1.001749	0.012507	1.061807
	H283	H	0.992492	0.005044	1.055333
	H284	H	1.002335	0.009545	1.068368
	O285	O	0.621876	0.305575	0.646220
	H286	H	0.620596	0.330743	0.635380
	H287	H	0.597639	0.307108	0.640093
	O288	O	0.430739	0.271057	0.439016
	H289	H	0.428078	0.271471	0.446625
	H290	H	0.440442	0.275671	0.421333
	O291	O	0.294696	0.305982	0.676050
	H292	H	0.317034	0.311686	0.671985
	H293	H	0.288600	0.322715	0.678073
	O294	O	1.504446	0.279581	1.278691
	H295	H	1.525158	0.269663	1.275614
	H296	H	1.537068	0.269755	1.265175
	O297	O	0.456574	0.272715	0.706812
	H298	H	0.452621	0.260396	0.727628
	H299	H	0.449383	0.281082	0.714222
	O300	O	0.048015	-0.139386	0.823968
	H301	H	0.037149	-0.142178	0.809953
	H302	H	0.048925	-0.139089	0.839997
	O303	O	0.407071	0.586559	0.459393
	H304	H	0.407984	0.594258	0.445801
	H305	H	0.420597	0.569901	0.454858
	O306	O	0.520403	0.720137	0.715380
	H307	H	0.524970	0.756433	0.748727
	H308	H	0.522457	0.710397	0.696881
	O309	O	0.456872	0.476759	0.647770
	H310	H	0.450377	0.488279	0.644313
	H311	H	0.457289	0.484810	0.639750
	O312	O	0.481715	0.622783	0.610579
	H313	H	0.482884	0.619778	0.606503
	H314	H	0.464995	0.630434	0.613785
	O315	O	0.766762	1.027222	0.772854
	H316	H	0.762432	1.053244	0.761030
	H317	H	0.753779	1.049439	0.758102
	O318	O	0.040636	0.217535	0.932187
	H319	H	0.058598	0.213749	0.941673
	H320	H	0.038598	0.210795	0.953763
	O321	O	0.511626	0.442716	0.437442
	H322	H	0.506725	0.446271	0.436511
	H323	H	0.512259	0.447329	0.447103
	O324	O	1.153899	0.817933	0.160126
	H325	H	1.155730	0.825884	0.136300
	H326	H	1.159249	0.812061	0.163096
	O327	O	-0.157112	0.178986	1.021199
	H328	H	-0.145993	0.170389	1.009943
	H329	H	-0.183988	0.184700	1.003125
	O330	O	0.182375	1.204258	0.193020
	H331	H	0.209386	1.234242	0.225036
	H332	H	0.158469	1.181348	0.200794
	O333	O	0.763505	0.140185	0.947859
	H334	H	0.746519	0.147465	0.939772
	H335	H	0.758700	0.140373	0.922088
	O336	O	0.668383	0.291744	0.285016
	H337	H	0.691093	0.290343	0.279193
	H338	H	0.689027	0.277440	0.291111
	O339	O	0.905674	0.104199	1.053744
	H340	H	0.898431	0.094969	1.068646
	H341	H	0.904572	0.084431	1.055431
	O342	O	0.299200	0.358682	0.306554
	H343	H	0.308178	0.378399	0.310849
	H344	H	0.323825	0.367115	0.328320
	O345	O	-0.038265	1.148519	0.824100
	H346	H	-0.029512	1.165311	0.819863
	H347	H	-0.025367	1.151771	0.829625
	O348	O	0.264464	0.442388	0.458061
	H349	H	0.260038	0.451038	0.455937
	H350	H	0.258462	0.435878	0.474399
	O351	O	0.035810	0.940471	0.204070
	H352	H	0.045172	0.933045	0.202031
	H353	H	0.043639	0.933679	0.199190
	O354	O	0.226767	0.098553	1.228919
	H355	H	0.239388	0.092799	1.254936
	H356	H	0.237108	0.106726	1.225460
	O357	O	0.276831	0.284154	0.514336
	H358	H	0.286892	0.288423	0.531959
	H359	H	0.265296	0.266668	0.515103
	O360	O	0.353277	0.706111	0.606160
	H361	H	0.346269	0.720303	0.614849
	H362	H	0.331266	0.711007	0.596687
	O363	O	0.005026	-0.030015	-0.199593
	H364	H	-0.001990	-0.033508	-0.203039
	H365	H	-0.007729	-0.014986	-0.207245
	O366	O	0.303723	0.488818	0.641289
	H367	H	0.304866	0.495894	0.637665
	H368	H	0.296055	0.487195	0.651279
	O369	O	1.195811	-0.209990	-0.219822
	H370	H	1.200777	-0.187396	-0.223838
	H371	H	1.163477	-0.212202	-0.222547
	O372	O	0.786368	1.194415	0.186614
	H373	H	0.802635	1.173682	0.164259
	H374	H	0.806479	1.176174	0.185182
	O375	O	0.984156	-0.011625	0.055124
	H376	H	0.974466	-0.029663	0.065094
	H377	H	0.977863	-0.016574	0.055394
	O378	O	0.623867	0.322867	0.567531
	H379	H	0.610741	0.316017	0.559704
	H380	H	0.618043	0.330216	0.584404
	O381	O	-0.166555	0.976334	0.943633
	H382	H	-0.165724	0.957807	0.930593
	H383	H	-0.165234	0.989584	0.934760
	O384	O	1.184009	-0.009535	0.789559
	H385	H	1.181824	-0.004383	0.790998
	H386	H	1.182886	-0.006115	0.790584
	O387	O	0.870886	0.824147	-0.206051
	H388	H	0.875121	0.838883	-0.194857
	H389	H	0.872247	0.818179	-0.197478
	O390	O	0.706865	0.274369	0.452276
	H391	H	0.706950	0.253776	0.458213
	H392	H	0.704581	0.262272	0.462435
	O393	O	0.518862	0.716163	0.408799
	H394	H	0.537746	0.715836	0.418634
	H395	H	0.524706	0.713576	0.417500
	O396	O	-0.220714	0.786194	1.196688
	H397	H	-0.195358	0.807092	1.202167
	H398	H	-0.240890	0.767447	1.202198
	O399	O	-0.089790	0.099283	1.185966
	H400	H	-0.087198	0.082497	1.187688
	H401	H	-0.082495	0.094557	1.181623
	O402	O	0.704602	-0.284920	0.522054
	H403	H	0.718122	-0.276866	0.525584
	H404	H	0.719340	-0.296209	0.511319
	O405	O	1.673117	0.683500	0.305377
	H406	H	1.669073	0.669579	0.317260
	H407	H	1.655653	0.673522	0.309293
	O408	O	0.024413	-0.225507	-0.051755
	H409	H	0.031467	-0.228679	-0.042499
	H410	H	0.019072	-0.224006	-0.054642
	O411	O	0.773341	0.782388	1.026920
	H412	H	0.767477	0.780343	1.035429
	H413	H	0.768429	0.772530	1.036764
	O414	O	0.703913	0.493193	0.471496
	H415	H	0.708442	0.477970	0.480866
	H416	H	0.699669	0.491159	0.477237
	O417	O	0.948934	0.774203	0.209548
	H418	H	0.952993	0.757571	0.223871
	H419	H	0.946972	0.763023	0.205616
	O420	O	0.486773	0.502788	0.687812
	H421	H	0.483164	0.507019	0.680075
	H422	H	0.488541	0.513503	0.693759
	O423	O	-0.208135	-0.111027	0.897768
	H424	H	-0.208811	-0.119398	0.889429
	H425	H	-0.201977	-0.116042	0.892185
	O426	O	0.587811	0.426336	0.534880
	H427	H	0.554927	0.437154	0.540014
	H428	H	0.589122	0.440155	0.549376
	O429	O	1.092249	1.074447	1.000281
	H430	H	1.084200	1.072529	1.000315
	H431	H	1.092406	1.084868	1.007116
	O432	O	0.344200	0.489532	0.307676
	H433	H	0.326364	0.493512	0.289520
	H434	H	0.343431	0.508419	0.316229
	O435	O	-0.309154	0.699295	-0.304141
	H436	H	-0.293944	0.708560	-0.306048
	H437	H	-0.333055	0.699212	-0.323174
	O438	O	0.039267	0.141157	0.088595
	H439	H	0.042591	0.148882	0.083351
	H440	H	0.033931	0.158652	0.098601
	O441	O	-0.341055	-0.443670	-0.499236
	H442	H	-0.342413	-0.458333	-0.499369
	H443	H	-0.341034	-0.449394	-0.506739
	O444	O	0.402698	0.532476	0.491711
	H445	H	0.400153	0.536182	0.487920
	H446	H	0.403123	0.527724	0.480104
	O447	O	0.067360	1.146337	0.825948
	H448	H	0.067018	1.134175	0.823046
	H449	H	0.084591	1.156750	0.855123
	O450	O	0.004074	1.016111	0.879600
	H451	H	0.017622	1.021290	0.878585
	H452	H	0.002963	1.015775	0.882015
	O453	O	0.288987	0.621773	0.285090
	H454	H	0.283999	0.631935	0.267026
	H455	H	0.305967	0.612237	0.294989
	O456	O	0.703089	0.460057	1.272669
	H457	H	0.709019	0.437011	1.268366
	H458	H	0.714432	0.457860	1.261594
	O459	O	1.138064	1.037381	0.017559
	H460	H	1.145783	1.052065	0.034722
	H461	H	1.136641	1.037568	0.008281
	O462	O	0.505981	0.617543	0.269720
	H463	H	0.522614	0.614428	0.267937
	H464	H	0.507447	0.604443	0.261981
	O465	O	1.463924	0.464820	0.278399
	H466	H	1.465231	0.444756	0.277745
	H467	H	1.461692	0.452218	0.282458
	O468	O	0.274457	0.578302	0.639981
	H469	H	0.277723	0.588630	0.628016
	H470	H	0.284942	0.572615	0.657660
	O471	O	0.790530	0.191267	0.789910
	H472	H	0.827873	0.202282	0.796502
	H473	H	0.786015	0.209918	0.777412
	O474	O	0.706977	0.527166	0.711151
	H475	H	0.735479	0.536356	0.736833
	H476	H	0.695483	0.551688	0.704309
	O477	O	1.206100	0.213526	2.018326
	H478	H	1.201729	0.213884	2.051228
	H479	H	1.230649	0.235651	2.033454
	O480	O	0.397381	0.689311	0.311533
	H481	H	0.424447	0.679825	0.310832
	H482	H	0.400077	0.681843	0.315107
	O483	O	0.158052	0.805306	0.014509
	H484	H	0.172472	0.810853	-0.006634
	H485	H	0.165449	0.799894	-0.000924
	O486	O	1.013522	-0.221738	1.018181
	H487	H	1.011457	-0.222181	1.019724
	H488	H	1.028781	-0.218211	1.023824
	O489	O	0.771155	0.955877	0.207687
	H490	H	0.765516	0.937574	0.215913
	H491	H	0.760999	0.963000	0.205359
