data_Molecule from HDF5

_cell_length_a		16.551639
_cell_length_b		16.735764
_cell_length_c		16.644839
_cell_angle_alpha	89.981269
_cell_angle_beta	89.940328
_cell_angle_gamma	90.254938
_symmetry_space_group_name_H-M	'P 1'
_symmetry_Int_Tables_number		1

loop_
	_symmetry_equiv_pos_as_xyz
	x,y,z

loop_
	_atom_site_label
	_atom_site_type_symbol
	_atom_site_fract_x
	_atom_site_fract_y
	_atom_site_fract_z
	H0	H	0.369876	0.839032	0.734957
	H1	H	0.579276	0.148968	0.735142
	H2	H	0.575107	0.836016	0.297201
	H3	H	0.373612	0.149538	0.295152
	H4	H	0.693211	0.391406	0.858092
	H5	H	0.692761	0.595234	0.170862
	H6	H	0.255254	0.595567	0.858787
	H7	H	0.258970	0.393955	0.173643
	H8	H	0.817788	0.712483	0.410387
	H9	H	0.130526	0.713318	0.616712
	H10	H	0.819255	0.270816	0.620214
	H11	H	0.129186	0.271364	0.405894
	H12	H	0.819323	0.386382	0.736358
	H13	H	0.132105	0.595450	0.731461
	H14	H	0.818603	0.597272	0.294265
	H15	H	0.130291	0.389786	0.292946
	H16	H	0.367967	0.715409	0.859885
	H17	H	0.578675	0.713096	0.170438
	H18	H	0.578842	0.272471	0.860137
	H19	H	0.374682	0.277579	0.173297
	H20	H	0.689405	0.835318	0.415725
	H21	H	0.693930	0.150001	0.616165
	H22	H	0.253800	0.839628	0.618129
	H23	H	0.256898	0.149594	0.412003
	H24	H	0.864690	0.342881	0.239817
	H25	H	0.080968	0.647681	0.235487
	H26	H	0.082637	0.339597	0.790824
	H27	H	0.870042	0.646803	0.791131
	H28	H	0.193653	0.891574	0.357234
	H29	H	0.201860	0.104387	0.666039
	H30	H	0.758346	0.093112	0.356265
	H31	H	0.757011	0.891770	0.672233
	H32	H	0.318191	0.213844	0.909794
	H33	H	0.631589	0.213885	0.117941
	H34	H	0.318866	0.773505	0.118258
	H35	H	0.631447	0.774248	0.909734
	H36	H	0.318478	0.890359	0.233246
	H37	H	0.633103	0.095856	0.231931
	H38	H	0.318916	0.099358	0.793092
	H39	H	0.631737	0.891226	0.795205
	H40	H	0.872105	0.211931	0.357621
	H41	H	0.087682	0.222457	0.664500
	H42	H	0.079355	0.772841	0.358789
	H43	H	0.871835	0.774815	0.671750
	H44	H	0.194825	0.336838	0.911166
	H45	H	0.198463	0.646435	0.120117
	H46	H	0.751789	0.340661	0.119987
	H47	H	0.753367	0.647403	0.907588
	H48	H	0.387292	0.103946	0.602863
	H49	H	0.562248	0.884943	0.601065
	H50	H	0.565279	0.105306	0.420638
	H51	H	0.381193	0.881291	0.422614
	H52	H	0.558919	0.401734	0.125262
	H53	H	0.560003	0.585618	0.904053
	H54	H	0.386129	0.582252	0.125361
	H55	H	0.386887	0.405071	0.904588
	H56	H	0.084535	0.582921	0.431921
	H57	H	0.859759	0.589815	0.603958
	H58	H	0.086504	0.411711	0.607488
	H59	H	0.862603	0.398571	0.429650
	H60	H	0.088225	0.400095	0.600289
	H61	H	0.863895	0.579800	0.599845
	H62	H	0.087164	0.579587	0.420817
	H63	H	0.866464	0.408188	0.429300
	H64	H	0.388421	0.583135	0.125489
	H65	H	0.566644	0.586867	0.900807
	H66	H	0.567186	0.401643	0.128881
	H67	H	0.387249	0.397013	0.902705
	H68	H	0.567753	0.104484	0.423531
	H69	H	0.571236	0.880613	0.605501
	H70	H	0.389386	0.104384	0.603368
	H71	H	0.386536	0.881927	0.421003
	H72	H	0.885383	0.604481	0.102280
	H73	H	0.063457	0.382416	0.104880
	H74	H	0.067125	0.604446	0.922371
	H75	H	0.881239	0.380422	0.922983
	H76	H	0.061896	0.903932	0.624521
	H77	H	0.066405	0.087132	0.401627
	H78	H	0.889433	0.090010	0.626314
	H79	H	0.884577	0.899301	0.402180
	H80	H	0.586259	0.085224	0.927256
	H81	H	0.361699	0.082062	0.110412
	H82	H	0.586980	0.904224	0.100750
	H83	H	0.365195	0.905596	0.930205
	H84	H	0.588518	0.906316	0.108062
	H85	H	0.360789	0.090246	0.105385
	H86	H	0.585229	0.082215	0.926704
	H87	H	0.362359	0.906525	0.921155
	H88	H	0.878663	0.083858	0.628113
	H89	H	0.064395	0.075023	0.405520
	H90	H	0.063916	0.902367	0.625561
	H91	H	0.881151	0.899954	0.400917
	H92	H	0.062033	0.601717	0.923744
	H93	H	0.062917	0.382833	0.105230
	H94	H	0.886591	0.605461	0.105144
	H95	H	0.891516	0.384071	0.923685
	H96	H	0.389069	0.103635	0.602058
	H97	H	0.561811	0.881786	0.611150
	H98	H	0.568785	0.106550	0.419907
	H99	H	0.384674	0.883575	0.426287
	H100	H	0.563742	0.408975	0.124913
	H101	H	0.564985	0.580758	0.903147
	H102	H	0.386858	0.584574	0.125987
	H103	H	0.380052	0.401425	0.901904
	H104	H	0.089151	0.590333	0.424193
	H105	H	0.860042	0.580444	0.610530
	H106	H	0.082038	0.410281	0.594208
	H107	H	0.861137	0.405058	0.421022
	H108	H	0.888536	0.604656	0.102642
	H109	H	0.063092	0.382030	0.104312
	H110	H	0.065403	0.602571	0.927739
	H111	H	0.884529	0.385204	0.932085
	H112	H	0.064283	0.905034	0.625152
	H113	H	0.054484	0.082839	0.406219
	H114	H	0.888706	0.078093	0.623604
	H115	H	0.882979	0.902795	0.402552
	H116	H	0.586439	0.084237	0.924431
	H117	H	0.363904	0.082035	0.101268
	H118	H	0.589784	0.898912	0.105450
	H119	H	0.361672	0.898350	0.925857
	C120	C	0.354987	0.002101	0.635055
	C121	C	0.596449	0.985681	0.636390
	C122	C	0.596338	0.001283	0.392685
	C123	C	0.353699	0.985360	0.392562
	C124	C	0.594960	0.373096	0.023090
	C125	C	0.595998	0.615442	1.005723
	C126	C	0.354344	0.614329	0.022648
	C127	C	0.354117	0.371846	1.007117
	C128	C	-0.016536	0.615438	0.393363
	C129	C	0.965341	0.614335	0.635792
	C130	C	-0.016822	0.372534	0.634300
	C131	C	0.966502	0.373083	0.393742
	C132	C	0.853104	0.503160	0.135962
	C133	C	0.095987	0.484670	0.136341
	C134	C	0.096743	0.500748	0.892762
	C135	C	0.853702	0.484993	0.892945
	C136	C	0.095351	0.873013	0.521969
	C137	C	0.096861	0.116103	0.505307
	C138	C	0.854598	0.114070	0.522130
	C139	C	0.852475	0.870845	0.506084
	C140	C	0.482643	0.115134	0.894060
	C141	C	0.466450	0.114992	0.136196
	C142	C	0.484061	0.872368	0.135304
	C143	C	0.466438	0.872646	0.893933
	C144	C	0.351825	0.885818	0.695003
	C145	C	0.597745	0.102502	0.694892
	C146	C	0.594495	0.882984	0.336516
	C147	C	0.353853	0.102781	0.334300
	C148	C	0.653772	0.372171	0.905200
	C149	C	0.653948	0.614881	0.123732
	C150	C	0.294562	0.615079	0.905744
	C151	C	0.297581	0.374023	0.126077
	C152	C	0.865186	0.673379	0.391946
	C153	C	0.083668	0.673290	0.636005
	C154	C	0.866110	0.311104	0.638146
	C155	C	0.082849	0.312399	0.389340
	C156	C	0.866004	0.368816	0.695571
	C157	C	0.084497	0.614840	0.692854
	C158	C	0.865547	0.616324	0.333979
	C159	C	0.083456	0.371037	0.332940
	C160	C	0.350679	0.674632	0.906325
	C161	C	0.597178	0.673329	0.123570
	C162	C	0.597085	0.313157	0.906376
	C163	C	0.354785	0.315998	0.126023
	C164	C	0.651574	0.882621	0.395178
	C165	C	0.654826	0.103204	0.635903
	C166	C	0.294067	0.885972	0.637015
	C167	C	0.296149	0.102810	0.392498
	C168	C	0.847900	0.388353	0.198181
	C169	C	0.099364	0.600970	0.195911
	C170	C	0.099511	0.384890	0.832276
	C171	C	0.851754	0.600567	0.831752
	C172	C	0.154058	0.872508	0.404319
	C173	C	0.160442	0.121578	0.620041
	C174	C	0.796978	0.113193	0.403879
	C175	C	0.795562	0.872173	0.624799
	C176	C	0.365338	0.174471	0.891387
	C177	C	0.584868	0.173719	0.136554
	C178	C	0.365948	0.813375	0.136694
	C179	C	0.584316	0.813981	0.891643
	C180	C	0.365759	0.871374	0.193853
	C181	C	0.585503	0.115335	0.193407
	C182	C	0.365554	0.117161	0.833632
	C183	C	0.584410	0.872007	0.834565
	C184	C	0.853644	0.172187	0.404436
	C185	C	0.103753	0.180271	0.619312
	C186	C	0.097075	0.813709	0.405011
	C187	C	0.852566	0.813927	0.624530
	C188	C	0.155657	0.383919	0.891724
	C189	C	0.157761	0.600320	0.138466
	C190	C	0.791820	0.387217	0.138601
	C191	C	0.793859	0.601205	0.889720
	C192	C	0.380988	0.082899	0.609947
	C193	C	0.572247	0.903838	0.612781
	C194	C	0.573943	0.083685	0.414826
	C195	C	0.377367	0.903511	0.416378
	C196	C	0.570397	0.397321	0.105035
	C197	C	0.571041	0.591423	0.923851
	C198	C	0.379888	0.590231	0.104364
	C199	C	0.377767	0.394754	0.924566
	C200	C	0.065523	0.591162	0.418425
	C201	C	0.882605	0.590022	0.611859
	C202	C	0.064344	0.399234	0.607948
	C203	C	0.884547	0.397309	0.419349
	C204	C	0.879450	0.583772	0.110490
	C205	C	0.070282	0.403626	0.111824
	C206	C	0.071883	0.581726	0.917537
	C207	C	0.878556	0.404491	0.918709
	C208	C	0.070619	0.897160	0.603732
	C209	C	0.069336	0.089198	0.425184
	C210	C	0.878679	0.090532	0.604457
	C211	C	0.876190	0.894001	0.423400
	C212	C	0.564623	0.090763	0.919108
	C213	C	0.383513	0.091266	0.112733
	C214	C	0.566967	0.896288	0.111461
	C215	C	0.384456	0.896549	0.918557
	Zn216	Zn	0.474602	-0.005804	0.765777
	Zn217	Zn	0.475616	-0.006750	0.263692
	Zn218	Zn	0.724159	0.494019	0.014218
	Zn219	Zn	0.225154	0.492381	0.014444
	Zn220	Zn	-0.025906	0.742932	0.514597
	Zn221	Zn	-0.024809	0.243958	0.514014
	Zn222	Zn	-0.024356	0.492270	0.763530
	Zn223	Zn	-0.025279	0.493808	0.265183
	Zn224	Zn	0.474793	0.743860	0.014335
	Zn225	Zn	0.474309	0.242970	0.015287
	Zn226	Zn	0.725225	-0.006685	0.514366
	Zn227	Zn	0.225008	-0.005697	0.514483
	N228	N	0.388712	0.959256	0.694235
	N229	N	0.562427	0.028299	0.695474
	N230	N	0.561311	0.957915	0.334303
	N231	N	0.388620	0.028448	0.333811
	N232	N	0.652549	0.408753	0.978920
	N233	N	0.653538	0.579777	0.049243
	N234	N	0.296431	0.578354	0.979390
	N235	N	0.296741	0.407636	0.050971
	N236	N	0.939615	0.673091	0.428123
	N237	N	0.008361	0.673399	0.601455
	N238	N	0.940152	0.313050	0.600923
	N239	N	0.008972	0.313409	0.426294
	N240	N	0.939845	0.406275	0.693444
	N241	N	0.009617	0.579192	0.693099
	N242	N	0.940303	0.581186	0.334402
	N243	N	0.009834	0.408234	0.335555
	N244	N	0.387119	0.674268	0.980224
	N245	N	0.562160	0.674335	0.048876
	N246	N	0.561293	0.313420	0.980755
	N247	N	0.388997	0.314120	0.050845
	N248	N	0.653337	0.957369	0.429037
	N249	N	0.654367	0.029249	0.600318
	N250	N	0.295562	0.959522	0.600631
	N251	N	0.295688	0.028626	0.427699
	N252	N	0.885363	0.461433	0.196790
	N253	N	0.061818	0.527926	0.194836
	N254	N	0.063603	0.458630	0.832622
	N255	N	0.888248	0.527330	0.833461
	N256	N	0.153228	0.908698	0.478256
	N257	N	0.155932	0.081917	0.548265
	N258	N	0.797161	0.077938	0.478333
	N259	N	0.794984	0.906629	0.549853
	N260	N	0.439401	0.173388	0.928394
	N261	N	0.509650	0.173901	0.101941
	N262	N	0.440704	0.813808	0.101070
	N263	N	0.509698	0.813824	0.927439
	N264	N	0.440288	0.907491	0.193082
	N265	N	0.510674	0.079653	0.193604
	N266	N	0.439605	0.080832	0.835281
	N267	N	0.510039	0.907915	0.835670
	N268	N	0.888389	0.173210	0.479275
	N269	N	0.064666	0.176777	0.546871
	N270	N	0.061129	0.813684	0.479258
	N271	N	0.886945	0.812647	0.549496
	N272	N	0.154298	0.457058	0.928620
	N273	N	0.156093	0.526841	0.102235
	N274	N	0.794702	0.459841	0.100726
	N275	N	0.794687	0.528201	0.927064
	O276	O	0.395743	1.474491	0.648477
	H277	H	0.382623	1.458891	0.642447
	H278	H	0.387526	1.471347	0.649545
	O279	O	-0.251389	0.065835	0.040301
	H280	H	-0.250127	0.057491	0.045984
	H281	H	-0.246999	0.057702	0.056701
	O282	O	0.863717	0.040966	1.198903
	H283	H	0.857578	0.021322	1.212525
	H284	H	0.866868	0.035243	1.205722
	O285	O	0.052451	0.842829	0.022599
	H286	H	0.019278	0.850667	0.012874
	H287	H	0.056233	0.843937	-0.007128
	O288	O	0.953815	1.215750	-0.212214
	H289	H	0.925244	1.215324	-0.212737
	H290	H	0.935101	1.236371	-0.229165
	O291	O	0.272615	0.603756	0.476090
	H292	H	0.262169	0.618172	0.460117
	H293	H	0.266622	0.609422	0.459078
	O294	O	1.549250	0.530336	0.420168
	H295	H	1.542424	0.511465	0.416063
	H296	H	1.556777	0.529918	0.429935
	O297	O	1.157307	0.010741	-0.132373
	H298	H	1.146716	0.022905	-0.128828
	H299	H	1.167767	0.022828	-0.153683
	O300	O	0.187087	0.208318	1.226153
	H301	H	0.188451	0.157383	1.235934
	H302	H	0.216666	0.235405	1.260356
	O303	O	0.579187	0.391885	0.475156
	H304	H	0.588935	0.387703	0.475236
	H305	H	0.586597	0.384757	0.472274
	O306	O	0.687739	0.528824	0.732255
	H307	H	0.705022	0.518745	0.735965
	H308	H	0.689028	0.539346	0.735826
	O309	O	0.784203	0.190894	0.203390
	H310	H	0.793360	0.157336	0.189147
	H311	H	0.817746	0.191919	0.180844
	O312	O	0.254671	0.529412	0.304307
	H313	H	0.245928	0.536822	0.288999
	H314	H	0.255893	0.535724	0.296797
	O315	O	0.759809	1.208402	0.804812
	H316	H	0.765600	1.207192	0.843867
	H317	H	0.738165	1.230522	0.799715
	O318	O	0.678526	0.691567	0.716709
	H319	H	0.682255	0.709469	0.725614
	H320	H	0.694308	0.679198	0.731968
	O321	O	0.251187	0.541456	0.466366
	H322	H	0.251232	0.546448	0.444151
	H323	H	0.244741	0.525225	0.465703
	O324	O	1.285579	0.683592	-0.296785
	H325	H	1.296874	0.667817	-0.323236
	H326	H	1.312517	0.670433	-0.312111
	O327	O	0.292234	0.301394	1.336866
	H328	H	0.316730	0.318363	1.351255
	H329	H	0.302628	0.314372	1.361916
	O330	O	0.679318	0.452276	0.305217
	H331	H	0.699044	0.467330	0.301903
	H332	H	0.691881	0.450193	0.322354
	O333	O	0.910329	0.221281	0.084458
	H334	H	0.939164	0.221460	0.068783
	H335	H	0.932101	0.224531	0.098805
	O336	O	0.455714	0.275265	0.733002
	H337	H	0.429402	0.252685	0.753308
	H338	H	0.443982	0.289899	0.733197
	O339	O	1.327314	-0.479891	0.711582
	H340	H	1.344768	-0.485533	0.702473
	H341	H	1.328922	-0.459113	0.713983
	O342	O	0.196027	0.039245	0.241566
	H343	H	0.215009	0.028177	0.246742
	H344	H	0.202676	0.017094	0.239671
	O345	O	-0.318085	0.284808	1.310756
	H346	H	-0.333327	0.315251	1.303309
	H347	H	-0.290932	0.256774	1.275265
	O348	O	-0.096230	-0.174503	0.000922
	H349	H	-0.100260	-0.184862	0.021034
	H350	H	-0.101617	-0.161971	0.003090
	O351	O	1.539372	0.703316	-0.528653
	H352	H	1.551429	0.703528	-0.532238
	H353	H	1.525990	0.700741	-0.524131
	O354	O	0.203318	0.225209	1.055705
	H355	H	0.231194	0.254258	1.065218
	H356	H	0.202261	0.224308	1.099651
	O357	O	1.003259	0.219020	0.228157
	H358	H	1.011192	0.208473	0.241463
	H359	H	1.035144	0.235513	0.247105
	O360	O	-0.000494	0.040337	1.204324
	H361	H	0.005259	0.043903	1.197946
	H362	H	0.011915	0.032910	1.200974
	O363	O	0.009646	-0.237117	-0.207881
	H364	H	0.018034	-0.250105	-0.201057
	H365	H	0.019315	-0.252824	-0.230987
	O366	O	0.702117	0.714073	0.546568
	H367	H	0.736472	0.748118	0.550745
	H368	H	0.682366	0.707706	0.582850
	O369	O	0.435933	0.712617	0.300742
	H370	H	0.441143	0.737903	0.274805
	H371	H	0.423375	0.688030	0.307390
	O372	O	1.199860	1.005701	-0.114910
	H373	H	1.203997	1.016934	-0.120580
	H374	H	1.198872	0.981121	-0.122744
	O375	O	0.779502	-0.068753	-0.098158
	H376	H	0.764445	-0.057792	-0.107651
	H377	H	0.795404	-0.056924	-0.100556
	O378	O	1.035279	1.054326	-0.209684
	H379	H	1.030632	1.058318	-0.212951
	H380	H	1.017624	1.058877	-0.212448
	O381	O	-0.060620	1.071882	0.992293
	H382	H	-0.067330	1.085306	0.994693
	H383	H	-0.067224	1.077709	0.994014
	O384	O	0.659449	0.307346	0.704887
	H385	H	0.645224	0.303638	0.709226
	H386	H	0.641689	0.326245	0.694130
	O387	O	0.749894	0.951846	0.240399
	H388	H	0.721300	0.939897	0.265427
	H389	H	0.752238	0.912427	0.237033
	O390	O	0.918191	0.769750	0.233866
	H391	H	0.937968	0.772473	0.215176
	H392	H	0.918481	0.740837	0.259256
	O393	O	0.654368	0.523041	0.522083
	H394	H	0.657292	0.534083	0.549144
	H395	H	0.653287	0.509881	0.534471
	O396	O	0.013923	0.905303	1.242644
	H397	H	0.017409	0.895753	1.237261
	H398	H	0.011417	0.909481	1.243219
	O399	O	-0.062662	-0.009636	0.829365
	H400	H	-0.054358	-0.017098	0.833865
	H401	H	-0.062483	-0.008556	0.836136
	O402	O	-0.133251	-0.058718	0.980801
	H403	H	-0.142486	-0.066283	0.973124
	H404	H	-0.127840	-0.058233	0.985445
	O405	O	1.436675	0.639605	0.564764
	H406	H	1.428250	0.638204	0.553819
	H407	H	1.454718	0.640201	0.571401
	O408	O	0.068490	-0.086574	-0.057717
	H409	H	0.064251	-0.086303	-0.069629
	H410	H	0.059928	-0.089336	-0.053060
	O411	O	0.790260	0.815119	1.161213
	H412	H	0.820551	0.809591	1.158163
	H413	H	0.774215	0.795108	1.189909
	O414	O	0.461619	0.479741	0.740744
	H415	H	0.466787	0.500071	0.745937
	H416	H	0.469401	0.492276	0.734301
	O417	O	0.481258	0.337341	0.298874
	H418	H	0.488063	0.314843	0.286535
	H419	H	0.480537	0.326857	0.321396
	O420	O	0.570039	0.490839	0.461137
	H421	H	0.563787	0.469094	0.476476
	H422	H	0.583847	0.511887	0.471149
	O423	O	0.184843	-0.221893	0.803410
	H424	H	0.217931	-0.253144	0.771306
	H425	H	0.171613	-0.204660	0.810629
	O426	O	0.424375	0.510394	0.372634
	H427	H	0.441676	0.505233	0.368990
	H428	H	0.418994	0.507500	0.369610
	O429	O	1.036738	0.951605	0.884681
	H430	H	1.039883	0.951761	0.865580
	H431	H	1.020665	0.956769	0.886408
	O432	O	0.528239	0.486073	0.370949
	H433	H	0.523235	0.491126	0.369611
	H434	H	0.529879	0.474167	0.362495
	O435	O	0.271637	0.283354	0.539128
	H436	H	0.268769	0.273973	0.549843
	H437	H	0.265961	0.276062	0.564645
	O438	O	0.163078	-0.196671	0.199875
	H439	H	0.148254	-0.177526	0.181191
	H440	H	0.143952	-0.183197	0.177116
	O441	O	0.033928	-0.239572	0.075545
	H442	H	0.031142	-0.239535	0.062918
	H443	H	0.051410	-0.241853	0.051040
	O444	O	0.268606	0.391649	0.726165
	H445	H	0.266646	0.417282	0.707459
	H446	H	0.251445	0.394713	0.752419
	O447	O	0.049856	1.044420	1.029136
	H448	H	0.062774	1.037283	1.023469
	H449	H	0.052765	1.053418	1.034462
	O450	O	-0.248651	0.762718	1.044981
	H451	H	-0.274631	0.742268	1.059845
	H452	H	-0.253088	0.768967	1.073689
	O453	O	0.502694	0.717581	0.741078
	H454	H	0.529507	0.730081	0.752222
	H455	H	0.511342	0.735558	0.736153
	O456	O	-0.251552	0.026853	0.795218
	H457	H	-0.269718	0.042153	0.777271
	H458	H	-0.260548	0.046111	0.794061
	O459	O	1.162563	1.184183	-0.180390
	H460	H	1.144739	1.172294	-0.156430
	H461	H	1.145004	1.163091	-0.178151
	O462	O	0.331391	0.322824	0.662278
	H463	H	0.305604	0.311387	0.682861
	H464	H	0.323697	0.349863	0.675278
	O465	O	1.186665	-0.231937	-0.012163
	H466	H	1.194244	-0.223617	-0.025943
	H467	H	1.202538	-0.240375	-0.033866
	O468	O	0.415636	0.600529	0.566373
	H469	H	0.419773	0.589809	0.564536
	H470	H	0.402252	0.607273	0.550238
	O471	O	0.673483	0.694520	0.309173
	H472	H	0.666078	0.677317	0.322928
	H473	H	0.657248	0.674337	0.335954
	O474	O	0.774067	0.787806	0.816793
	H475	H	0.779144	0.807270	0.840284
	H476	H	0.803323	0.806770	0.830143
	O477	O	0.452703	0.498785	1.488693
	H478	H	0.458986	0.486445	1.489332
	H479	H	0.446466	0.492236	1.496563
	O480	O	0.702418	0.267552	0.477193
	H481	H	0.706268	0.263440	0.441786
	H482	H	0.722339	0.243178	0.463751
	O483	O	0.425817	0.507542	0.508091
	H484	H	0.422249	0.503797	0.511163
	H485	H	0.442764	0.503524	0.503804
	O486	O	0.627778	0.352490	0.565511
	H487	H	0.623259	0.341728	0.563105
	H488	H	0.631443	0.335165	0.575979
	O489	O	1.143278	1.013201	0.089148
	H490	H	1.132009	1.018412	0.075342
	H491	H	1.156392	1.024860	0.084926
	O492	O	-0.244078	0.219854	-0.024205
	H493	H	-0.233627	0.206606	-0.001085
	H494	H	-0.262489	0.241930	-0.009720
	O495	O	0.002761	1.226152	0.959250
	H496	H	0.013074	1.221660	0.946374
	H497	H	0.014476	1.222661	0.953657
	O498	O	1.442385	1.279608	1.445447
	H499	H	1.446297	1.277357	1.460523
	H500	H	1.452593	1.285712	1.461813
	O501	O	0.261626	0.707900	0.307639
	H502	H	0.231839	0.737462	0.272343
	H503	H	0.288644	0.686147	0.303210
