data_Molecule from HDF5

_cell_length_a		16.498130
_cell_length_b		16.904974
_cell_length_c		16.518420
_cell_angle_alpha	89.926279
_cell_angle_beta	89.929037
_cell_angle_gamma	90.220240
_symmetry_space_group_name_H-M	'P 1'
_symmetry_Int_Tables_number		1

loop_
	_symmetry_equiv_pos_as_xyz
	x,y,z

loop_
	_atom_site_label
	_atom_site_type_symbol
	_atom_site_fract_x
	_atom_site_fract_y
	_atom_site_fract_z
	H0	H	0.400213	0.848009	0.710138
	H1	H	0.599837	0.159919	0.708226
	H2	H	0.608395	0.852077	0.266236
	H3	H	0.396868	0.158334	0.271839
	H4	H	0.715960	0.403845	0.833988
	H5	H	0.720388	0.606681	0.149467
	H6	H	0.284550	0.604174	0.834287
	H7	H	0.276992	0.397165	0.146879
	H8	H	0.844454	0.723776	0.385419
	H9	H	0.155339	0.725477	0.600037
	H10	H	0.844373	0.282444	0.597671
	H11	H	0.156340	0.280742	0.383475
	H12	H	0.842132	0.401991	0.708255
	H13	H	0.156580	0.606253	0.711612
	H14	H	0.842794	0.603744	0.274191
	H15	H	0.157300	0.398980	0.269869
	H16	H	0.396776	0.723184	0.836237
	H17	H	0.609293	0.726619	0.148102
	H18	H	0.604861	0.284525	0.835507
	H19	H	0.387716	0.277617	0.144626
	H20	H	0.723880	0.850722	0.384110
	H21	H	0.718069	0.159409	0.591266
	H22	H	0.281657	0.848056	0.594198
	H23	H	0.279812	0.157663	0.389797
	H24	H	0.890857	0.352245	0.217834
	H25	H	0.110092	0.653801	0.218051
	H26	H	0.106729	0.351191	0.768982
	H27	H	0.894278	0.655377	0.767745
	H28	H	0.220900	0.899552	0.335799
	H29	H	0.216038	0.102862	0.652103
	H30	H	0.781093	0.106720	0.335624
	H31	H	0.786377	0.904722	0.652878
	H32	H	0.345185	0.224762	0.884095
	H33	H	0.655731	0.225735	0.097097
	H34	H	0.345282	0.781879	0.099741
	H35	H	0.658915	0.787686	0.891053
	H36	H	0.341706	0.903494	0.208513
	H37	H	0.658252	0.106986	0.209568
	H38	H	0.342348	0.103477	0.774962
	H39	H	0.661358	0.908229	0.780484
	H40	H	0.892002	0.226931	0.338799
	H41	H	0.106972	0.224062	0.649033
	H42	H	0.109235	0.780398	0.337992
	H43	H	0.896882	0.784591	0.650076
	H44	H	0.225360	0.352443	0.882944
	H45	H	0.225396	0.655448	0.099711
	H46	H	0.776041	0.350872	0.097916
	H47	H	0.774499	0.654009	0.882273
	H48	H	0.410602	0.115289	0.587696
	H49	H	0.591001	0.891970	0.587366
	H50	H	0.595563	0.113984	0.402759
	H51	H	0.406497	0.892084	0.399286
	H52	H	0.586326	0.409825	0.105669
	H53	H	0.585873	0.593757	0.882126
	H54	H	0.415798	0.589991	0.103803
	H55	H	0.410796	0.411310	0.877761
	H56	H	0.111800	0.590470	0.405968
	H57	H	0.884999	0.600103	0.580629
	H58	H	0.114894	0.407816	0.577186
	H59	H	0.893130	0.412713	0.415328
	H60	H	0.110408	0.417382	0.576218
	H61	H	0.889761	0.592727	0.573815
	H62	H	0.113548	0.594529	0.403977
	H63	H	0.890691	0.421898	0.401981
	H64	H	0.415849	0.598049	0.105762
	H65	H	0.586682	0.598681	0.879569
	H66	H	0.589428	0.413919	0.105415
	H67	H	0.412368	0.420175	0.881214
	H68	H	0.585819	0.111909	0.398815
	H69	H	0.594068	0.892636	0.583236
	H70	H	0.410442	0.113250	0.581534
	H71	H	0.414489	0.894876	0.398993
	H72	H	0.915255	0.611980	0.081880
	H73	H	0.080786	0.398912	0.076816
	H74	H	0.096074	0.616175	0.898826
	H75	H	0.909990	0.392091	0.896645
	H76	H	0.085130	0.909908	0.604608
	H77	H	0.087692	0.097583	0.379605
	H78	H	0.911620	0.092252	0.604919
	H79	H	0.913238	0.912593	0.379826
	H80	H	0.616673	0.096605	0.896086
	H81	H	0.386954	0.095796	0.078421
	H82	H	0.614252	0.910954	0.077537
	H83	H	0.386024	0.909984	0.901417
	H84	H	0.611530	0.917804	0.077235
	H85	H	0.389316	0.090724	0.075750
	H86	H	0.614516	0.101850	0.906587
	H87	H	0.386394	0.908949	0.903392
	H88	H	0.915548	0.092687	0.603974
	H89	H	0.093317	0.094105	0.379306
	H90	H	0.091930	0.909290	0.607267
	H91	H	0.913110	0.912065	0.380202
	H92	H	0.083817	0.612205	0.898473
	H93	H	0.091914	0.394544	0.073290
	H94	H	0.911633	0.611807	0.078003
	H95	H	0.911481	0.395516	0.904776
	H96	H	0.404958	0.114958	0.584356
	H97	H	0.595914	0.890924	0.587141
	H98	H	0.587943	0.110120	0.408989
	H99	H	0.410416	0.895426	0.406009
	H100	H	0.584750	0.414566	0.103395
	H101	H	0.591068	0.595071	0.880244
	H102	H	0.408984	0.593417	0.106791
	H103	H	0.419318	0.413590	0.882169
	H104	H	0.112187	0.594394	0.408550
	H105	H	0.886722	0.589509	0.584417
	H106	H	0.115306	0.414629	0.585668
	H107	H	0.885626	0.406511	0.402059
	H108	H	0.909813	0.613581	0.082343
	H109	H	0.086859	0.392768	0.084642
	H110	H	0.091012	0.610224	0.909290
	H111	H	0.903091	0.392434	0.902683
	H112	H	0.089873	0.915582	0.604275
	H113	H	0.087584	0.091266	0.382056
	H114	H	0.913376	0.095624	0.605482
	H115	H	0.912837	0.912451	0.379499
	H116	H	0.612013	0.090280	0.905052
	H117	H	0.387665	0.090823	0.081705
	H118	H	0.613979	0.915115	0.083571
	H119	H	0.386892	0.910713	0.902764
	C120	C	0.378879	0.011800	0.614657
	C121	C	0.622784	0.995114	0.614570
	C122	C	0.622798	0.011497	0.369985
	C123	C	0.378256	0.995775	0.370239
	C124	C	0.619394	0.382806	0.000986
	C125	C	0.621625	0.626545	0.984011
	C126	C	0.381272	0.624261	0.001428
	C127	C	0.379083	0.381632	0.982621
	C128	C	0.008872	0.623918	0.372665
	C129	C	0.991006	0.624677	0.612576
	C130	C	0.009517	0.382283	0.611971
	C131	C	0.992837	0.381903	0.372067
	C132	C	0.878365	0.511495	0.113829
	C133	C	0.121807	0.495105	0.113027
	C134	C	0.122328	0.512028	0.869565
	C135	C	0.876854	0.494340	0.869012
	C136	C	0.121501	0.881041	0.501590
	C137	C	0.121058	0.124531	0.484588
	C138	C	0.880851	0.124391	0.501179
	C139	C	0.880552	0.882228	0.484547
	C140	C	0.509694	0.125403	0.871088
	C141	C	0.491481	0.124837	0.111656
	C142	C	0.509459	0.883219	0.112700
	C143	C	0.491969	0.882282	0.872488
	C144	C	0.380100	0.894483	0.671466
	C145	C	0.620806	0.112886	0.670165
	C146	C	0.625951	0.897465	0.307589
	C147	C	0.377551	0.111955	0.311553
	C148	C	0.677387	0.383994	0.881760
	C149	C	0.681350	0.626376	0.102067
	C150	C	0.322996	0.624212	0.882354
	C151	C	0.316857	0.378592	0.099532
	C152	C	0.891208	0.683210	0.368580
	C153	C	0.108815	0.684577	0.616918
	C154	C	0.891363	0.322689	0.615069
	C155	C	0.109733	0.321334	0.366458
	C156	C	0.890121	0.382454	0.669791
	C157	C	0.109213	0.625396	0.672473
	C158	C	0.890382	0.623818	0.313115
	C159	C	0.110082	0.380178	0.310120
	C160	C	0.378930	0.683251	0.883267
	C161	C	0.626034	0.685809	0.101466
	C162	C	0.622219	0.324572	0.882618
	C163	C	0.372006	0.319123	0.098406
	C164	C	0.683725	0.896963	0.366240
	C165	C	0.679229	0.112779	0.611871
	C166	C	0.321031	0.894754	0.614149
	C167	C	0.319548	0.111634	0.370209
	C168	C	0.873691	0.397552	0.176192
	C169	C	0.127178	0.608610	0.176472
	C170	C	0.124902	0.397272	0.808840
	C171	C	0.875239	0.609177	0.807987
	C172	C	0.181548	0.880392	0.383526
	C173	C	0.178363	0.123443	0.603937
	C174	C	0.820880	0.125572	0.383059
	C175	C	0.823516	0.883862	0.604110
	C176	C	0.391439	0.183929	0.867621
	C177	C	0.609222	0.185157	0.114661
	C178	C	0.391610	0.823014	0.116541
	C179	C	0.611650	0.826832	0.872528
	C180	C	0.389968	0.883455	0.170580
	C181	C	0.610285	0.126135	0.170477
	C182	C	0.390206	0.124051	0.813002
	C183	C	0.612637	0.886361	0.817177
	C184	C	0.876134	0.185236	0.384329
	C185	C	0.124028	0.183719	0.602196
	C186	C	0.125740	0.821241	0.384504
	C187	C	0.878934	0.824556	0.603130
	C188	C	0.183832	0.397862	0.865959
	C189	C	0.184564	0.609157	0.117667
	C190	C	0.816516	0.396973	0.116796
	C191	C	0.815989	0.608776	0.865210
	C192	C	0.402002	0.093258	0.591161
	C193	C	0.600259	0.913150	0.592396
	C194	C	0.597035	0.091233	0.396055
	C195	C	0.403037	0.915077	0.394579
	C196	C	0.594142	0.406212	0.083496
	C197	C	0.595376	0.602793	0.901959
	C198	C	0.406292	0.600392	0.083992
	C199	C	0.406400	0.407543	0.901422
	C200	C	0.091183	0.600090	0.398751
	C201	C	0.908500	0.600850	0.586914
	C202	C	0.092062	0.406445	0.586858
	C203	C	0.911275	0.406573	0.398850
	C204	C	0.904866	0.591598	0.087898
	C205	C	0.094146	0.415974	0.086220
	C206	C	0.097164	0.592088	0.894858
	C207	C	0.901279	0.414149	0.894102
	C208	C	0.096264	0.904906	0.583934
	C209	C	0.096558	0.100991	0.401746
	C210	C	0.906383	0.100323	0.583095
	C211	C	0.905722	0.905592	0.401371
	C212	C	0.592543	0.102737	0.895696
	C213	C	0.409315	0.099645	0.085784
	C214	C	0.591782	0.907657	0.086969
	C215	C	0.408146	0.903712	0.895880
	Zn216	Zn	0.500477	0.003501	0.744620
	Zn217	Zn	0.500250	0.004577	0.240116
	Zn218	Zn	0.747855	0.503742	-0.007611
	Zn219	Zn	0.252098	0.503562	-0.008313
	Zn220	Zn	0.000315	0.752810	0.492591
	Zn221	Zn	0.001553	0.253231	0.492673
	Zn222	Zn	0.000096	0.502732	0.739918
	Zn223	Zn	0.000521	0.503049	0.243940
	Zn224	Zn	0.500824	0.754508	-0.006755
	Zn225	Zn	0.499526	0.253435	-0.008594
	Zn226	Zn	0.752587	0.003037	0.492362
	Zn227	Zn	0.248713	0.003556	0.493294
	N228	N	0.414785	0.968362	0.672450
	N229	N	0.586772	0.038631	0.672444
	N230	N	0.588610	0.969776	0.309680
	N231	N	0.413313	0.038827	0.311236
	N232	N	0.676020	0.419507	0.956471
	N233	N	0.678903	0.590176	0.027707
	N234	N	0.324302	0.588220	0.956872
	N235	N	0.321054	0.416888	0.026374
	N236	N	0.966193	0.683867	0.404605
	N237	N	0.034011	0.684415	0.580567
	N238	N	0.966712	0.322404	0.579928
	N239	N	0.035577	0.322067	0.404168
	N240	N	0.964626	0.418776	0.668295
	N241	N	0.034948	0.588810	0.670014
	N242	N	0.964824	0.587768	0.315128
	N243	N	0.036380	0.417114	0.313446
	N244	N	0.414333	0.683818	0.958500
	N245	N	0.589679	0.686006	0.026930
	N246	N	0.586734	0.323645	0.957792
	N247	N	0.409886	0.320813	0.024473
	N248	N	0.681971	0.968870	0.404405
	N249	N	0.680746	0.038470	0.578344
	N250	N	0.319864	0.968835	0.579821
	N251	N	0.319755	0.038266	0.405825
	N252	N	0.911591	0.469866	0.174384
	N253	N	0.088530	0.536713	0.173712
	N254	N	0.087270	0.469392	0.810848
	N255	N	0.912352	0.536992	0.810064
	N256	N	0.178887	0.917459	0.457323
	N257	N	0.176989	0.087439	0.529526
	N258	N	0.823647	0.088239	0.456654
	N259	N	0.824127	0.918757	0.528929
	N260	N	0.466777	0.185211	0.902788
	N261	N	0.533958	0.184774	0.079058
	N262	N	0.467151	0.822417	0.081418
	N263	N	0.535509	0.824006	0.906044
	N264	N	0.464410	0.920070	0.168537
	N265	N	0.535981	0.089390	0.168772
	N266	N	0.464790	0.088265	0.814952
	N267	N	0.536961	0.919997	0.816739
	N268	N	0.912740	0.184854	0.458838
	N269	N	0.089469	0.184799	0.526673
	N270	N	0.089133	0.821443	0.459002
	N271	N	0.913444	0.823090	0.527321
	N272	N	0.182503	0.470237	0.903169
	N273	N	0.181410	0.537452	0.078950
	N274	N	0.819593	0.468877	0.078400
	N275	N	0.816703	0.536377	0.902422
	O276	O	0.217879	1.219786	0.208965
	H277	H	0.191693	1.211510	0.190182
	H278	H	0.213822	1.183805	0.197686
	O279	O	-0.036273	-0.035046	-0.218952
	H280	H	-0.049540	-0.041210	-0.209536
	H281	H	-0.044007	-0.036268	-0.221919
	O282	O	1.051334	0.192663	1.015942
	H283	H	1.049781	0.197839	1.013549
	H284	H	1.052272	0.202964	1.017963
	O285	O	0.625428	0.361538	0.460634
	H286	H	0.618350	0.367935	0.435378
	H287	H	0.635152	0.353951	0.461521
	O288	O	1.001955	1.004762	-0.136761
	H289	H	0.975865	1.014632	-0.147253
	H290	H	1.016040	0.998154	-0.128870
	O291	O	0.444177	0.269534	0.439692
	H292	H	0.424398	0.275339	0.439481
	H293	H	0.427029	0.263655	0.421679
	O294	O	1.047708	0.003372	1.046648
	H295	H	1.045921	0.002220	1.054214
	H296	H	1.055976	0.011203	1.043227
	O297	O	0.710899	0.334755	0.405341
	H298	H	0.702047	0.338424	0.399164
	H299	H	0.725057	0.332504	0.396831
	O300	O	-0.030022	0.234603	0.767335
	H301	H	-0.048004	0.258768	0.738671
	H302	H	-0.056682	0.223513	0.764473
	O303	O	0.452601	0.491096	0.292405
	H304	H	0.455977	0.489314	0.291163
	H305	H	0.456180	0.493041	0.291044
	O306	O	0.318751	0.322914	0.308013
	H307	H	0.305651	0.310998	0.304356
	H308	H	0.315836	0.319920	0.288573
	O309	O	0.239678	0.764074	0.751543
	H310	H	0.266001	0.732731	0.724058
	H311	H	0.214221	0.754505	0.745134
	O312	O	0.545437	0.725458	0.710825
	H313	H	0.524213	0.721753	0.715092
	H314	H	0.523830	0.731458	0.713874
	O315	O	0.941265	0.762042	0.925881
	H316	H	0.943958	0.764906	0.921065
	H317	H	0.958179	0.760153	0.953374
	O318	O	0.388820	0.565542	0.484769
	H319	H	0.381976	0.545981	0.483191
	H320	H	0.385760	0.569367	0.475751
	O321	O	0.371859	0.542204	0.524101
	H322	H	0.366440	0.545964	0.517649
	H323	H	0.374310	0.529327	0.520786
	O324	O	1.217157	0.774108	-0.039954
	H325	H	1.226924	0.772682	-0.067531
	H326	H	1.235441	0.768904	-0.053028
	O327	O	0.215408	0.053452	1.207096
	H328	H	0.192164	0.024572	1.212238
	H329	H	0.234438	0.043054	1.235763
	O330	O	0.316972	0.458727	0.454637
	H331	H	0.313107	0.440691	0.452855
	H332	H	0.315126	0.442715	0.439081
	O333	O	0.688125	0.312100	0.683267
	H334	H	0.672384	0.331162	0.660557
	H335	H	0.669849	0.327082	0.664075
	O336	O	0.577031	0.530248	0.332002
	H337	H	0.592269	0.528615	0.329036
	H338	H	0.588500	0.518935	0.346314
	O339	O	1.034670	-0.211637	0.785104
	H340	H	1.026968	-0.231976	0.761177
	H341	H	1.041117	-0.204478	0.803459
	O342	O	-0.219056	0.072763	0.020945
	H343	H	-0.204450	0.057096	-0.000471
	H344	H	-0.219624	0.074125	0.007316
	O345	O	-0.332134	0.679231	1.358360
	H346	H	-0.321704	0.698758	1.351980
	H347	H	-0.338223	0.664781	1.379862
	O348	O	-0.198486	0.218497	-0.030285
	H349	H	-0.188686	0.202648	-0.021935
	H350	H	-0.207621	0.230430	-0.018024
	O351	O	1.089532	0.905783	-0.085635
	H352	H	1.094014	0.931203	-0.096162
	H353	H	1.091293	0.902866	-0.103353
	O354	O	0.203990	-0.211136	1.199636
	H355	H	0.222084	-0.217593	1.214461
	H356	H	0.197447	-0.193658	1.188700
	O357	O	0.690763	0.531674	0.566041
	H358	H	0.684265	0.542913	0.572849
	H359	H	0.708240	0.535602	0.586887
	O360	O	0.192474	0.197117	0.803021
	H361	H	0.194374	0.185999	0.837158
	H362	H	0.173559	0.180361	0.805348
	O363	O	0.200264	0.192330	-0.002777
	H364	H	0.197869	0.200350	0.001661
	H365	H	0.213424	0.191271	0.002153
	O366	O	0.608440	0.626633	0.391238
	H367	H	0.609012	0.632710	0.389153
	H368	H	0.611062	0.638074	0.394521
	O369	O	0.704687	0.362028	0.289786
	H370	H	0.705059	0.386835	0.297501
	H371	H	0.693979	0.366213	0.288816
	O372	O	0.957047	0.989204	-0.011171
	H373	H	0.975129	0.990814	-0.032431
	H374	H	0.978134	0.990042	-0.004797
	O375	O	0.796523	-0.000473	0.197529
	H376	H	0.801819	-0.010565	0.187649
	H377	H	0.770527	0.000710	0.200811
	O378	O	0.463775	0.491952	0.716521
	H379	H	0.467940	0.495528	0.714419
	H380	H	0.457269	0.491422	0.713408
	O381	O	-0.190375	0.802614	0.804749
	H382	H	-0.175068	0.837146	0.816253
	H383	H	-0.166508	0.797600	0.837062
	O384	O	0.773285	0.055198	0.763661
	H385	H	0.757399	0.079078	0.745350
	H386	H	0.759921	0.083145	0.751237
	O387	O	0.998873	0.979651	0.221308
	H388	H	0.982749	1.005338	0.226225
	H389	H	0.978092	0.958790	0.212727
	O390	O	0.726432	0.733081	0.523443
	H391	H	0.749723	0.754827	0.541585
	H392	H	0.732446	0.734046	0.557496
	O393	O	0.611911	0.357089	0.399641
	H394	H	0.612686	0.365376	0.403493
	H395	H	0.604428	0.351761	0.390633
	O396	O	0.052087	0.759552	1.054447
	H397	H	0.079638	0.757224	1.055709
	H398	H	0.063432	0.758480	1.057552
	O399	O	0.160894	-0.100616	1.014410
	H400	H	0.160903	-0.111340	0.992321
	H401	H	0.165548	-0.104260	1.019704
	O402	O	0.278270	0.282971	0.525194
	H403	H	0.276791	0.280672	0.553276
	H404	H	0.257275	0.262367	0.549777
	O405	O	1.006011	0.153824	0.895529
	H406	H	1.003054	0.158239	0.901629
	H407	H	1.003241	0.153734	0.875099
	O408	O	0.092544	0.059919	-0.127040
	H409	H	0.106637	0.052816	-0.124772
	H410	H	0.087556	0.071516	-0.131918
	O411	O	0.711384	0.714241	0.697265
	H412	H	0.656335	0.723747	0.706668
	H413	H	0.741063	0.745697	0.733993
	O414	O	0.530995	0.278851	0.270087
	H415	H	0.520528	0.293974	0.262966
	H416	H	0.531307	0.259823	0.250534
	O417	O	0.469309	0.658074	0.616869
	H418	H	0.467163	0.652292	0.601597
	H419	H	0.483272	0.656855	0.601224
	O420	O	0.549110	0.274416	0.561065
	H421	H	0.553476	0.285073	0.538327
	H422	H	0.538593	0.272087	0.539487
	O423	O	-0.086089	0.245227	1.037586
	H424	H	-0.089803	0.246563	1.040265
	H425	H	-0.088201	0.257773	1.049846
	O426	O	0.311459	0.696516	0.309271
	H427	H	0.341690	0.700092	0.316361
	H428	H	0.301997	0.693223	0.310691
	O429	O	0.844444	0.923478	1.061505
	H430	H	0.869640	0.927459	1.065933
	H431	H	0.839311	0.914911	1.057944
	O432	O	0.493552	0.459110	0.603756
	H433	H	0.490265	0.462083	0.596268
	H434	H	0.480968	0.457017	0.595974
	O435	O	0.283495	0.718813	0.461949
	H436	H	0.281302	0.721115	0.457458
	H437	H	0.270042	0.720941	0.453702
	O438	O	0.509220	-0.260476	0.468472
	H439	H	0.522367	-0.260769	0.462026
	H440	H	0.509400	-0.255747	0.460164
	O441	O	-0.184639	0.194443	0.178664
	H442	H	-0.180669	0.181923	0.176319
	H443	H	-0.204398	0.189279	0.181138
	O444	O	0.574223	0.573216	0.425704
	H445	H	0.559033	0.566118	0.433366
	H446	H	0.592812	0.581565	0.440118
	O447	O	0.224765	0.957557	0.769789
	H448	H	0.243799	0.952168	0.744186
	H449	H	0.219728	0.941316	0.765911
	O450	O	-0.200643	0.788047	1.204880
	H451	H	-0.204029	0.812237	1.178506
	H452	H	-0.178015	0.777595	1.212713
	O453	O	0.674431	0.467119	0.327825
	H454	H	0.699586	0.471575	0.323459
	H455	H	0.658534	0.477386	0.341795
	O456	O	0.081837	0.222568	1.142780
	H457	H	0.075360	0.209936	1.124028
	H458	H	0.087559	0.242614	1.155273
	O459	O	0.981196	1.129611	0.218201
	H460	H	0.973825	1.140108	0.222017
	H461	H	0.990671	1.135966	0.214331
	O462	O	0.334842	0.662923	0.673087
	H463	H	0.333242	0.629860	0.663485
	H464	H	0.355047	0.658999	0.646413
	O465	O	0.784001	-0.230601	0.016744
	H466	H	0.748415	-0.261081	0.021841
	H467	H	0.801320	-0.213098	0.025556
	O468	O	0.516352	0.461749	0.547741
	H469	H	0.515882	0.469939	0.561172
	H470	H	0.507835	0.454625	0.550230
	O471	O	0.294416	0.312657	0.692506
	H472	H	0.289414	0.290578	0.721940
	H473	H	0.325750	0.314750	0.700444
	O474	O	0.468899	0.726997	0.274567
	H475	H	0.481741	0.717885	0.269743
	H476	H	0.478444	0.737297	0.255701
	O477	O	0.296985	0.547354	1.281678
	H478	H	0.289329	0.545279	1.272763
	H479	H	0.286070	0.553973	1.274041
	O480	O	0.453666	0.311925	0.704961
	H481	H	0.461049	0.296346	0.723885
	H482	H	0.475195	0.307828	0.685234
	O483	O	0.685483	0.512217	0.697890
	H484	H	0.683537	0.541693	0.690138
	H485	H	0.706778	0.521285	0.723425
	O486	O	0.792507	0.217813	0.783251
	H487	H	0.759034	0.250616	0.754866
	H488	H	0.791183	0.227839	0.831526
	O489	O	0.972103	0.779811	0.208048
	H490	H	0.976316	0.764228	0.214894
	H491	H	0.974082	0.778958	0.206690
	O492	O	0.214101	0.069528	-0.000191
	H493	H	0.218535	0.066212	-0.005638
	H494	H	0.212844	0.063125	0.018309
	O495	O	-0.180527	0.941796	0.932643
	H496	H	-0.183798	0.938426	0.950811
	H497	H	-0.186075	0.958157	0.910931
	O498	O	1.134700	0.970606	1.105005
	H499	H	1.139784	0.961899	1.083060
	H500	H	1.112362	0.964949	1.118797
	O501	O	0.286446	0.482361	0.691215
	H502	H	0.288185	0.460074	0.689739
	H503	H	0.266944	0.475707	0.695573
