data_Molecule from HDF5

_cell_length_a		16.272006
_cell_length_b		16.294918
_cell_length_c		16.263386
_cell_angle_alpha	90.043587
_cell_angle_beta	90.018590
_cell_angle_gamma	90.001428
_symmetry_space_group_name_H-M	'P 1'
_symmetry_Int_Tables_number		1

loop_
	_symmetry_equiv_pos_as_xyz
	x,y,z

loop_
	_atom_site_label
	_atom_site_type_symbol
	_atom_site_fract_x
	_atom_site_fract_y
	_atom_site_fract_z
	H0	H	0.403584	0.836687	0.713683
	H1	H	0.597707	0.164337	0.713784
	H2	H	0.598704	0.836904	0.285222
	H3	H	0.403308	0.164213	0.286570
	H4	H	0.714862	0.401294	0.836958
	H5	H	0.713486	0.598144	0.164115
	H6	H	0.286634	0.597189	0.835237
	H7	H	0.286874	0.402207	0.164317
	H8	H	0.835572	0.714056	0.402183
	H9	H	0.163281	0.714295	0.598406
	H10	H	0.835617	0.286123	0.597706
	H11	H	0.164486	0.286654	0.402436
	H12	H	0.836275	0.401584	0.714350
	H13	H	0.163122	0.598036	0.714490
	H14	H	0.835336	0.597142	0.286829
	H15	H	0.164301	0.403789	0.287263
	H16	H	0.401705	0.713669	0.835492
	H17	H	0.598195	0.714936	0.163770
	H18	H	0.598241	0.285889	0.836059
	H19	H	0.401885	0.285715	0.163936
	H20	H	0.713894	0.836164	0.402652
	H21	H	0.715562	0.163784	0.598735
	H22	H	0.285543	0.836508	0.599118
	H23	H	0.286872	0.163988	0.403069
	H24	H	0.901865	0.335824	0.213711
	H25	H	0.095502	0.663940	0.212703
	H26	H	0.097937	0.335998	0.786255
	H27	H	0.901523	0.663689	0.785719
	H28	H	0.213562	0.901731	0.335953
	H29	H	0.213881	0.097662	0.664040
	H30	H	0.787044	0.097334	0.335740
	H31	H	0.786835	0.902207	0.664181
	H32	H	0.335839	0.214375	0.902021
	H33	H	0.663743	0.214440	0.098147
	H34	H	0.335683	0.786240	0.098531
	H35	H	0.663311	0.785822	0.900909
	H36	H	0.336137	0.903822	0.213465
	H37	H	0.664445	0.098283	0.214415
	H38	H	0.335573	0.098614	0.786073
	H39	H	0.664831	0.903814	0.787343
	H40	H	0.902685	0.213426	0.335877
	H41	H	0.098697	0.214398	0.664134
	H42	H	0.097685	0.785146	0.335912
	H43	H	0.901228	0.785433	0.663900
	H44	H	0.213874	0.336138	0.902512
	H45	H	0.213112	0.663977	0.098053
	H46	H	0.785946	0.335859	0.097877
	H47	H	0.785809	0.664022	0.902714
	H48	H	0.400832	0.118356	0.594139
	H49	H	0.594663	0.886192	0.584848
	H50	H	0.591171	0.116159	0.405266
	H51	H	0.398561	0.883281	0.413543
	H52	H	0.582826	0.410519	0.113181
	H53	H	0.590981	0.596659	0.882889
	H54	H	0.404048	0.591094	0.116884
	H55	H	0.418082	0.402209	0.884946
	H56	H	0.114164	0.589851	0.411602
	H57	H	0.885282	0.588665	0.588893
	H58	H	0.118095	0.398932	0.591874
	H59	H	0.880806	0.407634	0.397347
	H60	H	0.112887	0.410635	0.587753
	H61	H	0.881941	0.591935	0.598178
	H62	H	0.117503	0.590397	0.401017
	H63	H	0.881200	0.397371	0.409384
	H64	H	0.410060	0.593652	0.115618
	H65	H	0.597776	0.593534	0.882396
	H66	H	0.593961	0.395368	0.120834
	H67	H	0.397197	0.399780	0.878412
	H68	H	0.594316	0.115815	0.410085
	H69	H	0.602617	0.879658	0.598514
	H70	H	0.411152	0.116968	0.598071
	H71	H	0.404144	0.879307	0.395786
	H72	H	0.912362	0.616661	0.100286
	H73	H	0.089947	0.381350	0.103849
	H74	H	0.089330	0.613700	0.910353
	H75	H	0.902779	0.382641	0.907131
	H76	H	0.097761	0.896745	0.620704
	H77	H	0.095266	0.090438	0.383469
	H78	H	0.908444	0.096995	0.617827
	H79	H	0.902706	0.902533	0.380659
	H80	H	0.616504	0.097399	0.907573
	H81	H	0.383455	0.093736	0.092968
	H82	H	0.619878	0.905887	0.102941
	H83	H	0.381579	0.903310	0.904848
	H84	H	0.616868	0.898343	0.085892
	H85	H	0.384627	0.092069	0.092933
	H86	H	0.615511	0.091697	0.908013
	H87	H	0.384282	0.906883	0.908834
	H88	H	0.902942	0.092951	0.616918
	H89	H	0.089871	0.093902	0.384395
	H90	H	0.100236	0.915875	0.616238
	H91	H	0.905264	0.912107	0.385226
	H92	H	0.100022	0.617829	0.908580
	H93	H	0.089051	0.386777	0.085936
	H94	H	0.909047	0.613048	0.085704
	H95	H	0.909300	0.383205	0.903643
	H96	H	0.408895	0.114346	0.587347
	H97	H	0.586273	0.884406	0.599438
	H98	H	0.597157	0.118024	0.405584
	H99	H	0.416247	0.886478	0.408283
	H100	H	0.601627	0.413570	0.117705
	H101	H	0.591900	0.589351	0.884484
	H102	H	0.405059	0.597557	0.118029
	H103	H	0.404306	0.418738	0.886232
	H104	H	0.117620	0.599378	0.407435
	H105	H	0.881228	0.598088	0.590584
	H106	H	0.118080	0.409447	0.600309
	H107	H	0.886691	0.411255	0.411935
	H108	H	0.897804	0.618277	0.094953
	H109	H	0.104504	0.379520	0.092540
	H110	H	0.092393	0.618309	0.900621
	H111	H	0.908436	0.386186	0.910210
	H112	H	0.082446	0.907081	0.613970
	H113	H	0.095578	0.096099	0.381908
	H114	H	0.909371	0.090769	0.615226
	H115	H	0.912940	0.904415	0.384559
	H116	H	0.617774	0.094001	0.902676
	H117	H	0.383249	0.093065	0.093777
	H118	H	0.612945	0.916086	0.088756
	H119	H	0.382714	0.908926	0.903875
	C120	C	0.378650	0.008574	0.621815
	C121	C	0.622383	0.991886	0.621903
	C122	C	0.622180	0.008506	0.378627
	C123	C	0.378388	0.991625	0.377954
	C124	C	0.621182	0.378310	0.008646
	C125	C	0.621501	0.621732	0.991645
	C126	C	0.378361	0.621666	0.008060
	C127	C	0.378414	0.378426	0.991635
	C128	C	0.008016	0.621635	0.378320
	C129	C	0.990946	0.621353	0.621184
	C130	C	0.008056	0.378352	0.621379
	C131	C	0.991562	0.377898	0.377944
	C132	C	0.878324	0.507952	0.121885
	C133	C	0.121717	0.491213	0.122018
	C134	C	0.121911	0.508088	0.878273
	C135	C	0.878394	0.491884	0.878632
	C136	C	0.121471	0.878189	0.508419
	C137	C	0.121541	0.121668	0.491816
	C138	C	0.878842	0.121246	0.508271
	C139	C	0.878370	0.877955	0.491626
	C140	C	0.508038	0.122082	0.878014
	C141	C	0.492006	0.121379	0.121511
	C142	C	0.508266	0.878693	0.121112
	C143	C	0.491627	0.878682	0.878072
	C144	C	0.382256	0.885321	0.676102
	C145	C	0.618744	0.115414	0.676131
	C146	C	0.619406	0.885521	0.323282
	C147	C	0.381733	0.115063	0.323732
	C148	C	0.676363	0.381052	0.885420
	C149	C	0.675826	0.618986	0.115326
	C150	C	0.324194	0.617865	0.884184
	C151	C	0.324572	0.381676	0.115472
	C152	C	0.884621	0.676390	0.381316
	C153	C	0.114363	0.676498	0.618994
	C154	C	0.884442	0.323991	0.618180
	C155	C	0.115164	0.323778	0.381466
	C156	C	0.884702	0.381131	0.676136
	C157	C	0.114400	0.618702	0.676505
	C158	C	0.884420	0.618314	0.324015
	C159	C	0.115214	0.381924	0.324232
	C160	C	0.381278	0.675875	0.884459
	C161	C	0.618693	0.677193	0.114724
	C162	C	0.618743	0.323509	0.885256
	C163	C	0.381341	0.323527	0.115041
	C164	C	0.676413	0.885166	0.381630
	C165	C	0.676934	0.115184	0.618828
	C166	C	0.323940	0.885280	0.619171
	C167	C	0.324123	0.115092	0.381592
	C168	C	0.881535	0.384528	0.175996
	C169	C	0.117417	0.614953	0.175900
	C170	C	0.119047	0.384975	0.823573
	C171	C	0.881116	0.614998	0.823932
	C172	C	0.175850	0.881091	0.384845
	C173	C	0.176259	0.118731	0.615172
	C174	C	0.824388	0.118191	0.384705
	C175	C	0.823895	0.880993	0.615093
	C176	C	0.384574	0.176326	0.881649
	C177	C	0.615056	0.176447	0.118746
	C178	C	0.384915	0.823891	0.118935
	C179	C	0.614787	0.823847	0.880715
	C180	C	0.384899	0.882129	0.176125
	C181	C	0.615446	0.119007	0.176499
	C182	C	0.384475	0.118996	0.823759
	C183	C	0.615299	0.882477	0.824176
	C184	C	0.881848	0.175823	0.384819
	C185	C	0.118949	0.176837	0.615026
	C186	C	0.118599	0.823026	0.385102
	C187	C	0.880967	0.823255	0.615079
	C188	C	0.176457	0.385010	0.881674
	C189	C	0.175606	0.615001	0.118747
	C190	C	0.823522	0.384767	0.118805
	C191	C	0.823438	0.615079	0.881905
	C192	C	0.400532	0.094408	0.599657
	C193	C	0.600875	0.905621	0.600480
	C194	C	0.600398	0.094511	0.400429
	C195	C	0.399996	0.905341	0.399522
	C196	C	0.599315	0.400007	0.094928
	C197	C	0.599776	0.599577	0.905567
	C198	C	0.399926	0.600427	0.094508
	C199	C	0.400067	0.400330	0.905537
	C200	C	0.094307	0.599654	0.400282
	C201	C	0.904972	0.599338	0.599058
	C202	C	0.094206	0.400164	0.599835
	C203	C	0.905222	0.399380	0.399666
	C204	C	0.900111	0.593849	0.100058
	C205	C	0.100725	0.404863	0.100489
	C206	C	0.100183	0.594387	0.900026
	C207	C	0.900348	0.406015	0.900417
	C208	C	0.099970	0.899969	0.594861
	C209	C	0.099880	0.099806	0.405487
	C210	C	0.900441	0.099963	0.594307
	C211	C	0.900402	0.899764	0.405685
	C212	C	0.594494	0.100723	0.899581
	C213	C	0.405963	0.099291	0.099637
	C214	C	0.594330	0.900535	0.099038
	C215	C	0.405106	0.900116	0.899603
	Zn216	Zn	0.500109	0.000581	0.750000
	Zn217	Zn	0.500621	0.000258	0.250243
	Zn218	Zn	0.749637	0.499740	0.000577
	Zn219	Zn	0.250463	0.500289	0.000428
	Zn220	Zn	-0.000283	0.749926	0.500306
	Zn221	Zn	-0.000325	0.250017	0.500050
	Zn222	Zn	-0.000153	0.499839	0.749603
	Zn223	Zn	-0.000191	0.499504	0.249871
	Zn224	Zn	0.499600	0.750241	-0.000686
	Zn225	Zn	0.499784	0.250083	-0.000244
	Zn226	Zn	0.750408	-0.000367	0.500012
	Zn227	Zn	0.250001	-0.000155	0.499853
	N228	N	0.415733	0.962763	0.677607
	N229	N	0.585389	0.037835	0.678044
	N230	N	0.586153	0.963139	0.321486
	N231	N	0.414719	0.037254	0.321503
	N232	N	0.677976	0.414433	0.963183
	N233	N	0.677830	0.585183	0.037860
	N234	N	0.321977	0.585035	0.962091
	N235	N	0.322554	0.415161	0.037962
	N236	N	0.962182	0.678212	0.414507
	N237	N	0.036874	0.677967	0.585350
	N238	N	0.962026	0.322097	0.584958
	N239	N	0.037302	0.321417	0.414243
	N240	N	0.962476	0.414287	0.678077
	N241	N	0.036761	0.585074	0.677931
	N242	N	0.962164	0.585002	0.321999
	N243	N	0.037370	0.414726	0.321975
	N244	N	0.414288	0.678145	0.962236
	N245	N	0.585763	0.678905	0.036857
	N246	N	0.584953	0.322029	0.962635
	N247	N	0.414049	0.321321	0.037044
	N248	N	0.678196	0.962699	0.415096
	N249	N	0.679379	0.037356	0.585967
	N250	N	0.321448	0.962855	0.586076
	N251	N	0.322055	0.037398	0.414583
	N252	N	0.914724	0.462007	0.178155
	N253	N	0.084889	0.537100	0.178035
	N254	N	0.085711	0.462500	0.821516
	N255	N	0.914551	0.537568	0.821893
	N256	N	0.177710	0.914719	0.462538
	N257	N	0.178058	0.085210	0.537560
	N258	N	0.822419	0.084919	0.462232
	N259	N	0.821886	0.913931	0.537253
	N260	N	0.462386	0.178382	0.914649
	N261	N	0.537371	0.178299	0.085492
	N262	N	0.462427	0.821982	0.085247
	N263	N	0.536956	0.821555	0.913508
	N264	N	0.462567	0.915412	0.177788
	N265	N	0.537893	0.085399	0.178276
	N266	N	0.462248	0.085885	0.821724
	N267	N	0.537761	0.916006	0.822632
	N268	N	0.915106	0.177863	0.462559
	N269	N	0.085678	0.178663	0.537266
	N270	N	0.085455	0.821364	0.462822
	N271	N	0.914175	0.821395	0.537418
	N272	N	0.178216	0.462648	0.915010
	N273	N	0.178293	0.537244	0.085768
	N274	N	0.821358	0.462422	0.085963
	N275	N	0.821811	0.537612	0.915467
