data_Molecule from HDF5

_cell_length_a		16.081165
_cell_length_b		16.388182
_cell_length_c		16.533187
_cell_angle_alpha	89.883656
_cell_angle_beta	89.867875
_cell_angle_gamma	90.219035
_symmetry_space_group_name_H-M	'P 1'
_symmetry_Int_Tables_number		1

loop_
	_symmetry_equiv_pos_as_xyz
	x,y,z

loop_
	_atom_site_label
	_atom_site_type_symbol
	_atom_site_fract_x
	_atom_site_fract_y
	_atom_site_fract_z
	H0	H	0.405343	0.829740	0.722801
	H1	H	0.617906	0.149291	0.721634
	H2	H	0.619911	0.830252	0.279655
	H3	H	0.400234	0.145381	0.275711
	H4	H	0.725655	0.393235	0.838894
	H5	H	0.729234	0.590000	0.160321
	H6	H	0.291861	0.592448	0.840575
	H7	H	0.291890	0.388240	0.160121
	H8	H	0.847901	0.708085	0.398164
	H9	H	0.173662	0.705370	0.601957
	H10	H	0.846098	0.271463	0.602615
	H11	H	0.173961	0.275999	0.400870
	H12	H	0.845700	0.385293	0.718599
	H13	H	0.170592	0.596185	0.721265
	H14	H	0.848282	0.595623	0.280870
	H15	H	0.172320	0.385889	0.282446
	H16	H	0.407645	0.710445	0.841909
	H17	H	0.617849	0.710951	0.159487
	H18	H	0.616919	0.269003	0.842333
	H19	H	0.401884	0.266003	0.158042
	H20	H	0.726617	0.827457	0.403742
	H21	H	0.726228	0.151933	0.598454
	H22	H	0.292986	0.828477	0.603427
	H23	H	0.298162	0.152040	0.403876
	H24	H	0.898574	0.332093	0.224711
	H25	H	0.121545	0.646662	0.224906
	H26	H	0.114221	0.329818	0.779905
	H27	H	0.897390	0.645802	0.774983
	H28	H	0.235791	0.884785	0.343657
	H29	H	0.228562	0.091796	0.661075
	H30	H	0.791126	0.091278	0.341963
	H31	H	0.792803	0.887798	0.661580
	H32	H	0.349631	0.207934	0.896391
	H33	H	0.672897	0.208319	0.104169
	H34	H	0.349755	0.766809	0.106763
	H35	H	0.675019	0.774300	0.898892
	H36	H	0.351756	0.876175	0.227364
	H37	H	0.673203	0.094229	0.220829
	H38	H	0.351785	0.096908	0.779798
	H39	H	0.672938	0.884975	0.782543
	H40	H	0.901323	0.213213	0.343600
	H41	H	0.115722	0.211885	0.659061
	H42	H	0.122394	0.764341	0.345115
	H43	H	0.902266	0.764662	0.658294
	H44	H	0.226641	0.328333	0.899629
	H45	H	0.231891	0.649022	0.103786
	H46	H	0.791726	0.328413	0.100249
	H47	H	0.794858	0.651067	0.900162
	H48	H	0.422823	0.104377	0.596860
	H49	H	0.599349	0.876022	0.590724
	H50	H	0.598839	0.103866	0.406785
	H51	H	0.421216	0.874280	0.410804
	H52	H	0.603168	0.392099	0.116168
	H53	H	0.604361	0.579103	0.886797
	H54	H	0.418120	0.565732	0.109403
	H55	H	0.414084	0.398809	0.885859
	H56	H	0.123141	0.574977	0.418008
	H57	H	0.895147	0.575047	0.587244
	H58	H	0.124414	0.399711	0.586191
	H59	H	0.892875	0.402270	0.409940
	H60	H	0.124435	0.406882	0.592727
	H61	H	0.892729	0.576174	0.591877
	H62	H	0.126038	0.571830	0.406873
	H63	H	0.892718	0.398831	0.410232
	H64	H	0.436547	0.581794	0.108915
	H65	H	0.596262	0.582997	0.888532
	H66	H	0.603017	0.403587	0.113495
	H67	H	0.425237	0.401468	0.889176
	H68	H	0.596287	0.101678	0.411288
	H69	H	0.605445	0.872651	0.596727
	H70	H	0.423501	0.103584	0.593734
	H71	H	0.429149	0.876779	0.411223
	H72	H	0.921965	0.603807	0.092836
	H73	H	0.101049	0.373243	0.096301
	H74	H	0.095250	0.601322	0.911784
	H75	H	0.926897	0.377448	0.910111
	H76	H	0.096356	0.901503	0.612626
	H77	H	0.107547	0.079809	0.386994
	H78	H	0.914713	0.082917	0.616668
	H79	H	0.921879	0.901600	0.390238
	H80	H	0.626459	0.071153	0.911474
	H81	H	0.392768	0.079697	0.093161
	H82	H	0.625557	0.897794	0.085598
	H83	H	0.395574	0.902160	0.913226
	H84	H	0.624554	0.907813	0.090511
	H85	H	0.397664	0.075728	0.084494
	H86	H	0.632436	0.082945	0.904455
	H87	H	0.394356	0.900278	0.910444
	H88	H	0.922758	0.075749	0.612461
	H89	H	0.096931	0.079519	0.390289
	H90	H	0.096758	0.895603	0.613451
	H91	H	0.924493	0.896232	0.388524
	H92	H	0.100313	0.603621	0.910972
	H93	H	0.091523	0.377750	0.093447
	H94	H	0.924123	0.604199	0.092145
	H95	H	0.913914	0.374080	0.913045
	H96	H	0.420329	0.105454	0.594436
	H97	H	0.596488	0.875050	0.599401
	H98	H	0.601707	0.103635	0.411563
	H99	H	0.424404	0.877293	0.417795
	H100	H	0.593609	0.396863	0.112353
	H101	H	0.603455	0.587833	0.885062
	H102	H	0.414519	0.588412	0.118689
	H103	H	0.423037	0.391089	0.885019
	H104	H	0.128230	0.583193	0.410794
	H105	H	0.893254	0.580013	0.588244
	H106	H	0.128619	0.397863	0.595318
	H107	H	0.893254	0.401006	0.413110
	H108	H	0.922428	0.603243	0.090780
	H109	H	0.099585	0.377192	0.086605
	H110	H	0.096604	0.603302	0.906974
	H111	H	0.918201	0.371721	0.900886
	H112	H	0.102318	0.899124	0.614088
	H113	H	0.101383	0.088845	0.385823
	H114	H	0.925734	0.086955	0.613979
	H115	H	0.919036	0.897661	0.386829
	H116	H	0.627597	0.084119	0.918551
	H117	H	0.396462	0.069821	0.092788
	H118	H	0.629153	0.899055	0.096782
	H119	H	0.394650	0.899326	0.914082
	C120	C	0.389793	-0.001650	0.625253
	C121	C	0.632539	0.981005	0.624581
	C122	C	0.631970	-0.002569	0.379901
	C123	C	0.391263	0.980513	0.380770
	C124	C	0.631962	0.368224	0.008364
	C125	C	0.633325	0.612985	0.992133
	C126	C	0.389810	0.611228	0.008433
	C127	C	0.388557	0.366043	0.991598
	C128	C	0.019014	0.610179	0.379503
	C129	C	1.000753	0.609779	0.621562
	C130	C	0.017885	0.369382	0.621945
	C131	C	1.000617	0.369449	0.379926
	C132	C	0.889257	0.498170	0.122414
	C133	C	0.131823	0.480873	0.123382
	C134	C	0.129824	0.497491	0.878798
	C135	C	0.887805	0.480359	0.877722
	C136	C	0.132611	0.867206	0.509399
	C137	C	0.132773	0.112803	0.492892
	C138	C	0.888692	0.112369	0.509486
	C139	C	0.889060	0.866683	0.492954
	C140	C	0.521329	0.110639	0.880028
	C141	C	0.502355	0.108430	0.122205
	C142	C	0.520018	0.867364	0.123501
	C143	C	0.502463	0.869623	0.881272
	C144	C	0.387274	0.877855	0.683467
	C145	C	0.635059	0.101657	0.681801
	C146	C	0.636263	0.877563	0.320676
	C147	C	0.385172	0.098967	0.318181
	C148	C	0.688596	0.371253	0.887817
	C149	C	0.690879	0.610615	0.112483
	C150	C	0.330722	0.611880	0.888644
	C151	C	0.330261	0.367554	0.111826
	C152	C	0.896870	0.669550	0.378503
	C153	C	0.123978	0.667474	0.621379
	C154	C	0.895022	0.310454	0.621798
	C155	C	0.124532	0.313425	0.380711
	C156	C	0.894694	0.367163	0.679423
	C157	C	0.122293	0.613180	0.681266
	C158	C	0.896870	0.612755	0.320782
	C159	C	0.123374	0.368127	0.321673
	C160	C	0.388295	0.670857	0.889356
	C161	C	0.635308	0.670938	0.111901
	C162	C	0.634091	0.309695	0.889311
	C163	C	0.385305	0.306742	0.110890
	C164	C	0.689627	0.876225	0.382380
	C165	C	0.689256	0.102968	0.620756
	C166	C	0.331176	0.877140	0.623950
	C167	C	0.334313	0.102358	0.382002
	C168	C	0.883230	0.378983	0.182883
	C169	C	0.137591	0.599535	0.183935
	C170	C	0.132209	0.377605	0.819633
	C171	C	0.882544	0.599290	0.816665
	C172	C	0.195082	0.865842	0.391110
	C173	C	0.190334	0.111959	0.612901
	C174	C	0.829596	0.111600	0.389922
	C175	C	0.830615	0.867120	0.613114
	C176	C	0.399007	0.169379	0.878049
	C177	C	0.624129	0.168858	0.123557
	C178	C	0.398542	0.805920	0.125845
	C179	C	0.625491	0.812083	0.880291
	C180	C	0.399431	0.860793	0.185646
	C181	C	0.624346	0.112145	0.181583
	C182	C	0.399929	0.113790	0.819819
	C183	C	0.624757	0.867774	0.822579
	C184	C	0.885185	0.171913	0.390606
	C185	C	0.134180	0.171961	0.611738
	C186	C	0.138484	0.805721	0.391568
	C187	C	0.885352	0.805970	0.611468
	C188	C	0.188322	0.376720	0.879118
	C189	C	0.192641	0.600673	0.123486
	C190	C	0.829689	0.377239	0.121192
	C191	C	0.831207	0.601849	0.878955
	C192	C	0.414911	0.082531	0.601946
	C193	C	0.607791	0.896511	0.602214
	C194	C	0.606292	0.081183	0.403046
	C195	C	0.417338	0.897716	0.405759
	C196	C	0.607117	0.390974	0.092330
	C197	C	0.608604	0.590150	0.908669
	C198	C	0.415403	0.585995	0.090976
	C199	C	0.413767	0.390015	0.908275
	C200	C	0.103815	0.584382	0.404646
	C201	C	0.915554	0.584510	0.596599
	C202	C	0.103417	0.394212	0.598286
	C203	C	0.915267	0.393514	0.404022
	C204	C	0.915332	0.581689	0.098786
	C205	C	0.105055	0.397659	0.099137
	C206	C	0.104725	0.581068	0.903014
	C207	C	0.912643	0.396365	0.901095
	C208	C	0.106069	0.891701	0.591834
	C209	C	0.108883	0.089285	0.409406
	C210	C	0.913984	0.088711	0.592772
	C211	C	0.914506	0.891279	0.410094
	C212	C	0.606601	0.086253	0.904561
	C213	C	0.417626	0.082370	0.097451
	C214	C	0.604466	0.893927	0.098160
	C215	C	0.417213	0.893850	0.905661
	Zn216	Zn	0.511860	-0.010162	0.753932
	Zn217	Zn	0.511182	-0.011562	0.250692
	Zn218	Zn	0.761644	0.490326	-0.000038
	Zn219	Zn	0.259472	0.488706	0.000042
	Zn220	Zn	0.010481	0.737179	0.500843
	Zn221	Zn	0.010231	0.242110	0.500555
	Zn222	Zn	0.008504	0.489425	0.749521
	Zn223	Zn	0.009697	0.489379	0.251964
	Zn224	Zn	0.511516	0.741879	0.000659
	Zn225	Zn	0.510809	0.237294	0.001022
	Zn226	Zn	0.760198	-0.010617	0.501844
	Zn227	Zn	0.262210	-0.009790	0.501949
	N228	N	0.422768	0.954394	0.684544
	N229	N	0.600692	0.024595	0.684309
	N230	N	0.601073	0.953912	0.319028
	N231	N	0.419521	0.022127	0.316833
	N232	N	0.687264	0.406821	0.962918
	N233	N	0.689801	0.575615	0.036948
	N234	N	0.331233	0.575633	0.963856
	N235	N	0.332044	0.403659	0.036741
	N236	N	0.974152	0.668293	0.413933
	N237	N	0.047003	0.665646	0.585184
	N238	N	0.972776	0.311581	0.586785
	N239	N	0.047072	0.313805	0.415849
	N240	N	0.972117	0.403028	0.679695
	N241	N	0.044473	0.578306	0.681628
	N242	N	0.974005	0.576885	0.321204
	N243	N	0.045169	0.401980	0.320809
	N244	N	0.424196	0.670501	0.964650
	N245	N	0.600352	0.672615	0.036137
	N246	N	0.599255	0.307794	0.965523
	N247	N	0.420515	0.305556	0.034926
	N248	N	0.687111	0.951741	0.418416
	N249	N	0.687691	0.027047	0.585738
	N250	N	0.332710	0.953051	0.588507
	N251	N	0.337648	0.027808	0.419917
	N252	N	0.919419	0.455002	0.183844
	N253	N	0.100097	0.524051	0.183831
	N254	N	0.096587	0.453911	0.819214
	N255	N	0.917322	0.522744	0.815864
	N256	N	0.191418	0.903579	0.465237
	N257	N	0.189570	0.075866	0.538020
	N258	N	0.831893	0.075154	0.464773
	N259	N	0.832802	0.904439	0.538511
	N260	N	0.475430	0.167265	0.915048
	N261	N	0.547139	0.166845	0.087552
	N262	N	0.474579	0.809905	0.087966
	N263	N	0.548384	0.813112	0.916592
	N264	N	0.475940	0.898271	0.184284
	N265	N	0.547394	0.075248	0.180824
	N266	N	0.477004	0.078135	0.820868
	N267	N	0.547285	0.902817	0.823006
	N268	N	0.921079	0.172581	0.466083
	N269	N	0.099059	0.172698	0.536058
	N270	N	0.099946	0.806855	0.465828
	N271	N	0.921211	0.805666	0.535943
	N272	N	0.187019	0.452144	0.915156
	N273	N	0.188875	0.525985	0.086127
	N274	N	0.833362	0.452377	0.084141
	N275	N	0.834327	0.527165	0.916314
	O276	O	0.420209	0.366289	0.652127
	H277	H	0.417501	0.360363	0.649583
	H278	H	0.411263	0.361415	0.653391
	O279	O	0.501627	0.367483	0.360838
	H280	H	0.520208	0.356435	0.371833
	H281	H	0.512492	0.363064	0.346127
	O282	O	1.146210	-0.200979	0.810482
	H283	H	1.147762	-0.180764	0.822008
	H284	H	1.152586	-0.201787	0.829249
	O285	O	0.929302	0.793202	0.946060
	H286	H	0.917032	0.802079	0.935960
	H287	H	0.910233	0.787231	0.938163
	O288	O	0.820102	1.030133	0.833972
	H289	H	0.808137	1.029845	0.822443
	H290	H	0.832862	1.040115	0.830312
	O291	O	-0.021732	0.773919	0.212321
	H292	H	-0.025976	0.744226	0.253496
	H293	H	-0.015100	0.810746	0.214900
	O294	O	0.096735	0.926271	1.173119
	H295	H	0.111849	0.934854	1.173397
	H296	H	0.087934	0.923987	1.166109
	O297	O	0.540796	0.496235	0.571150
	H298	H	0.532892	0.490423	0.589116
	H299	H	0.544653	0.494693	0.568712
	O300	O	1.108476	-0.219204	0.050860
	H301	H	1.071027	-0.224949	0.054970
	H302	H	1.093528	-0.237233	0.058572
	O303	O	-0.172591	0.817657	1.184788
	H304	H	-0.180220	0.860372	1.187372
	H305	H	-0.137296	0.815161	1.190807
	O306	O	0.616518	0.553607	0.539295
	H307	H	0.624961	0.558503	0.536307
	H308	H	0.624512	0.543282	0.533634
	O309	O	0.442570	0.589858	0.528490
	H310	H	0.437646	0.592172	0.521914
	H311	H	0.443347	0.578548	0.526403
	O312	O	0.132287	0.135441	-0.065362
	H313	H	0.145700	0.123174	-0.078116
	H314	H	0.111133	0.136296	-0.066920
	O315	O	0.459915	1.395667	-0.530801
	H316	H	0.464909	1.417264	-0.530893
	H317	H	0.463983	1.393835	-0.537293
	O318	O	-0.128123	0.972158	0.884705
	H319	H	-0.122924	0.966852	0.891254
	H320	H	-0.134082	0.974713	0.907082
	O321	O	1.220624	0.020486	1.212851
	H322	H	1.260033	0.014774	1.231469
	H323	H	1.225150	-0.001246	1.176827
	O324	O	0.508583	0.343360	-0.400932
	H325	H	0.504057	0.338372	-0.402766
	H326	H	0.522341	0.351459	-0.404340
	O327	O	0.456870	0.528637	0.339601
	H328	H	0.452568	0.529241	0.332255
	H329	H	0.449068	0.523190	0.331972
	O330	O	0.178637	0.176675	1.190553
	H331	H	0.189856	0.186395	1.143280
	H332	H	0.193017	0.125791	1.201064
	O333	O	-0.176360	0.169624	0.989889
	H334	H	-0.168020	0.166639	0.997012
	H335	H	-0.180288	0.174587	0.996998
	O336	O	0.397747	0.452883	0.408621
	H337	H	0.404813	0.432389	0.425900
	H338	H	0.412391	0.446500	0.397721
	O339	O	0.994709	-0.163689	-0.211099
	H340	H	1.010588	-0.178524	-0.225581
	H341	H	1.026845	-0.165323	-0.213824
	O342	O	-0.003021	-0.058569	-0.076188
	H343	H	-0.001209	-0.072823	-0.085441
	H344	H	-0.005937	-0.057167	-0.076687
	O345	O	0.531559	-0.357417	1.383312
	H346	H	0.526645	-0.339270	1.370794
	H347	H	0.515043	-0.371166	1.387462
	O348	O	0.832284	0.783790	0.001698
	H349	H	0.840563	0.798133	0.034658
	H350	H	0.802144	0.767858	0.000820
	O351	O	0.597075	0.582195	0.449803
	H352	H	0.598729	0.597591	0.447072
	H353	H	0.582357	0.590198	0.454923
	O354	O	0.837986	-0.012024	1.047251
	H355	H	0.839489	-0.009618	1.050042
	H356	H	0.836653	-0.005958	1.043986
	O357	O	0.133385	0.016686	0.814099
	H358	H	0.126287	0.021720	0.798017
	H359	H	0.113546	-0.013581	0.823068
	O360	O	0.577076	0.538525	0.569552
	H361	H	0.569526	0.540955	0.570409
	H362	H	0.575785	0.545986	0.563699
	O363	O	-0.068770	1.179735	0.867116
	H364	H	-0.082641	1.166397	0.871084
	H365	H	-0.062235	1.183419	0.892835
	O366	O	0.509439	0.558547	0.558087
	H367	H	0.506002	0.556717	0.564673
	H368	H	0.501877	0.559935	0.553855
	O369	O	0.215277	1.191612	0.025316
	H370	H	0.221965	1.168605	-0.001446
	H371	H	0.234140	1.212486	0.019198
	O372	O	0.013953	1.203756	0.214345
	H373	H	0.028516	1.225194	0.237181
	H374	H	0.058055	1.203895	0.213054
	O375	O	-0.140136	-0.012449	1.201934
	H376	H	-0.128589	0.007872	1.199597
	H377	H	-0.150944	0.001530	1.212180
	O378	O	0.583256	0.468673	0.407709
	H379	H	0.576926	0.478961	0.411236
	H380	H	0.587318	0.474296	0.412772
	O381	O	1.027119	0.141564	-0.184071
	H382	H	1.022451	0.146071	-0.182862
	H383	H	1.002163	0.143194	-0.188341
	O384	O	0.967398	1.003367	0.158054
	H385	H	0.978084	1.023170	0.156710
	H386	H	0.971447	1.011085	0.148393
	O387	O	0.204253	-0.090334	-0.164949
	H388	H	0.198047	-0.095975	-0.182953
	H389	H	0.184808	-0.085769	-0.148782
	O390	O	0.205207	0.971982	0.039958
	H391	H	0.200379	0.950760	0.034268
	H392	H	0.194910	0.966487	0.014004
	O393	O	0.954894	1.174695	1.092129
	H394	H	0.966211	1.168865	1.106048
	H395	H	0.978963	1.186002	1.107974
	O396	O	0.489701	0.486380	0.556349
	H397	H	0.488488	0.475372	0.555433
	H398	H	0.503728	0.491488	0.561186
	O399	O	0.011564	0.992646	0.971164
	H400	H	0.007331	0.987563	0.961417
	H401	H	-0.004153	0.994919	0.978568
	O402	O	0.162637	0.872947	-0.049136
	H403	H	0.138870	0.871174	-0.040038
	H404	H	0.171812	0.851995	-0.046990
	O405	O	1.578716	1.446386	0.424295
	H406	H	1.592382	1.449924	0.431420
	H407	H	1.577835	1.452032	0.425324
	O408	O	0.359607	1.401249	-0.356899
	H409	H	0.341601	1.387537	-0.346767
	H410	H	0.360099	1.393333	-0.363948
	O411	O	0.630469	-0.539601	0.462926
	H412	H	0.636111	-0.523147	0.468669
	H413	H	0.620756	-0.538900	0.464303
	O414	O	0.480242	0.399560	0.378247
	H415	H	0.479766	0.408297	0.375088
	H416	H	0.492025	0.397751	0.375198
	O417	O	0.383534	0.480741	0.480412
	H418	H	0.370693	0.465658	0.481299
	H419	H	0.377092	0.478256	0.480773
