data_Molecule from HDF5

_cell_length_a		16.349967
_cell_length_b		16.219076
_cell_length_c		16.271625
_cell_angle_alpha	90.152172
_cell_angle_beta	89.798717
_cell_angle_gamma	90.021520
_symmetry_space_group_name_H-M	'P 1'
_symmetry_Int_Tables_number		1

loop_
	_symmetry_equiv_pos_as_xyz
	x,y,z

loop_
	_atom_site_label
	_atom_site_type_symbol
	_atom_site_fract_x
	_atom_site_fract_y
	_atom_site_fract_z
	H0	H	0.402503	0.829520	0.707367
	H1	H	0.599004	0.157828	0.706016
	H2	H	0.600050	0.829833	0.278922
	H3	H	0.404528	0.158140	0.279847
	H4	H	0.717358	0.393446	0.829372
	H5	H	0.717686	0.593602	0.156595
	H6	H	0.287743	0.592228	0.829576
	H7	H	0.285463	0.393991	0.156620
	H8	H	0.839139	0.706159	0.397830
	H9	H	0.165800	0.707306	0.591181
	H10	H	0.838165	0.280071	0.590570
	H11	H	0.166096	0.279566	0.395765
	H12	H	0.838945	0.394172	0.708959
	H13	H	0.165517	0.591416	0.707741
	H14	H	0.838839	0.591440	0.280053
	H15	H	0.165261	0.394442	0.277014
	H16	H	0.406261	0.705807	0.828617
	H17	H	0.600288	0.708559	0.157285
	H18	H	0.599790	0.279050	0.829270
	H19	H	0.404125	0.279676	0.158077
	H20	H	0.716833	0.829793	0.392777
	H21	H	0.715848	0.156821	0.591979
	H22	H	0.286323	0.830057	0.592692
	H23	H	0.287118	0.157414	0.394357
	H24	H	0.902963	0.329216	0.207462
	H25	H	0.099650	0.657792	0.206838
	H26	H	0.099952	0.329108	0.779204
	H27	H	0.905724	0.657893	0.781828
	H28	H	0.218734	0.892536	0.330353
	H29	H	0.216913	0.093329	0.656439
	H30	H	0.787324	0.093182	0.330213
	H31	H	0.786042	0.894331	0.656242
	H32	H	0.337858	0.206733	0.896447
	H33	H	0.665462	0.208470	0.090689
	H34	H	0.338169	0.779131	0.091333
	H35	H	0.665295	0.778823	0.895328
	H36	H	0.339042	0.894417	0.209638
	H37	H	0.665562	0.093368	0.207348
	H38	H	0.338807	0.091492	0.778848
	H39	H	0.665043	0.893447	0.776825
	H40	H	0.906097	0.205572	0.328987
	H41	H	0.099123	0.207393	0.657325
	H42	H	0.101037	0.777776	0.329622
	H43	H	0.904775	0.780631	0.657610
	H44	H	0.216741	0.329580	0.893482
	H45	H	0.215880	0.657727	0.091831
	H46	H	0.786667	0.329686	0.093033
	H47	H	0.787896	0.656651	0.894540
	H48	H	0.407701	0.110877	0.586784
	H49	H	0.588196	0.876850	0.588088
	H50	H	0.600588	0.113810	0.395617
	H51	H	0.412017	0.877148	0.397330
	H52	H	0.584274	0.400654	0.106841
	H53	H	0.591868	0.578869	0.880218
	H54	H	0.403429	0.578897	0.108924
	H55	H	0.401366	0.404175	0.875638
	H56	H	0.121027	0.597619	0.404241
	H57	H	0.886600	0.591357	0.582633
	H58	H	0.119121	0.393907	0.584174
	H59	H	0.884564	0.393620	0.399186
	H60	H	0.115002	0.405194	0.582012
	H61	H	0.888068	0.580023	0.587162
	H62	H	0.113379	0.575751	0.407866
	H63	H	0.888553	0.401853	0.404180
	H64	H	0.415882	0.585535	0.107061
	H65	H	0.591691	0.593560	0.876079
	H66	H	0.600703	0.392312	0.114225
	H67	H	0.415373	0.404195	0.880207
	H68	H	0.589279	0.109946	0.399141
	H69	H	0.597213	0.876767	0.578222
	H70	H	0.410462	0.109569	0.586458
	H71	H	0.412018	0.878990	0.405426
	H72	H	0.912754	0.609120	0.086592
	H73	H	0.097053	0.376247	0.082590
	H74	H	0.097742	0.611198	0.900920
	H75	H	0.910647	0.377664	0.903971
	H76	H	0.098201	0.904673	0.609305
	H77	H	0.097517	0.086489	0.376242
	H78	H	0.909953	0.076990	0.606604
	H79	H	0.906076	0.899190	0.375308
	H80	H	0.617426	0.079568	0.893393
	H81	H	0.390245	0.078703	0.082022
	H82	H	0.615710	0.906557	0.085666
	H83	H	0.385586	0.899332	0.898889
	H84	H	0.619958	0.898143	0.092239
	H85	H	0.383921	0.085516	0.096934
	H86	H	0.620709	0.093692	0.895886
	H87	H	0.386600	0.899549	0.900371
	H88	H	0.913855	0.094780	0.610757
	H89	H	0.096453	0.082913	0.376925
	H90	H	0.089845	0.903064	0.607258
	H91	H	0.909405	0.902400	0.377558
	H92	H	0.095896	0.611546	0.899397
	H93	H	0.094248	0.376052	0.087245
	H94	H	0.908507	0.609777	0.081941
	H95	H	0.903667	0.374148	0.900281
	H96	H	0.408203	0.110245	0.584859
	H97	H	0.600412	0.873282	0.590389
	H98	H	0.598130	0.108875	0.407170
	H99	H	0.404984	0.875296	0.401564
	H100	H	0.600500	0.411481	0.108258
	H101	H	0.604684	0.585104	0.874586
	H102	H	0.404667	0.592995	0.112986
	H103	H	0.409466	0.391557	0.874583
	H104	H	0.121330	0.582508	0.385804
	H105	H	0.883802	0.589461	0.594625
	H106	H	0.119895	0.401967	0.592689
	H107	H	0.885697	0.402774	0.394548
	H108	H	0.907007	0.611469	0.087811
	H109	H	0.091323	0.378083	0.082716
	H110	H	0.096229	0.609611	0.901414
	H111	H	0.911289	0.375336	0.895849
	H112	H	0.094806	0.896302	0.611532
	H113	H	0.094399	0.086178	0.377031
	H114	H	0.897059	0.088174	0.613702
	H115	H	0.911404	0.897361	0.376657
	H116	H	0.614909	0.085275	0.906770
	H117	H	0.384248	0.095767	0.083119
	H118	H	0.617059	0.896363	0.081121
	H119	H	0.386387	0.901071	0.900201
	C120	C	0.380087	0.001853	0.614567
	C121	C	0.622812	0.984574	0.613924
	C122	C	0.624267	0.002384	0.371476
	C123	C	0.381108	0.985452	0.372348
	C124	C	0.623679	0.372108	0.001579
	C125	C	0.623663	0.614694	0.985124
	C126	C	0.380622	0.614199	0.001421
	C127	C	0.379901	0.371147	0.985019
	C128	C	0.010505	0.614117	0.371525
	C129	C	0.994207	0.615248	0.615886
	C130	C	0.010036	0.371820	0.614687
	C131	C	0.993925	0.371044	0.370357
	C132	C	0.880696	0.501618	0.114225
	C133	C	0.122973	0.485284	0.113695
	C134	C	0.124354	0.502064	0.871443
	C135	C	0.880792	0.484314	0.872181
	C136	C	0.123652	0.871693	0.501489
	C137	C	0.123831	0.114639	0.484879
	C138	C	0.879945	0.114774	0.501884
	C139	C	0.880261	0.871588	0.484671
	C140	C	0.510096	0.114871	0.870764
	C141	C	0.494238	0.115377	0.115324
	C142	C	0.509865	0.871594	0.115077
	C143	C	0.493861	0.871168	0.871102
	C144	C	0.382436	0.878387	0.669320
	C145	C	0.619605	0.108556	0.668547
	C146	C	0.621109	0.878820	0.316280
	C147	C	0.383989	0.108920	0.317384
	C148	C	0.679313	0.373620	0.878340
	C149	C	0.678717	0.612929	0.108168
	C150	C	0.326282	0.612048	0.878078
	C151	C	0.324199	0.373648	0.108209
	C152	C	0.887804	0.668739	0.375982
	C153	C	0.116791	0.670146	0.612485
	C154	C	0.887120	0.317300	0.611593
	C155	C	0.117097	0.316925	0.374313
	C156	C	0.887513	0.374001	0.670356
	C157	C	0.116866	0.612149	0.670119
	C158	C	0.887747	0.611553	0.317537
	C159	C	0.116804	0.374153	0.315583
	C160	C	0.384803	0.668553	0.877661
	C161	C	0.620373	0.670054	0.108524
	C162	C	0.620921	0.316769	0.878214
	C163	C	0.383250	0.317103	0.108834
	C164	C	0.679307	0.878946	0.372674
	C165	C	0.677843	0.108029	0.612077
	C166	C	0.324317	0.878850	0.612749
	C167	C	0.325772	0.108712	0.374255
	C168	C	0.882735	0.378144	0.169631
	C169	C	0.120430	0.608952	0.169127
	C170	C	0.121184	0.378419	0.816341
	C171	C	0.884563	0.608572	0.818706
	C172	C	0.180279	0.872621	0.378836
	C173	C	0.178964	0.113461	0.607829
	C174	C	0.825724	0.112537	0.378683
	C175	C	0.824756	0.874286	0.607665
	C176	C	0.387118	0.169624	0.874950
	C177	C	0.616957	0.170589	0.111884
	C178	C	0.387049	0.816848	0.112225
	C179	C	0.616709	0.816410	0.873961
	C180	C	0.387361	0.874245	0.170741
	C181	C	0.616853	0.113133	0.169774
	C182	C	0.387209	0.112246	0.816709
	C183	C	0.616339	0.873188	0.815220
	C184	C	0.884281	0.168859	0.378249
	C185	C	0.120177	0.169743	0.608289
	C186	C	0.121449	0.815965	0.378337
	C187	C	0.883546	0.817601	0.608326
	C188	C	0.179320	0.378632	0.872907
	C189	C	0.178325	0.608781	0.112176
	C190	C	0.824884	0.378459	0.112662
	C191	C	0.825894	0.607876	0.874627
	C192	C	0.402371	0.088139	0.592467
	C193	C	0.601475	0.898011	0.592018
	C194	C	0.602538	0.088531	0.394189
	C195	C	0.403337	0.899397	0.394836
	C196	C	0.601594	0.394737	0.087600
	C197	C	0.602315	0.592448	0.899169
	C198	C	0.401719	0.592293	0.087500
	C199	C	0.402200	0.393435	0.898991
	C200	C	0.096446	0.591806	0.392938
	C201	C	0.908203	0.593341	0.594470
	C202	C	0.095814	0.393956	0.592708
	C203	C	0.908296	0.393066	0.392637
	C204	C	0.903019	0.587743	0.092107
	C205	C	0.100797	0.399143	0.090963
	C206	C	0.103000	0.588461	0.893990
	C207	C	0.902219	0.397914	0.893576
	C208	C	0.101150	0.894668	0.587194
	C209	C	0.102442	0.091812	0.398949
	C210	C	0.900838	0.093101	0.588123
	C211	C	0.902504	0.893268	0.398564
	C212	C	0.595613	0.092661	0.892189
	C213	C	0.408324	0.093245	0.093715
	C214	C	0.595480	0.893747	0.092737
	C215	C	0.408417	0.893367	0.893359
	Zn216	Zn	0.501824	-0.006998	0.741929
	Zn217	Zn	0.502709	-0.006501	0.243727
	Zn218	Zn	0.752684	0.493089	-0.006853
	Zn219	Zn	0.251912	0.493468	-0.007121
	Zn220	Zn	0.002120	0.743474	0.493471
	Zn221	Zn	0.002003	0.242858	0.493319
	Zn222	Zn	0.002100	0.492992	0.744391
	Zn223	Zn	0.001914	0.493137	0.241680
	Zn224	Zn	0.501818	0.742551	-0.006696
	Zn225	Zn	0.502049	0.242991	-0.006623
	Zn226	Zn	0.751655	-0.006757	0.492894
	Zn227	Zn	0.252317	-0.006111	0.492892
	N228	N	0.416337	0.955801	0.670418
	N229	N	0.586127	0.030662	0.669779
	N230	N	0.587626	0.956552	0.315152
	N231	N	0.417721	0.031168	0.316108
	N232	N	0.680928	0.407597	0.956039
	N233	N	0.680711	0.579208	0.030434
	N234	N	0.323703	0.578928	0.955841
	N235	N	0.322005	0.406473	0.030289
	N236	N	0.965160	0.670369	0.408703
	N237	N	0.039554	0.671938	0.579322
	N238	N	0.964415	0.315791	0.577884
	N239	N	0.039674	0.314956	0.407735
	N240	N	0.964910	0.407214	0.672471
	N241	N	0.039397	0.578834	0.672438
	N242	N	0.965283	0.578277	0.314784
	N243	N	0.039204	0.406848	0.312967
	N244	N	0.417961	0.669988	0.955382
	N245	N	0.586841	0.671250	0.031047
	N246	N	0.586942	0.315806	0.955584
	N247	N	0.417015	0.315489	0.031225
	N248	N	0.681235	0.956748	0.406304
	N249	N	0.679819	0.030119	0.578506
	N250	N	0.322872	0.956753	0.579256
	N251	N	0.324076	0.031008	0.407759
	N252	N	0.916631	0.455825	0.170736
	N253	N	0.086740	0.531240	0.169999
	N254	N	0.087704	0.456213	0.815424
	N255	N	0.918044	0.530825	0.817090
	N256	N	0.181482	0.907026	0.456299
	N257	N	0.181159	0.079753	0.530151
	N258	N	0.822811	0.079702	0.456619
	N259	N	0.822689	0.907029	0.529823
	N260	N	0.464352	0.171199	0.908161
	N261	N	0.539787	0.171950	0.078859
	N262	N	0.464250	0.815175	0.078261
	N263	N	0.539648	0.815063	0.908114
	N264	N	0.464752	0.907518	0.172592
	N265	N	0.539478	0.079418	0.171960
	N266	N	0.464597	0.078986	0.813923
	N267	N	0.539012	0.906663	0.813440
	N268	N	0.917474	0.170233	0.455830
	N269	N	0.086708	0.170757	0.530813
	N270	N	0.087151	0.815296	0.455581
	N271	N	0.917431	0.815904	0.530826
	N272	N	0.181190	0.456403	0.906671
	N273	N	0.180292	0.530749	0.078637
	N274	N	0.823508	0.456150	0.078958
	N275	N	0.823481	0.529709	0.907148
	O276	O	1.049210	-0.011647	1.031496
	H277	H	1.049876	-0.005874	1.031400
	H278	H	1.052347	-0.013034	1.035006
	O279	O	0.048791	0.996287	1.053720
	H280	H	0.040480	0.990713	1.045079
	H281	H	0.045775	0.995478	1.063444
	O282	O	1.021792	0.984195	0.049964
	H283	H	1.025274	0.985805	0.054063
	H284	H	1.029401	0.983265	0.047382
	O285	O	0.073800	1.005178	1.049704
	H286	H	0.078871	1.008511	1.054137
	H287	H	0.073401	1.003283	1.051039
