data_Molecule from HDF5

_cell_length_a		16.551409
_cell_length_b		16.444730
_cell_length_c		16.284657
_cell_angle_alpha	89.993750
_cell_angle_beta	89.878582
_cell_angle_gamma	90.059259
_symmetry_space_group_name_H-M	'P 1'
_symmetry_Int_Tables_number		1

loop_
	_symmetry_equiv_pos_as_xyz
	x,y,z

loop_
	_atom_site_label
	_atom_site_type_symbol
	_atom_site_fract_x
	_atom_site_fract_y
	_atom_site_fract_z
	H0	H	0.397023	0.834788	0.741718
	H1	H	0.610566	0.149299	0.734232
	H2	H	0.609975	0.832600	0.291165
	H3	H	0.406814	0.150998	0.299048
	H4	H	0.731123	0.383946	0.855156
	H5	H	0.725673	0.597606	0.173428
	H6	H	0.282357	0.602129	0.854668
	H7	H	0.283761	0.385300	0.169968
	H8	H	0.850465	0.717850	0.403134
	H9	H	0.161057	0.717525	0.623084
	H10	H	0.849360	0.265650	0.625166
	H11	H	0.161643	0.268796	0.408176
	H12	H	0.847598	0.386332	0.737268
	H13	H	0.161652	0.601525	0.739111
	H14	H	0.848359	0.598212	0.290568
	H15	H	0.162445	0.387831	0.292888
	H16	H	0.398622	0.716774	0.855783
	H17	H	0.608266	0.710122	0.174396
	H18	H	0.614603	0.269371	0.853959
	H19	H	0.404101	0.274686	0.172248
	H20	H	0.729093	0.832884	0.403647
	H21	H	0.730207	0.146274	0.622462
	H22	H	0.277496	0.835516	0.629298
	H23	H	0.283005	0.146560	0.407867
	H24	H	0.901639	0.333821	0.233564
	H25	H	0.110854	0.649593	0.234905
	H26	H	0.112345	0.334191	0.789839
	H27	H	0.900845	0.650475	0.791493
	H28	H	0.230213	0.881824	0.357287
	H29	H	0.230081	0.099853	0.673082
	H30	H	0.786746	0.093840	0.355726
	H31	H	0.779522	0.878096	0.671697
	H32	H	0.350168	0.216798	0.903667
	H33	H	0.661772	0.213127	0.118020
	H34	H	0.349696	0.766402	0.124355
	H35	H	0.661077	0.765750	0.904931
	H36	H	0.348124	0.886990	0.235483
	H37	H	0.662235	0.094478	0.233811
	H38	H	0.349577	0.098562	0.789965
	H39	H	0.662367	0.883525	0.790118
	H40	H	0.902038	0.210023	0.356415
	H41	H	0.114744	0.215335	0.673639
	H42	H	0.111048	0.770477	0.354925
	H43	H	0.898965	0.767242	0.673460
	H44	H	0.230606	0.335644	0.902022
	H45	H	0.230151	0.648276	0.121373
	H46	H	0.781366	0.336272	0.121567
	H47	H	0.779886	0.648684	0.901812
	H48	H	0.417898	0.098677	0.593730
	H49	H	0.592523	0.877620	0.599626
	H50	H	0.601259	0.104321	0.427794
	H51	H	0.420687	0.879009	0.426860
	H52	H	0.599036	0.410876	0.125952
	H53	H	0.596122	0.581989	0.897172
	H54	H	0.414843	0.575956	0.126319
	H55	H	0.416448	0.402840	0.896176
	H56	H	0.117353	0.581434	0.428724
	H57	H	0.893478	0.582806	0.599404
	H58	H	0.116353	0.403167	0.601090
	H59	H	0.891477	0.398401	0.424700
	H60	H	0.116357	0.403324	0.600487
	H61	H	0.898157	0.576249	0.595846
	H62	H	0.116940	0.577778	0.424241
	H63	H	0.892060	0.400297	0.426918
	H64	H	0.419915	0.576774	0.124805
	H65	H	0.594819	0.574929	0.900876
	H66	H	0.586959	0.401918	0.124679
	H67	H	0.417411	0.407606	0.898066
	H68	H	0.598405	0.105238	0.421251
	H69	H	0.592262	0.878215	0.600428
	H70	H	0.412779	0.104529	0.602601
	H71	H	0.413988	0.876826	0.430588
	H72	H	0.913552	0.604947	0.095251
	H73	H	0.096811	0.376710	0.105632
	H74	H	0.092714	0.602405	0.928921
	H75	H	0.914447	0.380693	0.932326
	H76	H	0.088387	0.906589	0.625493
	H77	H	0.085711	0.074402	0.406383
	H78	H	0.920340	0.076265	0.628818
	H79	H	0.921647	0.906397	0.404115
	H80	H	0.616863	0.080254	0.926344
	H81	H	0.391526	0.085832	0.100993
	H82	H	0.618788	0.900652	0.103305
	H83	H	0.399430	0.911172	0.933328
	H84	H	0.617526	0.901486	0.100891
	H85	H	0.393089	0.079802	0.104241
	H86	H	0.617674	0.080124	0.924662
	H87	H	0.393293	0.906046	0.923381
	H88	H	0.916948	0.080150	0.630759
	H89	H	0.095059	0.090275	0.397559
	H90	H	0.092069	0.901522	0.628814
	H91	H	0.918093	0.897037	0.398853
	H92	H	0.096381	0.604386	0.928472
	H93	H	0.091002	0.380946	0.100288
	H94	H	0.910796	0.609126	0.105473
	H95	H	0.915249	0.377924	0.922993
	H96	H	0.423198	0.101724	0.603549
	H97	H	0.591846	0.878772	0.599886
	H98	H	0.594694	0.102404	0.426488
	H99	H	0.415149	0.875238	0.423163
	H100	H	0.599259	0.396797	0.131472
	H101	H	0.589193	0.580546	0.900951
	H102	H	0.417543	0.580122	0.127174
	H103	H	0.420903	0.403954	0.897784
	H104	H	0.117968	0.582858	0.423544
	H105	H	0.894552	0.575512	0.603720
	H106	H	0.116357	0.403546	0.601217
	H107	H	0.891221	0.401137	0.424559
	H108	H	0.921118	0.605295	0.103956
	H109	H	0.098679	0.378269	0.097339
	H110	H	0.093402	0.604247	0.925368
	H111	H	0.922515	0.382951	0.927504
	H112	H	0.095126	0.907788	0.627527
	H113	H	0.104624	0.072509	0.400687
	H114	H	0.914808	0.074776	0.629931
	H115	H	0.911298	0.906254	0.399622
	H116	H	0.618620	0.081875	0.925454
	H117	H	0.389438	0.085299	0.107588
	H118	H	0.618400	0.903163	0.102766
	H119	H	0.395319	0.899520	0.933681
	C120	C	0.383363	-0.001051	0.636382
	C121	C	0.626340	0.981722	0.634367
	C122	C	0.628855	-0.000611	0.391605
	C123	C	0.384944	0.981559	0.394141
	C124	C	0.628162	0.370443	0.022022
	C125	C	0.625666	0.611798	1.005181
	C126	C	0.383950	0.612819	0.021780
	C127	C	0.385353	0.371823	1.002782
	C128	C	0.013855	0.613430	0.391950
	C129	C	0.997867	0.612901	0.634597
	C130	C	0.013345	0.369499	0.635971
	C131	C	0.995982	0.368988	0.392799
	C132	C	0.883811	0.501552	0.134550
	C133	C	0.127529	0.483145	0.134176
	C134	C	0.127590	0.500505	0.891931
	C135	C	0.884011	0.484179	0.892829
	C136	C	0.126379	0.870861	0.523085
	C137	C	0.127656	0.112421	0.506550
	C138	C	0.885748	0.109616	0.524317
	C139	C	0.883222	0.868110	0.505352
	C140	C	0.514692	0.114297	0.891282
	C141	C	0.496023	0.114270	0.135415
	C142	C	0.514283	0.869303	0.136233
	C143	C	0.498142	0.870558	0.894228
	C144	C	0.378933	0.881857	0.700491
	C145	C	0.628969	0.101072	0.694649
	C146	C	0.629369	0.880331	0.330684
	C147	C	0.385615	0.102133	0.336454
	C148	C	0.690481	0.366338	0.902858
	C149	C	0.685486	0.614844	0.125491
	C150	C	0.322960	0.618465	0.902437
	C151	C	0.324599	0.367988	0.122447
	C152	C	0.896787	0.675974	0.387079
	C153	C	0.114683	0.676269	0.640075
	C154	C	0.896060	0.306811	0.641591
	C155	C	0.114501	0.309070	0.390036
	C156	C	0.895287	0.367048	0.697454
	C157	C	0.114829	0.618092	0.697784
	C158	C	0.895986	0.616691	0.330413
	C159	C	0.114983	0.368212	0.332620
	C160	C	0.380511	0.675936	0.903127
	C161	C	0.627190	0.671147	0.126059
	C162	C	0.632136	0.309402	0.902125
	C163	C	0.384066	0.312733	0.123552
	C164	C	0.688736	0.880497	0.386994
	C165	C	0.688659	0.099520	0.638921
	C166	C	0.319371	0.882238	0.644161
	C167	C	0.324459	0.100183	0.390700
	C168	C	0.882356	0.381846	0.194508
	C169	C	0.129589	0.601900	0.195095
	C170	C	0.130426	0.381979	0.829873
	C171	C	0.881775	0.602773	0.831010
	C172	C	0.189293	0.865144	0.404603
	C173	C	0.189366	0.116696	0.625587
	C174	C	0.826453	0.112304	0.403983
	C175	C	0.820672	0.861762	0.624183
	C176	C	0.397065	0.175788	0.886798
	C177	C	0.614730	0.173188	0.136786
	C178	C	0.396702	0.807719	0.140968
	C179	C	0.614473	0.807283	0.888057
	C180	C	0.395810	0.867731	0.196661
	C181	C	0.614871	0.114401	0.194488
	C182	C	0.396799	0.116974	0.829923
	C183	C	0.615141	0.866194	0.830756
	C184	C	0.883791	0.170041	0.404021
	C185	C	0.131655	0.174377	0.625887
	C186	C	0.129680	0.809882	0.403442
	C187	C	0.879926	0.806164	0.624894
	C188	C	0.189644	0.382569	0.885770
	C189	C	0.189285	0.601103	0.138582
	C190	C	0.822644	0.383203	0.138615
	C191	C	0.821599	0.601659	0.886179
	C192	C	0.410354	0.080508	0.608139
	C193	C	0.599903	0.899498	0.607732
	C194	C	0.604992	0.082419	0.417736
	C195	C	0.409406	0.898617	0.419499
	C196	C	0.602448	0.395904	0.105345
	C197	C	0.600732	0.586369	0.921681
	C198	C	0.409964	0.585533	0.104546
	C199	C	0.410900	0.397421	0.919048
	C200	C	0.095666	0.587891	0.418079
	C201	C	0.916771	0.585827	0.607333
	C202	C	0.094978	0.395640	0.608625
	C203	C	0.913318	0.393117	0.418032
	C204	C	0.908218	0.584562	0.109245
	C205	C	0.102656	0.400277	0.108431
	C206	C	0.101670	0.582362	0.919502
	C207	C	0.909934	0.401925	0.919795
	C208	C	0.099578	0.897833	0.605744
	C209	C	0.102376	0.086447	0.423272
	C210	C	0.910548	0.084345	0.607946
	C211	C	0.909534	0.895350	0.422498
	C212	C	0.596487	0.088302	0.917710
	C213	C	0.412866	0.090508	0.111212
	C214	C	0.596645	0.894458	0.109777
	C215	C	0.417020	0.897890	0.922146
	Zn216	Zn	0.506119	-0.008989	0.764090
	Zn217	Zn	0.505430	-0.008819	0.264489
	Zn218	Zn	0.755096	0.493385	0.013323
	Zn219	Zn	0.256348	0.491280	0.011842
	Zn220	Zn	0.005847	0.742701	0.513972
	Zn221	Zn	0.005303	0.239598	0.515362
	Zn222	Zn	0.005625	0.492107	0.764645
	Zn223	Zn	0.005281	0.491607	0.263510
	Zn224	Zn	0.505762	0.740279	0.014594
	Zn225	Zn	0.505618	0.243276	0.012325
	Zn226	Zn	0.756223	-0.010940	0.514344
	Zn227	Zn	0.255212	-0.009365	0.514918
	N228	N	0.418016	0.955346	0.695723
	N229	N	0.590695	0.026908	0.691648
	N230	N	0.592966	0.955458	0.333371
	N231	N	0.422307	0.027211	0.338242
	N232	N	0.688414	0.403430	0.978526
	N233	N	0.684968	0.578924	0.049229
	N234	N	0.324637	0.580120	0.977427
	N235	N	0.324971	0.403563	0.046090
	N236	N	0.971039	0.674220	0.424566
	N237	N	0.040903	0.673416	0.601671
	N238	N	0.970773	0.308189	0.604274
	N239	N	0.039420	0.309157	0.426381
	N240	N	0.969138	0.405055	0.694316
	N241	N	0.041228	0.579430	0.694626
	N242	N	0.969872	0.578752	0.333142
	N243	N	0.040232	0.404457	0.334089
	N244	N	0.417565	0.672519	0.978474
	N245	N	0.590826	0.669439	0.050260
	N246	N	0.594300	0.311613	0.977290
	N247	N	0.420880	0.314821	0.047887
	N248	N	0.688332	0.955428	0.424253
	N249	N	0.687243	0.024152	0.602438
	N250	N	0.322121	0.956272	0.605031
	N251	N	0.323699	0.024168	0.425641
	N252	N	0.919589	0.456512	0.192209
	N253	N	0.092083	0.527418	0.192621
	N254	N	0.092545	0.456267	0.833623
	N255	N	0.920050	0.528761	0.835139
	N256	N	0.187556	0.901980	0.480358
	N257	N	0.187115	0.079039	0.550297
	N258	N	0.827374	0.075466	0.479753
	N259	N	0.822271	0.899210	0.548686
	N260	N	0.471513	0.174354	0.924010
	N261	N	0.539762	0.173238	0.100855
	N262	N	0.471424	0.808677	0.104028
	N263	N	0.540647	0.809853	0.926517
	N264	N	0.469953	0.905292	0.193774
	N265	N	0.539956	0.078611	0.193774
	N266	N	0.470829	0.079336	0.832722
	N267	N	0.541521	0.905019	0.834556
	N268	N	0.919798	0.168678	0.479930
	N269	N	0.093973	0.172066	0.550800
	N270	N	0.091116	0.813551	0.478049
	N271	N	0.917733	0.809748	0.549810
	N272	N	0.188169	0.457302	0.923418
	N273	N	0.188064	0.525948	0.101408
	N274	N	0.823260	0.458483	0.102247
	N275	N	0.822842	0.526712	0.923864
	O276	O	-0.205495	0.204329	-0.006478
	H277	H	-0.175316	0.201866	0.020323
	H278	H	-0.230499	0.236726	-0.004558
	O279	O	0.986427	0.208913	0.794156
	H280	H	0.975321	0.238969	0.760109
	H281	H	0.939552	0.203292	0.803883
	O282	O	0.289737	0.437099	0.296307
	H283	H	0.297225	0.470071	0.296438
	H284	H	0.282726	0.447707	0.295100
	O285	O	0.539734	0.489507	0.358887
	H286	H	0.559108	0.506005	0.358364
	H287	H	0.540101	0.491457	0.369223
	O288	O	1.177963	0.931294	0.093354
	H289	H	1.187297	0.919695	0.098427
	H290	H	1.180199	0.926399	0.102029
	O291	O	0.023665	-0.209371	-0.171464
	H292	H	0.008102	-0.226528	-0.157637
	H293	H	0.022824	-0.213696	-0.166499
	O294	O	-0.204799	-0.222233	1.065616
	H295	H	-0.204440	-0.234024	1.090300
	H296	H	-0.212647	-0.231893	1.080097
	O297	O	0.610733	1.357967	-0.377852
	H298	H	0.619872	1.345365	-0.382143
	H299	H	0.608514	1.358306	-0.374494
	O300	O	0.712233	0.476516	0.655277
	H301	H	0.703194	0.459239	0.641508
	H302	H	0.724574	0.476284	0.669470
	O303	O	0.721354	0.705903	0.531571
	H304	H	0.730701	0.669538	0.507620
	H305	H	0.759375	0.733662	0.537730
	O306	O	0.568377	0.701758	0.437977
	H307	H	0.594740	0.710113	0.462774
	H308	H	0.561748	0.675997	0.443205
	O309	O	0.666295	0.537318	0.414978
	H310	H	0.648803	0.542271	0.391563
	H311	H	0.681220	0.518519	0.408732
	O312	O	-0.206062	1.016844	0.799883
	H313	H	-0.227952	1.009170	0.765590
	H314	H	-0.190382	0.984562	0.806701
	O315	O	0.198703	0.879412	0.824975
	H316	H	0.220457	0.907452	0.807298
	H317	H	0.176567	0.889387	0.838866
	O318	O	0.495038	0.505221	0.699827
	H319	H	0.482417	0.502073	0.704289
	H320	H	0.467174	0.512232	0.694693
	O321	O	-0.169400	0.174342	-0.167293
	H322	H	-0.183217	0.183229	-0.114696
	H323	H	-0.183855	0.121901	-0.179072
	O324	O	0.718054	0.280569	0.492400
	H325	H	0.729324	0.277089	0.491138
	H326	H	0.726759	0.277258	0.461729
	O327	O	0.341526	0.424538	0.465449
	H328	H	0.327278	0.417656	0.450056
	H329	H	0.342968	0.415239	0.463287
	O330	O	-0.019305	1.211288	0.047150
	H331	H	-0.001553	1.205501	0.045988
	H332	H	-0.011958	1.210522	0.049156
	O333	O	0.878320	-0.094651	1.025230
	H334	H	0.871388	-0.082853	1.015676
	H335	H	0.880789	-0.085136	1.021824
	O336	O	0.061473	0.149383	-0.036244
	H337	H	0.058518	0.152279	-0.052435
	H338	H	0.080366	0.151463	-0.054148
	O339	O	0.492902	1.492970	0.714013
	H340	H	0.488095	1.523435	0.717517
	H341	H	0.494869	1.499053	0.692340
	O342	O	0.550300	0.432101	1.504304
	H343	H	0.537856	0.419790	1.512684
	H344	H	0.556212	0.448103	1.502967
	O345	O	0.906539	0.920521	-0.172145
	H346	H	0.905551	0.928102	-0.152643
	H347	H	0.922582	0.888697	-0.165416
	O348	O	0.519971	0.702595	0.724941
	H349	H	0.554584	0.682858	0.715435
	H350	H	0.534058	0.728322	0.757571
	O351	O	-0.068248	0.875954	0.987371
	H352	H	-0.073421	0.889938	1.000222
	H353	H	-0.077909	0.866678	1.012485
	O354	O	-0.275780	0.465424	0.302880
	H355	H	-0.271776	0.432050	0.292536
	H356	H	-0.267304	0.446357	0.283125
	O357	O	0.153916	-0.213016	1.065740
	H358	H	0.164794	-0.213203	1.046874
	H359	H	0.165387	-0.216440	1.043867
	O360	O	0.293674	0.605267	0.501141
	H361	H	0.293904	0.606490	0.479819
	H362	H	0.280867	0.599659	0.490339
	O363	O	0.035678	0.204604	1.228699
	H364	H	0.055139	0.218314	1.246090
	H365	H	0.070711	0.211897	1.236333
	O366	O	0.823051	1.014949	0.026519
	H367	H	0.830338	1.020326	0.038204
	H368	H	0.829415	1.010965	0.011420
	O369	O	0.456960	0.443701	0.522250
	H370	H	0.462257	0.428590	0.521971
	H371	H	0.436795	0.433460	0.523943
	O372	O	0.537987	0.286811	0.314452
	H373	H	0.518281	0.289369	0.323166
	H374	H	0.520281	0.292745	0.304726
	O375	O	0.675749	0.668335	0.690070
	H376	H	0.684939	0.661442	0.660362
	H377	H	0.689556	0.636967	0.680730
	O378	O	0.483653	0.282655	0.720749
	H379	H	0.505166	0.287730	0.715824
	H380	H	0.494357	0.257254	0.730465
	O381	O	1.709212	0.290466	0.314633
	H382	H	1.730724	0.260637	0.301486
	H383	H	1.656656	0.282581	0.307312
	O384	O	0.393042	0.712962	0.546332
	H385	H	0.401290	0.709012	0.554823
	H386	H	0.407978	0.733106	0.560574
	O387	O	-0.041131	0.009703	0.884594
	H388	H	-0.048472	0.023407	0.894211
	H389	H	-0.045309	0.017576	0.861565
	O390	O	-0.677423	-0.691166	-0.312049
	H391	H	-0.624561	-0.700402	-0.299869
	H392	H	-0.688591	-0.638123	-0.297855
	O393	O	1.134208	1.008769	0.806060
	H394	H	1.143152	1.028012	0.798440
	H395	H	1.129313	1.018940	0.796141
	O396	O	1.189935	0.176979	0.193107
	H397	H	1.217572	0.179680	0.215182
	H398	H	1.197357	0.174226	0.150864
	O399	O	0.961449	0.031509	1.221797
	H400	H	0.974661	0.064832	1.224867
	H401	H	0.960497	0.010505	1.225479
	O402	O	0.854033	1.180402	1.169740
	H403	H	0.879118	1.177959	1.160786
	H404	H	0.871096	1.154718	1.162573
	O405	O	1.056752	0.936399	0.146974
	H406	H	1.060545	0.943125	0.134746
	H407	H	1.049856	0.922253	0.140009
	O408	O	0.797941	-0.024033	0.217753
	H409	H	0.784563	-0.024416	0.201990
	H410	H	0.800969	-0.016343	0.231137
	O411	O	0.380851	1.669551	0.324322
	H412	H	0.419944	1.679479	0.321751
	H413	H	0.362033	1.674793	0.359242
	O414	O	0.294425	0.285319	0.526262
	H415	H	0.299175	0.290197	0.573411
	H416	H	0.266159	0.270794	0.536757
	O417	O	0.291035	0.467951	0.726157
	H418	H	0.272264	0.485549	0.717964
	H419	H	0.281415	0.484265	0.742986
	O420	O	-0.146650	-0.192870	0.197566
	H421	H	-0.136097	-0.168926	0.210161
	H422	H	-0.115010	-0.186462	0.205884
	O423	O	0.213847	1.065602	-0.073167
	H424	H	0.211603	1.058074	-0.047666
	H425	H	0.209217	1.070956	-0.072647
	O426	O	1.076882	-0.074428	0.045125
	H427	H	1.075895	-0.076425	0.062369
	H428	H	1.078190	-0.053314	0.028789
	O429	O	1.198913	0.790702	-0.065096
	H430	H	1.215306	0.795799	-0.078038
	H431	H	1.174588	0.790294	-0.093055
	O432	O	0.363360	0.339778	0.324419
	H433	H	0.379147	0.367993	0.317175
	H434	H	0.376358	0.338070	0.351496
	O435	O	0.476250	0.705365	0.409344
	H436	H	0.499057	0.720696	0.425775
	H437	H	0.487614	0.711292	0.412387
	O438	O	0.298353	0.650117	-0.571859
	H439	H	0.325486	0.648542	-0.557154
	H440	H	0.277093	0.671039	-0.582093
	O441	O	0.982835	-0.217638	0.167675
	H442	H	0.988429	-0.232202	0.181825
	H443	H	1.006491	-0.225268	0.156630
	O444	O	0.220341	1.018611	1.224767
	H445	H	0.211898	1.021029	1.217127
	H446	H	0.237304	1.017711	1.255919
	O447	O	0.399978	0.411157	0.458836
	H448	H	0.388345	0.419401	0.465650
	H449	H	0.400091	0.415998	0.469468
	O450	O	0.217047	1.205054	1.035112
	H451	H	0.223168	1.225982	1.030674
	H452	H	0.217086	1.200575	1.020545
	O453	O	0.725008	0.473320	0.533333
	H454	H	0.721385	0.484966	0.509776
	H455	H	0.722384	0.455077	0.538170
