data_Molecule from HDF5

_cell_length_a		16.479508
_cell_length_b		16.321250
_cell_length_c		16.249404
_cell_angle_alpha	89.902121
_cell_angle_beta	89.955124
_cell_angle_gamma	90.191459
_symmetry_space_group_name_H-M	'P 1'
_symmetry_Int_Tables_number		1

loop_
	_symmetry_equiv_pos_as_xyz
	x,y,z

loop_
	_atom_site_label
	_atom_site_type_symbol
	_atom_site_fract_x
	_atom_site_fract_y
	_atom_site_fract_z
	H0	H	0.399304	0.836356	0.716418
	H1	H	0.606398	0.158103	0.715384
	H2	H	0.600593	0.834748	0.281321
	H3	H	0.404954	0.160038	0.281229
	H4	H	0.724282	0.389720	0.839167
	H5	H	0.721067	0.599693	0.160224
	H6	H	0.281310	0.602631	0.840267
	H7	H	0.283245	0.389846	0.161160
	H8	H	0.842938	0.715821	0.395467
	H9	H	0.161923	0.718784	0.603547
	H10	H	0.842425	0.277811	0.600810
	H11	H	0.161380	0.276646	0.394208
	H12	H	0.842460	0.395278	0.717646
	H13	H	0.163441	0.600500	0.717656
	H14	H	0.842692	0.597720	0.280181
	H15	H	0.162280	0.392931	0.278926
	H16	H	0.398679	0.714825	0.837707
	H17	H	0.603183	0.714657	0.161050
	H18	H	0.605817	0.279424	0.837929
	H19	H	0.401348	0.276837	0.160820
	H20	H	0.723171	0.836262	0.390960
	H21	H	0.722870	0.157262	0.598671
	H22	H	0.281064	0.838879	0.603987
	H23	H	0.282230	0.157416	0.389530
	H24	H	0.901519	0.334802	0.216542
	H25	H	0.104263	0.657942	0.217198
	H26	H	0.103167	0.334569	0.784021
	H27	H	0.901997	0.659397	0.782047
	H28	H	0.220157	0.894769	0.336762
	H29	H	0.224899	0.105015	0.656776
	H30	H	0.785227	0.100429	0.335841
	H31	H	0.779527	0.888649	0.657237
	H32	H	0.343437	0.215488	0.896775
	H33	H	0.663351	0.216536	0.101044
	H34	H	0.341698	0.777237	0.101960
	H35	H	0.660433	0.776711	0.893928
	H36	H	0.341311	0.895033	0.216509
	H37	H	0.663491	0.098725	0.215835
	H38	H	0.343758	0.099532	0.778499
	H39	H	0.661134	0.892795	0.778153
	H40	H	0.900936	0.215285	0.336376
	H41	H	0.105204	0.214845	0.659781
	H42	H	0.102929	0.780255	0.336778
	H43	H	0.898387	0.777847	0.660061
	H44	H	0.221115	0.336106	0.897744
	H45	H	0.224959	0.655827	0.108087
	H46	H	0.780402	0.337120	0.105899
	H47	H	0.782443	0.656967	0.893949
	H48	H	0.420429	0.110661	0.589619
	H49	H	0.594631	0.882276	0.583988
	H50	H	0.598514	0.112693	0.407694
	H51	H	0.411085	0.884026	0.408656
	H52	H	0.591863	0.408233	0.113758
	H53	H	0.592710	0.585926	0.885073
	H54	H	0.411428	0.586377	0.115344
	H55	H	0.412723	0.414615	0.887527
	H56	H	0.117494	0.586404	0.403719
	H57	H	0.891171	0.583353	0.589252
	H58	H	0.115908	0.409661	0.590118
	H59	H	0.890248	0.410946	0.407388
	H60	H	0.118420	0.404568	0.595420
	H61	H	0.887674	0.588323	0.595354
	H62	H	0.116794	0.593928	0.411721
	H63	H	0.886398	0.401616	0.405027
	H64	H	0.413402	0.583384	0.114132
	H65	H	0.592701	0.586963	0.883326
	H66	H	0.593254	0.406311	0.114452
	H67	H	0.416422	0.402536	0.884649
	H68	H	0.594708	0.112378	0.404827
	H69	H	0.592606	0.882221	0.588274
	H70	H	0.413680	0.110231	0.578522
	H71	H	0.408536	0.882575	0.408963
	H72	H	0.903561	0.612514	0.084217
	H73	H	0.091914	0.382156	0.091093
	H74	H	0.089515	0.610016	0.912228
	H75	H	0.908582	0.381578	0.908956
	H76	H	0.088814	0.907301	0.612941
	H77	H	0.090757	0.092643	0.381730
	H78	H	0.903840	0.080803	0.613337
	H79	H	0.908676	0.908210	0.382390
	H80	H	0.616246	0.089883	0.910342
	H81	H	0.390974	0.083497	0.088665
	H82	H	0.614903	0.907740	0.089644
	H83	H	0.390310	0.908778	0.909313
	H84	H	0.615856	0.903421	0.090094
	H85	H	0.387506	0.090356	0.092199
	H86	H	0.615640	0.084403	0.908139
	H87	H	0.387366	0.907104	0.905585
	H88	H	0.919616	0.080400	0.608776
	H89	H	0.098225	0.084882	0.381547
	H90	H	0.096388	0.908516	0.614300
	H91	H	0.914805	0.909352	0.384915
	H92	H	0.097584	0.611338	0.913057
	H93	H	0.092629	0.382587	0.086898
	H94	H	0.913769	0.613409	0.097367
	H95	H	0.915389	0.382968	0.908069
	H96	H	0.407698	0.114941	0.589495
	H97	H	0.590627	0.883392	0.584556
	H98	H	0.594458	0.110994	0.409298
	H99	H	0.410669	0.882087	0.406924
	H100	H	0.594400	0.407746	0.113711
	H101	H	0.594222	0.585979	0.883206
	H102	H	0.415052	0.586714	0.113854
	H103	H	0.404941	0.406460	0.882185
	H104	H	0.113565	0.583279	0.413412
	H105	H	0.888662	0.591122	0.587866
	H106	H	0.117008	0.402080	0.587908
	H107	H	0.889922	0.404157	0.414079
	H108	H	0.918974	0.606339	0.082658
	H109	H	0.095842	0.381115	0.089818
	H110	H	0.094251	0.612482	0.906218
	H111	H	0.912190	0.384098	0.914749
	H112	H	0.091888	0.914482	0.611473
	H113	H	0.088580	0.082357	0.385189
	H114	H	0.913778	0.094250	0.615813
	H115	H	0.913708	0.903206	0.381768
	H116	H	0.617928	0.088156	0.904717
	H117	H	0.390613	0.090439	0.084137
	H118	H	0.615189	0.904810	0.086161
	H119	H	0.387813	0.904435	0.909618
	C120	C	0.381641	0.006039	0.617925
	C121	C	0.624556	0.988393	0.617551
	C122	C	0.625050	0.005209	0.375768
	C123	C	0.380626	0.989121	0.375921
	C124	C	0.624411	0.375936	0.007755
	C125	C	0.623745	0.618086	0.990425
	C126	C	0.381020	0.617155	0.008304
	C127	C	0.381518	0.375755	0.991474
	C128	C	0.010596	0.618529	0.377902
	C129	C	0.994696	0.619448	0.621586
	C130	C	0.010966	0.374675	0.621237
	C131	C	0.994236	0.374662	0.377217
	C132	C	0.881134	0.504795	0.120333
	C133	C	0.124884	0.487562	0.121740
	C134	C	0.124530	0.505332	0.879011
	C135	C	0.881282	0.488916	0.878651
	C136	C	0.123095	0.877494	0.506996
	C137	C	0.124510	0.118857	0.488969
	C138	C	0.882142	0.116504	0.505816
	C139	C	0.880631	0.874970	0.489441
	C140	C	0.511561	0.118968	0.876399
	C141	C	0.495025	0.118832	0.119530
	C142	C	0.509682	0.874583	0.120179
	C143	C	0.493504	0.875272	0.876471
	C144	C	0.380107	0.885244	0.677451
	C145	C	0.625812	0.109384	0.676523
	C146	C	0.622298	0.883271	0.318994
	C147	C	0.383381	0.111031	0.318775
	C148	C	0.684486	0.372505	0.887253
	C149	C	0.681969	0.619212	0.111893
	C150	C	0.320920	0.619993	0.887834
	C151	C	0.322940	0.372632	0.112749
	C152	C	0.890693	0.676547	0.376824
	C153	C	0.114299	0.679232	0.622602
	C154	C	0.890556	0.316671	0.620547
	C155	C	0.113725	0.315978	0.375686
	C156	C	0.890431	0.375277	0.678570
	C157	C	0.115220	0.619993	0.679007
	C158	C	0.890405	0.617727	0.319581
	C159	C	0.114158	0.374132	0.318365
	C160	C	0.379602	0.675901	0.886648
	C161	C	0.622977	0.675990	0.112321
	C162	C	0.625167	0.317728	0.886315
	C163	C	0.382090	0.316535	0.112800
	C164	C	0.683253	0.884299	0.373480
	C165	C	0.683722	0.109306	0.618670
	C166	C	0.321379	0.886259	0.621073
	C167	C	0.322360	0.109733	0.372883
	C168	C	0.881215	0.383559	0.178569
	C169	C	0.124284	0.609299	0.179219
	C170	C	0.123489	0.383604	0.821768
	C171	C	0.881882	0.610442	0.820450
	C172	C	0.180949	0.875920	0.385215
	C173	C	0.184517	0.122060	0.609275
	C174	C	0.824575	0.118324	0.384151
	C175	C	0.820173	0.871912	0.609681
	C176	C	0.391308	0.176746	0.876682
	C177	C	0.615413	0.177209	0.120140
	C178	C	0.389608	0.816555	0.121033
	C179	C	0.612894	0.816550	0.875379
	C180	C	0.389425	0.875406	0.177889
	C181	C	0.615582	0.118523	0.177198
	C182	C	0.391551	0.119108	0.817839
	C183	C	0.613330	0.874695	0.817811
	C184	C	0.882155	0.175670	0.384528
	C185	C	0.125154	0.177021	0.610567
	C186	C	0.122594	0.818995	0.385139
	C187	C	0.879190	0.816387	0.610935
	C188	C	0.182213	0.384218	0.878554
	C189	C	0.184187	0.608142	0.124551
	C190	C	0.821335	0.384540	0.123054
	C191	C	0.822516	0.609321	0.876365
	C192	C	0.406558	0.089990	0.592920
	C193	C	0.599796	0.904480	0.592759
	C194	C	0.602432	0.090010	0.400089
	C195	C	0.403462	0.904875	0.400896
	C196	C	0.600183	0.400468	0.092228
	C197	C	0.600083	0.593610	0.905827
	C198	C	0.406026	0.592600	0.092504
	C199	C	0.404725	0.400772	0.906954
	C200	C	0.094050	0.594659	0.402395
	C201	C	0.911138	0.594791	0.597721
	C202	C	0.095114	0.398459	0.597961
	C203	C	0.910723	0.398591	0.401649
	C204	C	0.905283	0.588921	0.095368
	C205	C	0.100455	0.403697	0.096552
	C206	C	0.100873	0.589522	0.903412
	C207	C	0.905047	0.404698	0.903527
	C208	C	0.099143	0.902759	0.590933
	C209	C	0.099692	0.093853	0.404753
	C210	C	0.905478	0.091988	0.590793
	C211	C	0.905304	0.899730	0.404917
	C212	C	0.594938	0.094652	0.900775
	C213	C	0.411449	0.094961	0.095445
	C214	C	0.593580	0.898441	0.095767
	C215	C	0.410061	0.899615	0.901083
	Zn216	Zn	0.502771	-0.002975	0.746879
	Zn217	Zn	0.502472	-0.002974	0.248380
	Zn218	Zn	0.752276	0.496415	-0.000883
	Zn219	Zn	0.252870	0.496204	0.000625
	Zn220	Zn	0.002549	0.747999	0.499204
	Zn221	Zn	0.002419	0.245360	0.498336
	Zn222	Zn	0.002757	0.497600	0.750360
	Zn223	Zn	0.002857	0.496650	0.248618
	Zn224	Zn	0.501232	0.745845	-0.001442
	Zn225	Zn	0.503787	0.248551	-0.001627
	Zn226	Zn	0.753462	-0.003662	0.496925
	Zn227	Zn	0.252480	-0.001786	0.497403
	N228	N	0.417323	0.960639	0.675407
	N229	N	0.589774	0.033164	0.676058
	N230	N	0.587065	0.959507	0.320156
	N231	N	0.418894	0.035023	0.320454
	N232	N	0.684101	0.408259	0.963858
	N233	N	0.682562	0.583813	0.035246
	N234	N	0.321545	0.584207	0.964586
	N235	N	0.322663	0.409141	0.036439
	N236	N	0.966325	0.677092	0.412092
	N237	N	0.038298	0.679016	0.587709
	N238	N	0.966852	0.315918	0.585925
	N239	N	0.038094	0.316142	0.411543
	N240	N	0.966229	0.410382	0.679054
	N241	N	0.039712	0.583726	0.678854
	N242	N	0.966249	0.582326	0.319973
	N243	N	0.038974	0.410127	0.319214
	N244	N	0.416294	0.674264	0.962410
	N245	N	0.587995	0.675706	0.035617
	N246	N	0.588414	0.319790	0.962047
	N247	N	0.417813	0.318243	0.036486
	N248	N	0.685005	0.961275	0.407918
	N249	N	0.683219	0.033005	0.583252
	N250	N	0.322359	0.962352	0.584816
	N251	N	0.320589	0.032993	0.407756
	N252	N	0.917625	0.459341	0.177052
	N253	N	0.088113	0.533250	0.177740
	N254	N	0.088178	0.459913	0.821954
	N255	N	0.917575	0.534449	0.821633
	N256	N	0.181397	0.911534	0.461730
	N257	N	0.184245	0.086611	0.532545
	N258	N	0.824817	0.082088	0.460485
	N259	N	0.820868	0.907624	0.532964
	N260	N	0.467089	0.177036	0.912064
	N261	N	0.539467	0.177672	0.085109
	N262	N	0.465467	0.815949	0.085898
	N263	N	0.537347	0.816623	0.911128
	N264	N	0.465380	0.910608	0.177616
	N265	N	0.539980	0.082917	0.177028
	N266	N	0.467452	0.084420	0.817361
	N267	N	0.537962	0.910373	0.818255
	N268	N	0.917393	0.174578	0.461291
	N269	N	0.088614	0.175308	0.534660
	N270	N	0.087362	0.819766	0.461836
	N271	N	0.916061	0.818233	0.535159
	N272	N	0.183114	0.461046	0.913157
	N273	N	0.184832	0.531487	0.089670
	N274	N	0.821089	0.461006	0.087523
	N275	N	0.822023	0.532712	0.911778
	O276	O	0.580344	0.370812	0.477069
	H277	H	0.581561	0.356855	0.470341
	H278	H	0.566062	0.373540	0.480359
	O279	O	0.302001	0.294998	0.547098
	H280	H	0.279820	0.275551	0.552189
	H281	H	0.298893	0.310273	0.557294
	O282	O	0.534588	0.647455	0.568624
	H283	H	0.544664	0.644220	0.551660
	H284	H	0.527699	0.642764	0.572395
	O285	O	0.980717	-0.158141	0.072491
	H286	H	0.976010	-0.156548	0.059999
	H287	H	0.984328	-0.147605	0.075614
	O288	O	-0.343742	0.426033	0.369350
	H289	H	-0.345331	0.430763	0.363638
	H290	H	-0.347393	0.416817	0.376140
	O291	O	0.603391	0.463229	0.630958
	H292	H	0.598753	0.455399	0.646452
	H293	H	0.592225	0.456775	0.620533
	O294	O	0.300233	0.526513	0.314081
	H295	H	0.286591	0.523208	0.310521
	H296	H	0.295231	0.530452	0.313835
	O297	O	1.105573	0.985931	1.145684
	H298	H	1.102019	1.000378	1.142106
	H299	H	1.093081	0.989784	1.156687
	O300	O	-0.108947	0.033258	0.012861
	H301	H	-0.109301	0.027767	0.016609
	H302	H	-0.106916	0.032621	0.007853
	O303	O	0.364556	0.657298	0.356469
	H304	H	0.350959	0.655603	0.359236
	H305	H	0.368279	0.656918	0.365752
	O306	O	0.834079	-0.189581	0.183752
	H307	H	0.828136	-0.174263	0.184352
	H308	H	0.832599	-0.201858	0.173894
	O309	O	0.579250	0.513079	0.410713
	H310	H	0.573140	0.522644	0.413671
	H311	H	0.586685	0.511621	0.434042
	O312	O	1.168983	1.140228	-0.024402
	H313	H	1.135692	1.127658	-0.028673
	H314	H	1.174160	1.127653	-0.010489
	O315	O	0.317994	0.500039	0.545340
	H316	H	0.324251	0.507365	0.528591
	H317	H	0.316879	0.501390	0.541056
	O318	O	0.431138	0.643252	0.585922
	H319	H	0.433536	0.649475	0.558957
	H320	H	0.454451	0.654099	0.602041
	O321	O	1.548980	-0.468633	1.452093
	H322	H	1.552539	-0.472173	1.447134
	H323	H	1.554895	-0.477265	1.459994
	O324	O	-0.175563	0.100277	0.954257
	H325	H	-0.181033	0.102775	0.955225
	H326	H	-0.176702	0.095902	0.952858
	O327	O	0.611994	0.506801	0.665055
	H328	H	0.618272	0.502037	0.687314
	H329	H	0.601321	0.497277	0.662001
	O330	O	0.326657	0.352987	0.702523
	H331	H	0.312053	0.342776	0.717944
	H332	H	0.313021	0.377492	0.703032
	O333	O	1.032158	1.036213	1.189390
	H334	H	1.013991	1.038940	1.189382
	H335	H	1.029083	1.023756	1.203147
	O336	O	0.365402	0.629722	0.546439
	H337	H	0.360240	0.608240	0.538750
	H338	H	0.374737	0.640205	0.542399
	O339	O	1.027974	-0.120650	0.879073
	H340	H	1.017094	-0.122823	0.890694
	H341	H	1.022373	-0.118793	0.861031
	O342	O	0.006196	0.921139	0.860104
	H343	H	0.002111	0.932509	0.872173
	H344	H	-0.001643	0.899037	0.860435
	O345	O	0.065152	1.046996	0.892918
	H346	H	0.062137	1.037786	0.878026
	H347	H	0.061794	1.040488	0.884695
	O348	O	0.526984	0.477667	0.483131
	H349	H	0.501465	0.461962	0.488994
	H350	H	0.526021	0.479941	0.475593
	O351	O	-0.011359	0.154656	-0.166931
	H352	H	0.005621	0.155065	-0.166899
	H353	H	-0.010481	0.151882	-0.174659
	O354	O	1.049917	0.980365	-0.135900
	H355	H	1.048012	0.987910	-0.140326
	H356	H	1.053480	0.965886	-0.136380
	O357	O	-0.131889	1.084506	-0.019874
	H358	H	-0.134438	1.086767	-0.037893
	H359	H	-0.131324	1.080280	-0.016137
	O360	O	0.580220	0.584349	0.584056
	H361	H	0.585460	0.560999	0.588775
	H362	H	0.585071	0.593339	0.567674
	O363	O	0.632896	0.584772	0.330002
	H364	H	0.624141	0.584556	0.334529
	H365	H	0.613991	0.588211	0.328396
	O366	O	0.426285	0.627508	0.300614
	H367	H	0.417708	0.647821	0.295533
	H368	H	0.404830	0.624784	0.306293
	O369	O	0.625446	0.378033	0.384066
	H370	H	0.632216	0.383026	0.389309
	H371	H	0.629772	0.377249	0.374609
	O372	O	0.161325	1.014416	0.094726
	H373	H	0.157755	1.006151	0.090891
	H374	H	0.155013	1.014517	0.089798
	O375	O	0.513874	0.384003	0.394116
	H376	H	0.511621	0.394427	0.387112
	H377	H	0.517282	0.369798	0.399085
	O378	O	0.461055	0.416677	0.437175
	H379	H	0.464186	0.419633	0.440461
	H380	H	0.475898	0.419536	0.416850
	O381	O	0.493959	0.288026	0.681273
	H382	H	0.480377	0.272553	0.684553
	H383	H	0.457925	0.283012	0.690274
	O384	O	-0.175733	0.989983	1.188296
	H385	H	-0.176057	0.995108	1.194155
	H386	H	-0.177128	0.990481	1.201146
	O387	O	1.132032	0.925763	-0.078368
	H388	H	1.125039	0.920637	-0.065058
	H389	H	1.137022	0.919376	-0.094491
	O390	O	0.701407	0.668328	0.498018
	H391	H	0.696691	0.657557	0.482061
	H392	H	0.712282	0.673152	0.504304
	O393	O	0.931273	0.188750	0.955004
	H394	H	0.932834	0.192605	0.955933
	H395	H	0.932575	0.197310	0.972273
	O396	O	-0.115499	1.023605	0.928233
	H397	H	-0.119844	1.031957	0.934657
	H398	H	-0.119263	1.018662	0.922451
	O399	O	0.314613	0.448272	0.679888
	H400	H	0.310628	0.465323	0.700780
	H401	H	0.316880	0.460511	0.676968
	O402	O	0.982458	0.014434	1.166911
	H403	H	0.990678	-0.007623	1.172210
	H404	H	0.970645	0.013225	1.152539
	O405	O	0.123110	-0.158783	-0.017187
	H406	H	0.112464	-0.164450	-0.006864
	H407	H	0.115544	-0.167531	-0.015314
	O408	O	1.010372	1.029608	1.043387
	H409	H	1.006095	1.037086	1.034959
	H410	H	1.007282	1.039745	1.039716
	O411	O	0.797236	0.810558	0.007788
	H412	H	0.806934	0.820533	0.019327
	H413	H	0.775232	0.795654	0.008436
	O414	O	0.118221	0.081293	0.854792
	H415	H	0.113851	0.062890	0.858958
	H416	H	0.110289	0.076597	0.882161
	O417	O	0.632284	0.589087	0.613932
	H418	H	0.641041	0.577180	0.616968
	H419	H	0.635581	0.592087	0.635751
	O420	O	-0.138288	1.052487	-0.146009
	H421	H	-0.132514	1.073997	-0.142974
	H422	H	-0.159527	1.060051	-0.163119
	O423	O	1.186386	0.010952	0.033722
	H424	H	1.187013	0.031809	0.039307
	H425	H	1.190128	0.011289	0.039374
	O426	O	0.123312	-0.084809	0.929418
	H427	H	0.128796	-0.097941	0.933174
	H428	H	0.134017	-0.093733	0.929775
	O429	O	0.564793	0.449371	0.597377
	H430	H	0.560973	0.446261	0.588149
	H431	H	0.553914	0.450617	0.597938
