data_Molecule from HDF5

_cell_length_a		16.099704
_cell_length_b		16.118025
_cell_length_c		16.474125
_cell_angle_alpha	89.719329
_cell_angle_beta	90.339048
_cell_angle_gamma	89.776486
_symmetry_space_group_name_H-M	'P 1'
_symmetry_Int_Tables_number		1

loop_
	_symmetry_equiv_pos_as_xyz
	x,y,z

loop_
	_atom_site_label
	_atom_site_type_symbol
	_atom_site_fract_x
	_atom_site_fract_y
	_atom_site_fract_z
	H0	H	0.397172	0.845473	0.715908
	H1	H	0.604013	0.171624	0.715623
	H2	H	0.604059	0.844293	0.283773
	H3	H	0.395562	0.171516	0.277673
	H4	H	0.718225	0.410728	0.834471
	H5	H	0.721164	0.606770	0.159493
	H6	H	0.286018	0.608466	0.836290
	H7	H	0.289692	0.407368	0.159779
	H8	H	0.835528	0.722005	0.400217
	H9	H	0.167593	0.720831	0.595008
	H10	H	0.835650	0.298758	0.593743
	H11	H	0.166803	0.294742	0.402770
	H12	H	0.838671	0.407631	0.715073
	H13	H	0.167010	0.610464	0.714471
	H14	H	0.839917	0.615099	0.277951
	H15	H	0.166409	0.405360	0.284848
	H16	H	0.402062	0.726165	0.836955
	H17	H	0.604126	0.723119	0.159543
	H18	H	0.602254	0.293415	0.834934
	H19	H	0.407571	0.292777	0.159231
	H20	H	0.712309	0.843484	0.404649
	H21	H	0.712296	0.174393	0.594362
	H22	H	0.292098	0.841799	0.591483
	H23	H	0.288529	0.174181	0.400974
	H24	H	0.900594	0.346192	0.216854
	H25	H	0.107168	0.672151	0.216979
	H26	H	0.107145	0.345837	0.782470
	H27	H	0.899603	0.672469	0.779612
	H28	H	0.216891	0.908016	0.335786
	H29	H	0.220200	0.108295	0.658191
	H30	H	0.783935	0.109022	0.335832
	H31	H	0.785110	0.908889	0.659983
	H32	H	0.338280	0.222919	0.898632
	H33	H	0.670023	0.217056	0.093302
	H34	H	0.338508	0.794579	0.095439
	H35	H	0.667956	0.796252	0.902775
	H36	H	0.338395	0.906423	0.212326
	H37	H	0.665458	0.111385	0.217223
	H38	H	0.339084	0.113277	0.779987
	H39	H	0.664911	0.903705	0.780873
	H40	H	0.898854	0.227909	0.336633
	H41	H	0.101610	0.222282	0.660021
	H42	H	0.099740	0.792666	0.336383
	H43	H	0.901441	0.790667	0.659557
	H44	H	0.213882	0.342392	0.905161
	H45	H	0.217222	0.674108	0.096248
	H46	H	0.792978	0.342466	0.094064
	H47	H	0.790148	0.674177	0.899373
	H48	H	0.419371	0.125652	0.597320
	H49	H	0.585907	0.890538	0.599755
	H50	H	0.590498	0.126243	0.405213
	H51	H	0.407135	0.887143	0.394426
	H52	H	0.602083	0.409516	0.113978
	H53	H	0.595521	0.602706	0.882492
	H54	H	0.406930	0.596975	0.113657
	H55	H	0.411857	0.423300	0.885213
	H56	H	0.122216	0.604454	0.404039
	H57	H	0.889800	0.582165	0.589403
	H58	H	0.117683	0.420282	0.586495
	H59	H	0.884607	0.422854	0.404766
	H60	H	0.122210	0.419797	0.601527
	H61	H	0.878258	0.604300	0.606895
	H62	H	0.117927	0.600287	0.411613
	H63	H	0.883529	0.419898	0.403352
	H64	H	0.416143	0.598590	0.110873
	H65	H	0.597282	0.602476	0.882523
	H66	H	0.601449	0.415929	0.111949
	H67	H	0.413554	0.410081	0.881653
	H68	H	0.589601	0.127206	0.403649
	H69	H	0.587955	0.894624	0.583805
	H70	H	0.411191	0.123272	0.580075
	H71	H	0.419021	0.893176	0.404654
	H72	H	0.910166	0.629076	0.093344
	H73	H	0.089954	0.392665	0.094560
	H74	H	0.092180	0.626072	0.906733
	H75	H	0.922119	0.394743	0.908342
	H76	H	0.098438	0.924069	0.610374
	H77	H	0.092127	0.098244	0.384012
	H78	H	0.904599	0.105554	0.614729
	H79	H	0.910451	0.910877	0.383617
	H80	H	0.624132	0.103783	0.899461
	H81	H	0.386916	0.099398	0.083622
	H82	H	0.619949	0.919024	0.087244
	H83	H	0.386810	0.921125	0.911964
	H84	H	0.621404	0.922175	0.097878
	H85	H	0.383908	0.095940	0.093485
	H86	H	0.618933	0.100066	0.913035
	H87	H	0.384776	0.923296	0.899505
	H88	H	0.906004	0.098814	0.612118
	H89	H	0.089090	0.105568	0.382512
	H90	H	0.086345	0.912745	0.610896
	H91	H	0.899864	0.915901	0.380771
	H92	H	0.096157	0.627807	0.905629
	H93	H	0.097430	0.392191	0.089086
	H94	H	0.919830	0.624462	0.092051
	H95	H	0.904987	0.389939	0.910565
	H96	H	0.401121	0.130764	0.594233
	H97	H	0.601793	0.886986	0.592312
	H98	H	0.588290	0.125901	0.404983
	H99	H	0.402946	0.890443	0.409616
	H100	H	0.596556	0.411972	0.112172
	H101	H	0.595652	0.601604	0.882960
	H102	H	0.410804	0.606239	0.114314
	H103	H	0.401527	0.416529	0.879808
	H104	H	0.119304	0.595153	0.403771
	H105	H	0.884851	0.610660	0.578565
	H106	H	0.122982	0.406658	0.592391
	H107	H	0.884615	0.420007	0.406566
	H108	H	0.912456	0.624576	0.084106
	H109	H	0.097772	0.389300	0.097843
	H110	H	0.093282	0.626884	0.902301
	H111	H	0.913381	0.388078	0.894833
	H112	H	0.100993	0.908445	0.616229
	H113	H	0.096309	0.103636	0.381380
	H114	H	0.911872	0.103488	0.611966
	H115	H	0.908866	0.922475	0.385842
	H116	H	0.618517	0.089651	0.902325
	H117	H	0.383346	0.106616	0.090566
	H118	H	0.623185	0.911260	0.094653
	H119	H	0.381851	0.911269	0.904421
	C120	C	0.380654	0.017571	0.619008
	C121	C	0.621805	0.999630	0.620129
	C122	C	0.620455	0.017461	0.377115
	C123	C	0.379443	0.999180	0.374600
	C124	C	0.627565	0.384975	0.005286
	C125	C	0.625995	0.630985	0.989323
	C126	C	0.380940	0.630616	0.006447
	C127	C	0.381478	0.386488	0.989282
	C128	C	0.010687	0.630481	0.376646
	C129	C	0.993466	0.629182	0.619796
	C130	C	0.011411	0.387524	0.620893
	C131	C	0.993160	0.389178	0.377558
	C132	C	0.883662	0.517515	0.118863
	C133	C	0.125265	0.500235	0.122016
	C134	C	0.123532	0.517959	0.877642
	C135	C	0.882936	0.499996	0.875881
	C136	C	0.123950	0.886179	0.505817
	C137	C	0.122846	0.130987	0.489291
	C138	C	0.877532	0.132442	0.506395
	C139	C	0.877985	0.886229	0.489967
	C140	C	0.511597	0.129010	0.875769
	C141	C	0.493886	0.129262	0.118896
	C142	C	0.512092	0.887670	0.120118
	C143	C	0.493150	0.888298	0.876736
	C144	C	0.379900	0.893883	0.675895
	C145	C	0.621983	0.122966	0.676278
	C146	C	0.621717	0.893660	0.322184
	C147	C	0.378186	0.122863	0.317527
	C148	C	0.681451	0.389080	0.883295
	C149	C	0.682585	0.627688	0.110951
	C150	C	0.324510	0.628941	0.884658
	C151	C	0.327259	0.387721	0.111255
	C152	C	0.885776	0.685641	0.379142
	C153	C	0.117956	0.684100	0.616275
	C154	C	0.886019	0.334415	0.616060
	C155	C	0.117458	0.332425	0.381685
	C156	C	0.887683	0.388474	0.676463
	C157	C	0.117644	0.629474	0.675984
	C158	C	0.887927	0.632351	0.318326
	C159	C	0.117342	0.387610	0.322959
	C160	C	0.382378	0.687374	0.885097
	C161	C	0.624692	0.685770	0.111024
	C162	C	0.623637	0.330745	0.883379
	C163	C	0.386162	0.330580	0.110958
	C164	C	0.675919	0.893114	0.382012
	C165	C	0.675967	0.124469	0.616058
	C166	C	0.327004	0.892288	0.614403
	C167	C	0.324403	0.124314	0.378410
	C168	C	0.882875	0.394445	0.176638
	C169	C	0.125848	0.623643	0.177778
	C170	C	0.124918	0.394364	0.821723
	C171	C	0.881694	0.623708	0.818920
	C172	C	0.178741	0.888365	0.384067
	C173	C	0.180536	0.128315	0.610412
	C174	C	0.821657	0.129960	0.384379
	C175	C	0.823263	0.888188	0.611739
	C176	C	0.387676	0.185838	0.877962
	C177	C	0.619310	0.181817	0.115399
	C178	C	0.387812	0.832151	0.116313
	C179	C	0.617984	0.832757	0.880485
	C180	C	0.387889	0.887505	0.174703
	C181	C	0.617078	0.129154	0.176973
	C182	C	0.388052	0.130977	0.818896
	C183	C	0.616241	0.886130	0.819871
	C184	C	0.878656	0.189217	0.385012
	C185	C	0.121318	0.185066	0.611232
	C186	C	0.120658	0.830718	0.384449
	C187	C	0.881189	0.829779	0.611569
	C188	C	0.177824	0.392543	0.882956
	C189	C	0.180528	0.624523	0.117865
	C190	C	0.829027	0.392784	0.115706
	C191	C	0.827003	0.624495	0.878386
	C192	C	0.403593	0.104108	0.597057
	C193	C	0.598781	0.913066	0.598244
	C194	C	0.596528	0.104099	0.398374
	C195	C	0.402623	0.912814	0.396419
	C196	C	0.606203	0.406178	0.090573
	C197	C	0.602872	0.608811	0.904565
	C198	C	0.404287	0.607460	0.091117
	C199	C	0.402716	0.409769	0.904211
	C200	C	0.097322	0.606780	0.399674
	C201	C	0.906737	0.605913	0.597987
	C202	C	0.098351	0.409194	0.599724
	C203	C	0.906517	0.413772	0.398678
	C204	C	0.907190	0.603621	0.096337
	C205	C	0.101882	0.413729	0.100246
	C206	C	0.100575	0.604708	0.898738
	C207	C	0.906466	0.413408	0.898113
	C208	C	0.101737	0.908558	0.590354
	C209	C	0.099409	0.108810	0.404546
	C210	C	0.900638	0.109452	0.591016
	C211	C	0.899932	0.909549	0.405411
	C212	C	0.598145	0.104899	0.898326
	C213	C	0.407005	0.106987	0.095936
	C214	C	0.598845	0.910810	0.099251
	C215	C	0.406962	0.911783	0.898777
	Zn216	Zn	0.501241	0.008353	0.747984
	Zn217	Zn	0.501653	0.008653	0.247453
	Zn218	Zn	0.756097	0.508544	-0.003095
	Zn219	Zn	0.251350	0.508481	-0.001495
	Zn220	Zn	0.001601	0.756891	0.498207
	Zn221	Zn	0.001210	0.261266	0.498107
	Zn222	Zn	0.003767	0.508829	0.748473
	Zn223	Zn	0.003533	0.509257	0.249431
	Zn224	Zn	0.503468	0.760764	-0.001468
	Zn225	Zn	0.503760	0.256351	-0.003317
	Zn226	Zn	0.748510	0.009168	0.498026
	Zn227	Zn	0.252610	0.008086	0.497107
	N228	N	0.412434	0.972741	0.678929
	N229	N	0.589175	0.044249	0.678839
	N230	N	0.587822	0.972208	0.319206
	N231	N	0.411567	0.044318	0.314940
	N232	N	0.684058	0.421877	0.960127
	N233	N	0.683555	0.594343	0.034325
	N234	N	0.323310	0.594615	0.961160
	N235	N	0.324319	0.421714	0.034630
	N236	N	0.963179	0.684464	0.414666
	N237	N	0.039772	0.683857	0.581922
	N238	N	0.963951	0.333605	0.582281
	N239	N	0.039343	0.333590	0.414919
	N240	N	0.966749	0.420438	0.679854
	N241	N	0.039176	0.596155	0.678292
	N242	N	0.966709	0.598856	0.316603
	N243	N	0.038975	0.422127	0.320134
	N244	N	0.416888	0.688392	0.961779
	N245	N	0.590170	0.687906	0.034412
	N246	N	0.590856	0.327959	0.960337
	N247	N	0.419019	0.329652	0.033985
	N248	N	0.675293	0.971173	0.415453
	N249	N	0.676128	0.046642	0.581883
	N250	N	0.327398	0.970035	0.579623
	N251	N	0.325088	0.046530	0.413300
	N252	N	0.915980	0.473077	0.179003
	N253	N	0.092104	0.545271	0.180437
	N254	N	0.091814	0.473238	0.818354
	N255	N	0.915679	0.545275	0.817234
	N256	N	0.180773	0.922400	0.460447
	N257	N	0.181578	0.095186	0.533640
	N258	N	0.820551	0.095465	0.460987
	N259	N	0.821165	0.922560	0.535277
	N260	N	0.465585	0.184541	0.912689
	N261	N	0.541436	0.182474	0.080268
	N262	N	0.466034	0.831904	0.083127
	N263	N	0.540599	0.833858	0.915339
	N264	N	0.466283	0.921175	0.177370
	N265	N	0.537890	0.097500	0.179371
	N266	N	0.466146	0.096181	0.817580
	N267	N	0.537757	0.920189	0.817586
	N268	N	0.912828	0.190797	0.461675
	N269	N	0.085933	0.186689	0.534910
	N270	N	0.087110	0.829467	0.461006
	N271	N	0.914288	0.828253	0.534791
	N272	N	0.177144	0.470408	0.916972
	N273	N	0.180413	0.546674	0.083889
	N274	N	0.829451	0.470278	0.080385
	N275	N	0.827685	0.546676	0.913083
	O276	O	0.508814	0.469706	0.529664
	H277	H	0.500068	0.469065	0.525449
	H278	H	0.512416	0.476443	0.533042
	O279	O	0.945962	-0.044620	1.012807
	H280	H	0.950567	-0.062592	1.022765
	H281	H	0.936960	-0.046282	1.023933
	O282	O	1.084169	1.042691	-0.074894
	H283	H	1.082345	1.058363	-0.072163
	H284	H	1.082098	1.047151	-0.075888
	O285	O	0.832512	0.162972	0.894447
	H286	H	0.833469	0.163278	0.910950
	H287	H	0.819075	0.167491	0.885123
	O288	O	0.574156	0.476772	0.407520
	H289	H	0.583219	0.470527	0.397318
	H290	H	0.579045	0.464639	0.417909
	O291	O	0.522227	0.538784	0.477223
	H292	H	0.531305	0.541591	0.472983
	H293	H	0.525163	0.540349	0.492205
	O294	O	0.584322	0.396661	0.428834
	H295	H	0.584176	0.387519	0.437354
	H296	H	0.588384	0.406208	0.434379
	O297	O	0.002801	0.029963	0.846862
	H298	H	-0.004067	0.042371	0.836250
	H299	H	-0.015298	0.014094	0.850381
	O300	O	0.490524	0.518376	0.496068
	H301	H	0.495552	0.523309	0.491222
	H302	H	0.490811	0.517691	0.486830
	O303	O	0.533507	0.566157	0.471917
	H304	H	0.532172	0.566609	0.471715
	H305	H	0.536464	0.563893	0.463423
	O306	O	-0.002663	1.009634	1.082739
	H307	H	0.006659	1.005954	1.070777
	H308	H	0.009680	1.010230	1.094757
	O309	O	0.459782	0.479103	0.438291
	H310	H	0.460162	0.483614	0.434741
	H311	H	0.446615	0.474590	0.434691
	O312	O	0.108397	0.024186	0.076419
	H313	H	0.113085	0.020832	0.068974
	H314	H	0.118566	0.018437	0.062552
	O315	O	1.018413	0.059463	0.074109
	H316	H	1.016678	0.061260	0.073700
	H317	H	1.026082	0.064175	0.074939
	O318	O	1.096391	1.011567	0.870902
	H319	H	1.092855	0.994806	0.865252
	H320	H	1.091963	1.010387	0.863583
	O321	O	0.018767	-0.009472	1.020370
	H322	H	0.024162	-0.008315	1.016488
	H323	H	0.027192	-0.003337	1.012940
	O324	O	0.498307	0.566571	0.425951
	H325	H	0.500501	0.568200	0.421538
	H326	H	0.494170	0.574016	0.428108
	O327	O	0.038636	-0.101379	-0.038207
	H328	H	0.033466	-0.102231	-0.044457
	H329	H	0.043304	-0.092436	-0.032282
	O330	O	0.439198	0.621775	0.460229
	H331	H	0.441399	0.629820	0.464807
	H332	H	0.445367	0.630878	0.470923
	O333	O	-0.105023	0.973844	1.102504
	H334	H	-0.104282	0.972302	1.108811
	H335	H	-0.098528	0.986162	1.111450
	O336	O	-0.133501	0.044256	-0.136057
	H337	H	-0.144985	0.044765	-0.139134
	H338	H	-0.135256	0.040586	-0.126529
	O339	O	0.389587	0.495952	0.474845
	H340	H	0.380096	0.500734	0.481267
	H341	H	0.376855	0.506642	0.465023
	O342	O	0.928226	1.047375	1.021109
	H343	H	0.934535	1.041062	1.028811
	H344	H	0.943586	1.048240	1.022108
	O345	O	1.075818	1.165060	0.011646
	H346	H	1.085108	1.160030	0.002956
	H347	H	1.068495	1.158856	0.011801
	O348	O	0.615588	0.591234	0.528929
	H349	H	0.616026	0.590248	0.519098
	H350	H	0.607607	0.581755	0.530951
	O351	O	0.459191	0.495017	0.528352
	H352	H	0.457898	0.486576	0.536956
	H353	H	0.468979	0.488239	0.513075
	O354	O	-0.022109	-0.141401	0.018607
	H355	H	-0.031945	-0.144206	0.014763
	H356	H	-0.024585	-0.138374	0.026516
	O357	O	0.976469	-0.003822	1.037073
	H358	H	0.980275	0.004557	1.032459
	H359	H	0.973271	-0.005861	1.046347
	O360	O	0.505936	0.450602	0.542934
	H361	H	0.504791	0.452349	0.528833
	H362	H	0.513974	0.449549	0.534816
	O363	O	0.633208	0.519794	0.605689
	H364	H	0.644203	0.525924	0.614503
	H365	H	0.637111	0.522724	0.602845
	O366	O	1.100811	1.009611	1.112234
	H367	H	1.095605	1.010195	1.116340
	H368	H	1.103276	1.027554	1.103092
	O369	O	1.057334	-0.115776	1.023527
	H370	H	1.045595	-0.113337	1.021368
	H371	H	1.065217	-0.121285	1.018659
	O372	O	-0.037959	-0.014598	0.066467
	H373	H	-0.033298	-0.018604	0.063073
	H374	H	-0.024518	-0.017047	0.066676
	O375	O	0.991092	0.082566	-0.126135
	H376	H	0.979844	0.092225	-0.126830
	H377	H	0.993190	0.082459	-0.132140
	O378	O	0.490938	0.367556	0.500170
	H379	H	0.488850	0.369262	0.498127
	H380	H	0.490967	0.359807	0.503911
	O381	O	0.565186	0.518616	0.506346
	H382	H	0.557033	0.519216	0.506835
	H383	H	0.571609	0.511579	0.506607
