data_Molecule from HDF5

_cell_length_a		16.287872
_cell_length_b		16.189731
_cell_length_c		16.327763
_cell_angle_alpha	90.020621
_cell_angle_beta	89.821902
_cell_angle_gamma	90.160563
_symmetry_space_group_name_H-M	'P 1'
_symmetry_Int_Tables_number		1

loop_
	_symmetry_equiv_pos_as_xyz
	x,y,z

loop_
	_atom_site_label
	_atom_site_type_symbol
	_atom_site_fract_x
	_atom_site_fract_y
	_atom_site_fract_z
	H0	H	0.398332	0.840115	0.710775
	H1	H	0.597059	0.169276	0.709316
	H2	H	0.596913	0.839580	0.282887
	H3	H	0.402616	0.169611	0.283313
	H4	H	0.713916	0.406016	0.834092
	H5	H	0.713080	0.603022	0.160589
	H6	H	0.285084	0.602476	0.833368
	H7	H	0.282227	0.404586	0.159782
	H8	H	0.834599	0.718737	0.399903
	H9	H	0.163763	0.718487	0.592668
	H10	H	0.834522	0.291897	0.593764
	H11	H	0.163336	0.291676	0.397917
	H12	H	0.836306	0.405012	0.712106
	H13	H	0.162544	0.605268	0.711063
	H14	H	0.834854	0.603638	0.282549
	H15	H	0.162482	0.407199	0.280962
	H16	H	0.403017	0.716962	0.832698
	H17	H	0.595964	0.718621	0.160366
	H18	H	0.595767	0.291548	0.832840
	H19	H	0.400287	0.290097	0.161114
	H20	H	0.713392	0.840096	0.397431
	H21	H	0.711981	0.170060	0.592932
	H22	H	0.284808	0.839434	0.593368
	H23	H	0.286061	0.169843	0.399007
	H24	H	0.899105	0.340473	0.211020
	H25	H	0.097341	0.669941	0.209509
	H26	H	0.097856	0.340462	0.780799
	H27	H	0.901797	0.669012	0.782414
	H28	H	0.213523	0.906187	0.333402
	H29	H	0.213487	0.103995	0.660514
	H30	H	0.785804	0.103073	0.332893
	H31	H	0.783355	0.905517	0.660271
	H32	H	0.334690	0.217274	0.898998
	H33	H	0.662917	0.217020	0.092208
	H34	H	0.333930	0.791547	0.093369
	H35	H	0.663692	0.792227	0.899826
	H36	H	0.335367	0.904962	0.212390
	H37	H	0.662123	0.104873	0.210594
	H38	H	0.335614	0.102712	0.781334
	H39	H	0.661732	0.905438	0.780185
	H40	H	0.902836	0.218495	0.332787
	H41	H	0.095351	0.218482	0.660991
	H42	H	0.096184	0.792122	0.332740
	H43	H	0.901139	0.790121	0.660099
	H44	H	0.211606	0.339244	0.897987
	H45	H	0.213809	0.668768	0.093920
	H46	H	0.784791	0.340373	0.095107
	H47	H	0.786444	0.668860	0.899011
	H48	H	0.415270	0.118337	0.588389
	H49	H	0.592313	0.887713	0.585335
	H50	H	0.578170	0.118083	0.402166
	H51	H	0.408325	0.889210	0.406639
	H52	H	0.601291	0.417419	0.114860
	H53	H	0.593490	0.601893	0.879588
	H54	H	0.416037	0.589694	0.108012
	H55	H	0.402172	0.411289	0.879987
	H56	H	0.115423	0.598610	0.401716
	H57	H	0.884370	0.592091	0.589318
	H58	H	0.120615	0.407851	0.602693
	H59	H	0.881266	0.410323	0.399106
	H60	H	0.115581	0.402161	0.577848
	H61	H	0.881453	0.598577	0.594357
	H62	H	0.115712	0.598881	0.401582
	H63	H	0.881316	0.408009	0.404202
	H64	H	0.406577	0.610133	0.116150
	H65	H	0.598042	0.593589	0.881090
	H66	H	0.582187	0.414697	0.109912
	H67	H	0.407413	0.412688	0.882171
	H68	H	0.601419	0.120455	0.414847
	H69	H	0.593067	0.886639	0.590573
	H70	H	0.400614	0.120506	0.582773
	H71	H	0.401209	0.886541	0.404512
	H72	H	0.915571	0.620319	0.093104
	H73	H	0.087519	0.390678	0.081908
	H74	H	0.097995	0.624062	0.901363
	H75	H	0.903257	0.387970	0.908837
	H76	H	0.097731	0.907967	0.615656
	H77	H	0.095688	0.104755	0.377972
	H78	H	0.905946	0.101219	0.613213
	H79	H	0.905904	0.921864	0.383283
	H80	H	0.619735	0.107368	0.897180
	H81	H	0.381487	0.100537	0.087725
	H82	H	0.613938	0.914581	0.090181
	H83	H	0.384672	0.916790	0.905807
	H84	H	0.616316	0.910051	0.091950
	H85	H	0.384153	0.090872	0.088035
	H86	H	0.612627	0.097114	0.912030
	H87	H	0.380162	0.910745	0.894702
	H88	H	0.901828	0.097907	0.613861
	H89	H	0.098065	0.092635	0.381113
	H90	H	0.093422	0.919157	0.611239
	H91	H	0.914449	0.907010	0.381608
	H92	H	0.088253	0.620891	0.899296
	H93	H	0.098866	0.385130	0.089666
	H94	H	0.903454	0.619775	0.079855
	H95	H	0.903751	0.384699	0.898160
	H96	H	0.403902	0.124772	0.597647
	H97	H	0.588465	0.887561	0.588751
	H98	H	0.599487	0.127859	0.389222
	H99	H	0.407202	0.886853	0.399146
	H100	H	0.592909	0.398644	0.117388
	H101	H	0.587961	0.594683	0.882667
	H102	H	0.393332	0.590589	0.114500
	H103	H	0.406290	0.407050	0.880188
	H104	H	0.115123	0.598837	0.400854
	H105	H	0.883096	0.600186	0.585857
	H106	H	0.111055	0.426607	0.586813
	H107	H	0.882914	0.414020	0.403241
	H108	H	0.898890	0.626304	0.096261
	H109	H	0.085712	0.386656	0.096823
	H110	H	0.092175	0.619852	0.909080
	H111	H	0.912639	0.389056	0.903468
	H112	H	0.085285	0.909221	0.612161
	H113	H	0.086791	0.097107	0.382888
	H114	H	0.906326	0.096205	0.611482
	H115	H	0.897344	0.908163	0.377312
	H116	H	0.615083	0.088445	0.894955
	H117	H	0.380560	0.095686	0.096359
	H118	H	0.614369	0.910681	0.087184
	H119	H	0.381330	0.904046	0.906600
	C120	C	0.377259	0.012685	0.617950
	C121	C	0.619485	0.996353	0.616737
	C122	C	0.621098	0.012879	0.374032
	C123	C	0.377578	0.996458	0.375209
	C124	C	0.620517	0.382491	0.005546
	C125	C	0.621190	0.625867	0.989100
	C126	C	0.377326	0.625249	0.005007
	C127	C	0.376763	0.381742	0.988707
	C128	C	0.007166	0.626823	0.374287
	C129	C	0.991077	0.626375	0.617843
	C130	C	0.007765	0.383362	0.617821
	C131	C	0.990445	0.383042	0.374005
	C132	C	0.877217	0.513400	0.118322
	C133	C	0.119666	0.496076	0.117421
	C134	C	0.121172	0.512957	0.874358
	C135	C	0.878433	0.496019	0.875303
	C136	C	0.120036	0.883852	0.504753
	C137	C	0.121498	0.127061	0.488689
	C138	C	0.877128	0.126942	0.504949
	C139	C	0.877227	0.883102	0.488656
	C140	C	0.507267	0.125472	0.874335
	C141	C	0.490262	0.125300	0.117964
	C142	C	0.506700	0.882535	0.118511
	C143	C	0.490486	0.882494	0.874316
	C144	C	0.378868	0.888977	0.672637
	C145	C	0.617264	0.120277	0.671496
	C146	C	0.617540	0.888922	0.319989
	C147	C	0.381057	0.120469	0.320650
	C148	C	0.675653	0.385658	0.882693
	C149	C	0.675678	0.623553	0.111789
	C150	C	0.322873	0.622967	0.881999
	C151	C	0.321145	0.384562	0.111507
	C152	C	0.883458	0.681365	0.378352
	C153	C	0.114682	0.680971	0.613674
	C154	C	0.883933	0.328956	0.614955
	C155	C	0.114270	0.329351	0.377393
	C156	C	0.884848	0.385164	0.673636
	C157	C	0.113994	0.625115	0.672887
	C158	C	0.883637	0.624141	0.320088
	C159	C	0.113700	0.386451	0.318878
	C160	C	0.381323	0.680033	0.881832
	C161	C	0.617089	0.680560	0.111868
	C162	C	0.616883	0.328747	0.882097
	C163	C	0.379353	0.327337	0.112035
	C164	C	0.675462	0.889108	0.376979
	C165	C	0.674183	0.120678	0.613596
	C166	C	0.322325	0.888847	0.614398
	C167	C	0.323250	0.120445	0.378032
	C168	C	0.879515	0.389634	0.172999
	C169	C	0.117895	0.620401	0.172207
	C170	C	0.118029	0.389314	0.819002
	C171	C	0.881493	0.619860	0.820466
	C172	C	0.175282	0.886263	0.381907
	C173	C	0.175978	0.124594	0.611655
	C174	C	0.823571	0.123290	0.381583
	C175	C	0.821462	0.885262	0.611367
	C176	C	0.383732	0.179748	0.878164
	C177	C	0.613933	0.180016	0.113935
	C178	C	0.383251	0.828304	0.114804
	C179	C	0.614372	0.828751	0.878214
	C180	C	0.384013	0.884574	0.174028
	C181	C	0.613446	0.123939	0.172501
	C182	C	0.384088	0.123022	0.819611
	C183	C	0.613514	0.884950	0.818800
	C184	C	0.881681	0.180749	0.381451
	C185	C	0.117210	0.181408	0.612080
	C186	C	0.117253	0.829026	0.381775
	C187	C	0.880048	0.828032	0.611441
	C188	C	0.174489	0.388579	0.877289
	C189	C	0.175721	0.620023	0.114800
	C190	C	0.822478	0.389451	0.115669
	C191	C	0.823930	0.619790	0.878089
	C192	C	0.399897	0.098922	0.596063
	C193	C	0.597531	0.909642	0.594770
	C194	C	0.599485	0.099722	0.395563
	C195	C	0.399243	0.909805	0.397043
	C196	C	0.598750	0.403967	0.091889
	C197	C	0.599546	0.603294	0.903193
	C198	C	0.398899	0.603200	0.090797
	C199	C	0.398910	0.403575	0.903149
	C200	C	0.093185	0.605202	0.395298
	C201	C	0.905034	0.603633	0.596281
	C202	C	0.093566	0.405625	0.595636
	C203	C	0.904081	0.404497	0.395856
	C204	C	0.899416	0.599810	0.096161
	C205	C	0.097315	0.409882	0.095724
	C206	C	0.099329	0.599171	0.896710
	C207	C	0.900229	0.409562	0.897143
	C208	C	0.098278	0.905638	0.590908
	C209	C	0.099766	0.104704	0.402944
	C210	C	0.898307	0.105005	0.590875
	C211	C	0.899443	0.905702	0.402826
	C212	C	0.593389	0.103942	0.895273
	C213	C	0.404521	0.102674	0.096814
	C214	C	0.592840	0.905014	0.096294
	C215	C	0.404275	0.904114	0.896007
	Zn216	Zn	0.498988	0.004431	0.745537
	Zn217	Zn	0.498923	0.004574	0.246429
	Zn218	Zn	0.749885	0.504309	-0.002991
	Zn219	Zn	0.248353	0.503974	-0.003999
	Zn220	Zn	-0.000934	0.754771	0.496714
	Zn221	Zn	-0.000783	0.254997	0.496714
	Zn222	Zn	-0.000329	0.504594	0.746096
	Zn223	Zn	-0.001453	0.504840	0.245674
	Zn224	Zn	0.499109	0.754039	-0.003080
	Zn225	Zn	0.498554	0.253495	-0.002850
	Zn226	Zn	0.748048	0.004944	0.496443
	Zn227	Zn	0.249410	0.004774	0.496523
	N228	N	0.412748	0.966922	0.674706
	N229	N	0.584135	0.042005	0.673466
	N230	N	0.584453	0.967121	0.318021
	N231	N	0.414076	0.042407	0.318686
	N232	N	0.677910	0.418296	0.960567
	N233	N	0.678055	0.590165	0.034194
	N234	N	0.320305	0.589652	0.959564
	N235	N	0.319285	0.417673	0.033891
	N236	N	0.961015	0.683150	0.411468
	N237	N	0.037055	0.682064	0.580497
	N238	N	0.961384	0.327683	0.581009
	N239	N	0.036555	0.326879	0.410794
	N240	N	0.962766	0.418048	0.675693
	N241	N	0.036257	0.591649	0.675236
	N242	N	0.961427	0.591194	0.317369
	N243	N	0.035933	0.419106	0.316956
	N244	N	0.414360	0.681563	0.959227
	N245	N	0.584148	0.682246	0.034484
	N246	N	0.583221	0.326826	0.959453
	N247	N	0.413282	0.325607	0.034834
	N248	N	0.677877	0.967290	0.409725
	N249	N	0.675716	0.042483	0.580252
	N250	N	0.321198	0.966807	0.581186
	N251	N	0.321074	0.042312	0.410962
	N252	N	0.912811	0.467850	0.174781
	N253	N	0.084092	0.542422	0.174067
	N254	N	0.085463	0.467539	0.817122
	N255	N	0.914739	0.541749	0.818654
	N256	N	0.177170	0.919448	0.459479
	N257	N	0.178796	0.091683	0.533970
	N258	N	0.820506	0.090656	0.459398
	N259	N	0.819617	0.918831	0.533815
	N260	N	0.461241	0.181715	0.911218
	N261	N	0.536471	0.180784	0.080719
	N262	N	0.460831	0.827188	0.080960
	N263	N	0.536941	0.827091	0.911991
	N264	N	0.461883	0.917476	0.176338
	N265	N	0.535613	0.090648	0.175408
	N266	N	0.461934	0.090147	0.817049
	N267	N	0.535594	0.917688	0.816320
	N268	N	0.914206	0.183007	0.459051
	N269	N	0.084090	0.183121	0.534523
	N270	N	0.083613	0.827498	0.459150
	N271	N	0.913852	0.826746	0.534172
	N272	N	0.176441	0.466399	0.911041
	N273	N	0.176930	0.542000	0.081306
	N274	N	0.821203	0.467288	0.082114
	N275	N	0.821898	0.541811	0.911433
	O276	O	0.006032	0.026562	1.103169
	H277	H	0.010416	0.030089	1.100795
	H278	H	-0.000327	0.027353	1.102103
	O279	O	0.447116	0.486459	0.570113
	H280	H	0.443496	0.492173	0.578590
	H281	H	0.444429	0.492708	0.568601
	O282	O	0.459231	0.476749	0.616859
	H283	H	0.459524	0.470004	0.619240
	H284	H	0.450807	0.481232	0.617071
	O285	O	0.499068	0.547066	0.617703
	H286	H	0.504963	0.546748	0.618265
	H287	H	0.500949	0.535817	0.612892
	O288	O	0.990076	0.012397	0.118140
	H289	H	0.993102	0.020275	0.115947
	H290	H	0.989256	0.024403	0.115812
	O291	O	-0.010083	1.032376	1.105504
	H292	H	-0.007844	1.024720	1.106346
	H293	H	-0.015017	1.025725	1.116083
	O294	O	0.462089	0.518824	0.586111
	H295	H	0.463285	0.517631	0.589252
	H296	H	0.467270	0.522733	0.589151
	O297	O	0.968290	0.023506	0.122150
	H298	H	0.970950	0.021240	0.126979
	H299	H	0.967227	0.020090	0.129624
