data_Molecule from HDF5

_cell_length_a		16.322192
_cell_length_b		16.347991
_cell_length_c		16.248624
_cell_angle_alpha	90.073348
_cell_angle_beta	90.375624
_cell_angle_gamma	90.269789
_symmetry_space_group_name_H-M	'P 1'
_symmetry_Int_Tables_number		1

loop_
	_symmetry_equiv_pos_as_xyz
	x,y,z

loop_
	_atom_site_label
	_atom_site_type_symbol
	_atom_site_fract_x
	_atom_site_fract_y
	_atom_site_fract_z
	H0	H	0.393753	0.830689	0.718072
	H1	H	0.597414	0.154696	0.717724
	H2	H	0.598720	0.833500	0.280294
	H3	H	0.394571	0.154981	0.283652
	H4	H	0.712348	0.393212	0.836404
	H5	H	0.719148	0.596066	0.161285
	H6	H	0.280653	0.593415	0.837578
	H7	H	0.280901	0.389369	0.162362
	H8	H	0.835263	0.707285	0.396009
	H9	H	0.155512	0.714431	0.607854
	H10	H	0.834204	0.274021	0.601027
	H11	H	0.157211	0.270794	0.398304
	H12	H	0.835763	0.390245	0.717840
	H13	H	0.159598	0.593828	0.718021
	H14	H	0.836679	0.591386	0.280115
	H15	H	0.158990	0.388066	0.284204
	H16	H	0.396982	0.708960	0.837696
	H17	H	0.604265	0.712196	0.162090
	H18	H	0.598454	0.274554	0.838063
	H19	H	0.396799	0.275598	0.162727
	H20	H	0.713056	0.832517	0.397441
	H21	H	0.716743	0.152290	0.605927
	H22	H	0.276097	0.831279	0.603147
	H23	H	0.277368	0.154164	0.397493
	H24	H	0.897528	0.329640	0.215508
	H25	H	0.103788	0.653357	0.221726
	H26	H	0.098144	0.330220	0.784446
	H27	H	0.899407	0.653461	0.783570
	H28	H	0.212708	0.887662	0.338438
	H29	H	0.213094	0.092360	0.663088
	H30	H	0.777674	0.091400	0.339036
	H31	H	0.778360	0.889165	0.663755
	H32	H	0.334705	0.210341	0.897127
	H33	H	0.657401	0.211784	0.104984
	H34	H	0.337325	0.770645	0.104797
	H35	H	0.659115	0.776087	0.897534
	H36	H	0.334209	0.890378	0.216752
	H37	H	0.657057	0.096036	0.220617
	H38	H	0.333613	0.092390	0.783171
	H39	H	0.658751	0.893721	0.784286
	H40	H	0.892009	0.207396	0.338639
	H41	H	0.097726	0.208799	0.663364
	H42	H	0.097263	0.771599	0.339481
	H43	H	0.892262	0.771303	0.663001
	H44	H	0.212623	0.329553	0.900889
	H45	H	0.218629	0.653657	0.104433
	H46	H	0.778219	0.332525	0.102618
	H47	H	0.779493	0.652305	0.892631
	H48	H	0.401800	0.109844	0.598010
	H49	H	0.593524	0.873107	0.598268
	H50	H	0.581885	0.105229	0.414120
	H51	H	0.412095	0.879862	0.405011
	H52	H	0.586014	0.408408	0.112712
	H53	H	0.584477	0.579028	0.887208
	H54	H	0.408538	0.585857	0.117005
	H55	H	0.412033	0.404916	0.887266
	H56	H	0.113252	0.581613	0.408775
	H57	H	0.881135	0.585102	0.591350
	H58	H	0.113348	0.396509	0.592082
	H59	H	0.881612	0.397994	0.407384
	H60	H	0.111314	0.400213	0.590330
	H61	H	0.883332	0.579260	0.587880
	H62	H	0.112103	0.586884	0.415311
	H63	H	0.882750	0.398967	0.409761
	H64	H	0.406559	0.579873	0.115823
	H65	H	0.585216	0.591099	0.883394
	H66	H	0.585612	0.397452	0.115618
	H67	H	0.405835	0.393216	0.882086
	H68	H	0.590372	0.107545	0.415932
	H69	H	0.577514	0.879245	0.594979
	H70	H	0.411208	0.103945	0.591359
	H71	H	0.402089	0.880581	0.419017
	H72	H	0.910133	0.607323	0.090886
	H73	H	0.091503	0.378629	0.087648
	H74	H	0.087261	0.607973	0.905740
	H75	H	0.905293	0.376160	0.906390
	H76	H	0.089894	0.899267	0.617357
	H77	H	0.080753	0.081968	0.386026
	H78	H	0.894605	0.077534	0.619458
	H79	H	0.900076	0.910628	0.388639
	H80	H	0.611602	0.081715	0.903744
	H81	H	0.378615	0.085608	0.095285
	H82	H	0.611231	0.907517	0.094072
	H83	H	0.382984	0.904672	0.906924
	H84	H	0.612795	0.900354	0.092212
	H85	H	0.381016	0.088025	0.087049
	H86	H	0.613656	0.091381	0.910310
	H87	H	0.380017	0.896656	0.907621
	H88	H	0.914835	0.074816	0.611185
	H89	H	0.087776	0.086290	0.383481
	H90	H	0.087620	0.908567	0.613591
	H91	H	0.914372	0.895923	0.388472
	H92	H	0.089388	0.606085	0.913335
	H93	H	0.094130	0.375354	0.095388
	H94	H	0.911170	0.605860	0.090235
	H95	H	0.908449	0.377801	0.911117
	H96	H	0.399780	0.107077	0.585379
	H97	H	0.589303	0.879436	0.582903
	H98	H	0.586548	0.109868	0.407799
	H99	H	0.396069	0.873740	0.403156
	H100	H	0.595294	0.403578	0.116866
	H101	H	0.595496	0.584183	0.882628
	H102	H	0.412802	0.581996	0.113824
	H103	H	0.398511	0.405291	0.883459
	H104	H	0.109569	0.578040	0.416365
	H105	H	0.881309	0.578856	0.595531
	H106	H	0.112383	0.400410	0.595057
	H107	H	0.881641	0.401307	0.407261
	H108	H	0.909841	0.606994	0.089049
	H109	H	0.086252	0.378128	0.094087
	H110	H	0.094790	0.608714	0.909158
	H111	H	0.902819	0.377285	0.911417
	H112	H	0.079889	0.901063	0.614525
	H113	H	0.087615	0.078641	0.385491
	H114	H	0.908877	0.094803	0.619678
	H115	H	0.895773	0.891572	0.380794
	H116	H	0.609260	0.081217	0.915128
	H117	H	0.383229	0.079297	0.089731
	H118	H	0.609583	0.905194	0.087439
	H119	H	0.383847	0.900018	0.914034
	C120	C	0.373809	0.000819	0.622213
	C121	C	0.617569	0.983747	0.623072
	C122	C	0.616283	0.001177	0.380693
	C123	C	0.372760	0.984480	0.378108
	C124	C	0.618743	0.371954	0.008123
	C125	C	0.620391	0.615236	0.991443
	C126	C	0.377752	0.613470	0.008555
	C127	C	0.375993	0.370724	0.991398
	C128	C	0.005389	0.612229	0.380287
	C129	C	0.988417	0.613027	0.622887
	C130	C	0.005267	0.369623	0.621959
	C131	C	0.988451	0.368837	0.378410
	C132	C	0.878390	0.500384	0.120572
	C133	C	0.121732	0.483715	0.123563
	C134	C	0.119636	0.500405	0.879622
	C135	C	0.876099	0.483510	0.878082
	C136	C	0.116382	0.870948	0.508913
	C137	C	0.116665	0.113151	0.492155
	C138	C	0.874590	0.112109	0.509618
	C139	C	0.873240	0.869002	0.492901
	C140	C	0.504212	0.114390	0.878840
	C141	C	0.487534	0.115028	0.122147
	C142	C	0.505215	0.871745	0.122376
	C143	C	0.488986	0.871323	0.878963
	C144	C	0.374058	0.879139	0.679492
	C145	C	0.617305	0.105777	0.679938
	C146	C	0.616804	0.881059	0.320773
	C147	C	0.374323	0.106427	0.321604
	C148	C	0.674304	0.373284	0.885426
	C149	C	0.679739	0.615329	0.113015
	C150	C	0.319777	0.612673	0.886279
	C151	C	0.319434	0.370601	0.113765
	C152	C	0.883909	0.668887	0.377944
	C153	C	0.108563	0.673403	0.624956
	C154	C	0.883032	0.312522	0.621160
	C155	C	0.109161	0.310235	0.379135
	C156	C	0.883717	0.370105	0.679312
	C157	C	0.110392	0.613545	0.680002
	C158	C	0.884550	0.611441	0.319968
	C159	C	0.110318	0.368754	0.322193
	C160	C	0.377696	0.670344	0.886404
	C161	C	0.622226	0.672819	0.113437
	C162	C	0.617789	0.314071	0.886202
	C163	C	0.376898	0.313649	0.113814
	C164	C	0.674047	0.880446	0.378882
	C165	C	0.676789	0.104588	0.624378
	C166	C	0.315564	0.879398	0.622207
	C167	C	0.315638	0.105717	0.377978
	C168	C	0.878059	0.378546	0.177275
	C169	C	0.122607	0.604971	0.182270
	C170	C	0.117972	0.378574	0.822772
	C171	C	0.878525	0.604859	0.821051
	C172	C	0.173755	0.869277	0.387023
	C173	C	0.174302	0.112361	0.614445
	C174	C	0.816584	0.111180	0.387476
	C175	C	0.816654	0.869379	0.615087
	C176	C	0.382958	0.171437	0.878431
	C177	C	0.609166	0.172716	0.123526
	C178	C	0.384914	0.811131	0.123392
	C179	C	0.610548	0.814902	0.878855
	C180	C	0.383505	0.870492	0.179332
	C181	C	0.608813	0.115484	0.181471
	C182	C	0.382338	0.112904	0.821443
	C183	C	0.610358	0.873158	0.822009
	C184	C	0.873686	0.168809	0.387317
	C185	C	0.117005	0.170296	0.614496
	C186	C	0.116143	0.811695	0.387496
	C187	C	0.873269	0.810590	0.614620
	C188	C	0.175075	0.378366	0.880823
	C189	C	0.179987	0.605238	0.124042
	C190	C	0.818602	0.379993	0.120918
	C191	C	0.818862	0.604330	0.875744
	C192	C	0.397342	0.085155	0.598514
	C193	C	0.593631	0.899248	0.599067
	C194	C	0.593076	0.085664	0.405617
	C195	C	0.396302	0.900076	0.402020
	C196	C	0.595752	0.396025	0.093066
	C197	C	0.595557	0.591642	0.906470
	C198	C	0.402267	0.589576	0.093615
	C199	C	0.398792	0.394236	0.906373
	C200	C	0.089726	0.588888	0.406020
	C201	C	0.903849	0.588258	0.598500
	C202	C	0.090168	0.392606	0.599200
	C203	C	0.903850	0.392725	0.401284
	C204	C	0.903138	0.584710	0.097010
	C205	C	0.097459	0.399452	0.099463
	C206	C	0.097208	0.585506	0.902726
	C207	C	0.898949	0.398863	0.902541
	C208	C	0.092634	0.895717	0.593262
	C209	C	0.092358	0.089294	0.406887
	C210	C	0.899045	0.088944	0.594819
	C211	C	0.896515	0.892536	0.408257
	C212	C	0.589419	0.091331	0.902908
	C213	C	0.402887	0.091210	0.097783
	C214	C	0.589134	0.897000	0.098225
	C215	C	0.404109	0.893863	0.902745
	Zn216	Zn	0.495836	-0.007070	0.750704
	Zn217	Zn	0.495378	-0.006216	0.250863
	Zn218	Zn	0.748112	0.493757	-0.000841
	Zn219	Zn	0.248927	0.492040	0.000490
	Zn220	Zn	-0.004354	0.741500	0.501399
	Zn221	Zn	-0.004774	0.240709	0.500473
	Zn222	Zn	-0.002162	0.491249	0.751064
	Zn223	Zn	-0.001323	0.491779	0.250683
	Zn224	Zn	0.498452	0.742913	0.000557
	Zn225	Zn	0.496934	0.243064	0.000395
	Zn226	Zn	0.745584	-0.008249	0.501314
	Zn227	Zn	0.244878	-0.008225	0.499869
	N228	N	0.409515	0.955529	0.679669
	N229	N	0.581235	0.029605	0.679226
	N230	N	0.581636	0.957009	0.322014
	N231	N	0.408933	0.029927	0.321428
	N232	N	0.675214	0.408409	0.962371
	N233	N	0.678623	0.580362	0.036075
	N234	N	0.319421	0.578318	0.963618
	N235	N	0.318598	0.405440	0.036733
	N236	N	0.960095	0.669689	0.414564
	N237	N	0.031719	0.673082	0.589889
	N238	N	0.959578	0.311939	0.586299
	N239	N	0.032297	0.310084	0.413145
	N240	N	0.960615	0.404753	0.680009
	N241	N	0.034562	0.576648	0.678759
	N242	N	0.961202	0.576894	0.321347
	N243	N	0.034187	0.404386	0.321576
	N244	N	0.412634	0.671087	0.963556
	N245	N	0.586179	0.673055	0.036747
	N246	N	0.583948	0.313191	0.963487
	N247	N	0.411274	0.313629	0.036867
	N248	N	0.673879	0.956347	0.415562
	N249	N	0.677035	0.027905	0.589620
	N250	N	0.315397	0.955875	0.587204
	N251	N	0.314645	0.028870	0.412347
	N252	N	0.914698	0.454352	0.176982
	N253	N	0.087432	0.528382	0.182378
	N254	N	0.084361	0.455575	0.821765
	N255	N	0.913443	0.528508	0.822333
	N256	N	0.173883	0.905516	0.463400
	N257	N	0.174497	0.077990	0.537158
	N258	N	0.817214	0.076562	0.464557
	N259	N	0.816261	0.904880	0.538425
	N260	N	0.459961	0.172319	0.913457
	N261	N	0.532818	0.172680	0.087505
	N262	N	0.461543	0.811675	0.088584
	N263	N	0.533950	0.813477	0.913406
	N264	N	0.459310	0.907445	0.178945
	N265	N	0.532183	0.080087	0.180403
	N266	N	0.458985	0.078369	0.821608
	N267	N	0.533748	0.907858	0.822324
	N268	N	0.908906	0.169719	0.464348
	N269	N	0.081934	0.170816	0.537239
	N270	N	0.081130	0.812651	0.464222
	N271	N	0.907634	0.810019	0.537651
	N272	N	0.176206	0.455208	0.915445
	N273	N	0.179853	0.528945	0.088392
	N274	N	0.818566	0.456835	0.086530
	N275	N	0.817545	0.527994	0.910809
	O276	O	0.679729	0.665063	0.519929
	H277	H	0.694700	0.674063	0.527266
	H278	H	0.682244	0.651918	0.522951
	O279	O	0.441033	0.607525	0.617062
	H280	H	0.442326	0.597593	0.621975
	H281	H	0.448438	0.603348	0.611994
	O282	O	0.858749	0.155606	0.853985
	H283	H	0.856924	0.139358	0.851719
	H284	H	0.873322	0.155299	0.863046
	O285	O	0.976524	1.135836	1.169604
	H286	H	0.987645	1.164346	1.192148
	H287	H	0.979087	1.143365	1.142545
	O288	O	1.071253	0.868314	0.835571
	H289	H	1.055409	0.890945	0.835241
	H290	H	1.076782	0.860579	0.830273
	O291	O	-0.126472	1.020593	0.047606
	H292	H	-0.124493	1.009512	0.030503
	H293	H	-0.132278	1.029741	0.049295
	O294	O	0.580443	0.537438	0.428889
	H295	H	0.586187	0.553479	0.437486
	H296	H	0.590219	0.542490	0.418123
	O297	O	0.592474	0.381537	0.452891
	H298	H	0.577087	0.387809	0.437473
	H299	H	0.581660	0.376758	0.455219
	O300	O	0.407960	0.349811	0.552142
	H301	H	0.415665	0.345314	0.561234
	H302	H	0.407942	0.352691	0.541875
	O303	O	0.530664	0.424255	0.532862
	H304	H	0.516507	0.416301	0.527879
	H305	H	0.527387	0.419528	0.545465
	O306	O	0.568463	0.472150	0.568751
	H307	H	0.543725	0.466030	0.560088
	H308	H	0.564720	0.459539	0.579824
	O309	O	0.480847	0.401229	0.440433
	H310	H	0.468348	0.389930	0.425383
	H311	H	0.487201	0.389505	0.424532
	O312	O	0.074465	-0.077068	-0.102909
	H313	H	0.076777	-0.069153	-0.107207
	H314	H	0.081186	-0.086732	-0.103346
	O315	O	0.902765	0.868164	0.138619
	H316	H	0.914664	0.888322	0.132928
	H317	H	0.925887	0.871777	0.149183
	O318	O	-0.212823	0.784701	1.092160
	H319	H	-0.201727	0.779635	1.111668
	H320	H	-0.219408	0.783824	1.104671
	O321	O	0.952407	0.098062	0.914024
	H322	H	0.948200	0.096803	0.911879
	H323	H	0.941188	0.114840	0.902065
	O324	O	0.570349	0.564687	-0.334077
	H325	H	0.577962	0.559229	-0.348727
	H326	H	0.584146	0.552642	-0.332075
	O327	O	0.373105	0.546271	0.532994
	H328	H	0.361770	0.546385	0.537058
	H329	H	0.377961	0.565355	0.527127
	O330	O	0.145086	0.126003	0.989634
	H331	H	0.141487	0.131854	0.995262
	H332	H	0.127267	0.123266	1.002674
	O333	O	-0.052919	-0.130867	1.161914
	H334	H	-0.040048	-0.141476	1.143338
	H335	H	-0.044680	-0.123206	1.160628
	O336	O	0.401866	0.431778	0.499832
	H337	H	0.412652	0.425259	0.516391
	H338	H	0.393510	0.439911	0.517358
	O339	O	1.043602	-0.069298	-0.054682
	H340	H	1.057871	-0.076108	-0.042541
	H341	H	1.026815	-0.077165	-0.052017
	O342	O	-0.099929	0.081152	-0.026974
	H343	H	-0.105344	0.078291	-0.048742
	H344	H	-0.097879	0.092195	-0.024095
	O345	O	0.410873	-0.304704	1.370719
	H346	H	0.414024	-0.285866	1.347156
	H347	H	0.431572	-0.294712	1.383831
	O348	O	0.848876	0.989582	0.010208
	H349	H	0.855233	1.005257	0.013171
	H350	H	0.843217	0.988945	0.007637
	O351	O	0.512788	0.534890	0.407476
	H352	H	0.512767	0.528127	0.415177
	H353	H	0.505071	0.535975	0.408938
	O354	O	0.976335	-0.046076	1.030714
	H355	H	0.980499	-0.054580	1.015071
	H356	H	0.983218	-0.051623	1.031830
	O357	O	0.322728	0.453847	0.647474
	H358	H	0.330172	0.448489	0.636003
	H359	H	0.309411	0.452696	0.654125
	O360	O	0.310337	0.605131	0.469224
	H361	H	0.303602	0.616077	0.479762
	H362	H	0.338654	0.617887	0.466067
	O363	O	0.050115	0.869616	0.877127
	H364	H	0.032745	0.859784	0.869983
	H365	H	0.059540	0.873338	0.865327
	O366	O	0.535512	0.427396	0.463907
	H367	H	0.522403	0.428888	0.466822
	H368	H	0.523587	0.436680	0.462309
	O369	O	0.059568	1.137495	0.015918
	H370	H	0.060328	1.125066	0.016234
	H371	H	0.059486	1.132892	0.011452
	O372	O	-0.013822	0.990086	0.049908
	H373	H	-0.011202	1.002383	0.066094
	H374	H	-0.016052	0.992035	0.043187
	O375	O	0.311787	0.494976	0.386556
	H376	H	0.321240	0.498292	0.408428
	H377	H	0.298483	0.492239	0.387690
	O378	O	0.616975	0.542506	0.652566
	H379	H	0.631579	0.535416	0.666358
	H380	H	0.617404	0.540885	0.644789
	O381	O	1.092122	-0.021556	0.195742
	H382	H	1.089790	-0.008546	0.193279
	H383	H	1.093737	-0.020744	0.212485
	O384	O	1.173110	0.846744	0.003652
	H385	H	1.190104	0.841840	-0.005522
	H386	H	1.178283	0.846009	-0.011945
	O387	O	-0.057109	-0.090346	-0.136607
	H388	H	-0.067713	-0.092933	-0.135855
	H389	H	-0.053637	-0.099462	-0.111589
	O390	O	-0.112487	0.810162	-0.065245
	H391	H	-0.131480	0.804738	-0.064158
	H392	H	-0.112405	0.815332	-0.051985
	O393	O	1.116919	1.087807	1.057553
	H394	H	1.133765	1.107410	1.061922
	H395	H	1.108783	1.079177	1.049120
	O396	O	0.527050	0.418493	0.512546
	H397	H	0.523610	0.415283	0.507414
	H398	H	0.526208	0.416817	0.507441
	O399	O	0.152366	1.133774	1.148994
	H400	H	0.134963	1.135685	1.140034
	H401	H	0.163194	1.118786	1.164170
	O402	O	0.361923	0.582553	0.357087
	H403	H	0.373251	0.597379	0.337871
	H404	H	0.357912	0.584597	0.355764
	O405	O	1.566999	1.679499	0.434181
	H406	H	1.579857	1.686540	0.433878
	H407	H	1.570056	1.666179	0.443866
	O408	O	1.004602	1.144753	-0.062735
	H409	H	0.999102	1.122810	-0.061935
	H410	H	1.010946	1.152512	-0.066368
	O411	O	0.676912	-0.539410	0.458530
	H412	H	0.672824	-0.542705	0.455932
	H413	H	0.657867	-0.535730	0.458888
	O414	O	0.477147	0.366543	0.492747
	H415	H	0.465644	0.386112	0.485279
	H416	H	0.483115	0.363452	0.496838
	O417	O	0.560475	0.381676	0.428631
	H418	H	0.563462	0.382305	0.422487
	H419	H	0.553132	0.390372	0.423281
