data_Molecule from HDF5

_cell_length_a		16.249830
_cell_length_b		16.254136
_cell_length_c		16.215754
_cell_angle_alpha	90.107819
_cell_angle_beta	90.052245
_cell_angle_gamma	89.847693
_symmetry_space_group_name_H-M	'P 1'
_symmetry_Int_Tables_number		1

loop_
	_symmetry_equiv_pos_as_xyz
	x,y,z

loop_
	_atom_site_label
	_atom_site_type_symbol
	_atom_site_fract_x
	_atom_site_fract_y
	_atom_site_fract_z
	H0	H	0.404706	0.830770	0.711908
	H1	H	0.599386	0.160014	0.711833
	H2	H	0.600925	0.830593	0.284367
	H3	H	0.402287	0.159167	0.284866
	H4	H	0.717579	0.396866	0.835198
	H5	H	0.716091	0.594897	0.163621
	H6	H	0.287872	0.594970	0.834712
	H7	H	0.288865	0.397353	0.162958
	H8	H	0.837654	0.708679	0.401234
	H9	H	0.166363	0.709290	0.599008
	H10	H	0.836810	0.282079	0.595953
	H11	H	0.165962	0.278626	0.399241
	H12	H	0.837651	0.397629	0.712743
	H13	H	0.166748	0.590789	0.712256
	H14	H	0.838250	0.593116	0.284111
	H15	H	0.166800	0.395978	0.285516
	H16	H	0.404134	0.709095	0.834932
	H17	H	0.602321	0.711275	0.163038
	H18	H	0.603126	0.279852	0.834273
	H19	H	0.404889	0.281979	0.163339
	H20	H	0.717821	0.830862	0.398414
	H21	H	0.716025	0.159215	0.596991
	H22	H	0.288861	0.830930	0.596872
	H23	H	0.286317	0.158772	0.400678
	H24	H	0.904651	0.330899	0.212024
	H25	H	0.101137	0.659098	0.214535
	H26	H	0.100674	0.330332	0.784671
	H27	H	0.904215	0.659732	0.784856
	H28	H	0.216407	0.894604	0.334511
	H29	H	0.214887	0.093262	0.663154
	H30	H	0.787422	0.092159	0.334319
	H31	H	0.788828	0.897286	0.663476
	H32	H	0.338128	0.209895	0.900707
	H33	H	0.667192	0.208401	0.096577
	H34	H	0.338708	0.781670	0.096873
	H35	H	0.667171	0.780875	0.899940
	H36	H	0.338300	0.897795	0.212179
	H37	H	0.666698	0.093296	0.213842
	H38	H	0.337846	0.094109	0.785055
	H39	H	0.667177	0.898003	0.784904
	H40	H	0.903255	0.208391	0.333999
	H41	H	0.099291	0.208708	0.662884
	H42	H	0.100244	0.779263	0.335109
	H43	H	0.903085	0.781421	0.663480
	H44	H	0.217976	0.331285	0.898951
	H45	H	0.216112	0.659342	0.097714
	H46	H	0.787939	0.332016	0.097319
	H47	H	0.786436	0.659604	0.899091
	H48	H	0.402993	0.114873	0.597654
	H49	H	0.597473	0.879309	0.584489
	H50	H	0.596947	0.112515	0.406034
	H51	H	0.406748	0.876676	0.402291
	H52	H	0.603405	0.409891	0.115806
	H53	H	0.587238	0.588477	0.884334
	H54	H	0.408712	0.595932	0.118343
	H55	H	0.415623	0.397119	0.881762
	H56	H	0.116519	0.586705	0.412974
	H57	H	0.886277	0.580279	0.599387
	H58	H	0.121248	0.396313	0.594284
	H59	H	0.883613	0.404970	0.398090
	H60	H	0.117437	0.400578	0.587424
	H61	H	0.881377	0.598295	0.596421
	H62	H	0.119033	0.582334	0.401345
	H63	H	0.883796	0.394262	0.406764
	H64	H	0.404132	0.584723	0.116329
	H65	H	0.598883	0.593524	0.879153
	H66	H	0.585789	0.404792	0.112313
	H67	H	0.402886	0.401051	0.879782
	H68	H	0.592679	0.110725	0.405489
	H69	H	0.601820	0.876267	0.596618
	H70	H	0.416055	0.110414	0.593343
	H71	H	0.413309	0.879495	0.404586
	H72	H	0.910395	0.610970	0.087554
	H73	H	0.098724	0.378372	0.089377
	H74	H	0.096877	0.613845	0.898376
	H75	H	0.908715	0.378744	0.905053
	H76	H	0.094855	0.906108	0.614216
	H77	H	0.092988	0.095088	0.378696
	H78	H	0.901680	0.090487	0.618488
	H79	H	0.908842	0.904206	0.382430
	H80	H	0.619067	0.089095	0.907651
	H81	H	0.384458	0.087639	0.096872
	H82	H	0.617933	0.910472	0.093740
	H83	H	0.388831	0.904528	0.910250
	H84	H	0.622528	0.897854	0.096036
	H85	H	0.383901	0.094646	0.090166
	H86	H	0.618417	0.086601	0.904367
	H87	H	0.384527	0.905427	0.898684
	H88	H	0.909659	0.082907	0.614055
	H89	H	0.102378	0.081410	0.381210
	H90	H	0.091692	0.898306	0.616029
	H91	H	0.911780	0.899686	0.381646
	H92	H	0.088348	0.609652	0.907609
	H93	H	0.096141	0.377890	0.094124
	H94	H	0.905500	0.614366	0.093507
	H95	H	0.910454	0.379320	0.905723
	H96	H	0.404377	0.111247	0.584074
	H97	H	0.588960	0.879471	0.594931
	H98	H	0.594749	0.109608	0.408725
	H99	H	0.407923	0.878515	0.409451
	H100	H	0.597668	0.392176	0.119776
	H101	H	0.598058	0.581190	0.882902
	H102	H	0.415865	0.586971	0.113847
	H103	H	0.411486	0.410382	0.884312
	H104	H	0.121283	0.594293	0.404385
	H105	H	0.888286	0.587347	0.582140
	H106	H	0.118120	0.404891	0.595233
	H107	H	0.888897	0.406424	0.411139
	H108	H	0.912818	0.612089	0.095640
	H109	H	0.093331	0.379643	0.089715
	H110	H	0.101472	0.612205	0.910468
	H111	H	0.908479	0.379208	0.907559
	H112	H	0.099895	0.900617	0.618798
	H113	H	0.086610	0.082095	0.385309
	H114	H	0.912823	0.094343	0.615840
	H115	H	0.906590	0.899890	0.380847
	H116	H	0.620733	0.090029	0.903794
	H117	H	0.388387	0.085533	0.087861
	H118	H	0.617423	0.901055	0.083620
	H119	H	0.383933	0.894965	0.904939
	C120	C	0.380469	0.003647	0.620075
	C121	C	0.623950	0.986891	0.620087
	C122	C	0.623773	0.002816	0.377650
	C123	C	0.380398	0.986805	0.377396
	C124	C	0.624404	0.373816	0.007188
	C125	C	0.623799	0.617002	0.990525
	C126	C	0.380770	0.617378	0.007548
	C127	C	0.381569	0.374280	0.990416
	C128	C	0.010448	0.615958	0.377935
	C129	C	0.993812	0.616460	0.620935
	C130	C	0.010286	0.372938	0.620607
	C131	C	0.993926	0.373078	0.376876
	C132	C	0.880912	0.504043	0.120866
	C133	C	0.124402	0.486975	0.120476
	C134	C	0.124153	0.503237	0.876814
	C135	C	0.880856	0.487580	0.877791
	C136	C	0.124169	0.872306	0.507590
	C137	C	0.122719	0.115606	0.490234
	C138	C	0.879593	0.117069	0.507261
	C139	C	0.880800	0.873357	0.490458
	C140	C	0.510815	0.117462	0.877008
	C141	C	0.494096	0.117592	0.120938
	C142	C	0.511003	0.874263	0.119965
	C143	C	0.494235	0.873216	0.876321
	C144	C	0.383996	0.879986	0.674649
	C145	C	0.620034	0.110908	0.674195
	C146	C	0.621120	0.879466	0.322334
	C147	C	0.382180	0.110190	0.322507
	C148	C	0.679629	0.376347	0.883934
	C149	C	0.678896	0.615099	0.114369
	C150	C	0.325798	0.614868	0.883824
	C151	C	0.326807	0.377119	0.114093
	C152	C	0.886645	0.670796	0.380524
	C153	C	0.117366	0.671179	0.618875
	C154	C	0.886353	0.319041	0.617048
	C155	C	0.117210	0.317019	0.379066
	C156	C	0.886676	0.376650	0.675092
	C157	C	0.117607	0.612571	0.675300
	C158	C	0.886936	0.613597	0.322370
	C159	C	0.117607	0.375305	0.322612
	C160	C	0.383762	0.671636	0.883808
	C161	C	0.622030	0.672959	0.114082
	C162	C	0.622780	0.318136	0.883636
	C163	C	0.384082	0.319343	0.114115
	C164	C	0.679218	0.879549	0.379344
	C165	C	0.678195	0.110452	0.617329
	C166	C	0.326226	0.879840	0.617576
	C167	C	0.324265	0.109751	0.379793
	C168	C	0.883693	0.380268	0.175183
	C169	C	0.121865	0.609974	0.176537
	C170	C	0.121330	0.379665	0.822160
	C171	C	0.883741	0.611006	0.822893
	C172	C	0.178872	0.874440	0.383697
	C173	C	0.177652	0.113562	0.613860
	C174	C	0.825005	0.113342	0.383199
	C175	C	0.825955	0.876138	0.614282
	C176	C	0.387128	0.172252	0.879731
	C177	C	0.617847	0.171609	0.118153
	C178	C	0.387557	0.819403	0.117218
	C179	C	0.618037	0.818704	0.879363
	C180	C	0.387431	0.877027	0.174521
	C181	C	0.617543	0.114091	0.176036
	C182	C	0.387011	0.114398	0.822680
	C183	C	0.618080	0.876707	0.822056
	C184	C	0.882356	0.171043	0.383008
	C185	C	0.120054	0.170857	0.613856
	C186	C	0.121143	0.817113	0.383936
	C187	C	0.882972	0.818673	0.614258
	C188	C	0.179805	0.380309	0.878843
	C189	C	0.179177	0.610174	0.118683
	C190	C	0.825982	0.380753	0.117877
	C191	C	0.825673	0.611001	0.879992
	C192	C	0.401600	0.089865	0.598185
	C193	C	0.602524	0.900726	0.598247
	C194	C	0.601488	0.088844	0.400148
	C195	C	0.402759	0.900420	0.399084
	C196	C	0.602025	0.395815	0.093663
	C197	C	0.601252	0.594436	0.904250
	C198	C	0.402861	0.595439	0.093912
	C199	C	0.403656	0.396229	0.904210
	C200	C	0.096485	0.594230	0.399769
	C201	C	0.907688	0.594929	0.599160
	C202	C	0.096648	0.394312	0.598747
	C203	C	0.907694	0.395285	0.398863
	C204	C	0.903131	0.590093	0.098816
	C205	C	0.102575	0.400735	0.097665
	C206	C	0.101949	0.589602	0.898993
	C207	C	0.902832	0.401510	0.899633
	C208	C	0.102104	0.894897	0.594132
	C209	C	0.100516	0.092853	0.404029
	C210	C	0.901369	0.095546	0.593636
	C211	C	0.902805	0.894861	0.404046
	C212	C	0.597085	0.095214	0.898820
	C213	C	0.407877	0.095780	0.098289
	C214	C	0.597211	0.896415	0.097628
	C215	C	0.407985	0.895090	0.898281
	Zn216	Zn	0.501949	-0.004543	0.748429
	Zn217	Zn	0.502250	-0.004998	0.249045
	Zn218	Zn	0.752120	0.496131	-0.000717
	Zn219	Zn	0.252915	0.495743	-0.001251
	Zn220	Zn	0.002024	0.744924	0.499329
	Zn221	Zn	0.001402	0.244784	0.498071
	Zn222	Zn	0.002180	0.495025	0.749167
	Zn223	Zn	0.002784	0.494437	0.249016
	Zn224	Zn	0.502868	0.745206	-0.001079
	Zn225	Zn	0.502835	0.245596	-0.001562
	Zn226	Zn	0.752386	-0.005329	0.499084
	Zn227	Zn	0.251724	-0.005594	0.499017
	N228	N	0.417105	0.957885	0.676200
	N229	N	0.587096	0.033125	0.676106
	N230	N	0.587433	0.957210	0.321140
	N231	N	0.416390	0.032695	0.321049
	N232	N	0.680501	0.410332	0.961729
	N233	N	0.680009	0.580962	0.036603
	N234	N	0.323822	0.581933	0.961814
	N235	N	0.325039	0.410475	0.036163
	N236	N	0.964327	0.672510	0.414262
	N237	N	0.039487	0.673685	0.585789
	N238	N	0.964150	0.316801	0.583826
	N239	N	0.039227	0.315432	0.412053
	N240	N	0.964753	0.409181	0.677629
	N241	N	0.039840	0.579176	0.676715
	N242	N	0.964720	0.580058	0.320795
	N243	N	0.040012	0.409337	0.321164
	N244	N	0.417291	0.673350	0.961670
	N245	N	0.588371	0.674142	0.036174
	N246	N	0.589393	0.316295	0.961552
	N247	N	0.417414	0.317546	0.036133
	N248	N	0.680897	0.957265	0.413170
	N249	N	0.680682	0.032375	0.584426
	N250	N	0.323978	0.957628	0.584331
	N251	N	0.323024	0.032028	0.413226
	N252	N	0.916999	0.458019	0.177367
	N253	N	0.088598	0.532319	0.177647
	N254	N	0.087421	0.457376	0.820884
	N255	N	0.917399	0.533346	0.821231
	N256	N	0.180741	0.908144	0.461624
	N257	N	0.179231	0.079793	0.535973
	N258	N	0.823272	0.080457	0.461231
	N259	N	0.824356	0.909293	0.536393
	N260	N	0.465144	0.174322	0.912708
	N261	N	0.540180	0.173766	0.084435
	N262	N	0.465499	0.817745	0.083789
	N263	N	0.540024	0.816409	0.912312
	N264	N	0.465107	0.910180	0.176347
	N265	N	0.539596	0.081314	0.177867
	N266	N	0.465042	0.081273	0.820543
	N267	N	0.540035	0.909831	0.819969
	N268	N	0.915565	0.173418	0.460938
	N269	N	0.086479	0.172192	0.536025
	N270	N	0.087982	0.815671	0.461941
	N271	N	0.916269	0.816617	0.536152
	N272	N	0.181652	0.458159	0.912233
	N273	N	0.180905	0.532583	0.084565
	N274	N	0.824155	0.458718	0.084982
	N275	N	0.823772	0.533234	0.913209
	O276	O	0.519009	0.476292	0.492850
	H277	H	0.520109	0.487839	0.489327
	H278	H	0.514275	0.478364	0.502819
	O279	O	0.555700	0.520551	0.472169
	H280	H	0.557069	0.516140	0.455727
	H281	H	0.563310	0.504740	0.469212
	O282	O	0.495809	0.536891	0.505325
	H283	H	0.489012	0.534829	0.512184
	H284	H	0.493030	0.541175	0.497453
	O285	O	0.033137	1.001803	0.985556
	H286	H	0.044119	1.000509	0.980998
	H287	H	0.037244	1.003850	0.987860
	O288	O	0.411219	0.555052	0.419435
	H289	H	0.420461	0.558929	0.424920
	H290	H	0.411448	0.557869	0.419154
	O291	O	-0.495139	0.441759	0.587135
	H292	H	-0.484882	0.451896	0.597523
	H293	H	-0.498936	0.434284	0.589564
	O294	O	0.567950	0.478564	0.503937
	H295	H	0.563080	0.478661	0.505644
	H296	H	0.571637	0.485492	0.512602
	O297	O	0.480606	0.556456	0.504595
	H298	H	0.490129	0.552309	0.509640
	H299	H	0.480290	0.540643	0.498414
	O300	O	0.464308	0.528569	0.538040
	H301	H	0.467053	0.528506	0.532588
	H302	H	0.470034	0.525414	0.546025
	O303	O	0.533739	0.412538	0.489040
	H304	H	0.528161	0.410699	0.481577
	H305	H	0.528687	0.414190	0.498305
	O306	O	0.474782	0.582314	1.465408
	H307	H	0.472476	0.588894	1.458382
	H308	H	0.483761	0.588667	1.466132
	O309	O	0.500543	0.446234	0.535329
	H310	H	0.493667	0.445570	0.531775
	H311	H	0.498730	0.441760	0.533542
	O312	O	0.510319	0.489479	0.458525
	H313	H	0.517290	0.491697	0.466005
	H314	H	0.517708	0.491520	0.452004
	O315	O	1.052638	0.032206	0.958564
	H316	H	1.043805	0.024415	0.968504
	H317	H	1.064023	0.034791	0.958264
	O318	O	0.046622	0.031748	0.000890
	H319	H	0.044730	0.035749	0.003629
	H320	H	0.049438	0.028706	-0.000309
	O321	O	0.562623	0.474857	0.434482
	H322	H	0.559401	0.468377	0.436207
	H323	H	0.561149	0.477267	0.430316
	O324	O	1.026994	0.032946	-0.005429
	H325	H	1.018055	0.032201	-0.002875
	H326	H	1.019033	0.035703	-0.013322
	O327	O	1.017073	1.027753	0.014722
	H328	H	1.024867	1.026054	0.010283
	H329	H	1.016402	1.041479	0.010366
	O330	O	0.444611	0.489219	0.556849
	H331	H	0.434422	0.502333	0.565149
	H332	H	0.442380	0.483836	0.553825
	O333	O	0.509618	0.497646	0.511484
	H334	H	0.504030	0.501163	0.509086
	H335	H	0.511625	0.494888	0.511025
