data_Molecule from HDF5

_cell_length_a		16.280587
_cell_length_b		16.317033
_cell_length_c		16.225590
_cell_angle_alpha	89.976690
_cell_angle_beta	90.080328
_cell_angle_gamma	89.933095
_symmetry_space_group_name_H-M	'P 1'
_symmetry_Int_Tables_number		1

loop_
	_symmetry_equiv_pos_as_xyz
	x,y,z

loop_
	_atom_site_label
	_atom_site_type_symbol
	_atom_site_fract_x
	_atom_site_fract_y
	_atom_site_fract_z
	H0	H	0.409034	0.825625	0.709042
	H1	H	0.600988	0.154180	0.710986
	H2	H	0.602594	0.826613	0.283591
	H3	H	0.406534	0.153937	0.282507
	H4	H	0.718078	0.391623	0.831193
	H5	H	0.716662	0.585576	0.160772
	H6	H	0.292235	0.586728	0.831433
	H7	H	0.290415	0.391222	0.159709
	H8	H	0.841204	0.704641	0.396914
	H9	H	0.168139	0.705010	0.595480
	H10	H	0.840417	0.274779	0.595040
	H11	H	0.168542	0.276073	0.398624
	H12	H	0.839842	0.393558	0.709619
	H13	H	0.168986	0.586175	0.708530
	H14	H	0.841353	0.586992	0.282675
	H15	H	0.169768	0.394252	0.284118
	H16	H	0.406862	0.704079	0.832602
	H17	H	0.603044	0.702690	0.160944
	H18	H	0.602840	0.274142	0.832360
	H19	H	0.406476	0.276148	0.160439
	H20	H	0.718299	0.826645	0.399507
	H21	H	0.719755	0.154402	0.595620
	H22	H	0.291163	0.826730	0.594703
	H23	H	0.290059	0.153402	0.399453
	H24	H	0.908645	0.327402	0.209319
	H25	H	0.102903	0.653832	0.209938
	H26	H	0.101476	0.326432	0.782172
	H27	H	0.907097	0.654807	0.782157
	H28	H	0.217884	0.892944	0.331599
	H29	H	0.218021	0.087088	0.661206
	H30	H	0.789799	0.089436	0.331795
	H31	H	0.791843	0.892055	0.659922
	H32	H	0.340815	0.205134	0.897447
	H33	H	0.668083	0.204942	0.096927
	H34	H	0.340896	0.775444	0.095255
	H35	H	0.668240	0.775928	0.899437
	H36	H	0.340023	0.893820	0.208698
	H37	H	0.668723	0.086484	0.210728
	H38	H	0.339666	0.087423	0.783321
	H39	H	0.668660	0.893134	0.784394
	H40	H	0.905090	0.204466	0.331539
	H41	H	0.103489	0.204344	0.660727
	H42	H	0.103023	0.776108	0.331986
	H43	H	0.906616	0.775378	0.659865
	H44	H	0.219690	0.326469	0.896941
	H45	H	0.218642	0.653809	0.093433
	H46	H	0.791484	0.327091	0.094191
	H47	H	0.788750	0.654143	0.896433
	H48	H	0.410738	0.108621	0.597756
	H49	H	0.600744	0.873067	0.593289
	H50	H	0.599736	0.109003	0.400020
	H51	H	0.413237	0.873827	0.401941
	H52	H	0.602726	0.397719	0.113833
	H53	H	0.596522	0.588467	0.877928
	H54	H	0.408825	0.587715	0.116002
	H55	H	0.425201	0.397102	0.883138
	H56	H	0.118309	0.574297	0.406969
	H57	H	0.889371	0.583245	0.584256
	H58	H	0.121309	0.389352	0.584883
	H59	H	0.884010	0.391893	0.393934
	H60	H	0.116999	0.403237	0.585769
	H61	H	0.888280	0.579847	0.590499
	H62	H	0.125414	0.585360	0.392782
	H63	H	0.888942	0.391401	0.410738
	H64	H	0.407287	0.578472	0.114037
	H65	H	0.600987	0.581642	0.878053
	H66	H	0.595889	0.399719	0.111395
	H67	H	0.406853	0.385522	0.873820
	H68	H	0.592497	0.104904	0.403484
	H69	H	0.596952	0.875701	0.591071
	H70	H	0.416525	0.104358	0.587609
	H71	H	0.410038	0.874563	0.405166
	H72	H	0.912282	0.605645	0.085806
	H73	H	0.096154	0.373661	0.094093
	H74	H	0.088185	0.605372	0.897322
	H75	H	0.904592	0.374026	0.908211
	H76	H	0.094749	0.900715	0.611167
	H77	H	0.091714	0.081541	0.382050
	H78	H	0.910110	0.077419	0.611090
	H79	H	0.911040	0.896530	0.378199
	H80	H	0.620675	0.085791	0.906971
	H81	H	0.388391	0.090480	0.084061
	H82	H	0.623582	0.892666	0.096764
	H83	H	0.387564	0.892284	0.905768
	H84	H	0.620972	0.891287	0.085407
	H85	H	0.391074	0.076207	0.087338
	H86	H	0.618583	0.078699	0.906703
	H87	H	0.389253	0.898836	0.905737
	H88	H	0.918741	0.082228	0.610917
	H89	H	0.099153	0.090559	0.376732
	H90	H	0.095821	0.890578	0.614361
	H91	H	0.911768	0.897021	0.379089
	H92	H	0.100151	0.603929	0.914079
	H93	H	0.096416	0.375503	0.085677
	H94	H	0.907058	0.609167	0.089798
	H95	H	0.910324	0.371804	0.895492
	H96	H	0.405008	0.107523	0.586833
	H97	H	0.601002	0.874245	0.588184
	H98	H	0.599878	0.105962	0.408481
	H99	H	0.408818	0.871815	0.401146
	H100	H	0.596953	0.391627	0.113746
	H101	H	0.593216	0.581659	0.880196
	H102	H	0.416136	0.582754	0.113070
	H103	H	0.404201	0.407673	0.879786
	H104	H	0.121935	0.593060	0.410540
	H105	H	0.886756	0.586788	0.589951
	H106	H	0.123828	0.396267	0.597384
	H107	H	0.890829	0.406461	0.402159
	H108	H	0.913317	0.607076	0.092422
	H109	H	0.103820	0.372347	0.089371
	H110	H	0.108453	0.610700	0.896568
	H111	H	0.917696	0.378001	0.905544
	H112	H	0.104606	0.897503	0.614748
	H113	H	0.103222	0.078725	0.379012
	H114	H	0.910313	0.086708	0.614515
	H115	H	0.911923	0.896065	0.378336
	H116	H	0.620978	0.082162	0.900123
	H117	H	0.384752	0.085141	0.097483
	H118	H	0.619990	0.902088	0.090577
	H119	H	0.386488	0.896242	0.900147
	C120	C	0.383080	-0.001416	0.618454
	C121	C	0.627777	0.982322	0.619335
	C122	C	0.625758	-0.001375	0.375894
	C123	C	0.382732	0.981634	0.375019
	C124	C	0.626722	0.367760	0.004262
	C125	C	0.625242	0.610706	0.987690
	C126	C	0.382876	0.611392	0.005249
	C127	C	0.383882	0.368736	0.987640
	C128	C	0.013602	0.612258	0.374564
	C129	C	0.996202	0.611732	0.617384
	C130	C	0.012388	0.368014	0.617804
	C131	C	0.996659	0.368785	0.374548
	C132	C	0.883281	0.499019	0.117363
	C133	C	0.126925	0.481848	0.117678
	C134	C	0.126580	0.498594	0.874357
	C135	C	0.882662	0.482937	0.874320
	C136	C	0.126282	0.868032	0.504956
	C137	C	0.126132	0.111690	0.488140
	C138	C	0.883796	0.110831	0.503539
	C139	C	0.883246	0.868361	0.487236
	C140	C	0.512213	0.111136	0.875458
	C141	C	0.496226	0.111545	0.118418
	C142	C	0.512943	0.867747	0.118706
	C143	C	0.495932	0.867828	0.875664
	C144	C	0.387199	0.874850	0.672255
	C145	C	0.623285	0.105442	0.673726
	C146	C	0.623383	0.875406	0.321037
	C147	C	0.385991	0.105033	0.320564
	C148	C	0.680797	0.370743	0.880444
	C149	C	0.679747	0.607160	0.111647
	C150	C	0.329221	0.607911	0.880923
	C151	C	0.329023	0.371505	0.111290
	C152	C	0.890157	0.666771	0.376607
	C153	C	0.119584	0.666634	0.615412
	C154	C	0.889224	0.313107	0.615266
	C155	C	0.120052	0.314414	0.378072
	C156	C	0.888873	0.371890	0.672207
	C157	C	0.119716	0.608049	0.672027
	C158	C	0.890171	0.608668	0.319809
	C159	C	0.120383	0.372503	0.320643
	C160	C	0.386368	0.665948	0.881487
	C161	C	0.622805	0.664616	0.111856
	C162	C	0.623563	0.312444	0.881000
	C163	C	0.386383	0.314074	0.111385
	C164	C	0.680686	0.875420	0.378790
	C165	C	0.682312	0.105313	0.616380
	C166	C	0.328936	0.875275	0.615371
	C167	C	0.328069	0.105038	0.378368
	C168	C	0.887391	0.375969	0.171849
	C169	C	0.123829	0.605024	0.172253
	C170	C	0.123080	0.375418	0.819360
	C171	C	0.885730	0.605919	0.819474
	C172	C	0.180360	0.871869	0.380628
	C173	C	0.180491	0.108249	0.612092
	C174	C	0.828134	0.109102	0.380543
	C175	C	0.829188	0.871361	0.610871
	C176	C	0.389515	0.166941	0.877175
	C177	C	0.619433	0.166495	0.116538
	C178	C	0.389584	0.813579	0.115564
	C179	C	0.619420	0.813777	0.878937
	C180	C	0.389197	0.871901	0.172243
	C181	C	0.619763	0.107694	0.173146
	C182	C	0.388861	0.108559	0.820411
	C183	C	0.619423	0.871861	0.821471
	C184	C	0.885510	0.166388	0.380417
	C185	C	0.123637	0.166648	0.611607
	C186	C	0.123492	0.813687	0.380943
	C187	C	0.886106	0.813220	0.610778
	C188	C	0.181392	0.375247	0.876661
	C189	C	0.181414	0.604994	0.114655
	C190	C	0.828946	0.376029	0.114580
	C191	C	0.827198	0.605587	0.876337
	C192	C	0.404312	0.084472	0.597062
	C193	C	0.605928	0.896442	0.597365
	C194	C	0.603755	0.084500	0.397561
	C195	C	0.404157	0.895748	0.396581
	C196	C	0.605032	0.389845	0.090802
	C197	C	0.603367	0.589891	0.901006
	C198	C	0.404451	0.589634	0.091903
	C199	C	0.405727	0.390493	0.901249
	C200	C	0.099725	0.590703	0.397021
	C201	C	0.910244	0.589667	0.594853
	C202	C	0.098465	0.389761	0.595775
	C203	C	0.910212	0.390338	0.395906
	C204	C	0.904496	0.585244	0.095521
	C205	C	0.105246	0.396111	0.096138
	C206	C	0.105283	0.584298	0.896160
	C207	C	0.904505	0.397053	0.896494
	C208	C	0.104827	0.889750	0.591084
	C209	C	0.104532	0.090001	0.401717
	C210	C	0.906597	0.088598	0.589950
	C211	C	0.905103	0.890150	0.400782
	C212	C	0.597974	0.088649	0.897814
	C213	C	0.410352	0.090139	0.096289
	C214	C	0.599270	0.888976	0.097353
	C215	C	0.409784	0.889418	0.897478
	Zn216	Zn	0.503811	-0.010048	0.747080
	Zn217	Zn	0.504615	-0.010309	0.246663
	Zn218	Zn	0.753630	0.490881	-0.004342
	Zn219	Zn	0.255182	0.489627	-0.003807
	Zn220	Zn	0.004675	0.740173	0.496065
	Zn221	Zn	0.004171	0.239433	0.495882
	Zn222	Zn	0.004151	0.490349	0.746168
	Zn223	Zn	0.005309	0.490583	0.246219
	Zn224	Zn	0.504715	0.739111	-0.002584
	Zn225	Zn	0.504635	0.239983	-0.003128
	Zn226	Zn	0.755327	-0.009409	0.495773
	Zn227	Zn	0.254427	-0.010264	0.496593
	N228	N	0.420336	0.952401	0.674014
	N229	N	0.590225	0.027959	0.675823
	N230	N	0.589638	0.952878	0.319268
	N231	N	0.419027	0.027513	0.318347
	N232	N	0.682895	0.404375	0.958293
	N233	N	0.681354	0.574436	0.033538
	N234	N	0.327145	0.574597	0.959027
	N235	N	0.327084	0.404571	0.033322
	N236	N	0.967892	0.668906	0.409998
	N237	N	0.041959	0.668767	0.582122
	N238	N	0.967039	0.310553	0.582427
	N239	N	0.042056	0.311984	0.410759
	N240	N	0.966472	0.405278	0.673799
	N241	N	0.042074	0.574346	0.673080
	N242	N	0.967783	0.575365	0.318475
	N243	N	0.042617	0.405608	0.318563
	N244	N	0.418920	0.668077	0.959802
	N245	N	0.589654	0.667105	0.033683
	N246	N	0.590770	0.310637	0.959134
	N247	N	0.419770	0.312473	0.033593
	N248	N	0.681963	0.952783	0.412301
	N249	N	0.684937	0.027687	0.583333
	N250	N	0.325940	0.953026	0.582862
	N251	N	0.326006	0.027327	0.411630
	N252	N	0.920427	0.453542	0.173745
	N253	N	0.090438	0.527626	0.174048
	N254	N	0.089677	0.452804	0.817946
	N255	N	0.919782	0.528605	0.818412
	N256	N	0.182454	0.904987	0.458633
	N257	N	0.182279	0.074758	0.534204
	N258	N	0.827065	0.075483	0.458275
	N259	N	0.827431	0.904955	0.533077
	N260	N	0.467205	0.168638	0.910706
	N261	N	0.541866	0.168926	0.083236
	N262	N	0.467504	0.810868	0.082960
	N263	N	0.541690	0.811285	0.912057
	N264	N	0.466823	0.905170	0.174140
	N265	N	0.542230	0.074072	0.174266
	N266	N	0.466104	0.074288	0.819459
	N267	N	0.541713	0.904877	0.819413
	N268	N	0.919369	0.167606	0.458244
	N269	N	0.090917	0.169016	0.533516
	N270	N	0.090767	0.811210	0.459016
	N271	N	0.919275	0.811426	0.532912
	N272	N	0.183833	0.452745	0.910157
	N273	N	0.183539	0.527502	0.081343
	N274	N	0.826516	0.453525	0.081225
	N275	N	0.825073	0.528095	0.909619
	O276	O	0.953860	0.116565	0.923941
	H277	H	0.949674	0.110043	0.918217
	H278	H	0.959871	0.120481	0.926000
	O279	O	-0.051282	1.092542	0.934268
	H280	H	-0.054501	1.090638	0.936015
	H281	H	-0.043313	1.089758	0.934077
	O282	O	0.949205	1.120524	-0.094471
	H283	H	0.946788	1.127609	-0.098663
	H284	H	0.938839	1.137727	-0.099422
	O285	O	-0.049331	1.131485	0.930639
	H286	H	-0.055710	1.135194	0.930845
	H287	H	-0.045547	1.131065	0.928758
