data_Molecule from HDF5

_cell_length_a		16.395037
_cell_length_b		15.976807
_cell_length_c		16.270496
_cell_angle_alpha	89.810259
_cell_angle_beta	90.298824
_cell_angle_gamma	90.255553
_symmetry_space_group_name_H-M	'P 1'
_symmetry_Int_Tables_number		1

loop_
	_symmetry_equiv_pos_as_xyz
	x,y,z

loop_
	_atom_site_label
	_atom_site_type_symbol
	_atom_site_fract_x
	_atom_site_fract_y
	_atom_site_fract_z
	H0	H	0.403008	0.838652	0.707493
	H1	H	0.601354	0.171406	0.705492
	H2	H	0.598571	0.838775	0.282910
	H3	H	0.404051	0.171336	0.279736
	H4	H	0.720122	0.401287	0.832387
	H5	H	0.723238	0.608805	0.156015
	H6	H	0.284893	0.608676	0.832417
	H7	H	0.287434	0.401134	0.158434
	H8	H	0.839099	0.717394	0.396375
	H9	H	0.166158	0.718655	0.590776
	H10	H	0.839224	0.290902	0.591546
	H11	H	0.166037	0.292871	0.399572
	H12	H	0.841128	0.401834	0.711498
	H13	H	0.164424	0.606943	0.712333
	H14	H	0.841809	0.607755	0.274728
	H15	H	0.164335	0.403270	0.277784
	H16	H	0.407995	0.716275	0.829335
	H17	H	0.601973	0.717546	0.159273
	H18	H	0.596822	0.294057	0.829194
	H19	H	0.408775	0.290662	0.159460
	H20	H	0.715619	0.839183	0.395015
	H21	H	0.718319	0.169686	0.596246
	H22	H	0.287783	0.838852	0.593520
	H23	H	0.288272	0.170656	0.391546
	H24	H	0.905558	0.340115	0.207784
	H25	H	0.103861	0.672102	0.208085
	H26	H	0.099848	0.338616	0.783944
	H27	H	0.905687	0.671759	0.781342
	H28	H	0.217796	0.903734	0.331987
	H29	H	0.223062	0.109063	0.656115
	H30	H	0.783438	0.108827	0.332803
	H31	H	0.785971	0.901700	0.657205
	H32	H	0.338871	0.216618	0.896789
	H33	H	0.667409	0.216495	0.089174
	H34	H	0.339720	0.788622	0.090220
	H35	H	0.667149	0.794134	0.900993
	H36	H	0.340585	0.901190	0.211092
	H37	H	0.664665	0.106364	0.211443
	H38	H	0.341021	0.105994	0.775143
	H39	H	0.664727	0.903847	0.778052
	H40	H	0.906459	0.216750	0.329638
	H41	H	0.099383	0.216278	0.659810
	H42	H	0.095241	0.795521	0.329034
	H43	H	0.906529	0.791962	0.659083
	H44	H	0.215830	0.339497	0.896520
	H45	H	0.220398	0.670640	0.096515
	H46	H	0.788686	0.340132	0.096400
	H47	H	0.787585	0.669981	0.891900
	H48	H	0.406552	0.123070	0.577106
	H49	H	0.594065	0.885926	0.585360
	H50	H	0.608119	0.129395	0.399086
	H51	H	0.405236	0.884584	0.401987
	H52	H	0.594723	0.414833	0.109675
	H53	H	0.598201	0.591616	0.879695
	H54	H	0.401049	0.592940	0.113094
	H55	H	0.405256	0.413681	0.877509
	H56	H	0.118516	0.595787	0.397091
	H57	H	0.887778	0.591988	0.588258
	H58	H	0.117560	0.412076	0.585725
	H59	H	0.884552	0.414060	0.387483
	H60	H	0.118986	0.416851	0.594204
	H61	H	0.884576	0.598975	0.593630
	H62	H	0.120061	0.603775	0.401023
	H63	H	0.884558	0.401713	0.405553
	H64	H	0.416628	0.587059	0.107020
	H65	H	0.592375	0.599197	0.878668
	H66	H	0.598576	0.408186	0.112685
	H67	H	0.407106	0.414252	0.878428
	H68	H	0.583513	0.123661	0.393503
	H69	H	0.596019	0.884830	0.586049
	H70	H	0.409339	0.127391	0.591307
	H71	H	0.410197	0.885630	0.400895
	H72	H	0.912422	0.626490	0.089062
	H73	H	0.094615	0.384506	0.096734
	H74	H	0.093150	0.624243	0.901738
	H75	H	0.904462	0.383988	0.902540
	H76	H	0.096015	0.908336	0.612427
	H77	H	0.092575	0.098139	0.378188
	H78	H	0.897536	0.095035	0.614956
	H79	H	0.903404	0.913513	0.376401
	H80	H	0.616883	0.097364	0.904719
	H81	H	0.383859	0.096564	0.098202
	H82	H	0.618703	0.913117	0.089578
	H83	H	0.387694	0.920826	0.893267
	H84	H	0.618477	0.914372	0.090812
	H85	H	0.385523	0.105510	0.082099
	H86	H	0.618945	0.093305	0.892439
	H87	H	0.382936	0.903109	0.894789
	H88	H	0.913811	0.087755	0.607933
	H89	H	0.097883	0.102049	0.375639
	H90	H	0.101554	0.916928	0.612572
	H91	H	0.905949	0.915769	0.378119
	H92	H	0.096568	0.624282	0.905990
	H93	H	0.086991	0.390708	0.081242
	H94	H	0.916364	0.623025	0.082304
	H95	H	0.914452	0.385927	0.899481
	H96	H	0.420802	0.120464	0.583328
	H97	H	0.594234	0.884685	0.587570
	H98	H	0.591659	0.119384	0.417540
	H99	H	0.407297	0.886673	0.405896
	H100	H	0.602341	0.415105	0.112131
	H101	H	0.600603	0.600299	0.875067
	H102	H	0.414942	0.604341	0.113011
	H103	H	0.406284	0.411904	0.877442
	H104	H	0.116718	0.597014	0.405991
	H105	H	0.886072	0.599841	0.585028
	H106	H	0.120882	0.408473	0.593516
	H107	H	0.891055	0.422522	0.405267
	H108	H	0.907859	0.625405	0.081462
	H109	H	0.104659	0.385541	0.082114
	H110	H	0.098226	0.625902	0.901371
	H111	H	0.911707	0.388834	0.910173
	H112	H	0.092238	0.916748	0.609506
	H113	H	0.099004	0.095060	0.378773
	H114	H	0.912219	0.106412	0.613242
	H115	H	0.908062	0.911659	0.376724
	H116	H	0.622129	0.106636	0.896549
	H117	H	0.390333	0.088247	0.082688
	H118	H	0.619046	0.912396	0.091732
	H119	H	0.389766	0.912251	0.908798
	C120	C	0.382433	0.013695	0.613784
	C121	C	0.623929	0.995274	0.615737
	C122	C	0.622690	0.014028	0.374535
	C123	C	0.380279	0.995926	0.372685
	C124	C	0.625121	0.383567	0.003134
	C125	C	0.626052	0.626729	0.985981
	C126	C	0.381876	0.625249	0.003092
	C127	C	0.379823	0.382624	0.986344
	C128	C	0.011311	0.627836	0.371864
	C129	C	0.994142	0.626791	0.617033
	C130	C	0.011469	0.382766	0.618319
	C131	C	0.994204	0.383723	0.372580
	C132	C	0.883159	0.514982	0.114368
	C133	C	0.125083	0.496699	0.116197
	C134	C	0.123871	0.514413	0.874752
	C135	C	0.881478	0.495774	0.873830
	C136	C	0.123680	0.884979	0.503445
	C137	C	0.125413	0.127459	0.485725
	C138	C	0.879616	0.126478	0.503571
	C139	C	0.879188	0.883682	0.485283
	C140	C	0.511314	0.127406	0.870404
	C141	C	0.494266	0.126422	0.116198
	C142	C	0.511466	0.882488	0.117716
	C143	C	0.494439	0.883521	0.871894
	C144	C	0.383394	0.888303	0.669431
	C145	C	0.621575	0.121076	0.669082
	C146	C	0.619490	0.888539	0.320240
	C147	C	0.383611	0.121106	0.316738
	C148	C	0.680677	0.383374	0.880353
	C149	C	0.683896	0.627337	0.108014
	C150	C	0.324728	0.626511	0.880769
	C151	C	0.325607	0.382738	0.109546
	C152	C	0.888313	0.681018	0.375252
	C153	C	0.116957	0.682102	0.612917
	C154	C	0.888337	0.327555	0.613742
	C155	C	0.117184	0.329857	0.377663
	C156	C	0.889247	0.382809	0.673400
	C157	C	0.116132	0.626307	0.673300
	C158	C	0.889687	0.626267	0.314644
	C159	C	0.116397	0.385051	0.317247
	C160	C	0.385713	0.680258	0.879127
	C161	C	0.623253	0.681505	0.109484
	C162	C	0.619333	0.329958	0.878791
	C163	C	0.385986	0.327714	0.110133
	C164	C	0.677530	0.888891	0.375831
	C165	C	0.679888	0.120276	0.614683
	C166	C	0.325832	0.888669	0.612993
	C167	C	0.326031	0.120970	0.372696
	C168	C	0.885030	0.389668	0.170041
	C169	C	0.123889	0.622000	0.171184
	C170	C	0.120643	0.388625	0.820805
	C171	C	0.884467	0.621417	0.818261
	C172	C	0.178637	0.885397	0.380131
	C173	C	0.183031	0.127266	0.608030
	C174	C	0.823125	0.126655	0.381014
	C175	C	0.824352	0.883296	0.608596
	C176	C	0.388377	0.180669	0.874723
	C177	C	0.617807	0.180186	0.111509
	C178	C	0.388375	0.826774	0.112161
	C179	C	0.618036	0.830139	0.877731
	C180	C	0.388837	0.882380	0.172356
	C181	C	0.616482	0.125402	0.172371
	C182	C	0.389249	0.125444	0.814335
	C183	C	0.616851	0.885069	0.817164
	C184	C	0.884235	0.180893	0.379617
	C185	C	0.121591	0.180528	0.609982
	C186	C	0.118218	0.831200	0.378918
	C187	C	0.884455	0.828811	0.609593
	C188	C	0.178294	0.389027	0.876903
	C189	C	0.181781	0.621486	0.115605
	C190	C	0.826909	0.389924	0.114661
	C191	C	0.826105	0.620851	0.873302
	C192	C	0.405418	0.100980	0.590640
	C193	C	0.601245	0.907673	0.593132
	C194	C	0.600988	0.101539	0.396872
	C195	C	0.401528	0.908284	0.395873
	C196	C	0.604608	0.406028	0.089129
	C197	C	0.603795	0.603743	0.900008
	C198	C	0.404224	0.601620	0.089080
	C199	C	0.400212	0.406182	0.900099
	C200	C	0.096650	0.605503	0.394642
	C201	C	0.908452	0.603846	0.595292
	C202	C	0.096809	0.405740	0.597482
	C203	C	0.908763	0.406083	0.393217
	C204	C	0.905546	0.602324	0.091053
	C205	C	0.102122	0.409360	0.093480
	C206	C	0.102344	0.601987	0.896825
	C207	C	0.903440	0.408723	0.897318
	C208	C	0.102801	0.907505	0.589039
	C209	C	0.102949	0.105032	0.399729
	C210	C	0.901386	0.103341	0.589900
	C211	C	0.899709	0.906655	0.399317
	C212	C	0.597279	0.105665	0.891669
	C213	C	0.408622	0.103549	0.094189
	C214	C	0.596495	0.906168	0.096996
	C215	C	0.409084	0.905662	0.892880
	Zn216	Zn	0.502957	0.004436	0.741431
	Zn217	Zn	0.501996	0.004984	0.246444
	Zn218	Zn	0.754423	0.505020	-0.005602
	Zn219	Zn	0.251378	0.505098	-0.004447
	Zn220	Zn	0.001908	0.756540	0.494436
	Zn221	Zn	0.002843	0.254848	0.495058
	Zn222	Zn	0.002444	0.504695	0.747565
	Zn223	Zn	0.003917	0.505856	0.242672
	Zn224	Zn	0.503428	0.753966	-0.005718
	Zn225	Zn	0.502735	0.255445	-0.006147
	Zn226	Zn	0.750369	0.004507	0.494901
	Zn227	Zn	0.253386	0.005802	0.493889
	N228	N	0.418037	0.966949	0.669933
	N229	N	0.587484	0.042236	0.669782
	N230	N	0.586055	0.967380	0.319180
	N231	N	0.416814	0.042033	0.316691
	N232	N	0.684484	0.416038	0.958561
	N233	N	0.685263	0.593572	0.030384
	N234	N	0.322414	0.592899	0.958882
	N235	N	0.321673	0.416159	0.031523
	N236	N	0.964900	0.682075	0.410137
	N237	N	0.039918	0.682620	0.578820
	N238	N	0.965226	0.327185	0.580116
	N239	N	0.040197	0.328614	0.411045
	N240	N	0.966727	0.416502	0.676575
	N241	N	0.038775	0.592576	0.675914
	N242	N	0.967181	0.593582	0.312655
	N243	N	0.038856	0.417553	0.313754
	N244	N	0.420425	0.679761	0.956332
	N245	N	0.587899	0.681083	0.032483
	N246	N	0.585378	0.330073	0.955963
	N247	N	0.418640	0.327289	0.032437
	N248	N	0.679630	0.968190	0.408832
	N249	N	0.681441	0.040920	0.581834
	N250	N	0.325371	0.967646	0.578904
	N251	N	0.323543	0.042072	0.406431
	N252	N	0.919342	0.468381	0.170095
	N253	N	0.089188	0.543233	0.171521
	N254	N	0.087408	0.467411	0.819464
	N255	N	0.918158	0.542582	0.818377
	N256	N	0.182214	0.918224	0.458114
	N257	N	0.185453	0.095064	0.529656
	N258	N	0.820166	0.093768	0.459156
	N259	N	0.820740	0.916704	0.530480
	N260	N	0.465342	0.181985	0.908854
	N261	N	0.540803	0.180878	0.077356
	N262	N	0.465496	0.826294	0.079042
	N263	N	0.541249	0.829032	0.911190
	N264	N	0.466122	0.916137	0.175961
	N265	N	0.538614	0.092662	0.175429
	N266	N	0.466951	0.093127	0.811444
	N267	N	0.539140	0.917363	0.813208
	N268	N	0.918584	0.181092	0.457147
	N269	N	0.086523	0.180858	0.532940
	N270	N	0.084560	0.830726	0.456314
	N271	N	0.917614	0.828703	0.532091
	N272	N	0.180394	0.468398	0.909752
	N273	N	0.182470	0.542660	0.082139
	N274	N	0.825778	0.468960	0.080555
	N275	N	0.824141	0.541954	0.907337
	O276	O	0.029162	0.060965	0.023852
	H277	H	0.024200	0.060161	0.020754
	H278	H	0.030659	0.052126	0.019905
	O279	O	1.304058	0.823205	1.264062
	H280	H	1.293762	0.816046	1.271772
	H281	H	1.308350	0.824493	1.266243
	O282	O	0.553301	0.505749	0.500598
	H283	H	0.547204	0.516280	0.494636
	H284	H	0.551077	0.501852	0.488009
	O285	O	0.995426	0.033540	1.031797
	H286	H	0.995288	0.042848	1.033521
	H287	H	0.997599	0.043057	1.028377
	O288	O	1.016412	-0.032621	-0.059611
	H289	H	1.015371	-0.041636	-0.056734
	H290	H	1.012346	-0.024849	-0.060620
	O291	O	0.414241	0.545247	0.615247
	H292	H	0.408984	0.551461	0.622321
	H293	H	0.416442	0.534900	0.620199
	O294	O	1.428241	0.434786	0.517008
	H295	H	1.438190	0.444099	0.529383
	H296	H	1.436384	0.427143	0.528297
	O297	O	-0.465530	-0.534853	-0.389247
	H298	H	-0.460787	-0.547003	-0.409728
	H299	H	-0.446033	-0.518050	-0.376672
	O300	O	0.506428	0.588751	0.476862
	H301	H	0.503399	0.581814	0.487965
	H302	H	0.504698	0.600616	0.480419
	O303	O	0.492235	0.525805	0.461004
	H304	H	0.499930	0.524402	0.465376
	H305	H	0.478665	0.529992	0.438319
	O306	O	1.012049	-0.000947	0.069222
	H307	H	1.011172	0.006202	0.069729
	H308	H	1.009707	-0.002261	0.077312
	O309	O	-0.570061	-0.482046	1.360279
	H310	H	-0.571819	-0.489287	1.371499
	H311	H	-0.568361	-0.479773	1.359226
	O312	O	1.024982	1.009566	1.005238
	H313	H	1.018365	1.007574	1.009287
	H314	H	1.025143	1.011300	1.002993
	O315	O	0.495269	0.466038	0.422083
	H316	H	0.485491	0.473576	0.423961
	H317	H	0.488781	0.468365	0.423204
	O318	O	0.556266	0.553471	0.544690
	H319	H	0.542775	0.544561	0.544777
	H320	H	0.551141	0.559884	0.551662
	O321	O	0.059816	1.114558	1.049465
	H322	H	0.056087	1.107784	1.046079
	H323	H	0.054856	1.115658	1.060065
	O324	O	0.475660	0.463419	0.571486
	H325	H	0.481810	0.464842	0.578927
	H326	H	0.485912	0.460576	0.572955
	O327	O	0.492587	0.427370	0.554741
	H328	H	0.501288	0.431723	0.555685
	H329	H	0.493701	0.425925	0.548642
	O330	O	0.546353	0.404076	0.457651
	H331	H	0.547795	0.397726	0.455151
	H332	H	0.539766	0.394947	0.447131
	O333	O	0.527898	0.395165	0.420162
	H334	H	0.520154	0.399449	0.426784
	H335	H	0.542523	0.394912	0.416147
	O336	O	0.379591	0.586925	0.464935
	H337	H	0.366465	0.586043	0.459186
	H338	H	0.373287	0.597744	0.459225
	O339	O	0.957805	1.048593	-0.015711
	H340	H	0.962217	1.045228	-0.012575
	H341	H	0.961020	1.053161	-0.020093
	O342	O	0.639742	0.543945	0.559707
	H343	H	0.631954	0.558665	0.556582
	H344	H	0.644515	0.554322	0.552052
	O345	O	0.495723	0.401016	0.530394
	H346	H	0.510664	0.396215	0.529709
	H347	H	0.502666	0.386830	0.531354
	O348	O	0.005813	0.037861	0.025222
	H349	H	0.001238	0.034537	0.022134
	H350	H	0.007071	0.042641	0.030779
	O351	O	0.036912	1.065934	0.972653
	H352	H	0.048481	1.073312	0.978846
	H353	H	0.037614	1.056819	0.972587
	O354	O	0.530845	0.534397	0.333376
	H355	H	0.524661	0.537743	0.327094
	H356	H	0.518646	0.537744	0.328683
	O357	O	0.000762	1.029482	1.019046
	H358	H	-0.007758	1.030173	1.025463
	H359	H	-0.000274	1.040214	1.021032
