data_Molecule from HDF5

_cell_length_a		16.391331
_cell_length_b		16.170633
_cell_length_c		16.155653
_cell_angle_alpha	89.852029
_cell_angle_beta	89.603098
_cell_angle_gamma	90.625552
_symmetry_space_group_name_H-M	'P 1'
_symmetry_Int_Tables_number		1

loop_
	_symmetry_equiv_pos_as_xyz
	x,y,z

loop_
	_atom_site_label
	_atom_site_type_symbol
	_atom_site_fract_x
	_atom_site_fract_y
	_atom_site_fract_z
	H0	H	0.401406	0.846257	0.710238
	H1	H	0.600257	0.176511	0.707675
	H2	H	0.599673	0.845758	0.281726
	H3	H	0.408897	0.176188	0.282481
	H4	H	0.719049	0.412637	0.831876
	H5	H	0.721655	0.614964	0.159544
	H6	H	0.289649	0.613022	0.833165
	H7	H	0.284086	0.406231	0.158948
	H8	H	0.840165	0.725006	0.398403
	H9	H	0.165806	0.729039	0.593764
	H10	H	0.841874	0.291933	0.599607
	H11	H	0.166053	0.298846	0.395796
	H12	H	0.840651	0.411434	0.711657
	H13	H	0.166300	0.611732	0.709060
	H14	H	0.841215	0.609865	0.281174
	H15	H	0.165978	0.414043	0.279545
	H16	H	0.407375	0.724136	0.832407
	H17	H	0.602238	0.725931	0.161447
	H18	H	0.601688	0.299638	0.830808
	H19	H	0.403131	0.296320	0.161095
	H20	H	0.718474	0.846458	0.394928
	H21	H	0.721873	0.173784	0.598080
	H22	H	0.283852	0.848004	0.597466
	H23	H	0.289375	0.175087	0.393514
	H24	H	0.902744	0.346198	0.212150
	H25	H	0.103642	0.675929	0.208407
	H26	H	0.099460	0.345347	0.782327
	H27	H	0.910149	0.676263	0.784270
	H28	H	0.218104	0.913738	0.331955
	H29	H	0.220942	0.115872	0.659833
	H30	H	0.789199	0.111167	0.332929
	H31	H	0.784520	0.906348	0.659683
	H32	H	0.340089	0.226146	0.897028
	H33	H	0.665675	0.228858	0.094041
	H34	H	0.342197	0.790989	0.100095
	H35	H	0.666116	0.798890	0.895821
	H36	H	0.341615	0.908313	0.214702
	H37	H	0.666848	0.112297	0.209811
	H38	H	0.339876	0.108885	0.781861
	H39	H	0.664233	0.913145	0.778754
	H40	H	0.906887	0.224401	0.331224
	H41	H	0.100848	0.226234	0.661159
	H42	H	0.101586	0.799696	0.331591
	H43	H	0.903777	0.796657	0.661343
	H44	H	0.218902	0.346803	0.894377
	H45	H	0.224115	0.672982	0.098098
	H46	H	0.782612	0.347956	0.099923
	H47	H	0.790646	0.675064	0.894506
	H48	H	0.404397	0.128624	0.580768
	H49	H	0.594914	0.894823	0.582420
	H50	H	0.597265	0.127234	0.403863
	H51	H	0.415236	0.897793	0.410883
	H52	H	0.603157	0.428850	0.112907
	H53	H	0.606588	0.602682	0.877085
	H54	H	0.409041	0.606862	0.117452
	H55	H	0.404682	0.424233	0.878160
	H56	H	0.115962	0.604779	0.408923
	H57	H	0.882183	0.601500	0.610134
	H58	H	0.119032	0.422354	0.591491
	H59	H	0.887452	0.413784	0.407701
	H60	H	0.120899	0.416323	0.590122
	H61	H	0.884633	0.621152	0.582643
	H62	H	0.119473	0.602126	0.395786
	H63	H	0.889478	0.421992	0.406939
	H64	H	0.407350	0.592752	0.113222
	H65	H	0.593852	0.599535	0.881895
	H66	H	0.583154	0.424446	0.109260
	H67	H	0.418210	0.421274	0.881502
	H68	H	0.598962	0.127288	0.405089
	H69	H	0.597921	0.891038	0.590011
	H70	H	0.409265	0.131924	0.597126
	H71	H	0.400125	0.892832	0.409281
	H72	H	0.914329	0.625579	0.083105
	H73	H	0.087648	0.397060	0.084220
	H74	H	0.097856	0.626612	0.904974
	H75	H	0.914283	0.398329	0.915007
	H76	H	0.088565	0.929009	0.609249
	H77	H	0.100655	0.115030	0.374970
	H78	H	0.911834	0.099625	0.612952
	H79	H	0.910185	0.916352	0.377695
	H80	H	0.619021	0.105067	0.897773
	H81	H	0.387341	0.108822	0.087178
	H82	H	0.621052	0.915188	0.088906
	H83	H	0.386687	0.919072	0.902468
	H84	H	0.615996	0.921311	0.082683
	H85	H	0.391172	0.097239	0.085138
	H86	H	0.619241	0.110361	0.902446
	H87	H	0.385878	0.913016	0.903994
	H88	H	0.911932	0.101757	0.613657
	H89	H	0.106430	0.096937	0.378707
	H90	H	0.090172	0.909808	0.615721
	H91	H	0.908672	0.922882	0.379019
	H92	H	0.101909	0.628803	0.903894
	H93	H	0.100841	0.393195	0.082638
	H94	H	0.908314	0.628844	0.087465
	H95	H	0.895894	0.389235	0.904705
	H96	H	0.420354	0.124971	0.585623
	H97	H	0.589466	0.893707	0.589929
	H98	H	0.599890	0.127570	0.403435
	H99	H	0.410387	0.892212	0.397520
	H100	H	0.595990	0.409556	0.117407
	H101	H	0.597129	0.612691	0.876914
	H102	H	0.419844	0.599279	0.111091
	H103	H	0.409561	0.411018	0.875535
	H104	H	0.122518	0.614820	0.401612
	H105	H	0.894557	0.589031	0.581269
	H106	H	0.118729	0.419613	0.585803
	H107	H	0.886416	0.417230	0.400584
	H108	H	0.915606	0.627562	0.091108
	H109	H	0.093919	0.391511	0.094588
	H110	H	0.098739	0.628075	0.900822
	H111	H	0.915301	0.391888	0.893809
	H112	H	0.106187	0.922812	0.617162
	H113	H	0.088359	0.101693	0.383065
	H114	H	0.910105	0.101438	0.613303
	H115	H	0.914283	0.920103	0.380350
	H116	H	0.616649	0.104124	0.905123
	H117	H	0.386667	0.100349	0.096844
	H118	H	0.619374	0.924474	0.091833
	H119	H	0.388213	0.917241	0.908245
	C120	C	0.380731	0.019825	0.617547
	C121	C	0.624047	1.001882	0.617313
	C122	C	0.626081	0.018987	0.374501
	C123	C	0.381887	1.002683	0.375522
	C124	C	0.623830	0.391598	0.004504
	C125	C	0.627337	0.634198	0.987503
	C126	C	0.383999	0.630023	0.005336
	C127	C	0.381065	0.388604	0.987112
	C128	C	0.011770	0.634325	0.373981
	C129	C	0.994719	0.633674	0.618764
	C130	C	0.012106	0.389239	0.618526
	C131	C	0.995016	0.389785	0.374892
	C132	C	0.881601	0.519211	0.118059
	C133	C	0.125005	0.502025	0.116837
	C134	C	0.126827	0.519088	0.873747
	C135	C	0.882483	0.502215	0.875402
	C136	C	0.123512	0.891759	0.505103
	C137	C	0.126876	0.134800	0.487542
	C138	C	0.882891	0.131281	0.504895
	C139	C	0.881232	0.889191	0.487657
	C140	C	0.510740	0.133873	0.874068
	C141	C	0.495591	0.133071	0.118075
	C142	C	0.511982	0.888767	0.118761
	C143	C	0.494591	0.888965	0.875052
	C144	C	0.381365	0.895920	0.673055
	C145	C	0.621587	0.126537	0.671352
	C146	C	0.621527	0.895060	0.319200
	C147	C	0.387138	0.126711	0.319861
	C148	C	0.679959	0.393123	0.880664
	C149	C	0.683056	0.633769	0.110798
	C150	C	0.328350	0.630768	0.881933
	C151	C	0.323538	0.388225	0.110371
	C152	C	0.889106	0.687858	0.377282
	C153	C	0.117210	0.690508	0.614786
	C154	C	0.890202	0.331650	0.618005
	C155	C	0.117263	0.335752	0.375726
	C156	C	0.889370	0.391013	0.673905
	C157	C	0.117584	0.631922	0.671962
	C158	C	0.889633	0.630650	0.318954
	C159	C	0.117267	0.393322	0.318069
	C160	C	0.386761	0.686536	0.881626
	C161	C	0.623806	0.689317	0.111644
	C162	C	0.621960	0.336834	0.880258
	C163	C	0.382758	0.333489	0.111502
	C164	C	0.680504	0.895419	0.375511
	C165	C	0.681919	0.125178	0.616727
	C166	C	0.322974	0.896692	0.616863
	C167	C	0.327592	0.126240	0.375143
	C168	C	0.882352	0.395514	0.174354
	C169	C	0.123958	0.626277	0.171672
	C170	C	0.121581	0.395090	0.819079
	C171	C	0.887907	0.626730	0.820639
	C172	C	0.179547	0.893817	0.380999
	C173	C	0.182353	0.134545	0.610836
	C174	C	0.827521	0.130605	0.381623
	C175	C	0.823631	0.888040	0.610891
	C176	C	0.388640	0.188452	0.876797
	C177	C	0.617431	0.190159	0.114832
	C178	C	0.390510	0.830369	0.119315
	C179	C	0.617191	0.835622	0.876080
	C180	C	0.390169	0.888513	0.176589
	C181	C	0.617936	0.132169	0.172272
	C182	C	0.388477	0.129972	0.819483
	C183	C	0.616352	0.892500	0.817701
	C184	C	0.885931	0.187066	0.380957
	C185	C	0.122658	0.189530	0.611697
	C186	C	0.121655	0.837193	0.380741
	C187	C	0.883208	0.833583	0.611682
	C188	C	0.181097	0.395853	0.874776
	C189	C	0.183980	0.624638	0.116811
	C190	C	0.822796	0.396589	0.118360
	C191	C	0.828518	0.626129	0.875603
	C192	C	0.404479	0.106037	0.594496
	C193	C	0.600834	0.915626	0.594473
	C194	C	0.604982	0.105012	0.397390
	C195	C	0.402465	0.916472	0.398951
	C196	C	0.600934	0.414259	0.090830
	C197	C	0.605763	0.611635	0.901277
	C198	C	0.405515	0.606548	0.091354
	C199	C	0.404062	0.411981	0.900857
	C200	C	0.097177	0.613362	0.395493
	C201	C	0.909515	0.610658	0.597700
	C202	C	0.097501	0.412615	0.595888
	C203	C	0.909861	0.411317	0.398354
	C204	C	0.905599	0.605245	0.094175
	C205	C	0.101119	0.416227	0.093971
	C206	C	0.105797	0.605515	0.896397
	C207	C	0.902531	0.415692	0.898044
	C208	C	0.101234	0.913949	0.591539
	C209	C	0.105038	0.111666	0.401095
	C210	C	0.904820	0.107945	0.591092
	C211	C	0.904289	0.912984	0.401285
	C212	C	0.596250	0.112702	0.895566
	C213	C	0.410521	0.109019	0.096167
	C214	C	0.596858	0.913221	0.094778
	C215	C	0.409099	0.910145	0.898196
	Zn216	Zn	0.502286	0.010629	0.745509
	Zn217	Zn	0.503731	0.010894	0.246945
	Zn218	Zn	0.753711	0.511680	-0.004321
	Zn219	Zn	0.254487	0.510116	-0.004281
	Zn220	Zn	0.002849	0.763076	0.496471
	Zn221	Zn	0.003523	0.260541	0.496193
	Zn222	Zn	0.003463	0.510835	0.747261
	Zn223	Zn	0.003536	0.511450	0.245758
	Zn224	Zn	0.503662	0.760146	-0.003391
	Zn225	Zn	0.502884	0.262578	-0.003510
	Zn226	Zn	0.753545	0.010044	0.496632
	Zn227	Zn	0.252804	0.011833	0.496603
	N228	N	0.416506	0.973747	0.673961
	N229	N	0.586375	0.048855	0.672161
	N230	N	0.588512	0.972882	0.318293
	N231	N	0.420037	0.048734	0.319799
	N232	N	0.681243	0.426430	0.958883
	N233	N	0.685560	0.600345	0.032577
	N234	N	0.326631	0.596229	0.959768
	N235	N	0.322469	0.421772	0.032050
	N236	N	0.966048	0.690430	0.410681
	N237	N	0.039825	0.691836	0.582480
	N238	N	0.967493	0.330399	0.584352
	N239	N	0.040221	0.333202	0.410095
	N240	N	0.966301	0.425748	0.674575
	N241	N	0.040534	0.597359	0.674757
	N242	N	0.966903	0.598309	0.316654
	N243	N	0.040117	0.426153	0.317438
	N244	N	0.420765	0.686204	0.959227
	N245	N	0.590071	0.689876	0.033931
	N246	N	0.587629	0.335880	0.958367
	N247	N	0.417740	0.333420	0.033851
	N248	N	0.683402	0.973486	0.409107
	N249	N	0.683498	0.046704	0.583829
	N250	N	0.322393	0.974930	0.583430
	N251	N	0.324040	0.048173	0.408907
	N252	N	0.918181	0.472889	0.174134
	N253	N	0.087784	0.549116	0.171866
	N254	N	0.088550	0.473013	0.818252
	N255	N	0.920757	0.548754	0.820380
	N256	N	0.180831	0.927018	0.459371
	N257	N	0.185212	0.101496	0.532419
	N258	N	0.825382	0.096686	0.459784
	N259	N	0.822555	0.922252	0.532771
	N260	N	0.465666	0.190845	0.909856
	N261	N	0.540335	0.190905	0.082012
	N262	N	0.467247	0.830529	0.084214
	N263	N	0.540377	0.833317	0.910813
	N264	N	0.466767	0.924090	0.176358
	N265	N	0.541041	0.097387	0.174529
	N266	N	0.465498	0.096830	0.817411
	N267	N	0.539037	0.924880	0.816829
	N268	N	0.919658	0.187457	0.458713
	N269	N	0.089004	0.189754	0.533834
	N270	N	0.087532	0.835836	0.458726
	N271	N	0.918248	0.834201	0.534116
	N272	N	0.184404	0.473988	0.907961
	N273	N	0.184717	0.546555	0.083338
	N274	N	0.822269	0.474644	0.084099
	N275	N	0.824941	0.547786	0.908971
	O276	O	0.459996	0.508773	0.474772
	H277	H	0.456933	0.515448	0.476393
	H278	H	0.470250	0.519823	0.469188
	O279	O	0.871973	0.029657	0.911756
	H280	H	0.861317	0.017762	0.899343
	H281	H	0.874789	0.031859	0.924801
	O282	O	0.956558	0.971649	0.008573
	H283	H	0.962373	0.963176	0.006732
	H284	H	0.970513	0.985808	0.010093
	O285	O	1.045887	0.037745	1.158523
	H286	H	1.037523	0.046991	1.154598
	H287	H	1.043745	0.049590	1.164589
	O288	O	0.501766	0.460723	0.536160
	H289	H	0.519116	0.464857	0.524633
	H290	H	0.509257	0.455096	0.542186
	O291	O	0.445424	0.557971	0.498004
	H292	H	0.457488	0.557435	0.492536
	H293	H	0.442545	0.548174	0.504418
	O294	O	0.569721	0.457930	0.609234
	H295	H	0.571104	0.447672	0.608674
	H296	H	0.576540	0.455527	0.607605
	O297	O	0.072657	0.000072	0.966197
	H298	H	0.062874	-0.003970	0.965331
	H299	H	0.074599	0.000351	0.965645
	O300	O	0.468205	0.456007	0.554318
	H301	H	0.459833	0.449006	0.553905
	H302	H	0.473402	0.458115	0.559131
	O303	O	0.428975	0.532897	0.433073
	H304	H	0.430224	0.534961	0.435635
	H305	H	0.430240	0.537917	0.438874
	O306	O	-0.011996	0.939707	1.139388
	H307	H	-0.008666	0.936406	1.136237
	H308	H	-0.021162	0.956423	1.147887
	O309	O	0.502460	0.413334	0.467798
	H310	H	0.513900	0.411475	0.462381
	H311	H	0.492391	0.425898	0.473496
	O312	O	0.066690	-0.075753	-0.021405
	H313	H	0.082409	-0.085258	-0.018642
	H314	H	0.057146	-0.068722	-0.020944
	O315	O	0.952514	-0.094383	0.096971
	H316	H	0.944645	-0.098802	0.106834
	H317	H	0.944707	-0.099768	0.098486
	O318	O	0.976735	0.981332	0.956306
	H319	H	0.974921	0.983283	0.956603
	H320	H	0.976754	0.967849	0.956979
	O321	O	-0.070035	-0.048085	1.036205
	H322	H	-0.069961	-0.053407	1.039355
	H323	H	-0.075308	-0.043641	1.033398
	O324	O	0.445368	0.498903	0.631880
	H325	H	0.432835	0.497502	0.634866
	H326	H	0.450886	0.499773	0.626654
	O327	O	0.035824	0.118678	-0.038895
	H328	H	0.051599	0.108911	-0.047362
	H329	H	0.033049	0.113258	-0.036911
	O330	O	0.560098	0.530537	0.439191
	H331	H	0.559891	0.526391	0.444199
	H332	H	0.552583	0.522389	0.439610
	O333	O	0.154162	0.992979	1.068425
	H334	H	0.148927	0.999400	1.067647
	H335	H	0.160925	0.997132	1.075851
	O336	O	-0.024845	0.071781	-0.089117
	H337	H	-0.024313	0.073065	-0.091346
	H338	H	-0.036622	0.078264	-0.081084
	O339	O	0.490072	0.480800	0.391663
	H340	H	0.483499	0.481922	0.392794
	H341	H	0.483597	0.487491	0.386636
	O342	O	0.995257	0.914573	1.035388
	H343	H	0.986757	0.914769	1.026308
	H344	H	0.993182	0.901060	1.040906
	O345	O	0.866958	1.073767	-0.050240
	H346	H	0.864112	1.074767	-0.046934
	H347	H	0.854897	1.065563	-0.050584
	O348	O	0.578955	0.434666	0.559725
	H349	H	0.586562	0.435274	0.552593
	H350	H	0.580513	0.430381	0.544167
	O351	O	0.542545	0.472805	0.436517
	H352	H	0.535000	0.469146	0.436539
	H353	H	0.542034	0.475150	0.441915
	O354	O	0.141282	-0.052033	-0.114017
	H355	H	0.134253	-0.062551	-0.100760
	H356	H	0.144459	-0.060085	-0.116588
	O357	O	0.909015	0.124172	0.987380
	H358	H	0.914656	0.117850	0.988988
	H359	H	0.911706	0.119606	0.975485
	O360	O	0.598936	0.508058	0.484649
	H361	H	0.591142	0.496480	0.493843
	H362	H	0.597437	0.505646	0.490358
	O363	O	0.419474	0.405494	0.545746
	H364	H	0.412782	0.385991	0.534368
	H365	H	0.401092	0.423526	0.560078
	O366	O	1.053754	1.045673	0.962998
	H367	H	1.050160	1.048167	0.969472
	H368	H	1.055606	1.048110	0.958148
	O369	O	1.052275	-0.040115	0.927188
	H370	H	1.051528	-0.048234	0.941170
	H371	H	1.064390	-0.051032	0.921278
	O372	O	-0.024761	-0.011479	-0.030560
	H373	H	-0.027093	0.001073	-0.024421
	H374	H	-0.025489	-0.004594	-0.043677
	O375	O	1.056135	0.167128	0.130197
	H376	H	1.057670	0.163692	0.127195
	H377	H	1.062675	0.174845	0.115815
	O378	O	0.542267	0.475102	0.422661
	H379	H	0.534447	0.468956	0.428061
	H380	H	0.549754	0.471018	0.419467
	O381	O	0.445776	0.584256	0.454668
	H382	H	0.445885	0.576279	0.446239
	H383	H	0.441763	0.584886	0.472383
