data_Molecule from HDF5

_cell_length_a		16.279713
_cell_length_b		16.239966
_cell_length_c		16.282549
_cell_angle_alpha	89.940595
_cell_angle_beta	89.965275
_cell_angle_gamma	89.863416
_symmetry_space_group_name_H-M	'P 1'
_symmetry_Int_Tables_number		1

loop_
	_symmetry_equiv_pos_as_xyz
	x,y,z

loop_
	_atom_site_label
	_atom_site_type_symbol
	_atom_site_fract_x
	_atom_site_fract_y
	_atom_site_fract_z
	H0	H	0.400603	0.842649	0.715383
	H1	H	0.595739	0.170874	0.715411
	H2	H	0.597121	0.841277	0.288000
	H3	H	0.399572	0.170466	0.286868
	H4	H	0.712635	0.408458	0.837703
	H5	H	0.713049	0.605041	0.165305
	H6	H	0.283316	0.605608	0.837112
	H7	H	0.283050	0.409072	0.164243
	H8	H	0.833891	0.721930	0.403983
	H9	H	0.162744	0.720309	0.598968
	H10	H	0.834780	0.292995	0.599421
	H11	H	0.162396	0.293267	0.405041
	H12	H	0.834420	0.408927	0.714999
	H13	H	0.162453	0.603290	0.715036
	H14	H	0.833808	0.606125	0.286500
	H15	H	0.162056	0.409039	0.288383
	H16	H	0.400027	0.720700	0.836590
	H17	H	0.595442	0.721081	0.165413
	H18	H	0.596180	0.293020	0.836806
	H19	H	0.399864	0.293447	0.165012
	H20	H	0.714401	0.842281	0.403465
	H21	H	0.710696	0.171922	0.598968
	H22	H	0.285529	0.842839	0.598954
	H23	H	0.285081	0.171120	0.402918
	H24	H	0.899735	0.341880	0.215653
	H25	H	0.096636	0.670605	0.216583
	H26	H	0.097313	0.342809	0.787294
	H27	H	0.899574	0.670730	0.787034
	H28	H	0.213372	0.908586	0.336747
	H29	H	0.212452	0.104629	0.665115
	H30	H	0.784375	0.105995	0.338179
	H31	H	0.784604	0.908212	0.666527
	H32	H	0.333523	0.220176	0.904294
	H33	H	0.662029	0.219762	0.098241
	H34	H	0.333164	0.792983	0.098558
	H35	H	0.661796	0.791560	0.903238
	H36	H	0.333405	0.908143	0.216469
	H37	H	0.662272	0.103349	0.214811
	H38	H	0.334596	0.105966	0.786879
	H39	H	0.663041	0.909382	0.788110
	H40	H	0.901352	0.220535	0.338199
	H41	H	0.094690	0.218582	0.666732
	H42	H	0.097608	0.791524	0.337582
	H43	H	0.900974	0.792557	0.666516
	H44	H	0.211009	0.342653	0.904617
	H45	H	0.211049	0.671059	0.099483
	H46	H	0.784597	0.342020	0.099582
	H47	H	0.783806	0.670465	0.902912
	H48	H	0.409086	0.123218	0.594069
	H49	H	0.594952	0.888731	0.595218
	H50	H	0.591762	0.125350	0.397062
	H51	H	0.400300	0.887271	0.406462
	H52	H	0.586339	0.414838	0.115495
	H53	H	0.599469	0.594725	0.884855
	H54	H	0.406346	0.604936	0.118511
	H55	H	0.405609	0.410446	0.883504
	H56	H	0.111723	0.595064	0.410048
	H57	H	0.881612	0.602707	0.592600
	H58	H	0.114794	0.411104	0.590160
	H59	H	0.879937	0.410890	0.407351
	H60	H	0.114344	0.418659	0.596280
	H61	H	0.883202	0.598299	0.593777
	H62	H	0.115036	0.598809	0.403343
	H63	H	0.882771	0.414257	0.410008
	H64	H	0.398790	0.597309	0.117808
	H65	H	0.584128	0.594455	0.888738
	H66	H	0.592614	0.407614	0.120026
	H67	H	0.401261	0.414095	0.883329
	H68	H	0.583239	0.119534	0.411138
	H69	H	0.589609	0.890790	0.596822
	H70	H	0.402015	0.123567	0.592509
	H71	H	0.411754	0.890219	0.404652
	H72	H	0.899583	0.625471	0.095862
	H73	H	0.092418	0.389080	0.095096
	H74	H	0.091589	0.624552	0.906108
	H75	H	0.911563	0.391262	0.906208
	H76	H	0.093363	0.915211	0.616790
	H77	H	0.093354	0.108254	0.382163
	H78	H	0.909647	0.097661	0.616776
	H79	H	0.910946	0.906581	0.384720
	H80	H	0.617604	0.100246	0.897868
	H81	H	0.379153	0.101925	0.099076
	H82	H	0.611285	0.924024	0.098041
	H83	H	0.379899	0.915914	0.899348
	H84	H	0.617733	0.906642	0.101155
	H85	H	0.381325	0.103742	0.091188
	H86	H	0.616147	0.108901	0.912816
	H87	H	0.379740	0.905655	0.909526
	H88	H	0.903842	0.107406	0.621036
	H89	H	0.098989	0.095173	0.384568
	H90	H	0.091040	0.912150	0.617925
	H91	H	0.896649	0.916690	0.383826
	H92	H	0.089732	0.623912	0.906811
	H93	H	0.090889	0.389359	0.096038
	H94	H	0.911370	0.622559	0.098947
	H95	H	0.903320	0.390042	0.913906
	H96	H	0.404651	0.125849	0.599087
	H97	H	0.591922	0.891351	0.591399
	H98	H	0.600176	0.123888	0.413398
	H99	H	0.406784	0.892404	0.415377
	H100	H	0.596271	0.417029	0.118262
	H101	H	0.590157	0.607499	0.883118
	H102	H	0.408156	0.595374	0.114663
	H103	H	0.406142	0.416630	0.884882
	H104	H	0.114978	0.602896	0.410003
	H105	H	0.880796	0.600859	0.597348
	H106	H	0.117941	0.409586	0.599241
	H107	H	0.881199	0.415233	0.405884
	H108	H	0.907123	0.620140	0.087464
	H109	H	0.090517	0.390469	0.093914
	H110	H	0.090930	0.624209	0.908005
	H111	H	0.901710	0.386813	0.902866
	H112	H	0.094840	0.912323	0.618071
	H113	H	0.085229	0.097794	0.387763
	H114	H	0.898235	0.096901	0.619782
	H115	H	0.911119	0.923446	0.390671
	H116	H	0.611402	0.092397	0.911917
	H117	H	0.382827	0.095417	0.094449
	H118	H	0.611344	0.911424	0.084405
	H119	H	0.384401	0.919424	0.912512
	C120	C	0.377200	0.015544	0.623303
	C121	C	0.619708	0.998745	0.622742
	C122	C	0.620353	0.014435	0.379532
	C123	C	0.377624	0.998235	0.380413
	C124	C	0.620295	0.384846	0.009707
	C125	C	0.619779	0.627857	0.993470
	C126	C	0.375888	0.628346	0.008972
	C127	C	0.376176	0.385516	0.992444
	C128	C	0.006010	0.628527	0.379276
	C129	C	0.990358	0.628007	0.622495
	C130	C	0.006900	0.385062	0.623230
	C131	C	0.989632	0.385258	0.380165
	C132	C	0.877224	0.514376	0.122666
	C133	C	0.119424	0.498190	0.123196
	C134	C	0.119363	0.515602	0.879241
	C135	C	0.876549	0.497878	0.879524
	C136	C	0.121236	0.884907	0.509393
	C137	C	0.120234	0.128278	0.493621
	C138	C	0.876299	0.128858	0.510471
	C139	C	0.877758	0.886427	0.494588
	C140	C	0.506446	0.128451	0.879720
	C141	C	0.489681	0.127941	0.122935
	C142	C	0.505292	0.885077	0.123193
	C143	C	0.489938	0.885335	0.879488
	C144	C	0.380422	0.891578	0.677496
	C145	C	0.616854	0.122061	0.677724
	C146	C	0.617682	0.890615	0.325294
	C147	C	0.379823	0.121900	0.325033
	C148	C	0.674837	0.387749	0.886425
	C149	C	0.675068	0.625839	0.116513
	C150	C	0.320733	0.626438	0.885945
	C151	C	0.320865	0.388337	0.115485
	C152	C	0.882818	0.684341	0.382349
	C153	C	0.113920	0.682424	0.619536
	C154	C	0.883696	0.330528	0.620372
	C155	C	0.113254	0.330740	0.383637
	C156	C	0.883672	0.387933	0.678018
	C157	C	0.113689	0.624586	0.677198
	C158	C	0.882553	0.626704	0.324189
	C159	C	0.113261	0.388364	0.325890
	C160	C	0.378987	0.683322	0.885597
	C161	C	0.616805	0.683387	0.116476
	C162	C	0.617181	0.330129	0.886059
	C163	C	0.379127	0.331008	0.115849
	C164	C	0.675923	0.891011	0.382714
	C165	C	0.673308	0.122837	0.619430
	C166	C	0.323073	0.891721	0.619715
	C167	C	0.322677	0.122017	0.382491
	C168	C	0.879221	0.391014	0.177971
	C169	C	0.116661	0.621587	0.178366
	C170	C	0.116920	0.391588	0.825534
	C171	C	0.879205	0.621737	0.825098
	C172	C	0.175800	0.887939	0.385944
	C173	C	0.174659	0.125373	0.616593
	C174	C	0.821933	0.126147	0.387032
	C175	C	0.822377	0.887905	0.617652
	C176	C	0.382746	0.182989	0.883102
	C177	C	0.613179	0.182154	0.119384
	C178	C	0.382276	0.830214	0.119769
	C179	C	0.613393	0.830252	0.882679
	C180	C	0.382196	0.887626	0.178129
	C181	C	0.613172	0.124409	0.177198
	C182	C	0.383302	0.126214	0.824839
	C183	C	0.613655	0.888292	0.825229
	C184	C	0.880197	0.183003	0.386951
	C185	C	0.116172	0.182099	0.617144
	C186	C	0.118390	0.829603	0.386320
	C187	C	0.880604	0.830709	0.617717
	C188	C	0.173892	0.391783	0.883244
	C189	C	0.173463	0.621928	0.120051
	C190	C	0.822225	0.390987	0.120205
	C191	C	0.821474	0.621502	0.882455
	C192	C	0.398718	0.101976	0.601566
	C193	C	0.598442	0.912571	0.600939
	C194	C	0.598346	0.100667	0.401010
	C195	C	0.399768	0.912165	0.402377
	C196	C	0.598135	0.406724	0.095597
	C197	C	0.597648	0.605544	0.907823
	C198	C	0.398137	0.605949	0.094698
	C199	C	0.397977	0.407271	0.906204
	C200	C	0.091629	0.605685	0.401308
	C201	C	0.904067	0.606768	0.600966
	C202	C	0.093398	0.406664	0.601583
	C203	C	0.903549	0.407046	0.401467
	C204	C	0.899535	0.600498	0.100618
	C205	C	0.097659	0.411890	0.101469
	C206	C	0.097340	0.601924	0.900606
	C207	C	0.898901	0.411590	0.901330
	C208	C	0.099423	0.906773	0.595382
	C209	C	0.098924	0.106687	0.407131
	C210	C	0.897667	0.107148	0.596894
	C211	C	0.899779	0.908930	0.408709
	C212	C	0.592644	0.106657	0.901225
	C213	C	0.403394	0.106585	0.101359
	C214	C	0.591371	0.907313	0.100957
	C215	C	0.403722	0.907184	0.900907
	Zn216	Zn	0.498633	0.007045	0.751158
	Zn217	Zn	0.497671	0.006302	0.251718
	Zn218	Zn	0.749200	0.506379	0.001580
	Zn219	Zn	0.247143	0.507404	0.000746
	Zn220	Zn	-0.001436	0.757162	0.501606
	Zn221	Zn	-0.001677	0.256794	0.502112
	Zn222	Zn	-0.001499	0.506488	0.751505
	Zn223	Zn	-0.002388	0.506392	0.251346
	Zn224	Zn	0.497652	0.756775	0.000889
	Zn225	Zn	0.497856	0.256867	0.000963
	Zn226	Zn	0.748275	0.006962	0.502374
	Zn227	Zn	0.249517	0.006997	0.501286
	N228	N	0.413171	0.969623	0.679960
	N229	N	0.584095	0.044108	0.679675
	N230	N	0.583939	0.968443	0.323167
	N231	N	0.413366	0.044117	0.323685
	N232	N	0.676770	0.421155	0.964109
	N233	N	0.676960	0.592147	0.039168
	N234	N	0.318503	0.593028	0.963623
	N235	N	0.319121	0.421503	0.037795
	N236	N	0.960413	0.685591	0.415697
	N237	N	0.036315	0.684558	0.586260
	N238	N	0.961365	0.328537	0.587284
	N239	N	0.035619	0.328835	0.416700
	N240	N	0.961322	0.421302	0.679601
	N241	N	0.035787	0.591771	0.679422
	N242	N	0.960030	0.592763	0.322174
	N243	N	0.035465	0.421562	0.323571
	N244	N	0.412618	0.684545	0.963072
	N245	N	0.583189	0.684922	0.038980
	N246	N	0.583785	0.328314	0.963728
	N247	N	0.412880	0.329252	0.038318
	N248	N	0.677814	0.968905	0.415684
	N249	N	0.675370	0.045070	0.585959
	N250	N	0.321046	0.969721	0.586688
	N251	N	0.321347	0.044338	0.416173
	N252	N	0.912743	0.468751	0.179649
	N253	N	0.083818	0.543652	0.180414
	N254	N	0.083776	0.469482	0.822949
	N255	N	0.912847	0.543994	0.823078
	N256	N	0.177719	0.921595	0.463541
	N257	N	0.177012	0.092423	0.538835
	N258	N	0.819582	0.093162	0.464932
	N259	N	0.820617	0.921853	0.540114
	N260	N	0.460274	0.184496	0.916615
	N261	N	0.535468	0.184522	0.086348
	N262	N	0.459992	0.828705	0.086372
	N263	N	0.535484	0.828243	0.915452
	N264	N	0.459902	0.920733	0.180502
	N265	N	0.535291	0.091494	0.179454
	N266	N	0.461199	0.093298	0.822359
	N267	N	0.536012	0.921904	0.823226
	N268	N	0.913279	0.184752	0.464656
	N269	N	0.082990	0.183990	0.539430
	N270	N	0.085242	0.827722	0.463961
	N271	N	0.914019	0.829574	0.540059
	N272	N	0.175253	0.469840	0.916227
	N273	N	0.175482	0.544240	0.086523
	N274	N	0.820884	0.468788	0.086660
	N275	N	0.819793	0.543467	0.915323
	O276	O	-0.036155	-0.113832	1.071748
	H277	H	-0.045255	-0.116373	1.079172
	H278	H	-0.038739	-0.118139	1.079966
	O279	O	0.516728	0.547809	0.448217
	H280	H	0.512708	0.541389	0.448524
	H281	H	0.517254	0.547899	0.446238
	O282	O	0.540915	0.551779	0.451707
	H283	H	0.549502	0.561877	0.457315
	H284	H	0.534422	0.554053	0.448947
	O285	O	0.510661	0.550338	0.464574
	H286	H	0.515953	0.546274	0.453610
	H287	H	0.500788	0.559292	0.473031
	O288	O	0.946254	-0.085784	0.056377
	H289	H	0.936284	-0.093857	0.065145
	H290	H	0.954018	-0.084625	0.049148
	O291	O	-0.049809	0.911627	1.056145
	H292	H	-0.045576	0.911964	1.055522
	H293	H	-0.044826	0.915051	1.046264
	O294	O	0.532968	0.560958	0.442213
	H295	H	0.537178	0.564717	0.442422
	H296	H	0.537004	0.554770	0.434568
	O297	O	0.962410	-0.135595	0.091586
	H298	H	0.956289	-0.138606	0.097514
	H299	H	0.965770	-0.140567	0.087655
