data_Molecule from HDF5

_cell_length_a		16.584513
_cell_length_b		16.574408
_cell_length_c		16.459222
_cell_angle_alpha	90.057427
_cell_angle_beta	90.059935
_cell_angle_gamma	90.088524
_symmetry_space_group_name_H-M	'P 1'
_symmetry_Int_Tables_number		1

loop_
	_symmetry_equiv_pos_as_xyz
	x,y,z

loop_
	_atom_site_label
	_atom_site_type_symbol
	_atom_site_fract_x
	_atom_site_fract_y
	_atom_site_fract_z
	H0	H	0.398740	0.865411	0.705235
	H1	H	0.608216	0.179139	0.705353
	H2	H	0.604818	0.863583	0.264898
	H3	H	0.399508	0.179574	0.263057
	H4	H	0.723648	0.417673	0.824953
	H5	H	0.725183	0.628511	0.139216
	H6	H	0.281545	0.626635	0.824982
	H7	H	0.281601	0.415770	0.139523
	H8	H	0.846968	0.742014	0.378212
	H9	H	0.158545	0.745911	0.591067
	H10	H	0.847101	0.298995	0.589461
	H11	H	0.160826	0.302213	0.379715
	H12	H	0.846908	0.415587	0.705282
	H13	H	0.160786	0.626258	0.703852
	H14	H	0.846337	0.623182	0.264411
	H15	H	0.160228	0.417149	0.262302
	H16	H	0.397346	0.742787	0.824687
	H17	H	0.608406	0.743515	0.140071
	H18	H	0.608034	0.301532	0.825575
	H19	H	0.399388	0.301551	0.140705
	H20	H	0.721672	0.864219	0.380556
	H21	H	0.727381	0.178001	0.591903
	H22	H	0.280238	0.865525	0.590288
	H23	H	0.282313	0.178477	0.379004
	H24	H	0.897855	0.366096	0.204329
	H25	H	0.109676	0.677166	0.205929
	H26	H	0.107759	0.365719	0.760363
	H27	H	0.895830	0.676950	0.757918
	H28	H	0.224964	0.914798	0.326466
	H29	H	0.225781	0.128635	0.639270
	H30	H	0.783504	0.124657	0.325223
	H31	H	0.781197	0.915678	0.640916
	H32	H	0.349535	0.247032	0.874729
	H33	H	0.660571	0.243692	0.088615
	H34	H	0.348714	0.798255	0.089963
	H35	H	0.657376	0.796635	0.872965
	H36	H	0.347318	0.917127	0.203931
	H37	H	0.661521	0.124924	0.202605
	H38	H	0.348510	0.129583	0.759828
	H39	H	0.659623	0.916247	0.760512
	H40	H	0.900550	0.240432	0.324425
	H41	H	0.109427	0.244990	0.638834
	H42	H	0.110399	0.797999	0.327951
	H43	H	0.896217	0.798540	0.639319
	H44	H	0.226333	0.366316	0.875634
	H45	H	0.228239	0.676114	0.091970
	H46	H	0.779429	0.368077	0.090216
	H47	H	0.777954	0.676282	0.872526
	H48	H	0.412388	0.135267	0.573448
	H49	H	0.588810	0.913915	0.565563
	H50	H	0.599477	0.136380	0.394806
	H51	H	0.417748	0.912219	0.396107
	H52	H	0.594479	0.434944	0.096289
	H53	H	0.589355	0.615904	0.869305
	H54	H	0.413872	0.607437	0.094677
	H55	H	0.415020	0.429089	0.869271
	H56	H	0.112702	0.601532	0.396435
	H57	H	0.893113	0.606066	0.571149
	H58	H	0.111230	0.439098	0.567257
	H59	H	0.889925	0.428696	0.390557
	H60	H	0.116579	0.433424	0.578275
	H61	H	0.890515	0.611522	0.573690
	H62	H	0.118711	0.613917	0.388098
	H63	H	0.891463	0.429731	0.396224
	H64	H	0.418487	0.610391	0.093945
	H65	H	0.596229	0.606391	0.869271
	H66	H	0.590121	0.437182	0.094723
	H67	H	0.411514	0.435929	0.869828
	H68	H	0.592147	0.135872	0.387930
	H69	H	0.597829	0.909269	0.570291
	H70	H	0.418845	0.132114	0.571315
	H71	H	0.407052	0.908183	0.396214
	H72	H	0.913966	0.634609	0.072817
	H73	H	0.091000	0.409974	0.070571
	H74	H	0.093951	0.634011	0.893245
	H75	H	0.911831	0.411704	0.899844
	H76	H	0.091194	0.942111	0.593005
	H77	H	0.094532	0.106213	0.370540
	H78	H	0.915742	0.109766	0.595393
	H79	H	0.913678	0.934114	0.370746
	H80	H	0.616620	0.115701	0.895911
	H81	H	0.391380	0.109599	0.075580
	H82	H	0.616439	0.931286	0.070856
	H83	H	0.391371	0.933586	0.893431
	H84	H	0.615545	0.933152	0.072263
	H85	H	0.389571	0.117226	0.073713
	H86	H	0.613334	0.108289	0.899188
	H87	H	0.391897	0.931718	0.896664
	H88	H	0.915353	0.112313	0.596182
	H89	H	0.087624	0.112364	0.370573
	H90	H	0.084279	0.931236	0.594474
	H91	H	0.913790	0.931080	0.370511
	H92	H	0.091220	0.633282	0.893700
	H93	H	0.092420	0.410887	0.069454
	H94	H	0.915646	0.634933	0.072359
	H95	H	0.912532	0.409520	0.891577
	H96	H	0.412808	0.132554	0.566114
	H97	H	0.588581	0.910029	0.576337
	H98	H	0.591118	0.131776	0.397187
	H99	H	0.413625	0.907551	0.386877
	H100	H	0.590908	0.432306	0.095563
	H101	H	0.585505	0.605813	0.873391
	H102	H	0.413733	0.612424	0.095694
	H103	H	0.418727	0.434968	0.871931
	H104	H	0.115160	0.615281	0.403171
	H105	H	0.892076	0.611466	0.567246
	H106	H	0.115372	0.426417	0.566927
	H107	H	0.891368	0.434293	0.392510
	H108	H	0.914253	0.634554	0.071334
	H109	H	0.092344	0.409165	0.071144
	H110	H	0.093028	0.633175	0.895776
	H111	H	0.919557	0.412930	0.895366
	H112	H	0.096982	0.931427	0.597823
	H113	H	0.096035	0.114909	0.367352
	H114	H	0.913055	0.110726	0.596245
	H115	H	0.911206	0.932525	0.370190
	H116	H	0.616239	0.108594	0.890606
	H117	H	0.393130	0.112241	0.067942
	H118	H	0.616624	0.931284	0.073125
	H119	H	0.393912	0.934877	0.896007
	C120	C	0.381862	0.030119	0.603876
	C121	C	0.624869	1.014025	0.604548
	C122	C	0.624606	0.030422	0.362162
	C123	C	0.381324	1.013155	0.361266
	C124	C	0.624471	0.401826	-0.008501
	C125	C	0.624074	0.643046	0.974117
	C126	C	0.382088	0.642849	-0.008969
	C127	C	0.382738	0.400782	0.974287
	C128	C	0.011982	0.642181	0.363289
	C129	C	0.994782	0.643170	0.604508
	C130	C	0.011477	0.400013	0.604281
	C131	C	0.994639	0.399474	0.361350
	C132	C	0.881867	0.531430	0.104294
	C133	C	0.125175	0.512688	0.104201
	C134	C	0.124715	0.530130	0.861683
	C135	C	0.881705	0.513707	0.861344
	C136	C	0.123436	0.901540	0.491569
	C137	C	0.124850	0.143504	0.473765
	C138	C	0.882613	0.142522	0.491471
	C139	C	0.880764	0.899826	0.474467
	C140	C	0.512512	0.143788	0.861741
	C141	C	0.495129	0.144362	0.104896
	C142	C	0.512511	0.899927	0.104275
	C143	C	0.495345	0.900868	0.861637
	C144	C	0.379672	0.912553	0.665185
	C145	C	0.627335	0.131835	0.665489
	C146	C	0.624102	0.911300	0.304075
	C147	C	0.380676	0.132073	0.302709
	C148	C	0.683848	0.399553	0.872566
	C149	C	0.685188	0.646748	0.092037
	C150	C	0.321764	0.645053	0.872345
	C151	C	0.322267	0.398041	0.092491
	C152	C	0.894190	0.702107	0.360328
	C153	C	0.112223	0.704766	0.608551
	C154	C	0.894062	0.339173	0.607446
	C155	C	0.113316	0.341187	0.360568
	C156	C	0.893950	0.397492	0.665037
	C157	C	0.113147	0.645214	0.664504
	C158	C	0.893621	0.642983	0.303646
	C159	C	0.113039	0.398365	0.302114
	C160	C	0.379336	0.702804	0.872263
	C161	C	0.626896	0.703770	0.092398
	C162	C	0.626234	0.341782	0.872714
	C163	C	0.380798	0.341164	0.093120
	C164	C	0.682536	0.911631	0.361604
	C165	C	0.686381	0.131283	0.608889
	C166	C	0.320858	0.912513	0.607863
	C167	C	0.322256	0.131530	0.360284
	C168	C	0.879268	0.413756	0.164580
	C169	C	0.128151	0.630076	0.165852
	C170	C	0.126485	0.412514	0.800720
	C171	C	0.878044	0.630298	0.798777
	C172	C	0.184835	0.897166	0.373805
	C173	C	0.185418	0.146604	0.592113
	C174	C	0.823109	0.143635	0.372559
	C175	C	0.821083	0.897452	0.593263
	C176	C	0.396077	0.205865	0.857587
	C177	C	0.613463	0.203669	0.106946
	C178	C	0.395143	0.839030	0.107505
	C179	C	0.611396	0.838313	0.856654
	C180	C	0.394631	0.898266	0.164174
	C181	C	0.613904	0.144707	0.163688
	C182	C	0.395347	0.147310	0.800347
	C183	C	0.612404	0.897726	0.800341
	C184	C	0.881286	0.201015	0.372142
	C185	C	0.127788	0.204383	0.591990
	C186	C	0.127277	0.839377	0.374195
	C187	C	0.878278	0.839279	0.592675
	C188	C	0.185141	0.412794	0.858096
	C189	C	0.187000	0.629530	0.109129
	C190	C	0.820192	0.414476	0.107755
	C191	C	0.819413	0.629961	0.855797
	C192	C	0.407318	0.111934	0.577736
	C193	C	0.599270	0.932400	0.578121
	C194	C	0.601155	0.113165	0.386336
	C195	C	0.405749	0.930840	0.385832
	C196	C	0.599235	0.427405	0.073934
	C197	C	0.597970	0.616904	0.892002
	C198	C	0.407692	0.617240	0.073410
	C199	C	0.407810	0.426014	0.891842
	C200	C	0.093983	0.617376	0.388670
	C201	C	0.913346	0.617302	0.578250
	C202	C	0.093220	0.425624	0.578340
	C203	C	0.912310	0.423802	0.386021
	C204	C	0.907379	0.613621	0.079060
	C205	C	0.099159	0.431362	0.077918
	C206	C	0.099890	0.612119	0.887043
	C207	C	0.907454	0.432476	0.888175
	C208	C	0.097870	0.927651	0.573807
	C209	C	0.099775	0.118396	0.390979
	C210	C	0.907577	0.118154	0.574541
	C211	C	0.905817	0.925266	0.391934
	C212	C	0.594195	0.118015	0.887806
	C213	C	0.412775	0.119929	0.079696
	C214	C	0.594745	0.924590	0.079187
	C215	C	0.413700	0.926266	0.887846
	Zn216	Zn	0.503528	0.022426	0.732715
	Zn217	Zn	0.503469	0.022323	0.232470
	Zn218	Zn	0.752941	0.523107	-0.017511
	Zn219	Zn	0.253959	0.521578	-0.017264
	Zn220	Zn	0.003342	0.772111	0.483717
	Zn221	Zn	0.003518	0.271243	0.482714
	Zn222	Zn	0.003171	0.522137	0.732699
	Zn223	Zn	0.004062	0.521786	0.233132
	Zn224	Zn	0.503008	0.771424	-0.017883
	Zn225	Zn	0.504241	0.272678	-0.016589
	Zn226	Zn	0.753676	0.022188	0.483795
	Zn227	Zn	0.252569	0.021688	0.483250
	N228	N	0.416912	0.986668	0.662775
	N229	N	0.589789	0.057893	0.662974
	N230	N	0.588890	0.986222	0.304146
	N231	N	0.416634	0.057415	0.302907
	N232	N	0.682926	0.436064	0.947428
	N233	N	0.683494	0.609898	0.017336
	N234	N	0.323067	0.608834	0.947362
	N235	N	0.323247	0.434342	0.017480
	N236	N	0.968912	0.701864	0.396394
	N237	N	0.037544	0.703915	0.572137
	N238	N	0.968423	0.340173	0.570813
	N239	N	0.038580	0.341723	0.396523
	N240	N	0.968074	0.434398	0.663376
	N241	N	0.039252	0.607697	0.662105
	N242	N	0.967936	0.606557	0.305052
	N243	N	0.038208	0.433647	0.302014
	N244	N	0.416052	0.701729	0.947126
	N245	N	0.589453	0.701616	0.017860
	N246	N	0.590324	0.342688	0.947948
	N247	N	0.417600	0.342682	0.018510
	N248	N	0.683225	0.986754	0.396884
	N249	N	0.685204	0.056884	0.571958
	N250	N	0.322156	0.986738	0.570667
	N251	N	0.322405	0.056549	0.395717
	N252	N	0.917045	0.487468	0.162588
	N253	N	0.090355	0.556340	0.163034
	N254	N	0.089628	0.486534	0.802911
	N255	N	0.916360	0.557052	0.802324
	N256	N	0.182583	0.935253	0.447878
	N257	N	0.183589	0.109318	0.517709
	N258	N	0.823796	0.108105	0.447986
	N259	N	0.822639	0.934564	0.518704
	N260	N	0.469911	0.203767	0.895107
	N261	N	0.538513	0.203762	0.071193
	N262	N	0.469579	0.839890	0.071046
	N263	N	0.537349	0.839846	0.893807
	N264	N	0.468772	0.935239	0.162507
	N265	N	0.539215	0.108782	0.162671
	N266	N	0.468923	0.109380	0.802763
	N267	N	0.539262	0.936096	0.803504
	N268	N	0.917446	0.200468	0.447320
	N269	N	0.090883	0.202587	0.517290
	N270	N	0.089811	0.842136	0.448376
	N271	N	0.914879	0.840631	0.517913
	N272	N	0.183989	0.486876	0.895446
	N273	N	0.185417	0.555591	0.071537
	N274	N	0.821731	0.488830	0.070900
	N275	N	0.821545	0.556483	0.893973
	O276	O	1.228918	1.049648	0.204337
	H277	H	1.241357	1.069714	0.221314
	H278	H	1.238046	1.076191	0.210377
	O279	O	0.050104	-0.075674	1.015225
	H280	H	0.054832	-0.082147	1.020946
	H281	H	0.045947	-0.071029	1.001967
	O282	O	0.302695	0.315866	0.514625
	H283	H	0.300337	0.314662	0.512174
	H284	H	0.290807	0.329264	0.502723
	O285	O	0.303041	0.317508	0.688824
	H286	H	0.294892	0.315630	0.679995
	H287	H	0.294040	0.311175	0.676698
	O288	O	1.413599	-0.366906	1.278885
	H289	H	1.427444	-0.366258	1.283485
	H290	H	1.416055	-0.372951	1.289793
	O291	O	0.339097	0.344052	0.319135
	H292	H	0.357834	0.347387	0.331531
	H293	H	0.343962	0.356085	0.329664
	O294	O	-0.049226	0.889708	-1.103681
	H295	H	-0.052052	0.875936	-1.108216
	H296	H	-0.048200	0.884665	-1.077113
	O297	O	0.618576	-0.397906	-0.495173
	H298	H	0.630022	-0.391511	-0.489541
	H299	H	0.612437	-0.404398	-0.475129
	O300	O	-0.248226	-0.231207	0.244550
	H301	H	-0.260811	-0.243322	0.253028
	H302	H	-0.245867	-0.241398	0.258009
	O303	O	-0.207018	0.088239	-0.008959
	H304	H	-0.208977	0.095423	-0.002060
	H305	H	-0.204811	0.085323	0.016218
	O306	O	0.963221	-0.191790	1.092964
	H307	H	0.955437	-0.188153	1.088687
	H308	H	0.958676	-0.193098	1.093653
	O309	O	0.372003	0.515636	0.392962
	H310	H	0.376268	0.511571	0.382100
	H311	H	0.364352	0.524556	0.397774
	O312	O	-0.114822	0.047265	0.042279
	H313	H	-0.129463	0.048678	0.041273
	H314	H	-0.104351	0.051430	0.035766
	O315	O	0.931696	0.209305	1.059459
	H316	H	0.927707	0.208566	1.039284
	H317	H	0.935073	0.208401	1.038854
	O318	O	0.582666	0.486075	0.395701
	H319	H	0.581275	0.476496	0.381787
	H320	H	0.572645	0.468240	0.383644
	O321	O	0.090770	1.144349	0.867375
	H322	H	0.088434	1.133025	0.866173
	H323	H	0.111432	1.142718	0.872180
	O324	O	0.790485	-0.190083	1.001486
	H325	H	0.796512	-0.183335	0.997891
	H326	H	0.780738	-0.209041	1.008919
	O327	O	1.223001	-0.196383	0.955912
	H328	H	1.231267	-0.190560	0.964392
	H329	H	1.233387	-0.218574	0.957048
	O330	O	-0.184615	0.067478	0.778478
	H331	H	-0.185683	0.048453	0.791440
	H332	H	-0.188467	0.055798	0.760145
	O333	O	0.479651	0.680404	0.524876
	H334	H	0.471742	0.674448	0.529364
	H335	H	0.485212	0.682273	0.524575
	O336	O	0.979518	-0.196211	1.199821
	H337	H	0.959165	-0.199081	1.204172
	H338	H	0.976472	-0.198260	1.216892
	O339	O	0.322964	0.723198	0.513506
	H340	H	0.313612	0.723339	0.523841
	H341	H	0.319570	0.717152	0.493284
	O342	O	0.180684	1.053414	-0.027438
	H343	H	0.190983	1.057742	-0.020708
	H344	H	0.166681	1.039979	-0.039162
	O345	O	0.698324	0.554275	0.693188
	H346	H	0.706741	0.530943	0.697406
	H347	H	0.707743	0.548459	0.695848
	O348	O	-0.099106	0.908844	0.773677
	H349	H	-0.109853	0.903975	0.774799
	H350	H	-0.096061	0.915655	0.788551
	O351	O	-0.161455	0.245497	0.951737
	H352	H	-0.179117	0.259836	0.945118
	H353	H	-0.153396	0.236229	0.909953
	O354	O	1.414821	-0.258209	1.504905
	H355	H	1.410543	-0.262703	1.518271
	H356	H	1.406687	-0.245088	1.499588
	O357	O	0.378990	0.503752	0.566841
	H358	H	0.366386	0.500102	0.564954
	H359	H	0.393053	0.508500	0.574659
	O360	O	0.612164	0.390218	0.615390
	H361	H	0.618004	0.379564	0.612661
	H362	H	0.604046	0.402214	0.608723
	O363	O	0.455081	0.393977	0.480452
	H364	H	0.451977	0.403446	0.503680
	H365	H	0.473343	0.391788	0.460822
	O366	O	0.794128	0.009759	1.190871
	H367	H	0.793702	0.012261	1.216597
	H368	H	0.793722	-0.021961	1.178956
	O369	O	0.192377	0.213826	0.794986
	H370	H	0.184229	0.210136	0.803013
	H371	H	0.188690	0.186847	0.799105
	O372	O	0.481835	1.320660	0.688560
	H373	H	0.483959	1.342183	0.701075
	H374	H	0.451378	1.310350	0.704467
	O375	O	1.198370	-0.170065	-0.211910
	H376	H	1.201447	-0.168411	-0.173038
	H377	H	1.159937	-0.183538	-0.225763
	O378	O	1.196318	1.207989	1.172334
	H379	H	1.186652	1.226897	1.195425
	H380	H	1.173131	1.210891	1.149558
	O381	O	0.035943	1.043815	-0.224323
	H382	H	0.045304	1.038510	-0.210578
	H383	H	0.038966	1.029633	-0.228417
	O384	O	0.632463	0.631771	0.310414
	H385	H	0.621188	0.621902	0.313719
	H386	H	0.611685	0.610932	0.313784
	O387	O	0.224946	0.997660	0.760428
	H388	H	0.243781	0.982088	0.751016
	H389	H	0.228811	0.968084	0.752277
	O390	O	-0.012109	1.046948	1.190338
	H391	H	-0.001724	1.048891	1.198550
	H392	H	-0.001927	1.035180	1.193931
	O393	O	1.224341	-0.041629	0.018039
	H394	H	1.229893	-0.050632	0.022584
	H395	H	1.228250	-0.019555	0.034572
	O396	O	1.218652	0.236477	0.009512
	H397	H	1.227887	0.227360	0.021647
	H398	H	1.232485	0.255272	0.010597
	O399	O	-0.190278	-0.040216	0.918165
	H400	H	-0.190430	-0.027029	0.928932
	H401	H	-0.195587	-0.046385	0.922760
	O402	O	1.011883	0.167648	0.958602
	H403	H	1.019292	0.174393	0.952885
	H404	H	1.021461	0.154876	0.957410
	O405	O	0.799644	0.224148	0.787598
	H406	H	0.825974	0.218430	0.797606
	H407	H	0.808942	0.190593	0.778125
	O408	O	0.979280	1.050405	0.926191
	H409	H	0.978025	1.054331	0.928126
	H410	H	0.980138	1.045677	0.928976
	O411	O	1.457003	1.612892	0.341911
	H412	H	1.471509	1.607213	0.336931
	H413	H	1.455598	1.600093	0.337939
	O414	O	-0.157806	0.175282	0.177617
	H415	H	-0.150424	0.154088	0.174650
	H416	H	-0.139589	0.168670	0.153051
	O417	O	-0.699314	-0.372921	0.285375
	H418	H	-0.716855	-0.347005	0.263645
	H419	H	-0.668752	-0.365031	0.292820
	O420	O	1.037516	-0.192152	0.771861
	H421	H	1.024881	-0.197402	0.753795
	H422	H	1.024159	-0.199897	0.785002
	O423	O	1.178476	0.853203	0.168976
	H424	H	1.176431	0.864348	0.163039
	H425	H	1.173555	0.866055	0.162584
	O426	O	0.336762	0.521049	0.698776
	H427	H	0.339554	0.506407	0.705707
	H428	H	0.328453	0.504435	0.708780
	O429	O	0.985362	0.942517	0.138323
	H430	H	1.005626	0.935817	0.150828
	H431	H	0.981958	0.939940	0.136671
	O432	O	1.375083	-0.357470	1.347470
	H433	H	1.383759	-0.329985	1.338788
	H434	H	1.393860	-0.358548	1.354034
	O435	O	-0.051061	0.794477	0.919689
	H436	H	-0.048126	0.796300	0.913588
	H437	H	-0.040284	0.798217	0.938464
	O438	O	0.314651	0.540311	0.405317
	H439	H	0.312255	0.548908	0.392204
	H440	H	0.314730	0.544486	0.419061
	O441	O	0.496895	0.312516	0.456198
	H442	H	0.482107	0.324793	0.472563
	H443	H	0.500513	0.305935	0.473553
	O444	O	0.544648	0.547329	0.612309
	H445	H	0.548890	0.533192	0.611277
	H446	H	0.535726	0.565784	0.618414
	O447	O	0.700228	0.717326	0.680428
	H448	H	0.686703	0.722154	0.647841
	H449	H	0.705753	0.682974	0.691526
	O450	O	0.682921	0.680945	-0.492008
	H451	H	0.677950	0.671207	-0.500054
	H452	H	0.703776	0.688087	-0.501175
	O453	O	-0.275715	0.302879	0.452248
	H454	H	-0.298558	0.305495	0.434063
	H455	H	-0.244238	0.267364	0.455792
	O456	O	0.037669	1.236674	1.195460
	H457	H	0.011644	1.239474	1.158441
	H458	H	0.034085	1.267842	1.223698
	O459	O	0.533489	0.730523	0.690066
	H460	H	0.555489	0.729807	0.677986
	H461	H	0.529617	0.745781	0.710881
	O462	O	0.696360	0.330918	0.291003
	H463	H	0.719815	0.302628	0.278324
	H464	H	0.672711	0.340745	0.295085
	O465	O	0.540809	0.307274	0.267032
	H466	H	0.558191	0.299950	0.267171
	H467	H	0.528639	0.295079	0.259224
	O468	O	-0.288740	0.494786	-0.716824
	H469	H	-0.274435	0.486159	-0.718200
	H470	H	-0.293769	0.469720	-0.719921
	O471	O	0.596631	0.474581	0.636183
	H472	H	0.607418	0.466291	0.629831
	H473	H	0.586459	0.478928	0.637157
	O474	O	0.976192	1.239105	-0.229553
	H475	H	0.973570	1.267431	-0.263073
	H476	H	0.993360	1.208854	-0.223758
	O477	O	0.673502	0.596897	0.477614
	H478	H	0.680490	0.587970	0.479052
	H479	H	0.672899	0.586237	0.488216
