data_Molecule from HDF5

_cell_length_a		16.204651
_cell_length_b		16.247826
_cell_length_c		16.346115
_cell_angle_alpha	89.927698
_cell_angle_beta	89.875902
_cell_angle_gamma	89.969606
_symmetry_space_group_name_H-M	'P 1'
_symmetry_Int_Tables_number		1

loop_
	_symmetry_equiv_pos_as_xyz
	x,y,z

loop_
	_atom_site_label
	_atom_site_type_symbol
	_atom_site_fract_x
	_atom_site_fract_y
	_atom_site_fract_z
	H0	H	0.400844	0.842085	0.719033
	H1	H	0.598334	0.170070	0.718126
	H2	H	0.598594	0.842480	0.290052
	H3	H	0.400172	0.169612	0.289408
	H4	H	0.715180	0.409076	0.841219
	H5	H	0.712092	0.603333	0.168590
	H6	H	0.286027	0.604527	0.840186
	H7	H	0.285021	0.409819	0.168130
	H8	H	0.833847	0.719634	0.407939
	H9	H	0.162986	0.720172	0.602382
	H10	H	0.833848	0.291754	0.602729
	H11	H	0.163659	0.294118	0.407408
	H12	H	0.833987	0.407807	0.719078
	H13	H	0.163215	0.605210	0.718340
	H14	H	0.834436	0.604585	0.291166
	H15	H	0.162885	0.407356	0.289073
	H16	H	0.401567	0.721845	0.840517
	H17	H	0.596268	0.719431	0.168237
	H18	H	0.598742	0.291963	0.840768
	H19	H	0.399585	0.291283	0.167869
	H20	H	0.711340	0.841697	0.408070
	H21	H	0.711823	0.170589	0.600285
	H22	H	0.285465	0.841758	0.601906
	H23	H	0.287042	0.170785	0.408001
	H24	H	0.899929	0.342736	0.219012
	H25	H	0.098668	0.669571	0.218860
	H26	H	0.098941	0.342364	0.788844
	H27	H	0.898923	0.669853	0.788512
	H28	H	0.213991	0.908650	0.340402
	H29	H	0.212687	0.102828	0.668065
	H30	H	0.786309	0.103177	0.339660
	H31	H	0.784074	0.907599	0.667123
	H32	H	0.334501	0.219644	0.907225
	H33	H	0.663972	0.218948	0.100067
	H34	H	0.333995	0.794168	0.101142
	H35	H	0.664735	0.793848	0.907610
	H36	H	0.334949	0.907850	0.219093
	H37	H	0.663730	0.105480	0.217882
	H38	H	0.334470	0.105561	0.790595
	H39	H	0.663567	0.907634	0.789267
	H40	H	0.900790	0.221487	0.340862
	H41	H	0.097583	0.221006	0.667646
	H42	H	0.097690	0.791833	0.340649
	H43	H	0.899401	0.791559	0.667622
	H44	H	0.213432	0.341750	0.906362
	H45	H	0.209334	0.671728	0.098641
	H46	H	0.787255	0.341488	0.100465
	H47	H	0.786486	0.670907	0.907966
	H48	H	0.411920	0.120697	0.597039
	H49	H	0.586544	0.889993	0.600224
	H50	H	0.585798	0.122270	0.407652
	H51	H	0.405972	0.888561	0.409255
	H52	H	0.590952	0.412932	0.119708
	H53	H	0.588198	0.603540	0.888940
	H54	H	0.402206	0.597001	0.119785
	H55	H	0.408550	0.407732	0.887442
	H56	H	0.120097	0.608130	0.405536
	H57	H	0.884251	0.595207	0.595087
	H58	H	0.115617	0.416268	0.601950
	H59	H	0.883514	0.419799	0.412590
	H60	H	0.117247	0.407887	0.597003
	H61	H	0.880652	0.597854	0.602174
	H62	H	0.111987	0.599373	0.422933
	H63	H	0.879128	0.412556	0.405372
	H64	H	0.408556	0.600173	0.119442
	H65	H	0.598139	0.602468	0.886140
	H66	H	0.592433	0.409580	0.121226
	H67	H	0.401291	0.415775	0.887746
	H68	H	0.595101	0.122485	0.416096
	H69	H	0.593093	0.890253	0.594002
	H70	H	0.401325	0.122847	0.593445
	H71	H	0.409572	0.889511	0.410742
	H72	H	0.904685	0.623423	0.096641
	H73	H	0.087064	0.390036	0.100110
	H74	H	0.104101	0.627451	0.907679
	H75	H	0.908258	0.389611	0.907796
	H76	H	0.088582	0.910975	0.619259
	H77	H	0.093042	0.099499	0.388169
	H78	H	0.905548	0.100352	0.619673
	H79	H	0.907827	0.914545	0.388903
	H80	H	0.619614	0.113971	0.913784
	H81	H	0.383174	0.099030	0.094525
	H82	H	0.616671	0.919986	0.104299
	H83	H	0.382535	0.917931	0.907973
	H84	H	0.620105	0.904045	0.100966
	H85	H	0.382984	0.094904	0.099148
	H86	H	0.610176	0.089600	0.921499
	H87	H	0.380828	0.909454	0.909564
	H88	H	0.904013	0.097720	0.619959
	H89	H	0.091662	0.100551	0.388465
	H90	H	0.095409	0.910323	0.621563
	H91	H	0.906363	0.908097	0.386710
	H92	H	0.083441	0.622856	0.900470
	H93	H	0.092546	0.391735	0.092037
	H94	H	0.905005	0.624959	0.101640
	H95	H	0.911257	0.391991	0.914283
	H96	H	0.404186	0.125220	0.604071
	H97	H	0.594553	0.887428	0.601151
	H98	H	0.597157	0.126367	0.404781
	H99	H	0.406950	0.889770	0.413343
	H100	H	0.595276	0.412917	0.120994
	H101	H	0.592744	0.594347	0.889560
	H102	H	0.402593	0.604173	0.121943
	H103	H	0.411614	0.417801	0.891880
	H104	H	0.114861	0.588269	0.405650
	H105	H	0.880756	0.602958	0.596410
	H106	H	0.113215	0.415638	0.592527
	H107	H	0.882401	0.408905	0.416181
	H108	H	0.908702	0.623320	0.098729
	H109	H	0.096256	0.386993	0.100462
	H110	H	0.088719	0.618743	0.921863
	H111	H	0.904000	0.389248	0.914076
	H112	H	0.092342	0.915936	0.618967
	H113	H	0.093513	0.101084	0.388222
	H114	H	0.906649	0.097927	0.618841
	H115	H	0.901685	0.913276	0.387221
	H116	H	0.618522	0.093420	0.896143
	H117	H	0.380800	0.100684	0.100018
	H118	H	0.613749	0.913517	0.088609
	H119	H	0.384255	0.914551	0.916434
	C120	C	0.377416	0.014690	0.626525
	C121	C	0.620270	0.997797	0.625623
	C122	C	0.620554	0.014865	0.382093
	C123	C	0.378783	0.997616	0.383180
	C124	C	0.621972	0.383865	0.012729
	C125	C	0.620833	0.628011	0.996729
	C126	C	0.376598	0.629117	0.012349
	C127	C	0.377983	0.385266	0.996530
	C128	C	0.007159	0.627506	0.383089
	C129	C	0.990477	0.627455	0.626182
	C130	C	0.006651	0.384444	0.625919
	C131	C	0.990491	0.385277	0.383151
	C132	C	0.877661	0.515120	0.126485
	C133	C	0.120576	0.497905	0.125912
	C134	C	0.120763	0.514455	0.882091
	C135	C	0.878137	0.498092	0.882885
	C136	C	0.121040	0.884095	0.511930
	C137	C	0.121262	0.128545	0.496200
	C138	C	0.877553	0.127368	0.511780
	C139	C	0.877107	0.884094	0.495548
	C140	C	0.507444	0.127927	0.882691
	C141	C	0.491009	0.127110	0.125445
	C142	C	0.507823	0.884653	0.126184
	C143	C	0.491237	0.885554	0.883396
	C144	C	0.379964	0.891044	0.681449
	C145	C	0.618214	0.121322	0.680126
	C146	C	0.618698	0.891387	0.327616
	C147	C	0.380337	0.121029	0.327858
	C148	C	0.676995	0.387826	0.889902
	C149	C	0.674434	0.623756	0.119864
	C150	C	0.323149	0.625768	0.889032
	C151	C	0.322810	0.388450	0.119371
	C152	C	0.883019	0.682124	0.386552
	C153	C	0.113876	0.682466	0.623133
	C154	C	0.882943	0.329409	0.623348
	C155	C	0.114391	0.330857	0.385984
	C156	C	0.883197	0.386824	0.681368
	C157	C	0.114182	0.624738	0.680275
	C158	C	0.883558	0.625268	0.328475
	C159	C	0.114022	0.387108	0.327362
	C160	C	0.380689	0.684032	0.889363
	C161	C	0.617057	0.681636	0.119678
	C162	C	0.619396	0.329524	0.889673
	C163	C	0.379788	0.329687	0.119245
	C164	C	0.674311	0.890814	0.386527
	C165	C	0.674710	0.121401	0.621546
	C166	C	0.322863	0.890777	0.623310
	C167	C	0.324185	0.121556	0.386861
	C168	C	0.880107	0.391369	0.180973
	C169	C	0.118771	0.620935	0.180877
	C170	C	0.118953	0.390986	0.827295
	C171	C	0.879469	0.621151	0.827167
	C172	C	0.176048	0.887612	0.389273
	C173	C	0.175384	0.124313	0.619260
	C174	C	0.823271	0.124437	0.388642
	C175	C	0.821886	0.887070	0.618488
	C176	C	0.383841	0.182809	0.885733
	C177	C	0.614920	0.181653	0.121773
	C178	C	0.383211	0.831155	0.122495
	C179	C	0.615316	0.830977	0.886533
	C180	C	0.383974	0.887167	0.181434
	C181	C	0.614801	0.124951	0.179918
	C182	C	0.383775	0.125887	0.827932
	C183	C	0.614748	0.887369	0.827622
	C184	C	0.880401	0.183016	0.389168
	C185	C	0.117988	0.183023	0.618963
	C186	C	0.118222	0.829788	0.389280
	C187	C	0.879409	0.829477	0.618813
	C188	C	0.175875	0.390833	0.885480
	C189	C	0.173856	0.621883	0.120944
	C190	C	0.824249	0.390818	0.122113
	C191	C	0.823292	0.621765	0.886215
	C192	C	0.399497	0.100812	0.604791
	C193	C	0.598037	0.911553	0.604648
	C194	C	0.598927	0.101305	0.403196
	C195	C	0.400979	0.911462	0.404759
	C196	C	0.599611	0.405484	0.098565
	C197	C	0.599424	0.606606	0.910399
	C198	C	0.397964	0.606971	0.098207
	C199	C	0.400529	0.407125	0.911156
	C200	C	0.093459	0.605195	0.405052
	C201	C	0.904076	0.605102	0.604416
	C202	C	0.092978	0.406721	0.603726
	C203	C	0.903954	0.407294	0.404881
	C204	C	0.899563	0.601496	0.105330
	C205	C	0.098360	0.411731	0.103974
	C206	C	0.098707	0.600566	0.903710
	C207	C	0.901147	0.412406	0.905483
	C208	C	0.098650	0.905963	0.597807
	C209	C	0.099274	0.106748	0.410432
	C210	C	0.899246	0.105208	0.597338
	C211	C	0.898958	0.905444	0.409825
	C212	C	0.593911	0.105496	0.904096
	C213	C	0.404542	0.104939	0.104069
	C214	C	0.594308	0.906254	0.104428
	C215	C	0.404961	0.907569	0.904761
	Zn216	Zn	0.499094	0.006720	0.754538
	Zn217	Zn	0.499487	0.006092	0.254308
	Zn218	Zn	0.750025	0.506676	0.004814
	Zn219	Zn	0.248706	0.506385	0.003855
	Zn220	Zn	-0.001478	0.755467	0.504359
	Zn221	Zn	-0.001854	0.257137	0.504137
	Zn222	Zn	-0.001067	0.506084	0.754497
	Zn223	Zn	-0.001042	0.506266	0.254396
	Zn224	Zn	0.499435	0.756734	0.004573
	Zn225	Zn	0.499385	0.255701	0.004342
	Zn226	Zn	0.748156	0.005870	0.503596
	Zn227	Zn	0.250053	0.005718	0.504123
	N228	N	0.412911	0.969066	0.683747
	N229	N	0.585097	0.043491	0.682641
	N230	N	0.586019	0.969524	0.324701
	N231	N	0.413672	0.043126	0.325609
	N232	N	0.678584	0.420763	0.967397
	N233	N	0.676748	0.590972	0.042193
	N234	N	0.320521	0.592506	0.966435
	N235	N	0.321613	0.422315	0.042246
	N236	N	0.960860	0.683597	0.419887
	N237	N	0.035837	0.684201	0.590056
	N238	N	0.960832	0.327893	0.589767
	N239	N	0.036721	0.329797	0.419945
	N240	N	0.961250	0.420194	0.683229
	N241	N	0.036299	0.591384	0.682227
	N242	N	0.961592	0.591830	0.326398
	N243	N	0.035935	0.420410	0.325742
	N244	N	0.413226	0.686125	0.967089
	N245	N	0.584264	0.684081	0.042155
	N246	N	0.585892	0.327083	0.967143
	N247	N	0.413522	0.327601	0.041895
	N248	N	0.675557	0.968485	0.419711
	N249	N	0.676085	0.043493	0.588437
	N250	N	0.321133	0.968455	0.590049
	N251	N	0.323033	0.043947	0.420631
	N252	N	0.912820	0.469512	0.183701
	N253	N	0.085986	0.542896	0.183775
	N254	N	0.085493	0.468799	0.825036
	N255	N	0.912687	0.543160	0.825034
	N256	N	0.177635	0.920592	0.466658
	N257	N	0.177622	0.091414	0.541779
	N258	N	0.821435	0.090326	0.465688
	N259	N	0.820365	0.920451	0.541052
	N260	N	0.461678	0.184026	0.919231
	N261	N	0.536928	0.183101	0.088664
	N262	N	0.461245	0.829028	0.089271
	N263	N	0.537578	0.829831	0.920640
	N264	N	0.462230	0.919817	0.183653
	N265	N	0.536687	0.091751	0.182334
	N266	N	0.461746	0.092488	0.825955
	N267	N	0.536748	0.920738	0.825689
	N268	N	0.913411	0.184797	0.466628
	N269	N	0.085111	0.185795	0.541458
	N270	N	0.084789	0.827350	0.466742
	N271	N	0.913101	0.827433	0.541525
	N272	N	0.177105	0.468630	0.918866
	N273	N	0.174894	0.544358	0.087306
	N274	N	0.822691	0.468640	0.088885
	N275	N	0.822642	0.544429	0.920356
	O276	O	-0.010417	0.006238	0.888222
	H277	H	-0.005802	0.008130	0.891069
	H278	H	-0.017141	0.016434	0.889921
	O279	O	0.437734	0.448580	0.534057
	H280	H	0.443205	0.461136	0.532126
	H281	H	0.435954	0.436325	0.535682
	O282	O	0.433548	0.442165	0.528610
	H283	H	0.416558	0.442059	0.528633
	H284	H	0.439471	0.435968	0.530891
	O285	O	0.424283	0.469340	0.542181
	H286	H	0.416037	0.473497	0.544225
	H287	H	0.429443	0.465232	0.535531
	O288	O	1.010935	0.035401	-0.107663
	H289	H	1.018517	0.043267	-0.116507
	H290	H	1.018630	0.029264	-0.111518
	O291	O	0.043178	1.009903	0.854654
	H292	H	0.043023	1.007808	0.845721
	H293	H	0.049638	0.997225	0.848572
	O294	O	0.433375	0.469621	0.554411
	H295	H	0.435022	0.468833	0.555116
	H296	H	0.429767	0.462919	0.552376
	O297	O	1.022090	-0.015236	-0.151736
	H298	H	1.007934	-0.020310	-0.142210
	H299	H	1.022732	-0.009985	-0.160671
