data_Molecule from HDF5

_cell_length_a		16.628181
_cell_length_b		16.629562
_cell_length_c		16.656736
_cell_angle_alpha	89.992342
_cell_angle_beta	90.106851
_cell_angle_gamma	89.880319
_symmetry_space_group_name_H-M	'P 1'
_symmetry_Int_Tables_number		1

loop_
	_symmetry_equiv_pos_as_xyz
	x,y,z

loop_
	_atom_site_label
	_atom_site_type_symbol
	_atom_site_fract_x
	_atom_site_fract_y
	_atom_site_fract_z
	H0	H	0.377494	0.855994	0.722664
	H1	H	0.597365	0.159926	0.720554
	H2	H	0.590014	0.849092	0.278882
	H3	H	0.387182	0.164621	0.278439
	H4	H	0.710794	0.401061	0.841543
	H5	H	0.711071	0.612339	0.149914
	H6	H	0.265419	0.612629	0.842647
	H7	H	0.266979	0.399104	0.151528
	H8	H	0.836008	0.730036	0.390887
	H9	H	0.145115	0.728436	0.603366
	H10	H	0.831627	0.288934	0.599233
	H11	H	0.141871	0.282637	0.389208
	H12	H	0.832803	0.404068	0.716002
	H13	H	0.145477	0.611437	0.718949
	H14	H	0.836119	0.615657	0.272463
	H15	H	0.142866	0.399568	0.274108
	H16	H	0.375014	0.733622	0.845792
	H17	H	0.593355	0.728113	0.150293
	H18	H	0.594977	0.284817	0.841298
	H19	H	0.385607	0.284820	0.151924
	H20	H	0.707361	0.849719	0.394803
	H21	H	0.711393	0.160959	0.602906
	H22	H	0.264077	0.854466	0.604544
	H23	H	0.270177	0.164322	0.393130
	H24	H	0.883161	0.353154	0.219848
	H25	H	0.095380	0.662019	0.218226
	H26	H	0.092591	0.350012	0.777487
	H27	H	0.884457	0.662195	0.776249
	H28	H	0.209979	0.902133	0.340784
	H29	H	0.209248	0.110257	0.651512
	H30	H	0.769618	0.109605	0.339639
	H31	H	0.766752	0.900281	0.650719
	H32	H	0.335086	0.230159	0.888993
	H33	H	0.648042	0.220709	0.094813
	H34	H	0.333089	0.786384	0.100720
	H35	H	0.641717	0.780888	0.887709
	H36	H	0.332817	0.902875	0.216363
	H37	H	0.647413	0.105325	0.211705
	H38	H	0.335635	0.115239	0.771710
	H39	H	0.640517	0.895513	0.770225
	H40	H	0.885054	0.225913	0.340660
	H41	H	0.090783	0.225158	0.653005
	H42	H	0.095299	0.784228	0.341799
	H43	H	0.885377	0.785732	0.652068
	H44	H	0.208977	0.350317	0.893987
	H45	H	0.211643	0.660384	0.102699
	H46	H	0.767439	0.351929	0.102833
	H47	H	0.767870	0.661880	0.892097
	H48	H	0.406662	0.115818	0.583705
	H49	H	0.572676	0.896032	0.587272
	H50	H	0.577536	0.119207	0.401075
	H51	H	0.395641	0.894058	0.406851
	H52	H	0.575497	0.425036	0.103665
	H53	H	0.579684	0.589593	0.885762
	H54	H	0.408311	0.597503	0.105540
	H55	H	0.402580	0.420433	0.887194
	H56	H	0.100860	0.591352	0.404386
	H57	H	0.881451	0.595641	0.578665
	H58	H	0.100108	0.416422	0.584169
	H59	H	0.875102	0.414969	0.404121
	H60	H	0.100201	0.417806	0.588819
	H61	H	0.879184	0.589730	0.590981
	H62	H	0.101543	0.598463	0.409607
	H63	H	0.879693	0.417942	0.413715
	H64	H	0.394853	0.598846	0.111072
	H65	H	0.571249	0.594348	0.885653
	H66	H	0.571946	0.406621	0.108289
	H67	H	0.401642	0.414765	0.885686
	H68	H	0.579922	0.118834	0.407627
	H69	H	0.574600	0.898509	0.578372
	H70	H	0.401193	0.115688	0.578037
	H71	H	0.398961	0.894520	0.401604
	H72	H	0.899502	0.616628	0.080281
	H73	H	0.080962	0.392661	0.089426
	H74	H	0.080544	0.618612	0.908563
	H75	H	0.904228	0.394832	0.902583
	H76	H	0.075305	0.917875	0.606085
	H77	H	0.071188	0.099200	0.385608
	H78	H	0.901269	0.098120	0.607811
	H79	H	0.901244	0.921686	0.387031
	H80	H	0.598743	0.094602	0.911076
	H81	H	0.374868	0.097983	0.091165
	H82	H	0.599649	0.922693	0.090439
	H83	H	0.382671	0.920319	0.921163
	H84	H	0.603923	0.910096	0.089630
	H85	H	0.374978	0.101566	0.086946
	H86	H	0.599521	0.090609	0.905952
	H87	H	0.381112	0.931422	0.906139
	H88	H	0.896753	0.098407	0.609902
	H89	H	0.083650	0.101688	0.381291
	H90	H	0.079151	0.917124	0.608457
	H91	H	0.903065	0.913338	0.385906
	H92	H	0.076239	0.618523	0.904601
	H93	H	0.070339	0.397361	0.086859
	H94	H	0.897392	0.619484	0.086479
	H95	H	0.900170	0.396210	0.912346
	H96	H	0.399749	0.119072	0.584758
	H97	H	0.580838	0.894251	0.583576
	H98	H	0.584216	0.120680	0.402477
	H99	H	0.401372	0.895928	0.406687
	H100	H	0.589118	0.414793	0.112083
	H101	H	0.579714	0.598902	0.882516
	H102	H	0.399352	0.586299	0.104952
	H103	H	0.396793	0.418513	0.885521
	H104	H	0.098446	0.591207	0.412821
	H105	H	0.875451	0.603192	0.588459
	H106	H	0.101753	0.413315	0.587434
	H107	H	0.878899	0.425066	0.405269
	H108	H	0.904210	0.616771	0.086076
	H109	H	0.078676	0.397175	0.078472
	H110	H	0.075413	0.616390	0.910080
	H111	H	0.894039	0.392436	0.904239
	H112	H	0.078588	0.921120	0.606313
	H113	H	0.080905	0.089586	0.386096
	H114	H	0.898517	0.093779	0.607413
	H115	H	0.895692	0.916595	0.383161
	H116	H	0.601593	0.096254	0.906102
	H117	H	0.377100	0.096598	0.086473
	H118	H	0.598583	0.915730	0.079309
	H119	H	0.375038	0.914508	0.905564
	C120	C	0.367917	0.015834	0.616741
	C121	C	0.609670	0.998221	0.616948
	C122	C	0.610379	0.015296	0.374519
	C123	C	0.367354	0.998621	0.373999
	C124	C	0.610905	0.384367	0.005056
	C125	C	0.609130	0.626939	0.987135
	C126	C	0.366747	0.627588	0.005594
	C127	C	0.368408	0.384758	0.988543
	C128	C	-0.001765	0.627406	0.376006
	C129	C	0.981503	0.628346	0.618699
	C130	C	-0.002820	0.385315	0.617789
	C131	C	0.979763	0.385685	0.375061
	C132	C	0.867598	0.515674	0.117663
	C133	C	0.109649	0.498099	0.117620
	C134	C	0.109609	0.514618	0.876043
	C135	C	0.867590	0.497777	0.875050
	C136	C	0.110734	0.885836	0.504529
	C137	C	0.110003	0.128402	0.487393
	C138	C	0.867371	0.127658	0.504846
	C139	C	0.868287	0.885358	0.488109
	C140	C	0.498086	0.127721	0.874374
	C141	C	0.480673	0.127305	0.117099
	C142	C	0.497446	0.884911	0.118069
	C143	C	0.480069	0.886139	0.875675
	C144	C	0.361664	0.901141	0.680160
	C145	C	0.614552	0.113691	0.679504
	C146	C	0.609905	0.896426	0.317658
	C147	C	0.367174	0.117083	0.316539
	C148	C	0.671271	0.382097	0.888359
	C149	C	0.670216	0.630292	0.103633
	C150	C	0.305008	0.631190	0.889748
	C151	C	0.307740	0.381402	0.105052
	C152	C	0.882128	0.689456	0.372542
	C153	C	0.098481	0.688444	0.621721
	C154	C	0.879024	0.327842	0.618146
	C155	C	0.095639	0.323757	0.371639
	C156	C	0.879466	0.385242	0.676192
	C157	C	0.098559	0.630442	0.679196
	C158	C	0.882385	0.632794	0.313770
	C159	C	0.096140	0.381888	0.314339
	C160	C	0.360360	0.690786	0.890939
	C161	C	0.611887	0.687712	0.103901
	C162	C	0.613307	0.324610	0.888056
	C163	C	0.366550	0.324554	0.105357
	C164	C	0.668123	0.896708	0.375082
	C165	C	0.671488	0.114210	0.621205
	C166	C	0.304896	0.900686	0.621715
	C167	C	0.309521	0.117168	0.374108
	C168	C	0.864845	0.399396	0.179172
	C169	C	0.112952	0.615215	0.177776
	C170	C	0.111213	0.396905	0.817260
	C171	C	0.865855	0.615392	0.816013
	C172	C	0.170404	0.883450	0.387631
	C173	C	0.169016	0.129036	0.605086
	C174	C	0.809037	0.128240	0.387026
	C175	C	0.807827	0.882756	0.604722
	C176	C	0.381665	0.189434	0.870922
	C177	C	0.600281	0.182702	0.114989
	C178	C	0.379926	0.826234	0.119314
	C179	C	0.595095	0.822022	0.870335
	C180	C	0.379744	0.884402	0.176568
	C181	C	0.600135	0.125254	0.173018
	C182	C	0.381784	0.132456	0.812671
	C183	C	0.594867	0.879299	0.812145
	C184	C	0.866360	0.186251	0.387300
	C185	C	0.110506	0.186268	0.605532
	C186	C	0.113419	0.824925	0.388191
	C187	C	0.866424	0.825675	0.605049
	C188	C	0.169169	0.397069	0.874940
	C189	C	0.170624	0.614509	0.120366
	C190	C	0.807673	0.398659	0.120862
	C191	C	0.807910	0.615148	0.873460
	C192	C	0.394985	0.095944	0.589929
	C193	C	0.583354	0.917324	0.590642
	C194	C	0.587229	0.097997	0.397255
	C195	C	0.391655	0.916321	0.398097
	C196	C	0.585908	0.408669	0.086688
	C197	C	0.583902	0.601619	0.905932
	C198	C	0.393337	0.601411	0.086161
	C199	C	0.393405	0.410284	0.907158
	C200	C	0.079135	0.601138	0.401767
	C201	C	0.899997	0.603285	0.593426
	C202	C	0.079313	0.409115	0.593873
	C203	C	0.898793	0.411861	0.400610
	C204	C	0.893030	0.596808	0.091629
	C205	C	0.083937	0.416964	0.092264
	C206	C	0.084486	0.596610	0.900563
	C207	C	0.892396	0.415881	0.899453
	C208	C	0.085180	0.911404	0.585883
	C209	C	0.085641	0.103865	0.405609
	C210	C	0.891729	0.103640	0.587251
	C211	C	0.893031	0.910232	0.406661
	C212	C	0.578753	0.101323	0.900108
	C213	C	0.397252	0.105164	0.094632
	C214	C	0.579412	0.909136	0.093505
	C215	C	0.400266	0.914212	0.903084
	Zn216	Zn	0.488794	0.006696	0.745814
	Zn217	Zn	0.489114	0.006994	0.246173
	Zn218	Zn	0.738780	0.506145	-0.003472
	Zn219	Zn	0.238928	0.505646	-0.002802
	Zn220	Zn	-0.009854	0.756550	0.496844
	Zn221	Zn	-0.011889	0.256768	0.496657
	Zn222	Zn	-0.010645	0.506390	0.746643
	Zn223	Zn	-0.010786	0.507549	0.246411
	Zn224	Zn	0.487703	0.755955	-0.003991
	Zn225	Zn	0.489476	0.255786	-0.003910
	Zn226	Zn	0.738671	0.006522	0.496443
	Zn227	Zn	0.239182	0.007458	0.495258
	N228	N	0.400157	0.973808	0.677330
	N229	N	0.576984	0.040262	0.677331
	N230	N	0.574973	0.971288	0.316861
	N231	N	0.402355	0.042229	0.316195
	N232	N	0.670071	0.418518	0.962319
	N233	N	0.668848	0.593432	0.029942
	N234	N	0.308663	0.592452	0.962141
	N235	N	0.308865	0.418417	0.031353
	N236	N	0.955121	0.686247	0.410712
	N237	N	0.024629	0.687475	0.584913
	N238	N	0.953374	0.327556	0.582800
	N239	N	0.022284	0.326013	0.408816
	N240	N	0.954114	0.420168	0.676375
	N241	N	0.024578	0.593912	0.677783
	N242	N	0.955705	0.595014	0.315777
	N243	N	0.022950	0.419917	0.316200
	N244	N	0.398309	0.688657	0.963979
	N245	N	0.574847	0.686080	0.030301
	N246	N	0.576471	0.325707	0.961699
	N247	N	0.403412	0.326363	0.031807
	N248	N	0.668829	0.971687	0.409523
	N249	N	0.668664	0.041295	0.583033
	N250	N	0.308679	0.972992	0.582660
	N251	N	0.309031	0.042164	0.408778
	N252	N	0.901512	0.473217	0.177204
	N253	N	0.075784	0.541799	0.176349
	N254	N	0.075063	0.471157	0.817735
	N255	N	0.902405	0.541374	0.816876
	N256	N	0.168910	0.920524	0.461179
	N257	N	0.169191	0.094168	0.530452
	N258	N	0.809292	0.092798	0.461457
	N259	N	0.808844	0.919306	0.530963
	N260	N	0.454910	0.186870	0.908635
	N261	N	0.524916	0.184130	0.081072
	N262	N	0.454087	0.826500	0.083381
	N263	N	0.522685	0.826093	0.909355
	N264	N	0.454068	0.920288	0.176056
	N265	N	0.524578	0.091907	0.174810
	N266	N	0.455224	0.094866	0.814614
	N267	N	0.522364	0.918604	0.815368
	N268	N	0.901929	0.186063	0.461752
	N269	N	0.074799	0.186493	0.531117
	N270	N	0.076957	0.826291	0.462047
	N271	N	0.903254	0.826964	0.531503
	N272	N	0.168268	0.471318	0.910841
	N273	N	0.168997	0.540730	0.083709
	N274	N	0.809033	0.472166	0.083435
	N275	N	0.808891	0.540962	0.909606
	O276	O	0.296635	1.315948	0.309720
	H277	H	0.314157	1.316849	0.308885
	H278	H	0.293701	1.332991	0.315692
	O279	O	-0.216211	0.214046	-0.030240
	H280	H	-0.219552	0.220987	-0.016013
	H281	H	-0.188430	0.225980	-0.015255
	O282	O	0.930360	0.213183	1.082201
	H283	H	0.955322	0.216394	1.077544
	H284	H	0.953906	0.209681	1.090364
	O285	O	0.651741	0.430319	0.587602
	H286	H	0.640457	0.413459	0.576172
	H287	H	0.650434	0.429193	0.581840
	O288	O	0.942358	1.046814	0.115165
	H289	H	0.942113	1.027429	0.127603
	H290	H	0.950304	1.031646	0.111061
	O291	O	0.269453	0.533345	0.276173
	H292	H	0.269261	0.541965	0.279529
	H293	H	0.254331	0.541295	0.255123
	O294	O	0.769672	-0.212019	1.033072
	H295	H	0.767465	-0.214861	1.043182
	H296	H	0.756393	-0.227883	1.042843
	O297	O	0.806309	0.197547	0.181900
	H298	H	0.821063	0.165178	0.170690
	H299	H	0.829354	0.194200	0.156605
	O300	O	0.204168	0.219160	1.025445
	H301	H	0.205374	0.219816	1.047848
	H302	H	0.215120	0.233906	1.035174
	O303	O	0.475159	0.671277	0.646262
	H304	H	0.502885	0.669660	0.647111
	H305	H	0.493564	0.678787	0.648795
	O306	O	0.527138	0.281965	0.267910
	H307	H	0.535590	0.251390	0.237395
	H308	H	0.565823	0.291845	0.271347
	O309	O	0.471529	0.310930	0.409944
	H310	H	0.481665	0.312354	0.399242
	H311	H	0.473708	0.302583	0.394945
	O312	O	0.424454	0.747406	0.554249
	H313	H	0.437973	0.751487	0.553366
	H314	H	0.429573	0.741399	0.572345
	O315	O	1.024672	0.792378	0.782386
	H316	H	1.017874	0.780526	0.771789
	H317	H	1.012165	0.793210	0.785451
	O318	O	0.488989	0.594047	0.431517
	H319	H	0.501013	0.583552	0.432182
	H320	H	0.506837	0.610280	0.435855
	O321	O	0.316041	0.476034	0.691960
	H322	H	0.310355	0.482219	0.701953
	H323	H	0.305115	0.464079	0.700041
	O324	O	1.175541	0.834928	0.164592
	H325	H	1.177189	0.824806	0.174124
	H326	H	1.191652	0.828367	0.154792
	O327	O	0.208202	0.047175	1.213542
	H328	H	0.226737	0.035918	1.224771
	H329	H	0.198129	0.037746	1.217048
	O330	O	0.710091	0.484426	0.276585
	H331	H	0.704687	0.469037	0.279072
	H332	H	0.722997	0.475049	0.257478
	O333	O	0.507467	0.503290	0.521357
	H334	H	0.502861	0.506575	0.525152
	H335	H	0.502993	0.509070	0.529088
	O336	O	0.556771	0.562502	0.274530
	H337	H	0.549282	0.561543	0.289281
	H338	H	0.555592	0.538552	0.269147
	O339	O	1.193331	-0.194222	0.794910
	H340	H	1.165192	-0.184555	0.803392
	H341	H	1.183454	-0.168267	0.800092
	O342	O	-0.015986	0.077755	-0.066615
	H343	H	-0.024675	0.082759	-0.066880
	H344	H	-0.027147	0.076044	-0.071133
	O345	O	-0.303766	0.557645	1.694935
	H346	H	-0.288810	0.546361	1.707598
	H347	H	-0.320791	0.554852	1.696080
	O348	O	-0.192302	0.082819	-0.026260
	H349	H	-0.195594	0.101708	-0.044576
	H350	H	-0.188274	0.086673	-0.005542
	O351	O	1.301398	0.697278	-0.313986
	H352	H	1.275672	0.727986	-0.289949
	H353	H	1.326091	0.701935	-0.323008
	O354	O	0.054674	-0.074475	1.200612
	H355	H	0.064470	-0.097481	1.201560
	H356	H	0.057119	-0.080334	1.204952
	O357	O	0.711414	0.294698	0.448800
	H358	H	0.690446	0.289841	0.450848
	H359	H	0.732904	0.271139	0.458539
	O360	O	0.121706	-0.214407	1.006857
	H361	H	0.130666	-0.206482	1.010610
	H362	H	0.139775	-0.221110	1.014493
	O363	O	0.204420	-0.066067	-0.180815
	H364	H	0.202761	-0.059319	-0.199316
	H365	H	0.210334	-0.065796	-0.200374
	O366	O	0.712919	0.729084	0.521815
	H367	H	0.721588	0.719517	0.540811
	H368	H	0.734736	0.749887	0.544719
	O369	O	0.410795	0.338205	0.706304
	H370	H	0.390037	0.333116	0.719697
	H371	H	0.396602	0.331523	0.705184
	O372	O	0.971939	1.059415	0.064736
	H373	H	0.967648	1.058532	0.051985
	H374	H	0.979365	1.045063	0.070843
	O375	O	1.095190	0.090387	-0.171531
	H376	H	1.089485	0.091618	-0.159133
	H377	H	1.078634	0.091626	-0.184007
	O378	O	0.679246	0.700206	0.306618
	H379	H	0.671810	0.674971	0.326331
	H380	H	0.652227	0.687466	0.321605
	O381	O	-0.233150	0.968248	1.223707
	H382	H	-0.251894	0.959267	1.235203
	H383	H	-0.241381	0.943472	1.231468
	O384	O	0.956547	0.227571	0.775001
	H385	H	0.948005	0.256444	0.750581
	H386	H	0.921357	0.220780	0.781281
	O387	O	1.200257	1.019215	-0.045560
	H388	H	1.199531	1.027219	-0.040127
	H389	H	1.205328	1.026073	-0.042994
	O390	O	0.777140	0.796161	0.207169
	H391	H	0.746379	0.763851	0.239827
	H392	H	0.796565	0.799121	0.195059
	O393	O	0.508628	0.447347	0.701136
	H394	H	0.498818	0.451209	0.696253
	H395	H	0.486360	0.438681	0.703759
	O396	O	-0.049574	0.958400	1.069368
	H397	H	-0.044795	0.955724	1.064005
	H398	H	-0.053251	0.952869	1.070363
	O399	O	-0.138766	0.005818	1.090835
	H400	H	-0.127708	-0.003241	1.090168
	H401	H	-0.156417	0.001286	1.097455
	O402	O	0.276148	0.295411	0.707621
	H403	H	0.274416	0.316454	0.684618
	H404	H	0.254617	0.277679	0.722898
	O405	O	1.177948	0.192502	0.809956
	H406	H	1.158466	0.183665	0.830783
	H407	H	1.177060	0.176891	0.809047
	O408	O	0.060648	-0.051535	-0.069130
	H409	H	0.052317	-0.040194	-0.080728
	H410	H	0.067959	-0.053714	-0.070506
	O411	O	0.940385	0.808210	0.974505
	H412	H	0.950324	0.804945	0.989694
	H413	H	0.940347	0.815268	0.990419
	O414	O	0.393198	0.426996	0.432830
	H415	H	0.387435	0.439684	0.436087
	H416	H	0.401336	0.418139	0.437979
	O417	O	0.552176	0.288382	0.620080
	H418	H	0.528331	0.283747	0.634214
	H419	H	0.536977	0.288838	0.598042
	O420	O	0.452285	0.326867	0.536714
	H421	H	0.440938	0.323013	0.524193
	H422	H	0.440891	0.334982	0.546446
	O423	O	-0.059372	-0.143194	1.043087
	H424	H	-0.068395	-0.143343	1.036479
	H425	H	-0.057495	-0.157898	1.048989
	O426	O	0.558003	0.653402	0.617638
	H427	H	0.551640	0.633165	0.604559
	H428	H	0.578207	0.664829	0.618295
	O429	O	0.801436	0.895859	0.943539
	H430	H	0.798592	0.893222	0.953919
	H431	H	0.808029	0.893034	0.949990
	O432	O	0.697156	0.292572	0.282390
	H433	H	0.721814	0.285939	0.265263
	H434	H	0.715265	0.289455	0.304324
	O435	O	0.270227	0.727929	0.467481
	H436	H	0.271971	0.732701	0.470465
	H437	H	0.259731	0.740111	0.471446
	O438	O	0.491837	-0.274076	0.397055
	H439	H	0.479244	-0.277296	0.413686
	H440	H	0.520531	-0.283080	0.422172
	O441	O	0.019976	0.221840	0.208244
	H442	H	0.030288	0.227950	0.224151
	H443	H	0.018157	0.214786	0.214586
	O444	O	0.359240	0.486775	0.390236
	H445	H	0.366725	0.479911	0.384791
	H446	H	0.351394	0.506238	0.393751
	O447	O	0.206484	0.955572	0.992204
	H448	H	0.202485	0.961393	0.994300
	H449	H	0.209556	0.964533	0.985719
	O450	O	-0.280167	0.731639	0.718906
	H451	H	-0.251938	0.761748	0.752617
	H452	H	-0.278906	0.692273	0.726790
	O453	O	0.263643	0.286220	0.534664
	H454	H	0.249133	0.291038	0.530314
	H455	H	0.255405	0.273018	0.531094
	O456	O	-0.189473	-0.166022	0.827487
	H457	H	-0.190308	-0.136885	0.845583
	H458	H	-0.166679	-0.157312	0.848079
	O459	O	0.771894	1.022658	-0.224384
	H460	H	0.747019	1.039260	-0.243307
	H461	H	0.770429	1.049088	-0.206717
	O462	O	0.454346	0.613349	0.691517
	H463	H	0.440852	0.630899	0.697162
	H464	H	0.458555	0.620910	0.692925
	O465	O	1.261670	-0.266434	0.267948
	H466	H	1.267773	-0.275660	0.299854
	H467	H	1.295342	-0.266104	0.272086
	O468	O	0.488639	0.456430	0.286463
	H469	H	0.493146	0.435115	0.281951
	H470	H	0.476867	0.461249	0.291876
	O471	O	0.573135	0.500014	0.574642
	H472	H	0.569124	0.501584	0.592518
	H473	H	0.555307	0.501934	0.571815
	O474	O	0.451868	0.714015	0.284563
	H475	H	0.461472	0.707975	0.273445
	H476	H	0.466435	0.724139	0.296655
	O477	O	0.423723	0.521413	1.487307
	H478	H	0.428585	0.516513	1.492034
	H479	H	0.414436	0.523408	1.509175
	O480	O	0.654700	0.350691	0.691263
	H481	H	0.640592	0.363482	0.674206
	H482	H	0.625576	0.359383	0.681940
	O483	O	0.720926	0.528774	0.462975
	H484	H	0.714808	0.530165	0.463565
	H485	H	0.727212	0.521711	0.462775
	O486	O	0.780961	0.216782	0.784291
	H487	H	0.778415	0.220873	0.825502
	H488	H	0.748625	0.243778	0.758850
	O489	O	1.047252	0.818205	0.124531
	H490	H	1.049863	0.806787	0.132883
	H491	H	1.038082	0.817168	0.117348
	O492	O	0.026142	0.232306	-0.038263
	H493	H	0.034343	0.238729	-0.058855
	H494	H	0.036443	0.210970	-0.029664
	O495	O	-0.019996	0.980253	0.766440
	H496	H	-0.029700	0.970168	0.762452
	H497	H	-0.047170	0.992093	0.771141
	O498	O	1.192544	1.214447	1.199137
	H499	H	1.200373	1.170271	1.194679
	H500	H	1.180976	1.231634	1.218487
	O501	O	0.256704	0.548826	0.570289
	H502	H	0.254739	0.562778	0.573600
	H503	H	0.259040	0.548394	0.587701
