data_Molecule from HDF5

_cell_length_a		16.288793
_cell_length_b		16.137084
_cell_length_c		16.323266
_cell_angle_alpha	90.025138
_cell_angle_beta	90.255071
_cell_angle_gamma	89.712850
_symmetry_space_group_name_H-M	'P 1'
_symmetry_Int_Tables_number		1

loop_
	_symmetry_equiv_pos_as_xyz
	x,y,z

loop_
	_atom_site_label
	_atom_site_type_symbol
	_atom_site_fract_x
	_atom_site_fract_y
	_atom_site_fract_z
	H0	H	0.403667	0.833004	0.712268
	H1	H	0.600624	0.161546	0.714760
	H2	H	0.600243	0.832743	0.285690
	H3	H	0.400153	0.162178	0.284018
	H4	H	0.716007	0.396974	0.835020
	H5	H	0.718795	0.596852	0.160985
	H6	H	0.284836	0.597828	0.835926
	H7	H	0.286839	0.398030	0.161282
	H8	H	0.837535	0.710983	0.400460
	H9	H	0.166082	0.709357	0.598575
	H10	H	0.837106	0.286052	0.593903
	H11	H	0.165565	0.281267	0.402641
	H12	H	0.838582	0.397575	0.713509
	H13	H	0.163760	0.595899	0.716282
	H14	H	0.839076	0.598127	0.281073
	H15	H	0.165289	0.393892	0.282528
	H16	H	0.402756	0.711627	0.835469
	H17	H	0.600517	0.710969	0.162402
	H18	H	0.598970	0.282177	0.835066
	H19	H	0.405753	0.284324	0.162579
	H20	H	0.715657	0.832580	0.401355
	H21	H	0.713669	0.163013	0.597243
	H22	H	0.290506	0.832238	0.597099
	H23	H	0.284849	0.161137	0.399567
	H24	H	0.903870	0.332882	0.211733
	H25	H	0.102520	0.660695	0.214837
	H26	H	0.100435	0.332721	0.785496
	H27	H	0.900616	0.661846	0.784182
	H28	H	0.217816	0.895745	0.336777
	H29	H	0.218507	0.096992	0.662109
	H30	H	0.784699	0.097683	0.336043
	H31	H	0.786834	0.897757	0.662378
	H32	H	0.337126	0.210561	0.901558
	H33	H	0.666640	0.208382	0.096370
	H34	H	0.336854	0.785410	0.094239
	H35	H	0.665368	0.781820	0.901479
	H36	H	0.338088	0.897931	0.212820
	H37	H	0.664225	0.097572	0.215621
	H38	H	0.338466	0.098489	0.781272
	H39	H	0.664438	0.896503	0.784516
	H40	H	0.903325	0.211061	0.335194
	H41	H	0.099812	0.210929	0.663055
	H42	H	0.100056	0.782186	0.335818
	H43	H	0.905983	0.783872	0.663564
	H44	H	0.216479	0.333268	0.899401
	H45	H	0.213971	0.662354	0.097799
	H46	H	0.790606	0.331723	0.095630
	H47	H	0.786084	0.661179	0.898322
	H48	H	0.402633	0.117143	0.590882
	H49	H	0.593689	0.880792	0.588225
	H50	H	0.594974	0.115143	0.410409
	H51	H	0.413057	0.882408	0.411190
	H52	H	0.599955	0.399986	0.117072
	H53	H	0.589946	0.590750	0.883385
	H54	H	0.414615	0.583085	0.110349
	H55	H	0.413572	0.409839	0.885511
	H56	H	0.112433	0.578133	0.416700
	H57	H	0.885610	0.586033	0.595022
	H58	H	0.116912	0.408874	0.592582
	H59	H	0.888181	0.410742	0.408181
	H60	H	0.119884	0.401975	0.597870
	H61	H	0.883188	0.596194	0.591711
	H62	H	0.120849	0.583073	0.390120
	H63	H	0.883959	0.407658	0.396614
	H64	H	0.411230	0.600441	0.117025
	H65	H	0.597372	0.592199	0.880338
	H66	H	0.599743	0.407297	0.114567
	H67	H	0.410027	0.397149	0.880621
	H68	H	0.595852	0.117622	0.402879
	H69	H	0.597997	0.878999	0.592057
	H70	H	0.413659	0.115761	0.596750
	H71	H	0.403714	0.877628	0.406025
	H72	H	0.909845	0.611963	0.083941
	H73	H	0.098498	0.376348	0.097508
	H74	H	0.097044	0.615169	0.912141
	H75	H	0.905784	0.379781	0.910043
	H76	H	0.095937	0.902018	0.616412
	H77	H	0.091222	0.089973	0.383243
	H78	H	0.912400	0.098079	0.615656
	H79	H	0.902169	0.912556	0.384308
	H80	H	0.615120	0.087263	0.914267
	H81	H	0.387964	0.087394	0.084095
	H82	H	0.620474	0.900504	0.097334
	H83	H	0.383740	0.907968	0.898661
	H84	H	0.616678	0.901196	0.086998
	H85	H	0.384252	0.085250	0.098883
	H86	H	0.616692	0.081264	0.900865
	H87	H	0.382976	0.899187	0.905268
	H88	H	0.898100	0.092476	0.618686
	H89	H	0.096545	0.088941	0.383110
	H90	H	0.099342	0.903590	0.616531
	H91	H	0.915841	0.905056	0.385289
	H92	H	0.094964	0.618624	0.900095
	H93	H	0.086936	0.382012	0.089963
	H94	H	0.904453	0.617375	0.093083
	H95	H	0.906577	0.377617	0.899814
	H96	H	0.412764	0.111999	0.584425
	H97	H	0.592541	0.879652	0.594352
	H98	H	0.588499	0.114473	0.405462
	H99	H	0.413327	0.879210	0.399599
	H100	H	0.593308	0.403299	0.114101
	H101	H	0.594538	0.584576	0.883270
	H102	H	0.398408	0.587569	0.117326
	H103	H	0.400650	0.407918	0.881369
	H104	H	0.122125	0.603776	0.409073
	H105	H	0.887241	0.589056	0.585739
	H106	H	0.119176	0.400948	0.588660
	H107	H	0.884609	0.398844	0.405210
	H108	H	0.915523	0.614581	0.092612
	H109	H	0.099866	0.380428	0.083324
	H110	H	0.085061	0.612830	0.906860
	H111	H	0.914878	0.380526	0.905205
	H112	H	0.096307	0.905808	0.615501
	H113	H	0.093169	0.084680	0.385008
	H114	H	0.909634	0.082926	0.612868
	H115	H	0.903149	0.897654	0.380452
	H116	H	0.620916	0.095627	0.903814
	H117	H	0.382874	0.099390	0.091733
	H118	H	0.616299	0.910490	0.093941
	H119	H	0.387299	0.908188	0.909410
	C120	C	0.381517	0.005924	0.619273
	C121	C	0.623120	0.988966	0.620628
	C122	C	0.622243	0.006360	0.378091
	C123	C	0.379690	0.988555	0.376785
	C124	C	0.624816	0.374619	0.007014
	C125	C	0.623148	0.618137	0.990146
	C126	C	0.378840	0.619710	0.007501
	C127	C	0.380247	0.376277	0.990383
	C128	C	0.010494	0.618255	0.376444
	C129	C	0.993263	0.618408	0.620630
	C130	C	0.010422	0.375734	0.620559
	C131	C	0.993627	0.375624	0.376263
	C132	C	0.881523	0.505707	0.118617
	C133	C	0.123536	0.488404	0.119663
	C134	C	0.122036	0.506262	0.877665
	C135	C	0.879528	0.488112	0.876026
	C136	C	0.124763	0.874524	0.508018
	C137	C	0.122994	0.117675	0.491320
	C138	C	0.878391	0.119904	0.507688
	C139	C	0.879969	0.876342	0.491453
	C140	C	0.509652	0.118275	0.876930
	C141	C	0.493192	0.119204	0.120679
	C142	C	0.509645	0.875498	0.120475
	C143	C	0.492913	0.875551	0.876790
	C144	C	0.383436	0.882100	0.674752
	C145	C	0.620651	0.112736	0.676234
	C146	C	0.620635	0.882115	0.323230
	C147	C	0.380510	0.112614	0.321671
	C148	C	0.678694	0.376601	0.883864
	C149	C	0.679944	0.616692	0.112572
	C150	C	0.322832	0.618209	0.884693
	C151	C	0.325107	0.378081	0.112882
	C152	C	0.886926	0.673901	0.379168
	C153	C	0.116712	0.672432	0.618697
	C154	C	0.886298	0.322531	0.615967
	C155	C	0.116905	0.319135	0.380630
	C156	C	0.886987	0.377937	0.675039
	C157	C	0.115637	0.616215	0.677345
	C158	C	0.887603	0.617427	0.320225
	C159	C	0.116854	0.375377	0.321381
	C160	C	0.381719	0.674268	0.884244
	C161	C	0.620947	0.673326	0.113367
	C162	C	0.620855	0.319264	0.884001
	C163	C	0.384154	0.321534	0.113627
	C164	C	0.677813	0.881969	0.380589
	C165	C	0.676622	0.113528	0.617899
	C166	C	0.327599	0.881631	0.617162
	C167	C	0.323330	0.112160	0.379111
	C168	C	0.883800	0.381798	0.173936
	C169	C	0.121637	0.612053	0.176124
	C170	C	0.120371	0.382072	0.823125
	C171	C	0.880712	0.612375	0.821199
	C172	C	0.179990	0.876137	0.385535
	C173	C	0.179500	0.116717	0.613715
	C174	C	0.822703	0.118008	0.384779
	C175	C	0.825118	0.877846	0.614030
	C176	C	0.386411	0.173644	0.880010
	C177	C	0.617069	0.172175	0.117524
	C178	C	0.386185	0.821814	0.116115
	C179	C	0.616330	0.819893	0.880790
	C180	C	0.386742	0.877984	0.174851
	C181	C	0.615823	0.117255	0.177062
	C182	C	0.387004	0.117600	0.820492
	C183	C	0.615910	0.876821	0.822367
	C184	C	0.882252	0.173634	0.384011
	C185	C	0.120476	0.173336	0.614170
	C186	C	0.121304	0.819641	0.384959
	C187	C	0.884439	0.821395	0.614466
	C188	C	0.178001	0.382382	0.879932
	C189	C	0.177320	0.612767	0.117935
	C190	C	0.827503	0.381278	0.116026
	C191	C	0.823932	0.612150	0.878215
	C192	C	0.403378	0.092474	0.597166
	C193	C	0.601219	0.902108	0.598218
	C194	C	0.599785	0.093346	0.399901
	C195	C	0.403014	0.902090	0.399125
	C196	C	0.603865	0.396853	0.092849
	C197	C	0.600725	0.595647	0.904514
	C198	C	0.401397	0.597006	0.092708
	C199	C	0.401654	0.398481	0.904778
	C200	C	0.096272	0.595106	0.398852
	C201	C	0.907407	0.596490	0.597643
	C202	C	0.096252	0.397315	0.599406
	C203	C	0.907906	0.398927	0.397242
	C204	C	0.903449	0.592315	0.096466
	C205	C	0.101485	0.401826	0.096990
	C206	C	0.099125	0.593043	0.899915
	C207	C	0.902514	0.401715	0.898236
	C208	C	0.103346	0.897062	0.594094
	C209	C	0.100452	0.094747	0.405836
	C210	C	0.900236	0.097925	0.593473
	C211	C	0.900812	0.898372	0.405558
	C212	C	0.595433	0.094775	0.899623
	C213	C	0.407302	0.097229	0.098332
	C214	C	0.595533	0.897418	0.099138
	C215	C	0.406797	0.898390	0.898094
	Zn216	Zn	0.501529	-0.003068	0.747866
	Zn217	Zn	0.501321	-0.002512	0.249169
	Zn218	Zn	0.753343	0.496640	-0.002278
	Zn219	Zn	0.250493	0.497845	-0.001255
	Zn220	Zn	0.002218	0.746805	0.499001
	Zn221	Zn	0.001037	0.247301	0.499311
	Zn222	Zn	0.001048	0.496748	0.749366
	Zn223	Zn	0.002571	0.497229	0.246843
	Zn224	Zn	0.501424	0.747078	-0.001149
	Zn225	Zn	0.502258	0.247204	-0.001139
	Zn226	Zn	0.750239	-0.002253	0.499310
	Zn227	Zn	0.252876	-0.003344	0.499681
	N228	N	0.416556	0.960235	0.675962
	N229	N	0.588091	0.034121	0.677957
	N230	N	0.586668	0.960447	0.321651
	N231	N	0.414961	0.034631	0.320223
	N232	N	0.681550	0.410144	0.961367
	N233	N	0.681605	0.583214	0.034854
	N234	N	0.321031	0.584745	0.962148
	N235	N	0.322653	0.411428	0.035293
	N236	N	0.964270	0.674499	0.413431
	N237	N	0.039588	0.673958	0.583918
	N238	N	0.963752	0.321022	0.582672
	N239	N	0.039502	0.319012	0.413832
	N240	N	0.965093	0.410072	0.678316
	N241	N	0.037850	0.583419	0.678637
	N242	N	0.965451	0.583832	0.318184
	N243	N	0.039302	0.409755	0.318354
	N244	N	0.415806	0.675455	0.961551
	N245	N	0.586383	0.674323	0.036307
	N246	N	0.587845	0.318120	0.961451
	N247	N	0.417809	0.320229	0.036448
	N248	N	0.679038	0.960337	0.413674
	N249	N	0.678208	0.035408	0.584046
	N250	N	0.326002	0.959747	0.583448
	N251	N	0.322791	0.034033	0.412778
	N252	N	0.916930	0.460077	0.175349
	N253	N	0.088831	0.533596	0.177170
	N254	N	0.086121	0.460126	0.821842
	N255	N	0.914531	0.534213	0.819666
	N256	N	0.182096	0.909686	0.463124
	N257	N	0.181362	0.083012	0.536298
	N258	N	0.820319	0.085146	0.462583
	N259	N	0.822407	0.911593	0.536618
	N260	N	0.463844	0.174337	0.914114
	N261	N	0.539801	0.173581	0.083078
	N262	N	0.463610	0.820199	0.082871
	N263	N	0.538821	0.819075	0.913965
	N264	N	0.464559	0.910775	0.177784
	N265	N	0.537846	0.084703	0.178989
	N266	N	0.464671	0.083774	0.818749
	N267	N	0.538177	0.910684	0.819861
	N268	N	0.915951	0.175071	0.461361
	N269	N	0.085651	0.173777	0.537036
	N270	N	0.087701	0.818531	0.462071
	N271	N	0.917973	0.820413	0.537105
	N272	N	0.179016	0.460852	0.913168
	N273	N	0.178618	0.534996	0.083617
	N274	N	0.825938	0.459352	0.082305
	N275	N	0.823188	0.533977	0.911682
	O276	O	1.018981	1.032241	0.034171
	H277	H	1.013744	1.043673	0.035489
	H278	H	1.018751	1.030076	0.034196
	O279	O	0.037954	0.017382	0.034592
	H280	H	0.039626	0.017320	0.029453
	H281	H	0.039143	0.019990	0.030875
	O282	O	0.003628	0.031042	1.059759
	H283	H	0.009866	0.028943	1.061459
	H284	H	0.003196	0.038187	1.062513
	O285	O	0.491548	0.509883	0.458088
	H286	H	0.490849	0.504288	0.455070
	H287	H	0.499057	0.505981	0.455833
	O288	O	0.535139	0.543985	0.439863
	H289	H	0.534423	0.551023	0.443084
	H290	H	0.533419	0.542514	0.427283
	O291	O	0.498176	0.557705	0.490722
	H292	H	0.481198	0.558901	0.489817
	H293	H	0.498115	0.551642	0.491383
	O294	O	-0.051891	0.030387	-0.008338
	H295	H	-0.044363	0.017483	-0.012644
	H296	H	-0.042005	0.022245	-0.015990
	O297	O	0.569505	0.505562	0.495827
	H298	H	0.571549	0.509942	0.504707
	H299	H	0.569762	0.514096	0.499762
	O300	O	-0.046056	0.984025	1.055187
	H301	H	-0.041193	0.981714	1.060838
	H302	H	-0.057016	0.994073	1.060513
	O303	O	0.455336	0.499226	0.432891
	H304	H	0.460084	0.499933	0.426670
	H305	H	0.460322	0.493353	0.429422
	O306	O	0.000103	-0.003590	1.064997
	H307	H	-0.005206	0.000576	1.063439
	H308	H	0.001709	-0.012177	1.061288
	O309	O	0.982686	0.974019	1.058427
	H310	H	0.976469	0.975260	1.060322
	H311	H	0.971190	0.976758	1.062598
	O312	O	0.527574	0.467685	0.476653
	H313	H	0.528939	0.466472	0.481487
	H314	H	0.533194	0.464715	0.473997
	O315	O	0.507148	0.477277	0.460421
	H316	H	0.507522	0.484194	0.455964
	H317	H	0.504812	0.471990	0.459351
	O318	O	-0.054838	1.023017	0.046856
	H319	H	-0.064442	1.023675	0.050003
	H320	H	-0.048735	1.014640	0.046289
	O321	O	0.934817	0.927479	0.046300
	H322	H	0.933992	0.933420	0.048581
	H323	H	0.931245	0.934915	0.050709
