data_Molecule from HDF5

_cell_length_a		16.490639
_cell_length_b		16.328988
_cell_length_c		16.484345
_cell_angle_alpha	90.147341
_cell_angle_beta	89.983428
_cell_angle_gamma	89.962133
_symmetry_space_group_name_H-M	'P 1'
_symmetry_Int_Tables_number		1

loop_
	_symmetry_equiv_pos_as_xyz
	x,y,z

loop_
	_atom_site_label
	_atom_site_type_symbol
	_atom_site_fract_x
	_atom_site_fract_y
	_atom_site_fract_z
	H0	H	0.393839	0.836403	0.741065
	H1	H	0.615537	0.149220	0.739785
	H2	H	0.613686	0.834043	0.288774
	H3	H	0.395882	0.149106	0.289614
	H4	H	0.731281	0.380247	0.858424
	H5	H	0.729548	0.602708	0.169422
	H6	H	0.276710	0.602116	0.858142
	H7	H	0.275881	0.378448	0.168777
	H8	H	0.849821	0.718009	0.404847
	H9	H	0.160512	0.718638	0.623867
	H10	H	0.847638	0.268656	0.621466
	H11	H	0.161548	0.266573	0.405852
	H12	H	0.848434	0.383562	0.737937
	H13	H	0.159181	0.605269	0.742365
	H14	H	0.850217	0.603571	0.287647
	H15	H	0.160169	0.378327	0.286494
	H16	H	0.394790	0.715567	0.856935
	H17	H	0.611443	0.716104	0.170329
	H18	H	0.612788	0.267249	0.857392
	H19	H	0.398385	0.269745	0.171706
	H20	H	0.732154	0.835841	0.401435
	H21	H	0.729609	0.149491	0.623220
	H22	H	0.279055	0.836014	0.625908
	H23	H	0.282692	0.150280	0.407062
	H24	H	0.893753	0.335181	0.239861
	H25	H	0.114969	0.648219	0.239753
	H26	H	0.113999	0.334965	0.787109
	H27	H	0.896059	0.649176	0.790205
	H28	H	0.233254	0.878210	0.359245
	H29	H	0.230473	0.102947	0.669408
	H30	H	0.778373	0.102285	0.357755
	H31	H	0.777811	0.880933	0.668944
	H32	H	0.347880	0.215477	0.906829
	H33	H	0.662232	0.214933	0.121241
	H34	H	0.348374	0.765679	0.121762
	H35	H	0.659663	0.763753	0.902851
	H36	H	0.348968	0.879329	0.240118
	H37	H	0.661076	0.099912	0.238969
	H38	H	0.349863	0.103499	0.786804
	H39	H	0.659417	0.879154	0.786444
	H40	H	0.897382	0.214709	0.355884
	H41	H	0.111264	0.215575	0.670544
	H42	H	0.114336	0.765272	0.358300
	H43	H	0.896571	0.767470	0.670104
	H44	H	0.227181	0.333320	0.904263
	H45	H	0.229670	0.647981	0.123478
	H46	H	0.778366	0.335641	0.124105
	H47	H	0.780568	0.649265	0.905445
	H48	H	0.416044	0.104865	0.598530
	H49	H	0.590120	0.880594	0.599469
	H50	H	0.587882	0.104724	0.420959
	H51	H	0.416487	0.880506	0.433863
	H52	H	0.600354	0.411159	0.126167
	H53	H	0.590122	0.577799	0.902279
	H54	H	0.419749	0.573166	0.122693
	H55	H	0.413078	0.407810	0.902025
	H56	H	0.115342	0.578305	0.430197
	H57	H	0.895514	0.574676	0.599862
	H58	H	0.113915	0.406489	0.595807
	H59	H	0.890868	0.405028	0.420918
	H60	H	0.116689	0.409733	0.605856
	H61	H	0.891877	0.579088	0.605027
	H62	H	0.115155	0.573649	0.427201
	H63	H	0.893584	0.400291	0.429549
	H64	H	0.418419	0.580799	0.124988
	H65	H	0.594472	0.577497	0.900921
	H66	H	0.584010	0.408143	0.120987
	H67	H	0.420272	0.405060	0.903537
	H68	H	0.587877	0.100607	0.433014
	H69	H	0.591827	0.880026	0.599366
	H70	H	0.419201	0.105860	0.603522
	H71	H	0.413537	0.875080	0.421574
	H72	H	0.918334	0.606906	0.108197
	H73	H	0.086764	0.381187	0.098286
	H74	H	0.082796	0.603844	0.921459
	H75	H	0.917244	0.377019	0.921557
	H76	H	0.093829	0.903830	0.626145
	H77	H	0.091555	0.084025	0.399886
	H78	H	0.918544	0.085164	0.626918
	H79	H	0.919098	0.907189	0.403490
	H80	H	0.617076	0.075989	0.922357
	H81	H	0.390492	0.084017	0.104867
	H82	H	0.613495	0.910464	0.101784
	H83	H	0.395039	0.909365	0.928403
	H84	H	0.618381	0.901634	0.106024
	H85	H	0.395103	0.079699	0.096365
	H86	H	0.618180	0.082750	0.927010
	H87	H	0.392488	0.905928	0.923544
	H88	H	0.910453	0.077979	0.627378
	H89	H	0.099481	0.076492	0.400427
	H90	H	0.094333	0.909613	0.625387
	H91	H	0.918894	0.905833	0.402872
	H92	H	0.088766	0.599611	0.937721
	H93	H	0.093396	0.378433	0.097847
	H94	H	0.923954	0.600728	0.097180
	H95	H	0.921592	0.380336	0.928031
	H96	H	0.421556	0.103191	0.598812
	H97	H	0.590401	0.879419	0.600395
	H98	H	0.597700	0.107018	0.428268
	H99	H	0.425648	0.880915	0.423670
	H100	H	0.592877	0.395572	0.129546
	H101	H	0.592476	0.573927	0.903170
	H102	H	0.412636	0.575366	0.125568
	H103	H	0.414810	0.400236	0.899947
	H104	H	0.117769	0.578264	0.425153
	H105	H	0.893474	0.582150	0.598349
	H106	H	0.119188	0.398988	0.602875
	H107	H	0.895573	0.410134	0.427922
	H108	H	0.911302	0.605718	0.096726
	H109	H	0.090011	0.377370	0.104185
	H110	H	0.099725	0.608015	0.926292
	H111	H	0.913838	0.378406	0.928726
	H112	H	0.089518	0.907046	0.623712
	H113	H	0.089822	0.073211	0.404429
	H114	H	0.919303	0.075252	0.622109
	H115	H	0.917707	0.907319	0.403166
	H116	H	0.613907	0.076120	0.929981
	H117	H	0.393850	0.073726	0.105201
	H118	H	0.615182	0.901786	0.095615
	H119	H	0.393423	0.903268	0.929413
	C120	C	0.384229	0.000861	0.635334
	C121	C	0.626219	0.983452	0.635082
	C122	C	0.625705	0.000118	0.392377
	C123	C	0.383636	0.982716	0.392199
	C124	C	0.626860	0.369884	0.022614
	C125	C	0.625850	0.612196	1.005283
	C126	C	0.382318	0.611704	0.021541
	C127	C	0.382079	0.369858	1.005266
	C128	C	0.013654	0.612674	0.392708
	C129	C	0.996138	0.614177	0.636049
	C130	C	0.013406	0.370587	0.635335
	C131	C	0.996490	0.369828	0.391470
	C132	C	0.883359	0.500648	0.135420
	C133	C	0.125485	0.482565	0.135199
	C134	C	0.125281	0.500113	0.892750
	C135	C	0.883390	0.482994	0.892469
	C136	C	0.127354	0.870512	0.522802
	C137	C	0.126924	0.113131	0.505094
	C138	C	0.882325	0.113914	0.521951
	C139	C	0.883813	0.871525	0.505596
	C140	C	0.513644	0.113593	0.892018
	C141	C	0.496556	0.113025	0.135863
	C142	C	0.512685	0.869463	0.135602
	C143	C	0.495842	0.869891	0.891718
	C144	C	0.377657	0.883413	0.699632
	C145	C	0.632031	0.101588	0.698716
	C146	C	0.630734	0.881559	0.329745
	C147	C	0.378707	0.101513	0.329959
	C148	C	0.689761	0.364076	0.905438
	C149	C	0.688067	0.618687	0.122647
	C150	C	0.318701	0.618081	0.904631
	C151	C	0.318379	0.363359	0.122238
	C152	C	0.896788	0.676673	0.387667
	C153	C	0.113224	0.677817	0.641463
	C154	C	0.895368	0.308698	0.638854
	C155	C	0.114110	0.306892	0.387535
	C156	C	0.895595	0.366114	0.697196
	C157	C	0.112377	0.621132	0.700715
	C158	C	0.896965	0.619620	0.329000
	C159	C	0.113310	0.362915	0.327960
	C160	C	0.377704	0.674775	0.904090
	C161	C	0.629144	0.675324	0.122972
	C162	C	0.630419	0.307719	0.904604
	C163	C	0.379328	0.308784	0.123783
	C164	C	0.689736	0.882330	0.385986
	C165	C	0.689026	0.101791	0.640460
	C166	C	0.320549	0.883157	0.641669
	C167	C	0.322171	0.101913	0.388606
	C168	C	0.877630	0.382488	0.198531
	C169	C	0.131452	0.600893	0.198565
	C170	C	0.130531	0.382140	0.828794
	C171	C	0.878785	0.601740	0.830709
	C172	C	0.191685	0.862635	0.406109
	C173	C	0.189182	0.118933	0.622503
	C174	C	0.819907	0.118784	0.404530
	C175	C	0.819986	0.865217	0.622465
	C176	C	0.395600	0.175769	0.888272
	C177	C	0.614791	0.174788	0.139267
	C178	C	0.395406	0.806718	0.139491
	C179	C	0.612553	0.805148	0.885978
	C180	C	0.395978	0.863605	0.198618
	C181	C	0.614205	0.117544	0.198001
	C182	C	0.396528	0.119469	0.828679
	C183	C	0.612783	0.863176	0.828210
	C184	C	0.879183	0.175292	0.403725
	C185	C	0.129694	0.175242	0.623033
	C186	C	0.132237	0.806490	0.405377
	C187	C	0.879090	0.808490	0.623133
	C188	C	0.186922	0.381149	0.887415
	C189	C	0.188855	0.600625	0.140669
	C190	C	0.819889	0.382804	0.140975
	C191	C	0.820987	0.601598	0.888000
	C192	C	0.411158	0.082994	0.608024
	C193	C	0.598823	0.901419	0.607428
	C194	C	0.598790	0.082372	0.419491
	C195	C	0.410808	0.900356	0.418712
	C196	C	0.600237	0.397196	0.104268
	C197	C	0.599676	0.584620	0.923508
	C198	C	0.409307	0.584301	0.103039
	C199	C	0.408462	0.396654	0.923422
	C200	C	0.094845	0.584670	0.419912
	C201	C	0.914905	0.586604	0.608850
	C202	C	0.095299	0.397432	0.609267
	C203	C	0.914739	0.397320	0.418392
	C204	C	0.910079	0.582862	0.108537
	C205	C	0.097944	0.400641	0.108063
	C206	C	0.098155	0.582315	0.920364
	C207	C	0.909990	0.400243	0.918731
	C208	C	0.100167	0.898667	0.603866
	C209	C	0.101100	0.085815	0.423110
	C210	C	0.908464	0.087186	0.604024
	C211	C	0.910824	0.898931	0.424451
	C212	C	0.595106	0.086262	0.918769
	C213	C	0.414648	0.086643	0.109617
	C214	C	0.594318	0.896824	0.108620
	C215	C	0.414734	0.898029	0.919307
	Zn216	Zn	0.505347	-0.007937	0.763211
	Zn217	Zn	0.504840	-0.008424	0.264310
	Zn218	Zn	0.755282	0.491938	0.013788
	Zn219	Zn	0.253214	0.490823	0.013616
	Zn220	Zn	0.005512	0.742134	0.513994
	Zn221	Zn	0.004832	0.241512	0.513227
	Zn222	Zn	0.004502	0.491973	0.764677
	Zn223	Zn	0.005032	0.491494	0.263448
	Zn224	Zn	0.503669	0.740862	0.013249
	Zn225	Zn	0.504980	0.242000	0.014101
	Zn226	Zn	0.753960	-0.008229	0.513317
	Zn227	Zn	0.255823	-0.008041	0.513799
	N228	N	0.416415	0.957758	0.695926
	N229	N	0.593664	0.026824	0.695513
	N230	N	0.591423	0.955687	0.333918
	N231	N	0.415966	0.026103	0.331898
	N232	N	0.687665	0.402041	0.979830
	N233	N	0.686080	0.580259	0.048447
	N234	N	0.321265	0.579724	0.978801
	N235	N	0.319678	0.400364	0.047368
	N236	N	0.970379	0.672558	0.426444
	N237	N	0.039981	0.673632	0.601987
	N238	N	0.969772	0.311062	0.601265
	N239	N	0.040350	0.310913	0.426119
	N240	N	0.970162	0.403631	0.695422
	N241	N	0.038486	0.582253	0.697529
	N242	N	0.970723	0.580431	0.331996
	N243	N	0.038854	0.400961	0.330053
	N244	N	0.416450	0.670993	0.977825
	N245	N	0.590962	0.671366	0.048873
	N246	N	0.591920	0.311306	0.978416
	N247	N	0.417982	0.312465	0.049976
	N248	N	0.686610	0.956974	0.424614
	N249	N	0.685483	0.027439	0.601526
	N250	N	0.324382	0.957254	0.602486
	N251	N	0.325000	0.027119	0.426452
	N252	N	0.916495	0.456818	0.195186
	N253	N	0.092849	0.526375	0.195236
	N254	N	0.092962	0.457359	0.831895
	N255	N	0.916584	0.526736	0.833190
	N256	N	0.188975	0.901572	0.480180
	N257	N	0.187232	0.080734	0.548152
	N258	N	0.821603	0.081699	0.479232
	N259	N	0.822898	0.903834	0.548550
	N260	N	0.469440	0.172369	0.926802
	N261	N	0.540623	0.172026	0.101138
	N262	N	0.468953	0.810544	0.100668
	N263	N	0.538781	0.809059	0.924904
	N264	N	0.470175	0.902075	0.196084
	N265	N	0.539835	0.080008	0.195997
	N266	N	0.470964	0.081574	0.830814
	N267	N	0.539115	0.902450	0.831550
	N268	N	0.917346	0.172335	0.477830
	N269	N	0.091503	0.171700	0.549063
	N270	N	0.092916	0.811186	0.478781
	N271	N	0.917866	0.811951	0.549387
	N272	N	0.183608	0.455514	0.926442
	N273	N	0.185245	0.526065	0.102118
	N274	N	0.823104	0.457246	0.102540
	N275	N	0.823685	0.526604	0.925697
	O276	O	-0.199641	0.200380	-0.002923
	H277	H	-0.212480	0.221151	0.002997
	H278	H	-0.197243	0.190184	0.019183
	O279	O	1.064679	0.195603	0.938387
	H280	H	1.043577	0.191777	0.915175
	H281	H	1.039930	0.187877	0.938602
	O282	O	0.382266	0.467626	0.296210
	H283	H	0.384297	0.472411	0.299178
	H284	H	0.349300	0.470048	0.277595
	O285	O	0.659323	0.502042	0.296761
	H286	H	0.645217	0.508048	0.304032
	H287	H	0.682402	0.499053	0.264073
	O288	O	1.219510	1.055018	-0.052140
	H289	H	1.221332	1.032673	-0.023343
	H290	H	1.207565	1.090365	-0.039131
	O291	O	-0.013881	-0.221316	-0.126025
	H292	H	-0.016461	-0.243427	-0.118512
	H293	H	-0.036490	-0.221153	-0.107518
	O294	O	-0.206991	-0.222586	1.033911
	H295	H	-0.210187	-0.194341	1.032482
	H296	H	-0.241573	-0.239100	1.036094
	O297	O	0.456545	1.295910	-0.537746
	H298	H	0.448118	1.309334	-0.549970
	H299	H	0.451190	1.295022	-0.557048
	O300	O	0.717369	0.508466	0.727577
	H301	H	0.714391	0.517983	0.743246
	H302	H	0.720805	0.520453	0.746575
	O303	O	0.723557	0.612469	0.486167
	H304	H	0.730255	0.589200	0.507809
	H305	H	0.724719	0.603807	0.477894
	O306	O	0.653731	0.718451	0.503705
	H307	H	0.683412	0.749587	0.496704
	H308	H	0.675839	0.687578	0.493013
	O309	O	0.638863	0.550964	0.363855
	H310	H	0.623822	0.537333	0.351614
	H311	H	0.634890	0.562512	0.376956
	O312	O	-0.181609	1.136392	0.829171
	H313	H	-0.190452	1.144287	0.876062
	H314	H	-0.144399	1.147132	0.819765
	O315	O	0.182302	0.813109	0.836720
	H316	H	0.191410	0.864540	0.822744
	H317	H	0.146726	0.805603	0.837676
	O318	O	0.443780	0.559351	0.725397
	H319	H	0.413632	0.540095	0.726766
	H320	H	0.446639	0.554679	0.709666
	O321	O	-0.041223	0.196480	-0.193129
	H322	H	-0.026360	0.182173	-0.201896
	H323	H	-0.037131	0.191881	-0.219631
	O324	O	0.719146	0.277007	0.491553
	H325	H	0.714926	0.273573	0.511110
	H326	H	0.727580	0.251645	0.502038
	O327	O	0.287977	0.435312	0.453262
	H328	H	0.296170	0.450926	0.440783
	H329	H	0.288818	0.430305	0.431076
	O330	O	-0.060518	1.064857	0.213539
	H331	H	-0.028999	1.045698	0.198149
	H332	H	-0.040496	1.108740	0.220890
	O333	O	0.786232	0.049485	1.065907
	H334	H	0.774948	0.038528	1.097261
	H335	H	0.793081	0.049494	1.047988
	O336	O	0.078398	-0.199434	0.066973
	H337	H	0.060375	-0.191156	0.059990
	H338	H	0.094776	-0.207150	0.063310
	O339	O	0.562365	1.436268	0.731270
	H340	H	0.561850	1.418150	0.733370
	H341	H	0.541453	1.445677	0.726520
	O342	O	0.516827	0.486696	1.527387
	H343	H	0.539135	0.479261	1.526954
	H344	H	0.515203	0.479175	1.520334
	O345	O	0.782629	0.929958	-0.044298
	H346	H	0.796719	0.953306	-0.041755
	H347	H	0.792012	0.929929	-0.064475
	O348	O	0.521531	0.706446	0.723664
	H349	H	0.509015	0.712384	0.734175
	H350	H	0.507235	0.699930	0.743504
	O351	O	-0.003631	0.786321	0.897146
	H352	H	0.000253	0.788642	0.905132
	H353	H	-0.017632	0.781681	0.916070
	O354	O	-0.418694	0.601054	0.301182
	H355	H	-0.407486	0.582029	0.310856
	H356	H	-0.403118	0.608355	0.292246
	O357	O	0.076779	-0.059737	1.229671
	H358	H	0.060316	-0.082949	1.225919
	H359	H	0.092902	-0.069420	1.231984
	O360	O	0.277345	0.548128	0.577385
	H361	H	0.295286	0.545698	0.558513
	H362	H	0.269552	0.558602	0.558436
	O363	O	0.023187	0.210764	1.230302
	H364	H	0.073720	0.198160	1.220966
	H365	H	0.027665	0.247912	1.261317
	O366	O	0.954373	0.953449	-0.190470
	H367	H	0.966006	0.909480	-0.194265
	H368	H	0.917837	0.959219	-0.205328
	O369	O	0.446185	0.631288	0.552915
	H370	H	0.463571	0.617356	0.549724
	H371	H	0.447434	0.627353	0.570083
	O372	O	0.525910	0.283388	0.308085
	H373	H	0.523839	0.271662	0.280945
	H374	H	0.550198	0.291997	0.315887
	O375	O	0.682723	0.667779	0.688259
	H376	H	0.630105	0.681101	0.699400
	H377	H	0.693612	0.653327	0.663455
	O378	O	0.485765	0.279520	0.726948
	H379	H	0.486384	0.260435	0.748654
	H380	H	0.465790	0.279335	0.723282
	O381	O	1.683223	0.315137	0.332575
	H382	H	1.696822	0.339285	0.346629
	H383	H	1.670646	0.305884	0.362846
	O384	O	0.511675	0.707733	0.506205
	H385	H	0.512592	0.691684	0.521111
	H386	H	0.540795	0.711823	0.506351
	O387	O	0.061063	0.056397	0.797307
	H388	H	0.091073	0.037394	0.801447
	H389	H	0.033121	0.021344	0.788940
	O390	O	-0.671127	-0.686876	-0.308378
	H391	H	-0.660100	-0.698124	-0.334649
	H392	H	-0.680631	-0.640161	-0.299811
	O393	O	1.212414	0.942797	1.051445
	H394	H	1.212001	0.913796	1.036090
	H395	H	1.196397	0.941212	1.057197
	O396	O	1.179163	0.169179	0.196215
	H397	H	1.195116	0.161633	0.159850
	H398	H	1.190751	0.132219	0.196288
	O399	O	1.038895	0.009564	1.071186
	H400	H	1.047320	0.007111	1.085902
	H401	H	1.029846	0.029790	1.058021
	O402	O	0.955026	1.213260	1.067069
	H403	H	0.958261	1.221990	1.092372
	H404	H	0.963100	1.203936	1.064831
	O405	O	0.973570	0.968603	-0.007927
	H406	H	0.957013	0.980635	0.001638
	H407	H	0.982694	0.975336	-0.032783
	O408	O	0.799426	-0.028993	0.220057
	H409	H	0.818324	-0.003483	0.215524
	H410	H	0.797377	-0.019953	0.250038
	O411	O	0.300329	1.574033	0.311093
	H412	H	0.300896	1.580622	0.286828
	H413	H	0.304253	1.609643	0.341303
	O414	O	0.296668	0.284590	0.531500
	H415	H	0.287147	0.283993	0.535674
	H416	H	0.286474	0.283383	0.522520
	O417	O	0.286922	0.472378	0.731411
	H418	H	0.272583	0.480680	0.714323
	H419	H	0.256934	0.479118	0.739275
	O420	O	-0.172902	-0.192091	0.194570
	H421	H	-0.184239	-0.138383	0.204028
	H422	H	-0.164185	-0.203257	0.164265
	O423	O	0.205330	0.984408	-0.200778
	H424	H	0.216587	1.008467	-0.161682
	H425	H	0.230753	0.986085	-0.225939
	O426	O	0.809597	-0.033290	-0.183153
	H427	H	0.777413	-0.023099	-0.208424
	H428	H	0.825295	0.004438	-0.168612
	O429	O	1.223217	0.776581	-0.005235
	H430	H	1.237527	0.746025	-0.003777
	H431	H	1.220323	0.776510	-0.044582
	O432	O	0.483421	0.460334	0.398840
	H433	H	0.483878	0.476966	0.388625
	H434	H	0.497807	0.472592	0.404589
	O435	O	0.391123	0.672012	0.325516
	H436	H	0.427195	0.675065	0.309332
	H437	H	0.400822	0.677061	0.361669
	O438	O	0.292490	0.704442	-0.503193
	H439	H	0.308827	0.716107	-0.484944
	H440	H	0.285145	0.733049	-0.499206
	O441	O	0.990724	-0.216922	0.229274
	H442	H	0.969247	-0.219752	0.211222
	H443	H	0.990835	-0.243437	0.247483
	O444	O	0.222774	1.009211	1.233859
	H445	H	0.219734	0.989624	1.224553
	H446	H	0.256657	1.005533	1.249457
	O447	O	0.564935	0.282853	0.572489
	H448	H	0.549189	0.284762	0.594820
	H449	H	0.542037	0.283155	0.546253
	O450	O	0.216261	1.195816	1.036430
	H451	H	0.238696	1.235877	1.035091
	H452	H	0.179861	1.193560	1.012452
	O453	O	0.716378	0.433465	0.569745
	H454	H	0.716548	0.447495	0.600813
	H455	H	0.711569	0.409277	0.575303
