data_Molecule from HDF5

_cell_length_a		16.252399
_cell_length_b		16.270503
_cell_length_c		16.274742
_cell_angle_alpha	90.030344
_cell_angle_beta	89.847566
_cell_angle_gamma	90.200594
_symmetry_space_group_name_H-M	'P 1'
_symmetry_Int_Tables_number		1

loop_
	_symmetry_equiv_pos_as_xyz
	x,y,z

loop_
	_atom_site_label
	_atom_site_type_symbol
	_atom_site_fract_x
	_atom_site_fract_y
	_atom_site_fract_z
	H0	H	0.404953	0.839417	0.714091
	H1	H	0.603358	0.166623	0.716380
	H2	H	0.601071	0.839393	0.286130
	H3	H	0.406000	0.167641	0.285832
	H4	H	0.717191	0.405257	0.836619
	H5	H	0.716873	0.601245	0.164580
	H6	H	0.289936	0.600869	0.836836
	H7	H	0.286686	0.404050	0.164554
	H8	H	0.839404	0.718026	0.402862
	H9	H	0.166260	0.719358	0.599234
	H10	H	0.838380	0.290083	0.599035
	H11	H	0.167346	0.290454	0.401060
	H12	H	0.838788	0.405127	0.715620
	H13	H	0.166750	0.602957	0.714151
	H14	H	0.838819	0.602267	0.286931
	H15	H	0.166970	0.406243	0.284765
	H16	H	0.403978	0.717812	0.837365
	H17	H	0.601090	0.718086	0.164806
	H18	H	0.601275	0.289266	0.836457
	H19	H	0.402866	0.287628	0.164319
	H20	H	0.717409	0.839965	0.402010
	H21	H	0.717140	0.168230	0.598874
	H22	H	0.287817	0.840156	0.599264
	H23	H	0.290732	0.168330	0.403507
	H24	H	0.902801	0.341039	0.216761
	H25	H	0.102363	0.667891	0.214860
	H26	H	0.101827	0.340936	0.784098
	H27	H	0.905232	0.668590	0.788353
	H28	H	0.217507	0.904940	0.337551
	H29	H	0.217037	0.103099	0.665325
	H30	H	0.789944	0.101448	0.336756
	H31	H	0.789190	0.907386	0.665473
	H32	H	0.339245	0.216201	0.902045
	H33	H	0.666683	0.218742	0.098922
	H34	H	0.339145	0.789032	0.098780
	H35	H	0.667068	0.788635	0.901562
	H36	H	0.339523	0.903358	0.215670
	H37	H	0.667570	0.102468	0.213993
	H38	H	0.339280	0.100371	0.787444
	H39	H	0.666845	0.904063	0.784515
	H40	H	0.905187	0.218505	0.336705
	H41	H	0.101343	0.219648	0.664866
	H42	H	0.101531	0.789536	0.338274
	H43	H	0.903212	0.789473	0.664833
	H44	H	0.216655	0.339984	0.900830
	H45	H	0.218685	0.667425	0.099157
	H46	H	0.787032	0.339993	0.100163
	H47	H	0.789442	0.668067	0.904025
	H48	H	0.418179	0.116715	0.591343
	H49	H	0.597286	0.885000	0.597600
	H50	H	0.599796	0.120290	0.411158
	H51	H	0.410213	0.887612	0.406601
	H52	H	0.594223	0.409042	0.117361
	H53	H	0.592388	0.610057	0.881095
	H54	H	0.416188	0.592846	0.114129
	H55	H	0.403338	0.401608	0.881299
	H56	H	0.122155	0.598364	0.400682
	H57	H	0.884589	0.599414	0.596165
	H58	H	0.116687	0.410699	0.582528
	H59	H	0.883956	0.409968	0.402509
	H60	H	0.117512	0.422271	0.598468
	H61	H	0.886049	0.597318	0.592227
	H62	H	0.120373	0.603365	0.412180
	H63	H	0.887233	0.406017	0.414176
	H64	H	0.410368	0.603252	0.119985
	H65	H	0.609392	0.591984	0.881843
	H66	H	0.595753	0.411437	0.117216
	H67	H	0.406413	0.416799	0.885549
	H68	H	0.598677	0.122120	0.402478
	H69	H	0.591336	0.889515	0.592719
	H70	H	0.403455	0.121097	0.588150
	H71	H	0.411080	0.887743	0.409303
	H72	H	0.919488	0.620285	0.101173
	H73	H	0.094973	0.386953	0.096844
	H74	H	0.101706	0.622881	0.905365
	H75	H	0.912056	0.386925	0.904051
	H76	H	0.089715	0.909089	0.617644
	H77	H	0.097526	0.089289	0.387010
	H78	H	0.909791	0.100163	0.618196
	H79	H	0.905210	0.902745	0.379957
	H80	H	0.619868	0.095484	0.907977
	H81	H	0.383795	0.101343	0.095580
	H82	H	0.618219	0.914090	0.091855
	H83	H	0.384302	0.911181	0.898599
	H84	H	0.621464	0.910557	0.096805
	H85	H	0.388066	0.094702	0.087836
	H86	H	0.620231	0.096305	0.906719
	H87	H	0.385429	0.901143	0.911278
	H88	H	0.907393	0.095875	0.617378
	H89	H	0.088642	0.101359	0.385959
	H90	H	0.100688	0.908868	0.619916
	H91	H	0.904819	0.918794	0.385545
	H92	H	0.093167	0.620356	0.904468
	H93	H	0.092143	0.389238	0.092148
	H94	H	0.911508	0.615513	0.081883
	H95	H	0.912086	0.388872	0.911828
	H96	H	0.409761	0.122980	0.602343
	H97	H	0.599353	0.886883	0.589213
	H98	H	0.591954	0.118590	0.407192
	H99	H	0.408540	0.886883	0.408742
	H100	H	0.593493	0.410861	0.116141
	H101	H	0.586238	0.588342	0.889978
	H102	H	0.404023	0.591720	0.118136
	H103	H	0.417490	0.406112	0.884541
	H104	H	0.116899	0.591684	0.410280
	H105	H	0.886442	0.594655	0.595901
	H106	H	0.123264	0.404451	0.599425
	H107	H	0.889749	0.418691	0.410544
	H108	H	0.898587	0.625206	0.097975
	H109	H	0.097596	0.387130	0.091779
	H110	H	0.097284	0.619613	0.912575
	H111	H	0.905243	0.386817	0.908026
	H112	H	0.095758	0.918221	0.617012
	H113	H	0.102598	0.102155	0.381836
	H114	H	0.911959	0.097033	0.616041
	H115	H	0.918934	0.909834	0.386602
	H116	H	0.619861	0.097226	0.908074
	H117	H	0.386932	0.091136	0.098373
	H118	H	0.620646	0.907828	0.090506
	H119	H	0.390301	0.916827	0.912741
	C120	C	0.381669	0.012018	0.622353
	C121	C	0.624736	0.995411	0.622084
	C122	C	0.625075	0.012161	0.378640
	C123	C	0.381660	0.995612	0.379384
	C124	C	0.623400	0.381956	0.008784
	C125	C	0.624594	0.625589	0.992333
	C126	C	0.382252	0.623839	0.008915
	C127	C	0.380518	0.380324	0.992478
	C128	C	0.011318	0.625920	0.379258
	C129	C	0.994198	0.625867	0.622673
	C130	C	0.010826	0.383080	0.622318
	C131	C	0.994975	0.382826	0.379200
	C132	C	0.880615	0.512392	0.122733
	C133	C	0.123987	0.495646	0.121614
	C134	C	0.124809	0.512338	0.878718
	C135	C	0.881219	0.495939	0.879549
	C136	C	0.123858	0.883234	0.510008
	C137	C	0.124929	0.126604	0.492979
	C138	C	0.881532	0.126096	0.508939
	C139	C	0.880936	0.882240	0.492554
	C140	C	0.511735	0.124176	0.879358
	C141	C	0.494663	0.124744	0.122164
	C142	C	0.511537	0.881971	0.121879
	C143	C	0.494695	0.880938	0.878451
	C144	C	0.384064	0.888605	0.677015
	C145	C	0.622738	0.118399	0.677596
	C146	C	0.621742	0.888480	0.324080
	C147	C	0.384891	0.118771	0.323853
	C148	C	0.679103	0.384446	0.885506
	C149	C	0.679142	0.622590	0.115941
	C150	C	0.327503	0.621258	0.885734
	C151	C	0.325073	0.383524	0.115664
	C152	C	0.888118	0.680385	0.382434
	C153	C	0.117615	0.681167	0.619634
	C154	C	0.887457	0.327830	0.619641
	C155	C	0.118497	0.328155	0.380816
	C156	C	0.887648	0.384947	0.677643
	C157	C	0.117552	0.623725	0.677188
	C158	C	0.887881	0.622603	0.324802
	C159	C	0.118171	0.385767	0.323187
	C160	C	0.384155	0.679508	0.886129
	C161	C	0.621814	0.680574	0.115855
	C162	C	0.621453	0.326890	0.885401
	C163	C	0.382497	0.325266	0.115477
	C164	C	0.679591	0.888754	0.381484
	C165	C	0.679614	0.119120	0.619449
	C166	C	0.326195	0.888777	0.619642
	C167	C	0.327735	0.119153	0.382380
	C168	C	0.882376	0.389497	0.178317
	C169	C	0.122360	0.619101	0.176865
	C170	C	0.121887	0.389451	0.822771
	C171	C	0.884466	0.619356	0.825362
	C172	C	0.179377	0.885109	0.386534
	C173	C	0.179719	0.123802	0.616289
	C174	C	0.827773	0.122234	0.385353
	C175	C	0.826364	0.886033	0.616278
	C176	C	0.388170	0.178651	0.881945
	C177	C	0.618033	0.180420	0.119342
	C178	C	0.388282	0.826520	0.119539
	C179	C	0.618126	0.826323	0.880921
	C180	C	0.388292	0.883585	0.177482
	C181	C	0.618433	0.122750	0.176538
	C182	C	0.388254	0.121246	0.824752
	C183	C	0.617968	0.883686	0.822784
	C184	C	0.885047	0.180327	0.385580
	C185	C	0.122281	0.181642	0.616120
	C186	C	0.121638	0.827626	0.386807
	C187	C	0.883040	0.827746	0.616125
	C188	C	0.179020	0.389060	0.880734
	C189	C	0.180142	0.618953	0.119473
	C190	C	0.825124	0.389005	0.120382
	C191	C	0.826751	0.619040	0.882934
	C192	C	0.404101	0.098142	0.600557
	C193	C	0.602490	0.909361	0.599623
	C194	C	0.603310	0.098107	0.400456
	C195	C	0.403698	0.909521	0.401495
	C196	C	0.601081	0.403890	0.094559
	C197	C	0.602670	0.603355	0.906599
	C198	C	0.403798	0.602248	0.095041
	C199	C	0.402508	0.401904	0.905963
	C200	C	0.097681	0.604085	0.401181
	C201	C	0.907932	0.603617	0.601106
	C202	C	0.096969	0.405746	0.599933
	C203	C	0.909103	0.404884	0.402278
	C204	C	0.903176	0.598165	0.100316
	C205	C	0.101570	0.410153	0.099780
	C206	C	0.103651	0.598659	0.900994
	C207	C	0.903429	0.409684	0.901470
	C208	C	0.101767	0.905319	0.595984
	C209	C	0.102995	0.104167	0.406998
	C210	C	0.903301	0.104221	0.595070
	C211	C	0.903156	0.903951	0.406416
	C212	C	0.597823	0.102748	0.901182
	C213	C	0.408688	0.102290	0.100382
	C214	C	0.598047	0.904325	0.099647
	C215	C	0.408739	0.903200	0.900794
	Zn216	Zn	0.503552	0.003581	0.750603
	Zn217	Zn	0.503456	0.003328	0.250182
	Zn218	Zn	0.752281	0.503544	0.000848
	Zn219	Zn	0.253096	0.503534	0.000455
	Zn220	Zn	0.002655	0.754491	0.501618
	Zn221	Zn	0.003531	0.254781	0.500608
	Zn222	Zn	0.002459	0.504460	0.751079
	Zn223	Zn	0.002825	0.504242	0.250690
	Zn224	Zn	0.503154	0.753334	0.000922
	Zn225	Zn	0.502592	0.252390	0.000521
	Zn226	Zn	0.753132	0.004327	0.500592
	Zn227	Zn	0.252988	0.004123	0.500946
	N228	N	0.417722	0.966369	0.678786
	N229	N	0.589481	0.040600	0.679337
	N230	N	0.588540	0.966205	0.322060
	N231	N	0.417707	0.040879	0.321945
	N232	N	0.680563	0.418137	0.963002
	N233	N	0.680804	0.588864	0.038329
	N234	N	0.326554	0.587123	0.963042
	N235	N	0.323502	0.416780	0.037926
	N236	N	0.965887	0.682341	0.415820
	N237	N	0.039779	0.682719	0.586612
	N238	N	0.965258	0.326344	0.586123
	N239	N	0.040914	0.326189	0.414875
	N240	N	0.965272	0.418843	0.679069
	N241	N	0.039902	0.589987	0.678848
	N242	N	0.965701	0.589665	0.322804
	N243	N	0.040395	0.418854	0.322005
	N244	N	0.417472	0.681242	0.963750
	N245	N	0.588706	0.682459	0.038129
	N246	N	0.587672	0.325079	0.963131
	N247	N	0.416150	0.323370	0.037779
	N248	N	0.681829	0.966529	0.414653
	N249	N	0.680942	0.041503	0.585538
	N250	N	0.324675	0.966508	0.586362
	N251	N	0.325571	0.041576	0.415907
	N252	N	0.916347	0.466910	0.179599
	N253	N	0.088321	0.541697	0.178517
	N254	N	0.088866	0.467176	0.821529
	N255	N	0.917499	0.541538	0.823210
	N256	N	0.180894	0.918869	0.463994
	N257	N	0.181299	0.090022	0.538575
	N258	N	0.825420	0.089386	0.463125
	N259	N	0.824820	0.919096	0.538424
	N260	N	0.465830	0.180552	0.915199
	N261	N	0.540142	0.181823	0.086463
	N262	N	0.466014	0.825554	0.085808
	N263	N	0.540416	0.824549	0.914692
	N264	N	0.466086	0.917354	0.179011
	N265	N	0.540853	0.088690	0.178461
	N266	N	0.465995	0.088036	0.823207
	N267	N	0.540255	0.916874	0.821178
	N268	N	0.917867	0.182597	0.463454
	N269	N	0.089006	0.183490	0.538575
	N270	N	0.087886	0.826331	0.464513
	N271	N	0.916167	0.825177	0.538271
	N272	N	0.181061	0.466465	0.914832
	N273	N	0.181473	0.541290	0.085784
	N274	N	0.823866	0.466562	0.086439
	N275	N	0.824763	0.541239	0.915835
	O276	O	0.485255	0.441233	0.491157
	H277	H	0.495654	0.429152	0.490449
	H278	H	0.492912	0.440174	0.487618
	O279	O	0.022262	0.073796	0.069708
	H280	H	0.021903	0.073362	0.069045
	H281	H	0.010067	0.074893	0.068802
	O282	O	0.526091	0.470113	0.522366
	H283	H	0.526236	0.469784	0.520306
	H284	H	0.527922	0.484851	0.532707
	O285	O	0.500918	0.510852	0.526599
	H286	H	0.490139	0.509608	0.521870
	H287	H	0.488198	0.505855	0.514136
	O288	O	1.021158	0.066580	0.049965
	H289	H	1.027966	0.071152	0.056351
	H290	H	1.017401	0.059150	0.055780
	O291	O	-0.444233	0.508388	-0.502646
	H292	H	-0.449615	0.503697	-0.493940
	H293	H	-0.439715	0.504620	-0.500334
	O294	O	0.526693	0.525101	0.497636
	H295	H	0.520538	0.527780	0.502156
	H296	H	0.525337	0.519089	0.500553
	O297	O	0.080341	1.064746	0.075720
	H298	H	0.085401	1.079138	0.067295
	H299	H	0.085869	1.059771	0.078843
	O300	O	1.068595	0.095150	1.079302
	H301	H	1.074522	0.091139	1.078441
	H302	H	1.071460	0.103706	1.084533
	O303	O	0.589552	0.533250	0.507081
	H304	H	0.599881	0.541733	0.511513
	H305	H	0.590709	0.530190	0.520111
	O306	O	0.047702	1.022681	1.057123
	H307	H	0.049861	1.019497	1.053706
	H308	H	0.051884	1.027035	1.062413
	O309	O	0.485588	0.486262	0.468311
	H310	H	0.485699	0.490585	0.459626
	H311	H	0.492459	0.483962	0.469792
