data_Molecule from HDF5

_cell_length_a		16.558671
_cell_length_b		16.543531
_cell_length_c		16.499671
_cell_angle_alpha	89.940306
_cell_angle_beta	90.027620
_cell_angle_gamma	89.989041
_symmetry_space_group_name_H-M	'P 1'
_symmetry_Int_Tables_number		1

loop_
	_symmetry_equiv_pos_as_xyz
	x,y,z

loop_
	_atom_site_label
	_atom_site_type_symbol
	_atom_site_fract_x
	_atom_site_fract_y
	_atom_site_fract_z
	H0	H	0.394312	0.853231	0.717804
	H1	H	0.605354	0.166722	0.719930
	H2	H	0.600501	0.853877	0.277661
	H3	H	0.395476	0.169382	0.276516
	H4	H	0.722141	0.405620	0.840593
	H5	H	0.716735	0.615260	0.154742
	H6	H	0.276371	0.618104	0.838783
	H7	H	0.280735	0.409989	0.155069
	H8	H	0.841461	0.731372	0.397172
	H9	H	0.155845	0.735762	0.605765
	H10	H	0.843446	0.289564	0.603768
	H11	H	0.155699	0.290658	0.393512
	H12	H	0.843429	0.406848	0.719814
	H13	H	0.155469	0.620203	0.721920
	H14	H	0.841228	0.614706	0.280008
	H15	H	0.156941	0.409378	0.279014
	H16	H	0.393147	0.733167	0.837651
	H17	H	0.598297	0.729688	0.154968
	H18	H	0.604919	0.290881	0.839649
	H19	H	0.397207	0.293004	0.153813
	H20	H	0.717201	0.853299	0.394905
	H21	H	0.719785	0.168001	0.601179
	H22	H	0.278487	0.853733	0.601561
	H23	H	0.278302	0.168984	0.392223
	H24	H	0.897696	0.354702	0.215994
	H25	H	0.101282	0.670049	0.216762
	H26	H	0.104206	0.355855	0.776540
	H27	H	0.893904	0.670046	0.775345
	H28	H	0.220154	0.906438	0.340632
	H29	H	0.221810	0.117864	0.654257
	H30	H	0.779987	0.114239	0.339842
	H31	H	0.774712	0.903627	0.654811
	H32	H	0.342160	0.233227	0.891541
	H33	H	0.655058	0.235070	0.101720
	H34	H	0.340280	0.794045	0.098427
	H35	H	0.654645	0.787597	0.888914
	H36	H	0.340782	0.910280	0.215188
	H37	H	0.656557	0.116470	0.216610
	H38	H	0.342802	0.115552	0.775125
	H39	H	0.655893	0.906137	0.774937
	H40	H	0.895266	0.231450	0.340173
	H41	H	0.102685	0.231574	0.655417
	H42	H	0.102505	0.791428	0.340957
	H43	H	0.891045	0.787739	0.655110
	H44	H	0.219415	0.355781	0.893985
	H45	H	0.218241	0.670207	0.100437
	H46	H	0.779947	0.355310	0.099458
	H47	H	0.777345	0.670126	0.891958
	H48	H	0.409396	0.124256	0.589558
	H49	H	0.587246	0.900893	0.581992
	H50	H	0.587637	0.124290	0.406103
	H51	H	0.415432	0.902052	0.407382
	H52	H	0.583013	0.424178	0.107240
	H53	H	0.589635	0.601916	0.882643
	H54	H	0.403765	0.605802	0.110726
	H55	H	0.405870	0.423968	0.882579
	H56	H	0.111579	0.605351	0.412264
	H57	H	0.886267	0.608083	0.584559
	H58	H	0.110500	0.422578	0.583995
	H59	H	0.885280	0.417279	0.409676
	H60	H	0.110244	0.425324	0.586028
	H61	H	0.891980	0.595701	0.578435
	H62	H	0.112046	0.598090	0.406764
	H63	H	0.887901	0.424771	0.409591
	H64	H	0.407714	0.599728	0.107799
	H65	H	0.587725	0.599180	0.883410
	H66	H	0.588384	0.420003	0.109464
	H67	H	0.409284	0.427556	0.885470
	H68	H	0.591933	0.124321	0.408473
	H69	H	0.590151	0.898103	0.586252
	H70	H	0.414789	0.120724	0.584731
	H71	H	0.405431	0.899100	0.411612
	H72	H	0.908442	0.627687	0.093860
	H73	H	0.092789	0.397150	0.090697
	H74	H	0.085157	0.623987	0.909374
	H75	H	0.912648	0.401593	0.907544
	H76	H	0.089296	0.919726	0.612040
	H77	H	0.091469	0.096177	0.386038
	H78	H	0.908530	0.109086	0.613711
	H79	H	0.906638	0.920462	0.385191
	H80	H	0.612255	0.098497	0.902260
	H81	H	0.387508	0.096836	0.089136
	H82	H	0.611890	0.920079	0.088076
	H83	H	0.386990	0.922750	0.906492
	H84	H	0.611254	0.919856	0.085887
	H85	H	0.384112	0.106705	0.088999
	H86	H	0.612142	0.107510	0.910549
	H87	H	0.387648	0.922222	0.907854
	H88	H	0.901119	0.095957	0.611211
	H89	H	0.083005	0.101398	0.386675
	H90	H	0.092604	0.927401	0.610032
	H91	H	0.909145	0.927102	0.388513
	H92	H	0.086540	0.623556	0.911523
	H93	H	0.087699	0.399784	0.089436
	H94	H	0.912113	0.624164	0.085535
	H95	H	0.910056	0.401782	0.911605
	H96	H	0.407285	0.122278	0.581984
	H97	H	0.584288	0.898929	0.586742
	H98	H	0.591643	0.126055	0.403660
	H99	H	0.407643	0.896334	0.401110
	H100	H	0.589524	0.426172	0.108655
	H101	H	0.586376	0.602408	0.883555
	H102	H	0.411247	0.606459	0.108914
	H103	H	0.411506	0.422571	0.882772
	H104	H	0.114708	0.606173	0.403692
	H105	H	0.888026	0.595506	0.592793
	H106	H	0.112160	0.422363	0.586958
	H107	H	0.885413	0.421463	0.402711
	H108	H	0.902883	0.627619	0.085370
	H109	H	0.091463	0.399409	0.085752
	H110	H	0.087802	0.624768	0.909182
	H111	H	0.908038	0.400129	0.907601
	H112	H	0.084230	0.925673	0.608249
	H113	H	0.091009	0.104832	0.382940
	H114	H	0.916418	0.097181	0.607726
	H115	H	0.914279	0.920874	0.387627
	H116	H	0.608001	0.096756	0.913007
	H117	H	0.388260	0.102867	0.080336
	H118	H	0.610822	0.922063	0.087009
	H119	H	0.387823	0.923587	0.907391
	C120	C	0.377861	0.019017	0.618325
	C121	C	0.619599	1.002890	0.617514
	C122	C	0.621025	0.020401	0.374948
	C123	C	0.377893	1.003266	0.375333
	C124	C	0.620155	0.391114	0.004946
	C125	C	0.618919	0.632936	0.987803
	C126	C	0.375820	0.635334	0.004880
	C127	C	0.377978	0.392362	0.988060
	C128	C	0.008112	0.634216	0.376957
	C129	C	0.991550	0.633497	0.619272
	C130	C	0.007775	0.390961	0.618557
	C131	C	0.990339	0.390090	0.376111
	C132	C	0.877736	0.521545	0.118535
	C133	C	0.121007	0.503672	0.119501
	C134	C	0.119170	0.520967	0.877200
	C135	C	0.877432	0.504620	0.875751
	C136	C	0.120595	0.891124	0.506507
	C137	C	0.120752	0.132884	0.488991
	C138	C	0.877416	0.132390	0.506516
	C139	C	0.877638	0.890185	0.490822
	C140	C	0.507617	0.133439	0.875049
	C141	C	0.490452	0.133983	0.118072
	C142	C	0.506943	0.890453	0.117707
	C143	C	0.491004	0.890226	0.874790
	C144	C	0.376000	0.900854	0.678346
	C145	C	0.622836	0.120535	0.678461
	C146	C	0.620278	0.901114	0.317192
	C147	C	0.376619	0.122072	0.316325
	C148	C	0.681129	0.388140	0.887315
	C149	C	0.677082	0.633993	0.107160
	C150	C	0.316200	0.636632	0.885993
	C151	C	0.320099	0.391167	0.107375
	C152	C	0.889097	0.692293	0.377204
	C153	C	0.108870	0.695111	0.623282
	C154	C	0.890331	0.330078	0.621878
	C155	C	0.108616	0.330652	0.374743
	C156	C	0.890288	0.388277	0.679508
	C157	C	0.108659	0.637595	0.681322
	C158	C	0.888838	0.634439	0.319050
	C159	C	0.109168	0.389652	0.317763
	C160	C	0.374425	0.693728	0.885445
	C161	C	0.618345	0.690967	0.107329
	C162	C	0.622955	0.330945	0.886749
	C163	C	0.377647	0.332870	0.106769
	C164	C	0.678395	0.900969	0.375146
	C165	C	0.679843	0.120996	0.619872
	C166	C	0.318141	0.900953	0.620396
	C167	C	0.318543	0.121771	0.373951
	C168	C	0.877647	0.402272	0.176888
	C169	C	0.120879	0.622820	0.177483
	C170	C	0.121962	0.402832	0.816843
	C171	C	0.875600	0.622881	0.815677
	C172	C	0.180133	0.888383	0.387963
	C173	C	0.181058	0.135589	0.607315
	C174	C	0.818946	0.133391	0.387356
	C175	C	0.815875	0.886436	0.608165
	C176	C	0.389465	0.193229	0.872627
	C177	C	0.608273	0.194278	0.120026
	C178	C	0.387879	0.832963	0.117721
	C179	C	0.608060	0.828687	0.871349
	C180	C	0.388126	0.890706	0.175862
	C181	C	0.609139	0.135279	0.176939
	C182	C	0.389516	0.134636	0.815251
	C183	C	0.608838	0.887280	0.814374
	C184	C	0.876290	0.191731	0.387781
	C185	C	0.122224	0.192383	0.607702
	C186	C	0.121710	0.831143	0.387977
	C187	C	0.873774	0.828573	0.608199
	C188	C	0.179664	0.402888	0.874835
	C189	C	0.178943	0.622794	0.119767
	C190	C	0.819610	0.402398	0.118844
	C191	C	0.817371	0.622895	0.873374
	C192	C	0.403149	0.101226	0.592706
	C193	C	0.594400	0.920709	0.592299
	C194	C	0.597251	0.103444	0.398842
	C195	C	0.402446	0.920684	0.399921
	C196	C	0.594520	0.416417	0.087175
	C197	C	0.594815	0.608509	0.904724
	C198	C	0.400524	0.610898	0.087781
	C199	C	0.402163	0.417432	0.905143
	C200	C	0.091068	0.610142	0.400555
	C201	C	0.910023	0.607212	0.592855
	C202	C	0.089692	0.416145	0.592964
	C203	C	0.907660	0.414405	0.400373
	C204	C	0.901253	0.604728	0.095051
	C205	C	0.097494	0.420553	0.095765
	C206	C	0.093919	0.602751	0.902766
	C207	C	0.902824	0.422518	0.901519
	C208	C	0.095571	0.916914	0.588680
	C209	C	0.095795	0.107884	0.406633
	C210	C	0.901758	0.107763	0.589505
	C211	C	0.902993	0.915609	0.408506
	C212	C	0.589403	0.108047	0.901016
	C213	C	0.408176	0.109090	0.093292
	C214	C	0.589885	0.913966	0.093838
	C215	C	0.408854	0.915639	0.900118
	Zn216	Zn	0.499641	0.011117	0.746628
	Zn217	Zn	0.498941	0.012169	0.246565
	Zn218	Zn	0.748465	0.512686	-0.003090
	Zn219	Zn	0.248854	0.513226	-0.003105
	Zn220	Zn	-0.000294	0.762413	0.499184
	Zn221	Zn	-0.001086	0.261037	0.497919
	Zn222	Zn	-0.000607	0.512489	0.747372
	Zn223	Zn	-0.001002	0.512677	0.247757
	Zn224	Zn	0.498361	0.761881	-0.004689
	Zn225	Zn	0.498965	0.262649	-0.003987
	Zn226	Zn	0.748915	0.010847	0.498122
	Zn227	Zn	0.249475	0.011707	0.497032
	N228	N	0.412489	0.975489	0.677084
	N229	N	0.586196	0.046152	0.677079
	N230	N	0.585685	0.976603	0.316768
	N231	N	0.412661	0.047440	0.316953
	N232	N	0.679437	0.425010	0.961875
	N233	N	0.677657	0.598850	0.031858
	N234	N	0.316819	0.601155	0.961420
	N235	N	0.320015	0.427424	0.032399
	N236	N	0.964355	0.692486	0.412161
	N237	N	0.035028	0.692590	0.585426
	N238	N	0.964523	0.331420	0.584833
	N239	N	0.033751	0.330835	0.410230
	N240	N	0.964402	0.425468	0.677613
	N241	N	0.034664	0.600188	0.679109
	N242	N	0.963972	0.599131	0.318573
	N243	N	0.034515	0.425948	0.318382
	N244	N	0.410396	0.693407	0.960482
	N245	N	0.583028	0.690590	0.031860
	N246	N	0.585651	0.332669	0.961031
	N247	N	0.412770	0.333486	0.031413
	N248	N	0.679149	0.976171	0.410138
	N249	N	0.677833	0.046814	0.582700
	N250	N	0.319102	0.975549	0.583916
	N251	N	0.319116	0.046880	0.409926
	N252	N	0.912626	0.477503	0.177245
	N253	N	0.085845	0.547631	0.177628
	N254	N	0.085411	0.477389	0.817976
	N255	N	0.912009	0.548221	0.816955
	N256	N	0.179638	0.924715	0.462768
	N257	N	0.180288	0.099364	0.532451
	N258	N	0.819378	0.097241	0.462344
	N259	N	0.818317	0.924144	0.534124
	N260	N	0.463969	0.192623	0.909048
	N261	N	0.533578	0.193491	0.084082
	N262	N	0.462879	0.832553	0.082269
	N263	N	0.533786	0.830515	0.908169
	N264	N	0.463261	0.925686	0.176086
	N265	N	0.534792	0.098514	0.175995
	N266	N	0.464059	0.098262	0.816502
	N267	N	0.534975	0.924914	0.816628
	N268	N	0.911725	0.191343	0.462997
	N269	N	0.085330	0.190797	0.533164
	N270	N	0.085603	0.832540	0.462752
	N271	N	0.911849	0.831170	0.534342
	N272	N	0.178127	0.477292	0.911563
	N273	N	0.179450	0.547590	0.084653
	N274	N	0.819486	0.477636	0.083539
	N275	N	0.818275	0.548237	0.909812
	O276	O	0.959873	0.796358	0.214538
	H277	H	0.950070	0.794266	0.216835
	H278	H	0.974857	0.795041	0.227584
	O279	O	-0.025702	0.198187	0.805731
	H280	H	-0.014163	0.186225	0.797207
	H281	H	-0.023489	0.199143	0.791658
	O282	O	0.719651	0.542951	0.715297
	H283	H	0.726064	0.570004	0.723074
	H284	H	0.732693	0.561275	0.730699
	O285	O	0.348806	0.340356	0.326426
	H286	H	0.359811	0.350374	0.346412
	H287	H	0.371907	0.349471	0.333380
	O288	O	1.007806	-0.202263	1.019778
	H289	H	1.014888	-0.196541	1.025104
	H290	H	0.996570	-0.200939	1.034866
	O291	O	0.657499	0.666302	0.527955
	H292	H	0.655364	0.665006	0.520558
	H293	H	0.662363	0.650355	0.520523
	O294	O	0.204257	-0.014339	0.034030
	H295	H	0.207172	-0.014355	0.030916
	H296	H	0.196684	-0.008335	0.030695
	O297	O	0.750930	-0.111157	-0.118031
	H298	H	0.763773	-0.114164	-0.127819
	H299	H	0.729066	-0.114568	-0.103558
	O300	O	-0.008221	0.108538	-0.005030
	H301	H	-0.014192	0.115714	-0.019126
	H302	H	-0.003236	0.104726	0.008662
	O303	O	-0.118188	0.021074	-0.013558
	H304	H	-0.113477	0.008913	-0.001559
	H305	H	-0.124843	0.024593	-0.006271
	O306	O	0.813808	0.197660	0.184818
	H307	H	0.827567	0.181999	0.160910
	H308	H	0.834726	0.175881	0.171846
	O309	O	0.484573	0.538933	0.685911
	H310	H	0.499284	0.542476	0.687046
	H311	H	0.488779	0.546285	0.671662
	O312	O	0.236467	0.248853	0.231469
	H313	H	0.236658	0.257456	0.203050
	H314	H	0.262466	0.272480	0.252426
	O315	O	0.381432	0.445036	0.441518
	H316	H	0.391832	0.427790	0.436350
	H317	H	0.402702	0.438091	0.446082
	O318	O	0.913788	1.004444	0.120136
	H319	H	0.915419	1.017294	0.130861
	H320	H	0.920125	1.019074	0.113891
	O321	O	0.207296	0.954619	0.787766
	H322	H	0.219731	0.934111	0.773563
	H323	H	0.200080	0.924508	0.786377
	O324	O	0.777689	-0.025405	1.212428
	H325	H	0.765743	-0.044692	1.225345
	H326	H	0.765617	-0.052160	1.227961
	O327	O	0.653385	0.628694	0.619226
	H328	H	0.644668	0.632369	0.593641
	H329	H	0.650799	0.649532	0.630972
	O330	O	0.286830	0.726817	0.452308
	H331	H	0.279503	0.728048	0.438395
	H332	H	0.276082	0.723326	0.458066
	O333	O	0.280888	0.453849	0.446097
	H334	H	0.286437	0.450042	0.463331
	H335	H	0.281326	0.445746	0.460132
	O336	O	0.543916	0.662864	0.412687
	H337	H	0.541880	0.653142	0.401563
	H338	H	0.538071	0.668902	0.407372
	O339	O	0.288940	0.598670	0.582090
	H340	H	0.286658	0.589093	0.571360
	H341	H	0.301035	0.605368	0.581768
	O342	O	0.208528	1.081961	-0.080771
	H343	H	0.196886	1.063432	-0.087152
	H344	H	0.206809	1.068356	-0.088896
	O345	O	0.720577	0.315690	0.741346
	H346	H	0.731759	0.295379	0.758606
	H347	H	0.738770	0.306971	0.746047
	O348	O	0.283911	0.480150	0.712501
	H349	H	0.266964	0.486279	0.716302
	H350	H	0.285731	0.467151	0.715857
	O351	O	0.206897	0.222907	1.029131
	H352	H	0.208704	0.219685	1.013175
	H353	H	0.207652	0.223977	1.015798
	O354	O	0.776524	-0.209203	1.029793
	H355	H	0.754053	-0.228474	1.031371
	H356	H	0.770672	-0.201988	1.053075
	O357	O	0.400611	0.658032	0.441363
	H358	H	0.411149	0.649513	0.435903
	H359	H	0.421187	0.659432	0.437841
	O360	O	0.472615	0.708002	0.286213
	H361	H	0.464954	0.716490	0.274234
	H362	H	0.450528	0.700533	0.281725
	O363	O	0.718152	0.477933	0.277846
	H364	H	0.732333	0.459176	0.255598
	H365	H	0.725282	0.446246	0.270385
	O366	O	0.921156	0.020621	0.816711
	H367	H	0.912227	0.017752	0.840460
	H368	H	0.931090	0.019327	0.809818
	O369	O	0.007793	0.183545	1.015465
	H370	H	0.017170	0.176760	1.024702
	H371	H	-0.002123	0.173449	1.010559
	O372	O	-0.077045	0.994666	1.021219
	H373	H	-0.069686	0.980736	1.027360
	H374	H	-0.080508	0.979314	1.017322
	O375	O	1.085644	-0.032076	0.139418
	H376	H	1.089467	-0.036803	0.144897
	H377	H	1.081938	-0.020998	0.148105
	O378	O	0.615532	0.304955	0.372777
	H379	H	0.623430	0.307968	0.378945
	H380	H	0.625515	0.309545	0.382901
	O381	O	0.206617	1.023183	0.212918
	H382	H	0.226058	1.038794	0.222461
	H383	H	0.213804	1.047770	0.212555
	O384	O	0.470490	0.298236	0.709483
	H385	H	0.459014	0.276785	0.727455
	H386	H	0.457490	0.309266	0.717452
	O387	O	0.077552	1.018114	0.802109
	H388	H	0.091109	0.997742	0.789877
	H389	H	0.074025	0.998192	0.792926
	O390	O	0.131573	1.209843	0.841569
	H391	H	0.123048	1.194271	0.852419
	H392	H	0.126759	1.202948	0.842320
	O393	O	1.032158	0.222544	0.210006
	H394	H	1.050229	0.231274	0.229365
	H395	H	1.047602	0.218925	0.216541
	O396	O	0.474684	0.503054	0.473098
	H397	H	0.486634	0.509838	0.481090
	H398	H	0.476123	0.485140	0.488972
	O399	O	0.539059	0.707162	0.678668
	H400	H	0.531375	0.698497	0.686315
	H401	H	0.528847	0.722862	0.669844
	O402	O	0.899535	0.033754	0.832520
	H403	H	0.897028	0.040163	0.839582
	H404	H	0.903831	0.038665	0.822124
	O405	O	0.712228	0.424582	0.441857
	H406	H	0.719187	0.402324	0.451147
	H407	H	0.713730	0.415981	0.435293
	O408	O	0.927584	0.866111	0.935685
	H409	H	0.918101	0.873100	0.942707
	H410	H	0.924936	0.874126	0.950131
	O411	O	0.790348	0.803206	0.204701
	H412	H	0.767804	0.772280	0.235711
	H413	H	0.817797	0.794295	0.193980
	O414	O	0.257228	-0.232171	0.248380
	H415	H	0.258481	-0.267905	0.245721
	H416	H	0.253012	-0.226815	0.265081
	O417	O	0.721687	0.502084	0.495012
	H418	H	0.720327	0.486848	0.515246
	H419	H	0.723049	0.499927	0.493750
	O420	O	0.938844	-0.039700	0.789409
	H421	H	0.941245	-0.051134	0.796714
	H422	H	0.923820	-0.051232	0.790421
	O423	O	1.083317	0.920626	0.180305
	H424	H	1.086071	0.928337	0.190564
	H425	H	1.096310	0.930341	0.184636
	O426	O	0.525881	0.316937	0.516026
	H427	H	0.525799	0.316985	0.528271
	H428	H	0.532649	0.312242	0.525103
	O429	O	0.629283	0.490267	0.571758
	H430	H	0.642432	0.473074	0.581299
	H431	H	0.620114	0.483036	0.595289
	O432	O	0.806528	0.088170	0.992188
	H433	H	0.802238	0.089022	1.010309
	H434	H	0.814197	0.081531	1.002358
	O435	O	0.533442	0.533050	0.348321
	H436	H	0.545553	0.512659	0.343158
	H437	H	0.531681	0.532601	0.348659
	O438	O	0.283970	0.545927	0.285522
	H439	H	0.265118	0.534783	0.269810
	H440	H	0.291056	0.526863	0.296558
	O441	O	0.689917	0.700749	0.317209
	H442	H	0.678947	0.681518	0.340141
	H443	H	0.668877	0.683925	0.331424
	O444	O	0.487086	0.385556	0.283210
	H445	H	0.505065	0.375979	0.284287
	H446	H	0.492053	0.388884	0.285033
	O447	O	0.809576	0.259809	0.886904
	H448	H	0.801253	0.257188	0.887638
	H449	H	0.821432	0.254436	0.899223
	O450	O	0.897115	0.208240	0.026845
	H451	H	0.907090	0.214360	0.033683
	H452	H	0.911634	0.195989	0.030224
	O453	O	0.341052	0.295706	0.491992
	H454	H	0.353478	0.290850	0.513829
	H455	H	0.345068	0.279391	0.489339
	O456	O	0.148796	0.822241	0.799645
	H457	H	0.118675	0.807226	0.799726
	H458	H	0.147290	0.810338	0.835016
	O459	O	0.591829	0.366685	0.651970
	H460	H	0.577536	0.369135	0.659343
	H461	H	0.600365	0.351549	0.675583
	O462	O	0.703716	0.305566	0.288093
	H463	H	0.698380	0.299899	0.330386
	H464	H	0.736434	0.270370	0.260926
	O465	O	0.436735	0.716531	0.544535
	H466	H	0.447348	0.716050	0.520367
	H467	H	0.416668	0.716261	0.535443
	O468	O	0.204706	0.808185	-0.032938
	H469	H	0.217460	0.808714	-0.027147
	H470	H	0.206972	0.799338	-0.028065
	O471	O	0.462824	0.507660	0.637863
	H472	H	0.459304	0.503029	0.636097
	H473	H	0.459872	0.515930	0.647068
	O474	O	0.996190	0.807998	-0.115933
	H475	H	0.998737	0.796988	-0.124502
	H476	H	0.988806	0.805278	-0.085983
	O477	O	0.294425	0.308629	0.698825
	H478	H	0.271148	0.285945	0.705007
	H479	H	0.306601	0.330323	0.696522
