data_Molecule from HDF5

_cell_length_a		16.224990
_cell_length_b		16.340044
_cell_length_c		16.263055
_cell_angle_alpha	89.895835
_cell_angle_beta	89.946757
_cell_angle_gamma	89.971581
_symmetry_space_group_name_H-M	'P 1'
_symmetry_Int_Tables_number		1

loop_
	_symmetry_equiv_pos_as_xyz
	x,y,z

loop_
	_atom_site_label
	_atom_site_type_symbol
	_atom_site_fract_x
	_atom_site_fract_y
	_atom_site_fract_z
	H0	H	0.405634	0.828020	0.710328
	H1	H	0.600998	0.155263	0.708971
	H2	H	0.602580	0.827998	0.281714
	H3	H	0.404787	0.154011	0.280807
	H4	H	0.717439	0.395096	0.830797
	H5	H	0.716068	0.587282	0.160887
	H6	H	0.290706	0.589665	0.831691
	H7	H	0.291101	0.394366	0.159926
	H8	H	0.840324	0.706572	0.396789
	H9	H	0.167839	0.705702	0.595236
	H10	H	0.839237	0.275955	0.596041
	H11	H	0.167954	0.276247	0.398011
	H12	H	0.838731	0.394912	0.709301
	H13	H	0.168908	0.586641	0.708084
	H14	H	0.839090	0.587614	0.283646
	H15	H	0.168751	0.392619	0.282495
	H16	H	0.406250	0.706470	0.832094
	H17	H	0.602113	0.704869	0.160039
	H18	H	0.603653	0.276899	0.831504
	H19	H	0.407358	0.277375	0.159833
	H20	H	0.716738	0.826972	0.399533
	H21	H	0.717908	0.154442	0.593028
	H22	H	0.289913	0.827298	0.593972
	H23	H	0.290600	0.154611	0.398997
	H24	H	0.905419	0.328330	0.210828
	H25	H	0.102069	0.654815	0.210785
	H26	H	0.103115	0.327504	0.781785
	H27	H	0.906037	0.654998	0.781418
	H28	H	0.216632	0.895245	0.331763
	H29	H	0.215572	0.086017	0.661333
	H30	H	0.791290	0.087654	0.330513
	H31	H	0.789467	0.892674	0.659538
	H32	H	0.340038	0.205973	0.896183
	H33	H	0.668124	0.205751	0.094725
	H34	H	0.340142	0.777542	0.094439
	H35	H	0.668669	0.777503	0.897503
	H36	H	0.339497	0.894135	0.209030
	H37	H	0.668243	0.087935	0.209353
	H38	H	0.339512	0.088820	0.783132
	H39	H	0.668505	0.894650	0.781085
	H40	H	0.906020	0.204807	0.331016
	H41	H	0.102020	0.204554	0.660303
	H42	H	0.103211	0.776829	0.332096
	H43	H	0.904642	0.776114	0.659571
	H44	H	0.218386	0.327874	0.899008
	H45	H	0.217666	0.655442	0.093848
	H46	H	0.789866	0.328171	0.094621
	H47	H	0.789401	0.655213	0.897426
	H48	H	0.416206	0.106344	0.592826
	H49	H	0.599332	0.873761	0.591224
	H50	H	0.588985	0.103481	0.405390
	H51	H	0.409204	0.872265	0.397084
	H52	H	0.590308	0.403452	0.107819
	H53	H	0.596387	0.587414	0.879245
	H54	H	0.407224	0.583196	0.112281
	H55	H	0.407338	0.401035	0.878360
	H56	H	0.123026	0.592106	0.401742
	H57	H	0.888484	0.582340	0.587301
	H58	H	0.121751	0.393446	0.589204
	H59	H	0.887516	0.398275	0.405814
	H60	H	0.119138	0.398492	0.586812
	H61	H	0.885584	0.584896	0.591902
	H62	H	0.119039	0.582484	0.409375
	H63	H	0.887291	0.399707	0.402315
	H64	H	0.413918	0.583754	0.111271
	H65	H	0.599787	0.585212	0.879032
	H66	H	0.594660	0.386419	0.114557
	H67	H	0.415983	0.400230	0.881287
	H68	H	0.605943	0.108684	0.407316
	H69	H	0.593722	0.875671	0.590927
	H70	H	0.406636	0.106465	0.582795
	H71	H	0.416454	0.876523	0.404478
	H72	H	0.896645	0.611402	0.088538
	H73	H	0.096641	0.376874	0.085698
	H74	H	0.093310	0.604588	0.905593
	H75	H	0.907896	0.375580	0.906772
	H76	H	0.096373	0.892963	0.613781
	H77	H	0.105239	0.084013	0.377485
	H78	H	0.908269	0.085717	0.612789
	H79	H	0.904200	0.895839	0.376487
	H80	H	0.622399	0.084075	0.897798
	H81	H	0.385415	0.086809	0.091549
	H82	H	0.625431	0.888703	0.093855
	H83	H	0.387133	0.896485	0.903673
	H84	H	0.618893	0.897400	0.080002
	H85	H	0.387907	0.086093	0.085244
	H86	H	0.621507	0.088283	0.905508
	H87	H	0.387958	0.898852	0.904763
	H88	H	0.911258	0.080344	0.610830
	H89	H	0.093193	0.078931	0.382457
	H90	H	0.100346	0.898103	0.613335
	H91	H	0.912474	0.904877	0.381032
	H92	H	0.101718	0.609140	0.903823
	H93	H	0.102920	0.373432	0.090800
	H94	H	0.917523	0.609308	0.102273
	H95	H	0.909162	0.374185	0.898947
	H96	H	0.404259	0.111109	0.595683
	H97	H	0.597424	0.875840	0.585963
	H98	H	0.597672	0.110896	0.391225
	H99	H	0.405682	0.874221	0.407192
	H100	H	0.607874	0.399616	0.114604
	H101	H	0.596305	0.582947	0.879922
	H102	H	0.410896	0.589128	0.113692
	H103	H	0.412094	0.392831	0.877492
	H104	H	0.122106	0.579932	0.396585
	H105	H	0.886510	0.588037	0.587099
	H106	H	0.121394	0.398273	0.592304
	H107	H	0.886754	0.395959	0.402663
	H108	H	0.918124	0.602680	0.078393
	H109	H	0.094878	0.375168	0.093132
	H110	H	0.095673	0.608249	0.896826
	H111	H	0.915828	0.377637	0.903781
	H112	H	0.094069	0.898570	0.611634
	H113	H	0.093533	0.092127	0.378350
	H114	H	0.914574	0.085960	0.611655
	H115	H	0.916644	0.892330	0.378863
	H116	H	0.618938	0.079734	0.904451
	H117	H	0.387630	0.081384	0.089546
	H118	H	0.621229	0.905476	0.095316
	H119	H	0.387271	0.898967	0.901481
	C120	C	0.381153	-0.000332	0.618342
	C121	C	0.625238	0.983196	0.617380
	C122	C	0.625731	-0.000584	0.374006
	C123	C	0.382661	0.982660	0.374732
	C124	C	0.626104	0.369148	0.003783
	C125	C	0.625616	0.612978	0.988045
	C126	C	0.382350	0.613731	0.004208
	C127	C	0.383379	0.369891	0.987403
	C128	C	0.012417	0.612898	0.374354
	C129	C	0.995767	0.612411	0.616896
	C130	C	0.012087	0.368786	0.617947
	C131	C	0.995621	0.369748	0.375108
	C132	C	0.882198	0.499970	0.118121
	C133	C	0.126001	0.483293	0.117934
	C134	C	0.125477	0.499368	0.874303
	C135	C	0.882199	0.483641	0.874290
	C136	C	0.125471	0.869238	0.504509
	C137	C	0.125324	0.112644	0.487878
	C138	C	0.882467	0.112393	0.503534
	C139	C	0.882518	0.869565	0.487464
	C140	C	0.512522	0.112528	0.874189
	C141	C	0.495857	0.112334	0.116911
	C142	C	0.512830	0.869497	0.117613
	C143	C	0.495811	0.870071	0.874698
	C144	C	0.384296	0.876648	0.672836
	C145	C	0.621880	0.106301	0.671641
	C146	C	0.623244	0.876582	0.319561
	C147	C	0.385082	0.105476	0.319437
	C148	C	0.680175	0.373634	0.879868
	C149	C	0.679006	0.608649	0.111689
	C150	C	0.328284	0.610457	0.880464
	C151	C	0.329006	0.373517	0.111135
	C152	C	0.889115	0.668155	0.376684
	C153	C	0.119181	0.667287	0.615113
	C154	C	0.888042	0.314483	0.615569
	C155	C	0.119114	0.314358	0.377491
	C156	C	0.887801	0.373021	0.672156
	C157	C	0.119633	0.608418	0.671298
	C158	C	0.888517	0.609250	0.320513
	C159	C	0.119422	0.372103	0.320236
	C160	C	0.385565	0.668646	0.880766
	C161	C	0.622649	0.667146	0.111273
	C162	C	0.623436	0.315083	0.880254
	C163	C	0.386054	0.314837	0.110836
	C164	C	0.680042	0.876175	0.377858
	C165	C	0.679727	0.106129	0.613856
	C166	C	0.327052	0.876318	0.614871
	C167	C	0.328101	0.105793	0.378019
	C168	C	0.884676	0.377161	0.173155
	C169	C	0.122847	0.606282	0.172859
	C170	C	0.123283	0.376288	0.819670
	C171	C	0.885081	0.606422	0.819371
	C172	C	0.180249	0.872893	0.380912
	C173	C	0.178977	0.107992	0.612001
	C174	C	0.828382	0.108899	0.379725
	C175	C	0.827275	0.872336	0.610743
	C176	C	0.388898	0.167981	0.876534
	C177	C	0.619342	0.167175	0.114545
	C178	C	0.389131	0.815108	0.114812
	C179	C	0.619751	0.815507	0.876881
	C180	C	0.388819	0.873024	0.171748
	C181	C	0.619490	0.108791	0.171379
	C182	C	0.388455	0.109927	0.820131
	C183	C	0.619619	0.873246	0.819058
	C184	C	0.885078	0.167529	0.380209
	C185	C	0.122540	0.166773	0.611543
	C186	C	0.123491	0.814783	0.380928
	C187	C	0.884761	0.814688	0.610733
	C188	C	0.180860	0.376585	0.877574
	C189	C	0.180201	0.606590	0.114680
	C190	C	0.827207	0.377206	0.115488
	C191	C	0.827592	0.606586	0.877507
	C192	C	0.402665	0.085743	0.597045
	C193	C	0.603340	0.897364	0.595809
	C194	C	0.603875	0.085450	0.395049
	C195	C	0.404175	0.896554	0.396371
	C196	C	0.604217	0.390306	0.090027
	C197	C	0.603926	0.591628	0.901564
	C198	C	0.404202	0.591812	0.090303
	C199	C	0.405329	0.391641	0.901278
	C200	C	0.099082	0.591182	0.396046
	C201	C	0.909113	0.591231	0.595176
	C202	C	0.098360	0.390479	0.596040
	C203	C	0.909417	0.391583	0.397127
	C204	C	0.904377	0.585678	0.096232
	C205	C	0.104668	0.397417	0.096337
	C206	C	0.103215	0.585205	0.895536
	C207	C	0.904457	0.397912	0.896713
	C208	C	0.103346	0.890135	0.590680
	C209	C	0.103905	0.091277	0.401686
	C210	C	0.904471	0.090292	0.589665
	C211	C	0.904611	0.891462	0.401063
	C212	C	0.598533	0.090403	0.895947
	C213	C	0.409301	0.090953	0.095196
	C214	C	0.599579	0.890844	0.096029
	C215	C	0.409857	0.891655	0.896664
	Zn216	Zn	0.503189	-0.008368	0.746053
	Zn217	Zn	0.504104	-0.008975	0.245588
	Zn218	Zn	0.753786	0.491544	-0.003983
	Zn219	Zn	0.254342	0.491927	-0.004244
	Zn220	Zn	0.004345	0.740900	0.496034
	Zn221	Zn	0.003434	0.241097	0.496069
	Zn222	Zn	0.004064	0.491050	0.745506
	Zn223	Zn	0.004448	0.491300	0.246471
	Zn224	Zn	0.504767	0.741519	-0.003745
	Zn225	Zn	0.504434	0.240412	-0.005136
	Zn226	Zn	0.754021	-0.008888	0.495367
	Zn227	Zn	0.253639	-0.009259	0.496319
	N228	N	0.417331	0.954207	0.674911
	N229	N	0.588556	0.028782	0.673953
	N230	N	0.590109	0.954101	0.317119
	N231	N	0.418377	0.027984	0.317453
	N232	N	0.682059	0.406619	0.957734
	N233	N	0.680878	0.575694	0.033888
	N234	N	0.326460	0.577014	0.958148
	N235	N	0.327235	0.407190	0.033491
	N236	N	0.967283	0.670386	0.409505
	N237	N	0.041227	0.669593	0.581810
	N238	N	0.966200	0.311740	0.582581
	N239	N	0.041221	0.312860	0.411019
	N240	N	0.965763	0.406089	0.673943
	N241	N	0.041722	0.575093	0.672588
	N242	N	0.966232	0.575599	0.319148
	N243	N	0.041767	0.406179	0.318869
	N244	N	0.418493	0.670725	0.958713
	N245	N	0.590122	0.669835	0.033214
	N246	N	0.590804	0.312200	0.958272
	N247	N	0.419176	0.312584	0.032975
	N248	N	0.681700	0.953624	0.410979
	N249	N	0.681964	0.028577	0.581130
	N250	N	0.324976	0.953919	0.581904
	N251	N	0.326711	0.028481	0.411878
	N252	N	0.918274	0.454442	0.174873
	N253	N	0.089936	0.528649	0.175004
	N254	N	0.089629	0.453719	0.817496
	N255	N	0.918360	0.529022	0.817369
	N256	N	0.181536	0.906182	0.458506
	N257	N	0.180978	0.075065	0.534081
	N258	N	0.826504	0.075517	0.457523
	N259	N	0.826103	0.905902	0.533066
	N260	N	0.466969	0.169706	0.909333
	N261	N	0.541372	0.169446	0.081486
	N262	N	0.467304	0.812826	0.082029
	N263	N	0.542095	0.813570	0.910836
	N264	N	0.466752	0.906191	0.173582
	N265	N	0.541632	0.075162	0.172671
	N266	N	0.466180	0.076159	0.818389
	N267	N	0.541760	0.906610	0.817665
	N268	N	0.918309	0.169506	0.458162
	N269	N	0.089907	0.169747	0.533516
	N270	N	0.090105	0.812407	0.458721
	N271	N	0.918288	0.812603	0.532934
	N272	N	0.182162	0.453982	0.910983
	N273	N	0.182075	0.529370	0.081104
	N274	N	0.825462	0.454539	0.081920
	N275	N	0.825902	0.529147	0.911076
	O276	O	0.978155	0.076076	0.940418
	H277	H	0.974684	0.065685	0.937454
	H278	H	0.982997	0.080990	0.941134
	O279	O	-0.026206	1.081406	0.959844
	H280	H	-0.019241	1.080471	0.962302
	H281	H	-0.030713	1.083522	0.959909
	O282	O	0.963431	1.067506	-0.064696
	H283	H	0.966527	1.065062	-0.060730
	H284	H	0.958847	1.072746	-0.061956
	O285	O	-0.015044	1.058494	0.926399
	H286	H	-0.012813	1.060582	0.918713
	H287	H	-0.024329	1.061228	0.920023
