data_Molecule from HDF5

_cell_length_a		16.339466
_cell_length_b		16.316103
_cell_length_c		16.174835
_cell_angle_alpha	90.218356
_cell_angle_beta	89.996047
_cell_angle_gamma	89.780769
_symmetry_space_group_name_H-M	'P 1'
_symmetry_Int_Tables_number		1

loop_
	_symmetry_equiv_pos_as_xyz
	x,y,z

loop_
	_atom_site_label
	_atom_site_type_symbol
	_atom_site_fract_x
	_atom_site_fract_y
	_atom_site_fract_z
	H0	H	0.400371	0.841377	0.714513
	H1	H	0.591272	0.169773	0.715657
	H2	H	0.593061	0.840746	0.288436
	H3	H	0.397793	0.169865	0.289214
	H4	H	0.713117	0.405770	0.838062
	H5	H	0.709561	0.603305	0.168126
	H6	H	0.284025	0.603057	0.838550
	H7	H	0.285737	0.408594	0.167620
	H8	H	0.833663	0.719338	0.405334
	H9	H	0.159694	0.720509	0.603604
	H10	H	0.834126	0.291425	0.602366
	H11	H	0.159381	0.286549	0.402386
	H12	H	0.834112	0.408899	0.716863
	H13	H	0.161250	0.600621	0.716137
	H14	H	0.834045	0.602999	0.288748
	H15	H	0.161722	0.406619	0.289639
	H16	H	0.401725	0.716040	0.837093
	H17	H	0.595062	0.720131	0.166795
	H18	H	0.597744	0.290191	0.837520
	H19	H	0.400634	0.293143	0.166816
	H20	H	0.712937	0.842252	0.401989
	H21	H	0.710527	0.169032	0.602756
	H22	H	0.282777	0.841651	0.600336
	H23	H	0.279152	0.168542	0.403398
	H24	H	0.903553	0.340213	0.213503
	H25	H	0.093915	0.668839	0.217429
	H26	H	0.095611	0.340814	0.789848
	H27	H	0.901901	0.668873	0.791553
	H28	H	0.211228	0.904860	0.338723
	H29	H	0.210401	0.104378	0.667727
	H30	H	0.781836	0.103282	0.338356
	H31	H	0.783083	0.909221	0.667877
	H32	H	0.334166	0.222249	0.902669
	H33	H	0.660846	0.219255	0.100625
	H34	H	0.334366	0.790996	0.100793
	H35	H	0.660335	0.790038	0.901014
	H36	H	0.332462	0.910555	0.213485
	H37	H	0.660905	0.102254	0.216652
	H38	H	0.332627	0.102087	0.789511
	H39	H	0.660183	0.908251	0.787617
	H40	H	0.896543	0.219911	0.338257
	H41	H	0.093999	0.218656	0.667496
	H42	H	0.094728	0.789406	0.338867
	H43	H	0.899293	0.793893	0.668961
	H44	H	0.214135	0.342346	0.903658
	H45	H	0.211751	0.668842	0.102329
	H46	H	0.781709	0.342056	0.103084
	H47	H	0.782807	0.668195	0.904529
	H48	H	0.405082	0.120439	0.595425
	H49	H	0.592824	0.889890	0.589729
	H50	H	0.586354	0.123838	0.399950
	H51	H	0.399724	0.888198	0.408919
	H52	H	0.595874	0.408952	0.122435
	H53	H	0.586647	0.599416	0.885814
	H54	H	0.399437	0.603442	0.123461
	H55	H	0.400975	0.408603	0.882166
	H56	H	0.112765	0.593109	0.407422
	H57	H	0.877397	0.609399	0.599347
	H58	H	0.109843	0.413888	0.585989
	H59	H	0.886099	0.418216	0.418978
	H60	H	0.114427	0.416993	0.604178
	H61	H	0.883570	0.598294	0.588960
	H62	H	0.115110	0.603043	0.409173
	H63	H	0.879967	0.416424	0.398637
	H64	H	0.403884	0.592756	0.118555
	H65	H	0.595187	0.600792	0.883151
	H66	H	0.590842	0.419492	0.117474
	H67	H	0.403575	0.419269	0.886169
	H68	H	0.582646	0.116440	0.417466
	H69	H	0.593990	0.887314	0.598448
	H70	H	0.399232	0.121114	0.592689
	H71	H	0.404108	0.888790	0.405723
	H72	H	0.904105	0.617784	0.086806
	H73	H	0.091870	0.389238	0.095561
	H74	H	0.086794	0.620307	0.909773
	H75	H	0.893440	0.385675	0.913508
	H76	H	0.094388	0.918463	0.619632
	H77	H	0.092513	0.093055	0.386087
	H78	H	0.902214	0.099299	0.619296
	H79	H	0.895095	0.905465	0.381529
	H80	H	0.610994	0.097239	0.913488
	H81	H	0.378743	0.104507	0.100084
	H82	H	0.611145	0.911350	0.086003
	H83	H	0.384761	0.915265	0.915863
	H84	H	0.611890	0.920053	0.098961
	H85	H	0.381867	0.103698	0.089549
	H86	H	0.612623	0.094879	0.906218
	H87	H	0.379755	0.914753	0.900064
	H88	H	0.903123	0.099132	0.620254
	H89	H	0.083963	0.094885	0.386984
	H90	H	0.083114	0.912490	0.618308
	H91	H	0.902679	0.924340	0.389389
	H92	H	0.095049	0.620719	0.915659
	H93	H	0.093628	0.388998	0.093425
	H94	H	0.894888	0.624719	0.099080
	H95	H	0.909090	0.386878	0.899010
	H96	H	0.400716	0.123589	0.599097
	H97	H	0.585568	0.890833	0.595614
	H98	H	0.599286	0.123271	0.413640
	H99	H	0.404151	0.890740	0.410904
	H100	H	0.583875	0.408779	0.117940
	H101	H	0.592578	0.592166	0.885848
	H102	H	0.411278	0.603382	0.119751
	H103	H	0.411498	0.411060	0.886112
	H104	H	0.111251	0.597260	0.416884
	H105	H	0.880082	0.593893	0.604504
	H106	H	0.116207	0.399871	0.596211
	H107	H	0.878466	0.399979	0.411546
	H108	H	0.911067	0.620500	0.102001
	H109	H	0.094394	0.388115	0.096229
	H110	H	0.095272	0.624255	0.906011
	H111	H	0.912799	0.393218	0.919218
	H112	H	0.093363	0.906808	0.623416
	H113	H	0.089675	0.101241	0.384316
	H114	H	0.902900	0.099928	0.620017
	H115	H	0.915632	0.906604	0.387892
	H116	H	0.614124	0.102602	0.908035
	H117	H	0.382897	0.094572	0.096526
	H118	H	0.616031	0.905012	0.099338
	H119	H	0.377457	0.901083	0.909457
	C120	C	0.374307	0.013470	0.623852
	C121	C	0.618070	0.997455	0.623860
	C122	C	0.617901	0.013356	0.380743
	C123	C	0.373935	0.997286	0.380501
	C124	C	0.619401	0.383569	0.010663
	C125	C	0.619176	0.626471	0.993944
	C126	C	0.376807	0.627127	0.011476
	C127	C	0.376978	0.384847	0.993554
	C128	C	0.005260	0.626533	0.382321
	C129	C	0.988401	0.627623	0.625954
	C130	C	0.005613	0.383024	0.624392
	C131	C	0.989339	0.382556	0.381093
	C132	C	0.875568	0.513260	0.124547
	C133	C	0.120173	0.496844	0.124560
	C134	C	0.120371	0.513468	0.881630
	C135	C	0.876743	0.496713	0.882195
	C136	C	0.118728	0.883002	0.511871
	C137	C	0.116875	0.125448	0.494727
	C138	C	0.874337	0.127246	0.511179
	C139	C	0.875774	0.884205	0.495063
	C140	C	0.504909	0.126969	0.880934
	C141	C	0.489003	0.128348	0.124214
	C142	C	0.504973	0.884163	0.123161
	C143	C	0.488676	0.882744	0.879346
	C144	C	0.378704	0.890228	0.677472
	C145	C	0.613442	0.120680	0.678680
	C146	C	0.614334	0.889781	0.326159
	C147	C	0.377087	0.120772	0.326482
	C148	C	0.675048	0.385786	0.887076
	C149	C	0.672817	0.624135	0.118411
	C150	C	0.322011	0.623518	0.887420
	C151	C	0.322549	0.387592	0.118019
	C152	C	0.882450	0.681456	0.384724
	C153	C	0.111377	0.681967	0.623446
	C154	C	0.882859	0.329185	0.622516
	C155	C	0.111535	0.326085	0.383163
	C156	C	0.882886	0.387647	0.679327
	C157	C	0.112094	0.622679	0.679310
	C158	C	0.882507	0.623460	0.326991
	C159	C	0.112446	0.385265	0.326517
	C160	C	0.380355	0.679479	0.886671
	C161	C	0.615726	0.681998	0.117773
	C162	C	0.617291	0.328596	0.886627
	C163	C	0.380112	0.330594	0.117785
	C164	C	0.673915	0.890630	0.382158
	C165	C	0.672633	0.120329	0.622477
	C166	C	0.320253	0.890419	0.620774
	C167	C	0.318172	0.120197	0.383242
	C168	C	0.880652	0.389701	0.177902
	C169	C	0.115129	0.620291	0.179262
	C170	C	0.117031	0.390229	0.826820
	C171	C	0.880507	0.619898	0.828409
	C172	C	0.173319	0.884687	0.387902
	C173	C	0.171781	0.123676	0.618806
	C174	C	0.819472	0.124362	0.387375
	C175	C	0.820630	0.888011	0.618924
	C176	C	0.382274	0.183027	0.882947
	C177	C	0.611941	0.182287	0.121963
	C178	C	0.382487	0.829646	0.120402
	C179	C	0.611562	0.827918	0.881208
	C180	C	0.381835	0.888512	0.177005
	C181	C	0.612043	0.123888	0.179276
	C182	C	0.381486	0.123508	0.826762
	C183	C	0.611520	0.886870	0.824935
	C184	C	0.876539	0.182195	0.387564
	C185	C	0.114065	0.180634	0.618755
	C186	C	0.115928	0.827011	0.388198
	C187	C	0.878421	0.830685	0.619313
	C188	C	0.175835	0.390871	0.883534
	C189	C	0.173949	0.620119	0.122583
	C190	C	0.820535	0.390328	0.122615
	C191	C	0.821297	0.619632	0.884730
	C192	C	0.395378	0.099615	0.601981
	C193	C	0.597040	0.911415	0.601218
	C194	C	0.596104	0.098995	0.403635
	C195	C	0.396094	0.911503	0.402020
	C196	C	0.596942	0.405866	0.097166
	C197	C	0.597755	0.603964	0.907194
	C198	C	0.398432	0.606109	0.098101
	C199	C	0.398913	0.406622	0.907136
	C200	C	0.090754	0.604279	0.404527
	C201	C	0.902584	0.606774	0.604166
	C202	C	0.091371	0.403991	0.602152
	C203	C	0.903457	0.405031	0.403068
	C204	C	0.896937	0.599054	0.102348
	C205	C	0.099420	0.410956	0.101818
	C206	C	0.098693	0.599587	0.903886
	C207	C	0.898697	0.410728	0.904167
	C208	C	0.096676	0.905841	0.598450
	C209	C	0.095080	0.102994	0.408335
	C210	C	0.896216	0.105740	0.597639
	C211	C	0.897909	0.905821	0.408510
	C212	C	0.590375	0.104930	0.902854
	C213	C	0.403335	0.107282	0.101821
	C214	C	0.590916	0.905708	0.101098
	C215	C	0.402760	0.904101	0.901855
	Zn216	Zn	0.496138	0.005370	0.751842
	Zn217	Zn	0.496532	0.005975	0.252435
	Zn218	Zn	0.747231	0.504896	0.003287
	Zn219	Zn	0.249348	0.505555	0.003287
	Zn220	Zn	-0.003271	0.755595	0.504029
	Zn221	Zn	-0.003332	0.254117	0.503024
	Zn222	Zn	-0.001899	0.504801	0.753103
	Zn223	Zn	-0.002345	0.504948	0.252814
	Zn224	Zn	0.497723	0.754970	0.001570
	Zn225	Zn	0.497681	0.256556	0.001776
	Zn226	Zn	0.746944	0.005723	0.502422
	Zn227	Zn	0.245621	0.005618	0.502909
	N228	N	0.411578	0.967634	0.679426
	N229	N	0.580131	0.043378	0.679388
	N230	N	0.580357	0.967008	0.325112
	N231	N	0.411002	0.043400	0.324605
	N232	N	0.676263	0.419398	0.965229
	N233	N	0.674908	0.590325	0.040461
	N234	N	0.319443	0.591666	0.966078
	N235	N	0.320535	0.420652	0.039964
	N236	N	0.959654	0.683331	0.418479
	N237	N	0.033641	0.685161	0.590958
	N238	N	0.960151	0.326374	0.588984
	N239	N	0.033894	0.324409	0.416235
	N240	N	0.960228	0.420421	0.680545
	N241	N	0.035027	0.589379	0.680714
	N242	N	0.959975	0.589924	0.325387
	N243	N	0.035346	0.419559	0.325106
	N244	N	0.413530	0.682056	0.964750
	N245	N	0.583070	0.683638	0.039339
	N246	N	0.583625	0.327093	0.964668
	N247	N	0.413022	0.328750	0.039505
	N248	N	0.676235	0.968359	0.415513
	N249	N	0.675645	0.042611	0.589220
	N250	N	0.317532	0.968186	0.588124
	N251	N	0.316098	0.042610	0.415948
	N252	N	0.914075	0.467005	0.179174
	N253	N	0.082800	0.542711	0.180739
	N254	N	0.083405	0.467624	0.825540
	N255	N	0.914192	0.542617	0.826807
	N256	N	0.175140	0.918885	0.465794
	N257	N	0.173507	0.089956	0.540762
	N258	N	0.817941	0.091096	0.465209
	N259	N	0.818695	0.920615	0.540538
	N260	N	0.459885	0.185307	0.915815
	N261	N	0.534632	0.185101	0.088449
	N262	N	0.460199	0.826725	0.087684
	N263	N	0.534034	0.825406	0.914534
	N264	N	0.458962	0.921802	0.178643
	N265	N	0.534499	0.091222	0.180867
	N266	N	0.458417	0.089149	0.825649
	N267	N	0.534137	0.920131	0.823616
	N268	N	0.910100	0.184011	0.465628
	N269	N	0.080571	0.181742	0.540739
	N270	N	0.082592	0.826106	0.466322
	N271	N	0.911982	0.828439	0.541388
	N272	N	0.178027	0.468476	0.916881
	N273	N	0.177152	0.542467	0.089174
	N274	N	0.817124	0.468285	0.090423
	N275	N	0.818852	0.541924	0.917432
	O276	O	-0.043459	0.035883	1.072229
	H277	H	-0.047996	0.047021	1.076530
	H278	H	-0.040524	0.032211	1.077729
	O279	O	0.575637	0.478945	0.415418
	H280	H	0.573273	0.478420	0.410339
	H281	H	0.574189	0.477100	0.417253
	O282	O	0.530058	0.461183	0.412433
	H283	H	0.527469	0.464160	0.417509
	H284	H	0.528937	0.455774	0.414837
	O285	O	0.542182	0.477821	0.393468
	H286	H	0.553413	0.480767	0.391501
	H287	H	0.541025	0.479688	0.380182
	O288	O	0.980898	0.042366	0.040545
	H289	H	0.980492	0.036375	0.034522
	H290	H	0.988464	0.039005	0.040225
	O291	O	-0.036598	1.009357	1.070527
	H292	H	-0.039073	1.010040	1.069419
	H293	H	-0.048654	1.012367	1.080162
	O294	O	0.579360	0.454548	0.397831
	H295	H	0.578330	0.450430	0.395592
	H296	H	0.587035	0.452502	0.393584
	O297	O	0.966616	0.052299	0.081725
	H298	H	0.963806	0.047781	0.080565
	H299	H	0.977478	0.057907	0.076282
