data_Molecule from HDF5

_cell_length_a		16.097536
_cell_length_b		16.472624
_cell_length_c		16.190031
_cell_angle_alpha	90.060518
_cell_angle_beta	89.592843
_cell_angle_gamma	89.856376
_symmetry_space_group_name_H-M	'P 1'
_symmetry_Int_Tables_number		1

loop_
	_symmetry_equiv_pos_as_xyz
	x,y,z

loop_
	_atom_site_label
	_atom_site_type_symbol
	_atom_site_fract_x
	_atom_site_fract_y
	_atom_site_fract_z
	H0	H	0.398935	0.836355	0.718651
	H1	H	0.595167	0.161461	0.717139
	H2	H	0.599854	0.836443	0.286275
	H3	H	0.400680	0.160567	0.288097
	H4	H	0.710700	0.401729	0.837482
	H5	H	0.708232	0.591706	0.168868
	H6	H	0.288799	0.594212	0.836837
	H7	H	0.286153	0.402985	0.167570
	H8	H	0.833628	0.714097	0.399119
	H9	H	0.161384	0.714838	0.601919
	H10	H	0.834351	0.283136	0.603572
	H11	H	0.162618	0.282475	0.399300
	H12	H	0.833127	0.401382	0.714789
	H13	H	0.163877	0.594223	0.712243
	H14	H	0.831386	0.591682	0.292302
	H15	H	0.163937	0.401319	0.288151
	H16	H	0.397239	0.716494	0.840241
	H17	H	0.599466	0.713482	0.166066
	H18	H	0.602419	0.280469	0.839808
	H19	H	0.396578	0.281582	0.165602
	H20	H	0.714432	0.836496	0.403532
	H21	H	0.711704	0.161892	0.598055
	H22	H	0.281997	0.836825	0.602155
	H23	H	0.285205	0.161541	0.406969
	H24	H	0.898991	0.335422	0.218122
	H25	H	0.095307	0.659807	0.217115
	H26	H	0.098802	0.335739	0.784814
	H27	H	0.898997	0.659354	0.787120
	H28	H	0.214030	0.901582	0.336805
	H29	H	0.205756	0.092739	0.667935
	H30	H	0.787904	0.093696	0.335749
	H31	H	0.786811	0.904458	0.666981
	H32	H	0.335138	0.213060	0.903012
	H33	H	0.663729	0.213561	0.102897
	H34	H	0.335098	0.781490	0.106609
	H35	H	0.663182	0.780384	0.899994
	H36	H	0.333163	0.902528	0.216338
	H37	H	0.665744	0.092970	0.212615
	H38	H	0.332535	0.093507	0.794188
	H39	H	0.664034	0.899278	0.788109
	H40	H	0.898524	0.214055	0.337895
	H41	H	0.099080	0.214833	0.664486
	H42	H	0.100949	0.781928	0.336994
	H43	H	0.892642	0.779722	0.663230
	H44	H	0.214563	0.334876	0.902832
	H45	H	0.212405	0.659945	0.100230
	H46	H	0.785154	0.333948	0.099269
	H47	H	0.783368	0.659583	0.905322
	H48	H	0.393134	0.116480	0.598283
	H49	H	0.598492	0.882023	0.595003
	H50	H	0.594231	0.116582	0.400597
	H51	H	0.408995	0.885256	0.413563
	H52	H	0.595511	0.402670	0.122710
	H53	H	0.585581	0.593088	0.886555
	H54	H	0.408627	0.590970	0.119095
	H55	H	0.409373	0.405749	0.886194
	H56	H	0.119832	0.596271	0.405947
	H57	H	0.880945	0.587894	0.593016
	H58	H	0.117274	0.409266	0.597925
	H59	H	0.880781	0.406751	0.410056
	H60	H	0.119671	0.396150	0.592052
	H61	H	0.878219	0.592778	0.597737
	H62	H	0.113511	0.591520	0.416351
	H63	H	0.877474	0.401903	0.407421
	H64	H	0.405224	0.592430	0.119997
	H65	H	0.594472	0.593114	0.883853
	H66	H	0.587246	0.407228	0.118513
	H67	H	0.410585	0.400852	0.884345
	H68	H	0.585358	0.111476	0.409544
	H69	H	0.589241	0.882682	0.602364
	H70	H	0.406491	0.115357	0.607784
	H71	H	0.402276	0.882917	0.411228
	H72	H	0.903740	0.611481	0.093531
	H73	H	0.092320	0.386308	0.082122
	H74	H	0.089844	0.611379	0.910301
	H75	H	0.910963	0.384607	0.910844
	H76	H	0.077472	0.901420	0.615628
	H77	H	0.092584	0.088224	0.384894
	H78	H	0.906245	0.100920	0.621260
	H79	H	0.905867	0.905174	0.383722
	H80	H	0.614737	0.097923	0.926633
	H81	H	0.382295	0.097932	0.087652
	H82	H	0.621584	0.890629	0.093800
	H83	H	0.382957	0.904232	0.921050
	H84	H	0.611926	0.908902	0.080382
	H85	H	0.384357	0.082161	0.095172
	H86	H	0.613851	0.073289	0.906885
	H87	H	0.382652	0.911385	0.909455
	H88	H	0.898437	0.089044	0.619859
	H89	H	0.087910	0.092812	0.384464
	H90	H	0.093387	0.897317	0.621780
	H91	H	0.909891	0.905397	0.384529
	H92	H	0.096383	0.613379	0.908594
	H93	H	0.103392	0.377053	0.100776
	H94	H	0.900705	0.613932	0.098150
	H95	H	0.898903	0.381166	0.911071
	H96	H	0.407542	0.110901	0.592876
	H97	H	0.588135	0.886798	0.590983
	H98	H	0.597795	0.113735	0.413591
	H99	H	0.408060	0.883152	0.406468
	H100	H	0.586724	0.397472	0.121715
	H101	H	0.590347	0.585615	0.886904
	H102	H	0.405691	0.589233	0.118931
	H103	H	0.405339	0.402236	0.883381
	H104	H	0.114694	0.584869	0.406389
	H105	H	0.879973	0.594957	0.590450
	H106	H	0.113452	0.406765	0.584276
	H107	H	0.880006	0.401479	0.413935
	H108	H	0.906548	0.611813	0.098727
	H109	H	0.081187	0.383564	0.103151
	H110	H	0.091168	0.613259	0.903920
	H111	H	0.905685	0.380436	0.900511
	H112	H	0.089977	0.913412	0.615793
	H113	H	0.093718	0.094334	0.382490
	H114	H	0.912740	0.088915	0.615448
	H115	H	0.908826	0.902216	0.382805
	H116	H	0.624987	0.100605	0.896261
	H117	H	0.376856	0.094853	0.104635
	H118	H	0.617762	0.912031	0.104292
	H119	H	0.378862	0.898523	0.908875
	C120	C	0.373948	0.007362	0.627378
	C121	C	0.620004	0.991152	0.623950
	C122	C	0.621884	0.006983	0.379211
	C123	C	0.377563	0.990617	0.381748
	C124	C	0.620136	0.374780	0.011953
	C125	C	0.619370	0.618682	0.994527
	C126	C	0.377446	0.619839	0.011079
	C127	C	0.378496	0.375761	0.993596
	C128	C	0.006553	0.618504	0.380900
	C129	C	0.988939	0.619419	0.622134
	C130	C	0.007338	0.376383	0.621689
	C131	C	0.989056	0.375655	0.380669
	C132	C	0.875627	0.505056	0.124703
	C133	C	0.120321	0.489357	0.123988
	C134	C	0.121675	0.505591	0.878813
	C135	C	0.876011	0.489008	0.879875
	C136	C	0.118538	0.876074	0.509347
	C137	C	0.118760	0.119656	0.492974
	C138	C	0.877539	0.120384	0.509930
	C139	C	0.877500	0.876453	0.492273
	C140	C	0.508118	0.118612	0.882617
	C141	C	0.490827	0.119253	0.123562
	C142	C	0.507885	0.876037	0.123474
	C143	C	0.490577	0.876049	0.882743
	C144	C	0.377540	0.884997	0.681491
	C145	C	0.616101	0.113101	0.678817
	C146	C	0.620075	0.885033	0.323979
	C147	C	0.380151	0.112389	0.326541
	C148	C	0.674445	0.379601	0.887274
	C149	C	0.672514	0.613885	0.118903
	C150	C	0.324307	0.616262	0.886868
	C151	C	0.323532	0.380998	0.118126
	C152	C	0.882489	0.674773	0.380876
	C153	C	0.112757	0.675689	0.620898
	C154	C	0.883469	0.321338	0.622148
	C155	C	0.113558	0.320810	0.380314
	C156	C	0.882841	0.380025	0.677668
	C157	C	0.114120	0.615700	0.675652
	C158	C	0.881266	0.613791	0.327966
	C159	C	0.114135	0.379924	0.325459
	C160	C	0.378169	0.676967	0.888561
	C161	C	0.618777	0.674668	0.117655
	C162	C	0.620510	0.319303	0.888441
	C163	C	0.378012	0.320591	0.117025
	C164	C	0.676561	0.884799	0.382703
	C165	C	0.673952	0.113393	0.619801
	C166	C	0.319418	0.885325	0.623527
	C167	C	0.322869	0.113030	0.385482
	C168	C	0.878757	0.383369	0.179696
	C169	C	0.116604	0.611389	0.179163
	C170	C	0.119352	0.383955	0.822953
	C171	C	0.878342	0.610956	0.825000
	C172	C	0.175784	0.879992	0.385912
	C173	C	0.170662	0.114964	0.617837
	C174	C	0.824046	0.115739	0.385385
	C175	C	0.822624	0.881430	0.616835
	C176	C	0.383888	0.174148	0.884578
	C177	C	0.614722	0.174681	0.122065
	C178	C	0.384024	0.820373	0.124776
	C179	C	0.614454	0.819736	0.881771
	C180	C	0.383186	0.880211	0.179562
	C181	C	0.615923	0.114968	0.176541
	C182	C	0.382443	0.114568	0.830318
	C183	C	0.614806	0.878497	0.826023
	C184	C	0.878907	0.175569	0.386472
	C185	C	0.117604	0.175739	0.616078
	C186	C	0.119722	0.820443	0.386018
	C187	C	0.875665	0.819835	0.615003
	C188	C	0.176832	0.383545	0.881748
	C189	C	0.174571	0.611442	0.120880
	C190	C	0.821943	0.382678	0.120783
	C191	C	0.821057	0.611080	0.884031
	C192	C	0.395829	0.092318	0.605995
	C193	C	0.598402	0.905792	0.602543
	C194	C	0.599264	0.091960	0.401289
	C195	C	0.399901	0.905677	0.403734
	C196	C	0.596703	0.396112	0.098555
	C197	C	0.596676	0.597071	0.908090
	C198	C	0.399917	0.597401	0.097098
	C199	C	0.401499	0.396848	0.906931
	C200	C	0.093495	0.597049	0.403132
	C201	C	0.902217	0.598097	0.600422
	C202	C	0.094446	0.397905	0.598182
	C203	C	0.901953	0.397099	0.403691
	C204	C	0.897169	0.590134	0.103171
	C205	C	0.098520	0.404393	0.102010
	C206	C	0.099339	0.590512	0.900965
	C207	C	0.898567	0.404022	0.901172
	C208	C	0.094182	0.897670	0.595441
	C209	C	0.097564	0.098300	0.406272
	C210	C	0.899381	0.099291	0.596502
	C211	C	0.901098	0.898088	0.405926
	C212	C	0.595234	0.096868	0.903531
	C213	C	0.403627	0.097894	0.102138
	C214	C	0.594704	0.897481	0.099789
	C215	C	0.404057	0.898173	0.906136
	Zn216	Zn	0.498388	-0.002314	0.755187
	Zn217	Zn	0.499454	-0.001767	0.250975
	Zn218	Zn	0.746564	0.496675	0.003077
	Zn219	Zn	0.250315	0.497583	0.001722
	Zn220	Zn	-0.002673	0.746807	0.500322
	Zn221	Zn	-0.001305	0.248354	0.501354
	Zn222	Zn	-0.001551	0.497719	0.749398
	Zn223	Zn	-0.002367	0.497352	0.254172
	Zn224	Zn	0.499212	0.747602	0.003328
	Zn225	Zn	0.499642	0.246841	0.002752
	Zn226	Zn	0.750418	-0.001261	0.501089
	Zn227	Zn	0.246522	-0.001276	0.502767
	N228	N	0.410783	0.961869	0.684331
	N229	N	0.583174	0.036010	0.681381
	N230	N	0.586593	0.962040	0.321728
	N231	N	0.413601	0.035404	0.324194
	N232	N	0.674314	0.413323	0.965133
	N233	N	0.672839	0.579625	0.041259
	N234	N	0.323617	0.581410	0.964028
	N235	N	0.323514	0.414555	0.040230
	N236	N	0.961378	0.677645	0.413157
	N237	N	0.033929	0.678192	0.588364
	N238	N	0.962027	0.318967	0.588148
	N239	N	0.034900	0.318133	0.413990
	N240	N	0.960989	0.413628	0.677447
	N241	N	0.036136	0.581750	0.676729
	N242	N	0.959392	0.579744	0.327768
	N243	N	0.035719	0.413450	0.325583
	N244	N	0.410380	0.679462	0.967009
	N245	N	0.586529	0.677747	0.039203
	N246	N	0.587234	0.316402	0.966868
	N247	N	0.411445	0.317255	0.038697
	N248	N	0.678118	0.961589	0.416139
	N249	N	0.676517	0.036521	0.586495
	N250	N	0.317093	0.962187	0.590682
	N251	N	0.321029	0.036370	0.419019
	N252	N	0.911502	0.460458	0.182198
	N253	N	0.083566	0.534546	0.181238
	N254	N	0.085414	0.460786	0.821181
	N255	N	0.911849	0.534104	0.822085
	N256	N	0.175336	0.913726	0.463729
	N257	N	0.171595	0.080763	0.540315
	N258	N	0.823088	0.082198	0.463138
	N259	N	0.823509	0.915794	0.539482
	N260	N	0.462963	0.176979	0.916176
	N261	N	0.535856	0.177276	0.089780
	N262	N	0.462516	0.817789	0.090640
	N263	N	0.536164	0.818146	0.916384
	N264	N	0.461134	0.914224	0.178859
	N265	N	0.537899	0.081019	0.177420
	N266	N	0.460516	0.080488	0.829050
	N267	N	0.536779	0.912788	0.826325
	N268	N	0.911191	0.178714	0.464951
	N269	N	0.085917	0.178599	0.537467
	N270	N	0.084983	0.817957	0.463846
	N271	N	0.909012	0.816720	0.536553
	N272	N	0.178354	0.459991	0.915755
	N273	N	0.177179	0.534613	0.087429
	N274	N	0.819776	0.459377	0.087515
	N275	N	0.819524	0.534379	0.917276
	O276	O	1.047485	0.952298	-0.077623
	H277	H	1.052154	0.949867	-0.087516
	H278	H	1.055712	0.951620	-0.076662
	O279	O	0.032407	-0.092993	-0.080727
	H280	H	0.037297	-0.098327	-0.083082
	H281	H	0.031684	-0.101700	-0.091626
	O282	O	0.026882	-0.015535	1.011677
	H283	H	0.020709	-0.016200	1.008367
	H284	H	0.026731	-0.010334	1.013043
	O285	O	0.478432	0.562016	0.471401
	H286	H	0.484503	0.559757	0.467810
	H287	H	0.484395	0.551778	0.474714
	O288	O	0.445553	0.547642	0.502390
	H289	H	0.448237	0.545410	0.489879
	H290	H	0.440775	0.550114	0.503312
	O291	O	0.486824	0.572709	0.544052
	H292	H	0.491847	0.580757	0.546004
	H293	H	0.486480	0.574933	0.540144
	O294	O	0.041910	0.007552	-0.059930
	H295	H	0.042217	0.009416	-0.065375
	H296	H	0.044617	0.002444	-0.063889
	O297	O	0.549110	0.579234	0.571472
	H298	H	0.549924	0.581247	0.578526
	H299	H	0.543881	0.581754	0.568813
	O300	O	0.026674	0.981844	0.982398
	H301	H	0.019979	0.991595	0.984113
	H302	H	0.033633	0.981445	0.984782
	O303	O	0.493145	0.530587	0.493864
	H304	H	0.488402	0.535859	0.500707
	H305	H	0.491076	0.536052	0.497824
	O306	O	0.048168	-0.010195	0.944191
	H307	H	0.039594	-0.011752	0.950915
	H308	H	0.051928	-0.007413	0.948136
	O309	O	1.085757	0.900247	0.947917
	H310	H	1.090225	0.906546	0.943802
	H311	H	1.077822	0.893681	0.955898
	O312	O	0.491401	0.560470	0.474427
	H313	H	0.485810	0.560836	0.483328
	H314	H	0.488885	0.556198	0.473357
	O315	O	0.481879	0.573254	0.529607
	H316	H	0.474844	0.571597	0.532490
	H317	H	0.477387	0.579353	0.518766
	O318	O	0.097563	0.909703	-0.045752
	H319	H	0.096461	0.912066	-0.044175
	H320	H	0.109169	0.909333	-0.050837
	O321	O	1.055485	0.923696	-0.090548
	H322	H	1.056817	0.912940	-0.104719
	H323	H	1.047313	0.928418	-0.088887
