data_Molecule from HDF5

_cell_length_a		16.234230
_cell_length_b		16.324040
_cell_length_c		16.275895
_cell_angle_alpha	90.272668
_cell_angle_beta	90.138028
_cell_angle_gamma	90.194090
_symmetry_space_group_name_H-M	'P 1'
_symmetry_Int_Tables_number		1

loop_
	_symmetry_equiv_pos_as_xyz
	x,y,z

loop_
	_atom_site_label
	_atom_site_type_symbol
	_atom_site_fract_x
	_atom_site_fract_y
	_atom_site_fract_z
	H0	H	0.398495	0.836974	0.710470
	H1	H	0.598700	0.162932	0.713793
	H2	H	0.595106	0.837925	0.280669
	H3	H	0.398786	0.163666	0.281291
	H4	H	0.710904	0.402472	0.833187
	H5	H	0.713001	0.600416	0.160904
	H6	H	0.284331	0.595764	0.832493
	H7	H	0.284695	0.403647	0.161504
	H8	H	0.833858	0.713024	0.398375
	H9	H	0.161693	0.717395	0.597354
	H10	H	0.834764	0.285715	0.595336
	H11	H	0.161940	0.286367	0.398512
	H12	H	0.834465	0.401812	0.711142
	H13	H	0.162628	0.601125	0.713187
	H14	H	0.833832	0.596304	0.284208
	H15	H	0.161915	0.401971	0.283014
	H16	H	0.398677	0.713195	0.832686
	H17	H	0.598527	0.718114	0.159707
	H18	H	0.594903	0.286531	0.833056
	H19	H	0.398466	0.286360	0.160456
	H20	H	0.711409	0.837615	0.396734
	H21	H	0.712613	0.163812	0.595443
	H22	H	0.283167	0.837265	0.593296
	H23	H	0.284391	0.163772	0.398945
	H24	H	0.899162	0.336397	0.210413
	H25	H	0.097438	0.663429	0.213122
	H26	H	0.096066	0.337080	0.781787
	H27	H	0.898367	0.663423	0.781987
	H28	H	0.210688	0.901550	0.332403
	H29	H	0.213767	0.100111	0.659949
	H30	H	0.784127	0.096653	0.333263
	H31	H	0.782827	0.902166	0.660687
	H32	H	0.333285	0.212464	0.898143
	H33	H	0.660944	0.216724	0.096709
	H34	H	0.333829	0.786911	0.093650
	H35	H	0.660955	0.784485	0.897159
	H36	H	0.333606	0.902467	0.208876
	H37	H	0.661647	0.099604	0.210943
	H38	H	0.334146	0.096388	0.782868
	H39	H	0.662652	0.902034	0.782697
	H40	H	0.900080	0.212923	0.333703
	H41	H	0.098484	0.215989	0.660483
	H42	H	0.095476	0.784952	0.334022
	H43	H	0.898907	0.786280	0.661337
	H44	H	0.210154	0.336161	0.899145
	H45	H	0.213097	0.663757	0.096130
	H46	H	0.781863	0.337664	0.095364
	H47	H	0.783445	0.664397	0.899177
	H48	H	0.411493	0.113102	0.585509
	H49	H	0.596550	0.882710	0.589009
	H50	H	0.583909	0.116368	0.400705
	H51	H	0.407653	0.883934	0.398097
	H52	H	0.586048	0.407386	0.112624
	H53	H	0.587158	0.593277	0.881300
	H54	H	0.413054	0.591240	0.110449
	H55	H	0.405835	0.405845	0.880551
	H56	H	0.114455	0.593886	0.406378
	H57	H	0.880655	0.596342	0.590567
	H58	H	0.110027	0.417462	0.579789
	H59	H	0.878912	0.397295	0.405086
	H60	H	0.117509	0.413378	0.602697
	H61	H	0.883063	0.592279	0.587053
	H62	H	0.114507	0.592396	0.404926
	H63	H	0.884636	0.411380	0.408888
	H64	H	0.403844	0.604031	0.115528
	H65	H	0.591729	0.592847	0.880561
	H66	H	0.592060	0.406558	0.114487
	H67	H	0.402523	0.403985	0.879118
	H68	H	0.592835	0.114913	0.411253
	H69	H	0.586332	0.883830	0.595365
	H70	H	0.398625	0.118657	0.587964
	H71	H	0.405805	0.885702	0.406430
	H72	H	0.910096	0.614350	0.088485
	H73	H	0.077354	0.390746	0.081321
	H74	H	0.097826	0.619103	0.901558
	H75	H	0.895273	0.386030	0.916224
	H76	H	0.085817	0.913865	0.610413
	H77	H	0.088628	0.096094	0.380563
	H78	H	0.905198	0.092017	0.613883
	H79	H	0.893479	0.900901	0.375865
	H80	H	0.616280	0.098511	0.905157
	H81	H	0.381780	0.093092	0.085156
	H82	H	0.618404	0.909644	0.101516
	H83	H	0.381610	0.907576	0.904809
	H84	H	0.616834	0.896874	0.081732
	H85	H	0.381051	0.089856	0.091826
	H86	H	0.613478	0.093187	0.908921
	H87	H	0.380734	0.907071	0.900992
	H88	H	0.907114	0.093973	0.613175
	H89	H	0.093782	0.093231	0.378993
	H90	H	0.088195	0.902711	0.614666
	H91	H	0.904589	0.918302	0.384872
	H92	H	0.085269	0.615976	0.901628
	H93	H	0.106978	0.382123	0.082191
	H94	H	0.902487	0.617080	0.088564
	H95	H	0.898429	0.378928	0.890029
	H96	H	0.408185	0.118166	0.598626
	H97	H	0.586229	0.886856	0.583350
	H98	H	0.596935	0.121156	0.398848
	H99	H	0.399336	0.882715	0.401367
	H100	H	0.590378	0.412308	0.112158
	H101	H	0.589419	0.589380	0.882572
	H102	H	0.397751	0.589204	0.114547
	H103	H	0.402400	0.407523	0.880631
	H104	H	0.115910	0.594105	0.404289
	H105	H	0.881781	0.590432	0.591966
	H106	H	0.117813	0.395818	0.586102
	H107	H	0.878813	0.408167	0.394780
	H108	H	0.906935	0.616991	0.095719
	H109	H	0.089040	0.379910	0.107291
	H110	H	0.092175	0.614421	0.912367
	H111	H	0.919262	0.389303	0.904480
	H112	H	0.097032	0.911323	0.614556
	H113	H	0.089072	0.090237	0.381877
	H114	H	0.904464	0.094625	0.614677
	H115	H	0.914920	0.898063	0.381769
	H116	H	0.615413	0.091996	0.902246
	H117	H	0.378677	0.097196	0.090498
	H118	H	0.608979	0.919697	0.081628
	H119	H	0.381059	0.903891	0.902928
	C120	C	0.376581	0.008803	0.618798
	C121	C	0.619614	0.992046	0.618520
	C122	C	0.619213	0.009501	0.374637
	C123	C	0.375937	0.992070	0.374054
	C124	C	0.618684	0.379261	0.005193
	C125	C	0.619168	0.621791	0.988892
	C126	C	0.376312	0.621735	0.005017
	C127	C	0.375408	0.378222	0.988487
	C128	C	0.006463	0.621525	0.376347
	C129	C	0.989838	0.622671	0.619207
	C130	C	0.006833	0.379741	0.617945
	C131	C	0.989538	0.377900	0.375037
	C132	C	0.877066	0.508413	0.118789
	C133	C	0.119944	0.492221	0.119019
	C134	C	0.119589	0.508656	0.875854
	C135	C	0.875724	0.492703	0.875353
	C136	C	0.119070	0.879668	0.505357
	C137	C	0.120158	0.122557	0.488339
	C138	C	0.876856	0.121532	0.505471
	C139	C	0.875619	0.877899	0.488913
	C140	C	0.506458	0.121514	0.876531
	C141	C	0.488639	0.122708	0.118549
	C142	C	0.506476	0.879842	0.116952
	C143	C	0.489459	0.878005	0.874288
	C144	C	0.378206	0.886057	0.673188
	C145	C	0.618483	0.114538	0.675031
	C146	C	0.616434	0.886836	0.318304
	C147	C	0.378828	0.114973	0.319453
	C148	C	0.673765	0.381627	0.882281
	C149	C	0.675143	0.620817	0.111931
	C150	C	0.321675	0.617273	0.881482
	C151	C	0.321357	0.381941	0.112181
	C152	C	0.883190	0.675961	0.378176
	C153	C	0.113275	0.678528	0.617656
	C154	C	0.883518	0.323926	0.615622
	C155	C	0.112856	0.323719	0.377954
	C156	C	0.883284	0.381670	0.673020
	C157	C	0.113322	0.620961	0.675222
	C158	C	0.883023	0.617575	0.321640
	C159	C	0.112963	0.381195	0.320600
	C160	C	0.378322	0.675714	0.881600
	C161	C	0.617943	0.678947	0.111385
	C162	C	0.616193	0.323828	0.882219
	C163	C	0.377894	0.323667	0.111551
	C164	C	0.673810	0.886457	0.376556
	C165	C	0.675159	0.114903	0.616303
	C166	C	0.320690	0.886066	0.615018
	C167	C	0.321740	0.115183	0.377677
	C168	C	0.878646	0.385523	0.173326
	C169	C	0.117947	0.614733	0.175089
	C170	C	0.116326	0.385686	0.820151
	C171	C	0.878049	0.614906	0.820126
	C172	C	0.173439	0.881502	0.381810
	C173	C	0.176062	0.120660	0.611225
	C174	C	0.821996	0.117695	0.382263
	C175	C	0.820401	0.880997	0.611873
	C176	C	0.382600	0.175303	0.878145
	C177	C	0.611970	0.179002	0.117129
	C178	C	0.382676	0.824404	0.114397
	C179	C	0.612583	0.822878	0.876737
	C180	C	0.382819	0.882004	0.171409
	C181	C	0.612432	0.120575	0.173725
	C182	C	0.382853	0.117583	0.820922
	C183	C	0.613145	0.880898	0.819679
	C184	C	0.879438	0.175506	0.382498
	C185	C	0.118677	0.178281	0.611457
	C186	C	0.116687	0.823130	0.382602
	C187	C	0.878150	0.823501	0.612194
	C188	C	0.173028	0.385285	0.878428
	C189	C	0.175108	0.615021	0.116714
	C190	C	0.820711	0.385969	0.115820
	C191	C	0.820902	0.615315	0.878602
	C192	C	0.399448	0.094584	0.597133
	C193	C	0.596555	0.906600	0.595838
	C194	C	0.597479	0.095283	0.397089
	C195	C	0.397694	0.906349	0.395716
	C196	C	0.596103	0.402122	0.090980
	C197	C	0.596233	0.598685	0.903466
	C198	C	0.398448	0.600992	0.091134
	C199	C	0.397287	0.399489	0.902258
	C200	C	0.092621	0.599831	0.398795
	C201	C	0.904112	0.599822	0.596444
	C202	C	0.092808	0.402356	0.595990
	C203	C	0.902974	0.399338	0.396667
	C204	C	0.899845	0.594127	0.097317
	C205	C	0.097817	0.406547	0.096817
	C206	C	0.098071	0.594312	0.898369
	C207	C	0.897850	0.406778	0.897098
	C208	C	0.096928	0.902705	0.590986
	C209	C	0.097150	0.099953	0.402639
	C210	C	0.899127	0.099925	0.591739
	C211	C	0.897701	0.899270	0.402931
	C212	C	0.592632	0.100705	0.898947
	C213	C	0.402734	0.100031	0.095944
	C214	C	0.592477	0.901989	0.094694
	C215	C	0.403377	0.899823	0.896212
	Zn216	Zn	0.498629	0.000497	0.747676
	Zn217	Zn	0.497564	0.000772	0.245607
	Zn218	Zn	0.747871	0.500557	-0.002379
	Zn219	Zn	0.248339	0.500081	-0.002992
	Zn220	Zn	-0.001928	0.750287	0.497876
	Zn221	Zn	-0.001659	0.250563	0.497008
	Zn222	Zn	-0.001737	0.500737	0.746907
	Zn223	Zn	-0.001911	0.499830	0.247719
	Zn224	Zn	0.497862	0.750627	-0.003470
	Zn225	Zn	0.497010	0.250307	-0.003088
	Zn226	Zn	0.747540	0.000153	0.497111
	Zn227	Zn	0.248345	0.000898	0.496292
	N228	N	0.412224	0.963305	0.675510
	N229	N	0.584494	0.037199	0.676426
	N230	N	0.583045	0.964086	0.317408
	N231	N	0.411633	0.037340	0.317139
	N232	N	0.675435	0.415333	0.960032
	N233	N	0.675876	0.585981	0.034867
	N234	N	0.320453	0.584419	0.959069
	N235	N	0.319578	0.415048	0.034578
	N236	N	0.960959	0.678243	0.411994
	N237	N	0.035715	0.679557	0.583564
	N238	N	0.961196	0.322708	0.582050
	N239	N	0.034910	0.321538	0.410832
	N240	N	0.960834	0.415868	0.674452
	N241	N	0.035557	0.586851	0.676356
	N242	N	0.960706	0.584450	0.320322
	N243	N	0.035151	0.414261	0.318843
	N244	N	0.411790	0.678686	0.959332
	N245	N	0.583924	0.679771	0.033817
	N246	N	0.582709	0.322357	0.959595
	N247	N	0.410651	0.321295	0.033696
	N248	N	0.675980	0.963862	0.410590
	N249	N	0.675893	0.037742	0.582086
	N250	N	0.319768	0.963415	0.581784
	N251	N	0.319755	0.037766	0.410780
	N252	N	0.913302	0.462682	0.175072
	N253	N	0.084175	0.537413	0.176608
	N254	N	0.083595	0.463307	0.818558
	N255	N	0.911660	0.537784	0.818247
	N256	N	0.175200	0.915915	0.459121
	N257	N	0.177088	0.086541	0.533717
	N258	N	0.820518	0.084803	0.459879
	N259	N	0.818706	0.913998	0.534361
	N260	N	0.460266	0.177494	0.912183
	N261	N	0.534092	0.180130	0.083291
	N262	N	0.460571	0.822847	0.080934
	N263	N	0.534786	0.820826	0.909776
	N264	N	0.460496	0.915544	0.173172
	N265	N	0.534983	0.086169	0.174414
	N266	N	0.460798	0.084941	0.819519
	N267	N	0.535446	0.914340	0.818193
	N268	N	0.912800	0.177969	0.460248
	N269	N	0.084693	0.179563	0.533970
	N270	N	0.083624	0.821731	0.460309
	N271	N	0.911761	0.821470	0.534555
	N272	N	0.175218	0.462556	0.912376
	N273	N	0.176598	0.537838	0.082748
	N274	N	0.819766	0.463306	0.082719
	N275	N	0.819422	0.537977	0.912138
	O276	O	0.049667	-0.008157	1.036411
	H277	H	0.046598	-0.007195	1.037606
	H278	H	0.050173	-0.010535	1.037703
	O279	O	0.559175	0.567355	0.545562
	H280	H	0.551502	0.561047	0.543821
	H281	H	0.556073	0.569273	0.546763
	O282	O	0.604906	0.574140	0.547449
	H283	H	0.605761	0.576996	0.556416
	H284	H	0.611340	0.579424	0.543948
	O285	O	0.542483	0.563754	0.566378
	H286	H	0.544846	0.567881	0.567369
	H287	H	0.543495	0.564147	0.560123
	O288	O	0.535076	0.536759	0.512366
	H289	H	0.542357	0.539154	0.511091
	H290	H	0.534490	0.532944	0.517633
	O291	O	0.040353	1.003184	1.026927
	H292	H	0.043779	1.004819	1.021075
	H293	H	0.043375	1.000051	1.030994
	O294	O	0.598827	0.518364	0.509161
	H295	H	0.603602	0.520184	0.514111
	H296	H	0.603831	0.521610	0.509830
	O297	O	1.050823	-0.007882	0.015680
	H298	H	1.057063	-0.005520	0.020819
	H299	H	1.056084	-0.013729	0.006534
