data_Molecule from HDF5

_cell_length_a		16.333501
_cell_length_b		16.228442
_cell_length_c		16.262816
_cell_angle_alpha	89.985948
_cell_angle_beta	90.038877
_cell_angle_gamma	90.029677
_symmetry_space_group_name_H-M	'P 1'
_symmetry_Int_Tables_number		1

loop_
	_symmetry_equiv_pos_as_xyz
	x,y,z

loop_
	_atom_site_label
	_atom_site_type_symbol
	_atom_site_fract_x
	_atom_site_fract_y
	_atom_site_fract_z
	H0	H	0.402234	0.836074	0.713035
	H1	H	0.597627	0.164534	0.713539
	H2	H	0.597644	0.835804	0.286745
	H3	H	0.402510	0.164137	0.286148
	H4	H	0.713696	0.401149	0.836631
	H5	H	0.714892	0.599330	0.163555
	H6	H	0.284038	0.598939	0.836565
	H7	H	0.284714	0.400746	0.163711
	H8	H	0.836228	0.713310	0.402734
	H9	H	0.164045	0.713355	0.597482
	H10	H	0.836665	0.286129	0.597641
	H11	H	0.164389	0.287421	0.403369
	H12	H	0.836838	0.401570	0.714493
	H13	H	0.162819	0.598138	0.715364
	H14	H	0.836105	0.597398	0.285625
	H15	H	0.163284	0.401719	0.284927
	H16	H	0.401621	0.713719	0.836031
	H17	H	0.596693	0.713576	0.164478
	H18	H	0.595204	0.287259	0.835020
	H19	H	0.402440	0.285981	0.164107
	H20	H	0.714757	0.836348	0.402227
	H21	H	0.715501	0.164051	0.599369
	H22	H	0.285850	0.836259	0.599155
	H23	H	0.284670	0.163343	0.399498
	H24	H	0.901191	0.336219	0.213801
	H25	H	0.096907	0.663827	0.213349
	H26	H	0.096878	0.335326	0.786950
	H27	H	0.902665	0.664116	0.787359
	H28	H	0.214886	0.901355	0.336215
	H29	H	0.215068	0.098578	0.664463
	H30	H	0.785047	0.100690	0.336520
	H31	H	0.785872	0.901844	0.663696
	H32	H	0.336184	0.213661	0.902181
	H33	H	0.663776	0.214335	0.096690
	H34	H	0.336100	0.787229	0.096673
	H35	H	0.662773	0.784946	0.901437
	H36	H	0.337278	0.901664	0.215007
	H37	H	0.663986	0.099160	0.213870
	H38	H	0.336477	0.098438	0.784533
	H39	H	0.663054	0.901657	0.785251
	H40	H	0.903660	0.213622	0.336102
	H41	H	0.097947	0.213993	0.664471
	H42	H	0.096971	0.786049	0.335877
	H43	H	0.903509	0.786424	0.664062
	H44	H	0.213968	0.335870	0.901917
	H45	H	0.214700	0.663460	0.099714
	H46	H	0.784677	0.336445	0.098940
	H47	H	0.785381	0.664087	0.901677
	H48	H	0.406190	0.116070	0.589231
	H49	H	0.598264	0.882539	0.590730
	H50	H	0.596634	0.119000	0.404785
	H51	H	0.409320	0.879418	0.393862
	H52	H	0.592572	0.412675	0.115427
	H53	H	0.591990	0.591004	0.883954
	H54	H	0.415618	0.595598	0.115089
	H55	H	0.410833	0.403773	0.883758
	H56	H	0.117220	0.595997	0.407767
	H57	H	0.886323	0.591037	0.586514
	H58	H	0.113323	0.413500	0.592341
	H59	H	0.886338	0.412734	0.406802
	H60	H	0.119135	0.405799	0.600977
	H61	H	0.883143	0.588338	0.600324
	H62	H	0.114196	0.589647	0.408447
	H63	H	0.881437	0.403965	0.399818
	H64	H	0.400189	0.599663	0.120184
	H65	H	0.592049	0.594608	0.883199
	H66	H	0.588489	0.402083	0.116963
	H67	H	0.401249	0.404373	0.881406
	H68	H	0.589399	0.116583	0.405600
	H69	H	0.593968	0.881817	0.597349
	H70	H	0.404366	0.118854	0.594561
	H71	H	0.417837	0.888841	0.415247
	H72	H	0.911319	0.616307	0.094498
	H73	H	0.098593	0.382343	0.087831
	H74	H	0.098880	0.617777	0.909297
	H75	H	0.903101	0.382887	0.909061
	H76	H	0.083165	0.905746	0.614021
	H77	H	0.097892	0.090167	0.383217
	H78	H	0.910191	0.103360	0.619243
	H79	H	0.900602	0.911577	0.383270
	H80	H	0.618173	0.094763	0.899435
	H81	H	0.385397	0.089457	0.090699
	H82	H	0.615643	0.905368	0.089649
	H83	H	0.381341	0.902598	0.903119
	H84	H	0.615319	0.911032	0.094228
	H85	H	0.382909	0.091486	0.099175
	H86	H	0.616291	0.099282	0.910163
	H87	H	0.385076	0.906348	0.911945
	H88	H	0.895954	0.090970	0.619022
	H89	H	0.090003	0.091096	0.385402
	H90	H	0.100076	0.898436	0.620599
	H91	H	0.913988	0.909840	0.385447
	H92	H	0.089538	0.617514	0.901582
	H93	H	0.092638	0.381017	0.099408
	H94	H	0.904972	0.616265	0.087778
	H95	H	0.905902	0.381359	0.904344
	H96	H	0.410084	0.116755	0.593691
	H97	H	0.590591	0.884391	0.590573
	H98	H	0.594159	0.115837	0.411382
	H99	H	0.394228	0.881060	0.413647
	H100	H	0.599074	0.404781	0.119285
	H101	H	0.595053	0.592758	0.882569
	H102	H	0.403921	0.583477	0.115234
	H103	H	0.405566	0.412595	0.884656
	H104	H	0.116639	0.591598	0.402618
	H105	H	0.880335	0.601144	0.595087
	H106	H	0.116818	0.401515	0.588978
	H107	H	0.883551	0.401506	0.411673
	H108	H	0.902751	0.619129	0.096270
	H109	H	0.086263	0.385506	0.089338
	H110	H	0.088365	0.612833	0.913322
	H111	H	0.908505	0.383886	0.908457
	H112	H	0.099377	0.917168	0.615420
	H113	H	0.094388	0.097658	0.382334
	H114	H	0.913120	0.085470	0.613234
	H115	H	0.906446	0.899743	0.381366
	H116	H	0.614023	0.087966	0.907073
	H117	H	0.383151	0.098095	0.092673
	H118	H	0.617794	0.904868	0.096611
	H119	H	0.384505	0.912765	0.903803
	C120	C	0.378650	0.008615	0.620968
	C121	C	0.621948	0.991529	0.621051
	C122	C	0.622054	0.008866	0.378720
	C123	C	0.378830	0.991589	0.378601
	C124	C	0.621210	0.378404	0.008472
	C125	C	0.621189	0.621660	0.991815
	C126	C	0.377836	0.621611	0.008390
	C127	C	0.377828	0.378159	0.991673
	C128	C	0.008138	0.621370	0.377608
	C129	C	0.991336	0.621477	0.621970
	C130	C	0.008576	0.378503	0.622182
	C131	C	0.992094	0.377916	0.377900
	C132	C	0.878037	0.508809	0.121136
	C133	C	0.121048	0.491076	0.121085
	C134	C	0.121017	0.508016	0.879384
	C135	C	0.877881	0.491498	0.878854
	C136	C	0.122367	0.878316	0.508411
	C137	C	0.122065	0.121390	0.492193
	C138	C	0.878698	0.121792	0.508669
	C139	C	0.878655	0.878767	0.491416
	C140	C	0.508152	0.122044	0.877712
	C141	C	0.492074	0.121453	0.121715
	C142	C	0.508285	0.878613	0.121551
	C143	C	0.491392	0.878747	0.878292
	C144	C	0.381734	0.884945	0.675629
	C145	C	0.618710	0.115519	0.675898
	C146	C	0.618913	0.884997	0.323977
	C147	C	0.381822	0.115196	0.323778
	C148	C	0.675903	0.380936	0.885221
	C149	C	0.676568	0.619416	0.114902
	C150	C	0.322418	0.619124	0.885314
	C151	C	0.322961	0.380386	0.114914
	C152	C	0.885022	0.675601	0.381452
	C153	C	0.115038	0.675657	0.618337
	C154	C	0.885508	0.323868	0.618631
	C155	C	0.115218	0.324469	0.382071
	C156	C	0.885403	0.381461	0.676374
	C157	C	0.114518	0.618626	0.677047
	C158	C	0.884946	0.617987	0.323365
	C159	C	0.114833	0.381231	0.323164
	C160	C	0.380730	0.676231	0.885066
	C161	C	0.618015	0.676191	0.115281
	C162	C	0.617098	0.324382	0.884523
	C163	C	0.381390	0.323436	0.115077
	C164	C	0.676842	0.885215	0.381185
	C165	C	0.676990	0.115344	0.619056
	C166	C	0.324091	0.885051	0.618788
	C167	C	0.323424	0.114619	0.380307
	C168	C	0.880932	0.384939	0.175767
	C169	C	0.117929	0.614973	0.175858
	C170	C	0.118004	0.384251	0.824706
	C171	C	0.881270	0.614918	0.824203
	C172	C	0.177258	0.880597	0.385011
	C173	C	0.177212	0.118943	0.615513
	C174	C	0.823888	0.120040	0.385246
	C175	C	0.824145	0.881321	0.614992
	C176	C	0.384944	0.176344	0.881217
	C177	C	0.615158	0.176484	0.117956
	C178	C	0.385156	0.824117	0.118149
	C179	C	0.614219	0.823158	0.881012
	C180	C	0.385721	0.881053	0.176729
	C181	C	0.615205	0.119071	0.176013
	C182	C	0.385365	0.119239	0.822356
	C183	C	0.614327	0.880902	0.823113
	C184	C	0.882282	0.176501	0.385107
	C185	C	0.119093	0.176235	0.615594
	C186	C	0.118573	0.823639	0.384806
	C187	C	0.882647	0.824282	0.615245
	C188	C	0.175993	0.384620	0.881768
	C189	C	0.176394	0.614577	0.119538
	C190	C	0.823042	0.385202	0.118805
	C191	C	0.823076	0.614874	0.881198
	C192	C	0.400674	0.095046	0.598828
	C193	C	0.600579	0.905282	0.599457
	C194	C	0.600104	0.094957	0.400719
	C195	C	0.400929	0.905262	0.401030
	C196	C	0.599675	0.399974	0.094948
	C197	C	0.599586	0.599507	0.905510
	C198	C	0.400089	0.599402	0.094656
	C199	C	0.399476	0.400416	0.905576
	C200	C	0.093795	0.599031	0.399694
	C201	C	0.905508	0.599985	0.600407
	C202	C	0.094369	0.400329	0.600634
	C203	C	0.905950	0.399751	0.399557
	C204	C	0.899882	0.594945	0.099212
	C205	C	0.098971	0.405088	0.098852
	C206	C	0.098780	0.593960	0.901554
	C207	C	0.899437	0.404926	0.900789
	C208	C	0.100712	0.900574	0.594465
	C209	C	0.100343	0.099435	0.406036
	C210	C	0.900145	0.099744	0.594845
	C211	C	0.900396	0.900806	0.405519
	C212	C	0.594003	0.100454	0.899245
	C213	C	0.406085	0.099653	0.100453
	C214	C	0.594247	0.900589	0.099897
	C215	C	0.405730	0.900880	0.899793
	Zn216	Zn	0.500058	-0.000146	0.748925
	Zn217	Zn	0.500423	0.000085	0.250583
	Zn218	Zn	0.749585	0.499907	0.000053
	Zn219	Zn	0.249476	0.499675	0.000375
	Zn220	Zn	0.000094	0.750027	0.499834
	Zn221	Zn	0.000318	0.249840	0.500493
	Zn222	Zn	-0.000000	0.499857	0.750801
	Zn223	Zn	-0.000002	0.499756	0.248861
	Zn224	Zn	0.499493	0.750112	-0.000109
	Zn225	Zn	0.499671	0.250103	0.000030
	Zn226	Zn	0.750447	0.000481	0.500003
	Zn227	Zn	0.250980	0.000163	0.499975
	N228	N	0.415099	0.962830	0.677121
	N229	N	0.585142	0.037751	0.677249
	N230	N	0.585274	0.962696	0.322537
	N231	N	0.415558	0.037543	0.322659
	N232	N	0.678507	0.413758	0.963277
	N233	N	0.678556	0.586129	0.037143
	N234	N	0.320476	0.586013	0.963159
	N235	N	0.320832	0.413747	0.037185
	N236	N	0.962464	0.677619	0.414516
	N237	N	0.037556	0.677686	0.584979
	N238	N	0.962931	0.322245	0.585378
	N239	N	0.037814	0.322395	0.415330
	N240	N	0.962917	0.414514	0.678895
	N241	N	0.036971	0.585575	0.679168
	N242	N	0.962695	0.585303	0.320716
	N243	N	0.036964	0.413547	0.320433
	N244	N	0.414473	0.677767	0.962546
	N245	N	0.584300	0.677597	0.037610
	N246	N	0.584022	0.322675	0.962317
	N247	N	0.414789	0.322009	0.037416
	N248	N	0.679013	0.963040	0.414405
	N249	N	0.679092	0.037545	0.585669
	N250	N	0.322132	0.962991	0.585795
	N251	N	0.321653	0.036808	0.413728
	N252	N	0.914545	0.462604	0.177138
	N253	N	0.083994	0.537344	0.176815
	N254	N	0.084461	0.461891	0.823165
	N255	N	0.914646	0.537208	0.822718
	N256	N	0.179685	0.913933	0.462824
	N257	N	0.179047	0.085401	0.537781
	N258	N	0.821321	0.086745	0.463009
	N259	N	0.821498	0.914363	0.537160
	N260	N	0.462182	0.177985	0.914763
	N261	N	0.537458	0.178327	0.085160
	N262	N	0.462404	0.822743	0.084607
	N263	N	0.536953	0.821808	0.914427
	N264	N	0.463155	0.914408	0.178797
	N265	N	0.537802	0.085523	0.178334
	N266	N	0.462829	0.086016	0.820250
	N267	N	0.537096	0.914679	0.821272
	N268	N	0.915631	0.177622	0.462784
	N269	N	0.085619	0.177875	0.537994
	N270	N	0.085417	0.822061	0.462444
	N271	N	0.915676	0.822420	0.537470
	N272	N	0.177867	0.462522	0.914896
	N273	N	0.178510	0.536804	0.086338
	N274	N	0.821064	0.463125	0.085601
	N275	N	0.821203	0.537059	0.914640
