data_Molecule from HDF5

_cell_length_a		16.530140
_cell_length_b		16.596645
_cell_length_c		16.484051
_cell_angle_alpha	90.085237
_cell_angle_beta	89.940958
_cell_angle_gamma	90.190980
_symmetry_space_group_name_H-M	'P 1'
_symmetry_Int_Tables_number		1

loop_
	_symmetry_equiv_pos_as_xyz
	x,y,z

loop_
	_atom_site_label
	_atom_site_type_symbol
	_atom_site_fract_x
	_atom_site_fract_y
	_atom_site_fract_z
	H0	H	0.402931	0.854413	0.725898
	H1	H	0.616323	0.165779	0.727278
	H2	H	0.613492	0.854252	0.282145
	H3	H	0.404568	0.166941	0.282763
	H4	H	0.727967	0.405948	0.844376
	H5	H	0.726560	0.611655	0.162050
	H6	H	0.286700	0.616584	0.846746
	H7	H	0.287314	0.406423	0.160606
	H8	H	0.853646	0.731998	0.397260
	H9	H	0.164640	0.731486	0.609681
	H10	H	0.852495	0.287073	0.609725
	H11	H	0.165933	0.289460	0.397423
	H12	H	0.850727	0.404118	0.724466
	H13	H	0.164563	0.615117	0.724754
	H14	H	0.850973	0.611584	0.285377
	H15	H	0.167440	0.407745	0.283604
	H16	H	0.405698	0.730905	0.846187
	H17	H	0.610805	0.728013	0.162190
	H18	H	0.612675	0.288178	0.845726
	H19	H	0.401388	0.289471	0.161147
	H20	H	0.732065	0.855247	0.396199
	H21	H	0.733277	0.165556	0.611004
	H22	H	0.284512	0.855564	0.611062
	H23	H	0.288100	0.166798	0.398566
	H24	H	0.904152	0.352390	0.222932
	H25	H	0.112528	0.665981	0.224143
	H26	H	0.113389	0.352902	0.780528
	H27	H	0.904634	0.666226	0.783000
	H28	H	0.226233	0.910321	0.345984
	H29	H	0.230743	0.116602	0.661980
	H30	H	0.789790	0.112368	0.345651
	H31	H	0.782853	0.901154	0.658656
	H32	H	0.351544	0.230573	0.897521
	H33	H	0.664144	0.233377	0.109919
	H34	H	0.350396	0.791389	0.105279
	H35	H	0.666268	0.788856	0.897472
	H36	H	0.349765	0.909630	0.221096
	H37	H	0.666374	0.113429	0.222342
	H38	H	0.352012	0.114486	0.781596
	H39	H	0.665255	0.902599	0.779717
	H40	H	0.906816	0.228836	0.345978
	H41	H	0.115483	0.233170	0.661929
	H42	H	0.112775	0.790258	0.347059
	H43	H	0.899990	0.785461	0.659227
	H44	H	0.231258	0.353819	0.895415
	H45	H	0.229461	0.666276	0.107505
	H46	H	0.786346	0.353656	0.107934
	H47	H	0.789484	0.667894	0.900720
	H48	H	0.423602	0.120266	0.589230
	H49	H	0.593693	0.900298	0.590891
	H50	H	0.599283	0.123101	0.411130
	H51	H	0.422404	0.896979	0.407601
	H52	H	0.587588	0.423582	0.111478
	H53	H	0.598465	0.598700	0.890517
	H54	H	0.417098	0.599584	0.116905
	H55	H	0.420745	0.419280	0.890341
	H56	H	0.120720	0.596976	0.414830
	H57	H	0.896130	0.593604	0.594818
	H58	H	0.120086	0.424956	0.593947
	H59	H	0.895130	0.415536	0.413136
	H60	H	0.121677	0.418375	0.593364
	H61	H	0.893761	0.601804	0.592085
	H62	H	0.123461	0.599666	0.409576
	H63	H	0.897356	0.419124	0.415545
	H64	H	0.420910	0.598575	0.115131
	H65	H	0.599048	0.602912	0.888725
	H66	H	0.598642	0.412181	0.118981
	H67	H	0.419317	0.421587	0.891257
	H68	H	0.596594	0.120898	0.415507
	H69	H	0.597230	0.899735	0.588085
	H70	H	0.417310	0.122580	0.591704
	H71	H	0.421984	0.902554	0.420516
	H72	H	0.913910	0.625488	0.100033
	H73	H	0.099906	0.396105	0.094898
	H74	H	0.105246	0.622038	0.917834
	H75	H	0.919585	0.398022	0.913677
	H76	H	0.094438	0.923289	0.616729
	H77	H	0.099713	0.093749	0.394648
	H78	H	0.924505	0.094232	0.613292
	H79	H	0.922272	0.924713	0.393422
	H80	H	0.619372	0.096664	0.916625
	H81	H	0.395246	0.108344	0.086346
	H82	H	0.625917	0.915996	0.101630
	H83	H	0.399174	0.920749	0.919486
	H84	H	0.621533	0.914147	0.087464
	H85	H	0.399761	0.088531	0.090566
	H86	H	0.620470	0.099534	0.916027
	H87	H	0.398033	0.923832	0.913294
	H88	H	0.923555	0.102747	0.616740
	H89	H	0.092657	0.103773	0.392632
	H90	H	0.096313	0.917867	0.618042
	H91	H	0.923788	0.918906	0.391525
	H92	H	0.096204	0.622507	0.906550
	H93	H	0.093400	0.398803	0.092648
	H94	H	0.923549	0.620881	0.095999
	H95	H	0.918944	0.399190	0.916021
	H96	H	0.422660	0.122182	0.596436
	H97	H	0.597753	0.897937	0.592147
	H98	H	0.601831	0.123456	0.415947
	H99	H	0.410114	0.896465	0.414935
	H100	H	0.603809	0.428071	0.115250
	H101	H	0.602579	0.600299	0.888393
	H102	H	0.420030	0.602570	0.116841
	H103	H	0.421862	0.421335	0.891403
	H104	H	0.122472	0.602847	0.415475
	H105	H	0.897419	0.596343	0.586750
	H106	H	0.119391	0.421710	0.587431
	H107	H	0.895793	0.419803	0.410761
	H108	H	0.914102	0.621397	0.089518
	H109	H	0.099362	0.398240	0.088250
	H110	H	0.091776	0.616741	0.918712
	H111	H	0.917252	0.397844	0.915476
	H112	H	0.100232	0.922227	0.618310
	H113	H	0.104583	0.103701	0.389224
	H114	H	0.916499	0.096862	0.617192
	H115	H	0.918103	0.920842	0.391188
	H116	H	0.619219	0.098796	0.918822
	H117	H	0.391671	0.100769	0.104810
	H118	H	0.619959	0.927224	0.094500
	H119	H	0.395650	0.917336	0.914624
	C120	C	0.387654	0.019112	0.625330
	C121	C	0.630278	1.001828	0.624540
	C122	C	0.630480	0.018855	0.382202
	C123	C	0.387124	1.002337	0.382816
	C124	C	0.629061	0.388885	0.011262
	C125	C	0.630065	0.631462	0.994284
	C126	C	0.387472	0.632050	0.012176
	C127	C	0.387294	0.388926	0.994789
	C128	C	0.017889	0.631120	0.381982
	C129	C	0.999471	0.630155	0.623608
	C130	C	0.016798	0.388709	0.624595
	C131	C	1.000496	0.387634	0.381221
	C132	C	0.885850	0.518619	0.126025
	C133	C	0.129494	0.501394	0.123792
	C134	C	0.130542	0.517923	0.880646
	C135	C	0.887270	0.502123	0.883085
	C136	C	0.129050	0.889863	0.513255
	C137	C	0.131364	0.133040	0.496258
	C138	C	0.888914	0.130072	0.511988
	C139	C	0.887562	0.888103	0.495233
	C140	C	0.516620	0.130937	0.883476
	C141	C	0.499453	0.131755	0.125645
	C142	C	0.517451	0.888637	0.125299
	C143	C	0.501178	0.888609	0.882525
	C144	C	0.384327	0.901490	0.685950
	C145	C	0.634329	0.118962	0.686490
	C146	C	0.632047	0.901017	0.322163
	C147	C	0.385785	0.119969	0.322783
	C148	C	0.688052	0.387427	0.892042
	C149	C	0.687269	0.630860	0.114411
	C150	C	0.327447	0.634380	0.893620
	C151	C	0.326958	0.387581	0.113307
	C152	C	0.900090	0.691163	0.379396
	C153	C	0.117636	0.691093	0.627021
	C154	C	0.899109	0.327580	0.627643
	C155	C	0.119031	0.329208	0.379348
	C156	C	0.898349	0.385785	0.684666
	C157	C	0.117637	0.633253	0.684356
	C158	C	0.898703	0.631232	0.323979
	C159	C	0.119392	0.387602	0.322290
	C160	C	0.386259	0.691496	0.893426
	C161	C	0.629963	0.688882	0.114388
	C162	C	0.630766	0.328696	0.892722
	C163	C	0.383906	0.329254	0.113373
	C164	C	0.690904	0.901737	0.378872
	C165	C	0.692211	0.118864	0.628455
	C166	C	0.325677	0.901967	0.628808
	C167	C	0.327884	0.120003	0.380683
	C168	C	0.885078	0.399975	0.183833
	C169	C	0.131043	0.619342	0.183499
	C170	C	0.132628	0.400454	0.820086
	C171	C	0.885978	0.619729	0.823171
	C172	C	0.187671	0.889906	0.393779
	C173	C	0.191098	0.135176	0.614729
	C174	C	0.829252	0.131666	0.393303
	C175	C	0.824852	0.884028	0.612300
	C176	C	0.398578	0.190645	0.879921
	C177	C	0.617517	0.192386	0.127667
	C178	C	0.397710	0.830845	0.125004
	C179	C	0.619126	0.828908	0.879588
	C180	C	0.397380	0.889503	0.182230
	C181	C	0.618524	0.132981	0.183775
	C182	C	0.398930	0.132901	0.822232
	C183	C	0.618594	0.885543	0.820873
	C184	C	0.887364	0.189332	0.393252
	C185	C	0.133622	0.193126	0.614606
	C186	C	0.131092	0.830653	0.394188
	C187	C	0.882622	0.826215	0.612492
	C188	C	0.190916	0.400720	0.877792
	C189	C	0.189128	0.619544	0.125778
	C190	C	0.826409	0.400604	0.126676
	C191	C	0.828810	0.620488	0.881736
	C192	C	0.413624	0.100415	0.599798
	C193	C	0.603858	0.920618	0.598205
	C194	C	0.606101	0.101107	0.407126
	C195	C	0.411309	0.920008	0.407384
	C196	C	0.604026	0.414154	0.093802
	C197	C	0.606584	0.607772	0.910985
	C198	C	0.412248	0.607255	0.094821
	C199	C	0.413157	0.413680	0.912475
	C200	C	0.100615	0.606931	0.406436
	C201	C	0.917361	0.604775	0.598282
	C202	C	0.099041	0.414196	0.599038
	C203	C	0.917675	0.411211	0.406210
	C204	C	0.910223	0.601272	0.102141
	C205	C	0.104650	0.419224	0.098678
	C206	C	0.104898	0.599433	0.906746
	C207	C	0.911711	0.419683	0.907937
	C208	C	0.104056	0.914162	0.596249
	C209	C	0.106135	0.107580	0.413753
	C210	C	0.914287	0.105171	0.594401
	C211	C	0.913973	0.913913	0.413339
	C212	C	0.598388	0.105527	0.909742
	C213	C	0.416900	0.106508	0.100999
	C214	C	0.600833	0.912317	0.101479
	C215	C	0.418976	0.913623	0.908353
	Zn216	Zn	0.509176	0.010091	0.754265
	Zn217	Zn	0.508667	0.010191	0.253625
	Zn218	Zn	0.758011	0.509920	0.002900
	Zn219	Zn	0.259113	0.510175	0.003009
	Zn220	Zn	0.008795	0.759484	0.504019
	Zn221	Zn	0.009133	0.260230	0.504103
	Zn222	Zn	0.007633	0.509523	0.752779
	Zn223	Zn	0.008953	0.509401	0.253925
	Zn224	Zn	0.509260	0.760062	0.003699
	Zn225	Zn	0.507670	0.259806	0.003727
	Zn226	Zn	0.759365	0.009721	0.503571
	Zn227	Zn	0.258467	0.011162	0.504421
	N228	N	0.422008	0.975225	0.684119
	N229	N	0.596552	0.045169	0.684283
	N230	N	0.595072	0.975010	0.324116
	N231	N	0.422126	0.045709	0.323959
	N232	N	0.687347	0.423880	0.966900
	N233	N	0.687748	0.596030	0.038727
	N234	N	0.327976	0.598238	0.968540
	N235	N	0.328972	0.424076	0.038633
	N236	N	0.975195	0.691270	0.414804
	N237	N	0.043159	0.689481	0.590315
	N238	N	0.973745	0.329417	0.590908
	N239	N	0.043966	0.328826	0.415255
	N240	N	0.972734	0.422796	0.683129
	N241	N	0.043208	0.595994	0.682702
	N242	N	0.973185	0.594781	0.325244
	N243	N	0.044606	0.423045	0.323413
	N244	N	0.422736	0.690178	0.968189
	N245	N	0.595325	0.689584	0.038719
	N246	N	0.595050	0.329387	0.968010
	N247	N	0.420530	0.329643	0.038476
	N248	N	0.690081	0.975930	0.415591
	N249	N	0.690154	0.044909	0.591043
	N250	N	0.327509	0.976011	0.591931
	N251	N	0.328722	0.045881	0.417355
	N252	N	0.921224	0.474591	0.183699
	N253	N	0.094530	0.544952	0.182336
	N254	N	0.095695	0.474411	0.821799
	N255	N	0.921920	0.545146	0.824016
	N256	N	0.186622	0.926070	0.468893
	N257	N	0.189859	0.098770	0.540100
	N258	N	0.829942	0.095967	0.468201
	N259	N	0.827896	0.921927	0.538330
	N260	N	0.472867	0.189554	0.917251
	N261	N	0.542286	0.192077	0.092533
	N262	N	0.473506	0.830020	0.090556
	N263	N	0.544970	0.830572	0.917194
	N264	N	0.472885	0.924378	0.182719
	N265	N	0.544050	0.096272	0.182826
	N266	N	0.473340	0.096306	0.824343
	N267	N	0.544208	0.922095	0.822622
	N268	N	0.923760	0.188645	0.468161
	N269	N	0.097393	0.192213	0.539598
	N270	N	0.095642	0.830482	0.469533
	N271	N	0.920726	0.828503	0.538552
	N272	N	0.190050	0.475017	0.914511
	N273	N	0.188194	0.545127	0.089309
	N274	N	0.826728	0.475404	0.091446
	N275	N	0.829551	0.546263	0.918015
	O276	O	0.979365	0.797048	0.213908
	H277	H	0.991019	0.810413	0.226815
	H278	H	0.978214	0.794102	0.220216
	O279	O	0.067787	0.106243	1.057677
	H280	H	0.078278	0.111966	1.058533
	H281	H	0.062193	0.109773	1.073094
	O282	O	0.398861	0.501098	0.536875
	H283	H	0.397351	0.508763	0.540532
	H284	H	0.402596	0.500451	0.550897
	O285	O	0.676950	0.497308	0.288322
	H286	H	0.681195	0.525537	0.290099
	H287	H	0.683968	0.512685	0.281090
	O288	O	0.999329	0.123494	1.056810
	H289	H	0.980497	0.117343	1.053259
	H290	H	0.991704	0.128433	1.063674
	O291	O	0.478886	0.317042	0.447670
	H292	H	0.486391	0.325990	0.455414
	H293	H	0.477569	0.315299	0.436051
	O294	O	-0.016836	-0.034551	-0.143792
	H295	H	-0.026310	-0.022679	-0.131380
	H296	H	-0.001732	-0.031511	-0.138531
	O297	O	0.668638	-0.285469	-0.292501
	H298	H	0.651981	-0.298087	-0.293723
	H299	H	0.670564	-0.261068	-0.265732
	O300	O	-0.205113	0.033847	-0.210712
	H301	H	-0.204702	0.015644	-0.195490
	H302	H	-0.225186	0.030533	-0.228501
	O303	O	-0.026945	-0.029627	0.209434
	H304	H	-0.016149	-0.011027	0.206074
	H305	H	-0.030772	-0.013709	0.202870
	O306	O	1.066161	0.119183	-0.152995
	H307	H	1.060591	0.120459	-0.144268
	H308	H	1.048251	0.125951	-0.151235
	O309	O	0.292298	0.291516	0.531757
	H310	H	0.284163	0.282024	0.545544
	H311	H	0.277382	0.291568	0.525215
	O312	O	0.149415	0.218084	0.021438
	H313	H	0.166811	0.236207	0.033656
	H314	H	0.143581	0.212815	0.019739
	O315	O	0.261812	0.266064	0.268467
	H316	H	0.286782	0.267241	0.275817
	H317	H	0.276525	0.270639	0.279815
	O318	O	0.796159	0.960456	0.155775
	H319	H	0.782074	0.964611	0.162956
	H320	H	0.802993	0.973951	0.154206
	O321	O	0.221653	0.949189	0.792961
	H322	H	0.234267	0.966417	0.779721
	H323	H	0.216562	0.954153	0.783786
	O324	O	1.175038	-0.180978	1.090861
	H325	H	1.166649	-0.164447	1.070883
	H326	H	1.172745	-0.198602	1.066483
	O327	O	0.710733	0.305392	0.308230
	H328	H	0.717708	0.353191	0.299454
	H329	H	0.692746	0.290753	0.290982
	O330	O	0.297310	0.550536	0.294963
	H331	H	0.306691	0.546667	0.296087
	H332	H	0.289060	0.545817	0.282684
	O333	O	0.445012	0.447012	0.284655
	H334	H	0.458785	0.450032	0.299803
	H335	H	0.452313	0.468442	0.282631
	O336	O	0.449825	0.539468	0.572136
	H337	H	0.439755	0.543127	0.576750
	H338	H	0.439406	0.542351	0.566100
	O339	O	0.517086	0.441914	0.666124
	H340	H	0.526690	0.453897	0.662951
	H341	H	0.519510	0.447017	0.652281
	O342	O	0.240311	0.780361	0.238937
	H343	H	0.230549	0.776297	0.222205
	H344	H	0.221844	0.799347	0.225940
	O345	O	0.715663	0.537301	0.705514
	H346	H	0.710478	0.545191	0.711325
	H347	H	0.723993	0.530891	0.698869
	O348	O	0.206137	0.780282	0.776193
	H349	H	0.209652	0.809659	0.788404
	H350	H	0.191517	0.755683	0.768573
	O351	O	0.058010	-0.181658	1.047704
	H352	H	0.047544	-0.186586	1.053880
	H353	H	0.054498	-0.190103	1.042971
	O354	O	1.144692	-0.012046	0.999060
	H355	H	1.139015	-0.015152	0.990718
	H356	H	1.149980	-0.020205	0.980637
	O357	O	0.313501	0.490925	0.725950
	H358	H	0.291670	0.478369	0.747743
	H359	H	0.311995	0.485692	0.715792
	O360	O	0.289102	0.733448	0.472174
	H361	H	0.282874	0.733644	0.440463
	H362	H	0.269526	0.750479	0.460071
	O363	O	0.725613	0.349300	0.419573
	H364	H	0.748944	0.334392	0.398014
	H365	H	0.716247	0.355084	0.401411
	O366	O	0.809446	0.208989	0.811429
	H367	H	0.809592	0.162258	0.800388
	H368	H	0.821289	0.228958	0.785892
	O369	O	-0.073930	0.039328	1.121511
	H370	H	-0.054800	0.043832	1.120221
	H371	H	-0.070069	0.052808	1.129621
	O372	O	-0.038543	0.802740	0.914141
	H373	H	-0.056370	0.795673	0.911254
	H374	H	-0.040408	0.810260	0.916617
	O375	O	1.210986	0.091024	0.212775
	H376	H	1.211805	0.102130	0.215250
	H377	H	1.217926	0.084609	0.216274
	O378	O	0.514922	0.466816	0.608803
	H379	H	0.511861	0.482606	0.607679
	H380	H	0.529673	0.467244	0.611693
	O381	O	-0.167568	1.146081	0.104787
	H382	H	-0.151959	1.153622	0.114217
	H383	H	-0.183068	1.144435	0.083414
	O384	O	0.513966	0.297475	0.650526
	H385	H	0.518829	0.287161	0.641551
	H386	H	0.539301	0.308008	0.643021
	O387	O	0.039034	1.223565	1.214988
	H388	H	0.060388	1.231679	1.219551
	H389	H	0.057381	1.237713	1.220568
	O390	O	0.053339	1.179202	0.833850
	H391	H	0.053146	1.204220	0.831186
	H392	H	0.056272	1.183485	0.844761
	O393	O	1.160420	0.206310	-0.024572
	H394	H	1.159929	0.204793	-0.017207
	H395	H	1.176380	0.218012	-0.024264
	O396	O	0.604927	0.668118	0.629823
	H397	H	0.587022	0.672931	0.631724
	H398	H	0.599195	0.682686	0.623739
	O399	O	0.608724	0.323462	0.617849
	H400	H	0.601416	0.327293	0.604823
	H401	H	0.603076	0.349434	0.616797
	O402	O	0.789656	-0.183939	1.029566
	H403	H	0.789532	-0.185989	1.048808
	H404	H	0.770593	-0.194403	1.034075
	O405	O	0.630521	0.672270	0.354852
	H406	H	0.630352	0.675452	0.387384
	H407	H	0.646159	0.692659	0.336842
	O408	O	0.786119	1.233711	0.972426
	H409	H	0.793743	1.225770	0.923787
	H410	H	0.751935	1.266027	0.968462
	O411	O	0.801517	0.802264	0.211646
	H412	H	0.792119	0.832117	0.224031
	H413	H	0.838358	0.795106	0.195352
	O414	O	0.095110	0.104421	-0.068771
	H415	H	0.086485	0.119169	-0.065470
	H416	H	0.104980	0.101327	-0.081066
	O417	O	0.479690	0.662385	0.607977
	H418	H	0.458310	0.657008	0.597672
	H419	H	0.469993	0.674026	0.589428
	O420	O	0.796425	-0.208613	0.788848
	H421	H	0.810023	-0.200240	0.798193
	H422	H	0.802228	-0.207189	0.788425
	O423	O	0.942591	1.029030	-0.140753
	H424	H	0.940309	1.042697	-0.138196
	H425	H	0.956326	1.027186	-0.146336
	O426	O	0.510762	0.507039	0.539051
	H427	H	0.498619	0.505202	0.555181
	H428	H	0.513884	0.511096	0.541794
	O429	O	0.450553	0.655605	0.358599
	H430	H	0.459511	0.675202	0.345723
	H431	H	0.443007	0.667036	0.360265
	O432	O	0.796095	-0.014930	1.022222
	H433	H	0.789282	-0.014209	1.018352
	H434	H	0.806744	-0.029976	1.036547
	O435	O	0.345593	0.634594	0.603572
	H436	H	0.355044	0.633792	0.605362
	H437	H	0.333558	0.635213	0.605794
	O438	O	0.321608	0.387958	0.380065
	H439	H	0.329935	0.392236	0.387559
	H440	H	0.337827	0.397020	0.390964
	O441	O	0.717234	0.722217	0.511654
	H442	H	0.729398	0.742420	0.532702
	H443	H	0.717505	0.708010	0.535055
	O444	O	0.645638	0.574806	0.501994
	H445	H	0.641898	0.571125	0.494782
	H446	H	0.645909	0.574060	0.522781
	O447	O	0.914754	0.124986	1.035543
	H448	H	0.915353	0.134595	1.047835
	H449	H	0.916807	0.130323	1.039545
	O450	O	0.724401	0.435275	-0.452167
	H451	H	0.735308	0.415259	-0.475765
	H452	H	0.721614	0.428986	-0.461015
	O453	O	0.667121	0.515663	0.375463
	H454	H	0.671431	0.503218	0.398944
	H455	H	0.660842	0.527613	0.360208
	O456	O	0.219381	0.798851	0.935970
	H457	H	0.228746	0.791277	0.930401
	H458	H	0.199678	0.800210	0.923099
	O459	O	0.339861	0.550473	0.572219
	H460	H	0.334879	0.570378	0.568405
	H461	H	0.347941	0.562613	0.567027
	O462	O	0.542651	0.290246	0.292515
	H463	H	0.550899	0.283573	0.279926
	H464	H	0.531623	0.291493	0.281800
	O465	O	0.478295	0.732660	0.398958
	H466	H	0.476819	0.720341	0.389384
	H467	H	0.489735	0.733980	0.391884
	O468	O	0.018862	0.827595	-0.140401
	H469	H	0.023469	0.826547	-0.152218
	H470	H	0.006660	0.829487	-0.132003
	O471	O	0.471764	0.731467	0.287031
	H472	H	0.456149	0.735005	0.294208
	H473	H	0.468439	0.755169	0.266908
	O474	O	1.213929	0.995434	0.048069
	H475	H	1.220186	0.998285	0.040048
	H476	H	1.217140	0.997919	0.020983
	O477	O	0.317817	0.311246	0.700722
	H478	H	0.366999	0.306478	0.704252
	H479	H	0.314910	0.329397	0.677686
