data_Molecule from HDF5

_cell_length_a		16.636503
_cell_length_b		16.629809
_cell_length_c		16.617271
_cell_angle_alpha	89.977147
_cell_angle_beta	90.080800
_cell_angle_gamma	89.973068
_symmetry_space_group_name_H-M	'P 1'
_symmetry_Int_Tables_number		1

loop_
	_symmetry_equiv_pos_as_xyz
	x,y,z

loop_
	_atom_site_label
	_atom_site_type_symbol
	_atom_site_fract_x
	_atom_site_fract_y
	_atom_site_fract_z
	H0	H	0.387666	0.849010	0.720142
	H1	H	0.596993	0.159305	0.717424
	H2	H	0.598397	0.847905	0.275698
	H3	H	0.386279	0.157714	0.273850
	H4	H	0.713264	0.398994	0.842522
	H5	H	0.715939	0.608527	0.152727
	H6	H	0.270970	0.609641	0.842300
	H7	H	0.270225	0.395943	0.151604
	H8	H	0.838151	0.725905	0.390595
	H9	H	0.148016	0.724921	0.602413
	H10	H	0.837069	0.283446	0.602103
	H11	H	0.149076	0.282129	0.393330
	H12	H	0.837554	0.399764	0.718031
	H13	H	0.149455	0.606895	0.717012
	H14	H	0.839003	0.610614	0.274082
	H15	H	0.148729	0.398279	0.276983
	H16	H	0.386319	0.726605	0.843142
	H17	H	0.598899	0.724226	0.153106
	H18	H	0.596056	0.284053	0.842282
	H19	H	0.387200	0.280073	0.152658
	H20	H	0.715367	0.848081	0.391407
	H21	H	0.711698	0.159949	0.599572
	H22	H	0.270896	0.848778	0.603738
	H23	H	0.270420	0.158313	0.390346
	H24	H	0.888793	0.347793	0.219570
	H25	H	0.102475	0.657058	0.221965
	H26	H	0.099649	0.348932	0.776225
	H27	H	0.888426	0.658255	0.776740
	H28	H	0.216927	0.894905	0.343806
	H29	H	0.213405	0.107166	0.653161
	H30	H	0.771643	0.109016	0.341694
	H31	H	0.771789	0.897687	0.651692
	H32	H	0.338714	0.226743	0.890956
	H33	H	0.648258	0.225521	0.104880
	H34	H	0.338962	0.780003	0.104320
	H35	H	0.648949	0.782605	0.892493
	H36	H	0.338306	0.898254	0.219184
	H37	H	0.648476	0.108393	0.219840
	H38	H	0.339544	0.111258	0.773870
	H39	H	0.649763	0.901078	0.779576
	H40	H	0.886878	0.225951	0.342327
	H41	H	0.095909	0.221924	0.653735
	H42	H	0.101086	0.778972	0.343495
	H43	H	0.888379	0.782578	0.652997
	H44	H	0.216053	0.348704	0.891691
	H45	H	0.217457	0.657376	0.104991
	H46	H	0.772710	0.347680	0.102562
	H47	H	0.771554	0.657031	0.891238
	H48	H	0.405346	0.114593	0.587318
	H49	H	0.584959	0.889217	0.591123
	H50	H	0.584232	0.117943	0.399413
	H51	H	0.409898	0.894744	0.410348
	H52	H	0.582660	0.412298	0.111087
	H53	H	0.580535	0.592107	0.887325
	H54	H	0.406298	0.591776	0.108799
	H55	H	0.409636	0.411468	0.887281
	H56	H	0.104885	0.588947	0.405819
	H57	H	0.880252	0.593863	0.588381
	H58	H	0.105634	0.410226	0.587449
	H59	H	0.883997	0.420201	0.408494
	H60	H	0.104453	0.413908	0.585670
	H61	H	0.881691	0.594242	0.585891
	H62	H	0.104771	0.595503	0.411006
	H63	H	0.879929	0.412003	0.403673
	H64	H	0.405856	0.588217	0.107732
	H65	H	0.582758	0.594727	0.884781
	H66	H	0.584718	0.414349	0.110867
	H67	H	0.401620	0.413533	0.884545
	H68	H	0.572131	0.110195	0.410426
	H69	H	0.579742	0.891922	0.588406
	H70	H	0.405389	0.113565	0.584572
	H71	H	0.401490	0.892537	0.413360
	H72	H	0.904064	0.615434	0.088625
	H73	H	0.083881	0.393570	0.081361
	H74	H	0.080726	0.613395	0.911212
	H75	H	0.907031	0.390858	0.906447
	H76	H	0.077811	0.918764	0.605448
	H77	H	0.080374	0.095171	0.385518
	H78	H	0.903035	0.095072	0.610466
	H79	H	0.907281	0.919630	0.387962
	H80	H	0.605391	0.093081	0.906793
	H81	H	0.382218	0.095103	0.082954
	H82	H	0.604865	0.914156	0.087851
	H83	H	0.384607	0.919848	0.912639
	H84	H	0.605256	0.912670	0.086206
	H85	H	0.384443	0.087625	0.083301
	H86	H	0.604190	0.094143	0.911288
	H87	H	0.380212	0.915515	0.902527
	H88	H	0.900760	0.092933	0.609554
	H89	H	0.083771	0.090626	0.385330
	H90	H	0.078659	0.911279	0.608332
	H91	H	0.908625	0.911598	0.386381
	H92	H	0.085311	0.616197	0.909475
	H93	H	0.083579	0.390358	0.088346
	H94	H	0.909691	0.611873	0.086601
	H95	H	0.904654	0.392574	0.911383
	H96	H	0.402738	0.115827	0.585513
	H97	H	0.585133	0.892135	0.585377
	H98	H	0.588999	0.114026	0.416547
	H99	H	0.403805	0.890072	0.404638
	H100	H	0.581807	0.414751	0.109664
	H101	H	0.584741	0.591398	0.885944
	H102	H	0.408989	0.590069	0.106615
	H103	H	0.406286	0.419350	0.888368
	H104	H	0.101691	0.588147	0.413938
	H105	H	0.881356	0.591717	0.587273
	H106	H	0.105264	0.414231	0.589188
	H107	H	0.882239	0.411700	0.413741
	H108	H	0.904607	0.613432	0.082006
	H109	H	0.077407	0.395245	0.086009
	H110	H	0.080957	0.615395	0.905769
	H111	H	0.901679	0.389289	0.907068
	H112	H	0.085454	0.916580	0.609412
	H113	H	0.078819	0.089826	0.386781
	H114	H	0.903671	0.092595	0.609011
	H115	H	0.901464	0.915292	0.384634
	H116	H	0.603759	0.089851	0.909115
	H117	H	0.381188	0.091001	0.089405
	H118	H	0.604681	0.914786	0.085426
	H119	H	0.380732	0.908975	0.912334
	C120	C	0.371919	0.012108	0.618681
	C121	C	0.614366	0.994782	0.618957
	C122	C	0.614341	0.011545	0.376147
	C123	C	0.371790	0.994857	0.375939
	C124	C	0.614736	0.382094	0.007113
	C125	C	0.615221	0.624726	0.988998
	C126	C	0.373131	0.623621	0.005516
	C127	C	0.372271	0.381755	0.989177
	C128	C	0.001627	0.624588	0.376604
	C129	C	0.984079	0.624947	0.619073
	C130	C	0.001795	0.381824	0.619066
	C131	C	0.984934	0.382392	0.377075
	C132	C	0.873055	0.511263	0.118527
	C133	C	0.115305	0.494966	0.119123
	C134	C	0.115273	0.512352	0.876342
	C135	C	0.872707	0.494029	0.876536
	C136	C	0.114445	0.881555	0.505843
	C137	C	0.113306	0.123599	0.489014
	C138	C	0.870838	0.125438	0.506254
	C139	C	0.872518	0.882560	0.488772
	C140	C	0.501906	0.125025	0.876589
	C141	C	0.485164	0.124040	0.118658
	C142	C	0.502281	0.881451	0.119139
	C143	C	0.484861	0.882873	0.877108
	C144	C	0.369275	0.895436	0.679632
	C145	C	0.615439	0.112459	0.677654
	C146	C	0.616719	0.894339	0.316137
	C147	C	0.368474	0.111410	0.314657
	C148	C	0.673493	0.380705	0.889503
	C149	C	0.675591	0.626919	0.106118
	C150	C	0.311529	0.627192	0.888909
	C151	C	0.310771	0.378219	0.105608
	C152	C	0.884678	0.685292	0.373111
	C153	C	0.101503	0.684666	0.620797
	C154	C	0.884267	0.323015	0.620554
	C155	C	0.102220	0.322503	0.375031
	C156	C	0.884424	0.380848	0.678257
	C157	C	0.102118	0.626023	0.677695
	C158	C	0.885297	0.628093	0.315021
	C159	C	0.102260	0.380211	0.317347
	C160	C	0.368900	0.685269	0.889196
	C161	C	0.617510	0.684362	0.106249
	C162	C	0.615300	0.323547	0.889158
	C163	C	0.368699	0.320756	0.106074
	C164	C	0.674917	0.894586	0.373415
	C165	C	0.672400	0.112746	0.619003
	C166	C	0.311425	0.895340	0.621693
	C167	C	0.310602	0.111354	0.372350
	C168	C	0.870435	0.394388	0.179311
	C169	C	0.119615	0.610738	0.180850
	C170	C	0.117912	0.395448	0.816265
	C171	C	0.870172	0.611198	0.816477
	C172	C	0.176279	0.877711	0.389903
	C173	C	0.173172	0.125597	0.606425
	C174	C	0.811382	0.127418	0.388921
	C175	C	0.812291	0.879682	0.605492
	C176	C	0.385192	0.186027	0.873240
	C177	C	0.601619	0.185242	0.122559
	C178	C	0.385415	0.820743	0.122253
	C179	C	0.602100	0.822946	0.874943
	C180	C	0.385053	0.879290	0.179244
	C181	C	0.601701	0.127175	0.179833
	C182	C	0.385638	0.128892	0.814859
	C183	C	0.602517	0.881744	0.818337
	C184	C	0.868748	0.185564	0.388924
	C185	C	0.114823	0.182503	0.606791
	C186	C	0.118792	0.819791	0.389942
	C187	C	0.870013	0.822368	0.605962
	C188	C	0.175889	0.395643	0.873601
	C189	C	0.176919	0.610999	0.122749
	C190	C	0.812876	0.394298	0.121275
	C191	C	0.812180	0.610571	0.873666
	C192	C	0.397285	0.093447	0.593051
	C193	C	0.590267	0.912529	0.595072
	C194	C	0.588795	0.092979	0.401328
	C195	C	0.397770	0.913519	0.401935
	C196	C	0.590074	0.406766	0.089170
	C197	C	0.589997	0.599870	0.907278
	C198	C	0.399536	0.597491	0.086569
	C199	C	0.398329	0.407348	0.907906
	C200	C	0.082653	0.598437	0.402747
	C201	C	0.902424	0.600255	0.594309
	C202	C	0.083915	0.405993	0.594420
	C203	C	0.903326	0.407592	0.401550
	C204	C	0.898627	0.592520	0.092999
	C205	C	0.088965	0.413878	0.092690
	C206	C	0.089528	0.593708	0.901500
	C207	C	0.897636	0.412222	0.901355
	C208	C	0.088060	0.907894	0.586714
	C209	C	0.088264	0.098943	0.407177
	C210	C	0.895491	0.100641	0.588357
	C211	C	0.898250	0.908112	0.407593
	C212	C	0.583245	0.099695	0.901993
	C213	C	0.403662	0.098477	0.092652
	C214	C	0.583689	0.906653	0.093857
	C215	C	0.403201	0.907835	0.901928
	Zn216	Zn	0.493000	0.003960	0.747816
	Zn217	Zn	0.493212	0.002969	0.247633
	Zn218	Zn	0.743481	0.503070	-0.001792
	Zn219	Zn	0.243866	0.503510	-0.002187
	Zn220	Zn	-0.006934	0.753139	0.497038
	Zn221	Zn	-0.006930	0.253043	0.497542
	Zn222	Zn	-0.006307	0.503319	0.747915
	Zn223	Zn	-0.006095	0.503414	0.247845
	Zn224	Zn	0.493740	0.753007	-0.002416
	Zn225	Zn	0.493620	0.253326	-0.001769
	Zn226	Zn	0.743290	0.003140	0.497073
	Zn227	Zn	0.242782	0.003385	0.497261
	N228	N	0.406035	0.969226	0.678074
	N229	N	0.580136	0.038026	0.677820
	N230	N	0.579949	0.968101	0.317631
	N231	N	0.405895	0.037812	0.316751
	N232	N	0.673409	0.416131	0.964041
	N233	N	0.674592	0.590722	0.031856
	N234	N	0.314023	0.589627	0.962294
	N235	N	0.312866	0.415494	0.031971
	N236	N	0.958230	0.683418	0.410567
	N237	N	0.026954	0.684437	0.585204
	N238	N	0.958437	0.323397	0.584492
	N239	N	0.028171	0.323670	0.411472
	N240	N	0.958771	0.416612	0.677718
	N241	N	0.028031	0.590007	0.677163
	N242	N	0.959151	0.591256	0.316777
	N243	N	0.028180	0.416613	0.318084
	N244	N	0.406581	0.683188	0.962657
	N245	N	0.581012	0.683335	0.032252
	N246	N	0.579681	0.324004	0.963639
	N247	N	0.405982	0.322524	0.032480
	N248	N	0.673456	0.968400	0.410237
	N249	N	0.672135	0.038364	0.583277
	N250	N	0.312868	0.968975	0.584546
	N251	N	0.312606	0.037865	0.409791
	N252	N	0.907185	0.468224	0.177857
	N253	N	0.081832	0.537550	0.178509
	N254	N	0.081060	0.469275	0.817686
	N255	N	0.907005	0.537525	0.818032
	N256	N	0.173712	0.915517	0.463221
	N257	N	0.172636	0.090056	0.532078
	N258	N	0.812501	0.090906	0.462972
	N259	N	0.813427	0.916174	0.531473
	N260	N	0.458630	0.183881	0.910778
	N261	N	0.527918	0.183524	0.085296
	N262	N	0.459314	0.821758	0.085654
	N263	N	0.527787	0.823406	0.910779
	N264	N	0.458819	0.916261	0.177641
	N265	N	0.528161	0.089681	0.177420
	N266	N	0.459150	0.091537	0.816766
	N267	N	0.528524	0.918243	0.819263
	N268	N	0.904858	0.184762	0.463232
	N269	N	0.078460	0.181744	0.532516
	N270	N	0.081068	0.821971	0.463202
	N271	N	0.906824	0.823811	0.532224
	N272	N	0.174503	0.469386	0.910325
	N273	N	0.174179	0.537884	0.084797
	N274	N	0.814308	0.468059	0.084296
	N275	N	0.813291	0.536652	0.910306
	O276	O	0.303826	1.313305	0.304257
	H277	H	0.315862	1.332251	0.332012
	H278	H	0.329020	1.334545	0.309697
	O279	O	0.080870	-0.084149	0.219140
	H280	H	0.078785	-0.068650	0.223934
	H281	H	0.078464	-0.096030	0.215122
	O282	O	1.014988	0.219176	0.931059
	H283	H	0.996218	0.222477	0.916895
	H284	H	1.009681	0.215841	0.940758
	O285	O	0.438919	0.447555	0.266132
	H286	H	0.429506	0.465945	0.270642
	H287	H	0.439135	0.456720	0.261744
	O288	O	0.966931	0.786013	0.218962
	H289	H	0.953465	0.772605	0.228016
	H290	H	0.954883	0.781300	0.221577
	O291	O	0.280468	0.523229	0.281607
	H292	H	0.276494	0.547765	0.281023
	H293	H	0.266341	0.546623	0.268974
	O294	O	0.859477	-0.134740	0.931298
	H295	H	0.877433	-0.128376	0.927081
	H296	H	0.839097	-0.138994	0.926059
	O297	O	0.948053	0.230281	0.022935
	H298	H	0.958985	0.220919	0.021320
	H299	H	0.943835	0.233542	0.029663
	O300	O	0.209540	0.221785	1.028135
	H301	H	0.209767	0.224949	1.022417
	H302	H	0.232482	0.222897	1.021535
	O303	O	0.454982	0.593133	0.526826
	H304	H	0.457286	0.592062	0.528099
	H305	H	0.454071	0.588827	0.521154
	O306	O	0.623345	0.476565	0.591591
	H307	H	0.617084	0.484858	0.602123
	H308	H	0.629088	0.485005	0.594119
	O309	O	0.459678	0.354949	0.411549
	H310	H	0.448424	0.354332	0.420874
	H311	H	0.475304	0.355011	0.412086
	O312	O	0.334156	0.665850	0.452404
	H313	H	0.329602	0.661209	0.451465
	H314	H	0.332293	0.671922	0.450021
	O315	O	0.951928	0.993057	0.825405
	H316	H	0.944898	0.978448	0.830854
	H317	H	0.947589	1.012128	0.816514
	O318	O	0.710708	0.721396	0.530024
	H319	H	0.704533	0.719580	0.531783
	H320	H	0.730011	0.732763	0.526411
	O321	O	0.276173	0.464127	0.712832
	H322	H	0.286808	0.472948	0.718976
	H323	H	0.270453	0.470749	0.729453
	O324	O	1.031172	0.780649	-0.226584
	H325	H	1.025437	0.774116	-0.215516
	H326	H	1.021528	0.769040	-0.252829
	O327	O	0.210333	0.028611	1.223047
	H328	H	0.221827	0.054878	1.235958
	H329	H	0.222887	0.051368	1.227276
	O330	O	0.657662	0.507410	0.566219
	H331	H	0.659082	0.498867	0.562904
	H332	H	0.665785	0.504738	0.568706
	O333	O	0.712381	0.466632	0.282621
	H334	H	0.713418	0.442679	0.291333
	H335	H	0.734879	0.459352	0.264614
	O336	O	0.443416	0.387475	0.604769
	H337	H	0.449063	0.377994	0.603762
	H338	H	0.449634	0.378107	0.591649
	O339	O	1.204446	-0.206862	0.787788
	H340	H	1.214376	-0.234453	0.760508
	H341	H	1.178477	-0.212781	0.807402
	O342	O	0.119769	-0.062296	-0.080225
	H343	H	0.123937	-0.060323	-0.096000
	H344	H	0.126509	-0.062152	-0.082340
	O345	O	-0.292782	0.536064	1.715535
	H346	H	-0.286604	0.557013	1.730106
	H347	H	-0.284969	0.546152	1.728142
	O348	O	-0.215187	0.202952	-0.201477
	H349	H	-0.224141	0.195388	-0.164687
	H350	H	-0.234595	0.229017	-0.219850
	O351	O	1.304063	0.691509	-0.316661
	H352	H	1.323673	0.677620	-0.331117
	H353	H	1.313778	0.683997	-0.325744
	O354	O	0.026126	0.223107	1.218816
	H355	H	0.046810	0.230383	1.221733
	H356	H	0.035783	0.236728	1.226425
	O357	O	0.709325	0.285671	0.463993
	H358	H	0.727630	0.274376	0.460690
	H359	H	0.719213	0.290593	0.465154
	O360	O	0.152147	-0.035915	1.107963
	H361	H	0.159455	-0.025875	1.112840
	H362	H	0.142858	-0.022897	1.112294
	O363	O	-0.231422	0.065611	0.043866
	H364	H	-0.235340	0.050082	0.047966
	H365	H	-0.224567	0.057455	0.041870
	O366	O	0.647466	0.688106	0.475179
	H367	H	0.631896	0.683948	0.456483
	H368	H	0.638392	0.664452	0.480372
	O369	O	0.412536	0.287686	0.708562
	H370	H	0.397524	0.293413	0.715616
	H371	H	0.409662	0.278399	0.714880
	O372	O	0.959506	0.778203	-0.077553
	H373	H	0.976687	0.785570	-0.075202
	H374	H	0.959098	0.775047	-0.058994
	O375	O	0.982029	-0.032050	0.061644
	H376	H	0.980382	-0.032986	0.079734
	H377	H	0.987931	-0.027975	0.058919
	O378	O	0.740424	0.745177	0.252376
	H379	H	0.731905	0.743714	0.257744
	H380	H	0.729312	0.755308	0.258699
	O381	O	0.193554	1.048115	0.929763
	H382	H	0.196422	1.025344	0.925580
	H383	H	0.192563	1.045385	0.919403
	O384	O	0.959882	0.219935	0.777336
	H385	H	0.940504	0.239740	0.757107
	H386	H	0.940266	0.220109	0.784508
	O387	O	1.113379	1.110011	0.066807
	H388	H	1.109535	1.097278	0.055275
	H389	H	1.127926	1.124968	0.068059
	O390	O	0.778569	0.782067	0.112992
	H391	H	0.775526	0.778302	0.100971
	H392	H	0.781994	0.769280	0.132952
	O393	O	0.396671	0.542317	0.477163
	H394	H	0.391546	0.544283	0.471492
	H395	H	0.403908	0.536572	0.484286
	O396	O	-0.201297	1.226836	0.972476
	H397	H	-0.202908	1.219794	0.987501
	H398	H	-0.215516	1.239412	0.984641
	O399	O	-0.227945	0.036210	0.772252
	H400	H	-0.241921	0.046115	0.759878
	H401	H	-0.236824	0.059335	0.766070
	O402	O	-0.002135	0.012149	0.771106
	H403	H	0.006996	0.023335	0.763103
	H404	H	0.002894	0.031246	0.773664
	O405	O	1.185695	0.197431	0.805710
	H406	H	1.164357	0.199054	0.825200
	H407	H	1.180634	0.173070	0.815352
	O408	O	-0.201249	-0.060925	0.000685
	H409	H	-0.210424	-0.088331	0.001703
	H410	H	-0.179736	-0.071035	0.002165
	O411	O	0.776756	0.971580	1.214457
	H412	H	0.798444	0.974057	1.212869
	H413	H	0.749105	0.976599	1.227445
	O414	O	0.315091	0.701207	0.287871
	H415	H	0.284231	0.730731	0.264635
	H416	H	0.335736	0.708158	0.305555
	O417	O	0.494117	0.267600	0.499320
	H418	H	0.489372	0.259945	0.493457
	H419	H	0.490766	0.267343	0.504240
	O420	O	0.262703	0.500826	0.504401
	H421	H	0.256752	0.494711	0.499326
	H422	H	0.267667	0.494745	0.504716
	O423	O	-0.041658	0.074561	1.160974
	H424	H	-0.039142	0.074498	1.163186
	H425	H	-0.050774	0.089029	1.151047
	O426	O	0.551100	0.631043	0.440356
	H427	H	0.556677	0.620479	0.443376
	H428	H	0.553107	0.636341	0.439957
	O429	O	1.092602	0.780641	1.029803
	H430	H	1.092104	0.781191	1.048034
	H431	H	1.116738	0.778250	1.029670
	O432	O	0.521340	0.287380	0.286180
	H433	H	0.525257	0.284961	0.280085
	H434	H	0.509338	0.292540	0.275959
	O435	O	0.357355	0.730721	0.515765
	H436	H	0.347629	0.740267	0.518346
	H437	H	0.359440	0.720452	0.520144
	O438	O	0.639868	-0.643891	0.552518
	H439	H	0.643001	-0.634458	0.538549
	H440	H	0.628529	-0.640986	0.544309
	O441	O	-0.229415	0.220638	0.219760
	H442	H	-0.220472	0.205503	0.202530
	H443	H	-0.228713	0.223307	0.214888
	O444	O	0.605354	0.632991	0.462421
	H445	H	0.599471	0.640209	0.448907
	H446	H	0.612958	0.624053	0.470428
	O447	O	0.215501	0.880252	0.982386
	H448	H	0.226165	0.875453	0.972756
	H449	H	0.216874	0.885450	0.984312
	O450	O	-0.271505	0.737460	0.729095
	H451	H	-0.294246	0.739300	0.702905
	H452	H	-0.248026	0.765309	0.751991
	O453	O	0.333652	0.330557	0.650464
	H454	H	0.342102	0.360744	0.652867
	H455	H	0.305821	0.311427	0.674102
	O456	O	-0.052154	-0.101525	1.134450
	H457	H	-0.044095	-0.110051	1.131839
	H458	H	-0.045394	-0.080727	1.136762
	O459	O	1.219604	0.975697	-0.220791
	H460	H	1.228779	0.945405	-0.236211
	H461	H	1.220045	0.956822	-0.235367
	O462	O	0.313932	0.482676	0.530622
	H463	H	0.317155	0.467730	0.525895
	H464	H	0.315588	0.495284	0.525055
	O465	O	1.205589	-0.206304	0.210233
	H466	H	1.191470	-0.181188	0.189358
	H467	H	1.183311	-0.194418	0.213561
	O468	O	0.272018	0.279071	0.531474
	H469	H	0.257313	0.260950	0.547077
	H470	H	0.264693	0.273705	0.560394
	O471	O	0.475601	0.725257	0.298637
	H472	H	0.475153	0.725307	0.284813
	H473	H	0.469526	0.727624	0.286412
	O474	O	0.528076	0.723988	0.717756
	H475	H	0.539092	0.724017	0.725771
	H476	H	0.527522	0.738364	0.724116
	O477	O	0.547753	0.564252	1.279224
	H478	H	0.555681	0.552985	1.285394
	H479	H	0.549529	0.574711	1.283615
	O480	O	0.573219	0.500491	0.640350
	H481	H	0.571478	0.489554	0.639358
	H482	H	0.577484	0.509249	0.650957
	O483	O	0.687658	0.386479	0.353675
	H484	H	0.694309	0.373474	0.359800
	H485	H	0.662927	0.382831	0.361575
	O486	O	0.694055	0.304685	0.698468
	H487	H	0.675104	0.304157	0.675669
	H488	H	0.689641	0.327800	0.695373
	O489	O	0.815250	0.817890	-0.162452
	H490	H	0.836707	0.832875	-0.145157
	H491	H	0.824543	0.835548	-0.161071
	O492	O	0.025488	-0.022655	-0.054803
	H493	H	0.022774	-0.025399	-0.063995
	H494	H	0.027596	-0.026509	-0.059799
	O495	O	-0.156460	1.097741	1.041606
	H496	H	-0.143064	1.084494	1.034070
	H497	H	-0.152470	1.087189	1.040197
	O498	O	1.200545	1.212675	1.208554
	H499	H	1.234567	1.245758	1.237755
	H500	H	1.193474	1.214622	1.172894
	O501	O	0.445215	0.560479	0.726332
	H502	H	0.448937	0.548405	0.721817
	H503	H	0.453871	0.568993	0.730670
