data_Molecule from HDF5

_cell_length_a		16.329271
_cell_length_b		16.143486
_cell_length_c		16.190575
_cell_angle_alpha	90.686063
_cell_angle_beta	90.151058
_cell_angle_gamma	89.873915
_symmetry_space_group_name_H-M	'P 1'
_symmetry_Int_Tables_number		1

loop_
	_symmetry_equiv_pos_as_xyz
	x,y,z

loop_
	_atom_site_label
	_atom_site_type_symbol
	_atom_site_fract_x
	_atom_site_fract_y
	_atom_site_fract_z
	H0	H	0.396900	0.837797	0.702130
	H1	H	0.592968	0.167958	0.710499
	H2	H	0.591951	0.838672	0.279158
	H3	H	0.395100	0.169311	0.280954
	H4	H	0.711814	0.398764	0.831209
	H5	H	0.709474	0.605843	0.158365
	H6	H	0.277176	0.602707	0.831779
	H7	H	0.280187	0.404239	0.158923
	H8	H	0.830406	0.716533	0.399032
	H9	H	0.157635	0.720312	0.596609
	H10	H	0.830374	0.290839	0.593153
	H11	H	0.157058	0.287317	0.394883
	H12	H	0.831278	0.407646	0.709453
	H13	H	0.156598	0.607244	0.713580
	H14	H	0.832322	0.604649	0.278351
	H15	H	0.157252	0.403063	0.278197
	H16	H	0.396613	0.711565	0.828478
	H17	H	0.593785	0.720085	0.157499
	H18	H	0.593943	0.284976	0.830055
	H19	H	0.399129	0.292145	0.160354
	H20	H	0.709908	0.840232	0.391590
	H21	H	0.708648	0.168464	0.595984
	H22	H	0.280022	0.839584	0.590287
	H23	H	0.276173	0.167649	0.393015
	H24	H	0.897645	0.339294	0.205339
	H25	H	0.093107	0.668970	0.210283
	H26	H	0.094089	0.340722	0.777288
	H27	H	0.897037	0.670350	0.787572
	H28	H	0.208253	0.901590	0.329752
	H29	H	0.210161	0.107669	0.657594
	H30	H	0.778957	0.102258	0.329786
	H31	H	0.778614	0.906597	0.657421
	H32	H	0.331923	0.217403	0.895766
	H33	H	0.657531	0.216704	0.095371
	H34	H	0.330849	0.790642	0.087958
	H35	H	0.658723	0.786400	0.894147
	H36	H	0.331371	0.903901	0.207288
	H37	H	0.657223	0.102214	0.209554
	H38	H	0.331079	0.100745	0.779380
	H39	H	0.657328	0.900702	0.775774
	H40	H	0.895105	0.216185	0.329627
	H41	H	0.092368	0.220043	0.658882
	H42	H	0.092360	0.785483	0.331039
	H43	H	0.898915	0.796690	0.661299
	H44	H	0.209976	0.339319	0.892265
	H45	H	0.211135	0.667875	0.097658
	H46	H	0.780324	0.339785	0.093740
	H47	H	0.776921	0.666535	0.894986
	H48	H	0.405539	0.124348	0.597784
	H49	H	0.581087	0.888350	0.582656
	H50	H	0.588248	0.122877	0.402283
	H51	H	0.409564	0.886233	0.389494
	H52	H	0.586144	0.409852	0.110559
	H53	H	0.580118	0.585075	0.880209
	H54	H	0.408594	0.593079	0.109281
	H55	H	0.409852	0.410301	0.880377
	H56	H	0.110971	0.588332	0.395491
	H57	H	0.873341	0.617086	0.587358
	H58	H	0.112953	0.410423	0.592826
	H59	H	0.881031	0.415773	0.403720
	H60	H	0.108668	0.409562	0.580884
	H61	H	0.883925	0.589391	0.580238
	H62	H	0.113825	0.604740	0.402568
	H63	H	0.876261	0.412211	0.393370
	H64	H	0.403264	0.604373	0.113619
	H65	H	0.585683	0.603855	0.873480
	H66	H	0.592303	0.409389	0.113549
	H67	H	0.398377	0.401152	0.875342
	H68	H	0.585835	0.122374	0.401202
	H69	H	0.590070	0.887149	0.576569
	H70	H	0.408598	0.117717	0.578167
	H71	H	0.403614	0.890451	0.411597
	H72	H	0.904952	0.620087	0.083598
	H73	H	0.088121	0.384781	0.089441
	H74	H	0.097591	0.622885	0.909542
	H75	H	0.908882	0.387544	0.903420
	H76	H	0.094842	0.910549	0.615164
	H77	H	0.078814	0.101431	0.376767
	H78	H	0.902550	0.096300	0.610386
	H79	H	0.897731	0.904065	0.374522
	H80	H	0.609650	0.084485	0.898179
	H81	H	0.373032	0.092925	0.106301
	H82	H	0.612812	0.910517	0.090635
	H83	H	0.378204	0.907899	0.895538
	H84	H	0.611222	0.907124	0.083536
	H85	H	0.374163	0.115389	0.080108
	H86	H	0.614177	0.099378	0.896622
	H87	H	0.377420	0.905675	0.895315
	H88	H	0.902716	0.100215	0.612433
	H89	H	0.094395	0.096302	0.373833
	H90	H	0.089861	0.920872	0.609956
	H91	H	0.898691	0.914811	0.377103
	H92	H	0.087178	0.623678	0.896185
	H93	H	0.086444	0.387431	0.083083
	H94	H	0.895057	0.623773	0.087864
	H95	H	0.897877	0.385982	0.905335
	H96	H	0.389655	0.123988	0.584942
	H97	H	0.590662	0.883315	0.587562
	H98	H	0.586586	0.121705	0.404203
	H99	H	0.388242	0.881869	0.396502
	H100	H	0.590022	0.415266	0.111344
	H101	H	0.598904	0.588317	0.873996
	H102	H	0.396605	0.593899	0.113226
	H103	H	0.395837	0.415801	0.877664
	H104	H	0.107314	0.591867	0.413382
	H105	H	0.873605	0.595794	0.607723
	H106	H	0.108139	0.420739	0.587270
	H107	H	0.877251	0.405075	0.402441
	H108	H	0.903550	0.622618	0.093906
	H109	H	0.092636	0.384959	0.083522
	H110	H	0.081611	0.619015	0.911712
	H111	H	0.901883	0.383436	0.894287
	H112	H	0.083623	0.910517	0.611348
	H113	H	0.082896	0.085170	0.380387
	H114	H	0.898220	0.097895	0.612374
	H115	H	0.907348	0.906857	0.378425
	H116	H	0.609047	0.094219	0.911206
	H117	H	0.384771	0.083080	0.075862
	H118	H	0.609415	0.914724	0.085476
	H119	H	0.377863	0.907214	0.898605
	C120	C	0.373176	0.012673	0.614005
	C121	C	0.615986	0.994882	0.614091
	C122	C	0.615353	0.012955	0.372733
	C123	C	0.371768	0.995110	0.371123
	C124	C	0.617697	0.380716	0.003205
	C125	C	0.616597	0.623628	0.984909
	C126	C	0.373669	0.624323	0.003251
	C127	C	0.373243	0.381217	0.986245
	C128	C	0.003102	0.624568	0.374601
	C129	C	0.985090	0.629086	0.620130
	C130	C	0.002342	0.384618	0.615886
	C131	C	0.986104	0.381281	0.371184
	C132	C	0.873369	0.513048	0.116050
	C133	C	0.117232	0.494996	0.116219
	C134	C	0.116947	0.513179	0.874248
	C135	C	0.873728	0.495228	0.874021
	C136	C	0.116274	0.883013	0.503501
	C137	C	0.115243	0.125407	0.485236
	C138	C	0.872321	0.125724	0.502791
	C139	C	0.872920	0.882389	0.485680
	C140	C	0.503137	0.122735	0.872917
	C141	C	0.485406	0.125446	0.116707
	C142	C	0.503043	0.881722	0.114377
	C143	C	0.486207	0.878606	0.869093
	C144	C	0.376252	0.887774	0.666019
	C145	C	0.613523	0.118680	0.672059
	C146	C	0.612796	0.888331	0.316548
	C147	C	0.374335	0.119611	0.317541
	C148	C	0.673206	0.380224	0.879881
	C149	C	0.671674	0.624641	0.108807
	C150	C	0.316399	0.621684	0.880192
	C151	C	0.318202	0.384115	0.109990
	C152	C	0.879575	0.679372	0.377571
	C153	C	0.108380	0.683484	0.617290
	C154	C	0.879378	0.328895	0.613478
	C155	C	0.108452	0.325486	0.374208
	C156	C	0.879919	0.386761	0.671689
	C157	C	0.107961	0.627316	0.675619
	C158	C	0.880509	0.623686	0.317656
	C159	C	0.108500	0.383090	0.316232
	C160	C	0.375587	0.676404	0.878600
	C161	C	0.614207	0.681593	0.108374
	C162	C	0.614527	0.323500	0.879355
	C163	C	0.377322	0.328329	0.110649
	C164	C	0.671373	0.889148	0.372446
	C165	C	0.671259	0.119022	0.615122
	C166	C	0.317860	0.888767	0.610630
	C167	C	0.314995	0.118842	0.372990
	C168	C	0.876808	0.388458	0.168786
	C169	C	0.114302	0.619353	0.172948
	C170	C	0.114343	0.389669	0.816168
	C171	C	0.876625	0.620155	0.822815
	C172	C	0.170620	0.882351	0.379148
	C173	C	0.172039	0.126567	0.608564
	C174	C	0.816917	0.122712	0.379071
	C175	C	0.817355	0.886456	0.609067
	C176	C	0.380547	0.179186	0.874890
	C177	C	0.608623	0.179503	0.114865
	C178	C	0.379718	0.827821	0.109522
	C179	C	0.609471	0.823456	0.872630
	C180	C	0.380107	0.884141	0.168951
	C181	C	0.608351	0.122873	0.172272
	C182	C	0.380095	0.121291	0.817124
	C183	C	0.608849	0.880561	0.813928
	C184	C	0.874603	0.179359	0.378910
	C185	C	0.113341	0.182402	0.609305
	C186	C	0.112936	0.824781	0.379838
	C187	C	0.877061	0.831659	0.610993
	C188	C	0.171928	0.388924	0.873389
	C189	C	0.172577	0.619001	0.116660
	C190	C	0.818322	0.388969	0.113435
	C191	C	0.816498	0.618181	0.876106
	C192	C	0.394966	0.099438	0.593132
	C193	C	0.593720	0.908451	0.589571
	C194	C	0.593400	0.099715	0.395846
	C195	C	0.394032	0.908752	0.392782
	C196	C	0.595874	0.404636	0.089550
	C197	C	0.594614	0.599376	0.898308
	C198	C	0.396274	0.603305	0.089513
	C199	C	0.394991	0.402676	0.900012
	C200	C	0.088494	0.601662	0.397115
	C201	C	0.899247	0.607180	0.598205
	C202	C	0.087822	0.406970	0.593583
	C203	C	0.900320	0.404283	0.393414
	C204	C	0.894797	0.599838	0.094802
	C205	C	0.095546	0.408212	0.092409
	C206	C	0.095161	0.599686	0.898654
	C207	C	0.896231	0.408200	0.894984
	C208	C	0.095589	0.906849	0.589700
	C209	C	0.092232	0.101290	0.399396
	C210	C	0.894629	0.104395	0.589324
	C211	C	0.894836	0.902693	0.399108
	C212	C	0.588632	0.099477	0.895235
	C213	C	0.399523	0.103582	0.094037
	C214	C	0.588861	0.903949	0.092738
	C215	C	0.400227	0.900444	0.890307
	Zn216	Zn	0.494260	0.002311	0.741830
	Zn217	Zn	0.494416	0.004073	0.244062
	Zn218	Zn	0.745878	0.503408	-0.005361
	Zn219	Zn	0.245488	0.503293	-0.004680
	Zn220	Zn	-0.006049	0.754152	0.496095
	Zn221	Zn	-0.006305	0.253676	0.494157
	Zn222	Zn	-0.005725	0.506080	0.746527
	Zn223	Zn	-0.005659	0.504005	0.243377
	Zn224	Zn	0.494939	0.751479	-0.007314
	Zn225	Zn	0.495070	0.252605	-0.004856
	Zn226	Zn	0.744482	0.004238	0.493298
	Zn227	Zn	0.244500	0.004678	0.493608
	N228	N	0.409965	0.965815	0.668259
	N229	N	0.579855	0.040584	0.671573
	N230	N	0.578694	0.966428	0.316547
	N231	N	0.408622	0.041642	0.316058
	N232	N	0.675478	0.414954	0.958043
	N233	N	0.673321	0.589420	0.030946
	N234	N	0.315018	0.589987	0.958700
	N235	N	0.315502	0.416140	0.031699
	N236	N	0.956654	0.680166	0.412357
	N237	N	0.031033	0.684660	0.583279
	N238	N	0.956547	0.327535	0.579351
	N239	N	0.031149	0.324353	0.407582
	N240	N	0.957246	0.420760	0.673194
	N241	N	0.030443	0.594400	0.677628
	N242	N	0.958225	0.590393	0.315738
	N243	N	0.031186	0.416834	0.314182
	N244	N	0.410509	0.678244	0.956036
	N245	N	0.580557	0.681105	0.030221
	N246	N	0.580682	0.323709	0.956956
	N247	N	0.411002	0.326474	0.032735
	N248	N	0.673213	0.967453	0.406611
	N249	N	0.672778	0.041071	0.579634
	N250	N	0.315775	0.967475	0.578995
	N251	N	0.312969	0.040420	0.405386
	N252	N	0.910372	0.466593	0.170501
	N253	N	0.080310	0.541275	0.172548
	N254	N	0.081032	0.468121	0.816436
	N255	N	0.911666	0.542505	0.821513
	N256	N	0.173001	0.917741	0.456932
	N257	N	0.173182	0.091645	0.530607
	N258	N	0.815298	0.090303	0.457235
	N259	N	0.814629	0.917157	0.530141
	N260	N	0.457784	0.180183	0.908921
	N261	N	0.531148	0.181103	0.080781
	N262	N	0.457193	0.826190	0.076353
	N263	N	0.532051	0.822030	0.906188
	N264	N	0.457938	0.916964	0.172074
	N265	N	0.530872	0.089862	0.173348
	N266	N	0.457365	0.086824	0.815806
	N267	N	0.531388	0.913929	0.811544
	N268	N	0.908284	0.181594	0.457078
	N269	N	0.078655	0.182039	0.531692
	N270	N	0.079959	0.824887	0.457949
	N271	N	0.910876	0.828748	0.533236
	N272	N	0.173771	0.466794	0.908648
	N273	N	0.174548	0.540786	0.082179
	N274	N	0.816032	0.467471	0.081384
	N275	N	0.814585	0.539278	0.907324
	O276	O	0.049884	0.008087	0.002317
	H277	H	0.040258	0.008314	-0.000407
	H278	H	0.063482	0.006599	0.004520
	O279	O	0.524566	0.537395	0.552110
	H280	H	0.519392	0.545833	0.562194
	H281	H	0.529034	0.540861	0.554983
	O282	O	0.535365	0.538512	0.440711
	H283	H	0.538180	0.540815	0.441848
	H284	H	0.536622	0.537669	0.445456
	O285	O	0.059769	1.078444	1.049813
	H286	H	0.061479	1.079640	1.047100
	H287	H	0.055442	1.075777	1.069233
	O288	O	0.424074	0.521439	0.355696
	H289	H	0.420320	0.532937	0.356087
	H290	H	0.421631	0.519354	0.355958
	O291	O	0.995599	0.947272	0.959970
	H292	H	1.005598	0.954813	0.960049
	H293	H	0.995205	0.941278	0.944363
	O294	O	1.069197	0.979282	0.967057
	H295	H	1.062635	0.972487	0.969294
	H296	H	1.077358	0.985939	0.968195
	O297	O	0.951931	0.088310	1.014138
	H298	H	0.954646	0.086672	1.012506
	H299	H	0.953659	0.094344	1.015800
	O300	O	0.443793	0.337192	0.540099
	H301	H	0.444110	0.336856	0.531018
	H302	H	0.429622	0.337662	0.543499
	O303	O	0.983858	0.028271	-0.094324
	H304	H	0.988074	0.030953	-0.102970
	H305	H	0.985806	0.024921	-0.093952
	O306	O	-0.057333	0.954213	1.117079
	H307	H	-0.065249	0.952206	1.110258
	H308	H	-0.060992	0.954348	1.125042
	O309	O	0.481644	0.620357	0.549977
	H310	H	0.495967	0.618062	0.540145
	H311	H	0.478295	0.616211	0.559029
	O312	O	0.902807	0.053797	1.010911
	H313	H	0.899464	0.055477	1.009499
	H314	H	0.912927	0.054003	1.001053
	O315	O	0.434144	0.563630	0.512306
	H316	H	0.426802	0.571055	0.511872
	H317	H	0.441093	0.579492	0.514105
	O318	O	0.546173	0.419428	0.463079
	H319	H	0.553127	0.416559	0.460645
	H320	H	0.539056	0.422575	0.462272
	O321	O	1.060525	0.945224	1.027005
	H322	H	1.055523	0.950256	1.022577
	H323	H	1.067877	0.940737	1.031656
	O324	O	0.458356	0.585646	0.453674
	H325	H	0.460518	0.590595	0.460180
	H326	H	0.447646	0.579252	0.459686
	O327	O	0.463597	0.652745	0.373387
	H328	H	0.473216	0.640197	0.380202
	H329	H	0.459951	0.658772	0.367415
	O330	O	1.048167	0.035398	0.952388
	H331	H	1.054376	0.034995	0.955461
	H332	H	1.044578	0.045244	0.948991
	O333	O	0.968472	1.023628	-0.111560
	H334	H	0.965233	1.034553	-0.098300
	H335	H	0.969132	1.022411	-0.116145
	O336	O	0.624096	0.515636	0.576324
	H337	H	0.624213	0.523290	0.570921
	H338	H	0.627612	0.503179	0.571876
	O339	O	0.563851	0.444608	0.469523
	H340	H	0.561326	0.441489	0.462754
	H341	H	0.571948	0.438901	0.459714
	O342	O	0.495059	0.420902	0.571042
	H343	H	0.482305	0.425240	0.589218
	H344	H	0.498205	0.403040	0.569338
	O345	O	-0.068777	0.040338	-0.003950
	H346	H	-0.069717	0.026576	-0.002297
	H347	H	-0.064356	0.038732	-0.012893
	O348	O	0.491588	0.500893	0.590173
	H349	H	0.496912	0.498794	0.601869
	H350	H	0.501941	0.499453	0.590905
	O351	O	0.478557	0.567942	0.561957
	H352	H	0.477283	0.563714	0.560235
	H353	H	0.483590	0.566102	0.558538
	O354	O	0.554016	0.409303	0.438994
	H355	H	0.563782	0.410520	0.435589
	H356	H	0.558868	0.397506	0.445445
	O357	O	0.486270	0.441785	0.405201
	H358	H	0.478855	0.439876	0.392185
	H359	H	0.484877	0.443182	0.412893
	O360	O	0.078989	-0.018426	0.018325
	H361	H	0.077317	-0.021643	0.026148
	H362	H	0.073831	-0.019345	0.012167
	O363	O	0.393999	0.543456	0.441080
	H364	H	0.391195	0.550740	0.444084
	H365	H	0.395110	0.551981	0.441092
	O366	O	-0.087904	0.033210	1.008388
	H367	H	-0.084500	0.029603	1.018421
	H368	H	-0.085413	0.024649	1.001459
	O369	O	0.442468	0.464847	0.534680
	H370	H	0.438633	0.454424	0.528389
	H371	H	0.441080	0.467367	0.534841
