data_Molecule from HDF5

_cell_length_a		16.070823
_cell_length_b		16.361747
_cell_length_c		16.199727
_cell_angle_alpha	90.446795
_cell_angle_beta	90.779193
_cell_angle_gamma	89.753323
_symmetry_space_group_name_H-M	'P 1'
_symmetry_Int_Tables_number		1

loop_
	_symmetry_equiv_pos_as_xyz
	x,y,z

loop_
	_atom_site_label
	_atom_site_type_symbol
	_atom_site_fract_x
	_atom_site_fract_y
	_atom_site_fract_z
	H0	H	0.389372	0.841191	0.713210
	H1	H	0.589019	0.166959	0.717924
	H2	H	0.587235	0.841982	0.281209
	H3	H	0.383555	0.165930	0.283248
	H4	H	0.698669	0.407817	0.834117
	H5	H	0.703113	0.600407	0.166285
	H6	H	0.270785	0.601987	0.837313
	H7	H	0.281533	0.410880	0.167273
	H8	H	0.822739	0.718236	0.398236
	H9	H	0.153604	0.716394	0.603853
	H10	H	0.822586	0.288950	0.598930
	H11	H	0.151732	0.284590	0.401619
	H12	H	0.820771	0.407754	0.710248
	H13	H	0.152605	0.602544	0.717431
	H14	H	0.821101	0.598484	0.286849
	H15	H	0.152748	0.401547	0.288144
	H16	H	0.384483	0.719537	0.836551
	H17	H	0.593066	0.722190	0.164183
	H18	H	0.589700	0.285888	0.836947
	H19	H	0.389983	0.288477	0.163918
	H20	H	0.699600	0.839215	0.402584
	H21	H	0.702242	0.167163	0.600499
	H22	H	0.279101	0.838044	0.593167
	H23	H	0.269403	0.165696	0.400068
	H24	H	0.890992	0.339788	0.208683
	H25	H	0.088123	0.665870	0.221709
	H26	H	0.088359	0.341836	0.783879
	H27	H	0.885626	0.667185	0.784663
	H28	H	0.196809	0.904020	0.333287
	H29	H	0.203736	0.098445	0.664736
	H30	H	0.773493	0.096760	0.334901
	H31	H	0.777790	0.908312	0.665744
	H32	H	0.324523	0.221358	0.895311
	H33	H	0.653117	0.218010	0.103236
	H34	H	0.324070	0.791317	0.097802
	H35	H	0.653773	0.786615	0.899643
	H36	H	0.322083	0.909974	0.205868
	H37	H	0.652188	0.104433	0.217855
	H38	H	0.322694	0.101350	0.784812
	H39	H	0.654599	0.904978	0.788165
	H40	H	0.882344	0.217687	0.336630
	H41	H	0.092047	0.220096	0.663705
	H42	H	0.086758	0.782987	0.337169
	H43	H	0.890565	0.788573	0.665185
	H44	H	0.202826	0.341028	0.904162
	H45	H	0.202634	0.668165	0.102915
	H46	H	0.777294	0.340952	0.094482
	H47	H	0.772111	0.668033	0.902712
	H48	H	0.392510	0.118865	0.587653
	H49	H	0.585592	0.887458	0.591891
	H50	H	0.569863	0.116091	0.410057
	H51	H	0.404339	0.891808	0.407196
	H52	H	0.583551	0.402272	0.119515
	H53	H	0.582903	0.597606	0.882421
	H54	H	0.398774	0.604678	0.119202
	H55	H	0.393443	0.407624	0.882232
	H56	H	0.104030	0.582234	0.407457
	H57	H	0.865477	0.598704	0.600821
	H58	H	0.105663	0.409311	0.590512
	H59	H	0.863795	0.404306	0.394792
	H60	H	0.103966	0.412667	0.593515
	H61	H	0.868368	0.605620	0.584708
	H62	H	0.109708	0.602391	0.405723
	H63	H	0.868712	0.402432	0.412819
	H64	H	0.397174	0.598281	0.118418
	H65	H	0.576281	0.593190	0.885052
	H66	H	0.590356	0.415044	0.118693
	H67	H	0.393165	0.415615	0.884194
	H68	H	0.585840	0.119163	0.415975
	H69	H	0.584481	0.886248	0.597459
	H70	H	0.392586	0.121333	0.596806
	H71	H	0.383431	0.885026	0.406349
	H72	H	0.891800	0.625541	0.106641
	H73	H	0.089424	0.387017	0.090010
	H74	H	0.087595	0.624859	0.905019
	H75	H	0.889066	0.384798	0.899938
	H76	H	0.085257	0.907618	0.618670
	H77	H	0.079315	0.098903	0.380990
	H78	H	0.899532	0.092059	0.615604
	H79	H	0.892027	0.907585	0.382547
	H80	H	0.608203	0.098837	0.908297
	H81	H	0.369694	0.099971	0.085806
	H82	H	0.609424	0.909019	0.095899
	H83	H	0.367561	0.907797	0.897403
	H84	H	0.605783	0.910520	0.086798
	H85	H	0.370373	0.095615	0.090352
	H86	H	0.606329	0.097055	0.912830
	H87	H	0.370810	0.905553	0.912313
	H88	H	0.901644	0.102289	0.618953
	H89	H	0.080034	0.089422	0.383062
	H90	H	0.085584	0.909841	0.616783
	H91	H	0.894893	0.907810	0.383193
	H92	H	0.068785	0.618630	0.902551
	H93	H	0.087996	0.385835	0.100366
	H94	H	0.907508	0.617168	0.094314
	H95	H	0.903116	0.389650	0.901942
	H96	H	0.400108	0.117944	0.592918
	H97	H	0.579346	0.888260	0.593577
	H98	H	0.582519	0.123677	0.398332
	H99	H	0.395041	0.884161	0.388574
	H100	H	0.576306	0.414428	0.114457
	H101	H	0.575470	0.600260	0.883032
	H102	H	0.403205	0.600084	0.117617
	H103	H	0.399584	0.411260	0.884711
	H104	H	0.102798	0.595541	0.423748
	H105	H	0.872886	0.589658	0.587968
	H106	H	0.105931	0.408288	0.595028
	H107	H	0.871682	0.418143	0.403799
	H108	H	0.887680	0.620941	0.086253
	H109	H	0.079597	0.389041	0.094767
	H110	H	0.078596	0.616819	0.920978
	H111	H	0.894050	0.390299	0.911611
	H112	H	0.082437	0.908790	0.617049
	H113	H	0.071671	0.095045	0.384761
	H114	H	0.891098	0.099526	0.619918
	H115	H	0.894224	0.904746	0.382610
	H116	H	0.606810	0.093397	0.908521
	H117	H	0.367647	0.101956	0.091276
	H118	H	0.606617	0.918309	0.093074
	H119	H	0.372301	0.919080	0.905413
	C120	C	0.367444	0.011422	0.620063
	C121	C	0.611577	0.995041	0.623396
	C122	C	0.608236	0.011448	0.378560
	C123	C	0.364027	0.994711	0.374135
	C124	C	0.610901	0.382274	0.008805
	C125	C	0.609939	0.626137	0.992005
	C126	C	0.367666	0.628001	0.009885
	C127	C	0.367873	0.383326	0.992180
	C128	C	-0.003986	0.622376	0.380968
	C129	C	0.978683	0.625851	0.622167
	C130	C	-0.004255	0.382689	0.621151
	C131	C	0.977681	0.379273	0.377470
	C132	C	0.867786	0.512691	0.121297
	C133	C	0.112538	0.495412	0.125201
	C134	C	0.108709	0.512536	0.880033
	C135	C	0.865396	0.496234	0.876837
	C136	C	0.110852	0.879731	0.508700
	C137	C	0.108498	0.123570	0.491419
	C138	C	0.866050	0.124738	0.509208
	C139	C	0.866612	0.880500	0.491800
	C140	C	0.497713	0.125188	0.878941
	C141	C	0.478530	0.127200	0.120982
	C142	C	0.497728	0.884862	0.119286
	C143	C	0.479762	0.881823	0.877336
	C144	C	0.370185	0.889199	0.674798
	C145	C	0.608887	0.118014	0.679582
	C146	C	0.606675	0.889862	0.320840
	C147	C	0.364217	0.117272	0.320848
	C148	C	0.663006	0.386220	0.883968
	C149	C	0.666259	0.622665	0.116372
	C150	C	0.309594	0.623436	0.886206
	C151	C	0.316564	0.388175	0.117194
	C152	C	0.871776	0.678872	0.379927
	C153	C	0.103538	0.679669	0.623048
	C154	C	0.871619	0.327400	0.618816
	C155	C	0.102725	0.323664	0.381417
	C156	C	0.870864	0.386490	0.674310
	C157	C	0.103007	0.622960	0.679580
	C158	C	0.870879	0.619416	0.324332
	C159	C	0.103061	0.381446	0.324858
	C160	C	0.366064	0.682092	0.885854
	C161	C	0.611431	0.683042	0.115344
	C162	C	0.608671	0.325688	0.885443
	C163	C	0.370680	0.327474	0.115416
	C164	C	0.662852	0.888578	0.381206
	C165	C	0.665301	0.118119	0.620913
	C166	C	0.315174	0.887631	0.614914
	C167	C	0.307308	0.116895	0.378864
	C168	C	0.870773	0.389007	0.172834
	C169	C	0.108680	0.617670	0.182456
	C170	C	0.108073	0.390282	0.823024
	C171	C	0.865636	0.618618	0.822259
	C172	C	0.161909	0.882494	0.383505
	C173	C	0.165729	0.120259	0.615432
	C174	C	0.810488	0.119213	0.384426
	C175	C	0.814022	0.886080	0.616251
	C176	C	0.373362	0.181921	0.877529
	C177	C	0.603493	0.180925	0.122038
	C178	C	0.373189	0.829556	0.117066
	C179	C	0.604608	0.825621	0.880168
	C180	C	0.372170	0.888578	0.170910
	C181	C	0.602898	0.124431	0.179023
	C182	C	0.372394	0.122244	0.822467
	C183	C	0.604931	0.884213	0.824441
	C184	C	0.864861	0.178930	0.385360
	C185	C	0.110060	0.180615	0.614815
	C186	C	0.107316	0.822309	0.385414
	C187	C	0.870202	0.826676	0.615951
	C188	C	0.164954	0.389955	0.882777
	C189	C	0.165663	0.618941	0.123550
	C190	C	0.814023	0.389650	0.115911
	C191	C	0.809220	0.618918	0.880722
	C192	C	0.388873	0.097200	0.598865
	C193	C	0.589620	0.909229	0.601173
	C194	C	0.585921	0.097449	0.401413
	C195	C	0.387582	0.909079	0.394431
	C196	C	0.589720	0.404182	0.095128
	C197	C	0.585400	0.603609	0.905796
	C198	C	0.392475	0.607092	0.096052
	C199	C	0.389045	0.405097	0.906115
	C200	C	0.082995	0.599960	0.405237
	C201	C	0.891359	0.604313	0.598255
	C202	C	0.082740	0.403930	0.599443
	C203	C	0.890718	0.401650	0.397725
	C204	C	0.889244	0.598909	0.101470
	C205	C	0.091728	0.409450	0.101913
	C206	C	0.085334	0.597957	0.902808
	C207	C	0.888600	0.410561	0.898153
	C208	C	0.090389	0.902041	0.595005
	C209	C	0.083994	0.101087	0.405281
	C210	C	0.890119	0.104096	0.595706
	C211	C	0.887666	0.900625	0.405144
	C212	C	0.584708	0.102967	0.902917
	C213	C	0.391742	0.105613	0.096325
	C214	C	0.584746	0.906353	0.098163
	C215	C	0.392849	0.904377	0.898587
	Zn216	Zn	0.488649	0.003753	0.750661
	Zn217	Zn	0.486547	0.004581	0.246621
	Zn218	Zn	0.738763	0.504237	0.000190
	Zn219	Zn	0.239995	0.505272	0.002117
	Zn220	Zn	-0.011346	0.751563	0.501221
	Zn221	Zn	-0.013531	0.253276	0.500093
	Zn222	Zn	-0.013066	0.504472	0.748713
	Zn223	Zn	-0.012408	0.502103	0.251459
	Zn224	Zn	0.489400	0.756094	-0.000003
	Zn225	Zn	0.488700	0.253390	0.000180
	Zn226	Zn	0.738854	0.003513	0.500632
	Zn227	Zn	0.237783	0.001524	0.498393
	N228	N	0.401982	0.967273	0.678114
	N229	N	0.576117	0.040425	0.681322
	N230	N	0.573353	0.967444	0.319190
	N231	N	0.398774	0.040237	0.317728
	N232	N	0.664482	0.421006	0.961603
	N233	N	0.665460	0.588061	0.038711
	N234	N	0.310540	0.590667	0.964209
	N235	N	0.314545	0.422240	0.039717
	N236	N	0.950611	0.680663	0.414229
	N237	N	0.025130	0.681445	0.587850
	N238	N	0.950240	0.324833	0.586608
	N239	N	0.023823	0.321943	0.413119
	N240	N	0.949373	0.420052	0.676011
	N241	N	0.024222	0.590218	0.679025
	N242	N	0.949324	0.584833	0.324930
	N243	N	0.024516	0.415446	0.322007
	N244	N	0.401599	0.685059	0.963705
	N245	N	0.576941	0.685255	0.036840
	N246	N	0.577403	0.322678	0.964018
	N247	N	0.401891	0.324330	0.036759
	N248	N	0.663557	0.965418	0.416578
	N249	N	0.667080	0.040752	0.586802
	N250	N	0.313147	0.964568	0.581595
	N251	N	0.307016	0.039524	0.411387
	N252	N	0.903573	0.466609	0.176410
	N253	N	0.076334	0.539843	0.183561
	N254	N	0.073629	0.467547	0.821346
	N255	N	0.899850	0.541360	0.819744
	N256	N	0.164463	0.917231	0.461093
	N257	N	0.165029	0.085527	0.537751
	N258	N	0.811283	0.086064	0.462370
	N259	N	0.811727	0.918806	0.538223
	N260	N	0.452138	0.183790	0.911781
	N261	N	0.525268	0.182600	0.086344
	N262	N	0.452229	0.827044	0.085814
	N263	N	0.525692	0.823798	0.912288
	N264	N	0.450553	0.922505	0.172352
	N265	N	0.524020	0.092034	0.178732
	N266	N	0.450677	0.087487	0.823357
	N267	N	0.526473	0.918151	0.822553
	N268	N	0.898704	0.182669	0.463964
	N269	N	0.075222	0.182727	0.536687
	N270	N	0.076182	0.820399	0.464101
	N271	N	0.902063	0.822914	0.537542
	N272	N	0.165389	0.467068	0.917493
	N273	N	0.168410	0.541889	0.088993
	N274	N	0.812045	0.467585	0.084402
	N275	N	0.808823	0.541770	0.913910
	O276	O	-0.017008	0.038695	0.021416
	H277	H	-0.019891	0.046185	0.016747
	H278	H	-0.003493	0.038459	0.021590
	O279	O	0.414813	0.452677	0.492785
	H280	H	0.415032	0.458774	0.485371
	H281	H	0.412550	0.445336	0.501324
	O282	O	0.543892	0.454243	0.503273
	H283	H	0.534829	0.453248	0.515181
	H284	H	0.544443	0.464827	0.504695
	O285	O	0.065915	0.959925	0.022857
	H286	H	0.064055	0.969902	0.012445
	H287	H	0.069659	0.959617	0.019544
	O288	O	0.579427	0.619132	0.624191
	H289	H	0.569852	0.625024	0.636301
	H290	H	0.584875	0.619064	0.616682
	O291	O	0.970130	0.989123	0.992414
	H292	H	0.970968	0.981438	1.002210
	H293	H	0.970204	0.985523	0.990877
	O294	O	0.969614	0.930019	0.985920
	H295	H	0.969441	0.925291	0.979242
	H296	H	0.970774	0.948179	0.990727
	O297	O	1.042514	0.095810	1.048582
	H298	H	1.042565	0.087218	1.036755
	H299	H	1.056118	0.093849	1.053590
	O300	O	0.436356	0.385152	0.635982
	H301	H	0.439167	0.391082	0.645825
	H302	H	0.426286	0.370512	0.635213
	O303	O	1.043182	0.005422	-0.008221
	H304	H	1.043570	0.010950	-0.016121
	H305	H	1.036127	0.006328	-0.009192
	O306	O	-0.036466	0.964101	0.977949
	H307	H	-0.038910	0.967727	0.984499
	H308	H	-0.034878	0.967979	0.974676
	O309	O	0.466670	0.613945	0.531815
	H310	H	0.474621	0.612123	0.527134
	H311	H	0.477444	0.612043	0.537562
	O312	O	1.014425	0.060551	0.986335
	H313	H	1.003311	0.069715	0.988946
	H314	H	1.013247	0.056520	0.968568
	O315	O	0.978569	1.138280	-0.115862
	H316	H	0.969645	1.149993	-0.118540
	H317	H	0.970920	1.139583	-0.108093
	O318	O	0.411399	0.482394	0.504630
	H319	H	0.412046	0.476429	0.501961
	H320	H	0.414374	0.464300	0.497834
	O321	O	0.963872	0.946736	0.958480
	H322	H	0.962198	0.949496	0.961542
	H323	H	0.957206	0.956174	0.951380
	O324	O	0.438981	0.569828	0.569919
	H325	H	0.435342	0.568850	0.569604
	H326	H	0.440439	0.567818	0.571091
	O327	O	0.459369	0.556273	0.440200
	H328	H	0.450140	0.556046	0.432993
	H329	H	0.463955	0.555134	0.433713
	O330	O	1.063369	0.054478	0.989589
	H331	H	1.059324	0.062753	0.987966
	H332	H	1.064097	0.055556	0.994294
	O333	O	0.983382	1.029891	-0.009708
	H334	H	0.985762	1.018080	-0.009272
	H335	H	0.980053	1.024365	-0.013392
	O336	O	0.455504	0.599859	0.412762
	H337	H	0.452347	0.608386	0.412193
	H338	H	0.437841	0.601394	0.413603
	O339	O	0.508577	0.508601	0.502047
	H340	H	0.495653	0.515293	0.502985
	H341	H	0.502216	0.506257	0.504872
	O342	O	0.473956	0.619961	0.547224
	H343	H	0.478620	0.611412	0.543847
	H344	H	0.466435	0.628617	0.546717
	O345	O	-0.007352	0.107389	0.024897
	H346	H	0.003654	0.109049	0.038283
	H347	H	-0.019477	0.122048	0.033249
	O348	O	0.471205	0.488484	0.494335
	H349	H	0.460032	0.491109	0.498208
	H350	H	0.479247	0.480235	0.493548
	O351	O	0.466366	0.440219	0.387001
	H352	H	0.471418	0.451850	0.386662
	H353	H	0.459093	0.431174	0.389566
	O354	O	0.521569	0.513169	0.347169
	H355	H	0.522032	0.525842	0.341734
	H356	H	0.522181	0.514111	0.354262
	O357	O	0.467405	0.477313	0.571459
	H358	H	0.460898	0.473193	0.571383
	H359	H	0.473176	0.483836	0.559978
	O360	O	0.579897	-0.605953	0.402005
	H361	H	0.597932	-0.596834	0.407436
	H362	H	0.565919	-0.608219	0.398428
	O363	O	0.519005	0.396253	0.505102
	H364	H	0.526189	0.402422	0.510954
	H365	H	0.523807	0.396073	0.497966
	O366	O	-0.005884	-0.106943	0.983589
	H367	H	-0.012078	-0.116983	0.985989
	H368	H	-0.007381	-0.104885	0.983225
	O369	O	0.531022	0.496301	0.536416
	H370	H	0.533051	0.510472	0.537405
	H371	H	0.539434	0.504905	0.530129
