data_Molecule from HDF5

_cell_length_a		16.296339
_cell_length_b		16.396599
_cell_length_c		16.485631
_cell_angle_alpha	90.199692
_cell_angle_beta	89.851807
_cell_angle_gamma	90.096448
_symmetry_space_group_name_H-M	'P 1'
_symmetry_Int_Tables_number		1

loop_
	_symmetry_equiv_pos_as_xyz
	x,y,z

loop_
	_atom_site_label
	_atom_site_type_symbol
	_atom_site_fract_x
	_atom_site_fract_y
	_atom_site_fract_z
	H0	H	0.390182	0.847785	0.720729
	H1	H	0.605458	0.164601	0.721015
	H2	H	0.604148	0.846748	0.279736
	H3	H	0.393658	0.165038	0.276407
	H4	H	0.718638	0.405069	0.838438
	H5	H	0.716352	0.606373	0.158441
	H6	H	0.279304	0.610519	0.840292
	H7	H	0.279295	0.402645	0.157552
	H8	H	0.840481	0.725400	0.399537
	H9	H	0.161635	0.730983	0.605150
	H10	H	0.843183	0.289187	0.601702
	H11	H	0.164333	0.289888	0.394190
	H12	H	0.843033	0.404997	0.718205
	H13	H	0.161815	0.616605	0.721209
	H14	H	0.841530	0.612141	0.281181
	H15	H	0.162757	0.404729	0.277477
	H16	H	0.393218	0.728361	0.840794
	H17	H	0.606477	0.728295	0.155559
	H18	H	0.603370	0.285611	0.839960
	H19	H	0.394184	0.285187	0.157505
	H20	H	0.720101	0.846818	0.397295
	H21	H	0.719725	0.167137	0.602032
	H22	H	0.278886	0.847976	0.600541
	H23	H	0.282988	0.167686	0.395474
	H24	H	0.899947	0.349454	0.217353
	H25	H	0.110290	0.666717	0.221498
	H26	H	0.110623	0.350222	0.773499
	H27	H	0.895828	0.667790	0.777827
	H28	H	0.220677	0.905015	0.339123
	H29	H	0.221241	0.111712	0.658531
	H30	H	0.785390	0.107881	0.340071
	H31	H	0.781935	0.906014	0.659247
	H32	H	0.340400	0.227150	0.892481
	H33	H	0.659022	0.224860	0.101092
	H34	H	0.339742	0.785129	0.102419
	H35	H	0.661707	0.787975	0.895091
	H36	H	0.339945	0.899538	0.220612
	H37	H	0.658465	0.111119	0.218816
	H38	H	0.341041	0.112802	0.775601
	H39	H	0.659262	0.899166	0.775443
	H40	H	0.902447	0.225342	0.340438
	H41	H	0.106958	0.229205	0.658150
	H42	H	0.107119	0.786103	0.340374
	H43	H	0.896138	0.787557	0.658150
	H44	H	0.219496	0.346525	0.895370
	H45	H	0.225152	0.665453	0.104061
	H46	H	0.787499	0.346454	0.096733
	H47	H	0.781696	0.667673	0.896194
	H48	H	0.407991	0.118636	0.583059
	H49	H	0.586322	0.892471	0.592501
	H50	H	0.600511	0.124325	0.404623
	H51	H	0.409783	0.891445	0.404699
	H52	H	0.591999	0.411514	0.113422
	H53	H	0.595926	0.590145	0.884201
	H54	H	0.407356	0.590037	0.110372
	H55	H	0.409906	0.416505	0.885606
	H56	H	0.115638	0.596912	0.411092
	H57	H	0.885298	0.602725	0.593655
	H58	H	0.118267	0.419903	0.587961
	H59	H	0.890846	0.422192	0.412745
	H60	H	0.116861	0.420626	0.585860
	H61	H	0.890195	0.598094	0.581913
	H62	H	0.116585	0.596448	0.409207
	H63	H	0.887067	0.418066	0.401980
	H64	H	0.420344	0.591345	0.106539
	H65	H	0.583651	0.595225	0.886728
	H66	H	0.595983	0.411953	0.114282
	H67	H	0.413957	0.416443	0.887366
	H68	H	0.586955	0.121919	0.400743
	H69	H	0.588675	0.894861	0.582143
	H70	H	0.412779	0.122408	0.596358
	H71	H	0.418836	0.895433	0.408587
	H72	H	0.906490	0.624350	0.089660
	H73	H	0.083608	0.399970	0.079851
	H74	H	0.082733	0.617428	0.909240
	H75	H	0.908249	0.391490	0.901502
	H76	H	0.082901	0.915303	0.610373
	H77	H	0.098764	0.096923	0.384540
	H78	H	0.915886	0.101312	0.612482
	H79	H	0.911930	0.912538	0.385190
	H80	H	0.612321	0.089978	0.908422
	H81	H	0.383052	0.088513	0.096135
	H82	H	0.613518	0.920403	0.090539
	H83	H	0.384728	0.911737	0.911019
	H84	H	0.616365	0.913213	0.092093
	H85	H	0.381761	0.102432	0.087378
	H86	H	0.614993	0.095656	0.907996
	H87	H	0.388039	0.920051	0.912355
	H88	H	0.908753	0.103353	0.615682
	H89	H	0.087877	0.095756	0.388635
	H90	H	0.096317	0.918182	0.613952
	H91	H	0.908771	0.919440	0.386135
	H92	H	0.092451	0.618694	0.917403
	H93	H	0.098126	0.391585	0.088290
	H94	H	0.908067	0.625166	0.095126
	H95	H	0.918575	0.395924	0.905018
	H96	H	0.422064	0.115909	0.586920
	H97	H	0.595955	0.890895	0.588519
	H98	H	0.591118	0.118441	0.414066
	H99	H	0.409575	0.895278	0.414917
	H100	H	0.593488	0.414980	0.113212
	H101	H	0.593350	0.603113	0.881656
	H102	H	0.414076	0.601157	0.112619
	H103	H	0.412642	0.413139	0.885089
	H104	H	0.116991	0.598956	0.409798
	H105	H	0.889732	0.589914	0.592318
	H106	H	0.116945	0.422293	0.588091
	H107	H	0.886756	0.411206	0.411232
	H108	H	0.912572	0.623906	0.090913
	H109	H	0.082273	0.394266	0.097226
	H110	H	0.093487	0.623073	0.905536
	H111	H	0.909648	0.394883	0.912222
	H112	H	0.088842	0.928425	0.608402
	H113	H	0.091754	0.105771	0.383546
	H114	H	0.910012	0.095487	0.612928
	H115	H	0.915871	0.917216	0.388066
	H116	H	0.611942	0.093777	0.913197
	H117	H	0.388866	0.089259	0.080567
	H118	H	0.613917	0.915059	0.084584
	H119	H	0.385053	0.917547	0.904115
	C120	C	0.379775	0.014534	0.620160
	C121	C	0.621801	0.998202	0.619925
	C122	C	0.623763	0.015626	0.376005
	C123	C	0.380029	0.999023	0.377117
	C124	C	0.623789	0.382743	0.007662
	C125	C	0.622093	0.627379	0.989279
	C126	C	0.380205	0.626872	0.006145
	C127	C	0.379129	0.383850	0.990529
	C128	C	0.010264	0.629088	0.379053
	C129	C	0.993907	0.630038	0.621208
	C130	C	0.011881	0.388158	0.619401
	C131	C	0.994622	0.386617	0.377128
	C132	C	0.879808	0.517523	0.120699
	C133	C	0.122385	0.499687	0.120584
	C134	C	0.122722	0.515004	0.877856
	C135	C	0.880328	0.500125	0.876338
	C136	C	0.122279	0.887610	0.506610
	C137	C	0.124616	0.130721	0.490675
	C138	C	0.881084	0.129847	0.508508
	C139	C	0.880311	0.885964	0.491515
	C140	C	0.507986	0.126091	0.877200
	C141	C	0.490322	0.126103	0.119549
	C142	C	0.508499	0.884192	0.120303
	C143	C	0.491751	0.884388	0.876897
	C144	C	0.374194	0.895346	0.679969
	C145	C	0.623772	0.117500	0.680533
	C146	C	0.623715	0.895118	0.318403
	C147	C	0.376853	0.117987	0.316828
	C148	C	0.680531	0.384403	0.886988
	C149	C	0.678790	0.626864	0.110036
	C150	C	0.319204	0.628967	0.887807
	C151	C	0.318601	0.382926	0.109788
	C152	C	0.889031	0.687027	0.379611
	C153	C	0.113881	0.691016	0.623530
	C154	C	0.890914	0.328904	0.620387
	C155	C	0.115707	0.328726	0.375494
	C156	C	0.891098	0.386095	0.678624
	C157	C	0.113870	0.633992	0.681393
	C158	C	0.889552	0.630784	0.320562
	C159	C	0.115028	0.385934	0.317247
	C160	C	0.376195	0.687718	0.887861
	C161	C	0.623876	0.687358	0.108678
	C162	C	0.622997	0.325186	0.887350
	C163	C	0.376052	0.324857	0.109843
	C164	C	0.681658	0.895254	0.376760
	C165	C	0.680390	0.118748	0.621226
	C166	C	0.318420	0.895518	0.620399
	C167	C	0.321398	0.119171	0.376111
	C168	C	0.880498	0.396842	0.177801
	C169	C	0.127248	0.619036	0.180889
	C170	C	0.126777	0.396818	0.815434
	C171	C	0.877963	0.619903	0.817904
	C172	C	0.181819	0.885654	0.387034
	C173	C	0.182878	0.131087	0.610589
	C174	C	0.824170	0.128334	0.387850
	C175	C	0.821458	0.886497	0.611563
	C176	C	0.388404	0.187059	0.874338
	C177	C	0.610827	0.185657	0.120441
	C178	C	0.387940	0.824196	0.121699
	C179	C	0.613146	0.826594	0.875943
	C180	C	0.388006	0.881652	0.180117
	C181	C	0.610780	0.128771	0.178620
	C182	C	0.388353	0.129653	0.816493
	C183	C	0.612005	0.882248	0.816635
	C184	C	0.882135	0.186488	0.388080
	C185	C	0.125928	0.189774	0.610288
	C186	C	0.125301	0.826518	0.387750
	C187	C	0.878309	0.827557	0.610990
	C188	C	0.181389	0.394900	0.875970
	C189	C	0.184537	0.618433	0.122397
	C190	C	0.824795	0.395473	0.117798
	C191	C	0.820559	0.619785	0.876393
	C192	C	0.406627	0.097440	0.595804
	C193	C	0.597244	0.914541	0.594916
	C194	C	0.599673	0.099789	0.399662
	C195	C	0.405381	0.915696	0.402162
	C196	C	0.600435	0.405904	0.091765
	C197	C	0.597942	0.603256	0.906004
	C198	C	0.406246	0.601476	0.088536
	C199	C	0.404836	0.408303	0.907738
	C200	C	0.094506	0.604634	0.403033
	C201	C	0.910265	0.604290	0.596544
	C202	C	0.095458	0.413565	0.594642
	C203	C	0.910192	0.410332	0.401558
	C204	C	0.902599	0.602360	0.098350
	C205	C	0.095599	0.416892	0.095661
	C206	C	0.097007	0.598089	0.903335
	C207	C	0.905125	0.416050	0.899716
	C208	C	0.096839	0.913251	0.589113
	C209	C	0.100130	0.106525	0.407311
	C210	C	0.904614	0.106803	0.592042
	C211	C	0.905028	0.909672	0.408129
	C212	C	0.591432	0.100460	0.902673
	C213	C	0.406515	0.100695	0.095289
	C214	C	0.592559	0.909079	0.095953
	C215	C	0.407816	0.909296	0.901775
	Zn216	Zn	0.499872	0.005344	0.749047
	Zn217	Zn	0.499727	0.005969	0.248399
	Zn218	Zn	0.751554	0.507270	-0.001711
	Zn219	Zn	0.250808	0.505541	-0.001259
	Zn220	Zn	0.002069	0.757645	0.499721
	Zn221	Zn	0.003716	0.259161	0.498998
	Zn222	Zn	0.002944	0.508922	0.748247
	Zn223	Zn	0.001950	0.508931	0.249858
	Zn224	Zn	0.501202	0.756560	-0.001995
	Zn225	Zn	0.499064	0.254444	-0.001311
	Zn226	Zn	0.751840	0.007247	0.499316
	Zn227	Zn	0.252257	0.007986	0.497982
	N228	N	0.411657	0.970465	0.680005
	N229	N	0.588169	0.041379	0.679935
	N230	N	0.588798	0.971423	0.317526
	N231	N	0.412741	0.042240	0.317558
	N232	N	0.681361	0.419151	0.962835
	N233	N	0.677817	0.590312	0.034952
	N234	N	0.321546	0.591944	0.962457
	N235	N	0.320358	0.418760	0.034673
	N236	N	0.965319	0.686180	0.415034
	N237	N	0.038442	0.688668	0.586828
	N238	N	0.966917	0.330208	0.584236
	N239	N	0.039772	0.329032	0.412086
	N240	N	0.967217	0.422138	0.678247
	N241	N	0.038091	0.596956	0.680200
	N242	N	0.966058	0.595600	0.320134
	N243	N	0.038552	0.421235	0.318253
	N244	N	0.413356	0.686686	0.962554
	N245	N	0.589297	0.687849	0.032628
	N246	N	0.588573	0.323897	0.963525
	N247	N	0.412792	0.325200	0.034620
	N248	N	0.682069	0.971395	0.411508
	N249	N	0.679282	0.043566	0.584245
	N250	N	0.321796	0.970629	0.584057
	N251	N	0.323425	0.044271	0.413165
	N252	N	0.913943	0.473843	0.179864
	N253	N	0.089104	0.544300	0.179571
	N254	N	0.091051	0.472758	0.816517
	N255	N	0.914428	0.544310	0.817708
	N256	N	0.180108	0.922807	0.461760
	N257	N	0.182299	0.095077	0.535089
	N258	N	0.823119	0.094025	0.463603
	N259	N	0.822614	0.921986	0.536252
	N260	N	0.463680	0.184797	0.911736
	N261	N	0.534960	0.183974	0.084243
	N262	N	0.463858	0.825860	0.084982
	N263	N	0.537307	0.827844	0.912667
	N264	N	0.463978	0.917883	0.179532
	N265	N	0.534846	0.092571	0.178066
	N266	N	0.463718	0.092363	0.818347
	N267	N	0.535352	0.917222	0.816951
	N268	N	0.916714	0.187716	0.464045
	N269	N	0.090674	0.189493	0.534769
	N270	N	0.089010	0.827432	0.463092
	N271	N	0.914317	0.827284	0.535518
	N272	N	0.178939	0.469513	0.914001
	N273	N	0.181640	0.543294	0.085532
	N274	N	0.823910	0.471629	0.083390
	N275	N	0.822205	0.544160	0.912064
	O276	O	0.406331	0.347749	0.580944
	H277	H	0.436661	0.352263	0.583146
	H278	H	0.411919	0.368774	0.593913
	O279	O	-0.177240	0.039312	0.010228
	H280	H	-0.171446	0.034563	0.020069
	H281	H	-0.184197	0.068574	0.017125
	O282	O	0.709513	0.480685	0.295749
	H283	H	0.713831	0.458029	0.291373
	H284	H	0.727253	0.469380	0.290115
	O285	O	1.933972	0.104206	0.929853
	H286	H	1.937900	0.097582	0.927682
	H287	H	1.922422	0.083353	0.926924
	O288	O	0.582583	0.629421	0.379040
	H289	H	0.600268	0.619686	0.363591
	H290	H	0.590397	0.641457	0.385317
	O291	O	0.430938	0.497353	0.320302
	H292	H	0.409002	0.503991	0.320190
	H293	H	0.434215	0.471635	0.316351
	O294	O	0.905856	1.191102	1.170542
	H295	H	0.898465	1.206948	1.158348
	H296	H	0.911354	1.187013	1.180086
	O297	O	0.678255	0.490035	0.498763
	H298	H	0.688229	0.494722	0.480223
	H299	H	0.678698	0.491276	0.484777
	O300	O	0.597568	0.642215	0.691356
	H301	H	0.586803	0.620786	0.701544
	H302	H	0.603188	0.652762	0.706180
	O303	O	0.712944	0.297136	0.466726
	H304	H	0.692546	0.304391	0.451190
	H305	H	0.742251	0.270954	0.467427
	O306	O	0.016430	-0.109951	0.803223
	H307	H	0.040987	-0.118824	0.800098
	H308	H	0.026017	-0.091953	0.799447
	O309	O	1.041210	-0.073083	-0.039947
	H310	H	1.052800	-0.083623	-0.014237
	H311	H	1.047487	-0.051681	-0.039549
	O312	O	0.525448	0.393077	0.479822
	H313	H	0.522966	0.394108	0.490300
	H314	H	0.522444	0.392240	0.485586
	O315	O	0.341544	0.600044	0.434180
	H316	H	0.338519	0.590305	0.431785
	H317	H	0.328236	0.591381	0.426252
	O318	O	-0.094455	-0.022878	-0.064257
	H319	H	-0.095406	-0.019203	-0.072827
	H320	H	-0.094108	-0.027090	-0.048532
	O321	O	0.470310	0.445299	0.328894
	H322	H	0.466515	0.429121	0.314730
	H323	H	0.466469	0.430215	0.360840
	O324	O	0.882103	0.044760	0.793672
	H325	H	0.865439	0.047608	0.793132
	H326	H	0.904690	0.053688	0.795733
	O327	O	0.560832	0.616580	0.405991
	H328	H	0.556388	0.610839	0.397591
	H329	H	0.573120	0.625979	0.392991
	O330	O	-0.068904	0.820440	0.900348
	H331	H	-0.078107	0.819891	0.903514
	H332	H	-0.054831	0.832656	0.877658
	O333	O	-0.003677	0.882542	0.079147
	H334	H	-0.006031	0.880986	0.077782
	H335	H	-0.000633	0.886568	0.059827
	O336	O	0.983709	1.179793	-0.031572
	H337	H	0.992213	1.175631	-0.047755
	H338	H	0.979008	1.179864	-0.035301
	O339	O	0.177418	0.925023	0.904390
	H340	H	0.201047	0.904862	0.918102
	H341	H	0.179856	0.934891	0.915772
	O342	O	0.620816	0.378374	0.619098
	H343	H	0.626094	0.390065	0.616958
	H344	H	0.643247	0.378048	0.622434
	O345	O	0.200506	0.087557	1.014372
	H346	H	0.178529	0.081925	1.033992
	H347	H	0.214280	0.105959	1.017889
	O348	O	0.311797	0.424329	0.686837
	H349	H	0.296579	0.437824	0.702090
	H350	H	0.333771	0.431573	0.678636
	O351	O	1.109188	0.947910	0.006433
	H352	H	1.095651	0.941175	-0.012865
	H353	H	1.108387	0.969904	0.006187
	O354	O	0.941160	1.067343	0.892359
	H355	H	0.929245	1.075015	0.878885
	H356	H	0.944581	1.075782	0.876876
	O357	O	-0.196905	0.190477	-0.170922
	H358	H	-0.170323	0.182818	-0.176933
	H359	H	-0.205971	0.188987	-0.151002
	O360	O	0.081320	0.161766	1.194453
	H361	H	0.079907	0.156126	1.193637
	H362	H	0.072043	0.168072	1.199135
	O363	O	0.789312	-0.021502	0.211022
	H364	H	0.779824	-0.030518	0.231522
	H365	H	0.794642	-0.041630	0.214882
	O366	O	0.420035	-0.467836	0.476087
	H367	H	0.411246	-0.479721	0.473699
	H368	H	0.425238	-0.464029	0.469793
	O369	O	1.288605	0.293598	1.545008
	H370	H	1.287517	0.287581	1.573496
	H371	H	1.273050	0.271881	1.564964
	O372	O	0.806450	0.892709	0.025003
	H373	H	0.816436	0.896856	0.021200
	H374	H	0.800166	0.894992	0.021364
	O375	O	-0.661419	-0.505997	1.466589
	H376	H	-0.658697	-0.506136	1.471624
	H377	H	-0.655450	-0.506036	1.476279
	O378	O	0.604374	0.491060	0.693217
	H379	H	0.614716	0.498824	0.677817
	H380	H	0.606580	0.504167	0.694272
	O381	O	0.002972	0.861987	0.157508
	H382	H	0.006012	0.852266	0.181392
	H383	H	-0.002170	0.872777	0.155693
	O384	O	0.433463	0.672469	0.523698
	H385	H	0.420535	0.669770	0.530485
	H386	H	0.430349	0.678863	0.509149
	O387	O	0.194636	0.059369	-0.088996
	H388	H	0.182437	0.059074	-0.083465
	H389	H	0.197464	0.079460	-0.076339
	O390	O	1.121161	1.112237	0.112853
	H391	H	1.110753	1.097259	0.103358
	H392	H	1.125552	1.104432	0.128568
	O393	O	1.148095	-0.138671	0.977013
	H394	H	1.131475	-0.152820	0.979969
	H395	H	1.156239	-0.156581	0.982095
	O396	O	0.663580	0.704740	0.475147
	H397	H	0.662615	0.718906	0.485078
	H398	H	0.653708	0.709077	0.498687
	O399	O	0.309665	0.513742	0.493539
	H400	H	0.310998	0.503736	0.490984
	H401	H	0.313479	0.507863	0.497093
	O402	O	0.950150	1.067611	0.173645
	H403	H	0.952385	1.067584	0.173325
	H404	H	0.949440	1.064858	0.170221
	O405	O	0.376109	0.636371	0.394552
	H406	H	0.365482	0.628311	0.386193
	H407	H	0.373951	0.630818	0.387044
	O408	O	0.703510	0.309957	0.297066
	H409	H	0.694279	0.304197	0.283012
	H410	H	0.675156	0.304866	0.314376
	O411	O	0.858341	0.815886	1.193661
	H412	H	0.879200	0.816115	1.199922
	H413	H	0.846437	0.802507	1.178835
	O414	O	-0.202560	0.188122	0.931229
	H415	H	-0.223612	0.200460	0.925916
	H416	H	-0.215164	0.170833	0.953346
	O417	O	0.149216	0.936128	0.837064
	H418	H	0.156881	0.949720	0.836292
	H419	H	0.157839	0.936036	0.827993
	O420	O	-0.553247	1.651933	0.568047
	H421	H	-0.552604	1.658276	0.567877
	H422	H	-0.549558	1.656650	0.578066
	O423	O	-0.414198	1.392095	-0.360972
	H424	H	-0.410110	1.398778	-0.363740
	H425	H	-0.414280	1.402915	-0.364566
	O426	O	0.519880	0.708055	0.667186
	H427	H	0.510330	0.709354	0.647213
	H428	H	0.519517	0.725677	0.686350
	O429	O	0.584378	0.590059	0.459297
	H430	H	0.573864	0.594567	0.449777
	H431	H	0.584608	0.597439	0.441477
	O432	O	0.547966	0.318362	0.513172
	H433	H	0.539695	0.322421	0.524308
	H434	H	0.549697	0.324847	0.502041
	O435	O	0.106972	0.071883	0.131617
	H436	H	0.104480	0.055116	0.126828
	H437	H	0.098345	0.074066	0.135637
	O438	O	0.187890	0.976468	1.054226
	H439	H	0.169569	0.997099	1.035926
	H440	H	0.193422	0.966057	1.058462
	O441	O	0.554792	0.379094	0.554315
	H442	H	0.546364	0.370525	0.560202
	H443	H	0.557633	0.373817	0.565881
