data_Molecule from HDF5

_cell_length_a		16.250813
_cell_length_b		16.251903
_cell_length_c		16.222432
_cell_angle_alpha	90.044910
_cell_angle_beta	90.068910
_cell_angle_gamma	90.098178
_symmetry_space_group_name_H-M	'P 1'
_symmetry_Int_Tables_number		1

loop_
	_symmetry_equiv_pos_as_xyz
	x,y,z

loop_
	_atom_site_label
	_atom_site_type_symbol
	_atom_site_fract_x
	_atom_site_fract_y
	_atom_site_fract_z
	H0	H	0.406203	0.838831	0.716706
	H1	H	0.604367	0.166574	0.715396
	H2	H	0.605443	0.838300	0.285296
	H3	H	0.407229	0.165821	0.287751
	H4	H	0.720474	0.404340	0.836434
	H5	H	0.722550	0.601342	0.165121
	H6	H	0.291592	0.602076	0.836811
	H7	H	0.293603	0.404845	0.165011
	H8	H	0.841634	0.714787	0.401432
	H9	H	0.169472	0.716765	0.598863
	H10	H	0.841433	0.285693	0.600504
	H11	H	0.168855	0.286140	0.401635
	H12	H	0.842107	0.401060	0.716036
	H13	H	0.170513	0.600582	0.714601
	H14	H	0.842695	0.600123	0.284657
	H15	H	0.170727	0.403660	0.288501
	H16	H	0.408715	0.716189	0.836405
	H17	H	0.606987	0.717627	0.165768
	H18	H	0.605720	0.287947	0.836639
	H19	H	0.407030	0.288308	0.164879
	H20	H	0.719872	0.837616	0.402106
	H21	H	0.721712	0.165708	0.601302
	H22	H	0.290965	0.838181	0.600147
	H23	H	0.290424	0.165171	0.401383
	H24	H	0.909521	0.336327	0.213669
	H25	H	0.106432	0.664664	0.216795
	H26	H	0.104431	0.337367	0.786117
	H27	H	0.909222	0.665606	0.787522
	H28	H	0.220644	0.902064	0.337483
	H29	H	0.219890	0.099830	0.665291
	H30	H	0.790346	0.099499	0.337318
	H31	H	0.792001	0.903117	0.666222
	H32	H	0.342440	0.215788	0.903496
	H33	H	0.669807	0.217771	0.100297
	H34	H	0.343323	0.785811	0.100732
	H35	H	0.670943	0.789320	0.902118
	H36	H	0.341572	0.903947	0.214467
	H37	H	0.669853	0.102301	0.217394
	H38	H	0.341817	0.101011	0.787961
	H39	H	0.669622	0.905296	0.786430
	H40	H	0.906025	0.215262	0.336843
	H41	H	0.104901	0.216868	0.664758
	H42	H	0.102051	0.789435	0.335826
	H43	H	0.906596	0.786518	0.665364
	H44	H	0.221175	0.337417	0.902356
	H45	H	0.221695	0.665710	0.100864
	H46	H	0.789724	0.337894	0.101388
	H47	H	0.792985	0.665748	0.902044
	H48	H	0.410726	0.115202	0.582496
	H49	H	0.601420	0.881568	0.604373
	H50	H	0.597774	0.117844	0.407877
	H51	H	0.405522	0.883892	0.412546
	H52	H	0.599484	0.414833	0.116495
	H53	H	0.602486	0.596632	0.883618
	H54	H	0.414827	0.584239	0.114190
	H55	H	0.418268	0.399478	0.882035
	H56	H	0.123427	0.591741	0.402956
	H57	H	0.889539	0.586890	0.598870
	H58	H	0.128805	0.389594	0.596687
	H59	H	0.887069	0.401183	0.408689
	H60	H	0.115175	0.414481	0.575117
	H61	H	0.885661	0.601534	0.598403
	H62	H	0.124531	0.601704	0.408159
	H63	H	0.891884	0.413035	0.412836
	H64	H	0.423377	0.601428	0.117387
	H65	H	0.599866	0.593228	0.884794
	H66	H	0.595023	0.409265	0.117038
	H67	H	0.403356	0.411586	0.880373
	H68	H	0.595913	0.115873	0.411212
	H69	H	0.586055	0.889925	0.593397
	H70	H	0.401366	0.124191	0.601591
	H71	H	0.413682	0.882628	0.400778
	H72	H	0.912972	0.618121	0.094243
	H73	H	0.095971	0.384490	0.097437
	H74	H	0.096444	0.617550	0.906277
	H75	H	0.907322	0.381892	0.904888
	H76	H	0.091643	0.906653	0.615618
	H77	H	0.099279	0.092704	0.384320
	H78	H	0.909154	0.095183	0.619377
	H79	H	0.904592	0.905436	0.381113
	H80	H	0.626262	0.099690	0.903015
	H81	H	0.386966	0.099921	0.098951
	H82	H	0.621908	0.906409	0.088672
	H83	H	0.388550	0.909494	0.905575
	H84	H	0.620956	0.916596	0.093743
	H85	H	0.389880	0.098670	0.090027
	H86	H	0.623127	0.100263	0.913404
	H87	H	0.389290	0.905888	0.910559
	H88	H	0.914161	0.089480	0.616512
	H89	H	0.096687	0.093111	0.384325
	H90	H	0.103595	0.902000	0.621678
	H91	H	0.912557	0.916011	0.387119
	H92	H	0.101702	0.617644	0.910693
	H93	H	0.100185	0.386498	0.088960
	H94	H	0.916990	0.617716	0.094685
	H95	H	0.918924	0.385083	0.904085
	H96	H	0.423070	0.118283	0.600943
	H97	H	0.604462	0.886998	0.584716
	H98	H	0.599555	0.118112	0.411423
	H99	H	0.419498	0.888281	0.412656
	H100	H	0.601453	0.409109	0.118138
	H101	H	0.597492	0.596861	0.884388
	H102	H	0.405257	0.598677	0.122010
	H103	H	0.420361	0.417256	0.888142
	H104	H	0.119595	0.591990	0.414235
	H105	H	0.891627	0.594584	0.586064
	H106	H	0.122804	0.422132	0.608528
	H107	H	0.887732	0.411961	0.400308
	H108	H	0.915200	0.616863	0.090497
	H109	H	0.104863	0.382604	0.096194
	H110	H	0.102761	0.620074	0.904700
	H111	H	0.913276	0.386404	0.914756
	H112	H	0.101839	0.914799	0.617259
	H113	H	0.098019	0.094851	0.384021
	H114	H	0.917095	0.097067	0.618048
	H115	H	0.917769	0.903275	0.384437
	H116	H	0.621920	0.090653	0.907426
	H117	H	0.389781	0.091293	0.095792
	H118	H	0.625880	0.908092	0.099214
	H119	H	0.391069	0.911284	0.911072
	C120	C	0.383402	0.011103	0.623382
	C121	C	0.627019	0.994098	0.623200
	C122	C	0.627287	0.009698	0.380128
	C123	C	0.384313	0.993122	0.379863
	C124	C	0.627597	0.381630	0.008873
	C125	C	0.628941	0.624220	0.992821
	C126	C	0.385708	0.623608	0.009275
	C127	C	0.385200	0.380777	0.992025
	C128	C	0.014416	0.623570	0.378918
	C129	C	0.997612	0.623284	0.622471
	C130	C	0.013856	0.379777	0.622104
	C131	C	0.997262	0.380204	0.379415
	C132	C	0.885581	0.509424	0.122201
	C133	C	0.129277	0.492771	0.123159
	C134	C	0.128561	0.509726	0.878973
	C135	C	0.885022	0.492858	0.879259
	C136	C	0.127115	0.879793	0.509580
	C137	C	0.127058	0.122897	0.492582
	C138	C	0.883791	0.122686	0.509436
	C139	C	0.883505	0.879553	0.492999
	C140	C	0.514912	0.124626	0.879687
	C141	C	0.497261	0.125103	0.123643
	C142	C	0.514666	0.880677	0.122899
	C143	C	0.497793	0.880797	0.879871
	C144	C	0.385851	0.887576	0.678646
	C145	C	0.624667	0.117629	0.677897
	C146	C	0.625300	0.887048	0.323758
	C147	C	0.386847	0.116717	0.325231
	C148	C	0.682780	0.383820	0.885493
	C149	C	0.684461	0.622051	0.116401
	C150	C	0.329973	0.621742	0.885825
	C151	C	0.330410	0.383422	0.115563
	C152	C	0.890818	0.677615	0.381014
	C153	C	0.120708	0.678706	0.619871
	C154	C	0.890533	0.323815	0.620349
	C155	C	0.120325	0.324096	0.381223
	C156	C	0.890703	0.381568	0.677664
	C157	C	0.121139	0.620660	0.677110
	C158	C	0.891340	0.620630	0.322938
	C159	C	0.121351	0.382889	0.325329
	C160	C	0.388071	0.678803	0.885660
	C161	C	0.626949	0.679689	0.116535
	C162	C	0.625701	0.325920	0.885734
	C163	C	0.387323	0.325828	0.115774
	C164	C	0.682529	0.886760	0.381639
	C165	C	0.683162	0.117012	0.621224
	C166	C	0.328693	0.887214	0.620715
	C167	C	0.328931	0.116402	0.382172
	C168	C	0.888024	0.385648	0.176996
	C169	C	0.126924	0.616087	0.178713
	C170	C	0.125379	0.386132	0.824105
	C171	C	0.888418	0.616794	0.825063
	C172	C	0.182177	0.881939	0.386206
	C173	C	0.182164	0.120486	0.616291
	C174	C	0.827989	0.120196	0.386312
	C175	C	0.829307	0.882302	0.616889
	C176	C	0.391256	0.178451	0.882799
	C177	C	0.620932	0.179971	0.121184
	C178	C	0.391627	0.824808	0.120739
	C179	C	0.621590	0.826805	0.881894
	C180	C	0.390807	0.883425	0.177152
	C181	C	0.620994	0.122389	0.179097
	C182	C	0.390955	0.121344	0.825461
	C183	C	0.621053	0.884298	0.824537
	C184	C	0.885463	0.177577	0.386056
	C185	C	0.124993	0.178634	0.615925
	C186	C	0.123948	0.825377	0.385671
	C187	C	0.886121	0.824494	0.616416
	C188	C	0.183222	0.386317	0.881767
	C189	C	0.184225	0.616411	0.120956
	C190	C	0.828798	0.386375	0.121009
	C191	C	0.830419	0.616742	0.881864
	C192	C	0.405273	0.096964	0.601501
	C193	C	0.604050	0.908334	0.600701
	C194	C	0.604450	0.095346	0.403456
	C195	C	0.406299	0.907123	0.401928
	C196	C	0.605306	0.404319	0.095070
	C197	C	0.606620	0.602127	0.906552
	C198	C	0.408025	0.601202	0.095504
	C199	C	0.407550	0.402796	0.905778
	C200	C	0.100349	0.601689	0.401706
	C201	C	0.911178	0.600925	0.600786
	C202	C	0.099922	0.402085	0.599828
	C203	C	0.911253	0.402209	0.400980
	C204	C	0.908299	0.595190	0.099681
	C205	C	0.106842	0.406740	0.100952
	C206	C	0.106644	0.596049	0.900706
	C207	C	0.906673	0.406843	0.901446
	C208	C	0.105310	0.901346	0.596014
	C209	C	0.104566	0.100267	0.406337
	C210	C	0.906720	0.100526	0.595821
	C211	C	0.905218	0.901745	0.406535
	C212	C	0.601496	0.103212	0.901418
	C213	C	0.411109	0.103118	0.101545
	C214	C	0.600634	0.903702	0.100521
	C215	C	0.411782	0.902605	0.902391
	Zn216	Zn	0.505123	0.003102	0.751703
	Zn217	Zn	0.505604	0.002176	0.251096
	Zn218	Zn	0.756935	0.501986	0.000903
	Zn219	Zn	0.257308	0.501976	0.000786
	Zn220	Zn	0.005215	0.751765	0.500630
	Zn221	Zn	0.005028	0.251554	0.500545
	Zn222	Zn	0.005877	0.501031	0.750812
	Zn223	Zn	0.006697	0.500917	0.251082
	Zn224	Zn	0.507222	0.752210	0.001041
	Zn225	Zn	0.506475	0.252897	0.000748
	Zn226	Zn	0.755961	0.001229	0.501800
	Zn227	Zn	0.255575	0.001345	0.500930
	N228	N	0.419132	0.965385	0.680388
	N229	N	0.590108	0.040269	0.679230
	N230	N	0.591462	0.964593	0.322775
	N231	N	0.420693	0.039306	0.323877
	N232	N	0.684038	0.417816	0.963036
	N233	N	0.685793	0.588252	0.038630
	N234	N	0.328283	0.588205	0.963707
	N235	N	0.329298	0.417077	0.037810
	N236	N	0.968262	0.679435	0.415107
	N237	N	0.042996	0.680299	0.586500
	N238	N	0.968169	0.322536	0.586514
	N239	N	0.042452	0.322452	0.414291
	N240	N	0.968271	0.415805	0.678708
	N241	N	0.043282	0.586966	0.678816
	N242	N	0.969200	0.587556	0.321570
	N243	N	0.043807	0.416939	0.323955
	N244	N	0.422057	0.680018	0.963363
	N245	N	0.593096	0.680940	0.038641
	N246	N	0.591945	0.324809	0.963545
	N247	N	0.420812	0.324077	0.037836
	N248	N	0.683568	0.963953	0.416314
	N249	N	0.684487	0.039224	0.587823
	N250	N	0.327019	0.964758	0.587072
	N251	N	0.327319	0.038475	0.415642
	N252	N	0.922626	0.462998	0.177776
	N253	N	0.093324	0.538293	0.180212
	N254	N	0.092274	0.463947	0.822054
	N255	N	0.921398	0.538877	0.823162
	N256	N	0.184328	0.914921	0.464068
	N257	N	0.183590	0.086641	0.538418
	N258	N	0.826921	0.086982	0.464163
	N259	N	0.827527	0.915769	0.539068
	N260	N	0.469337	0.180758	0.915570
	N261	N	0.543314	0.181804	0.087562
	N262	N	0.469519	0.822988	0.087736
	N263	N	0.543881	0.824540	0.915552
	N264	N	0.468569	0.917277	0.178576
	N265	N	0.542999	0.089263	0.180939
	N266	N	0.468916	0.088556	0.823545
	N267	N	0.543103	0.917309	0.823146
	N268	N	0.919637	0.179085	0.463769
	N269	N	0.091242	0.179848	0.538075
	N270	N	0.090440	0.823912	0.463641
	N271	N	0.919263	0.822808	0.538303
	N272	N	0.185152	0.464143	0.915113
	N273	N	0.185732	0.538822	0.087118
	N274	N	0.827284	0.464215	0.087526
	N275	N	0.828375	0.538889	0.915092
	O276	O	0.418645	0.451577	0.451042
	H277	H	0.424637	0.441604	0.447535
	H278	H	0.424917	0.458747	0.456391
	O279	O	0.437272	0.509431	0.556638
	H280	H	0.435627	0.517110	0.560925
	H281	H	0.436335	0.487478	0.541106
	O282	O	0.493346	0.478243	0.501479
	H283	H	0.496604	0.478146	0.500255
	H284	H	0.487946	0.482523	0.497566
	O285	O	-0.027332	0.898409	1.009981
	H286	H	-0.030040	0.900456	1.007627
	H287	H	-0.032662	0.902277	1.015051
	O288	O	0.587280	0.469526	0.443237
	H289	H	0.588500	0.470425	0.453329
	H290	H	0.587973	0.473696	0.443312
	O291	O	-0.469393	0.445052	0.538509
	H292	H	-0.471855	0.447524	0.530405
	H293	H	-0.465696	0.441234	0.535424
	O294	O	0.577273	0.561183	0.541619
	H295	H	0.570596	0.568185	0.545379
	H296	H	0.585217	0.567089	0.543119
	O297	O	0.450287	0.518719	0.460874
	H298	H	0.458429	0.515301	0.467956
	H299	H	0.441710	0.517905	0.451060
	O300	O	0.570146	0.441872	0.440063
	H301	H	0.573225	0.441699	0.441289
	H302	H	0.570688	0.432955	0.427675
	O303	O	0.524286	0.535037	0.514602
	H304	H	0.526634	0.538409	0.512940
	H305	H	0.525737	0.539133	0.506895
	O306	O	0.500339	0.536694	1.432342
	H307	H	0.503595	0.537127	1.444093
	H308	H	0.498175	0.532548	1.431455
	O309	O	0.500482	0.497771	0.529559
	H310	H	0.494599	0.495727	0.536480
	H311	H	0.500010	0.505956	0.531596
	O312	O	0.564779	0.591033	0.591004
	H313	H	0.571457	0.597618	0.589545
	H314	H	0.547577	0.589750	0.593249
	O315	O	0.941444	-0.082041	1.025926
	H316	H	0.941046	-0.082966	1.038143
	H317	H	0.947384	-0.077436	1.032628
	O318	O	-0.454619	-0.514962	-0.447939
	H319	H	-0.453064	-0.512713	-0.445844
	H320	H	-0.448671	-0.509891	-0.439284
	O321	O	0.513346	0.535402	0.465212
	H322	H	0.512664	0.521618	0.460667
	H323	H	0.512663	0.536916	0.468202
	O324	O	0.997380	-0.082321	0.083479
	H325	H	1.007311	-0.084612	0.085578
	H326	H	1.003063	-0.089430	0.084315
	O327	O	1.021440	0.890760	0.033472
	H328	H	1.019654	0.883245	0.026592
	H329	H	1.019814	0.885811	0.014903
	O330	O	0.472190	0.438034	0.488795
	H331	H	0.460078	0.438484	0.491300
	H332	H	0.471644	0.443834	0.479616
	O333	O	0.513957	0.467162	0.425961
	H334	H	0.526279	0.473526	0.427737
	H335	H	0.520615	0.464286	0.423592
