data_Molecule from HDF5

_cell_length_a		16.239704
_cell_length_b		16.181200
_cell_length_c		16.220354
_cell_angle_alpha	90.395558
_cell_angle_beta	90.291532
_cell_angle_gamma	90.374662
_symmetry_space_group_name_H-M	'P 1'
_symmetry_Int_Tables_number		1

loop_
	_symmetry_equiv_pos_as_xyz
	x,y,z

loop_
	_atom_site_label
	_atom_site_type_symbol
	_atom_site_fract_x
	_atom_site_fract_y
	_atom_site_fract_z
	H0	H	0.406401	0.837153	0.710434
	H1	H	0.606152	0.166326	0.718297
	H2	H	0.600698	0.838280	0.285957
	H3	H	0.406803	0.167497	0.287645
	H4	H	0.714451	0.402689	0.834136
	H5	H	0.721373	0.603677	0.162711
	H6	H	0.291842	0.599006	0.834255
	H7	H	0.286766	0.403311	0.162247
	H8	H	0.839016	0.715576	0.400053
	H9	H	0.167674	0.719592	0.597837
	H10	H	0.840577	0.287621	0.595348
	H11	H	0.168616	0.290944	0.399020
	H12	H	0.839706	0.405159	0.709585
	H13	H	0.167224	0.606168	0.714617
	H14	H	0.839130	0.601235	0.282157
	H15	H	0.167078	0.405441	0.282304
	H16	H	0.405465	0.715025	0.835760
	H17	H	0.603625	0.716641	0.164768
	H18	H	0.600214	0.285152	0.836537
	H19	H	0.404929	0.290512	0.165037
	H20	H	0.715747	0.837821	0.401742
	H21	H	0.721315	0.167130	0.602944
	H22	H	0.287568	0.839433	0.598315
	H23	H	0.291450	0.167890	0.401808
	H24	H	0.903572	0.338689	0.209244
	H25	H	0.104090	0.667790	0.213752
	H26	H	0.100154	0.339887	0.782425
	H27	H	0.905349	0.668623	0.785342
	H28	H	0.216161	0.905412	0.335271
	H29	H	0.219896	0.104415	0.663775
	H30	H	0.787716	0.102034	0.336486
	H31	H	0.792257	0.906138	0.664811
	H32	H	0.339511	0.213275	0.901888
	H33	H	0.666999	0.219432	0.102401
	H34	H	0.339269	0.787512	0.097807
	H35	H	0.668295	0.789973	0.904894
	H36	H	0.338666	0.903038	0.212703
	H37	H	0.667520	0.102226	0.216322
	H38	H	0.341185	0.099872	0.784062
	H39	H	0.668192	0.903126	0.786208
	H40	H	0.907084	0.213105	0.333603
	H41	H	0.106106	0.221453	0.662328
	H42	H	0.101414	0.789465	0.334636
	H43	H	0.906601	0.789676	0.663296
	H44	H	0.216676	0.339527	0.896214
	H45	H	0.221447	0.667299	0.098925
	H46	H	0.789651	0.338752	0.094436
	H47	H	0.788643	0.667202	0.899094
	H48	H	0.406833	0.123145	0.595863
	H49	H	0.593631	0.886821	0.590706
	H50	H	0.590237	0.117180	0.411089
	H51	H	0.414234	0.889274	0.415571
	H52	H	0.592848	0.413394	0.114806
	H53	H	0.603307	0.593925	0.880549
	H54	H	0.408188	0.591259	0.117600
	H55	H	0.419375	0.410849	0.886719
	H56	H	0.120460	0.596383	0.404838
	H57	H	0.884509	0.609549	0.583764
	H58	H	0.122727	0.412787	0.594571
	H59	H	0.884296	0.395886	0.408868
	H60	H	0.120492	0.410339	0.587741
	H61	H	0.892937	0.584027	0.584372
	H62	H	0.120747	0.596937	0.406796
	H63	H	0.891742	0.417890	0.409596
	H64	H	0.415818	0.594977	0.115709
	H65	H	0.592253	0.591938	0.884920
	H66	H	0.599508	0.405035	0.119718
	H67	H	0.409308	0.395114	0.878939
	H68	H	0.602732	0.120606	0.414348
	H69	H	0.602651	0.885152	0.590070
	H70	H	0.418933	0.120364	0.597986
	H71	H	0.396598	0.881333	0.406736
	H72	H	0.915676	0.621834	0.094841
	H73	H	0.098984	0.387007	0.082328
	H74	H	0.107194	0.622522	0.910978
	H75	H	0.910580	0.386990	0.905351
	H76	H	0.099041	0.910720	0.618402
	H77	H	0.104394	0.096327	0.380396
	H78	H	0.905863	0.093796	0.617793
	H79	H	0.908403	0.919288	0.384004
	H80	H	0.621714	0.093397	0.907875
	H81	H	0.386928	0.096953	0.089390
	H82	H	0.622816	0.901678	0.094677
	H83	H	0.390052	0.915556	0.910947
	H84	H	0.618023	0.914886	0.088708
	H85	H	0.387287	0.090762	0.095603
	H86	H	0.621152	0.097888	0.910732
	H87	H	0.384112	0.909269	0.895723
	H88	H	0.919736	0.092504	0.613025
	H89	H	0.096886	0.092444	0.383303
	H90	H	0.097513	0.915474	0.616221
	H91	H	0.916801	0.904539	0.382329
	H92	H	0.097795	0.624625	0.896984
	H93	H	0.098407	0.383583	0.094558
	H94	H	0.912900	0.619167	0.085331
	H95	H	0.904440	0.383706	0.903757
	H96	H	0.414457	0.118141	0.586995
	H97	H	0.598971	0.882978	0.596578
	H98	H	0.598416	0.122911	0.402094
	H99	H	0.413737	0.882917	0.395919
	H100	H	0.603119	0.416251	0.116703
	H101	H	0.595427	0.602372	0.881215
	H102	H	0.409568	0.599310	0.118595
	H103	H	0.400189	0.413165	0.880217
	H104	H	0.120351	0.594328	0.405703
	H105	H	0.882445	0.595841	0.605855
	H106	H	0.119149	0.417689	0.590335
	H107	H	0.882540	0.409031	0.389426
	H108	H	0.906718	0.622807	0.091932
	H109	H	0.087973	0.388608	0.089681
	H110	H	0.091141	0.618401	0.910530
	H111	H	0.909932	0.385207	0.898861
	H112	H	0.094103	0.910073	0.615928
	H113	H	0.097613	0.100527	0.379811
	H114	H	0.915168	0.104128	0.618597
	H115	H	0.901231	0.904980	0.378718
	H116	H	0.619933	0.093371	0.912628
	H117	H	0.383370	0.099257	0.098185
	H118	H	0.622611	0.913852	0.103745
	H119	H	0.384742	0.898861	0.909465
	C120	C	0.383859	0.011601	0.621285
	C121	C	0.627223	0.993641	0.622722
	C122	C	0.624564	0.011326	0.379850
	C123	C	0.381146	0.993699	0.378060
	C124	C	0.625048	0.381625	0.008264
	C125	C	0.626660	0.625486	0.990577
	C126	C	0.383024	0.623056	0.008237
	C127	C	0.381327	0.379691	0.990971
	C128	C	0.011782	0.624124	0.376697
	C129	C	0.994917	0.626299	0.620729
	C130	C	0.012645	0.383464	0.619052
	C131	C	0.995051	0.380204	0.374387
	C132	C	0.882587	0.512254	0.118468
	C133	C	0.125182	0.494805	0.118966
	C134	C	0.125689	0.512935	0.876295
	C135	C	0.881049	0.494590	0.875605
	C136	C	0.124691	0.883130	0.507945
	C137	C	0.127855	0.126081	0.490100
	C138	C	0.884000	0.124369	0.507736
	C139	C	0.881595	0.881352	0.490789
	C140	C	0.512819	0.122630	0.880419
	C141	C	0.494505	0.124884	0.123540
	C142	C	0.512045	0.881017	0.122478
	C143	C	0.495189	0.880065	0.878226
	C144	C	0.385492	0.887116	0.674238
	C145	C	0.625737	0.117531	0.679549
	C146	C	0.621137	0.887369	0.324144
	C147	C	0.385357	0.118011	0.324269
	C148	C	0.677979	0.382552	0.884031
	C149	C	0.682693	0.623618	0.114082
	C150	C	0.328953	0.619660	0.883865
	C151	C	0.325470	0.383101	0.113974
	C152	C	0.888219	0.678236	0.379256
	C153	C	0.118649	0.681937	0.618355
	C154	C	0.889603	0.326162	0.615976
	C155	C	0.119066	0.327164	0.377859
	C156	C	0.889018	0.384597	0.672881
	C157	C	0.118206	0.625463	0.676590
	C158	C	0.888127	0.621280	0.320920
	C159	C	0.118120	0.383863	0.319368
	C160	C	0.385644	0.677134	0.884481
	C161	C	0.624113	0.679744	0.115062
	C162	C	0.620982	0.324164	0.885096
	C163	C	0.384467	0.327214	0.115334
	C164	C	0.678233	0.887057	0.382046
	C165	C	0.683303	0.117754	0.622534
	C166	C	0.326393	0.888428	0.618408
	C167	C	0.328229	0.118300	0.381085
	C168	C	0.883773	0.388091	0.172459
	C169	C	0.124109	0.618483	0.175619
	C170	C	0.121335	0.388963	0.820320
	C171	C	0.884834	0.619146	0.822508
	C172	C	0.179154	0.884737	0.384304
	C173	C	0.182974	0.124908	0.614176
	C174	C	0.826854	0.121712	0.384959
	C175	C	0.828480	0.884914	0.615027
	C176	C	0.388695	0.176052	0.882112
	C177	C	0.617883	0.181081	0.122341
	C178	C	0.388353	0.825209	0.118684
	C179	C	0.618997	0.826326	0.882830
	C180	C	0.387922	0.883149	0.175766
	C181	C	0.618171	0.122922	0.178866
	C182	C	0.389726	0.119956	0.823152
	C183	C	0.618886	0.882265	0.823549
	C184	C	0.886204	0.176864	0.383382
	C185	C	0.125782	0.182515	0.613739
	C186	C	0.121894	0.827213	0.384059
	C187	C	0.885452	0.827094	0.614243
	C188	C	0.179095	0.388682	0.877075
	C189	C	0.182372	0.618274	0.118383
	C190	C	0.826944	0.388129	0.115401
	C191	C	0.826692	0.618408	0.879034
	C192	C	0.406786	0.098190	0.600056
	C193	C	0.604847	0.907309	0.599563
	C194	C	0.603453	0.097720	0.402501
	C195	C	0.402046	0.906956	0.399549
	C196	C	0.604594	0.404940	0.094700
	C197	C	0.603822	0.602927	0.904456
	C198	C	0.404842	0.601585	0.094935
	C199	C	0.403238	0.400178	0.904345
	C200	C	0.097989	0.602289	0.399182
	C201	C	0.908719	0.603408	0.597971
	C202	C	0.098730	0.406923	0.597226
	C203	C	0.908565	0.401237	0.396183
	C204	C	0.905133	0.598848	0.097023
	C205	C	0.101912	0.408609	0.095749
	C206	C	0.104903	0.599612	0.899304
	C207	C	0.902131	0.407781	0.896432
	C208	C	0.103236	0.905623	0.594358
	C209	C	0.106081	0.103254	0.403635
	C210	C	0.906939	0.103096	0.594180
	C211	C	0.902518	0.903315	0.404017
	C212	C	0.598595	0.101292	0.903637
	C213	C	0.408195	0.102245	0.100991
	C214	C	0.598866	0.903515	0.101756
	C215	C	0.408655	0.901541	0.899055
	Zn216	Zn	0.505024	0.001920	0.749922
	Zn217	Zn	0.502943	0.002577	0.251033
	Zn218	Zn	0.754329	0.503462	-0.001849
	Zn219	Zn	0.254074	0.502503	-0.002036
	Zn220	Zn	0.003706	0.753541	0.498495
	Zn221	Zn	0.004810	0.253259	0.497918
	Zn222	Zn	0.003618	0.504448	0.748669
	Zn223	Zn	0.002621	0.503189	0.246945
	Zn224	Zn	0.503295	0.752027	0.000552
	Zn225	Zn	0.503308	0.252087	0.001245
	Zn226	Zn	0.754168	0.003586	0.500734
	Zn227	Zn	0.254797	0.003736	0.499836
	N228	N	0.420630	0.964761	0.675938
	N229	N	0.591688	0.039385	0.679916
	N230	N	0.588544	0.965586	0.322596
	N231	N	0.417614	0.039636	0.322314
	N232	N	0.680546	0.417586	0.961625
	N233	N	0.684268	0.590469	0.035778
	N234	N	0.327244	0.586598	0.961873
	N235	N	0.323315	0.414909	0.035532
	N236	N	0.966160	0.680177	0.413238
	N237	N	0.041040	0.682496	0.584319
	N238	N	0.967605	0.325430	0.583088
	N239	N	0.041264	0.324596	0.411245
	N240	N	0.966599	0.419380	0.675008
	N241	N	0.040201	0.591555	0.678212
	N242	N	0.966028	0.588290	0.319348
	N243	N	0.039974	0.416039	0.317070
	N244	N	0.418513	0.679266	0.962794
	N245	N	0.589803	0.680997	0.037245
	N246	N	0.588820	0.323290	0.963295
	N247	N	0.418482	0.325054	0.037843
	N248	N	0.680667	0.965182	0.415871
	N249	N	0.684338	0.039955	0.587960
	N250	N	0.325358	0.966913	0.586133
	N251	N	0.325498	0.040096	0.413912
	N252	N	0.917593	0.466256	0.174618
	N253	N	0.089185	0.540605	0.176112
	N254	N	0.088991	0.467261	0.819627
	N255	N	0.917717	0.540973	0.820009
	N256	N	0.181090	0.919068	0.462175
	N257	N	0.184127	0.090552	0.536347
	N258	N	0.825343	0.089890	0.463241
	N259	N	0.826160	0.917946	0.537106
	N260	N	0.466251	0.178163	0.916778
	N261	N	0.539916	0.182429	0.088585
	N262	N	0.466717	0.823711	0.086523
	N263	N	0.541181	0.824822	0.915926
	N264	N	0.465990	0.916888	0.178274
	N265	N	0.540431	0.088664	0.179620
	N266	N	0.467815	0.087428	0.822061
	N267	N	0.540848	0.914841	0.820451
	N268	N	0.921222	0.178509	0.461004
	N269	N	0.092201	0.183541	0.535717
	N270	N	0.088703	0.826112	0.461863
	N271	N	0.917700	0.824752	0.535923
	N272	N	0.181882	0.466735	0.911128
	N273	N	0.183179	0.540460	0.084015
	N274	N	0.826280	0.466319	0.082350
	N275	N	0.824353	0.540085	0.911232
	O276	O	0.015227	0.004942	-0.001481
	H277	H	0.015731	0.015708	-0.005712
	H278	H	0.022409	0.002974	0.002289
	O279	O	0.525149	0.506115	0.499954
	H280	H	0.523766	0.492667	0.497851
	H281	H	0.530948	0.511600	0.496535
	O282	O	0.459488	0.511447	0.499788
	H283	H	0.447235	0.506767	0.507835
	H284	H	0.464480	0.509708	0.498113
	O285	O	1.014666	0.049846	0.974176
	H286	H	1.019439	0.054845	0.970317
	H287	H	1.013736	0.048194	0.967076
	O288	O	1.035312	0.039119	-0.014756
	H289	H	1.032056	0.046890	-0.011773
	H290	H	1.047468	0.040728	-0.008278
	O291	O	0.543132	0.552700	0.542395
	H292	H	0.538754	0.553442	0.551540
	H293	H	0.540594	0.555521	0.551783
	O294	O	1.614267	0.558228	0.557989
	H295	H	1.614120	0.565433	0.554175
	H296	H	1.603810	0.562787	0.560476
	O297	O	-0.121097	-0.164154	-0.207118
	H298	H	-0.122108	-0.155023	-0.199838
	H299	H	-0.112851	-0.155061	-0.213173
	O300	O	0.342569	0.389492	0.520746
	H301	H	0.340532	0.390379	0.526210
	H302	H	0.341836	0.381123	0.526419
	O303	O	0.595074	0.421123	0.511019
	H304	H	0.592465	0.421964	0.508088
	H305	H	0.608947	0.421163	0.499737
	O306	O	0.975973	0.004120	0.033459
	H307	H	0.966619	-0.002878	0.033435
	H308	H	0.969901	0.006993	0.031811
	O309	O	-0.009224	-0.015704	0.971336
	H310	H	-0.007877	-0.020911	0.972855
	H311	H	-0.002956	-0.011348	0.963659
	O312	O	0.974818	1.010547	1.090885
	H313	H	0.970401	1.006150	1.098409
	H314	H	0.960132	1.004229	1.093412
	O315	O	0.480071	0.515627	0.499755
	H316	H	0.484455	0.503442	0.499446
	H317	H	0.471592	0.517316	0.503677
	O318	O	0.484141	0.484878	0.428102
	H319	H	0.470697	0.475084	0.429024
	H320	H	0.488401	0.474751	0.419788
	O321	O	-0.032001	0.964452	1.038233
	H322	H	-0.024162	0.965784	1.036402
	H323	H	-0.032205	0.965060	1.039988
	O324	O	0.503304	0.599801	0.609869
	H325	H	0.500384	0.606063	0.604922
	H326	H	0.498564	0.590282	0.603770
	O327	O	0.482603	0.507596	0.542804
	H328	H	0.478889	0.514292	0.546996
	H329	H	0.486865	0.512827	0.537467
	O330	O	0.454099	0.431454	0.596639
	H331	H	0.442315	0.430590	0.603509
	H332	H	0.456949	0.443723	0.601713
	O333	O	0.529718	0.560377	0.442375
	H334	H	0.532346	0.556138	0.447592
	H335	H	0.520722	0.565499	0.439279
	O336	O	0.608963	0.543243	0.569968
	H337	H	0.611707	0.549944	0.571241
	H338	H	0.610474	0.543927	0.573707
	O339	O	0.936444	0.995061	0.001582
	H340	H	0.936588	0.983558	0.002341
	H341	H	0.935921	1.002073	0.003348
	O342	O	0.535884	0.447276	0.556131
	H343	H	0.544934	0.459133	0.565546
	H344	H	0.541732	0.448817	0.547006
	O345	O	0.446566	0.473865	0.427179
	H346	H	0.446822	0.466320	0.435098
	H347	H	0.450161	0.471218	0.421812
	O348	O	-0.066719	-0.045876	0.017155
	H349	H	-0.064447	-0.037450	0.015909
	H350	H	-0.069212	-0.040960	0.013416
	O351	O	-0.043889	0.983097	0.971752
	H352	H	-0.049801	0.977799	0.963013
	H353	H	-0.042619	0.982315	0.976243
	O354	O	0.460978	0.458865	0.413707
	H355	H	0.465251	0.455406	0.413222
	H356	H	0.466737	0.460574	0.411181
	O357	O	0.016685	1.076680	0.972038
	H358	H	0.020283	1.070803	0.978675
	H359	H	0.021646	1.075514	0.980040
