data_Molecule from HDF5

_cell_length_a		16.587454
_cell_length_b		16.739123
_cell_length_c		16.599803
_cell_angle_alpha	89.972119
_cell_angle_beta	89.939059
_cell_angle_gamma	89.882381
_symmetry_space_group_name_H-M	'P 1'
_symmetry_Int_Tables_number		1

loop_
	_symmetry_equiv_pos_as_xyz
	x,y,z

loop_
	_atom_site_label
	_atom_site_type_symbol
	_atom_site_fract_x
	_atom_site_fract_y
	_atom_site_fract_z
	H0	H	0.391384	0.851530	0.718803
	H1	H	0.605602	0.157942	0.717664
	H2	H	0.604010	0.847242	0.275731
	H3	H	0.394298	0.157221	0.271118
	H4	H	0.722258	0.397495	0.839074
	H5	H	0.721090	0.608284	0.149436
	H6	H	0.279883	0.607535	0.838524
	H7	H	0.280869	0.400331	0.151806
	H8	H	0.845453	0.727034	0.387857
	H9	H	0.153879	0.725950	0.601143
	H10	H	0.842786	0.285610	0.598439
	H11	H	0.153942	0.280572	0.386415
	H12	H	0.843513	0.400466	0.714877
	H13	H	0.156020	0.606228	0.713399
	H14	H	0.845633	0.609848	0.272957
	H15	H	0.156088	0.399421	0.274322
	H16	H	0.394448	0.724863	0.839231
	H17	H	0.605172	0.725438	0.149129
	H18	H	0.608333	0.279689	0.840234
	H19	H	0.395791	0.282826	0.150914
	H20	H	0.720480	0.848090	0.392149
	H21	H	0.720782	0.158661	0.600183
	H22	H	0.274159	0.852421	0.603547
	H23	H	0.275942	0.157106	0.385615
	H24	H	0.891060	0.350844	0.219775
	H25	H	0.101603	0.659117	0.213007
	H26	H	0.104737	0.347590	0.774606
	H27	H	0.894686	0.657332	0.773172
	H28	H	0.221254	0.899361	0.340124
	H29	H	0.224828	0.113865	0.647328
	H30	H	0.778673	0.108735	0.338303
	H31	H	0.779139	0.900254	0.650979
	H32	H	0.346846	0.229100	0.885774
	H33	H	0.655113	0.226348	0.103430
	H34	H	0.344531	0.783543	0.100225
	H35	H	0.655952	0.782518	0.889860
	H36	H	0.343402	0.900933	0.214413
	H37	H	0.657384	0.106492	0.214654
	H38	H	0.346933	0.112822	0.770291
	H39	H	0.655996	0.898154	0.773873
	H40	H	0.892461	0.226712	0.338893
	H41	H	0.107236	0.227973	0.648084
	H42	H	0.105650	0.781626	0.341361
	H43	H	0.891119	0.780395	0.649073
	H44	H	0.220435	0.347615	0.891600
	H45	H	0.217803	0.659416	0.095861
	H46	H	0.775277	0.350536	0.103300
	H47	H	0.778998	0.658511	0.889533
	H48	H	0.411675	0.113746	0.578867
	H49	H	0.589974	0.892709	0.585870
	H50	H	0.595914	0.115495	0.408918
	H51	H	0.415185	0.892862	0.400830
	H52	H	0.591222	0.414514	0.106880
	H53	H	0.587910	0.594237	0.881925
	H54	H	0.414393	0.595117	0.106006
	H55	H	0.410263	0.412480	0.882875
	H56	H	0.112538	0.594202	0.405430
	H57	H	0.888796	0.589440	0.584070
	H58	H	0.110784	0.413547	0.578555
	H59	H	0.889497	0.416240	0.407921
	H60	H	0.110116	0.417252	0.584087
	H61	H	0.886254	0.594778	0.586256
	H62	H	0.111546	0.593952	0.407269
	H63	H	0.888028	0.416861	0.405702
	H64	H	0.407456	0.597849	0.108656
	H65	H	0.588758	0.593010	0.882670
	H66	H	0.585888	0.419304	0.103572
	H67	H	0.410723	0.416138	0.883661
	H68	H	0.590423	0.116848	0.396336
	H69	H	0.588662	0.893834	0.583612
	H70	H	0.413173	0.114432	0.583353
	H71	H	0.413472	0.896452	0.411817
	H72	H	0.918185	0.613339	0.090161
	H73	H	0.087302	0.394600	0.077778
	H74	H	0.094939	0.615996	0.902717
	H75	H	0.912553	0.392591	0.905059
	H76	H	0.091114	0.920692	0.606725
	H77	H	0.087735	0.088412	0.384808
	H78	H	0.908303	0.098477	0.607952
	H79	H	0.904311	0.920089	0.382845
	H80	H	0.608377	0.090151	0.914241
	H81	H	0.387393	0.098459	0.083676
	H82	H	0.615110	0.907329	0.086203
	H83	H	0.389262	0.913043	0.908310
	H84	H	0.611404	0.913612	0.079024
	H85	H	0.391518	0.091296	0.078251
	H86	H	0.609513	0.085152	0.906793
	H87	H	0.389116	0.916466	0.905565
	H88	H	0.908178	0.091090	0.604577
	H89	H	0.082068	0.091895	0.385482
	H90	H	0.080523	0.917641	0.604033
	H91	H	0.919537	0.918002	0.387657
	H92	H	0.087619	0.615000	0.900063
	H93	H	0.099619	0.388383	0.085714
	H94	H	0.912583	0.609831	0.074068
	H95	H	0.911321	0.393680	0.907512
	H96	H	0.415805	0.111799	0.580281
	H97	H	0.591679	0.893565	0.583495
	H98	H	0.583169	0.111038	0.406182
	H99	H	0.404884	0.891009	0.406138
	H100	H	0.583923	0.411904	0.105615
	H101	H	0.587291	0.593175	0.883028
	H102	H	0.408264	0.590680	0.105936
	H103	H	0.413495	0.414139	0.883678
	H104	H	0.111784	0.591920	0.405666
	H105	H	0.888079	0.594536	0.580027
	H106	H	0.113077	0.411572	0.584229
	H107	H	0.887778	0.414499	0.406386
	H108	H	0.901537	0.617139	0.085628
	H109	H	0.085404	0.390317	0.093070
	H110	H	0.089423	0.612641	0.907059
	H111	H	0.910468	0.392515	0.905655
	H112	H	0.087419	0.909935	0.608678
	H113	H	0.086967	0.094849	0.382039
	H114	H	0.914762	0.095659	0.604661
	H115	H	0.911544	0.906222	0.380127
	H116	H	0.612436	0.093110	0.906798
	H117	H	0.388880	0.089684	0.087275
	H118	H	0.612565	0.917018	0.088583
	H119	H	0.387494	0.912784	0.904238
	C120	C	0.378879	0.012949	0.615204
	C121	C	0.622225	0.995451	0.616768
	C122	C	0.621524	0.011695	0.373137
	C123	C	0.378105	0.995184	0.372647
	C124	C	0.621122	0.382034	0.003052
	C125	C	0.620481	0.625097	0.985388
	C126	C	0.378579	0.625443	0.003302
	C127	C	0.379342	0.382348	0.986510
	C128	C	0.008840	0.625330	0.373703
	C129	C	0.990712	0.624718	0.615738
	C130	C	0.008355	0.382371	0.615188
	C131	C	0.991042	0.382975	0.373601
	C132	C	0.877456	0.512254	0.116958
	C133	C	0.121071	0.494430	0.115793
	C134	C	0.122350	0.511626	0.872207
	C135	C	0.878966	0.494967	0.873771
	C136	C	0.119894	0.883520	0.503801
	C137	C	0.120139	0.125557	0.485778
	C138	C	0.877771	0.126338	0.502777
	C139	C	0.878760	0.882752	0.486288
	C140	C	0.508399	0.123935	0.874899
	C141	C	0.492194	0.124769	0.116020
	C142	C	0.509095	0.881970	0.115873
	C143	C	0.491726	0.882459	0.873754
	C144	C	0.374194	0.897671	0.677862
	C145	C	0.624000	0.111581	0.677249
	C146	C	0.622567	0.894021	0.315119
	C147	C	0.375904	0.110968	0.311813
	C148	C	0.682151	0.379239	0.886007
	C149	C	0.680574	0.626888	0.102682
	C150	C	0.319379	0.626654	0.885622
	C151	C	0.320427	0.381357	0.104666
	C152	C	0.892120	0.686282	0.370288
	C153	C	0.107643	0.685155	0.618833
	C154	C	0.890115	0.324442	0.616873
	C155	C	0.107465	0.321582	0.369427
	C156	C	0.890485	0.381655	0.674828
	C157	C	0.108694	0.625880	0.674778
	C158	C	0.891998	0.628131	0.313135
	C159	C	0.108640	0.380733	0.313651
	C160	C	0.376381	0.684993	0.886018
	C161	C	0.623315	0.685083	0.102653
	C162	C	0.625597	0.320613	0.886526
	C163	C	0.377708	0.323178	0.104176
	C164	C	0.680688	0.894643	0.372654
	C165	C	0.681247	0.111997	0.618766
	C166	C	0.315846	0.898243	0.620555
	C167	C	0.317136	0.111004	0.368932
	C168	C	0.873645	0.396964	0.178753
	C169	C	0.120747	0.612374	0.173220
	C170	C	0.123161	0.394265	0.814258
	C171	C	0.876916	0.611294	0.813514
	C172	C	0.180827	0.880737	0.386953
	C173	C	0.182946	0.130391	0.601376
	C174	C	0.818229	0.127804	0.385353
	C175	C	0.818628	0.881270	0.603801
	C176	C	0.393044	0.187207	0.869259
	C177	C	0.608975	0.185335	0.120100
	C178	C	0.391028	0.823502	0.118060
	C179	C	0.608951	0.822351	0.871567
	C180	C	0.390665	0.881752	0.174796
	C181	C	0.609771	0.125754	0.175725
	C182	C	0.392929	0.129166	0.811960
	C183	C	0.609008	0.880058	0.813866
	C184	C	0.874824	0.186449	0.385643
	C185	C	0.124987	0.187664	0.601542
	C186	C	0.123652	0.822407	0.387509
	C187	C	0.874374	0.821819	0.603014
	C188	C	0.180762	0.394504	0.872484
	C189	C	0.178413	0.612537	0.115120
	C190	C	0.816006	0.396760	0.120740
	C191	C	0.819123	0.611614	0.871392
	C192	C	0.405936	0.092605	0.588406
	C193	C	0.597157	0.914306	0.591588
	C194	C	0.596942	0.093281	0.396910
	C195	C	0.403738	0.914431	0.398969
	C196	C	0.594682	0.407834	0.084269
	C197	C	0.595261	0.600453	0.903730
	C198	C	0.403041	0.601253	0.085421
	C199	C	0.404486	0.407175	0.904645
	C200	C	0.090769	0.600345	0.399038
	C201	C	0.908977	0.600067	0.590531
	C202	C	0.090066	0.407070	0.589550
	C203	C	0.909581	0.408535	0.399455
	C204	C	0.903590	0.592653	0.090622
	C205	C	0.097541	0.412515	0.092356
	C206	C	0.097627	0.593396	0.896490
	C207	C	0.904231	0.414085	0.899056
	C208	C	0.093888	0.908979	0.585295
	C209	C	0.093296	0.099098	0.405091
	C210	C	0.903311	0.101822	0.584651
	C211	C	0.904521	0.907827	0.404797
	C212	C	0.589161	0.097010	0.901884
	C213	C	0.410511	0.100195	0.090266
	C214	C	0.591446	0.905749	0.091494
	C215	C	0.409888	0.907226	0.898793
	Zn216	Zn	0.500152	0.003764	0.744869
	Zn217	Zn	0.500308	0.002661	0.243845
	Zn218	Zn	0.749199	0.503173	-0.005538
	Zn219	Zn	0.250926	0.503379	-0.005035
	Zn220	Zn	-0.000470	0.753836	0.495205
	Zn221	Zn	-0.001229	0.254362	0.493848
	Zn222	Zn	-0.000155	0.503147	0.743915
	Zn223	Zn	-0.000069	0.503479	0.245103
	Zn224	Zn	0.499117	0.754038	-0.004967
	Zn225	Zn	0.500716	0.253249	-0.004904
	Zn226	Zn	0.750462	0.004244	0.494621
	Zn227	Zn	0.248863	0.004651	0.494417
	N228	N	0.412761	0.970036	0.674971
	N229	N	0.588184	0.037939	0.676151
	N230	N	0.586623	0.967846	0.315110
	N231	N	0.413306	0.037833	0.314039
	N232	N	0.679471	0.416770	0.959510
	N233	N	0.679081	0.590379	0.028703
	N234	N	0.320531	0.590190	0.959622
	N235	N	0.321249	0.417616	0.030416
	N236	N	0.965913	0.684691	0.407348
	N237	N	0.033390	0.684631	0.582814
	N238	N	0.964557	0.324563	0.580626
	N239	N	0.033363	0.322786	0.406048
	N240	N	0.965145	0.416661	0.674270
	N241	N	0.034905	0.588910	0.673163
	N242	N	0.965726	0.590822	0.315080
	N243	N	0.035087	0.418197	0.315749
	N244	N	0.412498	0.684451	0.960309
	N245	N	0.586840	0.684371	0.028562
	N246	N	0.588361	0.322140	0.960460
	N247	N	0.413473	0.323440	0.029561
	N248	N	0.680425	0.968912	0.407990
	N249	N	0.680396	0.038603	0.581854
	N250	N	0.318379	0.970949	0.582387
	N251	N	0.318425	0.037858	0.406103
	N252	N	0.911398	0.469733	0.176462
	N253	N	0.086039	0.537979	0.174020
	N254	N	0.087362	0.468330	0.814023
	N255	N	0.913442	0.537718	0.814650
	N256	N	0.178636	0.918019	0.460525
	N257	N	0.180030	0.092537	0.528295
	N258	N	0.819832	0.091145	0.459302
	N259	N	0.821158	0.918431	0.530099
	N260	N	0.466049	0.184006	0.907779
	N261	N	0.534701	0.184840	0.083531
	N262	N	0.465668	0.823379	0.082191
	N263	N	0.534705	0.823544	0.908015
	N264	N	0.465072	0.917345	0.173738
	N265	N	0.535994	0.088791	0.173629
	N266	N	0.465618	0.090112	0.815490
	N267	N	0.534963	0.916636	0.814748
	N268	N	0.911036	0.185733	0.459825
	N269	N	0.086462	0.184974	0.528528
	N270	N	0.086523	0.824040	0.461357
	N271	N	0.911028	0.822366	0.528972
	N272	N	0.180792	0.468708	0.907473
	N273	N	0.178920	0.538220	0.080118
	N274	N	0.818092	0.469641	0.083014
	N275	N	0.819974	0.538218	0.907941
	O276	O	0.063825	1.076874	0.072772
	H277	H	0.059721	1.075602	0.087390
	H278	H	0.060839	1.086218	0.066548
	O279	O	0.179602	0.230673	0.228388
	H280	H	0.177849	0.227382	0.208474
	H281	H	0.148372	0.230948	0.229945
	O282	O	1.058210	0.207152	0.985379
	H283	H	1.056600	0.204863	0.988343
	H284	H	1.068448	0.212829	0.981808
	O285	O	0.665013	0.344003	0.691543
	H286	H	0.644483	0.362672	0.685327
	H287	H	0.646326	0.346247	0.670793
	O288	O	0.524769	0.733218	0.549577
	H289	H	0.530621	0.722527	0.555130
	H290	H	0.520609	0.739187	0.550321
	O291	O	0.288347	0.279525	0.518344
	H292	H	0.274761	0.268909	0.529092
	H293	H	0.268974	0.292558	0.516583
	O294	O	0.782108	0.223360	0.963821
	H295	H	0.779078	0.216671	0.969398
	H296	H	0.760483	0.240864	0.945904
	O297	O	0.472168	0.712973	0.280874
	H298	H	0.466992	0.728654	0.280878
	H299	H	0.464336	0.709622	0.281783
	O300	O	-0.035192	0.224225	0.770994
	H301	H	-0.028845	0.230984	0.775025
	H302	H	-0.031998	0.234266	0.758065
	O303	O	0.722138	0.695511	0.511452
	H304	H	0.722713	0.678512	0.506279
	H305	H	0.740157	0.703356	0.506052
	O306	O	0.718231	0.276505	0.464976
	H307	H	0.730016	0.274722	0.450940
	H308	H	0.734310	0.269268	0.460241
	O309	O	0.313337	0.692732	0.671973
	H310	H	0.281022	0.720495	0.706441
	H311	H	0.325505	0.671765	0.661140
	O312	O	0.531326	0.729725	0.717545
	H313	H	0.536915	0.735341	0.724494
	H314	H	0.544241	0.745395	0.731911
	O315	O	0.954993	1.004029	0.951683
	H316	H	0.955080	0.997001	0.946819
	H317	H	0.937424	1.010513	0.960032
	O318	O	0.549692	0.487467	0.316347
	H319	H	0.528362	0.488347	0.333033
	H320	H	0.541416	0.490032	0.311730
	O321	O	0.213458	0.782189	0.778059
	H322	H	0.178980	0.790212	0.786369
	H323	H	0.211530	0.799263	0.812732
	O324	O	0.977231	0.786027	0.202180
	H325	H	0.967598	0.784958	0.223634
	H326	H	0.945027	0.784731	0.212992
	O327	O	-0.035307	0.237389	1.022116
	H328	H	-0.021159	0.241551	1.007771
	H329	H	-0.045362	0.232583	1.031549
	O330	O	0.708809	0.475059	0.388869
	H331	H	0.719380	0.468850	0.388763
	H332	H	0.697630	0.469908	0.382259
	O333	O	0.479247	0.291162	0.704993
	H334	H	0.467178	0.284717	0.719091
	H335	H	0.456795	0.294164	0.704955
	O336	O	0.702679	0.298469	0.292477
	H337	H	0.665045	0.308745	0.289682
	H338	H	0.702782	0.320814	0.307446
	O339	O	0.907439	-0.050788	0.835762
	H340	H	0.887372	-0.056078	0.832927
	H341	H	0.918082	-0.048849	0.837042
	O342	O	-0.050657	0.056663	0.224172
	H343	H	-0.055267	0.060238	0.209708
	H344	H	-0.073785	0.047890	0.227743
	O345	O	-0.033269	0.969141	0.816713
	H346	H	-0.048817	0.985653	0.820262
	H347	H	-0.031384	0.975942	0.823920
	O348	O	0.215553	0.078847	0.207731
	H349	H	0.199807	0.107411	0.208973
	H350	H	0.232716	0.068778	0.228768
	O351	O	0.693124	0.694361	0.300300
	H352	H	0.672075	0.680734	0.322749
	H353	H	0.675218	0.673387	0.313354
	O354	O	0.211013	-0.118730	1.029635
	H355	H	0.212253	-0.115734	1.033319
	H356	H	0.208520	-0.112723	1.040549
	O357	O	0.573414	0.486305	0.597224
	H358	H	0.555055	0.497238	0.587804
	H359	H	0.577742	0.496336	0.615749
	O360	O	0.298869	0.290489	0.695938
	H361	H	0.303034	0.315610	0.686700
	H362	H	0.278171	0.288531	0.709069
	O363	O	0.173606	-0.092174	-0.044990
	H364	H	0.172986	-0.093966	-0.032735
	H365	H	0.172519	-0.088415	-0.046989
	O366	O	0.524414	0.438875	0.709250
	H367	H	0.533028	0.447341	0.718888
	H368	H	0.517221	0.434914	0.701407
	O369	O	0.828536	0.192546	0.164016
	H370	H	0.806833	0.213178	0.186966
	H371	H	0.838378	0.180954	0.148748
	O372	O	0.786621	0.780635	0.038035
	H373	H	0.773403	0.776711	0.024023
	H374	H	0.779865	0.788951	0.020346
	O375	O	0.781044	-0.029344	0.218813
	H376	H	0.779606	-0.069314	0.219490
	H377	H	0.759603	-0.039585	0.239134
	O378	O	0.488435	0.620862	0.477462
	H379	H	0.475788	0.621952	0.488007
	H380	H	0.487793	0.610893	0.478131
	O381	O	0.013397	0.793052	0.778711
	H382	H	0.021987	0.802368	0.775022
	H383	H	0.006864	0.792093	0.769583
	O384	O	0.773593	0.035634	0.771034
	H385	H	0.779773	0.078293	0.774035
	H386	H	0.741158	0.045905	0.744463
	O387	O	1.038321	0.781449	0.049671
	H388	H	1.034781	0.777285	0.069917
	H389	H	1.021747	0.777287	0.063525
	O390	O	0.531026	0.285767	0.283418
	H391	H	0.523558	0.264076	0.273739
	H392	H	0.520687	0.288590	0.299823
	O393	O	0.385564	0.560967	0.681787
	H394	H	0.388073	0.574933	0.672905
	H395	H	0.400891	0.568278	0.672169
	O396	O	0.220513	0.987422	0.773538
	H397	H	0.212903	0.987736	0.756390
	H398	H	0.230760	0.967300	0.766348
	O399	O	0.062430	0.071010	0.770823
	H400	H	0.052186	0.066685	0.777058
	H401	H	0.050971	0.078483	0.765384
	O402	O	0.478635	0.517636	0.437316
	H403	H	0.486804	0.504331	0.440217
	H404	H	0.471248	0.510580	0.429149
	O405	O	1.129790	0.116206	0.872838
	H406	H	1.134267	0.091668	0.867346
	H407	H	1.140557	0.114453	0.871208
	O408	O	0.220360	0.222148	0.033052
	H409	H	0.244989	0.230713	0.025585
	H410	H	0.223018	0.215105	0.031045
	O411	O	0.702664	0.708784	0.705147
	H412	H	0.693448	0.706887	0.679284
	H413	H	0.716467	0.720925	0.709442
	O414	O	0.554316	0.499458	0.626980
	H415	H	0.550087	0.492589	0.615673
	H416	H	0.564445	0.503737	0.630823
	O417	O	0.660009	0.620562	0.427040
	H418	H	0.647740	0.621670	0.436232
	H419	H	0.655332	0.611428	0.426037
	O420	O	0.372927	0.467336	0.556432
	H421	H	0.363737	0.465066	0.555167
	H422	H	0.363293	0.455028	0.569257
	O423	O	0.064441	-0.046156	0.959230
	H424	H	0.061151	-0.046579	0.963911
	H425	H	0.064860	-0.036522	0.979292
	O426	O	0.305030	0.626444	0.479235
	H427	H	0.306946	0.629733	0.476356
	H428	H	0.309845	0.643033	0.477734
	O429	O	0.820538	0.816109	0.813783
	H430	H	0.835617	0.833367	0.825757
	H431	H	0.823021	0.816195	0.821999
	O432	O	0.523008	0.655461	0.467115
	H433	H	0.524159	0.648211	0.467462
	H434	H	0.510140	0.653192	0.485607
	O435	O	0.282526	0.727310	0.399547
	H436	H	0.281787	0.724156	0.417129
	H437	H	0.289941	0.732195	0.408797
	O438	O	0.269098	-0.249042	0.252618
	H439	H	0.284199	-0.252796	0.289958
	H440	H	0.244088	-0.214183	0.233732
	O441	O	0.010835	0.209077	0.175560
	H442	H	-0.002087	0.220228	0.190525
	H443	H	-0.013493	0.196718	0.170779
	O444	O	0.443537	0.267834	0.429930
	H445	H	0.431555	0.267563	0.451996
	H446	H	0.447926	0.268918	0.443584
	O447	O	0.223415	0.988435	0.986368
	H448	H	0.230103	1.000856	0.993326
	H449	H	0.215648	0.983526	0.982542
	O450	O	-0.021834	0.795127	0.937319
	H451	H	-0.023134	0.805099	0.947509
	H452	H	-0.010756	0.794199	0.937353
	O453	O	0.279724	0.455374	0.716779
	H454	H	0.278063	0.467665	0.722699
	H455	H	0.271952	0.470860	0.732865
	O456	O	0.177760	0.174718	0.854326
	H457	H	0.169891	0.153167	0.856541
	H458	H	0.173231	0.159447	0.870620
	O459	O	0.794554	0.797900	0.205414
	H460	H	0.788354	0.786698	0.157109
	H461	H	0.764687	0.764183	0.230679
	O462	O	0.627666	0.519618	0.273551
	H463	H	0.602137	0.530051	0.269209
	H464	H	0.625040	0.510357	0.258935
	O465	O	0.783573	0.063582	0.066083
	H466	H	0.783258	0.053386	0.087638
	H467	H	0.779703	0.091709	0.067051
	O468	O	0.317457	0.349887	0.309305
	H469	H	0.322746	0.333292	0.315391
	H470	H	0.316196	0.337895	0.312642
	O471	O	0.274269	0.438484	0.456379
	H472	H	0.269610	0.437625	0.432748
	H473	H	0.274023	0.463350	0.463374
	O474	O	0.276368	0.556333	0.277331
	H475	H	0.288584	0.589703	0.287359
	H476	H	0.245444	0.554694	0.247045
	O477	O	0.423141	0.457798	1.293353
	H478	H	0.401770	0.467672	1.288715
	H479	H	0.409659	0.431139	1.297006
	O480	O	0.558850	0.271065	0.549867
	H481	H	0.567978	0.271369	0.552672
	H482	H	0.562034	0.271863	0.559611
	O483	O	0.716950	0.540702	0.717908
	H484	H	0.733172	0.550922	0.737131
	H485	H	0.714176	0.551544	0.725768
	O486	O	0.797053	0.207436	0.792280
	H487	H	0.785898	0.229452	0.788489
	H488	H	0.825066	0.212521	0.793533
	O489	O	1.047631	0.931426	0.222969
	H490	H	1.040372	0.940224	0.227815
	H491	H	1.032682	0.939356	0.226272
	O492	O	0.191142	-0.125427	0.184880
	H493	H	0.170949	-0.125018	0.169048
	H494	H	0.177545	-0.116297	0.172247
	O495	O	-0.066331	0.901469	1.046629
	H496	H	-0.066940	0.898788	1.049751
	H497	H	-0.068362	0.899906	1.046468
	O498	O	0.799012	0.964967	0.960155
	H499	H	0.807526	0.979138	0.980992
	H500	H	0.797501	0.975061	0.937591
	O501	O	0.668665	0.494251	0.507729
	H502	H	0.670312	0.496267	0.525542
	H503	H	0.668457	0.500563	0.501867
