data_Molecule from HDF5

_cell_length_a		16.158684
_cell_length_b		16.241444
_cell_length_c		16.281735
_cell_angle_alpha	90.051132
_cell_angle_beta	90.239452
_cell_angle_gamma	89.944320
_symmetry_space_group_name_H-M	'P 1'
_symmetry_Int_Tables_number		1

loop_
	_symmetry_equiv_pos_as_xyz
	x,y,z

loop_
	_atom_site_label
	_atom_site_type_symbol
	_atom_site_fract_x
	_atom_site_fract_y
	_atom_site_fract_z
	H0	H	0.403572	0.833610	0.703052
	H1	H	0.602915	0.160013	0.703085
	H2	H	0.601500	0.833597	0.273068
	H3	H	0.403498	0.161738	0.274750
	H4	H	0.715185	0.399312	0.823777
	H5	H	0.718352	0.596248	0.151652
	H6	H	0.289235	0.594894	0.823224
	H7	H	0.290159	0.401485	0.152341
	H8	H	0.837981	0.710859	0.387048
	H9	H	0.168092	0.710025	0.585467
	H10	H	0.838375	0.284579	0.583634
	H11	H	0.168738	0.283054	0.389181
	H12	H	0.838490	0.397367	0.700548
	H13	H	0.166883	0.596851	0.702719
	H14	H	0.838913	0.596283	0.272051
	H15	H	0.169385	0.399865	0.274967
	H16	H	0.403058	0.712104	0.824315
	H17	H	0.602502	0.712978	0.152014
	H18	H	0.602899	0.280720	0.825482
	H19	H	0.405964	0.284139	0.152946
	H20	H	0.715770	0.832140	0.391194
	H21	H	0.717262	0.160883	0.587358
	H22	H	0.291620	0.831754	0.584475
	H23	H	0.289280	0.161440	0.391908
	H24	H	0.905474	0.333205	0.200921
	H25	H	0.104960	0.661109	0.203734
	H26	H	0.102990	0.333759	0.772282
	H27	H	0.902452	0.660783	0.771138
	H28	H	0.216396	0.898897	0.323537
	H29	H	0.217252	0.094608	0.652119
	H30	H	0.787539	0.093849	0.324608
	H31	H	0.789853	0.898177	0.652808
	H32	H	0.338767	0.210781	0.890073
	H33	H	0.667418	0.211584	0.089906
	H34	H	0.336817	0.785892	0.084105
	H35	H	0.666821	0.782537	0.889417
	H36	H	0.337814	0.899627	0.200942
	H37	H	0.666413	0.097379	0.204389
	H38	H	0.338898	0.097122	0.773194
	H39	H	0.667208	0.897142	0.774920
	H40	H	0.903225	0.210133	0.323169
	H41	H	0.103992	0.213799	0.650217
	H42	H	0.100228	0.783276	0.323149
	H43	H	0.904186	0.781472	0.651435
	H44	H	0.215899	0.332802	0.890653
	H45	H	0.216331	0.662585	0.084659
	H46	H	0.792185	0.332473	0.083690
	H47	H	0.787895	0.660791	0.888944
	H48	H	0.400987	0.115775	0.579294
	H49	H	0.593020	0.879329	0.585735
	H50	H	0.595272	0.114909	0.391539
	H51	H	0.414201	0.885132	0.407113
	H52	H	0.596774	0.401234	0.105716
	H53	H	0.588340	0.586849	0.874426
	H54	H	0.414489	0.590359	0.103142
	H55	H	0.403024	0.410135	0.871695
	H56	H	0.118541	0.583939	0.398345
	H57	H	0.884354	0.588053	0.582197
	H58	H	0.119391	0.404605	0.574897
	H59	H	0.883137	0.403130	0.384326
	H60	H	0.120335	0.409293	0.582507
	H61	H	0.884817	0.592293	0.577633
	H62	H	0.123687	0.590576	0.386240
	H63	H	0.884542	0.395931	0.396252
	H64	H	0.408680	0.597752	0.106853
	H65	H	0.594225	0.597772	0.870062
	H66	H	0.600397	0.404428	0.105713
	H67	H	0.418427	0.404983	0.874336
	H68	H	0.591693	0.112110	0.398391
	H69	H	0.596134	0.880587	0.577584
	H70	H	0.412991	0.116436	0.591583
	H71	H	0.396388	0.875066	0.390976
	H72	H	0.913425	0.613101	0.077048
	H73	H	0.099052	0.378597	0.084350
	H74	H	0.086689	0.609892	0.900736
	H75	H	0.909615	0.382320	0.899686
	H76	H	0.092185	0.910007	0.601207
	H77	H	0.097515	0.094195	0.368597
	H78	H	0.907652	0.085744	0.604415
	H79	H	0.906437	0.903248	0.370589
	H80	H	0.619266	0.085832	0.897122
	H81	H	0.383131	0.092482	0.084956
	H82	H	0.620289	0.912442	0.089113
	H83	H	0.386800	0.909972	0.894420
	H84	H	0.623984	0.895073	0.083543
	H85	H	0.384072	0.094855	0.077805
	H86	H	0.621787	0.088848	0.893092
	H87	H	0.382947	0.903542	0.889483
	H88	H	0.917135	0.092397	0.603307
	H89	H	0.099256	0.086190	0.371268
	H90	H	0.092105	0.892731	0.606088
	H91	H	0.910007	0.905078	0.372320
	H92	H	0.106140	0.615848	0.898533
	H93	H	0.093547	0.380447	0.081911
	H94	H	0.906487	0.615936	0.080106
	H95	H	0.903307	0.376324	0.889370
	H96	H	0.417162	0.110411	0.575306
	H97	H	0.601151	0.876704	0.584629
	H98	H	0.599339	0.113943	0.398307
	H99	H	0.419674	0.879135	0.382222
	H100	H	0.595784	0.406160	0.104912
	H101	H	0.601340	0.586882	0.871065
	H102	H	0.405209	0.588733	0.105762
	H103	H	0.407597	0.394609	0.868424
	H104	H	0.121501	0.596861	0.398650
	H105	H	0.886367	0.586685	0.576866
	H106	H	0.123182	0.400555	0.582222
	H107	H	0.888469	0.409870	0.395370
	H108	H	0.913036	0.615124	0.084736
	H109	H	0.099473	0.381101	0.078451
	H110	H	0.092903	0.617215	0.882871
	H111	H	0.916277	0.381031	0.888561
	H112	H	0.107940	0.902527	0.607538
	H113	H	0.091513	0.089420	0.372127
	H114	H	0.906516	0.097291	0.607726
	H115	H	0.910319	0.901117	0.371043
	H116	H	0.620846	0.091069	0.897272
	H117	H	0.386059	0.088122	0.079931
	H118	H	0.616939	0.906855	0.071783
	H119	H	0.384290	0.901767	0.897972
	C120	C	0.382082	0.005446	0.609916
	C121	C	0.625233	0.987810	0.610724
	C122	C	0.624070	0.005367	0.367345
	C123	C	0.381197	0.988520	0.365955
	C124	C	0.625633	0.375020	-0.003052
	C125	C	0.624203	0.619299	0.979888
	C126	C	0.380916	0.619652	-0.003442
	C127	C	0.381726	0.375631	0.979936
	C128	C	0.012088	0.618738	0.365328
	C129	C	0.994093	0.617980	0.607981
	C130	C	0.012087	0.375903	0.608149
	C131	C	0.994993	0.374988	0.364468
	C132	C	0.882642	0.505964	0.108346
	C133	C	0.125570	0.489178	0.109467
	C134	C	0.124174	0.505826	0.865639
	C135	C	0.880604	0.488071	0.864168
	C136	C	0.125193	0.874139	0.496019
	C137	C	0.124874	0.118277	0.479343
	C138	C	0.881381	0.119161	0.496341
	C139	C	0.880748	0.874605	0.479825
	C140	C	0.512020	0.118183	0.866907
	C141	C	0.493728	0.119101	0.109823
	C142	C	0.511205	0.876606	0.109103
	C143	C	0.493630	0.875738	0.866169
	C144	C	0.383795	0.882076	0.664792
	C145	C	0.623139	0.111128	0.665568
	C146	C	0.621646	0.882011	0.311699
	C147	C	0.383321	0.112545	0.311987
	C148	C	0.678740	0.378050	0.873197
	C149	C	0.680334	0.616893	0.102915
	C150	C	0.326458	0.615956	0.872581
	C151	C	0.327704	0.380072	0.103569
	C152	C	0.887670	0.673384	0.367190
	C153	C	0.118580	0.672858	0.605912
	C154	C	0.887815	0.321406	0.604807
	C155	C	0.119298	0.320732	0.368207
	C156	C	0.887948	0.377679	0.662815
	C157	C	0.118046	0.616563	0.664222
	C158	C	0.887917	0.616408	0.309934
	C159	C	0.119541	0.378715	0.311368
	C160	C	0.383261	0.674072	0.872992
	C161	C	0.622631	0.674967	0.103018
	C162	C	0.623084	0.318853	0.874325
	C163	C	0.385227	0.321759	0.103794
	C164	C	0.678455	0.881343	0.370408
	C165	C	0.679878	0.111512	0.608015
	C166	C	0.328158	0.881224	0.606080
	C167	C	0.326852	0.112555	0.370470
	C168	C	0.885467	0.382286	0.162809
	C169	C	0.124054	0.612476	0.164986
	C170	C	0.122294	0.382274	0.810957
	C171	C	0.882269	0.611700	0.809305
	C172	C	0.178976	0.877924	0.372660
	C173	C	0.179574	0.115410	0.602976
	C174	C	0.825185	0.115230	0.373479
	C175	C	0.827176	0.877912	0.603492
	C176	C	0.388189	0.173576	0.869464
	C177	C	0.618066	0.173856	0.108934
	C178	C	0.386533	0.822318	0.105317
	C179	C	0.617609	0.820527	0.869248
	C180	C	0.386815	0.879122	0.163237
	C181	C	0.617458	0.117019	0.166143
	C182	C	0.388050	0.116745	0.811396
	C183	C	0.617936	0.877311	0.812187
	C184	C	0.883115	0.172894	0.372607
	C185	C	0.123472	0.174734	0.602098
	C186	C	0.121175	0.820324	0.372395
	C187	C	0.883765	0.819493	0.602706
	C188	C	0.178674	0.382006	0.869557
	C189	C	0.179478	0.613151	0.105854
	C190	C	0.828808	0.382034	0.104760
	C191	C	0.825424	0.611751	0.867588
	C192	C	0.404064	0.091852	0.588509
	C193	C	0.603263	0.901298	0.589163
	C194	C	0.601879	0.091503	0.389483
	C195	C	0.403442	0.902120	0.387111
	C196	C	0.603972	0.397273	0.083232
	C197	C	0.601310	0.597050	0.894002
	C198	C	0.402933	0.598539	0.082847
	C199	C	0.403459	0.396760	0.893722
	C200	C	0.098770	0.596838	0.387795
	C201	C	0.907653	0.595615	0.585472
	C202	C	0.098551	0.398220	0.586396
	C203	C	0.907906	0.396561	0.385733
	C204	C	0.904474	0.592285	0.086975
	C205	C	0.103754	0.402491	0.088016
	C206	C	0.101749	0.591892	0.887391
	C207	C	0.903102	0.402280	0.885854
	C208	C	0.103756	0.895568	0.582549
	C209	C	0.102713	0.096330	0.393157
	C210	C	0.904095	0.098230	0.582833
	C211	C	0.902313	0.896855	0.393662
	C212	C	0.598448	0.095089	0.889136
	C213	C	0.406904	0.097902	0.087278
	C214	C	0.597880	0.898504	0.087871
	C215	C	0.406935	0.898480	0.887689
	Zn216	Zn	0.503523	-0.003491	0.738251
	Zn217	Zn	0.502618	-0.002209	0.237645
	Zn218	Zn	0.753657	0.496874	-0.012298
	Zn219	Zn	0.252905	0.498038	-0.012437
	Zn220	Zn	0.002454	0.746080	0.487027
	Zn221	Zn	0.003663	0.247411	0.486912
	Zn222	Zn	0.003355	0.496838	0.736242
	Zn223	Zn	0.003923	0.497481	0.237267
	Zn224	Zn	0.502208	0.748523	-0.012169
	Zn225	Zn	0.503737	0.246389	-0.011081
	Zn226	Zn	0.753029	-0.003282	0.489255
	Zn227	Zn	0.253481	-0.003584	0.488265
	N228	N	0.416813	0.960149	0.667094
	N229	N	0.589958	0.033145	0.667375
	N230	N	0.588606	0.960148	0.309708
	N231	N	0.416253	0.034467	0.309110
	N232	N	0.680581	0.412109	0.950665
	N233	N	0.681660	0.583153	0.025326
	N234	N	0.325006	0.582830	0.950265
	N235	N	0.325323	0.412722	0.025664
	N236	N	0.965958	0.674818	0.400873
	N237	N	0.040650	0.673760	0.571638
	N238	N	0.965973	0.319988	0.571499
	N239	N	0.040788	0.318258	0.400444
	N240	N	0.966263	0.410745	0.664999
	N241	N	0.039769	0.583233	0.665720
	N242	N	0.966204	0.582968	0.308707
	N243	N	0.041119	0.411835	0.309091
	N244	N	0.416435	0.676489	0.950956
	N245	N	0.588425	0.676624	0.025507
	N246	N	0.590882	0.316978	0.952317
	N247	N	0.418015	0.318961	0.025866
	N248	N	0.680135	0.959013	0.404150
	N249	N	0.681236	0.033756	0.574671
	N250	N	0.326780	0.958982	0.572848
	N251	N	0.325264	0.034393	0.403145
	N252	N	0.918367	0.460302	0.165113
	N253	N	0.091066	0.534332	0.167057
	N254	N	0.089230	0.460293	0.808478
	N255	N	0.915973	0.533938	0.807114
	N256	N	0.181610	0.910561	0.450672
	N257	N	0.180347	0.081064	0.525721
	N258	N	0.824045	0.082730	0.451482
	N259	N	0.825238	0.911469	0.525949
	N260	N	0.466350	0.174580	0.903173
	N261	N	0.540073	0.175236	0.074745
	N262	N	0.464754	0.820779	0.072226
	N263	N	0.539370	0.819435	0.902108
	N264	N	0.465248	0.911877	0.165802
	N265	N	0.539176	0.083801	0.166948
	N266	N	0.466203	0.083178	0.809470
	N267	N	0.539735	0.911040	0.810091
	N268	N	0.917287	0.175496	0.450262
	N269	N	0.090325	0.176602	0.524167
	N270	N	0.088221	0.818143	0.450115
	N271	N	0.916563	0.817534	0.524786
	N272	N	0.179954	0.459759	0.902966
	N273	N	0.180555	0.535484	0.072081
	N274	N	0.826958	0.459957	0.071623
	N275	N	0.824365	0.534129	0.901256
	O276	O	0.966362	0.972607	-0.050091
	H277	H	0.966740	0.970330	-0.051409
	H278	H	0.968734	0.964231	-0.042876
	O279	O	0.535844	-0.534236	1.473978
	H280	H	0.530175	-0.540963	1.477276
	H281	H	0.519224	-0.537009	1.475254
	O282	O	-0.019450	-0.066103	0.015253
	H283	H	-0.013738	-0.057825	0.014639
	H284	H	-0.016006	-0.062227	0.009910
	O285	O	0.592859	0.533084	0.550370
	H286	H	0.597386	0.539659	0.552312
	H287	H	0.588660	0.531206	0.551740
	O288	O	0.059930	0.044006	-0.032478
	H289	H	0.046607	0.040706	-0.029773
	H290	H	0.069861	0.048504	-0.023393
	O291	O	-0.017812	1.063899	-0.033575
	H292	H	-0.030946	1.063512	-0.035726
	H293	H	-0.013681	1.058491	-0.029660
	O294	O	-0.052054	0.973538	-0.044785
	H295	H	-0.052496	0.974179	-0.042388
	H296	H	-0.048087	0.971864	-0.042241
	O297	O	0.528942	0.569051	0.498979
	H298	H	0.531043	0.574582	0.501254
	H299	H	0.533174	0.571324	0.495627
	O300	O	0.479398	0.482696	0.436539
	H301	H	0.488952	0.484887	0.432976
	H302	H	0.475090	0.481273	0.446807
	O303	O	0.965055	0.092845	1.006265
	H304	H	0.981429	0.089081	0.999952
	H305	H	0.956889	0.100617	1.014998
	O306	O	0.042258	1.006976	1.014886
	H307	H	0.044298	1.004317	1.014078
	H308	H	0.039643	1.010505	1.008229
	O309	O	0.012415	0.945590	0.962941
	H310	H	0.010301	0.948932	0.968075
	H311	H	0.022497	0.944454	0.961927
	O312	O	-0.005348	-0.031577	1.052919
	H313	H	-0.011360	-0.031485	1.054186
	H314	H	-0.004218	-0.027773	1.047946
	O315	O	0.537340	0.477546	0.554002
	H316	H	0.531518	0.469758	0.548533
	H317	H	0.545225	0.483276	0.560157
	O318	O	-0.001968	0.009260	1.054841
	H319	H	0.000217	0.001005	1.054675
	H320	H	0.001931	0.001318	1.048617
	O321	O	0.000515	1.063156	0.971538
	H322	H	0.000618	1.062631	0.964488
	H323	H	-0.009221	1.061388	0.959144
	O324	O	0.975931	0.040398	1.025819
	H325	H	0.960748	0.037355	1.026040
	H326	H	0.987065	0.049519	1.029374
	O327	O	0.982246	0.991177	1.000683
	H328	H	0.984870	0.996210	0.998397
	H329	H	0.978198	0.994768	1.003985
	O330	O	0.512561	0.489018	0.472358
	H331	H	0.520414	0.499216	0.469722
	H332	H	0.512529	0.498582	0.465268
	O333	O	0.538354	0.481781	0.415663
	H334	H	0.541342	0.479254	0.426074
	H335	H	0.541067	0.477345	0.405662
	O336	O	0.512540	0.438518	0.556060
	H337	H	0.518384	0.442716	0.558624
	H338	H	0.521086	0.440718	0.556635
	O339	O	0.447524	0.479763	0.513589
	H340	H	0.448297	0.472185	0.515899
	H341	H	0.445898	0.481022	0.504705
	O342	O	0.497778	0.558695	0.520332
	H343	H	0.487741	0.557467	0.521613
	H344	H	0.503118	0.556518	0.519925
	O345	O	0.459196	0.519348	0.517106
	H346	H	0.460055	0.510178	0.522634
	H347	H	0.458025	0.516759	0.512315
