data_Molecule from HDF5

_cell_length_a		16.648531
_cell_length_b		16.611828
_cell_length_c		16.645376
_cell_angle_alpha	89.923032
_cell_angle_beta	90.069235
_cell_angle_gamma	89.880003
_symmetry_space_group_name_H-M	'P 1'
_symmetry_Int_Tables_number		1

loop_
	_symmetry_equiv_pos_as_xyz
	x,y,z

loop_
	_atom_site_label
	_atom_site_type_symbol
	_atom_site_fract_x
	_atom_site_fract_y
	_atom_site_fract_z
	H0	H	0.385378	0.844129	0.722130
	H1	H	0.598374	0.153916	0.727635
	H2	H	0.591112	0.844401	0.284216
	H3	H	0.386723	0.158392	0.284142
	H4	H	0.708373	0.395869	0.846352
	H5	H	0.707556	0.602410	0.158468
	H6	H	0.264343	0.608999	0.848115
	H7	H	0.268909	0.396997	0.157965
	H8	H	0.832009	0.720656	0.399159
	H9	H	0.145480	0.719808	0.606737
	H10	H	0.834646	0.278197	0.608433
	H11	H	0.145572	0.281923	0.401030
	H12	H	0.834202	0.394839	0.724214
	H13	H	0.143811	0.605570	0.724728
	H14	H	0.831175	0.603320	0.284524
	H15	H	0.144254	0.396350	0.282703
	H16	H	0.380186	0.725067	0.848384
	H17	H	0.588984	0.717440	0.160258
	H18	H	0.593790	0.279259	0.846896
	H19	H	0.384876	0.281124	0.157920
	H20	H	0.709883	0.846171	0.397394
	H21	H	0.713319	0.154748	0.611340
	H22	H	0.269997	0.843546	0.605098
	H23	H	0.270215	0.157800	0.400388
	H24	H	0.885491	0.344179	0.221917
	H25	H	0.092270	0.656750	0.223362
	H26	H	0.095162	0.346486	0.780383
	H27	H	0.881056	0.655892	0.779288
	H28	H	0.206921	0.897735	0.344470
	H29	H	0.209876	0.103605	0.657091
	H30	H	0.766946	0.107157	0.346863
	H31	H	0.765501	0.893992	0.656178
	H32	H	0.334821	0.223698	0.894266
	H33	H	0.643962	0.221549	0.106721
	H34	H	0.333731	0.778646	0.110131
	H35	H	0.641995	0.776495	0.896371
	H36	H	0.333526	0.896788	0.223809
	H37	H	0.644862	0.104189	0.221389
	H38	H	0.335335	0.107607	0.778365
	H39	H	0.639828	0.888614	0.776208
	H40	H	0.882661	0.223814	0.347466
	H41	H	0.095814	0.221911	0.656159
	H42	H	0.089984	0.781755	0.344653
	H43	H	0.883049	0.779674	0.657318
	H44	H	0.208342	0.345010	0.899231
	H45	H	0.210540	0.655317	0.109069
	H46	H	0.767964	0.345083	0.106426
	H47	H	0.765337	0.656072	0.894618
	H48	H	0.396308	0.113792	0.593417
	H49	H	0.575538	0.891840	0.587032
	H50	H	0.582933	0.115497	0.410502
	H51	H	0.397222	0.888158	0.413289
	H52	H	0.577347	0.412218	0.113046
	H53	H	0.572726	0.587527	0.893041
	H54	H	0.397298	0.592116	0.114852
	H55	H	0.396181	0.411200	0.889469
	H56	H	0.096948	0.586408	0.416126
	H57	H	0.878308	0.590732	0.590240
	H58	H	0.100966	0.411472	0.594524
	H59	H	0.873930	0.407116	0.406509
	H60	H	0.100093	0.409786	0.589561
	H61	H	0.877444	0.589276	0.591729
	H62	H	0.101295	0.589413	0.407557
	H63	H	0.877697	0.407780	0.420308
	H64	H	0.397355	0.586127	0.112459
	H65	H	0.576113	0.593577	0.890151
	H66	H	0.576830	0.410550	0.113502
	H67	H	0.398025	0.414720	0.891112
	H68	H	0.575426	0.113439	0.408748
	H69	H	0.577136	0.889802	0.588184
	H70	H	0.403810	0.110859	0.591780
	H71	H	0.397473	0.887208	0.408687
	H72	H	0.903168	0.611291	0.093439
	H73	H	0.077617	0.388338	0.096804
	H74	H	0.073670	0.611931	0.912401
	H75	H	0.891831	0.386979	0.915366
	H76	H	0.080171	0.908392	0.613740
	H77	H	0.078315	0.088659	0.390675
	H78	H	0.903354	0.082743	0.610039
	H79	H	0.902986	0.908435	0.390791
	H80	H	0.597150	0.081226	0.914082
	H81	H	0.374573	0.092242	0.097242
	H82	H	0.600674	0.905998	0.090368
	H83	H	0.377014	0.916034	0.911432
	H84	H	0.598765	0.912925	0.090105
	H85	H	0.376030	0.095716	0.089594
	H86	H	0.601824	0.090805	0.911354
	H87	H	0.377397	0.910566	0.914382
	H88	H	0.905731	0.091746	0.611970
	H89	H	0.077857	0.092991	0.389899
	H90	H	0.081792	0.909554	0.614035
	H91	H	0.895337	0.911375	0.389086
	H92	H	0.074890	0.610261	0.917122
	H93	H	0.076317	0.390610	0.090426
	H94	H	0.895158	0.612561	0.087524
	H95	H	0.904229	0.389139	0.906395
	H96	H	0.398448	0.111303	0.585615
	H97	H	0.575016	0.891013	0.589694
	H98	H	0.578388	0.112325	0.415923
	H99	H	0.401329	0.888783	0.410912
	H100	H	0.578452	0.411481	0.113937
	H101	H	0.580024	0.587300	0.890469
	H102	H	0.402747	0.589561	0.112445
	H103	H	0.400332	0.411015	0.890684
	H104	H	0.101318	0.595870	0.415263
	H105	H	0.876865	0.591085	0.592123
	H106	H	0.098006	0.414279	0.591491
	H107	H	0.879192	0.418882	0.411690
	H108	H	0.894954	0.614910	0.096778
	H109	H	0.082733	0.388058	0.091828
	H110	H	0.078454	0.613221	0.914409
	H111	H	0.904650	0.393784	0.920928
	H112	H	0.079871	0.910601	0.613593
	H113	H	0.081321	0.090782	0.388436
	H114	H	0.897100	0.088351	0.614381
	H115	H	0.900784	0.916376	0.393439
	H116	H	0.598252	0.089299	0.921191
	H117	H	0.378597	0.087382	0.090995
	H118	H	0.601429	0.910413	0.096382
	H119	H	0.379683	0.915726	0.917044
	C120	C	0.368040	0.008666	0.622534
	C121	C	0.609998	0.992261	0.622933
	C122	C	0.610178	0.010242	0.380570
	C123	C	0.367881	0.992418	0.380624
	C124	C	0.609308	0.379754	0.010423
	C125	C	0.608335	0.621143	0.994486
	C126	C	0.365837	0.622913	0.011055
	C127	C	0.366922	0.380142	0.993510
	C128	C	-0.003506	0.622056	0.381495
	C129	C	0.980603	0.622178	0.623783
	C130	C	-0.002507	0.379291	0.623782
	C131	C	0.980353	0.379412	0.381543
	C132	C	0.867029	0.509092	0.123435
	C133	C	0.109870	0.492230	0.124408
	C134	C	0.108260	0.509168	0.882453
	C135	C	0.867417	0.492601	0.881143
	C136	C	0.110485	0.878990	0.509861
	C137	C	0.110712	0.121582	0.492886
	C138	C	0.868369	0.121308	0.510056
	C139	C	0.867359	0.879575	0.493653
	C140	C	0.497327	0.121076	0.881389
	C141	C	0.479800	0.122697	0.123668
	C142	C	0.497279	0.879002	0.124373
	C143	C	0.479565	0.879454	0.881218
	C144	C	0.366697	0.891086	0.682207
	C145	C	0.615090	0.107757	0.686153
	C146	C	0.610716	0.892010	0.322724
	C147	C	0.367433	0.111147	0.323156
	C148	C	0.668666	0.377572	0.893334
	C149	C	0.667396	0.621511	0.112058
	C150	C	0.304650	0.626728	0.894832
	C151	C	0.308197	0.378191	0.110885
	C152	C	0.878687	0.680687	0.380731
	C153	C	0.098158	0.680625	0.625285
	C154	C	0.880865	0.318897	0.626166
	C155	C	0.098396	0.321113	0.381430
	C156	C	0.880511	0.376927	0.683576
	C157	C	0.097341	0.623854	0.684055
	C158	C	0.878291	0.622422	0.323717
	C159	C	0.097824	0.378083	0.322906
	C160	C	0.362278	0.684467	0.894897
	C161	C	0.608513	0.678475	0.112915
	C162	C	0.611421	0.319739	0.893466
	C163	C	0.365884	0.320593	0.110844
	C164	C	0.669196	0.892575	0.379567
	C165	C	0.672292	0.108292	0.628083
	C166	C	0.309252	0.890700	0.624149
	C167	C	0.309332	0.110581	0.380568
	C168	C	0.866428	0.391393	0.182282
	C169	C	0.111543	0.609626	0.184078
	C170	C	0.112150	0.392742	0.821508
	C171	C	0.863659	0.609090	0.819720
	C172	C	0.167798	0.878506	0.391451
	C173	C	0.170248	0.122617	0.610336
	C174	C	0.807643	0.124924	0.393450
	C175	C	0.806447	0.876458	0.609889
	C176	C	0.381272	0.182808	0.877161
	C177	C	0.597299	0.181714	0.125353
	C178	C	0.380254	0.819091	0.127594
	C179	C	0.595395	0.816981	0.877871
	C180	C	0.380230	0.877706	0.184129
	C181	C	0.597617	0.123304	0.182268
	C182	C	0.381416	0.125252	0.819374
	C183	C	0.594575	0.872977	0.818466
	C184	C	0.865072	0.182917	0.393714
	C185	C	0.113485	0.181176	0.609842
	C186	C	0.109771	0.821082	0.391553
	C187	C	0.864832	0.819404	0.610385
	C188	C	0.168627	0.392028	0.880478
	C189	C	0.169839	0.609130	0.127043
	C190	C	0.808355	0.391511	0.124689
	C191	C	0.805913	0.609167	0.877192
	C192	C	0.392567	0.090730	0.597469
	C193	C	0.583561	0.911892	0.595935
	C194	C	0.585972	0.092531	0.404755
	C195	C	0.391785	0.909575	0.404226
	C196	C	0.584606	0.404374	0.092344
	C197	C	0.583446	0.596667	0.912311
	C198	C	0.391684	0.596859	0.092250
	C199	C	0.391182	0.405050	0.911805
	C200	C	0.078441	0.597561	0.405865
	C201	C	0.898760	0.597530	0.598632
	C202	C	0.078481	0.404647	0.599115
	C203	C	0.898142	0.404108	0.405827
	C204	C	0.891001	0.591462	0.099342
	C205	C	0.085742	0.410261	0.099995
	C206	C	0.082771	0.590661	0.907462
	C207	C	0.892986	0.411224	0.907027
	C208	C	0.087321	0.902624	0.592328
	C209	C	0.086207	0.097677	0.411089
	C210	C	0.894454	0.095023	0.591170
	C211	C	0.892605	0.904827	0.412131
	C212	C	0.578115	0.094374	0.907848
	C213	C	0.397684	0.098819	0.099565
	C214	C	0.579077	0.903141	0.099504
	C215	C	0.398913	0.906417	0.907037
	Zn216	Zn	0.488988	0.000328	0.751826
	Zn217	Zn	0.488872	0.001652	0.251887
	Zn218	Zn	0.738171	0.500539	0.001799
	Zn219	Zn	0.237872	0.501077	0.002548
	Zn220	Zn	-0.010832	0.750872	0.502133
	Zn221	Zn	-0.010599	0.250200	0.502619
	Zn222	Zn	-0.011772	0.500532	0.752207
	Zn223	Zn	-0.011914	0.501129	0.252830
	Zn224	Zn	0.487634	0.751109	0.003026
	Zn225	Zn	0.488465	0.250865	0.001764
	Zn226	Zn	0.738725	0.001184	0.501884
	Zn227	Zn	0.239080	-0.000006	0.501216
	N228	N	0.402340	0.965555	0.681326
	N229	N	0.576918	0.034706	0.683075
	N230	N	0.574914	0.966496	0.323040
	N231	N	0.402774	0.036350	0.322706
	N232	N	0.667648	0.414169	0.967137
	N233	N	0.667658	0.586921	0.037148
	N234	N	0.306624	0.589076	0.968288
	N235	N	0.308708	0.414497	0.036827
	N236	N	0.953088	0.680406	0.416115
	N237	N	0.024182	0.679885	0.588529
	N238	N	0.954558	0.320092	0.589756
	N239	N	0.024083	0.321502	0.416860
	N240	N	0.954066	0.413612	0.682541
	N241	N	0.022958	0.588537	0.683412
	N242	N	0.952733	0.586764	0.323717
	N243	N	0.023307	0.413716	0.322906
	N244	N	0.399594	0.682222	0.968359
	N245	N	0.572832	0.678635	0.038457
	N246	N	0.575264	0.320763	0.967551
	N247	N	0.401473	0.321105	0.036530
	N248	N	0.669357	0.967288	0.414520
	N249	N	0.669300	0.035491	0.589310
	N250	N	0.309701	0.964998	0.587738
	N251	N	0.309389	0.035619	0.415337
	N252	N	0.902282	0.465592	0.181582
	N253	N	0.075118	0.535691	0.182887
	N254	N	0.075247	0.466582	0.822513
	N255	N	0.901260	0.535483	0.821921
	N256	N	0.168577	0.913593	0.466059
	N257	N	0.168877	0.086265	0.536532
	N258	N	0.809339	0.087566	0.466992
	N259	N	0.807914	0.913228	0.536176
	N260	N	0.454525	0.180665	0.915058
	N261	N	0.522899	0.181700	0.089652
	N262	N	0.454130	0.819709	0.091091
	N263	N	0.522770	0.820802	0.916334
	N264	N	0.454024	0.914252	0.182471
	N265	N	0.523381	0.087649	0.181608
	N266	N	0.454750	0.087675	0.821698
	N267	N	0.521668	0.911349	0.820628
	N268	N	0.902168	0.180855	0.467390
	N269	N	0.077130	0.180735	0.535895
	N270	N	0.075009	0.821132	0.466340
	N271	N	0.901936	0.820994	0.536880
	N272	N	0.166375	0.465536	0.917696
	N273	N	0.169146	0.535046	0.090876
	N274	N	0.808493	0.465883	0.088739
	N275	N	0.808128	0.535743	0.914960
	O276	O	0.342768	1.302740	0.355733
	H277	H	0.366561	1.311381	0.370557
	H278	H	0.361510	1.316902	0.367367
	O279	O	-0.049770	-0.186002	0.217346
	H280	H	-0.030430	-0.176010	0.226094
	H281	H	-0.041750	-0.192367	0.204803
	O282	O	0.971276	0.198697	1.074904
	H283	H	0.982035	0.202588	1.085550
	H284	H	0.978555	0.193008	1.060473
	O285	O	0.477280	0.485365	0.281986
	H286	H	0.477509	0.504076	0.277598
	H287	H	0.470636	0.489107	0.287036
	O288	O	0.975674	0.891422	-0.127799
	H289	H	0.969365	0.886577	-0.124201
	H290	H	0.967936	0.894403	-0.124521
	O291	O	0.266248	0.528535	0.279265
	H292	H	0.264558	0.564576	0.286536
	H293	H	0.243780	0.542608	0.252964
	O294	O	1.159169	0.153795	0.807505
	H295	H	1.147346	0.141416	0.823866
	H296	H	1.143651	0.152052	0.816136
	O297	O	0.994749	0.235233	-0.011737
	H298	H	0.992170	0.228648	-0.019572
	H299	H	1.016019	0.241806	-0.011326
	O300	O	0.213987	0.220282	1.036398
	H301	H	0.221747	0.224294	1.057498
	H302	H	0.231278	0.237710	1.047656
	O303	O	0.343117	0.448099	0.503808
	H304	H	0.343282	0.456597	0.490698
	H305	H	0.352750	0.456187	0.516720
	O306	O	0.702023	0.529984	0.715901
	H307	H	0.697556	0.539106	0.706163
	H308	H	0.720324	0.542489	0.740268
	O309	O	0.628249	0.547342	0.415529
	H310	H	0.632464	0.555149	0.413269
	H311	H	0.627653	0.533608	0.423368
	O312	O	0.267283	0.722948	0.468932
	H313	H	0.250718	0.734951	0.447177
	H314	H	0.255163	0.727192	0.438979
	O315	O	0.844863	1.052682	0.786054
	H316	H	0.856004	1.047768	0.790678
	H317	H	0.836728	1.078830	0.775957
	O318	O	0.704352	0.719488	0.534390
	H319	H	0.715851	0.724903	0.534385
	H320	H	0.710115	0.726469	0.556667
	O321	O	0.430696	0.513663	0.724016
	H322	H	0.423703	0.519574	0.707960
	H323	H	0.408015	0.522578	0.735159
	O324	O	1.018129	0.780305	-0.222387
	H325	H	1.010937	0.761925	-0.226952
	H326	H	1.011631	0.768180	-0.213519
	O327	O	0.210722	0.102143	1.216689
	H328	H	0.207245	0.121868	1.212670
	H329	H	0.229045	0.129490	1.240359
	O330	O	0.544556	0.429262	0.620686
	H331	H	0.545480	0.439555	0.621817
	H332	H	0.550606	0.438421	0.634007
	O333	O	0.750606	0.242119	0.239015
	H334	H	0.733801	0.237619	0.216975
	H335	H	0.774227	0.210961	0.216098
	O336	O	0.461971	0.285870	0.714416
	H337	H	0.448501	0.288333	0.718388
	H338	H	0.456154	0.278097	0.731974
	O339	O	1.197389	-0.203173	0.790734
	H340	H	1.148910	-0.209311	0.798394
	H341	H	1.204944	-0.149731	0.787645
	O342	O	0.172454	-0.021794	0.039772
	H343	H	0.178312	-0.020962	0.028092
	H344	H	0.174390	-0.021479	0.034501
	O345	O	-0.493713	0.490902	1.427226
	H346	H	-0.503863	0.496675	1.446763
	H347	H	-0.498396	0.505095	1.421713
	O348	O	-0.226533	0.214692	-0.210051
	H349	H	-0.246300	0.229770	-0.201175
	H350	H	-0.242226	0.229112	-0.206968
	O351	O	1.310356	0.677703	-0.339889
	H352	H	1.286609	0.684611	-0.326313
	H353	H	1.295862	0.664412	-0.356563
	O354	O	-0.012479	0.043682	1.213079
	H355	H	-0.022586	0.029546	1.208399
	H356	H	-0.002250	0.045148	1.208881
	O357	O	0.699333	0.313166	0.354650
	H358	H	0.724209	0.289950	0.328946
	H359	H	0.676009	0.303797	0.346012
	O360	O	0.140424	-0.026640	1.176147
	H361	H	0.144490	-0.002858	1.173444
	H362	H	0.163659	-0.012249	1.173910
	O363	O	-0.246309	0.058758	0.049620
	H364	H	-0.250014	0.034118	0.053365
	H365	H	-0.242957	0.043422	0.038965
	O366	O	0.678992	0.694159	0.313189
	H367	H	0.655869	0.695918	0.344072
	H368	H	0.663904	0.658269	0.320158
	O369	O	0.347069	0.468493	0.715449
	H370	H	0.338521	0.484744	0.708013
	H371	H	0.350748	0.468391	0.710090
	O372	O	1.028547	1.001491	-0.215376
	H373	H	1.026590	1.015526	-0.203245
	H374	H	1.012811	0.978705	-0.222509
	O375	O	0.963212	-0.216251	-0.049611
	H376	H	0.966785	-0.188268	-0.036082
	H377	H	0.936726	-0.226204	-0.030744
	O378	O	0.775922	0.790248	0.207142
	H379	H	0.749267	0.760097	0.243234
	H380	H	0.820263	0.793072	0.215109
	O381	O	0.217758	1.067954	0.943036
	H382	H	0.226600	1.071247	0.936599
	H383	H	0.214669	1.079556	0.961900
	O384	O	0.966386	0.226105	0.774166
	H385	H	0.926090	0.217915	0.792762
	H386	H	0.958055	0.262401	0.737096
	O387	O	1.034964	1.038651	0.074335
	H388	H	1.040127	1.039919	0.072210
	H389	H	1.032771	1.046243	0.064316
	O390	O	0.763425	0.775239	0.034497
	H391	H	0.748698	0.759968	0.057117
	H392	H	0.751768	0.768307	0.064139
	O393	O	0.413470	0.661754	0.494962
	H394	H	0.398275	0.666755	0.505517
	H395	H	0.407124	0.652033	0.488210
	O396	O	-0.230867	1.215691	0.970460
	H397	H	-0.245391	1.215493	0.971109
	H398	H	-0.228883	1.213197	0.984285
	O399	O	-0.186194	0.019880	0.833860
	H400	H	-0.166818	0.028896	0.839818
	H401	H	-0.214531	0.031631	0.813914
	O402	O	0.056809	0.047253	0.916537
	H403	H	0.050845	0.056815	0.901230
	H404	H	0.055611	0.046139	0.929013
	O405	O	1.263649	0.269115	0.735924
	H406	H	1.244590	0.257754	0.745850
	H407	H	1.257652	0.283009	0.716309
	O408	O	-0.220637	-0.064269	-0.048686
	H409	H	-0.214949	-0.081231	-0.051262
	H410	H	-0.225037	-0.074575	-0.059542
	O411	O	0.765689	0.964757	1.221538
	H412	H	0.764992	0.939737	1.224527
	H413	H	0.748694	0.949005	1.240944
	O414	O	0.278322	0.708859	0.294822
	H415	H	0.249967	0.742279	0.259234
	H416	H	0.330568	0.714659	0.286264
	O417	O	0.467835	0.279595	0.476201
	H418	H	0.482736	0.274973	0.485003
	H419	H	0.472343	0.277897	0.491524
	O420	O	0.270404	0.546311	0.560204
	H421	H	0.259216	0.552495	0.540762
	H422	H	0.283464	0.542557	0.565409
	O423	O	-0.088853	0.120564	0.964162
	H424	H	-0.075895	0.110660	0.958116
	H425	H	-0.082980	0.127529	0.960743
	O426	O	0.551557	0.720580	0.436203
	H427	H	0.542810	0.706999	0.454214
	H428	H	0.552132	0.725114	0.466482
	O429	O	1.050272	0.890960	1.088556
	H430	H	1.050305	0.902485	1.086407
	H431	H	1.049054	0.901619	1.100480
	O432	O	0.528469	0.285738	0.286038
	H433	H	0.519661	0.274736	0.266724
	H434	H	0.511013	0.306009	0.279955
	O435	O	0.381658	0.574562	0.632830
	H436	H	0.372677	0.559273	0.639647
	H437	H	0.364808	0.558266	0.647134
	O438	O	0.488158	-0.678635	0.574233
	H439	H	0.503700	-0.676532	0.565081
	H440	H	0.488350	-0.688319	0.576343
	O441	O	-0.153220	0.110836	0.198059
	H442	H	-0.152230	0.089757	0.204765
	H443	H	-0.144589	0.103244	0.176584
	O444	O	0.583859	0.489115	0.415150
	H445	H	0.584087	0.480388	0.414144
	H446	H	0.591852	0.484909	0.407686
	O447	O	0.214030	0.782265	0.978550
	H448	H	0.215436	0.774126	0.959963
	H449	H	0.227306	0.767501	0.948000
	O450	O	-0.264725	0.743043	0.745269
	H451	H	-0.275384	0.753527	0.736003
	H452	H	-0.260109	0.753667	0.754393
	O453	O	0.707745	0.326539	0.502116
	H454	H	0.726997	0.330073	0.482356
	H455	H	0.715336	0.321147	0.488904
	O456	O	-0.116754	-0.070206	1.046777
	H457	H	-0.112079	-0.067002	1.055493
	H458	H	-0.126352	-0.063510	1.034557
	O459	O	1.208223	0.961900	-0.215020
	H460	H	1.217955	0.977274	-0.229010
	H461	H	1.198711	0.982673	-0.223255
	O462	O	0.405974	0.489994	0.499430
	H463	H	0.401886	0.500041	0.490770
	H464	H	0.405267	0.464495	0.500375
	O465	O	1.182934	-0.192062	0.190371
	H466	H	1.163932	-0.172612	0.177164
	H467	H	1.170828	-0.173833	0.163463
	O468	O	0.277851	0.293862	0.530820
	H469	H	0.285961	0.296807	0.540473
	H470	H	0.268127	0.285014	0.527815
	O471	O	0.446802	0.714076	0.288411
	H472	H	0.466755	0.727065	0.290968
	H473	H	0.463923	0.714731	0.294633
	O474	O	0.588795	0.710535	0.713276
	H475	H	0.575787	0.708080	0.710797
	H476	H	0.580912	0.698386	0.722691
	O477	O	0.485870	0.541224	1.366908
	H478	H	0.498828	0.537888	1.371970
	H479	H	0.479913	0.544651	1.378156
	O480	O	0.651965	0.484385	0.327489
	H481	H	0.663007	0.466323	0.326954
	H482	H	0.659368	0.458972	0.324399
	O483	O	0.723538	0.474276	0.533734
	H484	H	0.726803	0.472716	0.531728
	H485	H	0.722392	0.486779	0.522124
	O486	O	0.674022	0.315995	0.691801
	H487	H	0.676769	0.339473	0.658101
	H488	H	0.639612	0.335074	0.692329
	O489	O	0.843015	0.796411	-0.146601
	H490	H	0.835220	0.820015	-0.138018
	H491	H	0.853452	0.804616	-0.129946
	O492	O	0.085844	-0.172447	0.092187
	H493	H	0.078412	-0.191395	0.077901
	H494	H	0.107973	-0.162795	0.091171
	O495	O	0.028117	1.219060	1.223835
	H496	H	0.018092	1.230723	1.239458
	H497	H	0.021617	1.206956	1.230252
	O498	O	1.235710	1.248139	1.247835
	H499	H	1.263700	1.267140	1.282143
	H500	H	1.208436	1.267451	1.249890
	O501	O	0.477313	0.609373	0.716888
	H502	H	0.474250	0.613883	0.721045
	H503	H	0.457247	0.622060	0.709539
