data_Molecule from HDF5

_cell_length_a		16.128932
_cell_length_b		16.410747
_cell_length_c		16.085318
_cell_angle_alpha	90.407370
_cell_angle_beta	89.586403
_cell_angle_gamma	89.713739
_symmetry_space_group_name_H-M	'P 1'
_symmetry_Int_Tables_number		1

loop_
	_symmetry_equiv_pos_as_xyz
	x,y,z

loop_
	_atom_site_label
	_atom_site_type_symbol
	_atom_site_fract_x
	_atom_site_fract_y
	_atom_site_fract_z
	H0	H	0.399666	0.840399	0.717036
	H1	H	0.593997	0.166352	0.714338
	H2	H	0.599990	0.840641	0.283033
	H3	H	0.400499	0.167208	0.288610
	H4	H	0.714368	0.404646	0.835409
	H5	H	0.709921	0.598145	0.167835
	H6	H	0.290292	0.599183	0.834242
	H7	H	0.290379	0.407897	0.167050
	H8	H	0.835159	0.718381	0.400902
	H9	H	0.163425	0.720132	0.601766
	H10	H	0.835954	0.288629	0.603925
	H11	H	0.162965	0.283148	0.395773
	H12	H	0.834890	0.409174	0.714005
	H13	H	0.167295	0.599111	0.710847
	H14	H	0.834233	0.598537	0.290798
	H15	H	0.166467	0.404606	0.288297
	H16	H	0.402106	0.718015	0.836505
	H17	H	0.603409	0.720760	0.164616
	H18	H	0.605879	0.286273	0.836764
	H19	H	0.398692	0.288796	0.164537
	H20	H	0.716240	0.839997	0.399083
	H21	H	0.714323	0.164568	0.601078
	H22	H	0.284465	0.839595	0.598367
	H23	H	0.281928	0.165353	0.403542
	H24	H	0.903320	0.338862	0.215356
	H25	H	0.098228	0.664731	0.217264
	H26	H	0.101877	0.339754	0.784531
	H27	H	0.903810	0.666040	0.790072
	H28	H	0.214199	0.902443	0.335598
	H29	H	0.206234	0.098826	0.667727
	H30	H	0.787923	0.097224	0.333198
	H31	H	0.786187	0.907688	0.666931
	H32	H	0.337683	0.220782	0.901504
	H33	H	0.665835	0.217443	0.100304
	H34	H	0.337458	0.786709	0.103598
	H35	H	0.665306	0.785460	0.895826
	H36	H	0.333673	0.908964	0.211699
	H37	H	0.666388	0.099309	0.212939
	H38	H	0.332463	0.097537	0.795609
	H39	H	0.665819	0.904990	0.785666
	H40	H	0.898222	0.217826	0.335591
	H41	H	0.098633	0.219691	0.664293
	H42	H	0.101306	0.785724	0.336545
	H43	H	0.896167	0.789670	0.665595
	H44	H	0.217873	0.339900	0.901257
	H45	H	0.215430	0.664799	0.101443
	H46	H	0.785823	0.338885	0.099385
	H47	H	0.784379	0.664671	0.904067
	H48	H	0.411152	0.116749	0.600852
	H49	H	0.582174	0.889491	0.591445
	H50	H	0.586231	0.118211	0.405013
	H51	H	0.407834	0.888329	0.408573
	H52	H	0.586104	0.413794	0.116555
	H53	H	0.589798	0.583186	0.887788
	H54	H	0.412502	0.590828	0.115305
	H55	H	0.411701	0.418413	0.884978
	H56	H	0.117853	0.600749	0.413835
	H57	H	0.883032	0.598692	0.592550
	H58	H	0.115570	0.414638	0.586621
	H59	H	0.880038	0.409228	0.403373
	H60	H	0.120353	0.408820	0.597620
	H61	H	0.882507	0.595083	0.596930
	H62	H	0.114858	0.591032	0.412560
	H63	H	0.881409	0.403945	0.412328
	H64	H	0.413551	0.603686	0.120059
	H65	H	0.584099	0.605037	0.882040
	H66	H	0.590798	0.401307	0.122173
	H67	H	0.419493	0.403104	0.883105
	H68	H	0.594707	0.116351	0.415628
	H69	H	0.599162	0.887677	0.585087
	H70	H	0.398043	0.117466	0.588686
	H71	H	0.405678	0.887493	0.407565
	H72	H	0.911711	0.615869	0.097592
	H73	H	0.101174	0.383565	0.096321
	H74	H	0.095768	0.618169	0.910253
	H75	H	0.907435	0.386478	0.910547
	H76	H	0.092562	0.902738	0.622609
	H77	H	0.092560	0.099926	0.380174
	H78	H	0.913934	0.089064	0.613365
	H79	H	0.902272	0.914238	0.382038
	H80	H	0.621137	0.101872	0.906445
	H81	H	0.382296	0.101487	0.093068
	H82	H	0.618588	0.915835	0.097324
	H83	H	0.382294	0.909111	0.908867
	H84	H	0.621701	0.902375	0.092269
	H85	H	0.383190	0.096899	0.091082
	H86	H	0.616787	0.093459	0.912831
	H87	H	0.381904	0.906702	0.910966
	H88	H	0.910181	0.109651	0.621030
	H89	H	0.095510	0.088252	0.382068
	H90	H	0.095318	0.915458	0.619631
	H91	H	0.917947	0.909696	0.385664
	H92	H	0.098996	0.619121	0.906505
	H93	H	0.091953	0.386037	0.097362
	H94	H	0.903054	0.617638	0.091254
	H95	H	0.906422	0.385370	0.903562
	H96	H	0.395281	0.123698	0.605899
	H97	H	0.595405	0.883494	0.601599
	H98	H	0.598390	0.121671	0.403417
	H99	H	0.407923	0.887715	0.405849
	H100	H	0.600604	0.411937	0.121541
	H101	H	0.606649	0.596577	0.877623
	H102	H	0.402477	0.596301	0.120558
	H103	H	0.403801	0.405110	0.878593
	H104	H	0.119408	0.595941	0.404627
	H105	H	0.880897	0.599543	0.598120
	H106	H	0.119326	0.402177	0.586478
	H107	H	0.883919	0.413500	0.412685
	H108	H	0.901887	0.620321	0.101576
	H109	H	0.097192	0.387154	0.089800
	H110	H	0.094164	0.619125	0.905996
	H111	H	0.912879	0.387067	0.906196
	H112	H	0.082821	0.910512	0.617009
	H113	H	0.083206	0.091069	0.385095
	H114	H	0.893409	0.093776	0.620989
	H115	H	0.906689	0.898957	0.378802
	H116	H	0.619961	0.092397	0.902160
	H117	H	0.383240	0.097609	0.096266
	H118	H	0.615832	0.911613	0.083399
	H119	H	0.383377	0.909515	0.912049
	C120	C	0.374573	0.011415	0.625280
	C121	C	0.620223	0.994401	0.622304
	C122	C	0.622303	0.011159	0.377956
	C123	C	0.377505	0.995197	0.379240
	C124	C	0.622794	0.380511	0.010604
	C125	C	0.622331	0.624022	0.991750
	C126	C	0.380458	0.625010	0.009609
	C127	C	0.381574	0.381702	0.991818
	C128	C	0.008240	0.623725	0.381551
	C129	C	0.991173	0.625486	0.623510
	C130	C	0.009133	0.381310	0.621143
	C131	C	0.991088	0.380165	0.379245
	C132	C	0.878045	0.509877	0.123833
	C133	C	0.123975	0.493449	0.123712
	C134	C	0.125300	0.511230	0.878078
	C135	C	0.879682	0.494177	0.879518
	C136	C	0.120572	0.880143	0.510279
	C137	C	0.118652	0.122457	0.491706
	C138	C	0.877174	0.124789	0.508773
	C139	C	0.878704	0.881291	0.491762
	C140	C	0.509670	0.124456	0.880117
	C141	C	0.491982	0.125989	0.122272
	C142	C	0.509494	0.882082	0.121163
	C143	C	0.491768	0.879976	0.878828
	C144	C	0.378863	0.888840	0.679238
	C145	C	0.615869	0.117445	0.677182
	C146	C	0.620367	0.888980	0.321549
	C147	C	0.379888	0.118190	0.325668
	C148	C	0.678245	0.383350	0.885352
	C149	C	0.674762	0.620138	0.117619
	C150	C	0.326486	0.620825	0.884466
	C151	C	0.326549	0.386363	0.116769
	C152	C	0.884108	0.679559	0.382202
	C153	C	0.115123	0.680978	0.620998
	C154	C	0.885065	0.327079	0.621948
	C155	C	0.114704	0.323242	0.378317
	C156	C	0.884781	0.386902	0.677047
	C157	C	0.116862	0.621250	0.675681
	C158	C	0.883731	0.620117	0.327371
	C159	C	0.116168	0.383542	0.324641
	C160	C	0.382090	0.679809	0.885321
	C161	C	0.621237	0.680870	0.116032
	C162	C	0.623962	0.324566	0.886021
	C163	C	0.380919	0.327196	0.115718
	C164	C	0.678333	0.888664	0.379141
	C165	C	0.675420	0.116475	0.620679
	C166	C	0.321652	0.888486	0.620256
	C167	C	0.320886	0.117269	0.382763
	C168	C	0.882066	0.387412	0.177855
	C169	C	0.119736	0.616041	0.179536
	C170	C	0.122754	0.388689	0.822093
	C171	C	0.882897	0.617201	0.826982
	C172	C	0.176962	0.881799	0.385458
	C173	C	0.170952	0.119800	0.617289
	C174	C	0.824133	0.119473	0.383378
	C175	C	0.823027	0.886086	0.616970
	C176	C	0.385885	0.180963	0.882381
	C177	C	0.616374	0.180023	0.120381
	C178	C	0.385931	0.826111	0.121614
	C179	C	0.615942	0.824137	0.877463
	C180	C	0.384197	0.886744	0.175765
	C181	C	0.616740	0.121408	0.176501
	C182	C	0.383356	0.119800	0.829538
	C183	C	0.616334	0.883761	0.822910
	C184	C	0.878748	0.179464	0.384592
	C185	C	0.117416	0.179739	0.615755
	C186	C	0.120676	0.823809	0.385970
	C187	C	0.877823	0.827433	0.616315
	C188	C	0.180736	0.388634	0.879980
	C189	C	0.177667	0.616255	0.121391
	C190	C	0.823653	0.387435	0.120477
	C191	C	0.823338	0.616382	0.883520
	C192	C	0.395215	0.097254	0.604571
	C193	C	0.598386	0.909155	0.599539
	C194	C	0.599639	0.096618	0.401197
	C195	C	0.400505	0.909865	0.400976
	C196	C	0.599414	0.402489	0.097638
	C197	C	0.600068	0.601543	0.904912
	C198	C	0.402867	0.603346	0.096225
	C199	C	0.404849	0.402562	0.904612
	C200	C	0.094987	0.602190	0.403767
	C201	C	0.904611	0.604027	0.602156
	C202	C	0.096105	0.402264	0.597066
	C203	C	0.904125	0.402322	0.402700
	C204	C	0.899286	0.595711	0.102854
	C205	C	0.103025	0.407816	0.101231
	C206	C	0.102953	0.596678	0.900786
	C207	C	0.902308	0.408344	0.900607
	C208	C	0.097079	0.902814	0.597157
	C209	C	0.096724	0.099757	0.404893
	C210	C	0.899203	0.103811	0.595752
	C211	C	0.902122	0.901696	0.404714
	C212	C	0.596678	0.102490	0.900991
	C213	C	0.405403	0.104872	0.100048
	C214	C	0.596407	0.903557	0.097893
	C215	C	0.405132	0.901759	0.903293
	Zn216	Zn	0.499178	0.002636	0.753177
	Zn217	Zn	0.499754	0.003688	0.249629
	Zn218	Zn	0.748860	0.501416	0.001589
	Zn219	Zn	0.253574	0.502486	0.000752
	Zn220	Zn	-0.001320	0.753282	0.501779
	Zn221	Zn	-0.000631	0.252165	0.499931
	Zn222	Zn	0.001819	0.503054	0.749547
	Zn223	Zn	0.000329	0.502374	0.252918
	Zn224	Zn	0.502032	0.753017	0.000873
	Zn225	Zn	0.501808	0.253803	0.000512
	Zn226	Zn	0.750900	0.001985	0.500520
	Zn227	Zn	0.246535	0.002661	0.501328
	N228	N	0.411179	0.966226	0.682463
	N229	N	0.582223	0.040490	0.678324
	N230	N	0.586468	0.966246	0.320594
	N231	N	0.414246	0.041120	0.323172
	N232	N	0.677649	0.417424	0.963830
	N233	N	0.675428	0.585486	0.039511
	N234	N	0.325314	0.587370	0.962771
	N235	N	0.326934	0.419644	0.038521
	N236	N	0.962608	0.682112	0.415206
	N237	N	0.035951	0.684059	0.589454
	N238	N	0.963713	0.323535	0.587789
	N239	N	0.035878	0.321031	0.411658
	N240	N	0.962970	0.419969	0.676396
	N241	N	0.038966	0.587555	0.677484
	N242	N	0.961803	0.586194	0.326712
	N243	N	0.038251	0.418338	0.325196
	N244	N	0.414898	0.682690	0.964033
	N245	N	0.589319	0.683482	0.036833
	N246	N	0.589921	0.322705	0.964778
	N247	N	0.414645	0.324462	0.036994
	N248	N	0.679610	0.965668	0.413606
	N249	N	0.678305	0.039088	0.587381
	N250	N	0.318947	0.965648	0.587475
	N251	N	0.319327	0.039951	0.415243
	N252	N	0.914950	0.464729	0.180404
	N253	N	0.087076	0.538817	0.180957
	N254	N	0.089016	0.465869	0.820765
	N255	N	0.917227	0.540089	0.824504
	N256	N	0.177205	0.915763	0.463851
	N257	N	0.171988	0.084797	0.539087
	N258	N	0.822887	0.086142	0.461713
	N259	N	0.823623	0.918942	0.538640
	N260	N	0.465276	0.184164	0.912958
	N261	N	0.537929	0.183046	0.087376
	N262	N	0.464901	0.823208	0.088494
	N263	N	0.537444	0.821764	0.911829
	N264	N	0.462107	0.920664	0.175690
	N265	N	0.538476	0.088387	0.177786
	N266	N	0.461318	0.085081	0.828178
	N267	N	0.538033	0.917449	0.823460
	N268	N	0.911043	0.182858	0.463477
	N269	N	0.085583	0.181612	0.536699
	N270	N	0.086536	0.822397	0.464673
	N271	N	0.911770	0.824246	0.537429
	N272	N	0.182457	0.465779	0.914072
	N273	N	0.180573	0.538973	0.087402
	N274	N	0.820927	0.464686	0.087930
	N275	N	0.821003	0.538652	0.915222
	O276	O	0.011881	0.002225	0.074536
	H277	H	0.007225	0.002517	0.077898
	H278	H	0.014127	0.005073	0.076030
	O279	O	0.993485	0.974449	1.004177
	H280	H	0.987602	0.985091	0.991655
	H281	H	0.991138	0.967487	1.015530
	O282	O	0.456532	0.569951	0.539374
	H283	H	0.463774	0.562292	0.547005
	H284	H	0.460279	0.574015	0.539930
	O285	O	1.071313	-0.006367	1.053532
	H286	H	1.071981	-0.003052	1.055712
	H287	H	1.072265	-0.005671	1.059005
	O288	O	1.031530	-0.057820	-0.094620
	H289	H	1.041594	-0.058696	-0.097348
	H290	H	1.021350	-0.064594	-0.109204
	O291	O	0.451281	0.526397	0.546781
	H292	H	0.450648	0.527410	0.542538
	H293	H	0.455794	0.525222	0.546279
	O294	O	1.541022	0.499822	0.482804
	H295	H	1.542485	0.497130	0.475408
	H296	H	1.541963	0.507878	0.487279
	O297	O	-0.535726	-0.487317	-0.496974
	H298	H	-0.532420	-0.489960	-0.501438
	H299	H	-0.530989	-0.467492	-0.493319
	O300	O	0.473727	0.549354	0.434180
	H301	H	0.466331	0.554107	0.426711
	H302	H	0.467944	0.554146	0.434338
	O303	O	0.449371	0.530012	0.472022
	H304	H	0.455142	0.536269	0.461086
	H305	H	0.443600	0.528085	0.478276
	O306	O	0.986257	-0.022831	0.045624
	H307	H	0.977935	-0.021647	0.043571
	H308	H	0.979177	-0.026913	0.050155
	O309	O	0.053460	-0.020639	0.943004
	H310	H	0.052282	-0.027228	0.938076
	H311	H	0.056988	-0.024892	0.933181
	O312	O	0.961822	1.020145	0.947626
	H313	H	0.975568	1.018557	0.947751
	H314	H	0.959038	1.011678	0.946609
	O315	O	0.424461	0.433645	0.497478
	H316	H	0.418264	0.433260	0.497147
	H317	H	0.409666	0.434015	0.502133
	O318	O	0.547235	0.554097	0.530018
	H319	H	0.549774	0.559683	0.519189
	H320	H	0.550520	0.558594	0.536859
	O321	O	0.069049	0.986386	0.962772
	H322	H	0.079396	0.989162	0.970720
	H323	H	0.077863	0.977074	0.962167
	O324	O	0.489967	0.413635	0.400102
	H325	H	0.481116	0.412863	0.395891
	H326	H	0.478703	0.414676	0.399160
	O327	O	0.630737	0.439423	0.503213
	H328	H	0.629997	0.431397	0.505725
	H329	H	0.630407	0.429101	0.499294
	O330	O	0.518054	0.443001	0.458979
	H331	H	0.521716	0.438932	0.458376
	H332	H	0.520435	0.440956	0.456001
	O333	O	0.521845	0.550031	0.459797
	H334	H	0.527235	0.543442	0.459197
	H335	H	0.516287	0.547913	0.461525
	O336	O	0.403062	0.540989	0.517268
	H337	H	0.396193	0.548217	0.518144
	H338	H	0.398831	0.543493	0.526984
	O339	O	0.962061	0.968484	-0.030408
	H340	H	0.957844	0.978248	-0.029533
	H341	H	0.964070	0.967874	-0.031449
	O342	O	0.517006	0.510285	0.559758
	H343	H	0.520650	0.515987	0.564256
	H344	H	0.520149	0.507879	0.561496
	O345	O	0.579649	0.528675	0.401792
	H346	H	0.582740	0.524514	0.397824
	H347	H	0.576421	0.521326	0.397341
	O348	O	0.040114	-0.038880	-0.042654
	H349	H	0.036413	-0.052418	-0.033795
	H350	H	0.047567	-0.032161	-0.036368
	O351	O	0.038603	0.939502	1.035355
	H352	H	0.032190	0.939214	1.029206
	H353	H	0.044775	0.942720	1.042852
	O354	O	0.561469	0.589867	0.556869
	H355	H	0.567149	0.586618	0.560875
	H356	H	0.570634	0.591313	0.550782
	O357	O	0.066423	0.978184	1.038729
	H358	H	0.063130	0.975798	1.028614
	H359	H	0.066422	0.980662	1.040860
