data_Molecule from HDF5

_cell_length_a		16.216690
_cell_length_b		16.266774
_cell_length_c		16.321444
_cell_angle_alpha	90.034416
_cell_angle_beta	90.036008
_cell_angle_gamma	89.940960
_symmetry_space_group_name_H-M	'P 1'
_symmetry_Int_Tables_number		1

loop_
	_symmetry_equiv_pos_as_xyz
	x,y,z

loop_
	_atom_site_label
	_atom_site_type_symbol
	_atom_site_fract_x
	_atom_site_fract_y
	_atom_site_fract_z
	H0	H	0.399020	0.840581	0.715230
	H1	H	0.597961	0.168115	0.716681
	H2	H	0.597616	0.840482	0.286194
	H3	H	0.399791	0.168331	0.286840
	H4	H	0.711577	0.406287	0.836956
	H5	H	0.711302	0.602194	0.164722
	H6	H	0.283357	0.602108	0.837694
	H7	H	0.284394	0.407136	0.165680
	H8	H	0.833184	0.720158	0.402337
	H9	H	0.162545	0.719143	0.598604
	H10	H	0.833804	0.291057	0.598523
	H11	H	0.162181	0.291218	0.402548
	H12	H	0.832758	0.406297	0.714995
	H13	H	0.161526	0.604489	0.715714
	H14	H	0.833185	0.605039	0.284982
	H15	H	0.161424	0.405634	0.285936
	H16	H	0.398582	0.718976	0.837774
	H17	H	0.597015	0.720478	0.163873
	H18	H	0.595724	0.289429	0.837483
	H19	H	0.398895	0.288354	0.164364
	H20	H	0.711570	0.840700	0.403849
	H21	H	0.710616	0.169491	0.597377
	H22	H	0.284837	0.840141	0.598106
	H23	H	0.284420	0.168739	0.403882
	H24	H	0.896867	0.342070	0.216794
	H25	H	0.096411	0.669022	0.214636
	H26	H	0.097433	0.341017	0.785366
	H27	H	0.899028	0.668667	0.785781
	H28	H	0.212045	0.907235	0.338462
	H29	H	0.211912	0.102843	0.664816
	H30	H	0.782497	0.103386	0.336929
	H31	H	0.785418	0.908404	0.665144
	H32	H	0.333115	0.217366	0.903114
	H33	H	0.662164	0.217869	0.098914
	H34	H	0.332593	0.791700	0.098127
	H35	H	0.662050	0.789885	0.902565
	H36	H	0.334080	0.906024	0.215172
	H37	H	0.662302	0.102548	0.214878
	H38	H	0.333535	0.102993	0.786246
	H39	H	0.661683	0.905333	0.786710
	H40	H	0.898308	0.220760	0.337263
	H41	H	0.095748	0.220050	0.664260
	H42	H	0.097180	0.791103	0.337608
	H43	H	0.899723	0.790241	0.664108
	H44	H	0.210877	0.339707	0.904464
	H45	H	0.211477	0.668551	0.098665
	H46	H	0.784527	0.340499	0.097912
	H47	H	0.783020	0.668921	0.902044
	H48	H	0.402020	0.123082	0.595892
	H49	H	0.588283	0.890550	0.590440
	H50	H	0.588167	0.125528	0.390865
	H51	H	0.395741	0.883602	0.401621
	H52	H	0.586791	0.413485	0.114867
	H53	H	0.595706	0.595074	0.883330
	H54	H	0.413672	0.608464	0.117801
	H55	H	0.399223	0.401437	0.880268
	H56	H	0.115016	0.598196	0.405570
	H57	H	0.877768	0.600723	0.601589
	H58	H	0.110699	0.424219	0.593074
	H59	H	0.876540	0.404924	0.403422
	H60	H	0.119503	0.408092	0.605274
	H61	H	0.881283	0.603671	0.586424
	H62	H	0.114461	0.598992	0.407271
	H63	H	0.883743	0.412876	0.417639
	H64	H	0.392089	0.600884	0.121937
	H65	H	0.585893	0.593875	0.887649
	H66	H	0.590285	0.405573	0.118618
	H67	H	0.398463	0.420193	0.886707
	H68	H	0.575487	0.114420	0.416760
	H69	H	0.596097	0.886660	0.593548
	H70	H	0.409615	0.120079	0.596224
	H71	H	0.414713	0.888948	0.400081
	H72	H	0.910559	0.620790	0.096383
	H73	H	0.096100	0.384257	0.102110
	H74	H	0.087403	0.621633	0.902011
	H75	H	0.909848	0.389133	0.904048
	H76	H	0.098682	0.912665	0.619902
	H77	H	0.088695	0.094929	0.386296
	H78	H	0.905782	0.096283	0.615162
	H79	H	0.907164	0.907978	0.384172
	H80	H	0.613936	0.098476	0.911235
	H81	H	0.376743	0.108996	0.095234
	H82	H	0.615007	0.915094	0.096620
	H83	H	0.381765	0.914173	0.907073
	H84	H	0.616484	0.907246	0.094992
	H85	H	0.385131	0.092708	0.083205
	H86	H	0.613881	0.092674	0.907645
	H87	H	0.378776	0.910455	0.904047
	H88	H	0.905993	0.101588	0.617256
	H89	H	0.089027	0.103039	0.384422
	H90	H	0.086577	0.917693	0.614030
	H91	H	0.900698	0.911877	0.383479
	H92	H	0.087563	0.619328	0.912537
	H93	H	0.080385	0.391004	0.096026
	H94	H	0.904291	0.619724	0.087182
	H95	H	0.905535	0.390543	0.913331
	H96	H	0.405440	0.119649	0.589511
	H97	H	0.588368	0.886980	0.599040
	H98	H	0.605298	0.122739	0.416193
	H99	H	0.405044	0.890767	0.417714
	H100	H	0.595672	0.412501	0.117602
	H101	H	0.588798	0.603418	0.883956
	H102	H	0.408572	0.586163	0.112874
	H103	H	0.415167	0.409760	0.888609
	H104	H	0.113782	0.597405	0.406883
	H105	H	0.884057	0.589171	0.592220
	H106	H	0.114088	0.404572	0.584621
	H107	H	0.882032	0.422400	0.402459
	H108	H	0.899586	0.624288	0.096456
	H109	H	0.094459	0.388940	0.085490
	H110	H	0.096702	0.622534	0.908284
	H111	H	0.900519	0.386546	0.905165
	H112	H	0.087120	0.904023	0.619024
	H113	H	0.095932	0.098375	0.383698
	H114	H	0.901241	0.098170	0.617414
	H115	H	0.906463	0.915680	0.386158
	H116	H	0.616031	0.098904	0.904892
	H117	H	0.379939	0.089508	0.104255
	H118	H	0.613109	0.912364	0.089522
	H119	H	0.380523	0.908991	0.909680
	C120	C	0.376679	0.012609	0.622215
	C121	C	0.619386	0.996347	0.622396
	C122	C	0.619133	0.012869	0.379510
	C123	C	0.376359	0.996276	0.378932
	C124	C	0.619403	0.382208	0.009125
	C125	C	0.619172	0.626274	0.992820
	C126	C	0.375981	0.626122	0.009341
	C127	C	0.376009	0.382342	0.993081
	C128	C	0.005840	0.626954	0.378532
	C129	C	0.989760	0.626542	0.621801
	C130	C	0.005963	0.384045	0.622489
	C131	C	0.989175	0.384582	0.379534
	C132	C	0.875922	0.513401	0.121901
	C133	C	0.118703	0.496501	0.122740
	C134	C	0.119260	0.512629	0.879393
	C135	C	0.876286	0.496640	0.878836
	C136	C	0.119218	0.883303	0.509717
	C137	C	0.119553	0.126877	0.492781
	C138	C	0.875611	0.127062	0.508502
	C139	C	0.876387	0.883339	0.492654
	C140	C	0.506189	0.125486	0.879332
	C141	C	0.489484	0.125411	0.122335
	C142	C	0.506026	0.883092	0.122128
	C143	C	0.488896	0.882590	0.878751
	C144	C	0.378808	0.889516	0.677381
	C145	C	0.617866	0.119508	0.678177
	C146	C	0.617597	0.889419	0.324432
	C147	C	0.378653	0.119458	0.324153
	C148	C	0.674172	0.385004	0.886029
	C149	C	0.674352	0.623277	0.115601
	C150	C	0.320984	0.622812	0.886554
	C151	C	0.321893	0.385822	0.116645
	C152	C	0.882103	0.682053	0.381624
	C153	C	0.113276	0.681137	0.618728
	C154	C	0.882310	0.329148	0.619247
	C155	C	0.112997	0.328864	0.381938
	C156	C	0.882058	0.386019	0.677397
	C157	C	0.112948	0.624284	0.677098
	C158	C	0.882109	0.624835	0.323685
	C159	C	0.112634	0.385726	0.323864
	C160	C	0.378455	0.680741	0.886503
	C161	C	0.617116	0.681600	0.115526
	C162	C	0.616517	0.327095	0.886084
	C163	C	0.378640	0.327032	0.116012
	C164	C	0.674184	0.889476	0.382761
	C165	C	0.673721	0.120140	0.618834
	C166	C	0.321898	0.889293	0.619286
	C167	C	0.321845	0.119647	0.382888
	C168	C	0.877832	0.390420	0.177897
	C169	C	0.116720	0.619934	0.177178
	C170	C	0.117230	0.389707	0.824066
	C171	C	0.878572	0.620102	0.823918
	C172	C	0.174095	0.886448	0.386688
	C173	C	0.174441	0.124010	0.615866
	C174	C	0.820646	0.124072	0.385637
	C175	C	0.822039	0.886900	0.615823
	C176	C	0.382310	0.179894	0.882144
	C177	C	0.613082	0.179910	0.119445
	C178	C	0.382046	0.829008	0.118804
	C179	C	0.612987	0.827900	0.882169
	C180	C	0.382757	0.885437	0.177185
	C181	C	0.613066	0.122887	0.177178
	C182	C	0.382501	0.123224	0.824099
	C183	C	0.612986	0.885540	0.824854
	C184	C	0.878010	0.182442	0.385877
	C185	C	0.116649	0.182108	0.615561
	C186	C	0.117240	0.828689	0.386537
	C187	C	0.878564	0.827926	0.615349
	C188	C	0.173604	0.389036	0.883070
	C189	C	0.173707	0.619793	0.119447
	C190	C	0.821555	0.389761	0.118931
	C191	C	0.820949	0.619974	0.881407
	C192	C	0.399063	0.098667	0.600343
	C193	C	0.597235	0.910419	0.600753
	C194	C	0.596163	0.098688	0.401408
	C195	C	0.398460	0.910025	0.400341
	C196	C	0.597391	0.404020	0.094915
	C197	C	0.596571	0.604138	0.907016
	C198	C	0.398068	0.604718	0.095436
	C199	C	0.397740	0.404011	0.907535
	C200	C	0.092223	0.604890	0.400193
	C201	C	0.903220	0.604431	0.599752
	C202	C	0.092378	0.405945	0.600866
	C203	C	0.903148	0.406830	0.401343
	C204	C	0.898124	0.599317	0.099781
	C205	C	0.096728	0.410137	0.100981
	C206	C	0.097172	0.598933	0.901243
	C207	C	0.898700	0.410848	0.900811
	C208	C	0.097230	0.905045	0.595524
	C209	C	0.097750	0.105070	0.406959
	C210	C	0.897880	0.105191	0.594628
	C211	C	0.898323	0.905167	0.406694
	C212	C	0.592351	0.103227	0.901364
	C213	C	0.402776	0.103459	0.100593
	C214	C	0.592531	0.904962	0.100122
	C215	C	0.402681	0.904691	0.900507
	Zn216	Zn	0.497835	0.004429	0.750847
	Zn217	Zn	0.498509	0.004054	0.250744
	Zn218	Zn	0.747682	0.504465	0.000247
	Zn219	Zn	0.247298	0.504382	0.001717
	Zn220	Zn	-0.001876	0.754844	0.500238
	Zn221	Zn	-0.002554	0.256125	0.500541
	Zn222	Zn	-0.002529	0.505009	0.750462
	Zn223	Zn	-0.002246	0.505753	0.250457
	Zn224	Zn	0.497569	0.755152	0.001024
	Zn225	Zn	0.497466	0.253379	0.000903
	Zn226	Zn	0.747711	0.005033	0.500503
	Zn227	Zn	0.247834	0.004189	0.501582
	N228	N	0.412249	0.967152	0.679147
	N229	N	0.584681	0.041659	0.680441
	N230	N	0.584006	0.967271	0.322166
	N231	N	0.412091	0.041889	0.321825
	N232	N	0.675827	0.418744	0.963267
	N233	N	0.675456	0.589311	0.038227
	N234	N	0.319445	0.589336	0.963991
	N235	N	0.319949	0.419435	0.039316
	N236	N	0.960016	0.683284	0.415035
	N237	N	0.035516	0.682351	0.584927
	N238	N	0.960264	0.327546	0.586172
	N239	N	0.035529	0.328176	0.416102
	N240	N	0.960043	0.419535	0.679285
	N241	N	0.035070	0.590969	0.679006
	N242	N	0.960047	0.591305	0.321560
	N243	N	0.034755	0.419448	0.321934
	N244	N	0.411807	0.682830	0.963876
	N245	N	0.583510	0.683353	0.038128
	N246	N	0.583063	0.325264	0.963496
	N247	N	0.411611	0.324819	0.038357
	N248	N	0.675140	0.966981	0.416260
	N249	N	0.675012	0.042666	0.584999
	N250	N	0.320583	0.966864	0.585622
	N251	N	0.320103	0.041853	0.416083
	N252	N	0.910947	0.468262	0.179929
	N253	N	0.083044	0.542245	0.179063
	N254	N	0.084252	0.467686	0.821648
	N255	N	0.912197	0.542446	0.822186
	N256	N	0.175485	0.919856	0.464156
	N257	N	0.176389	0.090582	0.538518
	N258	N	0.819127	0.090544	0.463033
	N259	N	0.820497	0.920456	0.538427
	N260	N	0.460024	0.181313	0.915819
	N261	N	0.535240	0.181454	0.085934
	N262	N	0.459746	0.827766	0.085068
	N263	N	0.534851	0.825945	0.914925
	N264	N	0.460867	0.918348	0.179366
	N265	N	0.535000	0.089685	0.178995
	N266	N	0.460743	0.090253	0.821891
	N267	N	0.534824	0.918754	0.822392
	N268	N	0.911517	0.184226	0.463403
	N269	N	0.083121	0.184026	0.538092
	N270	N	0.083883	0.826716	0.464037
	N271	N	0.911819	0.825742	0.537822
	N272	N	0.174934	0.466680	0.916812
	N273	N	0.175134	0.542010	0.086378
	N274	N	0.820540	0.467009	0.084760
	N275	N	0.819254	0.542327	0.914749
	O276	O	-0.047461	0.046955	0.997065
	H277	H	-0.039798	0.053306	0.999887
	H278	H	-0.042904	0.046191	1.002167
	O279	O	0.518273	0.473446	0.564041
	H280	H	0.513525	0.472800	0.563963
	H281	H	0.514335	0.478945	0.567132
	O282	O	0.561313	0.465057	0.548679
	H283	H	0.558079	0.472090	0.543378
	H284	H	0.560180	0.460930	0.558488
	O285	O	0.517073	0.484429	0.570205
	H286	H	0.520497	0.481912	0.571377
	H287	H	0.514869	0.484047	0.575954
	O288	O	0.942078	0.058105	-0.003345
	H289	H	0.934786	0.062309	0.000244
	H290	H	0.948300	0.055355	-0.005001
	O291	O	-0.010174	1.050011	0.964466
	H292	H	-0.019192	1.052065	0.969039
	H293	H	-0.017863	1.047321	0.955776
	O294	O	0.527340	0.461224	0.546546
	H295	H	0.531074	0.457347	0.546257
	H296	H	0.541275	0.454084	0.540752
	O297	O	1.003272	0.055862	-0.011280
	H298	H	1.004343	0.059005	-0.010710
	H299	H	1.007057	0.055716	-0.019033
