data_Molecule from HDF5

_cell_length_a		16.404939
_cell_length_b		16.318086
_cell_length_c		16.582763
_cell_angle_alpha	90.152098
_cell_angle_beta	89.959647
_cell_angle_gamma	89.958497
_symmetry_space_group_name_H-M	'P 1'
_symmetry_Int_Tables_number		1

loop_
	_symmetry_equiv_pos_as_xyz
	x,y,z

loop_
	_atom_site_label
	_atom_site_type_symbol
	_atom_site_fract_x
	_atom_site_fract_y
	_atom_site_fract_z
	H0	H	0.394663	0.842053	0.728910
	H1	H	0.608218	0.159748	0.724677
	H2	H	0.612511	0.842232	0.281844
	H3	H	0.398033	0.159199	0.284665
	H4	H	0.726837	0.393538	0.848070
	H5	H	0.726249	0.606246	0.160896
	H6	H	0.282618	0.607011	0.846327
	H7	H	0.282192	0.399078	0.161799
	H8	H	0.845815	0.721037	0.399776
	H9	H	0.164368	0.717998	0.606595
	H10	H	0.844620	0.282145	0.602844
	H11	H	0.165224	0.282240	0.400294
	H12	H	0.847261	0.391420	0.725489
	H13	H	0.161884	0.607509	0.726692
	H14	H	0.846461	0.608112	0.281281
	H15	H	0.163657	0.396386	0.282348
	H16	H	0.398946	0.723195	0.847090
	H17	H	0.607052	0.720003	0.162656
	H18	H	0.607741	0.278276	0.848289
	H19	H	0.400868	0.284373	0.163828
	H20	H	0.724044	0.839239	0.401948
	H21	H	0.723653	0.159625	0.608501
	H22	H	0.283925	0.840460	0.609706
	H23	H	0.286009	0.160174	0.402864
	H24	H	0.897076	0.343244	0.224791
	H25	H	0.111127	0.659153	0.226384
	H26	H	0.109732	0.341504	0.782576
	H27	H	0.897668	0.659358	0.780975
	H28	H	0.228762	0.893117	0.347837
	H29	H	0.225868	0.105282	0.662084
	H30	H	0.783491	0.102603	0.348241
	H31	H	0.783024	0.892563	0.661492
	H32	H	0.343716	0.219083	0.903739
	H33	H	0.662918	0.219030	0.105231
	H34	H	0.345131	0.780869	0.109053
	H35	H	0.664169	0.781929	0.902079
	H36	H	0.346867	0.894551	0.227319
	H37	H	0.662721	0.106268	0.225679
	H38	H	0.345724	0.107174	0.783959
	H39	H	0.661579	0.893221	0.782633
	H40	H	0.903227	0.215586	0.345374
	H41	H	0.108981	0.222357	0.660927
	H42	H	0.108634	0.779973	0.345702
	H43	H	0.900441	0.777352	0.660859
	H44	H	0.224393	0.341273	0.899057
	H45	H	0.222814	0.661544	0.107968
	H46	H	0.786645	0.341321	0.103817
	H47	H	0.783523	0.660706	0.898099
	H48	H	0.410610	0.117727	0.599646
	H49	H	0.593673	0.887264	0.589272
	H50	H	0.596614	0.114580	0.415717
	H51	H	0.413579	0.885302	0.416505
	H52	H	0.592852	0.415007	0.115244
	H53	H	0.585950	0.590782	0.894002
	H54	H	0.413853	0.589673	0.115429
	H55	H	0.413409	0.403361	0.890485
	H56	H	0.114747	0.580719	0.413742
	H57	H	0.891555	0.586873	0.592506
	H58	H	0.118490	0.413034	0.593149
	H59	H	0.890022	0.410985	0.409150
	H60	H	0.118447	0.411437	0.593623
	H61	H	0.891858	0.587595	0.591751
	H62	H	0.120821	0.588868	0.406326
	H63	H	0.889530	0.406712	0.411531
	H64	H	0.414340	0.592412	0.116739
	H65	H	0.596669	0.595588	0.888694
	H66	H	0.592744	0.408607	0.117727
	H67	H	0.406910	0.414806	0.891230
	H68	H	0.593036	0.114532	0.413181
	H69	H	0.597411	0.883300	0.598897
	H70	H	0.422111	0.112731	0.599740
	H71	H	0.421027	0.885612	0.411813
	H72	H	0.916391	0.613543	0.086776
	H73	H	0.090645	0.387963	0.091578
	H74	H	0.092759	0.612468	0.922285
	H75	H	0.917888	0.388180	0.914735
	H76	H	0.096217	0.914083	0.615784
	H77	H	0.091974	0.092836	0.391630
	H78	H	0.917079	0.091343	0.616364
	H79	H	0.919919	0.910811	0.394310
	H80	H	0.617011	0.090036	0.915871
	H81	H	0.390482	0.086917	0.097510
	H82	H	0.619511	0.914097	0.099636
	H83	H	0.393500	0.912124	0.922958
	H84	H	0.619223	0.907001	0.091609
	H85	H	0.387520	0.092254	0.100559
	H86	H	0.616344	0.087834	0.915877
	H87	H	0.392024	0.919463	0.913058
	H88	H	0.913376	0.092211	0.618849
	H89	H	0.101354	0.090694	0.389623
	H90	H	0.090298	0.910325	0.614319
	H91	H	0.913369	0.906522	0.390164
	H92	H	0.099515	0.618969	0.908615
	H93	H	0.092723	0.387702	0.090901
	H94	H	0.911524	0.617183	0.095668
	H95	H	0.914359	0.387208	0.914325
	H96	H	0.415363	0.111965	0.589218
	H97	H	0.586581	0.886610	0.597722
	H98	H	0.593002	0.112803	0.417255
	H99	H	0.420941	0.888795	0.420011
	H100	H	0.598840	0.412140	0.117687
	H101	H	0.596340	0.583616	0.892653
	H102	H	0.411212	0.590555	0.116782
	H103	H	0.419628	0.413848	0.894801
	H104	H	0.117578	0.592487	0.417807
	H105	H	0.892178	0.586575	0.591580
	H106	H	0.118140	0.411957	0.592345
	H107	H	0.891864	0.410831	0.413599
	H108	H	0.922038	0.615094	0.095940
	H109	H	0.092241	0.387213	0.092827
	H110	H	0.083554	0.614064	0.908978
	H111	H	0.916169	0.386050	0.911898
	H112	H	0.095447	0.907244	0.617379
	H113	H	0.095655	0.083572	0.393660
	H114	H	0.913563	0.088360	0.616741
	H115	H	0.911811	0.914670	0.392386
	H116	H	0.617946	0.088316	0.914240
	H117	H	0.390155	0.092613	0.094182
	H118	H	0.614348	0.917075	0.090320
	H119	H	0.387757	0.908262	0.912870
	C120	C	0.383170	0.008835	0.627414
	C121	C	0.624795	0.991274	0.626595
	C122	C	0.626610	0.008443	0.383620
	C123	C	0.385356	0.991876	0.384770
	C124	C	0.625862	0.379121	0.013163
	C125	C	0.625607	0.622266	0.995732
	C126	C	0.381431	0.623373	0.012357
	C127	C	0.381329	0.379391	0.996214
	C128	C	0.012937	0.621039	0.381388
	C129	C	0.996457	0.619927	0.624208
	C130	C	0.013491	0.379372	0.624022
	C131	C	0.995924	0.378366	0.380330
	C132	C	0.883984	0.510056	0.123940
	C133	C	0.124579	0.492770	0.124036
	C134	C	0.124563	0.509445	0.882045
	C135	C	0.883060	0.492118	0.881448
	C136	C	0.127063	0.877963	0.512330
	C137	C	0.127193	0.121416	0.495580
	C138	C	0.883505	0.121156	0.513308
	C139	C	0.882734	0.877330	0.495894
	C140	C	0.512108	0.121435	0.884052
	C141	C	0.494621	0.122481	0.127572
	C142	C	0.513053	0.880015	0.126228
	C143	C	0.495486	0.879669	0.883617
	C144	C	0.378863	0.889446	0.687841
	C145	C	0.626860	0.111616	0.685531
	C146	C	0.629761	0.889175	0.322810
	C147	C	0.381221	0.111470	0.324828
	C148	C	0.685850	0.375870	0.895013
	C149	C	0.685813	0.624570	0.113688
	C150	C	0.321998	0.625414	0.894013
	C151	C	0.322152	0.379823	0.114788
	C152	C	0.893644	0.681799	0.380284
	C153	C	0.116236	0.679024	0.625403
	C154	C	0.893078	0.320662	0.623208
	C155	C	0.116726	0.320638	0.380445
	C156	C	0.894228	0.375160	0.684110
	C157	C	0.114899	0.623923	0.685301
	C158	C	0.893762	0.625163	0.321598
	C159	C	0.115942	0.377431	0.321712
	C160	C	0.380123	0.683273	0.894096
	C161	C	0.626231	0.680959	0.114918
	C162	C	0.626948	0.318356	0.895070
	C163	C	0.381243	0.322776	0.115840
	C164	C	0.685206	0.887867	0.382619
	C165	C	0.684267	0.111468	0.627526
	C166	C	0.323451	0.888387	0.628508
	C167	C	0.325305	0.112001	0.383807
	C168	C	0.879934	0.390546	0.183996
	C169	C	0.127940	0.611980	0.185276
	C170	C	0.127209	0.389076	0.822583
	C171	C	0.879774	0.611689	0.821068
	C172	C	0.187933	0.875312	0.394559
	C173	C	0.185979	0.123677	0.614613
	C174	C	0.823755	0.121661	0.394880
	C175	C	0.822732	0.874598	0.614162
	C176	C	0.392051	0.180479	0.883655
	C177	C	0.615383	0.180431	0.125951
	C178	C	0.393114	0.820608	0.127654
	C179	C	0.615576	0.820248	0.882517
	C180	C	0.393984	0.876973	0.186781
	C181	C	0.615112	0.124578	0.185652
	C182	C	0.392916	0.124799	0.824019
	C183	C	0.614380	0.875870	0.823137
	C184	C	0.883217	0.177984	0.393689
	C185	C	0.128097	0.182147	0.613939
	C186	C	0.128516	0.818613	0.393589
	C187	C	0.881212	0.817148	0.613848
	C188	C	0.184425	0.389262	0.880496
	C189	C	0.183712	0.613051	0.126295
	C190	C	0.824965	0.389465	0.124006
	C191	C	0.822921	0.612459	0.879480
	C192	C	0.408510	0.092316	0.603105
	C193	C	0.599790	0.907500	0.602446
	C194	C	0.601476	0.092302	0.408394
	C195	C	0.411217	0.908277	0.409096
	C196	C	0.601657	0.404572	0.095532
	C197	C	0.600199	0.597313	0.913159
	C198	C	0.406080	0.598287	0.094872
	C199	C	0.406264	0.403494	0.913545
	C200	C	0.096049	0.595019	0.405879
	C201	C	0.913289	0.594404	0.599116
	C202	C	0.096752	0.404816	0.600123
	C203	C	0.912338	0.402488	0.404429
	C204	C	0.909500	0.593660	0.099738
	C205	C	0.099069	0.409308	0.098806
	C206	C	0.099186	0.593161	0.906417
	C207	C	0.908554	0.408816	0.906340
	C208	C	0.101544	0.903386	0.594367
	C209	C	0.103296	0.096162	0.413173
	C210	C	0.907567	0.097469	0.595977
	C211	C	0.907812	0.903085	0.413753
	C212	C	0.595453	0.096044	0.908417
	C213	C	0.411180	0.097754	0.104301
	C214	C	0.596171	0.905493	0.101143
	C215	C	0.412709	0.905615	0.908961
	Zn216	Zn	0.503527	0.000467	0.755715
	Zn217	Zn	0.505346	0.000401	0.255653
	Zn218	Zn	0.755475	0.501226	0.003275
	Zn219	Zn	0.252486	0.501433	0.003445
	Zn220	Zn	0.005430	0.748915	0.503759
	Zn221	Zn	0.005356	0.250646	0.502813
	Zn222	Zn	0.004214	0.499938	0.753106
	Zn223	Zn	0.004318	0.500583	0.252424
	Zn224	Zn	0.503959	0.751777	0.004422
	Zn225	Zn	0.502980	0.249996	0.005413
	Zn226	Zn	0.754049	-0.000363	0.505804
	Zn227	Zn	0.256730	-0.000320	0.504868
	N228	N	0.415329	0.965344	0.687380
	N229	N	0.590522	0.035912	0.684998
	N230	N	0.594101	0.965229	0.323415
	N231	N	0.417941	0.035714	0.325470
	N232	N	0.685239	0.413112	0.969258
	N233	N	0.685448	0.588837	0.038567
	N234	N	0.322495	0.589327	0.968745
	N235	N	0.321933	0.413918	0.039197
	N236	N	0.968755	0.679394	0.416907
	N237	N	0.041382	0.676834	0.588195
	N238	N	0.968336	0.322931	0.586720
	N239	N	0.041038	0.320759	0.415886
	N240	N	0.970181	0.410769	0.684878
	N241	N	0.039267	0.587972	0.684731
	N242	N	0.969043	0.588243	0.322241
	N243	N	0.039557	0.412191	0.321116
	N244	N	0.416355	0.682266	0.968888
	N245	N	0.589635	0.679827	0.040345
	N246	N	0.590379	0.320360	0.969527
	N247	N	0.417119	0.322152	0.040928
	N248	N	0.683304	0.963152	0.419837
	N249	N	0.683250	0.035509	0.591662
	N250	N	0.325971	0.963552	0.591586
	N251	N	0.327810	0.036615	0.420460
	N252	N	0.915847	0.466527	0.184112
	N253	N	0.091632	0.535972	0.183905
	N254	N	0.090806	0.464992	0.823238
	N255	N	0.916210	0.535837	0.822030
	N256	N	0.187254	0.911343	0.469391
	N257	N	0.185705	0.086696	0.540111
	N258	N	0.823627	0.087000	0.470270
	N259	N	0.823476	0.911290	0.539657
	N260	N	0.467154	0.178729	0.920037
	N261	N	0.539618	0.179271	0.090688
	N262	N	0.468197	0.822235	0.090844
	N263	N	0.540560	0.822428	0.919469
	N264	N	0.469645	0.913095	0.185975
	N265	N	0.539103	0.089296	0.186954
	N266	N	0.468754	0.089044	0.823990
	N267	N	0.538603	0.911751	0.823445
	N268	N	0.919465	0.177989	0.468145
	N269	N	0.092281	0.180859	0.539067
	N270	N	0.091494	0.819945	0.467852
	N271	N	0.917510	0.818568	0.539320
	N272	N	0.183165	0.465074	0.916491
	N273	N	0.181564	0.538025	0.088623
	N274	N	0.827298	0.464957	0.087430
	N275	N	0.824698	0.537049	0.916181
	O276	O	-0.208619	0.058504	-0.205047
	H277	H	-0.219782	0.058442	-0.218372
	H278	H	-0.207971	0.053263	-0.208400
	O279	O	1.025937	-0.143601	0.983653
	H280	H	1.033192	-0.152978	0.981201
	H281	H	1.011545	-0.164375	0.976654
	O282	O	0.418433	0.498542	0.533742
	H283	H	0.419080	0.478350	0.533031
	H284	H	0.412317	0.505447	0.542078
	O285	O	0.688659	0.653061	0.692421
	H286	H	0.696565	0.674489	0.667626
	H287	H	0.651875	0.660940	0.701275
	O288	O	1.106583	1.048595	-0.147535
	H289	H	1.099508	1.067920	-0.156565
	H290	H	1.124341	1.056085	-0.148674
	O291	O	-0.080055	0.046837	0.185265
	H292	H	-0.089598	0.050880	0.187234
	H293	H	-0.089100	0.050465	0.164743
	O294	O	0.074403	0.209810	1.213277
	H295	H	0.085285	0.220454	1.239363
	H296	H	0.094227	0.207312	1.210264
	O297	O	0.313924	0.449523	0.381420
	H298	H	0.323669	0.468437	0.382782
	H299	H	0.300675	0.445505	0.365540
	O300	O	0.504301	0.699540	0.302025
	H301	H	0.503711	0.712795	0.283175
	H302	H	0.496115	0.683552	0.316077
	O303	O	0.558394	0.391782	0.714476
	H304	H	0.573063	0.394292	0.727247
	H305	H	0.567730	0.415689	0.720989
	O306	O	0.311942	0.500463	0.518461
	H307	H	0.309837	0.509475	0.526838
	H308	H	0.317150	0.507604	0.521149
	O309	O	0.686906	0.401956	0.301072
	H310	H	0.702334	0.393911	0.300155
	H311	H	0.682907	0.396086	0.291459
	O312	O	0.109842	0.804677	0.981717
	H313	H	0.107723	0.811074	0.985797
	H314	H	0.101017	0.797704	0.996952
	O315	O	0.634479	0.300554	0.526384
	H316	H	0.636623	0.297426	0.511411
	H317	H	0.634794	0.288166	0.519745
	O318	O	0.675008	0.699308	0.513020
	H319	H	0.701024	0.703950	0.508244
	H320	H	0.664318	0.706952	0.499721
	O321	O	0.139595	0.011517	0.160916
	H322	H	0.142562	-0.004798	0.139376
	H323	H	0.135221	0.002982	0.157948
	O324	O	0.320896	0.560668	0.359485
	H325	H	0.321502	0.556748	0.359351
	H326	H	0.338331	0.567203	0.368906
	O327	O	0.717110	0.547687	0.720748
	H328	H	0.713222	0.579803	0.718666
	H329	H	0.734724	0.564459	0.735900
	O330	O	0.201316	0.874808	-0.196654
	H331	H	0.209159	0.866098	-0.174341
	H332	H	0.210129	0.872871	-0.206299
	O333	O	0.934249	-0.031740	0.829417
	H334	H	0.931631	-0.036334	0.834529
	H335	H	0.946227	-0.024839	0.822188
	O336	O	0.063992	-0.029501	-0.065939
	H337	H	0.079175	-0.020644	-0.083832
	H338	H	0.066159	-0.030294	-0.062574
	O339	O	-0.138410	0.876152	1.093236
	H340	H	-0.139664	0.888951	1.114258
	H341	H	-0.161443	0.863842	1.101934
	O342	O	0.216426	1.170527	1.022265
	H343	H	0.211469	1.176035	1.027181
	H344	H	0.222685	1.173986	1.012596
	O345	O	0.825609	0.965017	0.001060
	H346	H	0.836363	0.956495	-0.002354
	H347	H	0.816425	0.957846	0.020375
	O348	O	0.499856	0.709131	0.666111
	H349	H	0.497710	0.729039	0.682135
	H350	H	0.489278	0.710950	0.643569
	O351	O	-0.011137	0.943344	1.058923
	H352	H	-0.011709	0.962239	1.057599
	H353	H	0.000876	0.958959	1.053900
	O354	O	0.040583	1.198075	0.033529
	H355	H	0.020717	1.198775	0.046656
	H356	H	0.028088	1.202579	0.058171
	O357	O	-0.063723	0.048026	1.149694
	H358	H	-0.074168	0.035876	1.165392
	H359	H	-0.067021	0.049569	1.147501
	O360	O	0.541722	0.490144	0.291824
	H361	H	0.551139	0.490974	0.287094
	H362	H	0.558800	0.469494	0.286510
	O363	O	-0.029904	-0.135533	0.813241
	H364	H	-0.015731	-0.140597	0.813211
	H365	H	-0.045114	-0.125029	0.805151
	O366	O	1.011684	0.921869	0.052382
	H367	H	1.004994	0.933863	0.057147
	H368	H	1.014410	0.927501	0.035930
	O369	O	0.653181	0.655277	0.386179
	H370	H	0.654894	0.636793	0.401298
	H371	H	0.654988	0.660839	0.390853
	O372	O	0.842611	0.201473	0.800886
	H373	H	0.836856	0.216202	0.801647
	H374	H	0.831987	0.189253	0.811177
	O375	O	0.713829	0.298126	0.403275
	H376	H	0.715199	0.289084	0.402694
	H377	H	0.714353	0.305521	0.383701
	O378	O	0.295198	0.494264	0.680128
	H379	H	0.298876	0.484492	0.690564
	H380	H	0.290692	0.496612	0.683417
	O381	O	1.353791	0.317600	0.684492
	H382	H	1.367926	0.324762	0.673730
	H383	H	1.354281	0.313114	0.688171
	O384	O	0.432938	0.638563	0.592822
	H385	H	0.433772	0.620714	0.591298
	H386	H	0.445156	0.636756	0.577912
	O387	O	-0.020304	0.211886	0.841985
	H388	H	-0.035212	0.214018	0.832441
	H389	H	-0.037125	0.225464	0.841501
	O390	O	-0.319014	-0.525883	-0.472390
	H391	H	-0.303946	-0.530258	-0.450343
	H392	H	-0.318104	-0.546903	-0.469583
	O393	O	0.820544	1.089293	1.153871
	H394	H	0.838776	1.080057	1.152908
	H395	H	0.821052	1.075582	1.155935
	O396	O	0.970445	0.060411	0.005387
	H397	H	0.976845	0.067152	0.002841
	H398	H	0.970874	0.067948	0.000792
	O399	O	0.806216	-0.156378	1.199473
	H400	H	0.807436	-0.163877	1.206325
	H401	H	0.823481	-0.161607	1.209996
	O402	O	1.037785	0.919833	0.966555
	H403	H	1.039878	0.929201	0.976288
	H404	H	1.046450	0.927366	0.975004
	O405	O	1.110225	1.150527	0.003221
	H406	H	1.099055	1.150509	-0.002075
	H407	H	1.097700	1.151048	0.017250
	O408	O	0.811608	0.200286	-0.021520
	H409	H	0.800558	0.195848	-0.015889
	H410	H	0.808919	0.198054	-0.028482
	O411	O	0.717328	1.517295	0.396990
	H412	H	0.725512	1.516921	0.398199
	H413	H	0.714704	1.511618	0.409421
	O414	O	0.435042	0.557675	0.708917
	H415	H	0.436134	0.557672	0.701886
	H416	H	0.429220	0.592386	0.710935
	O417	O	0.519312	0.652763	0.490993
	H418	H	0.527697	0.646203	0.479396
	H419	H	0.507792	0.646277	0.489441
	O420	O	0.205269	0.149486	0.200725
	H421	H	0.217014	0.147157	0.159489
	H422	H	0.221044	0.116924	0.207742
	O423	O	0.317090	0.719403	0.280553
	H424	H	0.322078	0.721895	0.281442
	H425	H	0.315679	0.698630	0.295421
	O426	O	0.590967	0.329774	0.339962
	H427	H	0.581414	0.322226	0.359499
	H428	H	0.575796	0.315913	0.338894
	O429	O	0.549870	0.441059	0.507386
	H430	H	0.564724	0.426998	0.527675
	H431	H	0.545433	0.430153	0.507698
	O432	O	0.487305	0.363056	0.405010
	H433	H	0.478547	0.358449	0.399451
	H434	H	0.479643	0.354936	0.421721
	O435	O	0.598454	0.416873	0.702645
	H436	H	0.587482	0.415089	0.702119
	H437	H	0.587824	0.430088	0.694143
	O438	O	0.482999	0.296833	-0.437368
	H439	H	0.463330	0.302128	-0.427443
	H440	H	0.461161	0.276792	-0.431417
	O441	O	0.948854	-0.195132	0.199755
	H442	H	0.969853	-0.179257	0.186390
	H443	H	0.952145	-0.209863	0.213542
	O444	O	0.154456	0.864531	1.027162
	H445	H	0.149051	0.854756	1.020792
	H446	H	0.154242	0.859502	1.013271
	O447	O	0.311236	0.647745	0.412887
	H448	H	0.333193	0.654867	0.410263
	H449	H	0.300884	0.653682	0.408739
	O450	O	0.141590	0.851592	0.815145
	H451	H	0.127775	0.843806	0.805202
	H452	H	0.135834	0.856812	0.833061
	O453	O	0.301759	0.304359	0.543817
	H454	H	0.285366	0.301363	0.538153
	H455	H	0.298642	0.314523	0.547391
