data_Molecule from HDF5

_cell_length_a		16.316554
_cell_length_b		16.100190
_cell_length_c		16.263728
_cell_angle_alpha	89.892434
_cell_angle_beta	89.800282
_cell_angle_gamma	89.399639
_symmetry_space_group_name_H-M	'P 1'
_symmetry_Int_Tables_number		1

loop_
	_symmetry_equiv_pos_as_xyz
	x,y,z

loop_
	_atom_site_label
	_atom_site_type_symbol
	_atom_site_fract_x
	_atom_site_fract_y
	_atom_site_fract_z
	H0	H	0.404332	0.830174	0.707404
	H1	H	0.598324	0.160815	0.704205
	H2	H	0.602255	0.830798	0.278367
	H3	H	0.401096	0.160714	0.278977
	H4	H	0.717843	0.394752	0.829764
	H5	H	0.713212	0.595081	0.155221
	H6	H	0.283112	0.598709	0.828918
	H7	H	0.284187	0.396806	0.155023
	H8	H	0.837412	0.711972	0.394475
	H9	H	0.166028	0.703487	0.587766
	H10	H	0.836848	0.281842	0.589133
	H11	H	0.164402	0.279621	0.394509
	H12	H	0.836677	0.396286	0.708952
	H13	H	0.163094	0.591081	0.706932
	H14	H	0.836391	0.595510	0.279175
	H15	H	0.161994	0.391546	0.273759
	H16	H	0.401137	0.712621	0.828938
	H17	H	0.592456	0.705724	0.157339
	H18	H	0.599927	0.281928	0.828169
	H19	H	0.403709	0.283257	0.156587
	H20	H	0.716954	0.831669	0.391607
	H21	H	0.713251	0.160261	0.590627
	H22	H	0.289478	0.829178	0.592419
	H23	H	0.285171	0.159225	0.392292
	H24	H	0.901037	0.330363	0.205817
	H25	H	0.094546	0.660656	0.204548
	H26	H	0.099464	0.330496	0.780282
	H27	H	0.899651	0.660773	0.778911
	H28	H	0.219982	0.891537	0.329057
	H29	H	0.215514	0.092886	0.654926
	H30	H	0.783703	0.098111	0.329077
	H31	H	0.785582	0.895062	0.654420
	H32	H	0.337512	0.211799	0.894118
	H33	H	0.664992	0.207889	0.088780
	H34	H	0.336195	0.786377	0.089841
	H35	H	0.664082	0.779576	0.894810
	H36	H	0.338523	0.898617	0.208871
	H37	H	0.664674	0.094681	0.206692
	H38	H	0.339840	0.100663	0.773322
	H39	H	0.664724	0.894121	0.776315
	H40	H	0.902305	0.210040	0.327105
	H41	H	0.096514	0.205308	0.656353
	H42	H	0.099952	0.780553	0.327204
	H43	H	0.907484	0.784319	0.657011
	H44	H	0.217498	0.333355	0.890519
	H45	H	0.209062	0.661282	0.089879
	H46	H	0.786469	0.331151	0.092290
	H47	H	0.785232	0.660966	0.894757
	H48	H	0.402517	0.114919	0.585038
	H49	H	0.593812	0.876661	0.583411
	H50	H	0.590660	0.114970	0.394559
	H51	H	0.422871	0.876084	0.384696
	H52	H	0.587480	0.397806	0.109220
	H53	H	0.589874	0.587286	0.876629
	H54	H	0.399952	0.599522	0.112360
	H55	H	0.413132	0.415068	0.879594
	H56	H	0.117972	0.590264	0.397481
	H57	H	0.886060	0.588930	0.579497
	H58	H	0.116071	0.405252	0.588371
	H59	H	0.888303	0.409911	0.406653
	H60	H	0.118810	0.396541	0.590399
	H61	H	0.884123	0.584315	0.590689
	H62	H	0.115009	0.582590	0.401840
	H63	H	0.881546	0.406358	0.389895
	H64	H	0.395548	0.584204	0.109617
	H65	H	0.593637	0.590146	0.874149
	H66	H	0.600870	0.400838	0.111284
	H67	H	0.413193	0.396197	0.874226
	H68	H	0.589224	0.112071	0.402672
	H69	H	0.596732	0.876739	0.583998
	H70	H	0.412562	0.111641	0.585637
	H71	H	0.418628	0.884236	0.416578
	H72	H	0.910616	0.611776	0.082353
	H73	H	0.090955	0.378337	0.081902
	H74	H	0.089085	0.614006	0.901185
	H75	H	0.896913	0.374649	0.903457
	H76	H	0.102363	0.896035	0.611257
	H77	H	0.097985	0.080338	0.374870
	H78	H	0.912974	0.080510	0.604374
	H79	H	0.900546	0.898105	0.369982
	H80	H	0.620317	0.095966	0.896441
	H81	H	0.385624	0.091929	0.080825
	H82	H	0.618964	0.897117	0.086156
	H83	H	0.388798	0.911539	0.905708
	H84	H	0.617156	0.901683	0.082720
	H85	H	0.385976	0.083104	0.087092
	H86	H	0.614898	0.083800	0.905916
	H87	H	0.383600	0.911153	0.890974
	H88	H	0.909061	0.096470	0.609978
	H89	H	0.090164	0.086924	0.375966
	H90	H	0.097966	0.904457	0.608063
	H91	H	0.907011	0.914196	0.377756
	H92	H	0.093652	0.615679	0.898699
	H93	H	0.094979	0.377890	0.081436
	H94	H	0.898423	0.614772	0.081904
	H95	H	0.912049	0.374910	0.889184
	H96	H	0.406724	0.110799	0.576554
	H97	H	0.594602	0.876505	0.586336
	H98	H	0.596732	0.115464	0.400035
	H99	H	0.393540	0.871144	0.399442
	H100	H	0.592036	0.410331	0.106290
	H101	H	0.594710	0.585237	0.874804
	H102	H	0.409930	0.588246	0.106821
	H103	H	0.397045	0.406766	0.872128
	H104	H	0.117057	0.582264	0.393247
	H105	H	0.881176	0.596213	0.588426
	H106	H	0.115621	0.397915	0.581341
	H107	H	0.881592	0.392919	0.401903
	H108	H	0.903614	0.616778	0.092586
	H109	H	0.093335	0.376833	0.084686
	H110	H	0.089634	0.615071	0.895392
	H111	H	0.916252	0.382676	0.908523
	H112	H	0.092677	0.895478	0.608453
	H113	H	0.098408	0.089772	0.372797
	H114	H	0.897001	0.084651	0.610012
	H115	H	0.919396	0.898881	0.376105
	H116	H	0.617734	0.081598	0.890835
	H117	H	0.382894	0.093369	0.091084
	H118	H	0.618002	0.902522	0.088333
	H119	H	0.382564	0.897975	0.899954
	C120	C	0.379685	0.003773	0.612834
	C121	C	0.622411	0.986631	0.612583
	C122	C	0.622292	0.004880	0.370398
	C123	C	0.380899	0.986106	0.371146
	C124	C	0.622673	0.373702	0.000951
	C125	C	0.620018	0.616457	0.983427
	C126	C	0.374926	0.620120	0.001304
	C127	C	0.379060	0.376138	0.983730
	C128	C	0.008822	0.616224	0.369932
	C129	C	0.992138	0.616380	0.613919
	C130	C	0.008949	0.372076	0.615220
	C131	C	0.991540	0.372619	0.370050
	C132	C	0.876665	0.504831	0.114130
	C133	C	0.119820	0.486996	0.111928
	C134	C	0.120985	0.505655	0.870148
	C135	C	0.878539	0.486672	0.871622
	C136	C	0.125938	0.870369	0.500808
	C137	C	0.122397	0.114138	0.483159
	C138	C	0.878164	0.117192	0.499850
	C139	C	0.880727	0.874675	0.483012
	C140	C	0.510109	0.118052	0.869260
	C141	C	0.492918	0.117617	0.114122
	C142	C	0.509532	0.873977	0.114500
	C143	C	0.492613	0.875219	0.870355
	C144	C	0.383405	0.879433	0.669406
	C145	C	0.618960	0.111208	0.666989
	C146	C	0.621721	0.880489	0.315646
	C147	C	0.381292	0.110909	0.316169
	C148	C	0.679279	0.374835	0.878368
	C149	C	0.674517	0.614292	0.106962
	C150	C	0.321030	0.618429	0.877848
	C151	C	0.323038	0.377108	0.106477
	C152	C	0.886174	0.673630	0.373584
	C153	C	0.116375	0.667645	0.609384
	C154	C	0.885676	0.318437	0.611535
	C155	C	0.115243	0.317478	0.373376
	C156	C	0.885659	0.375213	0.670687
	C157	C	0.114880	0.611727	0.668514
	C158	C	0.885595	0.615600	0.316327
	C159	C	0.113976	0.372857	0.313348
	C160	C	0.379505	0.675161	0.877760
	C161	C	0.614595	0.669356	0.107974
	C162	C	0.620567	0.319014	0.877506
	C163	C	0.382294	0.320562	0.107068
	C164	C	0.678836	0.880920	0.372094
	C165	C	0.676295	0.110803	0.610544
	C166	C	0.326603	0.878879	0.611932
	C167	C	0.323640	0.110125	0.372603
	C168	C	0.880505	0.380019	0.168532
	C169	C	0.115693	0.611386	0.166915
	C170	C	0.119682	0.380708	0.816693
	C171	C	0.879778	0.611202	0.816548
	C172	C	0.181788	0.871915	0.377700
	C173	C	0.176895	0.112250	0.606358
	C174	C	0.822479	0.116973	0.377188
	C175	C	0.824434	0.875603	0.605965
	C176	C	0.386938	0.174873	0.872285
	C177	C	0.615876	0.171702	0.110518
	C178	C	0.385835	0.822214	0.111346
	C179	C	0.615336	0.817729	0.873177
	C180	C	0.387008	0.878044	0.170510
	C181	C	0.615830	0.114806	0.168945
	C182	C	0.387740	0.118962	0.812985
	C183	C	0.615611	0.874914	0.814624
	C184	C	0.881597	0.172574	0.376450
	C185	C	0.118098	0.168566	0.606822
	C186	C	0.122253	0.816592	0.376701
	C187	C	0.885263	0.820984	0.607583
	C188	C	0.178369	0.382133	0.871412
	C189	C	0.172562	0.611680	0.109964
	C190	C	0.823148	0.380389	0.112212
	C191	C	0.822955	0.611427	0.874166
	C192	C	0.400938	0.090146	0.589577
	C193	C	0.601559	0.899217	0.590790
	C194	C	0.598956	0.091804	0.392486
	C195	C	0.404680	0.899537	0.393595
	C196	C	0.599994	0.396397	0.086791
	C197	C	0.599036	0.594159	0.897496
	C198	C	0.395690	0.597523	0.087219
	C199	C	0.401345	0.399215	0.897617
	C200	C	0.094656	0.591998	0.391230
	C201	C	0.906066	0.596092	0.592538
	C202	C	0.094473	0.393545	0.593234
	C203	C	0.906099	0.396080	0.392728
	C204	C	0.897948	0.591798	0.092080
	C205	C	0.099121	0.400227	0.089383
	C206	C	0.097621	0.592451	0.892085
	C207	C	0.901598	0.399582	0.893973
	C208	C	0.104090	0.892093	0.586996
	C209	C	0.101585	0.092173	0.396632
	C210	C	0.899871	0.093889	0.585867
	C211	C	0.902586	0.896856	0.396963
	C212	C	0.595330	0.094261	0.891229
	C213	C	0.406978	0.095906	0.092620
	C214	C	0.595774	0.894334	0.092343
	C215	C	0.407097	0.899746	0.892511
	Zn216	Zn	0.501554	-0.003870	0.740166
	Zn217	Zn	0.501453	-0.004207	0.243286
	Zn218	Zn	0.750138	0.495485	-0.007412
	Zn219	Zn	0.248029	0.496878	-0.008480
	Zn220	Zn	0.002144	0.744983	0.491863
	Zn221	Zn	0.000591	0.243891	0.491553
	Zn222	Zn	-0.000589	0.495321	0.743620
	Zn223	Zn	-0.000917	0.494608	0.240215
	Zn224	Zn	0.499231	0.746117	-0.007262
	Zn225	Zn	0.501124	0.246140	-0.008246
	Zn226	Zn	0.749785	-0.004383	0.491175
	Zn227	Zn	0.252133	-0.006463	0.491695
	N228	N	0.415894	0.958086	0.669997
	N229	N	0.586375	0.032866	0.668541
	N230	N	0.587163	0.958792	0.314518
	N231	N	0.416201	0.032831	0.315106
	N232	N	0.680882	0.408014	0.956176
	N233	N	0.678065	0.582145	0.028610
	N234	N	0.317801	0.584938	0.955589
	N235	N	0.320990	0.410916	0.028676
	N236	N	0.963925	0.674046	0.406224
	N237	N	0.038945	0.670652	0.576066
	N238	N	0.963161	0.315993	0.577960
	N239	N	0.038221	0.317401	0.408001
	N240	N	0.963287	0.407624	0.673317
	N241	N	0.036674	0.580637	0.671293
	N242	N	0.962859	0.580536	0.313934
	N243	N	0.036093	0.406485	0.311121
	N244	N	0.411979	0.676537	0.955485
	N245	N	0.581159	0.670558	0.030408
	N246	N	0.585975	0.318255	0.954774
	N247	N	0.416510	0.320019	0.029604
	N248	N	0.679350	0.959228	0.405575
	N249	N	0.678409	0.032090	0.577376
	N250	N	0.324169	0.956934	0.577424
	N251	N	0.323253	0.031589	0.406081
	N252	N	0.913195	0.458315	0.169822
	N253	N	0.083585	0.532779	0.168295
	N254	N	0.084615	0.458711	0.815727
	N255	N	0.913555	0.532535	0.814986
	N256	N	0.184093	0.904614	0.455743
	N257	N	0.179913	0.079460	0.528312
	N258	N	0.820255	0.083201	0.454907
	N259	N	0.821586	0.908484	0.527810
	N260	N	0.463813	0.174429	0.906619
	N261	N	0.538482	0.173434	0.077088
	N262	N	0.462988	0.819680	0.077313
	N263	N	0.537841	0.817840	0.907021
	N264	N	0.465063	0.909493	0.172557
	N265	N	0.538253	0.082094	0.171576
	N266	N	0.465177	0.084368	0.810798
	N267	N	0.538251	0.909892	0.812722
	N268	N	0.915621	0.172718	0.453824
	N269	N	0.084738	0.169829	0.529218
	N270	N	0.088147	0.815490	0.454161
	N271	N	0.919517	0.820151	0.530144
	N272	N	0.179375	0.460886	0.903908
	N273	N	0.175415	0.533268	0.076453
	N274	N	0.820618	0.459081	0.079123
	N275	N	0.822169	0.532857	0.907759
	O276	O	1.035314	1.027469	-0.023993
	H277	H	1.031918	1.028998	-0.028065
	H278	H	1.033051	1.022389	-0.018635
	O279	O	0.484974	-0.520976	1.469814
	H280	H	0.486616	-0.519835	1.465897
	H281	H	0.479298	-0.524870	1.467383
	O282	O	-0.024358	0.084112	0.000126
	H283	H	-0.020074	0.078820	-0.005926
	H284	H	-0.026477	0.085397	0.005794
	O285	O	0.547632	0.542989	0.529802
	H286	H	0.557664	0.547910	0.535617
	H287	H	0.551865	0.535227	0.527796
	O288	O	0.037304	-0.020641	-0.009023
	H289	H	0.044904	-0.016693	-0.012149
	H290	H	0.039614	-0.021058	-0.020244
	O291	O	0.024039	1.104666	-0.053512
	H292	H	0.022831	1.104439	-0.054605
	H293	H	0.026928	1.120185	-0.055148
	O294	O	0.277977	1.325864	-0.329579
	H295	H	0.272704	1.333124	-0.322416
	H296	H	0.274288	1.331349	-0.334970
	O297	O	0.451128	0.493603	0.511551
	H298	H	0.440402	0.490146	0.504675
	H299	H	0.443080	0.492710	0.516129
	O300	O	0.504752	0.516262	0.478930
	H301	H	0.510575	0.515758	0.478099
	H302	H	0.504769	0.504451	0.479847
	O303	O	1.035083	-0.023015	1.013583
	H304	H	1.037086	-0.028286	1.008722
	H305	H	1.042221	-0.024412	1.006617
	O306	O	0.047394	1.019178	0.958310
	H307	H	0.049790	1.022372	0.964053
	H308	H	0.046813	1.014894	0.962777
	O309	O	0.024109	1.035440	0.909575
	H310	H	0.033357	1.034521	0.900682
	H311	H	0.022184	1.040293	0.905821
	O312	O	0.074507	0.019420	0.970743
	H313	H	0.082656	0.019765	0.967228
	H314	H	0.072479	0.017416	0.975918
	O315	O	0.560830	0.447551	0.543537
	H316	H	0.561940	0.454261	0.539560
	H317	H	0.543943	0.445265	0.548676
	O318	O	0.006169	-0.088309	0.967452
	H319	H	0.008113	-0.094808	0.967344
	H320	H	0.001213	-0.076039	0.971510
	O321	O	0.041263	1.090103	1.030488
	H322	H	0.030390	1.092536	1.024728
	H323	H	0.035566	1.093386	1.038342
	O324	O	1.032009	0.007445	0.906536
	H325	H	1.031571	0.023590	0.909414
	H326	H	1.035219	0.003332	0.898589
	O327	O	0.942739	0.984243	0.958584
	H328	H	0.937083	0.968309	0.953635
	H329	H	0.939650	0.980380	0.960180
	O330	O	0.450396	0.470464	0.511316
	H331	H	0.453784	0.471850	0.519413
	H332	H	0.435564	0.485568	0.510836
	O333	O	0.572898	0.426382	0.531467
	H334	H	0.573718	0.422756	0.530158
	H335	H	0.572016	0.424449	0.523066
	O336	O	0.484167	0.448804	0.481303
	H337	H	0.488578	0.456911	0.483732
	H338	H	0.491822	0.453189	0.478210
	O339	O	0.456005	0.509444	0.503419
	H340	H	0.464378	0.497675	0.500555
	H341	H	0.455781	0.504226	0.504367
	O342	O	0.444452	0.469920	0.426011
	H343	H	0.435853	0.473030	0.420080
	H344	H	0.449810	0.460183	0.424572
	O345	O	0.443051	0.487694	0.527728
	H346	H	0.449160	0.484946	0.533127
	H347	H	0.448349	0.488414	0.525245
