data_Molecule from HDF5

_cell_length_a		16.415209
_cell_length_b		15.991845
_cell_length_c		16.422196
_cell_angle_alpha	90.168775
_cell_angle_beta	90.196477
_cell_angle_gamma	89.761913
_symmetry_space_group_name_H-M	'P 1'
_symmetry_Int_Tables_number		1

loop_
	_symmetry_equiv_pos_as_xyz
	x,y,z

loop_
	_atom_site_label
	_atom_site_type_symbol
	_atom_site_fract_x
	_atom_site_fract_y
	_atom_site_fract_z
	H0	H	0.405447	0.836887	0.703183
	H1	H	0.606167	0.166329	0.708026
	H2	H	0.605053	0.838302	0.274198
	H3	H	0.402297	0.168591	0.275935
	H4	H	0.723477	0.396273	0.827264
	H5	H	0.724537	0.605225	0.148455
	H6	H	0.285330	0.607753	0.827610
	H7	H	0.284520	0.398502	0.146940
	H8	H	0.841287	0.717295	0.388643
	H9	H	0.167774	0.712636	0.581588
	H10	H	0.840618	0.289089	0.583539
	H11	H	0.165668	0.285244	0.390268
	H12	H	0.844647	0.395265	0.707994
	H13	H	0.163920	0.607135	0.707487
	H14	H	0.843161	0.605754	0.267474
	H15	H	0.165034	0.397273	0.268261
	H16	H	0.408023	0.717002	0.826251
	H17	H	0.602441	0.715106	0.152338
	H18	H	0.603880	0.282960	0.827493
	H19	H	0.410824	0.292992	0.152969
	H20	H	0.720820	0.838410	0.387345
	H21	H	0.720878	0.166431	0.594233
	H22	H	0.291286	0.837247	0.587709
	H23	H	0.288366	0.168712	0.390826
	H24	H	0.905770	0.336780	0.199345
	H25	H	0.105206	0.667058	0.203058
	H26	H	0.106488	0.337089	0.770146
	H27	H	0.901717	0.667797	0.770160
	H28	H	0.223355	0.900032	0.327380
	H29	H	0.222604	0.108007	0.649818
	H30	H	0.779770	0.110054	0.330672
	H31	H	0.785631	0.896503	0.649018
	H32	H	0.341681	0.217083	0.893940
	H33	H	0.667590	0.216799	0.089976
	H34	H	0.341099	0.788534	0.086797
	H35	H	0.667142	0.787729	0.894579
	H36	H	0.343066	0.901285	0.208007
	H37	H	0.663647	0.108538	0.213387
	H38	H	0.344982	0.109010	0.770184
	H39	H	0.663530	0.894014	0.769297
	H40	H	0.904184	0.215978	0.326151
	H41	H	0.100541	0.219013	0.650854
	H42	H	0.100254	0.789499	0.323470
	H43	H	0.908846	0.787362	0.650653
	H44	H	0.222796	0.337374	0.884789
	H45	H	0.217933	0.668136	0.086127
	H46	H	0.792129	0.337382	0.086430
	H47	H	0.786389	0.667208	0.885094
	H48	H	0.421214	0.118210	0.580740
	H49	H	0.590093	0.886755	0.578886
	H50	H	0.589565	0.118087	0.402944
	H51	H	0.405414	0.882651	0.399253
	H52	H	0.603517	0.407439	0.104960
	H53	H	0.604541	0.596347	0.870250
	H54	H	0.409021	0.593453	0.103431
	H55	H	0.417411	0.407391	0.873118
	H56	H	0.120509	0.587667	0.382596
	H57	H	0.887164	0.601020	0.577384
	H58	H	0.120969	0.411356	0.587303
	H59	H	0.889762	0.412058	0.392816
	H60	H	0.117861	0.406858	0.573499
	H61	H	0.892671	0.587259	0.574220
	H62	H	0.122383	0.603035	0.391456
	H63	H	0.887864	0.412976	0.386281
	H64	H	0.410320	0.593682	0.103772
	H65	H	0.596190	0.583367	0.876671
	H66	H	0.603760	0.416565	0.102803
	H67	H	0.408169	0.409799	0.871467
	H68	H	0.593793	0.119274	0.405459
	H69	H	0.599304	0.884369	0.576659
	H70	H	0.405418	0.121423	0.575960
	H71	H	0.418369	0.884701	0.391280
	H72	H	0.920273	0.618281	0.074084
	H73	H	0.101174	0.386645	0.063621
	H74	H	0.093197	0.616991	0.900950
	H75	H	0.905316	0.382287	0.896307
	H76	H	0.097399	0.911276	0.601773
	H77	H	0.092581	0.099096	0.373042
	H78	H	0.912589	0.093265	0.603063
	H79	H	0.907090	0.909212	0.372178
	H80	H	0.620837	0.097011	0.898212
	H81	H	0.388412	0.101442	0.079857
	H82	H	0.621258	0.906333	0.089060
	H83	H	0.388712	0.903720	0.901099
	H84	H	0.618038	0.909961	0.079562
	H85	H	0.391674	0.088589	0.083319
	H86	H	0.617087	0.087792	0.904209
	H87	H	0.392783	0.919366	0.900517
	H88	H	0.910835	0.094465	0.604199
	H89	H	0.106007	0.090098	0.371968
	H90	H	0.099343	0.904615	0.604689
	H91	H	0.909026	0.918155	0.375795
	H92	H	0.098244	0.621103	0.895764
	H93	H	0.104935	0.378435	0.087555
	H94	H	0.906257	0.621655	0.073482
	H95	H	0.920818	0.384168	0.887445
	H96	H	0.410576	0.124550	0.591817
	H97	H	0.596160	0.882319	0.585870
	H98	H	0.593415	0.121040	0.401112
	H99	H	0.417501	0.888479	0.406762
	H100	H	0.595688	0.411025	0.102947
	H101	H	0.589274	0.598482	0.874745
	H102	H	0.409624	0.594255	0.104230
	H103	H	0.414189	0.417014	0.876006
	H104	H	0.115413	0.588626	0.400302
	H105	H	0.887638	0.590872	0.587342
	H106	H	0.114650	0.420900	0.576282
	H107	H	0.886705	0.406884	0.389133
	H108	H	0.913733	0.622716	0.085543
	H109	H	0.082701	0.387796	0.080004
	H110	H	0.090270	0.618700	0.893458
	H111	H	0.919205	0.389619	0.904856
	H112	H	0.104341	0.909677	0.604134
	H113	H	0.092489	0.083846	0.377699
	H114	H	0.910569	0.092403	0.602965
	H115	H	0.915726	0.911645	0.375102
	H116	H	0.618496	0.086881	0.893160
	H117	H	0.386823	0.097636	0.092469
	H118	H	0.617832	0.916825	0.087371
	H119	H	0.386127	0.912186	0.887411
	C120	C	0.383459	0.011861	0.611043
	C121	C	0.625501	0.993238	0.611836
	C122	C	0.623773	0.011680	0.371071
	C123	C	0.383292	0.994542	0.369439
	C124	C	0.628978	0.379576	-0.003121
	C125	C	0.626386	0.622956	0.980473
	C126	C	0.381819	0.624267	-0.003289
	C127	C	0.384004	0.382046	0.980271
	C128	C	0.012381	0.623813	0.363330
	C129	C	0.995588	0.623377	0.608911
	C130	C	0.011397	0.382013	0.608346
	C131	C	0.995293	0.379708	0.362686
	C132	C	0.884832	0.511117	0.106668
	C133	C	0.125902	0.493350	0.107420
	C134	C	0.125307	0.510432	0.866076
	C135	C	0.883467	0.494039	0.865839
	C136	C	0.128280	0.879243	0.496265
	C137	C	0.125748	0.123526	0.480627
	C138	C	0.880570	0.124236	0.497660
	C139	C	0.882148	0.881305	0.480538
	C140	C	0.512691	0.122929	0.869340
	C141	C	0.495797	0.125732	0.114308
	C142	C	0.512229	0.880856	0.113255
	C143	C	0.495815	0.880237	0.867622
	C144	C	0.385244	0.886792	0.665726
	C145	C	0.625198	0.116987	0.669655
	C146	C	0.624464	0.887753	0.312715
	C147	C	0.383259	0.119092	0.313731
	C148	C	0.684768	0.378018	0.875667
	C149	C	0.684471	0.623680	0.101117
	C150	C	0.325178	0.625422	0.875423
	C151	C	0.325443	0.380743	0.100226
	C152	C	0.890370	0.680101	0.366865
	C153	C	0.118422	0.677331	0.604485
	C154	C	0.889711	0.326005	0.605071
	C155	C	0.117389	0.323098	0.367769
	C156	C	0.891672	0.379101	0.667064
	C157	C	0.116270	0.624959	0.667184
	C158	C	0.891267	0.624462	0.306668
	C159	C	0.116608	0.378514	0.306977
	C160	C	0.385893	0.680038	0.874867
	C161	C	0.623525	0.678298	0.103081
	C162	C	0.625640	0.321334	0.875758
	C163	C	0.388033	0.328136	0.103089
	C164	C	0.681693	0.887515	0.369323
	C165	C	0.682500	0.117031	0.612996
	C166	C	0.328319	0.886858	0.608341
	C167	C	0.326565	0.119066	0.370999
	C168	C	0.886424	0.386493	0.161700
	C169	C	0.124705	0.617691	0.164472
	C170	C	0.126094	0.386516	0.808432
	C171	C	0.882429	0.618022	0.808430
	C172	C	0.184347	0.880171	0.375031
	C173	C	0.182448	0.125477	0.601952
	C174	C	0.820696	0.126715	0.377855
	C175	C	0.825284	0.879073	0.601209
	C176	C	0.390659	0.179811	0.872469
	C177	C	0.618080	0.180583	0.111339
	C178	C	0.390083	0.825816	0.108785
	C179	C	0.618064	0.824141	0.872078
	C180	C	0.391093	0.881594	0.169222
	C181	C	0.616449	0.126383	0.172697
	C182	C	0.392160	0.125901	0.810795
	C183	C	0.616264	0.877603	0.809996
	C184	C	0.882826	0.179441	0.375433
	C185	C	0.121978	0.180934	0.602316
	C186	C	0.123037	0.825490	0.373124
	C187	C	0.886610	0.824693	0.601848
	C188	C	0.183498	0.386589	0.865761
	C189	C	0.180986	0.618158	0.106313
	C190	C	0.829581	0.386817	0.105656
	C191	C	0.825032	0.617937	0.865727
	C192	C	0.405749	0.098929	0.589142
	C193	C	0.602077	0.906932	0.587439
	C194	C	0.599506	0.097161	0.396046
	C195	C	0.406947	0.907603	0.392450
	C196	C	0.607421	0.404324	0.081587
	C197	C	0.603330	0.599543	0.895835
	C198	C	0.403280	0.600757	0.081792
	C199	C	0.406533	0.404694	0.895606
	C200	C	0.097542	0.600103	0.385330
	C201	C	0.911280	0.599991	0.586237
	C202	C	0.095903	0.406022	0.585449
	C203	C	0.910296	0.403546	0.383343
	C204	C	0.906918	0.598261	0.084225
	C205	C	0.103262	0.406579	0.083760
	C206	C	0.101041	0.596577	0.889946
	C207	C	0.907992	0.407866	0.889462
	C208	C	0.106759	0.901718	0.581327
	C209	C	0.103663	0.098534	0.396324
	C210	C	0.904345	0.100426	0.581638
	C211	C	0.904003	0.905945	0.396252
	C212	C	0.596812	0.097905	0.891993
	C213	C	0.411002	0.102578	0.091818
	C214	C	0.597123	0.904207	0.091588
	C215	C	0.411121	0.904687	0.889892
	Zn216	Zn	0.504338	0.001935	0.738622
	Zn217	Zn	0.504006	0.003866	0.242935
	Zn218	Zn	0.756828	0.502593	-0.012551
	Zn219	Zn	0.253218	0.502288	-0.013263
	Zn220	Zn	0.004313	0.751921	0.486633
	Zn221	Zn	0.003071	0.252617	0.487812
	Zn222	Zn	0.004056	0.501942	0.738522
	Zn223	Zn	0.004289	0.501954	0.233556
	Zn224	Zn	0.504396	0.751843	-0.010063
	Zn225	Zn	0.504946	0.252591	-0.009783
	Zn226	Zn	0.752179	0.002645	0.490233
	Zn227	Zn	0.256281	0.002778	0.489438
	N228	N	0.418565	0.965529	0.667741
	N229	N	0.590577	0.038780	0.669165
	N230	N	0.589035	0.965694	0.313489
	N231	N	0.417747	0.040487	0.312764
	N232	N	0.687223	0.413080	0.952219
	N233	N	0.686268	0.590055	0.023919
	N234	N	0.322318	0.591821	0.952243
	N235	N	0.322953	0.413546	0.022963
	N236	N	0.966789	0.679795	0.401495
	N237	N	0.042495	0.676718	0.569077
	N238	N	0.965065	0.327984	0.568771
	N239	N	0.040953	0.323466	0.401699
	N240	N	0.968435	0.413117	0.669030
	N241	N	0.038926	0.592226	0.670426
	N242	N	0.968160	0.590091	0.304529
	N243	N	0.039682	0.412795	0.303682
	N244	N	0.420383	0.679530	0.951349
	N245	N	0.588180	0.678142	0.026966
	N246	N	0.591795	0.322045	0.952084
	N247	N	0.423803	0.328825	0.027442
	N248	N	0.681409	0.965373	0.404984
	N249	N	0.682920	0.038988	0.577800
	N250	N	0.326890	0.965689	0.575253
	N251	N	0.326485	0.040435	0.404784
	N252	N	0.920119	0.465013	0.162424
	N253	N	0.091298	0.539046	0.165353
	N254	N	0.090499	0.464489	0.808536
	N255	N	0.917684	0.539893	0.808285
	N256	N	0.187811	0.912954	0.452540
	N257	N	0.184953	0.090375	0.525464
	N258	N	0.819298	0.092930	0.454814
	N259	N	0.822333	0.913704	0.524646
	N260	N	0.466562	0.178146	0.908214
	N261	N	0.542136	0.180290	0.075752
	N262	N	0.466581	0.825161	0.074767
	N263	N	0.542154	0.825949	0.907255
	N264	N	0.468000	0.915253	0.171959
	N265	N	0.539371	0.093195	0.174821
	N266	N	0.468851	0.091029	0.808750
	N267	N	0.539283	0.911588	0.807061
	N268	N	0.919332	0.178398	0.450788
	N269	N	0.087360	0.179750	0.525875
	N270	N	0.089223	0.824564	0.449528
	N271	N	0.921197	0.825878	0.525810
	N272	N	0.183120	0.464733	0.900702
	N273	N	0.181779	0.539719	0.071641
	N274	N	0.828638	0.465327	0.071750
	N275	N	0.825468	0.539691	0.900514
	O276	O	-0.091885	0.041667	0.071799
	H277	H	-0.100346	0.040067	0.077091
	H278	H	-0.081875	0.033056	0.078557
	O279	O	0.595735	0.461610	0.486321
	H280	H	0.603625	0.474366	0.497344
	H281	H	0.585039	0.462237	0.485284
	O282	O	0.953232	-0.121669	0.144789
	H283	H	0.970192	-0.117663	0.146594
	H284	H	0.949749	-0.108497	0.152154
	O285	O	0.070752	1.159364	0.034528
	H286	H	0.075910	1.158650	0.036626
	H287	H	0.078109	1.153148	0.038749
	O288	O	0.185722	-0.099839	0.913568
	H289	H	0.190841	-0.113656	0.905382
	H290	H	0.194269	-0.116885	0.901266
	O291	O	0.585542	0.483148	0.434232
	H292	H	0.595723	0.477778	0.441254
	H293	H	0.595316	0.493312	0.440352
	O294	O	1.122186	0.964028	1.114585
	H295	H	1.136747	0.967279	1.105596
	H296	H	1.116335	0.963782	1.118121
	O297	O	-0.032951	-0.162183	-0.115535
	H298	H	-0.022447	-0.161821	-0.099203
	H299	H	-0.039860	-0.165250	-0.126947
	O300	O	0.561810	0.515061	0.433476
	H301	H	0.551676	0.504716	0.435411
	H302	H	0.559106	0.508068	0.432804
	O303	O	-0.034282	0.902896	0.833076
	H304	H	-0.035067	0.903804	0.832473
	H305	H	-0.041989	0.913923	0.822703
	O306	O	0.988978	0.992039	-0.040926
	H307	H	0.984555	0.984027	-0.040518
	H308	H	0.990135	1.002208	-0.024427
	O309	O	1.064300	-0.111491	-0.080439
	H310	H	1.059768	-0.110634	-0.089761
	H311	H	1.065961	-0.120527	-0.081902
	O312	O	0.001209	0.168509	0.905342
	H313	H	0.014497	0.166118	0.916483
	H314	H	0.004049	0.170481	0.915250
	O315	O	0.609582	0.667085	0.512726
	H316	H	0.606444	0.675306	0.519659
	H317	H	0.613038	0.673856	0.522594
	O318	O	0.604513	0.455221	0.480370
	H319	H	0.605135	0.458655	0.479734
	H320	H	0.603868	0.457770	0.475428
	O321	O	0.448910	0.498891	0.543583
	H322	H	0.452567	0.497485	0.533864
	H323	H	0.448867	0.503035	0.538916
	O324	O	0.545811	0.407417	0.455486
	H325	H	0.548592	0.397512	0.451038
	H326	H	0.550885	0.409476	0.460790
	O327	O	0.116629	0.888027	0.826393
	H328	H	0.105472	0.880045	0.829657
	H329	H	0.123273	0.885142	0.822753
	O330	O	0.350060	0.592373	0.476631
	H331	H	0.341290	0.596585	0.488266
	H332	H	0.362746	0.586177	0.486085
	O333	O	-0.580552	0.624757	0.397935
	H334	H	-0.586735	0.630695	0.388927
	H335	H	-0.582330	0.613679	0.395369
	O336	O	0.992825	0.908291	0.958543
	H337	H	1.004551	0.911069	0.968392
	H338	H	1.003266	0.897533	0.956861
	O339	O	0.513412	0.446384	0.611291
	H340	H	0.499878	0.448818	0.601118
	H341	H	0.510074	0.441110	0.598245
	O342	O	1.563755	-0.571163	0.533329
	H343	H	1.579854	-0.566608	0.547369
	H344	H	1.565511	-0.576150	0.531207
	O345	O	0.348619	0.518356	0.365370
	H346	H	0.349598	0.506685	0.362939
	H347	H	0.347073	0.528215	0.366668
	O348	O	0.902347	1.047383	0.888223
	H349	H	0.900709	1.047473	0.877682
	H350	H	0.885581	1.048268	0.895563
	O351	O	0.370375	1.459930	-0.453218
	H352	H	0.366062	1.450671	-0.459020
	H353	H	0.369422	1.464316	-0.451605
	O354	O	-0.191794	0.004093	0.077103
	H355	H	-0.202482	0.008904	0.065731
	H356	H	-0.199503	-0.015378	0.079466
	O357	O	0.047322	0.976678	0.865356
	H358	H	0.042045	0.967994	0.870512
	H359	H	0.046024	0.969947	0.859582
	O360	O	0.554713	0.460534	0.526178
	H361	H	0.554944	0.469433	0.524172
	H362	H	0.562639	0.458140	0.523877
	O363	O	0.392456	0.572430	0.395060
	H364	H	0.380890	0.558368	0.396760
	H365	H	0.398772	0.586059	0.398100
	O366	O	0.074791	0.101306	0.994987
	H367	H	0.081258	0.103706	0.996114
	H368	H	0.076171	0.093454	0.988319
	O369	O	0.512129	0.510788	0.586766
	H370	H	0.516431	0.520777	0.587909
	H371	H	0.506269	0.499638	0.597264
	O372	O	0.497101	0.588315	0.644720
	H373	H	0.500466	0.579566	0.647683
	H374	H	0.500597	0.589251	0.650266
	O375	O	0.884316	0.119957	0.913413
	H376	H	0.897428	0.119071	0.913707
	H377	H	0.883777	0.121186	0.912445
	O378	O	-0.175632	1.074427	0.834733
	H379	H	-0.186135	1.088605	0.828916
	H380	H	-0.172046	1.089481	0.829969
	O381	O	0.442226	0.606975	0.344302
	H382	H	0.438312	0.624795	0.349591
	H383	H	0.436838	0.610782	0.334749
	O384	O	-0.068337	0.931180	0.049180
	H385	H	-0.076400	0.922064	0.061551
	H386	H	-0.046837	0.935890	0.051795
	O387	O	1.529898	-0.522426	1.492433
	H388	H	1.538175	-0.521139	1.478925
	H389	H	1.544419	-0.516033	1.487877
	O390	O	0.108236	1.017577	0.132084
	H391	H	0.113492	1.046864	0.129437
	H392	H	0.087730	1.021871	0.141775
	O393	O	1.101845	1.010206	0.031598
	H394	H	1.087047	1.003832	0.034658
	H395	H	1.109259	1.007831	0.024298
	O396	O	0.539789	0.395349	0.343957
	H397	H	0.549528	0.390974	0.331114
	H398	H	0.549826	0.396292	0.355942
	O399	O	0.069542	1.186850	1.176745
	H400	H	0.075046	1.204698	1.191240
	H401	H	0.070189	1.186589	1.175391
	O402	O	0.982269	1.027104	1.067765
	H403	H	0.982243	1.027046	1.060146
	H404	H	0.982279	1.021624	1.056128
	O405	O	0.530041	0.514003	0.622688
	H406	H	0.537730	0.507761	0.623546
	H407	H	0.535457	0.505910	0.620370
