data_Molecule from HDF5

_cell_length_a		16.329363
_cell_length_b		16.154052
_cell_length_c		16.260020
_cell_angle_alpha	89.899968
_cell_angle_beta	90.023455
_cell_angle_gamma	90.065812
_symmetry_space_group_name_H-M	'P 1'
_symmetry_Int_Tables_number		1

loop_
	_symmetry_equiv_pos_as_xyz
	x,y,z

loop_
	_atom_site_label
	_atom_site_type_symbol
	_atom_site_fract_x
	_atom_site_fract_y
	_atom_site_fract_z
	H0	H	0.401020	0.832852	0.714416
	H1	H	0.596879	0.163231	0.715031
	H2	H	0.595788	0.832922	0.289177
	H3	H	0.400348	0.162373	0.287514
	H4	H	0.712872	0.398483	0.837630
	H5	H	0.715051	0.599009	0.164325
	H6	H	0.282984	0.597580	0.838303
	H7	H	0.283196	0.398244	0.164237
	H8	H	0.835925	0.712277	0.401166
	H9	H	0.161978	0.713273	0.598589
	H10	H	0.835360	0.282923	0.598561
	H11	H	0.162291	0.284833	0.403410
	H12	H	0.835595	0.398020	0.715432
	H13	H	0.161502	0.598021	0.716360
	H14	H	0.836385	0.597599	0.284109
	H15	H	0.162158	0.399426	0.285915
	H16	H	0.401773	0.711369	0.837179
	H17	H	0.595947	0.710340	0.166219
	H18	H	0.595104	0.285636	0.836869
	H19	H	0.400669	0.284785	0.165872
	H20	H	0.712001	0.833633	0.402445
	H21	H	0.712778	0.163564	0.600181
	H22	H	0.282496	0.834480	0.602237
	H23	H	0.285769	0.162876	0.403214
	H24	H	0.900458	0.333737	0.214680
	H25	H	0.097399	0.662881	0.213227
	H26	H	0.096038	0.332727	0.787441
	H27	H	0.900277	0.662779	0.785945
	H28	H	0.214158	0.899241	0.337631
	H29	H	0.214043	0.099290	0.663544
	H30	H	0.784250	0.097183	0.336740
	H31	H	0.783223	0.896789	0.663822
	H32	H	0.334992	0.211927	0.903843
	H33	H	0.662006	0.212162	0.099476
	H34	H	0.334887	0.783883	0.099664
	H35	H	0.662288	0.784008	0.904856
	H36	H	0.335721	0.898260	0.216843
	H37	H	0.661992	0.097328	0.216864
	H38	H	0.335655	0.098178	0.785784
	H39	H	0.661469	0.899508	0.786777
	H40	H	0.902339	0.209817	0.335065
	H41	H	0.094627	0.210027	0.665045
	H42	H	0.095623	0.787317	0.335158
	H43	H	0.901079	0.783107	0.663604
	H44	H	0.212887	0.332992	0.901636
	H45	H	0.213492	0.661961	0.099939
	H46	H	0.784915	0.333892	0.099335
	H47	H	0.784726	0.662572	0.900875
	H48	H	0.406923	0.112998	0.586728
	H49	H	0.594638	0.882083	0.588772
	H50	H	0.596308	0.116304	0.410668
	H51	H	0.395943	0.876222	0.405512
	H52	H	0.591932	0.411646	0.116244
	H53	H	0.588788	0.595552	0.884103
	H54	H	0.411887	0.597400	0.118122
	H55	H	0.397962	0.403466	0.882053
	H56	H	0.114694	0.586829	0.404703
	H57	H	0.882572	0.595847	0.588763
	H58	H	0.117751	0.395731	0.594190
	H59	H	0.885542	0.405177	0.417572
	H60	H	0.111987	0.408931	0.587324
	H61	H	0.885359	0.583882	0.590046
	H62	H	0.118077	0.594959	0.402947
	H63	H	0.883054	0.413926	0.400270
	H64	H	0.395030	0.594150	0.123149
	H65	H	0.596542	0.591515	0.883377
	H66	H	0.587260	0.401281	0.117645
	H67	H	0.406263	0.413590	0.887327
	H68	H	0.591397	0.117754	0.404082
	H69	H	0.594609	0.878695	0.599255
	H70	H	0.398081	0.119425	0.596117
	H71	H	0.414134	0.881033	0.403311
	H72	H	0.916671	0.611806	0.086249
	H73	H	0.089405	0.383266	0.084615
	H74	H	0.095213	0.612393	0.919717
	H75	H	0.906074	0.381585	0.909429
	H76	H	0.098026	0.901963	0.620787
	H77	H	0.090647	0.098291	0.381548
	H78	H	0.901530	0.082105	0.615453
	H79	H	0.886546	0.907897	0.378447
	H80	H	0.618289	0.101617	0.903878
	H81	H	0.382396	0.091426	0.094186
	H82	H	0.615266	0.906585	0.098617
	H83	H	0.383433	0.903504	0.915210
	H84	H	0.616050	0.901866	0.097255
	H85	H	0.382725	0.088980	0.095422
	H86	H	0.611494	0.090193	0.919866
	H87	H	0.383503	0.911721	0.906106
	H88	H	0.913045	0.090585	0.614810
	H89	H	0.100100	0.089676	0.382088
	H90	H	0.091950	0.915449	0.614919
	H91	H	0.912472	0.918678	0.389376
	H92	H	0.099858	0.619466	0.900386
	H93	H	0.099063	0.377508	0.095503
	H94	H	0.895312	0.616810	0.086392
	H95	H	0.902314	0.378827	0.908287
	H96	H	0.411769	0.116587	0.599476
	H97	H	0.585090	0.882168	0.594217
	H98	H	0.588350	0.114414	0.410656
	H99	H	0.405388	0.883279	0.419764
	H100	H	0.598550	0.403364	0.120969
	H101	H	0.589883	0.586947	0.886278
	H102	H	0.405385	0.580509	0.116319
	H103	H	0.411638	0.400785	0.884090
	H104	H	0.114555	0.593463	0.410732
	H105	H	0.880568	0.590378	0.599883
	H106	H	0.116490	0.409295	0.602779
	H107	H	0.878489	0.395173	0.402318
	H108	H	0.907397	0.619182	0.104291
	H109	H	0.084445	0.379579	0.099351
	H110	H	0.079580	0.612852	0.905069
	H111	H	0.905264	0.379434	0.904734
	H112	H	0.083282	0.901594	0.615095
	H113	H	0.089227	0.086083	0.385199
	H114	H	0.900675	0.096504	0.620663
	H115	H	0.910582	0.890028	0.379703
	H116	H	0.614036	0.081192	0.900779
	H117	H	0.382091	0.090915	0.097591
	H118	H	0.614274	0.905430	0.093201
	H119	H	0.380085	0.900398	0.903617
	C120	C	0.376891	0.007045	0.622670
	C121	C	0.620270	0.989973	0.622666
	C122	C	0.619635	0.006939	0.380429
	C123	C	0.377122	0.989302	0.380313
	C124	C	0.620287	0.376566	0.009696
	C125	C	0.620402	0.619828	0.992978
	C126	C	0.376648	0.619307	0.010349
	C127	C	0.376934	0.376588	0.992700
	C128	C	0.007676	0.620071	0.377755
	C129	C	0.990731	0.619819	0.621745
	C130	C	0.007388	0.375685	0.622623
	C131	C	0.990438	0.376505	0.378618
	C132	C	0.877437	0.507077	0.121611
	C133	C	0.119778	0.489121	0.121831
	C134	C	0.119912	0.506358	0.879540
	C135	C	0.876921	0.488975	0.878600
	C136	C	0.119920	0.877665	0.508652
	C137	C	0.120603	0.119943	0.491746
	C138	C	0.877110	0.118924	0.508580
	C139	C	0.875895	0.876341	0.491291
	C140	C	0.506863	0.120159	0.879406
	C141	C	0.490580	0.119353	0.123439
	C142	C	0.507042	0.875904	0.124188
	C143	C	0.490145	0.876358	0.880005
	C144	C	0.379779	0.882601	0.677566
	C145	C	0.617621	0.114100	0.677500
	C146	C	0.616408	0.882212	0.326433
	C147	C	0.380071	0.113379	0.325303
	C148	C	0.674924	0.378658	0.886590
	C149	C	0.676663	0.618403	0.115614
	C150	C	0.321237	0.617893	0.886946
	C151	C	0.321304	0.377969	0.115611
	C152	C	0.884639	0.674667	0.380638
	C153	C	0.113232	0.675399	0.619262
	C154	C	0.884322	0.320741	0.619264
	C155	C	0.113676	0.322297	0.382206
	C156	C	0.884417	0.377949	0.677409
	C157	C	0.112959	0.618121	0.677903
	C158	C	0.884986	0.617783	0.322370
	C159	C	0.113437	0.379304	0.324004
	C160	C	0.380393	0.674035	0.886570
	C161	C	0.617455	0.673550	0.116859
	C162	C	0.616380	0.322430	0.886191
	C163	C	0.379803	0.321589	0.116264
	C164	C	0.674042	0.882729	0.382715
	C165	C	0.675176	0.114224	0.620312
	C166	C	0.320793	0.883531	0.621716
	C167	C	0.322932	0.113503	0.382474
	C168	C	0.879837	0.383013	0.176773
	C169	C	0.117680	0.613449	0.176111
	C170	C	0.117005	0.382009	0.824601
	C171	C	0.879817	0.613519	0.823520
	C172	C	0.175626	0.879433	0.385958
	C173	C	0.175231	0.118268	0.615002
	C174	C	0.822117	0.117127	0.385327
	C175	C	0.821190	0.877390	0.614711
	C176	C	0.383894	0.174712	0.882540
	C177	C	0.613421	0.174691	0.120570
	C178	C	0.383883	0.821281	0.120603
	C179	C	0.613548	0.821915	0.883718
	C180	C	0.384311	0.877868	0.179002
	C181	C	0.613272	0.117500	0.178896
	C182	C	0.384390	0.118172	0.823661
	C183	C	0.612963	0.878783	0.824813
	C184	C	0.880863	0.173327	0.384632
	C185	C	0.116577	0.173949	0.615536
	C186	C	0.116545	0.823829	0.384833
	C187	C	0.879836	0.821067	0.614831
	C188	C	0.175292	0.382368	0.881124
	C189	C	0.175387	0.612916	0.119670
	C190	C	0.822174	0.383194	0.119833
	C191	C	0.822085	0.613261	0.880291
	C192	C	0.399200	0.093850	0.600569
	C193	C	0.597971	0.903460	0.600552
	C194	C	0.598339	0.093691	0.402129
	C195	C	0.398878	0.902494	0.402772
	C196	C	0.598756	0.398740	0.096092
	C197	C	0.598182	0.597806	0.906762
	C198	C	0.397705	0.597256	0.096694
	C199	C	0.398897	0.399246	0.906566
	C200	C	0.093742	0.598379	0.399798
	C201	C	0.904997	0.596901	0.599524
	C202	C	0.093169	0.398033	0.601091
	C203	C	0.904445	0.398353	0.400339
	C204	C	0.900019	0.593542	0.099029
	C205	C	0.097452	0.402542	0.099756
	C206	C	0.098046	0.592657	0.901912
	C207	C	0.898310	0.402430	0.900812
	C208	C	0.097646	0.899763	0.594561
	C209	C	0.099522	0.097954	0.405571
	C210	C	0.898914	0.096525	0.594835
	C211	C	0.896982	0.898696	0.405005
	C212	C	0.592491	0.097582	0.901663
	C213	C	0.404561	0.097183	0.101923
	C214	C	0.592929	0.898147	0.102783
	C215	C	0.404452	0.898634	0.901957
	Zn216	Zn	0.498535	-0.001664	0.750694
	Zn217	Zn	0.498914	-0.002134	0.252933
	Zn218	Zn	0.749085	0.498609	0.000611
	Zn219	Zn	0.248334	0.497671	0.001017
	Zn220	Zn	-0.001106	0.748886	0.499472
	Zn221	Zn	-0.001134	0.247754	0.500062
	Zn222	Zn	-0.001463	0.497828	0.751321
	Zn223	Zn	-0.000892	0.498095	0.249480
	Zn224	Zn	0.498969	0.747492	0.002422
	Zn225	Zn	0.498571	0.248405	0.001526
	Zn226	Zn	0.747657	-0.001389	0.500691
	Zn227	Zn	0.249018	-0.001812	0.500945
	N228	N	0.413973	0.960429	0.678256
	N229	N	0.584224	0.035956	0.679037
	N230	N	0.583066	0.960284	0.324949
	N231	N	0.413174	0.035132	0.323922
	N232	N	0.677527	0.411735	0.964377
	N233	N	0.678579	0.585666	0.037489
	N234	N	0.318727	0.584736	0.964917
	N235	N	0.319471	0.411524	0.037812
	N236	N	0.962026	0.676235	0.414180
	N237	N	0.036173	0.676348	0.585044
	N238	N	0.961640	0.319511	0.585686
	N239	N	0.036332	0.320707	0.415526
	N240	N	0.961864	0.411461	0.679614
	N241	N	0.035499	0.584356	0.679628
	N242	N	0.962433	0.584436	0.320564
	N243	N	0.035814	0.412369	0.321765
	N244	N	0.414021	0.674948	0.964224
	N245	N	0.583098	0.674474	0.039636
	N246	N	0.583106	0.321240	0.963907
	N247	N	0.413722	0.320765	0.038804
	N248	N	0.676347	0.961270	0.415455
	N249	N	0.677097	0.035840	0.587214
	N250	N	0.318697	0.962075	0.588644
	N251	N	0.321220	0.035324	0.416197
	N252	N	0.913357	0.461189	0.178153
	N253	N	0.083824	0.535477	0.177447
	N254	N	0.083243	0.460100	0.823427
	N255	N	0.913079	0.535390	0.822362
	N256	N	0.177897	0.912145	0.463850
	N257	N	0.178136	0.085441	0.537101
	N258	N	0.819608	0.084162	0.463433
	N259	N	0.818401	0.911079	0.536853
	N260	N	0.460991	0.175838	0.916463
	N261	N	0.536064	0.176064	0.087045
	N262	N	0.461310	0.819730	0.087385
	N263	N	0.536152	0.820266	0.917216
	N264	N	0.461754	0.911457	0.181141
	N265	N	0.535889	0.083825	0.180787
	N266	N	0.461871	0.084709	0.821893
	N267	N	0.535300	0.911909	0.822464
	N268	N	0.914289	0.174582	0.462343
	N269	N	0.083208	0.175042	0.537909
	N270	N	0.082728	0.822573	0.462325
	N271	N	0.912925	0.820061	0.537113
	N272	N	0.177066	0.460466	0.914746
	N273	N	0.176747	0.534635	0.086414
	N274	N	0.820752	0.461312	0.086035
	N275	N	0.820095	0.535033	0.914010
	O276	O	1.011142	0.968262	-0.055815
	H277	H	1.011011	0.964567	-0.051394
	H278	H	1.012299	0.959000	-0.063518
	O279	O	0.013442	-0.018007	-0.014150
	H280	H	0.016714	-0.008937	-0.015122
	H281	H	0.005729	-0.019181	-0.017983
	O282	O	0.004354	-0.017870	0.962500
	H283	H	0.005871	-0.014864	0.961591
	H284	H	-0.001024	-0.018105	0.956054
	O285	O	0.476300	0.491894	0.545981
	H286	H	0.466257	0.492568	0.547476
	H287	H	0.483649	0.496520	0.548891
	O288	O	0.496547	0.499408	0.510243
	H289	H	0.489179	0.489133	0.503626
	H290	H	0.499526	0.495536	0.503839
	O291	O	0.507189	0.554151	0.473906
	H292	H	0.497962	0.554435	0.459126
	H293	H	0.516229	0.556656	0.481872
	O294	O	0.001889	-0.029850	0.001818
	H295	H	0.002917	-0.025903	0.001609
	H296	H	-0.000798	-0.030468	0.000771
	O297	O	0.536706	0.558056	0.527870
	H298	H	0.538724	0.561646	0.531339
	H299	H	0.533852	0.560852	0.529827
	O300	O	-0.028355	0.932528	0.983263
	H301	H	-0.032939	0.931402	0.987075
	H302	H	-0.031318	0.935732	0.991991
	O303	O	0.554742	0.584216	0.552348
	H304	H	0.541631	0.580650	0.558889
	H305	H	0.560903	0.595271	0.552016
	O306	O	-0.026926	-0.030714	0.897021
	H307	H	-0.033008	-0.025258	0.888685
	H308	H	-0.024412	-0.022816	0.884286
	O309	O	1.036115	0.967152	0.993212
	H310	H	1.048522	0.966957	0.988646
	H311	H	1.038660	0.953533	0.996330
	O312	O	0.552932	0.471446	0.555452
	H313	H	0.561789	0.470377	0.555322
	H314	H	0.556219	0.463261	0.560819
	O315	O	0.593411	0.486364	0.510528
	H316	H	0.603741	0.500649	0.507912
	H317	H	0.597238	0.494191	0.518343
	O318	O	0.073353	1.007569	-0.062415
	H319	H	0.076867	1.006535	-0.050369
	H320	H	0.068052	1.004178	-0.067874
	O321	O	1.065900	1.005175	-0.071162
	H322	H	1.075062	1.006013	-0.072374
	H323	H	1.066337	0.993933	-0.071011
