data_Molecule from HDF5

_cell_length_a		16.197036
_cell_length_b		16.382536
_cell_length_c		16.087330
_cell_angle_alpha	89.981007
_cell_angle_beta	89.919754
_cell_angle_gamma	90.127498
_symmetry_space_group_name_H-M	'P 1'
_symmetry_Int_Tables_number		1

loop_
	_symmetry_equiv_pos_as_xyz
	x,y,z

loop_
	_atom_site_label
	_atom_site_type_symbol
	_atom_site_fract_x
	_atom_site_fract_y
	_atom_site_fract_z
	H0	H	0.404782	0.837909	0.712970
	H1	H	0.602924	0.164076	0.713327
	H2	H	0.602348	0.837808	0.282398
	H3	H	0.408722	0.165094	0.284471
	H4	H	0.716577	0.404491	0.833539
	H5	H	0.714264	0.599841	0.165843
	H6	H	0.290542	0.599754	0.834163
	H7	H	0.290812	0.404250	0.165718
	H8	H	0.840008	0.717508	0.399766
	H9	H	0.166132	0.718828	0.603858
	H10	H	0.839155	0.283928	0.603001
	H11	H	0.166644	0.286104	0.399512
	H12	H	0.837692	0.405713	0.712566
	H13	H	0.169094	0.596910	0.711817
	H14	H	0.837627	0.597727	0.288758
	H15	H	0.168155	0.405194	0.287673
	H16	H	0.403671	0.714085	0.833298
	H17	H	0.605153	0.719736	0.162249
	H18	H	0.603501	0.287591	0.834344
	H19	H	0.402040	0.286245	0.163698
	H20	H	0.720440	0.838271	0.396774
	H21	H	0.719679	0.164122	0.596390
	H22	H	0.286658	0.839378	0.598618
	H23	H	0.288344	0.164030	0.397661
	H24	H	0.903802	0.338900	0.214871
	H25	H	0.100863	0.665357	0.214583
	H26	H	0.100410	0.338582	0.786557
	H27	H	0.905996	0.664641	0.786762
	H28	H	0.215215	0.905213	0.332903
	H29	H	0.218187	0.099678	0.664632
	H30	H	0.794043	0.097314	0.332046
	H31	H	0.787971	0.902250	0.662946
	H32	H	0.339468	0.217604	0.898098
	H33	H	0.667318	0.218384	0.098563
	H34	H	0.339886	0.784882	0.099103
	H35	H	0.666171	0.784261	0.895588
	H36	H	0.338842	0.904038	0.211270
	H37	H	0.670613	0.096580	0.207965
	H38	H	0.338068	0.097459	0.786254
	H39	H	0.669387	0.906579	0.787282
	H40	H	0.903204	0.216450	0.335222
	H41	H	0.104068	0.215951	0.664793
	H42	H	0.106235	0.784075	0.336052
	H43	H	0.902294	0.787353	0.664742
	H44	H	0.217926	0.338681	0.901989
	H45	H	0.219998	0.664880	0.100227
	H46	H	0.786139	0.340235	0.101545
	H47	H	0.787917	0.663839	0.900387
	H48	H	0.417907	0.113584	0.585586
	H49	H	0.599408	0.886437	0.585959
	H50	H	0.599644	0.117448	0.404261
	H51	H	0.409094	0.886477	0.410553
	H52	H	0.596767	0.411899	0.117102
	H53	H	0.595388	0.602813	0.878971
	H54	H	0.415548	0.593553	0.116576
	H55	H	0.416734	0.411168	0.884141
	H56	H	0.120204	0.590764	0.406865
	H57	H	0.886059	0.590655	0.594553
	H58	H	0.119667	0.407330	0.592233
	H59	H	0.886406	0.404492	0.414526
	H60	H	0.120831	0.407022	0.593242
	H61	H	0.883693	0.598967	0.596164
	H62	H	0.121580	0.598272	0.407966
	H63	H	0.886949	0.412063	0.406885
	H64	H	0.412377	0.597469	0.118171
	H65	H	0.604260	0.590578	0.879218
	H66	H	0.591008	0.408310	0.116504
	H67	H	0.411786	0.403475	0.879196
	H68	H	0.600035	0.116896	0.404196
	H69	H	0.600222	0.883901	0.593868
	H70	H	0.403736	0.118259	0.587868
	H71	H	0.404576	0.883045	0.401780
	H72	H	0.897823	0.620780	0.091238
	H73	H	0.103353	0.385140	0.091495
	H74	H	0.100809	0.619218	0.905498
	H75	H	0.912059	0.388305	0.914394
	H76	H	0.089786	0.911542	0.614889
	H77	H	0.095330	0.093080	0.382156
	H78	H	0.908942	0.084808	0.615437
	H79	H	0.915835	0.909618	0.382790
	H80	H	0.619239	0.089629	0.903765
	H81	H	0.388288	0.090065	0.091181
	H82	H	0.617318	0.915686	0.087320
	H83	H	0.384150	0.899169	0.906173
	H84	H	0.623985	0.904974	0.095903
	H85	H	0.384345	0.098118	0.095184
	H86	H	0.624274	0.102351	0.901985
	H87	H	0.387499	0.908794	0.910142
	H88	H	0.920531	0.095512	0.615947
	H89	H	0.094748	0.096979	0.381906
	H90	H	0.096461	0.902429	0.619753
	H91	H	0.913310	0.902788	0.379530
	H92	H	0.095500	0.618293	0.905357
	H93	H	0.095358	0.384502	0.099930
	H94	H	0.912133	0.620660	0.106217
	H95	H	0.903127	0.383375	0.906624
	H96	H	0.413632	0.118199	0.599684
	H97	H	0.592970	0.886349	0.591784
	H98	H	0.599348	0.116975	0.403133
	H99	H	0.414589	0.886245	0.401703
	H100	H	0.596505	0.406052	0.119190
	H101	H	0.589455	0.589710	0.884067
	H102	H	0.410997	0.592554	0.116976
	H103	H	0.406995	0.412796	0.880804
	H104	H	0.118544	0.593837	0.413616
	H105	H	0.887174	0.596585	0.587830
	H106	H	0.120625	0.406716	0.592289
	H107	H	0.882658	0.401882	0.404170
	H108	H	0.916919	0.613719	0.086275
	H109	H	0.092175	0.388839	0.088839
	H110	H	0.099434	0.616802	0.910178
	H111	H	0.914469	0.385578	0.902074
	H112	H	0.101098	0.913751	0.618641
	H113	H	0.097533	0.095506	0.380326
	H114	H	0.905506	0.098756	0.620970
	H115	H	0.909487	0.908533	0.380386
	H116	H	0.619473	0.097820	0.913697
	H117	H	0.387429	0.096888	0.085922
	H118	H	0.621069	0.902552	0.081811
	H119	H	0.384523	0.908221	0.899469
	C120	C	0.381993	0.009501	0.620227
	C121	C	0.626389	0.993082	0.619749
	C122	C	0.627658	0.009149	0.375129
	C123	C	0.381981	0.993134	0.376083
	C124	C	0.624095	0.380799	0.007975
	C125	C	0.624429	0.623137	0.990380
	C126	C	0.383059	0.622596	0.007809
	C127	C	0.382374	0.380685	0.990663
	C128	C	0.011829	0.622829	0.379811
	C129	C	0.994532	0.623302	0.622281
	C130	C	0.011699	0.378732	0.622135
	C131	C	0.994104	0.378830	0.378928
	C132	C	0.880317	0.510774	0.123253
	C133	C	0.125655	0.493639	0.122711
	C134	C	0.126431	0.510337	0.878521
	C135	C	0.881538	0.493111	0.878867
	C136	C	0.124766	0.880310	0.508451
	C137	C	0.125123	0.123407	0.490724
	C138	C	0.883507	0.121450	0.507814
	C139	C	0.882711	0.878890	0.490070
	C140	C	0.512083	0.123886	0.877405
	C141	C	0.495536	0.123351	0.119639
	C142	C	0.512276	0.879615	0.118254
	C143	C	0.494510	0.878497	0.876848
	C144	C	0.384298	0.886740	0.675253
	C145	C	0.623773	0.115329	0.675338
	C146	C	0.623377	0.886497	0.320089
	C147	C	0.386443	0.116149	0.321335
	C148	C	0.679408	0.383707	0.883481
	C149	C	0.678385	0.620789	0.115501
	C150	C	0.328111	0.619859	0.883376
	C151	C	0.327712	0.383315	0.115898
	C152	C	0.888657	0.678745	0.380661
	C153	C	0.117727	0.679594	0.622255
	C154	C	0.888292	0.322574	0.621702
	C155	C	0.117830	0.324252	0.379896
	C156	C	0.887349	0.383068	0.676322
	C157	C	0.119121	0.618726	0.675912
	C158	C	0.887424	0.619122	0.325529
	C159	C	0.118388	0.383466	0.324176
	C160	C	0.384340	0.676756	0.882968
	C161	C	0.623707	0.680170	0.113820
	C162	C	0.623033	0.325666	0.883586
	C163	C	0.382815	0.324606	0.114816
	C164	C	0.682130	0.886674	0.376906
	C165	C	0.681990	0.115166	0.617047
	C166	C	0.325735	0.887356	0.618234
	C167	C	0.326819	0.115638	0.377569
	C168	C	0.883219	0.387791	0.177693
	C169	C	0.122237	0.616467	0.177337
	C170	C	0.121774	0.387191	0.824202
	C171	C	0.884535	0.615930	0.824056
	C172	C	0.178808	0.883458	0.383043
	C173	C	0.180589	0.120464	0.615140
	C174	C	0.830271	0.118348	0.382414
	C175	C	0.826309	0.882037	0.614183
	C176	C	0.388308	0.179213	0.878338
	C177	C	0.618814	0.179303	0.117993
	C178	C	0.388711	0.823570	0.118184
	C179	C	0.617934	0.823239	0.876930
	C180	C	0.388225	0.882691	0.174100
	C181	C	0.620588	0.118679	0.172084
	C182	C	0.387696	0.119391	0.822748
	C183	C	0.619373	0.883800	0.823153
	C184	C	0.884834	0.177418	0.383983
	C185	C	0.123895	0.178258	0.615330
	C186	C	0.124343	0.823494	0.384750
	C187	C	0.882967	0.824870	0.615025
	C188	C	0.180348	0.387462	0.881281
	C189	C	0.181478	0.616227	0.120494
	C190	C	0.824369	0.388403	0.121441
	C191	C	0.826291	0.615568	0.880969
	C192	C	0.404907	0.094681	0.597652
	C193	C	0.603895	0.907467	0.597290
	C194	C	0.606146	0.094902	0.397276
	C195	C	0.403251	0.907524	0.398215
	C196	C	0.601440	0.402335	0.095157
	C197	C	0.602734	0.600919	0.903148
	C198	C	0.406081	0.600859	0.094648
	C199	C	0.405097	0.402702	0.903859
	C200	C	0.097870	0.600794	0.402615
	C201	C	0.908156	0.601734	0.599553
	C202	C	0.098074	0.400529	0.599303
	C203	C	0.907706	0.399914	0.401731
	C204	C	0.902429	0.596244	0.101008
	C205	C	0.103720	0.408128	0.100015
	C206	C	0.105004	0.596059	0.900431
	C207	C	0.903430	0.407702	0.901288
	C208	C	0.102373	0.902688	0.595287
	C209	C	0.102421	0.101696	0.403980
	C210	C	0.905402	0.099500	0.595030
	C211	C	0.906237	0.900480	0.403309
	C212	C	0.598677	0.102884	0.899871
	C213	C	0.409112	0.101653	0.097339
	C214	C	0.598449	0.901363	0.095169
	C215	C	0.407960	0.899103	0.898891
	Zn216	Zn	0.503718	0.000891	0.749794
	Zn217	Zn	0.504744	0.001167	0.246892
	Zn218	Zn	0.751969	0.501884	0.000337
	Zn219	Zn	0.255736	0.502117	0.000310
	Zn220	Zn	0.003809	0.751856	0.500933
	Zn221	Zn	0.002968	0.250198	0.500491
	Zn222	Zn	0.003148	0.501546	0.750129
	Zn223	Zn	0.002817	0.501551	0.251508
	Zn224	Zn	0.503129	0.750212	-0.002348
	Zn225	Zn	0.502852	0.252852	-0.001041
	Zn226	Zn	0.756298	0.000393	0.497260
	Zn227	Zn	0.252534	0.001682	0.498381
	N228	N	0.418547	0.963708	0.676655
	N229	N	0.589797	0.038333	0.677093
	N230	N	0.590185	0.963756	0.318879
	N231	N	0.420187	0.039115	0.320309
	N232	N	0.679907	0.417267	0.961798
	N233	N	0.678993	0.586013	0.037653
	N234	N	0.327016	0.586849	0.962028
	N235	N	0.327130	0.417385	0.037825
	N236	N	0.966998	0.681288	0.413843
	N237	N	0.039318	0.682602	0.589719
	N238	N	0.966698	0.319709	0.588879
	N239	N	0.039699	0.321255	0.413287
	N240	N	0.965040	0.417404	0.676753
	N241	N	0.041386	0.584462	0.676142
	N242	N	0.964845	0.584946	0.325021
	N243	N	0.040343	0.416699	0.323451
	N244	N	0.418033	0.678515	0.961385
	N245	N	0.590702	0.681493	0.034986
	N246	N	0.589244	0.323712	0.962169
	N247	N	0.416166	0.322851	0.036036
	N248	N	0.684775	0.963938	0.410360
	N249	N	0.683604	0.038029	0.583185
	N250	N	0.324452	0.964573	0.584571
	N251	N	0.323693	0.038177	0.410718
	N252	N	0.917313	0.464901	0.178877
	N253	N	0.088522	0.539375	0.178959
	N254	N	0.088917	0.464605	0.822310
	N255	N	0.918174	0.538961	0.822674
	N256	N	0.179198	0.918107	0.460874
	N257	N	0.181374	0.086923	0.536762
	N258	N	0.829466	0.084060	0.460526
	N259	N	0.826057	0.915098	0.535558
	N260	N	0.466712	0.182309	0.911310
	N261	N	0.540078	0.182419	0.085997
	N262	N	0.466673	0.821529	0.084269
	N263	N	0.539410	0.819800	0.909461
	N264	N	0.466006	0.916965	0.174363
	N265	N	0.542934	0.084707	0.173323
	N266	N	0.465619	0.085807	0.821938
	N267	N	0.541681	0.917462	0.822684
	N268	N	0.917203	0.179530	0.463066
	N269	N	0.090117	0.180228	0.536975
	N270	N	0.091538	0.821408	0.463792
	N271	N	0.917491	0.822969	0.536969
	N272	N	0.183275	0.464913	0.914360
	N273	N	0.183891	0.538737	0.087351
	N274	N	0.822131	0.465916	0.088424
	N275	N	0.824167	0.538043	0.914189
	O276	O	-0.008846	0.024772	0.018794
	H277	H	-0.012903	0.032325	0.015087
	H278	H	-0.002640	0.015385	0.010760
	O279	O	0.462229	0.526565	0.521949
	H280	H	0.468924	0.531979	0.504255
	H281	H	0.462621	0.536199	0.515550
	O282	O	0.507383	0.487273	0.536373
	H283	H	0.498244	0.481383	0.530045
	H284	H	0.501406	0.488172	0.541985
	O285	O	0.930585	-0.000406	0.959427
	H286	H	0.932955	0.008772	0.959595
	H287	H	0.934102	0.001925	0.959576
	O288	O	1.010682	-0.023823	0.011838
	H289	H	1.006407	-0.028312	0.021483
	H290	H	1.004553	-0.014298	0.010583
	O291	O	0.609086	0.436491	0.442704
	H292	H	0.597312	0.427411	0.442938
	H293	H	0.617667	0.423214	0.439338
	O294	O	1.451990	0.505326	0.414421
	H295	H	1.450740	0.505981	0.408957
	H296	H	1.450761	0.507587	0.408825
	O297	O	0.003572	-0.040730	-0.022956
	H298	H	0.000099	-0.045612	-0.023378
	H299	H	-0.002834	-0.039120	-0.019618
	O300	O	0.510161	0.500954	0.401918
	H301	H	0.520478	0.499119	0.398183
	H302	H	0.509932	0.507028	0.404657
	O303	O	0.518415	0.457285	0.477430
	H304	H	0.517536	0.455950	0.485090
	H305	H	0.515142	0.460252	0.478849
	O306	O	0.999747	0.070414	0.050915
	H307	H	1.005419	0.071516	0.056324
	H308	H	1.008022	0.072420	0.059810
	O309	O	-0.080521	-0.044108	1.044142
	H310	H	-0.091954	-0.044129	1.044691
	H311	H	-0.084518	-0.033857	1.039544
	O312	O	1.018392	1.028378	0.981661
	H313	H	1.021953	1.031496	0.975952
	H314	H	1.014172	1.023300	0.979632
	O315	O	0.411989	0.402197	0.588677
	H316	H	0.399277	0.412767	0.589541
	H317	H	0.406058	0.395378	0.601607
	O318	O	0.487555	0.539597	0.551167
	H319	H	0.488791	0.542020	0.562549
	H320	H	0.473208	0.532086	0.550924
	O321	O	0.054889	1.047310	1.039044
	H322	H	0.060893	1.040924	1.041840
	H323	H	0.059946	1.043405	1.043230
	O324	O	0.600326	0.470574	0.443615
	H325	H	0.605514	0.462386	0.434813
	H326	H	0.592786	0.454593	0.439809
	O327	O	0.428605	0.473762	0.546262
	H328	H	0.435123	0.481099	0.543267
	H329	H	0.424365	0.476285	0.542304
	O330	O	0.516996	0.498235	0.436046
	H331	H	0.524170	0.496133	0.441141
	H332	H	0.512161	0.493416	0.434668
	O333	O	0.516210	0.620288	0.523592
	H334	H	0.517637	0.613285	0.527484
	H335	H	0.525588	0.625401	0.520835
	O336	O	0.448066	0.424128	0.468801
	H337	H	0.445815	0.431989	0.476448
	H338	H	0.436788	0.429196	0.468366
	O339	O	1.026313	0.970602	-0.074279
	H340	H	1.030382	0.965981	-0.075349
	H341	H	1.031642	0.966434	-0.068277
	O342	O	0.435640	0.539183	0.548660
	H343	H	0.443800	0.531408	0.555895
	H344	H	0.431720	0.543737	0.558159
	O345	O	0.489321	0.532852	0.501260
	H346	H	0.503745	0.535834	0.506436
	H347	H	0.497346	0.532818	0.489015
	O348	O	-0.055760	0.065098	0.026629
	H349	H	-0.057571	0.069446	0.020238
	H350	H	-0.058272	0.065833	0.023277
	O351	O	-0.019402	1.060201	1.065073
	H352	H	-0.018941	1.054180	1.064313
	H353	H	-0.016903	1.065471	1.067721
	O354	O	0.530288	0.580363	0.544945
	H355	H	0.524116	0.585778	0.540095
	H356	H	0.537658	0.574484	0.544882
	O357	O	-0.000528	0.959278	1.007861
	H358	H	-0.005413	0.963115	0.998097
	H359	H	-0.001373	0.955567	1.013718
