data_Molecule from HDF5

_cell_length_a		16.314099
_cell_length_b		16.337682
_cell_length_c		16.282368
_cell_angle_alpha	89.829889
_cell_angle_beta	89.794338
_cell_angle_gamma	90.018812
_symmetry_space_group_name_H-M	'P 1'
_symmetry_Int_Tables_number		1

loop_
	_symmetry_equiv_pos_as_xyz
	x,y,z

loop_
	_atom_site_label
	_atom_site_type_symbol
	_atom_site_fract_x
	_atom_site_fract_y
	_atom_site_fract_z
	H0	H	0.396234	0.828794	0.724694
	H1	H	0.603279	0.149112	0.721932
	H2	H	0.602835	0.827072	0.285442
	H3	H	0.400406	0.151139	0.288483
	H4	H	0.717733	0.387590	0.844085
	H5	H	0.719759	0.592436	0.165498
	H6	H	0.284124	0.593309	0.843094
	H7	H	0.282466	0.389262	0.166764
	H8	H	0.839614	0.706232	0.398363
	H9	H	0.161772	0.704868	0.603464
	H10	H	0.838758	0.270676	0.603677
	H11	H	0.161986	0.269540	0.399123
	H12	H	0.840485	0.383172	0.723352
	H13	H	0.162606	0.589941	0.718747
	H14	H	0.839752	0.589017	0.285680
	H15	H	0.163702	0.389203	0.287876
	H16	H	0.397537	0.709538	0.845030
	H17	H	0.601463	0.705954	0.167255
	H18	H	0.604591	0.270824	0.845635
	H19	H	0.396413	0.271499	0.167250
	H20	H	0.719288	0.827139	0.400719
	H21	H	0.718203	0.149383	0.603879
	H22	H	0.282874	0.827606	0.608757
	H23	H	0.283368	0.149397	0.403535
	H24	H	0.900903	0.326552	0.220534
	H25	H	0.103170	0.649755	0.220746
	H26	H	0.103150	0.326256	0.787104
	H27	H	0.901094	0.649153	0.785014
	H28	H	0.221068	0.886429	0.342849
	H29	H	0.217836	0.090471	0.666848
	H30	H	0.784132	0.090047	0.342361
	H31	H	0.781191	0.881890	0.664961
	H32	H	0.340244	0.209052	0.901980
	H33	H	0.661293	0.206729	0.107922
	H34	H	0.338747	0.771460	0.109440
	H35	H	0.660639	0.769239	0.900697
	H36	H	0.338703	0.889122	0.222666
	H37	H	0.662260	0.091140	0.220254
	H38	H	0.339008	0.091882	0.787900
	H39	H	0.661165	0.884899	0.786003
	H40	H	0.900968	0.202754	0.340770
	H41	H	0.104119	0.208062	0.664809
	H42	H	0.103655	0.771588	0.341442
	H43	H	0.897158	0.767063	0.664719
	H44	H	0.220936	0.327964	0.901126
	H45	H	0.215360	0.651742	0.102618
	H46	H	0.782321	0.327707	0.107697
	H47	H	0.782639	0.649579	0.900297
	H48	H	0.406492	0.103476	0.592836
	H49	H	0.592139	0.874947	0.587949
	H50	H	0.599477	0.101496	0.422248
	H51	H	0.413037	0.872930	0.413166
	H52	H	0.587423	0.395872	0.121058
	H53	H	0.590631	0.574529	0.892666
	H54	H	0.410222	0.576158	0.119590
	H55	H	0.403387	0.403905	0.888599
	H56	H	0.114201	0.577419	0.415917
	H57	H	0.886223	0.572086	0.596436
	H58	H	0.116659	0.400238	0.601058
	H59	H	0.888360	0.399062	0.416232
	H60	H	0.118674	0.387272	0.592859
	H61	H	0.883821	0.581138	0.594714
	H62	H	0.116826	0.576663	0.407827
	H63	H	0.883181	0.396759	0.404752
	H64	H	0.409745	0.583723	0.121377
	H65	H	0.586207	0.583688	0.891158
	H66	H	0.594861	0.397416	0.124012
	H67	H	0.419446	0.404577	0.894838
	H68	H	0.597549	0.107912	0.403376
	H69	H	0.595849	0.870027	0.600219
	H70	H	0.408663	0.106064	0.599796
	H71	H	0.410461	0.874018	0.416601
	H72	H	0.910823	0.604447	0.099125
	H73	H	0.091149	0.374243	0.092903
	H74	H	0.094813	0.605042	0.912530
	H75	H	0.907858	0.374128	0.917783
	H76	H	0.090604	0.890689	0.620539
	H77	H	0.108402	0.075310	0.384931
	H78	H	0.914403	0.080210	0.618630
	H79	H	0.909697	0.895988	0.387244
	H80	H	0.616533	0.076248	0.906499
	H81	H	0.380912	0.086333	0.102086
	H82	H	0.616162	0.899562	0.099417
	H83	H	0.384347	0.895298	0.918032
	H84	H	0.616918	0.892743	0.093114
	H85	H	0.385661	0.083291	0.089244
	H86	H	0.618285	0.088343	0.915854
	H87	H	0.387057	0.901927	0.918927
	H88	H	0.906940	0.079805	0.620573
	H89	H	0.084063	0.066856	0.395702
	H90	H	0.095626	0.898205	0.619907
	H91	H	0.909575	0.898613	0.388745
	H92	H	0.092911	0.604964	0.907123
	H93	H	0.095428	0.372856	0.095248
	H94	H	0.914849	0.601606	0.090756
	H95	H	0.907844	0.371710	0.910528
	H96	H	0.413466	0.103443	0.594753
	H97	H	0.583511	0.874241	0.598095
	H98	H	0.581830	0.100095	0.412728
	H99	H	0.408446	0.872585	0.412888
	H100	H	0.590805	0.402845	0.119911
	H101	H	0.596162	0.581958	0.887181
	H102	H	0.402891	0.578944	0.121938
	H103	H	0.413349	0.389567	0.887655
	H104	H	0.117189	0.583883	0.412199
	H105	H	0.887783	0.575892	0.587464
	H106	H	0.112711	0.400390	0.585845
	H107	H	0.883101	0.388677	0.412850
	H108	H	0.905255	0.604435	0.091226
	H109	H	0.091122	0.373281	0.097094
	H110	H	0.090021	0.602156	0.911022
	H111	H	0.914144	0.374443	0.913234
	H112	H	0.086822	0.898058	0.616956
	H113	H	0.086040	0.092544	0.386079
	H114	H	0.910270	0.073283	0.617691
	H115	H	0.912353	0.896858	0.389400
	H116	H	0.612094	0.075457	0.920857
	H117	H	0.385472	0.073956	0.098682
	H118	H	0.614077	0.901175	0.090412
	H119	H	0.385246	0.900168	0.911833
	C120	C	0.378686	-0.002363	0.626973
	C121	C	0.621811	0.979478	0.625692
	C122	C	0.623157	-0.003041	0.381842
	C123	C	0.380246	0.980172	0.384005
	C124	C	0.622150	0.367877	0.015025
	C125	C	0.622139	0.610830	0.996483
	C126	C	0.378520	0.610976	0.014087
	C127	C	0.379597	0.368293	0.996868
	C128	C	0.009527	0.609831	0.381046
	C129	C	0.992621	0.607470	0.623231
	C130	C	0.009349	0.365551	0.624190
	C131	C	0.992176	0.365955	0.381192
	C132	C	0.879707	0.497138	0.125108
	C133	C	0.121913	0.480509	0.124419
	C134	C	0.123428	0.497061	0.880935
	C135	C	0.879067	0.479567	0.882182
	C136	C	0.122753	0.865742	0.512436
	C137	C	0.122799	0.109253	0.495912
	C138	C	0.880565	0.108008	0.512010
	C139	C	0.879090	0.865187	0.494992
	C140	C	0.509131	0.111114	0.883613
	C141	C	0.491259	0.111120	0.126335
	C142	C	0.509140	0.867724	0.126331
	C143	C	0.491723	0.867738	0.884475
	C144	C	0.377915	0.876642	0.685486
	C145	C	0.622177	0.100889	0.682787
	C146	C	0.622717	0.875461	0.323968
	C147	C	0.380807	0.102283	0.327036
	C148	C	0.679372	0.368236	0.892915
	C149	C	0.680414	0.611224	0.117725
	C150	C	0.322485	0.611951	0.891857
	C151	C	0.320965	0.368828	0.118220
	C152	C	0.888109	0.667141	0.380428
	C153	C	0.113854	0.665672	0.623040
	C154	C	0.887358	0.308793	0.624123
	C155	C	0.113966	0.308972	0.380835
	C156	C	0.888445	0.364655	0.683444
	C157	C	0.114181	0.608340	0.680272
	C158	C	0.887963	0.609027	0.323880
	C159	C	0.114739	0.368461	0.325441
	C160	C	0.378671	0.669866	0.892839
	C161	C	0.621484	0.667696	0.118539
	C162	C	0.623106	0.309929	0.893742
	C163	C	0.377807	0.310367	0.118435
	C164	C	0.680501	0.875489	0.381436
	C165	C	0.679650	0.100981	0.624405
	C166	C	0.321590	0.876119	0.627855
	C167	C	0.322372	0.101375	0.384115
	C168	C	0.880678	0.374981	0.182260
	C169	C	0.121888	0.601965	0.181779
	C170	C	0.123066	0.375046	0.825093
	C171	C	0.880406	0.600871	0.823886
	C172	C	0.181547	0.866753	0.391276
	C173	C	0.179808	0.109941	0.617916
	C174	C	0.823310	0.108566	0.390500
	C175	C	0.820508	0.863767	0.616580
	C176	C	0.388341	0.169691	0.883051
	C177	C	0.612923	0.168184	0.126533
	C178	C	0.387243	0.810194	0.127888
	C179	C	0.612568	0.808716	0.882388
	C180	C	0.387194	0.868744	0.184336
	C181	C	0.613365	0.110497	0.182551
	C182	C	0.387855	0.111500	0.825979
	C183	C	0.612746	0.866501	0.825275
	C184	C	0.881282	0.165002	0.389698
	C185	C	0.123076	0.168408	0.616849
	C186	C	0.123262	0.809471	0.390418
	C187	C	0.878435	0.806450	0.616411
	C188	C	0.181872	0.376001	0.881725
	C189	C	0.177650	0.602840	0.122912
	C190	C	0.821873	0.375700	0.125945
	C191	C	0.821707	0.601041	0.881341
	C192	C	0.402756	0.082265	0.602752
	C193	C	0.597725	0.895081	0.602250
	C194	C	0.599755	0.081168	0.405791
	C195	C	0.403964	0.895169	0.407242
	C196	C	0.598155	0.391690	0.099518
	C197	C	0.597965	0.586959	0.912246
	C198	C	0.401252	0.586758	0.099003
	C199	C	0.404800	0.392304	0.912333
	C200	C	0.094266	0.586190	0.405002
	C201	C	0.907968	0.583404	0.599926
	C202	C	0.094128	0.389080	0.600099
	C203	C	0.907093	0.388348	0.404488
	C204	C	0.903382	0.581632	0.100797
	C205	C	0.099182	0.395675	0.101616
	C206	C	0.099565	0.581983	0.903587
	C207	C	0.902782	0.395446	0.906780
	C208	C	0.098115	0.888915	0.597099
	C209	C	0.099607	0.085255	0.411016
	C210	C	0.903777	0.084504	0.596943
	C211	C	0.903391	0.889924	0.410341
	C212	C	0.593795	0.086876	0.907440
	C213	C	0.406159	0.087889	0.103375
	C214	C	0.593553	0.890900	0.101676
	C215	C	0.407409	0.892094	0.909060
	Zn216	Zn	0.499952	-0.011162	0.755325
	Zn217	Zn	0.501024	-0.010337	0.253969
	Zn218	Zn	0.750294	0.488951	0.005015
	Zn219	Zn	0.250845	0.490057	0.003722
	Zn220	Zn	0.000427	0.736879	0.503048
	Zn221	Zn	0.000833	0.236944	0.502473
	Zn222	Zn	0.001585	0.487337	0.752543
	Zn223	Zn	0.001407	0.488433	0.253190
	Zn224	Zn	0.499737	0.738828	0.005754
	Zn225	Zn	0.500781	0.239234	0.006117
	Zn226	Zn	0.751580	-0.012519	0.504064
	Zn227	Zn	0.251648	-0.012106	0.505619
	N228	N	0.412872	0.953193	0.685183
	N229	N	0.587060	0.024452	0.683752
	N230	N	0.587859	0.952013	0.323771
	N231	N	0.416318	0.025889	0.326863
	N232	N	0.679066	0.403338	0.969370
	N233	N	0.680882	0.576557	0.040912
	N234	N	0.322126	0.575879	0.968244
	N235	N	0.321925	0.404264	0.041507
	N236	N	0.964923	0.668113	0.414802
	N237	N	0.037365	0.665162	0.588150
	N238	N	0.963795	0.308869	0.588140
	N239	N	0.036918	0.307317	0.414776
	N240	N	0.965409	0.399055	0.683634
	N241	N	0.037681	0.572849	0.680561
	N242	N	0.964558	0.574064	0.324220
	N243	N	0.037962	0.403186	0.325316
	N244	N	0.412997	0.669188	0.969805
	N245	N	0.585873	0.667576	0.042320
	N246	N	0.588112	0.309631	0.970637
	N247	N	0.413634	0.310052	0.041872
	N248	N	0.681010	0.951893	0.416590
	N249	N	0.679736	0.024237	0.589787
	N250	N	0.321741	0.952553	0.592446
	N251	N	0.322163	0.024420	0.418832
	N252	N	0.915807	0.451418	0.181961
	N253	N	0.087831	0.524914	0.182815
	N254	N	0.087910	0.451496	0.824193
	N255	N	0.915193	0.524289	0.823986
	N256	N	0.181407	0.901072	0.468145
	N257	N	0.179512	0.073675	0.541856
	N258	N	0.822825	0.073732	0.467416
	N259	N	0.820945	0.899727	0.539910
	N260	N	0.464869	0.169544	0.918191
	N261	N	0.535849	0.168891	0.092583
	N262	N	0.463982	0.809172	0.092592
	N263	N	0.536315	0.809211	0.918501
	N264	N	0.463733	0.903746	0.183433
	N265	N	0.536631	0.075794	0.182752
	N266	N	0.464108	0.075810	0.826149
	N267	N	0.536619	0.902611	0.826547
	N268	N	0.916438	0.164833	0.466316
	N269	N	0.088584	0.168460	0.539857
	N270	N	0.087451	0.808405	0.466980
	N271	N	0.913870	0.807191	0.539816
	N272	N	0.182513	0.453094	0.915347
	N273	N	0.177785	0.526482	0.087883
	N274	N	0.821147	0.452687	0.091258
	N275	N	0.820585	0.524500	0.916613
	O276	O	0.456725	0.650329	0.402454
	H277	H	0.456159	0.645865	0.395268
	H278	H	0.457027	0.648756	0.416775
	O279	O	0.376935	0.398720	0.459431
	H280	H	0.382738	0.406856	0.464363
	H281	H	0.379271	0.407029	0.453553
	O282	O	0.991209	0.019179	0.816844
	H283	H	0.999422	0.009048	0.811004
	H284	H	0.997281	0.023068	0.830428
	O285	O	0.916781	1.085807	0.936293
	H286	H	0.908830	1.098521	0.921419
	H287	H	0.912296	1.088746	0.953293
	O288	O	1.007325	0.941263	1.129438
	H289	H	0.991322	0.932797	1.118861
	H290	H	1.006589	0.941161	1.132140
	O291	O	-0.183510	0.958399	-0.033460
	H292	H	-0.182270	0.965897	-0.042094
	H293	H	-0.180126	0.949131	-0.034934
	O294	O	0.674477	0.430473	0.514434
	H295	H	0.676811	0.439677	0.514185
	H296	H	0.674489	0.444231	0.506073
	O297	O	0.449690	0.538155	0.509376
	H298	H	0.468117	0.551629	0.502128
	H299	H	0.442351	0.536849	0.505486
	O300	O	0.567913	0.411439	0.704281
	H301	H	0.593135	0.409795	0.715617
	H302	H	0.565267	0.405166	0.703753
	O303	O	0.461352	0.591108	0.432004
	H304	H	0.456394	0.589360	0.433536
	H305	H	0.455646	0.588991	0.436272
	O306	O	0.637316	0.595491	0.647384
	H307	H	0.635865	0.593543	0.649403
	H308	H	0.631455	0.618182	0.653273
	O309	O	0.563402	0.504087	0.524591
	H310	H	0.577066	0.503952	0.534441
	H311	H	0.563286	0.494869	0.522192
	O312	O	0.052366	0.140870	0.085790
	H313	H	0.038041	0.138083	0.093522
	H314	H	0.066447	0.138120	0.094108
	O315	O	0.699135	1.213752	-0.311066
	H316	H	0.698412	1.218244	-0.307593
	H317	H	0.691771	1.218429	-0.317378
	O318	O	-0.172197	0.961407	0.943978
	H319	H	-0.177672	0.973553	0.952685
	H320	H	-0.169680	0.950459	0.943032
	O321	O	0.920472	-0.015010	0.927273
	H322	H	0.922035	-0.019267	0.934319
	H323	H	0.912206	-0.003379	0.936272
	O324	O	0.635021	0.574094	-0.387692
	H325	H	0.644205	0.568827	-0.400767
	H326	H	0.641310	0.575401	-0.382365
	O327	O	0.565241	0.554198	0.697045
	H328	H	0.550545	0.565360	0.689483
	H329	H	0.569253	0.550715	0.695701
	O330	O	-0.020817	0.040093	1.131930
	H331	H	-0.024552	0.035872	1.128291
	H332	H	-0.014580	0.041284	1.128670
	O333	O	0.057986	-0.005293	0.926416
	H334	H	0.051681	0.009007	0.924492
	H335	H	0.052669	-0.003603	0.932743
	O336	O	0.379573	0.369299	0.530259
	H337	H	0.372875	0.357093	0.532352
	H338	H	0.381212	0.385128	0.527787
	O339	O	1.089239	0.058252	0.032563
	H340	H	1.093875	0.055470	0.034448
	H341	H	1.091210	0.058108	0.033393
	O342	O	0.141912	-0.143002	-0.108641
	H343	H	0.133122	-0.129593	-0.113152
	H344	H	0.135623	-0.136672	-0.105034
	O345	O	0.444042	-0.569262	1.514211
	H346	H	0.438272	-0.561180	1.514879
	H347	H	0.438882	-0.576565	1.517251
	O348	O	0.983081	0.885837	-0.061332
	H349	H	0.987568	0.893678	-0.057517
	H350	H	0.997488	0.888321	-0.065057
	O351	O	0.389639	0.574252	0.490758
	H352	H	0.393544	0.571057	0.506194
	H353	H	0.384973	0.584543	0.493901
	O354	O	0.881108	-0.164807	1.184480
	H355	H	0.873598	-0.178855	1.205701
	H356	H	0.889525	-0.175145	1.180111
	O357	O	0.475810	0.450086	0.486532
	H358	H	0.467834	0.459999	0.484448
	H359	H	0.491525	0.443416	0.485565
	O360	O	0.380725	0.447326	0.471787
	H361	H	0.376559	0.450990	0.494113
	H362	H	0.372621	0.437183	0.479160
	O363	O	0.074874	0.869031	0.924847
	H364	H	0.071969	0.867321	0.909649
	H365	H	0.084952	0.853694	0.915656
	O366	O	0.580578	0.393881	0.384232
	H367	H	0.565745	0.384016	0.392204
	H368	H	0.570721	0.392544	0.379896
	O369	O	0.137822	1.175673	0.061100
	H370	H	0.146166	1.187569	0.069455
	H371	H	0.138315	1.164713	0.060129
	O372	O	-0.039293	1.017545	-0.034050
	H373	H	-0.050646	1.010076	-0.042816
	H374	H	-0.037181	1.025776	-0.030213
	O375	O	0.370749	0.411008	0.536039
	H376	H	0.377904	0.398504	0.530195
	H377	H	0.375788	0.406598	0.536403
	O378	O	0.539114	0.556510	0.601797
	H379	H	0.530544	0.548603	0.605430
	H380	H	0.544345	0.555069	0.594412
	O381	O	0.822676	-0.057718	0.122906
	H382	H	0.826937	-0.066226	0.118390
	H383	H	0.823838	-0.064390	0.140344
	O384	O	1.134518	0.936790	-0.029592
	H385	H	1.140324	0.942856	-0.029472
	H386	H	1.125127	0.947894	-0.040048
	O387	O	-0.077810	0.067395	-0.189592
	H388	H	-0.087915	0.084062	-0.192191
	H389	H	-0.082181	0.086464	-0.193042
	O390	O	-0.007204	0.926913	0.101157
	H391	H	-0.000533	0.925874	0.095882
	H392	H	-0.027005	0.920909	0.109092
	O393	O	1.114203	0.972381	1.159823
	H394	H	1.123284	0.968121	1.169240
	H395	H	1.110974	0.963313	1.160992
	O396	O	0.400069	0.465138	0.348792
	H397	H	0.416810	0.473350	0.350169
	H398	H	0.394865	0.471945	0.345838
	O399	O	0.130370	0.998239	0.943868
	H400	H	0.130782	0.994438	0.944709
	H401	H	0.132372	0.987034	0.947586
	O402	O	0.138383	0.797633	0.140389
	H403	H	0.125010	0.812051	0.141280
	H404	H	0.131206	0.793258	0.146158
	O405	O	1.356088	1.532250	0.648133
	H406	H	1.363614	1.519226	0.643862
	H407	H	1.344548	1.528830	0.669689
	O408	O	0.644506	1.297322	-0.218223
	H409	H	0.644525	1.281378	-0.226215
	H410	H	0.626388	1.307935	-0.211724
	O411	O	0.657230	-0.452166	0.404646
	H412	H	0.645351	-0.455942	0.395392
	H413	H	0.668403	-0.461700	0.406247
	O414	O	0.567432	0.477310	0.443782
	H415	H	0.559075	0.473163	0.438575
	H416	H	0.561171	0.489555	0.444758
	O417	O	0.668213	0.420488	0.548747
	H418	H	0.670944	0.427919	0.545622
	H419	H	0.661976	0.423062	0.545442
