data_Molecule from HDF5

_cell_length_a		16.219610
_cell_length_b		16.301703
_cell_length_c		16.317031
_cell_angle_alpha	89.932237
_cell_angle_beta	90.109156
_cell_angle_gamma	90.040273
_symmetry_space_group_name_H-M	'P 1'
_symmetry_Int_Tables_number		1

loop_
	_symmetry_equiv_pos_as_xyz
	x,y,z

loop_
	_atom_site_label
	_atom_site_type_symbol
	_atom_site_fract_x
	_atom_site_fract_y
	_atom_site_fract_z
	H0	H	0.406580	0.829263	0.711688
	H1	H	0.604835	0.156095	0.711878
	H2	H	0.602965	0.828691	0.283208
	H3	H	0.406381	0.156261	0.282440
	H4	H	0.717244	0.396257	0.831756
	H5	H	0.719491	0.590354	0.159305
	H6	H	0.292302	0.589360	0.831101
	H7	H	0.290875	0.395774	0.159676
	H8	H	0.841196	0.707550	0.397106
	H9	H	0.170061	0.704651	0.592546
	H10	H	0.840669	0.278114	0.593828
	H11	H	0.168941	0.279195	0.398015
	H12	H	0.839911	0.394513	0.708816
	H13	H	0.169157	0.589090	0.708854
	H14	H	0.840426	0.591522	0.281467
	H15	H	0.167827	0.393906	0.281826
	H16	H	0.406055	0.708337	0.833644
	H17	H	0.602099	0.705507	0.160391
	H18	H	0.601625	0.279001	0.833009
	H19	H	0.405106	0.277785	0.159659
	H20	H	0.718583	0.828561	0.400561
	H21	H	0.718628	0.156798	0.592919
	H22	H	0.292011	0.828243	0.593486
	H23	H	0.290527	0.155787	0.398716
	H24	H	0.904950	0.329563	0.211093
	H25	H	0.104225	0.655918	0.211138
	H26	H	0.101438	0.328835	0.783019
	H27	H	0.906242	0.656122	0.781182
	H28	H	0.217712	0.895957	0.332224
	H29	H	0.218254	0.088956	0.660010
	H30	H	0.790771	0.090736	0.332361
	H31	H	0.791170	0.893857	0.659621
	H32	H	0.340422	0.206411	0.897357
	H33	H	0.668151	0.207423	0.095533
	H34	H	0.339701	0.779968	0.093838
	H35	H	0.668943	0.779027	0.899241
	H36	H	0.340357	0.894929	0.210834
	H37	H	0.668613	0.091708	0.211250
	H38	H	0.341064	0.092109	0.780928
	H39	H	0.669025	0.894563	0.783092
	H40	H	0.906399	0.207615	0.332351
	H41	H	0.104949	0.208168	0.659009
	H42	H	0.104760	0.777718	0.332837
	H43	H	0.906584	0.776736	0.658784
	H44	H	0.217690	0.328801	0.899192
	H45	H	0.217861	0.656215	0.092465
	H46	H	0.789725	0.329536	0.094115
	H47	H	0.791298	0.657057	0.897634
	H48	H	0.403175	0.109160	0.580861
	H49	H	0.591153	0.878139	0.591193
	H50	H	0.597236	0.109778	0.398386
	H51	H	0.407339	0.874839	0.402475
	H52	H	0.601519	0.398806	0.114285
	H53	H	0.601943	0.578008	0.880784
	H54	H	0.413100	0.578035	0.109324
	H55	H	0.398487	0.407631	0.878520
	H56	H	0.116542	0.574714	0.411348
	H57	H	0.886169	0.586362	0.594930
	H58	H	0.122312	0.398368	0.591234
	H59	H	0.889559	0.401597	0.409926
	H60	H	0.121571	0.399088	0.588076
	H61	H	0.886521	0.591572	0.584908
	H62	H	0.125197	0.582268	0.389034
	H63	H	0.887191	0.404633	0.396998
	H64	H	0.416236	0.594819	0.113234
	H65	H	0.588198	0.588801	0.882029
	H66	H	0.595656	0.403891	0.109765
	H67	H	0.423449	0.403378	0.884475
	H68	H	0.594273	0.106351	0.405963
	H69	H	0.601984	0.877444	0.584840
	H70	H	0.409024	0.113503	0.601054
	H71	H	0.413831	0.875723	0.399178
	H72	H	0.918184	0.606802	0.085464
	H73	H	0.105814	0.373920	0.087476
	H74	H	0.100727	0.606533	0.912439
	H75	H	0.903931	0.375533	0.908051
	H76	H	0.101103	0.897941	0.613509
	H77	H	0.090241	0.088950	0.381602
	H78	H	0.911253	0.078480	0.610562
	H79	H	0.920658	0.906599	0.384499
	H80	H	0.622061	0.085357	0.901028
	H81	H	0.387857	0.086153	0.087296
	H82	H	0.624590	0.897138	0.096523
	H83	H	0.390564	0.899055	0.913524
	H84	H	0.621464	0.895199	0.086156
	H85	H	0.388146	0.082891	0.089973
	H86	H	0.622034	0.088410	0.905822
	H87	H	0.388352	0.910016	0.898305
	H88	H	0.920832	0.088194	0.610495
	H89	H	0.103249	0.092697	0.376138
	H90	H	0.097355	0.899510	0.612062
	H91	H	0.914444	0.888841	0.376867
	H92	H	0.107148	0.614644	0.894614
	H93	H	0.094378	0.374640	0.098450
	H94	H	0.906805	0.609678	0.085837
	H95	H	0.909549	0.374077	0.894020
	H96	H	0.423245	0.104857	0.587730
	H97	H	0.601250	0.873300	0.596473
	H98	H	0.602308	0.109685	0.404910
	H99	H	0.413630	0.877635	0.406446
	H100	H	0.593958	0.395780	0.112808
	H101	H	0.603608	0.594617	0.876028
	H102	H	0.401013	0.587635	0.116134
	H103	H	0.409280	0.384320	0.875309
	H104	H	0.124354	0.598802	0.407903
	H105	H	0.889601	0.580513	0.585892
	H106	H	0.121919	0.401484	0.590465
	H107	H	0.884799	0.392143	0.401885
	H108	H	0.913137	0.610848	0.095421
	H109	H	0.091506	0.379389	0.083427
	H110	H	0.087725	0.607827	0.897018
	H111	H	0.918537	0.379846	0.905312
	H112	H	0.097665	0.895433	0.612578
	H113	H	0.100946	0.079190	0.381061
	H114	H	0.907852	0.090826	0.614923
	H115	H	0.901515	0.904328	0.377797
	H116	H	0.620231	0.083340	0.906363
	H117	H	0.386020	0.086680	0.091449
	H118	H	0.619736	0.904823	0.089546
	H119	H	0.384335	0.891411	0.897459
	C120	C	0.383682	0.000964	0.618114
	C121	C	0.626968	0.984397	0.618634
	C122	C	0.626416	0.000764	0.375213
	C123	C	0.383083	0.984162	0.374762
	C124	C	0.625523	0.371575	0.004283
	C125	C	0.625986	0.614733	0.987647
	C126	C	0.382552	0.614659	0.004442
	C127	C	0.382317	0.370543	0.987924
	C128	C	0.013431	0.613952	0.374145
	C129	C	0.996410	0.613668	0.616601
	C130	C	0.013151	0.371021	0.617744
	C131	C	0.995675	0.371331	0.374765
	C132	C	0.883287	0.501056	0.117175
	C133	C	0.126007	0.484103	0.117909
	C134	C	0.126004	0.501293	0.874013
	C135	C	0.882617	0.484585	0.873999
	C136	C	0.126816	0.870192	0.504609
	C137	C	0.126979	0.114754	0.487938
	C138	C	0.884373	0.114093	0.503937
	C139	C	0.883973	0.871367	0.487814
	C140	C	0.513038	0.114169	0.874825
	C141	C	0.496020	0.114142	0.118082
	C142	C	0.513085	0.871165	0.118701
	C143	C	0.496430	0.871763	0.875425
	C144	C	0.386106	0.877855	0.673305
	C145	C	0.624985	0.107461	0.673380
	C146	C	0.623460	0.877310	0.321173
	C147	C	0.385677	0.107304	0.320008
	C148	C	0.679747	0.375204	0.880853
	C149	C	0.681147	0.611293	0.110895
	C150	C	0.329136	0.610586	0.880566
	C151	C	0.327975	0.374286	0.110891
	C152	C	0.889907	0.669508	0.376633
	C153	C	0.120540	0.667892	0.613569
	C154	C	0.889630	0.316089	0.614447
	C155	C	0.119762	0.317153	0.377805
	C156	C	0.889281	0.373760	0.671740
	C157	C	0.120160	0.610501	0.671276
	C158	C	0.889543	0.611869	0.319208
	C159	C	0.119336	0.373725	0.319944
	C160	C	0.385828	0.669567	0.881696
	C161	C	0.623244	0.668655	0.111235
	C162	C	0.622864	0.316501	0.881606
	C163	C	0.385081	0.315852	0.110803
	C164	C	0.680830	0.877227	0.379170
	C165	C	0.682012	0.107565	0.615062
	C166	C	0.329187	0.877381	0.614860
	C167	C	0.328345	0.107233	0.377876
	C168	C	0.884769	0.378417	0.172786
	C169	C	0.124190	0.607033	0.173167
	C170	C	0.122375	0.377554	0.820446
	C171	C	0.885514	0.607447	0.818891
	C172	C	0.180778	0.874570	0.381177
	C173	C	0.180897	0.110295	0.611070
	C174	C	0.828715	0.111467	0.381191
	C175	C	0.829113	0.873621	0.610802
	C176	C	0.389409	0.168604	0.876921
	C177	C	0.619427	0.169434	0.115718
	C178	C	0.389095	0.816952	0.115294
	C179	C	0.619980	0.816883	0.878617
	C180	C	0.389288	0.874271	0.172982
	C181	C	0.619584	0.111957	0.173322
	C182	C	0.389934	0.112076	0.818838
	C183	C	0.620030	0.874083	0.820854
	C184	C	0.886024	0.169676	0.381099
	C185	C	0.124771	0.169599	0.610507
	C186	C	0.124526	0.815987	0.381423
	C187	C	0.885947	0.815075	0.610219
	C188	C	0.180138	0.377557	0.878069
	C189	C	0.180699	0.607367	0.114247
	C190	C	0.827589	0.378339	0.114512
	C191	C	0.828442	0.607999	0.876943
	C192	C	0.405399	0.086904	0.596352
	C193	C	0.604659	0.898650	0.597226
	C194	C	0.604490	0.086515	0.396774
	C195	C	0.405144	0.898314	0.396356
	C196	C	0.603708	0.393176	0.089970
	C197	C	0.604318	0.593435	0.901861
	C198	C	0.403791	0.593109	0.090757
	C199	C	0.404020	0.392011	0.901577
	C200	C	0.099676	0.591738	0.396002
	C201	C	0.909740	0.592340	0.594943
	C202	C	0.099600	0.393185	0.596346
	C203	C	0.909581	0.393011	0.396615
	C204	C	0.905969	0.587080	0.095288
	C205	C	0.103824	0.398183	0.096232
	C206	C	0.104794	0.587329	0.894932
	C207	C	0.904149	0.398632	0.896091
	C208	C	0.105032	0.891393	0.590668
	C209	C	0.104752	0.093301	0.401856
	C210	C	0.906857	0.092255	0.589877
	C211	C	0.905905	0.893329	0.401912
	C212	C	0.599317	0.092201	0.897786
	C213	C	0.409587	0.091879	0.096003
	C214	C	0.599491	0.892779	0.097130
	C215	C	0.410134	0.893709	0.896738
	Zn216	Zn	0.505174	-0.006971	0.747048
	Zn217	Zn	0.504652	-0.007397	0.246449
	Zn218	Zn	0.754631	0.493239	-0.004337
	Zn219	Zn	0.254302	0.492580	-0.004381
	Zn220	Zn	0.005317	0.742113	0.495397
	Zn221	Zn	0.005166	0.243390	0.495874
	Zn222	Zn	0.004284	0.492288	0.745533
	Zn223	Zn	0.004528	0.492344	0.246638
	Zn224	Zn	0.504510	0.743506	-0.003055
	Zn225	Zn	0.503900	0.241954	-0.003600
	Zn226	Zn	0.755554	-0.007429	0.496278
	Zn227	Zn	0.254867	-0.007958	0.496385
	N228	N	0.419420	0.955560	0.675435
	N229	N	0.591548	0.029989	0.675929
	N230	N	0.590305	0.954956	0.318599
	N231	N	0.419074	0.029773	0.318108
	N232	N	0.681757	0.408643	0.958192
	N233	N	0.683273	0.578766	0.033301
	N234	N	0.327065	0.577004	0.958077
	N235	N	0.326469	0.407744	0.033478
	N236	N	0.967949	0.671018	0.409942
	N237	N	0.042531	0.669867	0.580398
	N238	N	0.967709	0.314446	0.581633
	N239	N	0.042014	0.315526	0.411210
	N240	N	0.967196	0.407284	0.673839
	N241	N	0.041988	0.577660	0.673466
	N242	N	0.967199	0.578021	0.317715
	N243	N	0.041299	0.406706	0.317875
	N244	N	0.418305	0.672053	0.959577
	N245	N	0.589640	0.670976	0.033679
	N246	N	0.589742	0.314170	0.959059
	N247	N	0.418000	0.313673	0.033067
	N248	N	0.682860	0.954941	0.412035
	N249	N	0.683335	0.030103	0.581654
	N250	N	0.327510	0.954872	0.581289
	N251	N	0.326766	0.029878	0.411328
	N252	N	0.918901	0.455683	0.174346
	N253	N	0.090930	0.529430	0.175586
	N254	N	0.089668	0.455302	0.817536
	N255	N	0.918768	0.529810	0.817103
	N256	N	0.182392	0.907737	0.458849
	N257	N	0.182052	0.076687	0.533856
	N258	N	0.827375	0.077962	0.458634
	N259	N	0.827723	0.907753	0.533652
	N260	N	0.466969	0.169979	0.911058
	N261	N	0.541463	0.171221	0.082510
	N262	N	0.467084	0.814911	0.082218
	N263	N	0.542221	0.815533	0.912049
	N264	N	0.467352	0.907052	0.175204
	N265	N	0.541846	0.078123	0.174679
	N266	N	0.467819	0.078706	0.817784
	N267	N	0.542346	0.907699	0.818954
	N268	N	0.919921	0.171291	0.458378
	N269	N	0.091872	0.172470	0.532696
	N270	N	0.091811	0.813198	0.459018
	N271	N	0.919650	0.813755	0.532936
	N272	N	0.182471	0.455386	0.910629
	N273	N	0.181924	0.530127	0.080554
	N274	N	0.826542	0.455810	0.080824
	N275	N	0.826535	0.530572	0.910360
	O276	O	0.972898	0.018248	0.932841
	H277	H	0.974205	0.017104	0.929237
	H278	H	0.969039	0.010665	0.930355
	O279	O	-0.054163	1.028340	0.937697
	H280	H	-0.042246	1.032523	0.932382
	H281	H	-0.051225	1.029170	0.939207
	O282	O	0.956269	1.004860	-0.074559
	H283	H	0.949638	1.004154	-0.072060
	H284	H	0.951859	1.005006	-0.079964
	O285	O	-0.081184	1.009093	0.927440
	H286	H	-0.085073	1.016143	0.927139
	H287	H	-0.085917	1.007864	0.926459
