data_Molecule from HDF5

_cell_length_a		16.263502
_cell_length_b		16.263832
_cell_length_c		16.229390
_cell_angle_alpha	89.908378
_cell_angle_beta	90.044779
_cell_angle_gamma	89.872543
_symmetry_space_group_name_H-M	'P 1'
_symmetry_Int_Tables_number		1

loop_
	_symmetry_equiv_pos_as_xyz
	x,y,z

loop_
	_atom_site_label
	_atom_site_type_symbol
	_atom_site_fract_x
	_atom_site_fract_y
	_atom_site_fract_z
	H0	H	0.400791	0.829132	0.708871
	H1	H	0.596341	0.156831	0.709502
	H2	H	0.597049	0.828634	0.281701
	H3	H	0.400171	0.156557	0.280076
	H4	H	0.714643	0.393520	0.831635
	H5	H	0.713739	0.591580	0.159136
	H6	H	0.283551	0.591997	0.832226
	H7	H	0.283985	0.392583	0.159070
	H8	H	0.835348	0.708779	0.397476
	H9	H	0.162642	0.708227	0.595443
	H10	H	0.834715	0.280541	0.596147
	H11	H	0.162119	0.278945	0.399168
	H12	H	0.834748	0.397692	0.709827
	H13	H	0.162984	0.592056	0.710728
	H14	H	0.835273	0.593568	0.281434
	H15	H	0.163096	0.393868	0.282850
	H16	H	0.399474	0.706870	0.831623
	H17	H	0.597820	0.706661	0.159359
	H18	H	0.598974	0.277085	0.831458
	H19	H	0.400625	0.277961	0.159294
	H20	H	0.715881	0.830492	0.395230
	H21	H	0.712350	0.157569	0.594412
	H22	H	0.285109	0.829683	0.593436
	H23	H	0.283797	0.157258	0.395260
	H24	H	0.900566	0.329684	0.211589
	H25	H	0.099725	0.656952	0.211127
	H26	H	0.098439	0.329682	0.782323
	H27	H	0.901145	0.657343	0.782534
	H28	H	0.211869	0.895958	0.331622
	H29	H	0.213851	0.091945	0.659756
	H30	H	0.785337	0.093094	0.331688
	H31	H	0.785108	0.896327	0.660146
	H32	H	0.336425	0.209890	0.894104
	H33	H	0.661942	0.206040	0.094791
	H34	H	0.334750	0.778348	0.093893
	H35	H	0.662460	0.777366	0.896550
	H36	H	0.334827	0.894154	0.209337
	H37	H	0.661985	0.090759	0.209558
	H38	H	0.334994	0.091035	0.781595
	H39	H	0.663129	0.893098	0.780754
	H40	H	0.899219	0.209920	0.332831
	H41	H	0.097331	0.207095	0.660498
	H42	H	0.097938	0.779203	0.332829
	H43	H	0.900481	0.780331	0.661025
	H44	H	0.213757	0.329735	0.897436
	H45	H	0.215275	0.656057	0.095978
	H46	H	0.785394	0.329246	0.094973
	H47	H	0.783903	0.656630	0.895743
	H48	H	0.406602	0.111099	0.591474
	H49	H	0.587978	0.877877	0.586051
	H50	H	0.598365	0.111220	0.404171
	H51	H	0.402938	0.876701	0.405768
	H52	H	0.589795	0.390908	0.113488
	H53	H	0.609660	0.582109	0.873492
	H54	H	0.407136	0.587278	0.113381
	H55	H	0.406035	0.393084	0.876074
	H56	H	0.117517	0.582410	0.393284
	H57	H	0.878679	0.587421	0.600999
	H58	H	0.117859	0.386972	0.584994
	H59	H	0.882414	0.401418	0.405355
	H60	H	0.110596	0.410510	0.580750
	H61	H	0.880787	0.597596	0.584072
	H62	H	0.118228	0.597420	0.405075
	H63	H	0.882657	0.404536	0.403815
	H64	H	0.405282	0.584219	0.113230
	H65	H	0.581115	0.571487	0.886552
	H66	H	0.600888	0.400866	0.113953
	H67	H	0.399593	0.404727	0.877827
	H68	H	0.589401	0.110757	0.394486
	H69	H	0.596224	0.876592	0.584873
	H70	H	0.407625	0.108946	0.585921
	H71	H	0.403114	0.874723	0.398855
	H72	H	0.906526	0.607633	0.084035
	H73	H	0.089312	0.375596	0.093672
	H74	H	0.093778	0.608110	0.911714
	H75	H	0.897386	0.370745	0.896625
	H76	H	0.080331	0.905134	0.608998
	H77	H	0.086461	0.096863	0.378151
	H78	H	0.898416	0.076331	0.612577
	H79	H	0.897498	0.903368	0.376279
	H80	H	0.616376	0.083303	0.900241
	H81	H	0.380508	0.086118	0.092123
	H82	H	0.615628	0.900303	0.088834
	H83	H	0.380165	0.895213	0.900342
	H84	H	0.615683	0.897048	0.089706
	H85	H	0.380853	0.089587	0.083479
	H86	H	0.615635	0.087367	0.903775
	H87	H	0.383586	0.899539	0.905575
	H88	H	0.917866	0.086894	0.609698
	H89	H	0.100672	0.086119	0.376497
	H90	H	0.093436	0.887867	0.617655
	H91	H	0.912323	0.908567	0.383549
	H92	H	0.098144	0.614095	0.897394
	H93	H	0.090069	0.379030	0.085420
	H94	H	0.902912	0.611252	0.089026
	H95	H	0.918033	0.378662	0.897398
	H96	H	0.401791	0.111740	0.587710
	H97	H	0.592823	0.874825	0.592860
	H98	H	0.585724	0.107157	0.406091
	H99	H	0.408380	0.877481	0.402153
	H100	H	0.587327	0.404987	0.108805
	H101	H	0.584369	0.602476	0.875062
	H102	H	0.408995	0.584093	0.111603
	H103	H	0.413362	0.403514	0.881229
	H104	H	0.110872	0.580469	0.412328
	H105	H	0.886247	0.578894	0.584417
	H106	H	0.119869	0.403150	0.603415
	H107	H	0.881800	0.401487	0.401700
	H108	H	0.909578	0.610014	0.090341
	H109	H	0.096470	0.374999	0.090148
	H110	H	0.083147	0.608536	0.899926
	H111	H	0.905071	0.379345	0.915382
	H112	H	0.102511	0.908563	0.614066
	H113	H	0.085193	0.079886	0.383028
	H114	H	0.900107	0.098054	0.618005
	H115	H	0.910608	0.892574	0.377913
	H116	H	0.614161	0.082038	0.905281
	H117	H	0.383617	0.081285	0.085269
	H118	H	0.614268	0.898542	0.086558
	H119	H	0.382231	0.901743	0.898468
	C120	C	0.377052	0.002105	0.616568
	C121	C	0.620420	0.984804	0.616615
	C122	C	0.620320	0.001676	0.373092
	C123	C	0.376567	0.984557	0.373498
	C124	C	0.621321	0.370393	0.003829
	C125	C	0.620191	0.613948	0.986863
	C126	C	0.377878	0.613805	0.004306
	C127	C	0.377672	0.371251	0.986768
	C128	C	0.007675	0.615811	0.374364
	C129	C	0.990466	0.615881	0.618225
	C130	C	0.007715	0.372074	0.618535
	C131	C	0.990414	0.372979	0.375320
	C132	C	0.877561	0.501549	0.117310
	C133	C	0.121179	0.484662	0.118350
	C134	C	0.120823	0.501927	0.874506
	C135	C	0.877467	0.484516	0.874171
	C136	C	0.120249	0.872340	0.504859
	C137	C	0.119978	0.115583	0.487801
	C138	C	0.876806	0.116074	0.504844
	C139	C	0.877838	0.872822	0.487668
	C140	C	0.507647	0.114026	0.873897
	C141	C	0.489344	0.114155	0.116264
	C142	C	0.506863	0.870203	0.116894
	C143	C	0.490462	0.870148	0.873042
	C144	C	0.380374	0.878273	0.671109
	C145	C	0.617261	0.108059	0.671682
	C146	C	0.617719	0.877917	0.319058
	C147	C	0.379358	0.107825	0.317911
	C148	C	0.676441	0.373113	0.880391
	C149	C	0.675707	0.611635	0.110370
	C150	C	0.321970	0.611942	0.881039
	C151	C	0.321925	0.372470	0.109982
	C152	C	0.884193	0.670847	0.376920
	C153	C	0.113781	0.670505	0.615835
	C154	C	0.883747	0.318261	0.616223
	C155	C	0.113562	0.317104	0.378140
	C156	C	0.883951	0.376173	0.672895
	C157	C	0.113997	0.612809	0.672994
	C158	C	0.884618	0.614098	0.318511
	C159	C	0.113831	0.374305	0.320509
	C160	C	0.379660	0.668916	0.880721
	C161	C	0.618549	0.669409	0.110225
	C162	C	0.619332	0.314940	0.880451
	C163	C	0.380158	0.315796	0.110243
	C164	C	0.676832	0.878789	0.375433
	C165	C	0.674925	0.108355	0.614359
	C166	C	0.323088	0.878386	0.613477
	C167	C	0.321297	0.108026	0.375023
	C168	C	0.880195	0.378445	0.173007
	C169	C	0.119490	0.607953	0.173260
	C170	C	0.118452	0.378581	0.819969
	C171	C	0.880240	0.608056	0.819780
	C172	C	0.174933	0.875100	0.381042
	C173	C	0.175562	0.112635	0.611123
	C174	C	0.822010	0.113849	0.381195
	C175	C	0.823003	0.875423	0.611397
	C176	C	0.384909	0.170972	0.874601
	C177	C	0.613012	0.168468	0.114669
	C178	C	0.383660	0.815796	0.114324
	C179	C	0.613610	0.815248	0.875890
	C180	C	0.383714	0.873373	0.171730
	C181	C	0.612824	0.111062	0.171810
	C182	C	0.384301	0.112164	0.818429
	C183	C	0.613838	0.872736	0.818150
	C184	C	0.878636	0.172176	0.381637
	C185	C	0.117460	0.169790	0.611484
	C186	C	0.118148	0.817081	0.381488
	C187	C	0.880100	0.817594	0.611437
	C188	C	0.175825	0.378563	0.877460
	C189	C	0.176954	0.607612	0.115932
	C190	C	0.822924	0.378263	0.115082
	C191	C	0.821776	0.607547	0.875932
	C192	C	0.398732	0.088283	0.594715
	C193	C	0.598770	0.898579	0.594237
	C194	C	0.597771	0.087591	0.395107
	C195	C	0.398365	0.898542	0.395848
	C196	C	0.598999	0.392466	0.089848
	C197	C	0.598208	0.591875	0.900603
	C198	C	0.400486	0.591602	0.090445
	C199	C	0.399880	0.393591	0.900543
	C200	C	0.093315	0.593444	0.397015
	C201	C	0.904243	0.594382	0.596404
	C202	C	0.093718	0.393520	0.596126
	C203	C	0.904683	0.395607	0.397340
	C204	C	0.899856	0.587369	0.094428
	C205	C	0.098815	0.398849	0.096315
	C206	C	0.098481	0.588087	0.896632
	C207	C	0.900145	0.398283	0.896559
	C208	C	0.098589	0.894232	0.591290
	C209	C	0.097311	0.093979	0.401591
	C210	C	0.898950	0.093700	0.591083
	C211	C	0.900098	0.894930	0.401514
	C212	C	0.593321	0.091196	0.896549
	C213	C	0.403763	0.092275	0.093544
	C214	C	0.593020	0.892152	0.094744
	C215	C	0.404113	0.892332	0.894865
	Zn216	Zn	0.498830	-0.006973	0.745137
	Zn217	Zn	0.498036	-0.007227	0.244715
	Zn218	Zn	0.749133	0.492691	-0.004663
	Zn219	Zn	0.249498	0.492681	-0.004012
	Zn220	Zn	-0.000918	0.744130	0.496345
	Zn221	Zn	-0.001775	0.244409	0.496598
	Zn222	Zn	-0.000577	0.493580	0.746155
	Zn223	Zn	-0.000727	0.493683	0.246111
	Zn224	Zn	0.498700	0.741960	-0.004720
	Zn225	Zn	0.499130	0.242658	-0.004611
	Zn226	Zn	0.748798	-0.006136	0.495623
	Zn227	Zn	0.248120	-0.006248	0.495551
	N228	N	0.413440	0.956193	0.673044
	N229	N	0.583892	0.030363	0.673038
	N230	N	0.583415	0.955404	0.317431
	N231	N	0.412813	0.030112	0.316746
	N232	N	0.677991	0.406568	0.958122
	N233	N	0.676914	0.577932	0.032657
	N234	N	0.320937	0.578228	0.958844
	N235	N	0.320391	0.406289	0.032206
	N236	N	0.961625	0.672306	0.410681
	N237	N	0.036087	0.672259	0.582218
	N238	N	0.961610	0.315463	0.583073
	N239	N	0.035935	0.316129	0.411640
	N240	N	0.961878	0.408979	0.674401
	N241	N	0.036253	0.579653	0.674726
	N242	N	0.962408	0.580537	0.316792
	N243	N	0.036279	0.408323	0.318664
	N244	N	0.413549	0.670340	0.958484
	N245	N	0.584618	0.670725	0.032576
	N246	N	0.585697	0.313255	0.958259
	N247	N	0.414192	0.315024	0.032521
	N248	N	0.678486	0.956641	0.408403
	N249	N	0.676876	0.030642	0.580832
	N250	N	0.320804	0.956260	0.580451
	N251	N	0.319400	0.030501	0.408845
	N252	N	0.913394	0.456163	0.174528
	N253	N	0.085325	0.530685	0.174663
	N254	N	0.084643	0.456225	0.818255
	N255	N	0.914157	0.530615	0.818737
	N256	N	0.176137	0.908766	0.458722
	N257	N	0.177252	0.079704	0.533277
	N258	N	0.820823	0.079731	0.458798
	N259	N	0.821398	0.909036	0.533652
	N260	N	0.462483	0.172223	0.908445
	N261	N	0.535538	0.170513	0.080825
	N262	N	0.461406	0.813891	0.080993
	N263	N	0.535859	0.813577	0.909024
	N264	N	0.461421	0.906420	0.173614
	N265	N	0.535141	0.077805	0.172931
	N266	N	0.461450	0.077215	0.818092
	N267	N	0.536040	0.906357	0.816243
	N268	N	0.911969	0.173759	0.459548
	N269	N	0.083763	0.171862	0.533544
	N270	N	0.084997	0.815266	0.459435
	N271	N	0.913630	0.816006	0.533432
	N272	N	0.177303	0.456256	0.910653
	N273	N	0.178333	0.529880	0.082556
	N274	N	0.821011	0.455959	0.081411
	N275	N	0.819948	0.529483	0.909057
	O276	O	0.937733	1.011961	0.035406
	H277	H	0.951312	1.014201	0.044323
	H278	H	0.934530	1.008764	0.026648
	O279	O	-0.049866	-0.055013	0.012802
	H280	H	-0.047291	-0.059632	0.006188
	H281	H	-0.044779	-0.062606	0.017144
	O282	O	-0.100856	-0.008176	1.038793
	H283	H	-0.101090	-0.006387	1.036915
	H284	H	-0.107314	-0.021656	1.044933
	O285	O	0.556508	0.508147	0.440145
	H286	H	0.549574	0.509671	0.430404
	H287	H	0.550094	0.510523	0.435820
	O288	O	0.526059	0.452548	0.457080
	H289	H	0.527742	0.457332	0.451983
	H290	H	0.521339	0.447306	0.457465
	O291	O	0.491565	0.473697	0.464898
	H292	H	0.488207	0.466131	0.462207
	H293	H	0.500903	0.473439	0.465685
	O294	O	0.022266	-0.071971	0.051077
	H295	H	0.027397	-0.063684	0.062251
	H296	H	0.025194	-0.075360	0.054706
	O297	O	0.515287	0.524180	0.485099
	H298	H	0.522343	0.520778	0.480399
	H299	H	0.523287	0.516763	0.484326
	O300	O	-0.075047	1.026073	1.027513
	H301	H	-0.078873	1.039119	1.027335
	H302	H	-0.076056	1.025171	1.014073
	O303	O	0.432572	0.494865	0.464319
	H304	H	0.437539	0.494623	0.462573
	H305	H	0.435128	0.504717	0.469622
	O306	O	-0.020737	-0.020238	1.029546
	H307	H	-0.026413	-0.027615	1.027042
	H308	H	-0.023886	-0.014379	1.036137
	O309	O	0.944009	1.015271	1.027845
	H310	H	0.943232	1.018836	1.031390
	H311	H	0.937177	1.017530	1.032715
	O312	O	0.779628	0.716245	0.720654
	H313	H	0.781051	0.718006	0.719830
	H314	H	0.766466	0.723162	0.713374
	O315	O	0.426429	0.525544	0.462671
	H316	H	0.428628	0.530536	0.465524
	H317	H	0.427338	0.527593	0.467412
	O318	O	-0.047129	1.021843	-0.065496
	H319	H	-0.044207	1.019316	-0.069672
	H320	H	-0.042649	1.022568	-0.064413
	O321	O	1.486883	1.553659	0.448121
	H322	H	1.486393	1.552598	0.450511
	H323	H	1.480520	1.546829	0.449239
