data_Molecule from HDF5

_cell_length_a		16.331303
_cell_length_b		16.088756
_cell_length_c		16.335753
_cell_angle_alpha	90.277585
_cell_angle_beta	89.888041
_cell_angle_gamma	89.897141
_symmetry_space_group_name_H-M	'P 1'
_symmetry_Int_Tables_number		1

loop_
	_symmetry_equiv_pos_as_xyz
	x,y,z

loop_
	_atom_site_label
	_atom_site_type_symbol
	_atom_site_fract_x
	_atom_site_fract_y
	_atom_site_fract_z
	H0	H	0.401490	0.831200	0.714994
	H1	H	0.598800	0.161241	0.716297
	H2	H	0.601293	0.832122	0.286393
	H3	H	0.402233	0.162422	0.289823
	H4	H	0.719231	0.395511	0.839329
	H5	H	0.718582	0.598183	0.164617
	H6	H	0.285792	0.598274	0.839873
	H7	H	0.285858	0.397183	0.164541
	H8	H	0.836491	0.708235	0.407095
	H9	H	0.164877	0.710163	0.598080
	H10	H	0.836722	0.285219	0.597543
	H11	H	0.165224	0.282934	0.403906
	H12	H	0.838475	0.397592	0.717666
	H13	H	0.163324	0.599329	0.719150
	H14	H	0.838467	0.597313	0.284992
	H15	H	0.163577	0.394643	0.283749
	H16	H	0.405641	0.709439	0.838648
	H17	H	0.600089	0.712109	0.164733
	H18	H	0.600544	0.281107	0.838543
	H19	H	0.407763	0.286348	0.167080
	H20	H	0.715800	0.832312	0.401177
	H21	H	0.713593	0.161805	0.600863
	H22	H	0.286078	0.831259	0.600385
	H23	H	0.286549	0.161082	0.403588
	H24	H	0.904392	0.331375	0.213691
	H25	H	0.099558	0.662049	0.216358
	H26	H	0.103529	0.332520	0.784967
	H27	H	0.903374	0.662745	0.789403
	H28	H	0.218026	0.893895	0.338909
	H29	H	0.216249	0.097244	0.664062
	H30	H	0.784249	0.096967	0.338587
	H31	H	0.783754	0.896279	0.663564
	H32	H	0.337935	0.210668	0.906953
	H33	H	0.667168	0.208318	0.097538
	H34	H	0.338257	0.783605	0.098659
	H35	H	0.664947	0.781519	0.903537
	H36	H	0.339133	0.896130	0.218058
	H37	H	0.664842	0.096807	0.217792
	H38	H	0.339050	0.099100	0.786119
	H39	H	0.663241	0.893524	0.783379
	H40	H	0.904490	0.208938	0.336756
	H41	H	0.097670	0.210782	0.665144
	H42	H	0.098128	0.781641	0.337544
	H43	H	0.904287	0.785924	0.665623
	H44	H	0.217738	0.332411	0.901086
	H45	H	0.215980	0.662430	0.102242
	H46	H	0.789453	0.331368	0.100340
	H47	H	0.788125	0.661873	0.903977
	H48	H	0.410602	0.113980	0.596284
	H49	H	0.593228	0.875434	0.601467
	H50	H	0.597207	0.117168	0.408499
	H51	H	0.409087	0.880048	0.414938
	H52	H	0.602191	0.406106	0.119291
	H53	H	0.591503	0.590771	0.886650
	H54	H	0.409917	0.594216	0.118743
	H55	H	0.414694	0.406602	0.888574
	H56	H	0.116779	0.588975	0.407969
	H57	H	0.882482	0.594139	0.599142
	H58	H	0.118537	0.398642	0.593374
	H59	H	0.888355	0.410890	0.411184
	H60	H	0.114167	0.407777	0.588989
	H61	H	0.885691	0.590111	0.592656
	H62	H	0.116340	0.587485	0.408925
	H63	H	0.882734	0.405809	0.397884
	H64	H	0.404185	0.587532	0.118923
	H65	H	0.601597	0.590326	0.883591
	H66	H	0.593640	0.406324	0.116341
	H67	H	0.409718	0.398021	0.884506
	H68	H	0.591712	0.114996	0.406599
	H69	H	0.585061	0.882098	0.588326
	H70	H	0.407161	0.113801	0.592491
	H71	H	0.404426	0.876047	0.405729
	H72	H	0.909733	0.616207	0.099384
	H73	H	0.100315	0.376043	0.099349
	H74	H	0.090324	0.611987	0.914668
	H75	H	0.911225	0.376887	0.901525
	H76	H	0.098403	0.902576	0.618181
	H77	H	0.090306	0.084852	0.388234
	H78	H	0.900695	0.088383	0.618034
	H79	H	0.903010	0.899978	0.382276
	H80	H	0.616609	0.080797	0.903245
	H81	H	0.385831	0.090298	0.098208
	H82	H	0.619405	0.897533	0.092575
	H83	H	0.385243	0.911271	0.899399
	H84	H	0.615174	0.910029	0.092141
	H85	H	0.386207	0.091082	0.096185
	H86	H	0.620342	0.094358	0.904821
	H87	H	0.382218	0.894376	0.907809
	H88	H	0.910730	0.085938	0.614336
	H89	H	0.093533	0.094721	0.383073
	H90	H	0.095302	0.909381	0.616320
	H91	H	0.905278	0.907812	0.385918
	H92	H	0.101048	0.616018	0.912432
	H93	H	0.086482	0.381049	0.093922
	H94	H	0.915059	0.612838	0.092245
	H95	H	0.917990	0.381812	0.911700
	H96	H	0.406343	0.114975	0.596955
	H97	H	0.601289	0.877796	0.587019
	H98	H	0.592826	0.114183	0.412663
	H99	H	0.415156	0.879734	0.405939
	H100	H	0.597374	0.398235	0.120052
	H101	H	0.597076	0.582192	0.887453
	H102	H	0.412642	0.585641	0.116603
	H103	H	0.404041	0.407736	0.886280
	H104	H	0.117339	0.586885	0.407044
	H105	H	0.885451	0.586138	0.600385
	H106	H	0.117364	0.408253	0.599217
	H107	H	0.883521	0.396513	0.409385
	H108	H	0.905670	0.615483	0.090990
	H109	H	0.098334	0.380573	0.084364
	H110	H	0.092624	0.616133	0.903633
	H111	H	0.904392	0.378266	0.913701
	H112	H	0.090215	0.902827	0.616643
	H113	H	0.101206	0.085645	0.384067
	H114	H	0.908326	0.096282	0.618492
	H115	H	0.911306	0.900767	0.385645
	H116	H	0.615438	0.086979	0.915620
	H117	H	0.385760	0.088481	0.096103
	H118	H	0.620304	0.904939	0.103354
	H119	H	0.389178	0.909133	0.917474
	C120	C	0.379176	0.004973	0.623333
	C121	C	0.621634	0.987622	0.622085
	C122	C	0.622400	0.005935	0.380359
	C123	C	0.380603	0.987841	0.380789
	C124	C	0.625999	0.374134	0.010458
	C125	C	0.624723	0.617708	0.993499
	C126	C	0.380335	0.618257	0.010594
	C127	C	0.380892	0.375372	0.994088
	C128	C	0.009011	0.617184	0.379868
	C129	C	0.992770	0.619145	0.624808
	C130	C	0.009068	0.375873	0.623003
	C131	C	0.992763	0.374625	0.378280
	C132	C	0.881597	0.505403	0.122274
	C133	C	0.123464	0.488271	0.122568
	C134	C	0.123836	0.505807	0.880327
	C135	C	0.881765	0.488373	0.880848
	C136	C	0.123189	0.874817	0.509478
	C137	C	0.122984	0.117951	0.492986
	C138	C	0.878676	0.118417	0.509165
	C139	C	0.878624	0.874930	0.492621
	C140	C	0.509937	0.117699	0.879954
	C141	C	0.494032	0.118694	0.124341
	C142	C	0.510347	0.875107	0.124075
	C143	C	0.492992	0.874434	0.879301
	C144	C	0.381456	0.880658	0.677512
	C145	C	0.619232	0.111899	0.678229
	C146	C	0.620531	0.881416	0.324794
	C147	C	0.382509	0.112725	0.327030
	C148	C	0.680962	0.375409	0.887732
	C149	C	0.679757	0.617017	0.116194
	C150	C	0.324198	0.617739	0.888418
	C151	C	0.324496	0.377355	0.116292
	C152	C	0.885545	0.671312	0.384600
	C153	C	0.115803	0.673608	0.620187
	C154	C	0.885772	0.321808	0.619372
	C155	C	0.115945	0.319650	0.382110
	C156	C	0.886790	0.377907	0.678949
	C157	C	0.115174	0.617995	0.679964
	C158	C	0.886770	0.616221	0.324024
	C159	C	0.115072	0.374976	0.322176
	C160	C	0.383965	0.672818	0.887636
	C161	C	0.621070	0.673821	0.116192
	C162	C	0.621827	0.318971	0.887286
	C163	C	0.384983	0.322217	0.117706
	C164	C	0.677628	0.881434	0.381658
	C165	C	0.676257	0.112375	0.620932
	C166	C	0.323758	0.880710	0.620803
	C167	C	0.324811	0.112128	0.383415
	C168	C	0.884143	0.380775	0.176300
	C169	C	0.120747	0.612714	0.178744
	C170	C	0.122998	0.381703	0.823744
	C171	C	0.883819	0.613080	0.826973
	C172	C	0.179190	0.874956	0.387111
	C173	C	0.178223	0.116930	0.615449
	C174	C	0.823026	0.116654	0.386801
	C175	C	0.822671	0.877264	0.615304
	C176	C	0.386910	0.173150	0.884989
	C177	C	0.617691	0.172254	0.119654
	C178	C	0.387253	0.820897	0.120231
	C179	C	0.616011	0.819053	0.882305
	C180	C	0.387833	0.876680	0.179702
	C181	C	0.616591	0.116569	0.179348
	C182	C	0.387481	0.117573	0.824961
	C183	C	0.615068	0.874499	0.822539
	C184	C	0.882698	0.172384	0.386006
	C185	C	0.119130	0.173456	0.615869
	C186	C	0.119534	0.819226	0.386573
	C187	C	0.882610	0.821872	0.616210
	C188	C	0.179760	0.381537	0.881303
	C189	C	0.178247	0.613033	0.121735
	C190	C	0.827234	0.380769	0.119728
	C191	C	0.825927	0.612550	0.883424
	C192	C	0.401432	0.091883	0.601581
	C193	C	0.599793	0.900732	0.598969
	C194	C	0.600493	0.092845	0.402737
	C195	C	0.402864	0.901119	0.402476
	C196	C	0.604268	0.396749	0.096282
	C197	C	0.603146	0.594566	0.907947
	C198	C	0.402389	0.595790	0.096029
	C199	C	0.402982	0.397475	0.908569
	C200	C	0.094688	0.594476	0.401694
	C201	C	0.906847	0.596773	0.603712
	C202	C	0.094582	0.398235	0.600559
	C203	C	0.906971	0.397647	0.399999
	C204	C	0.903695	0.592302	0.100521
	C205	C	0.101441	0.401574	0.099407
	C206	C	0.101267	0.592384	0.903374
	C207	C	0.904429	0.401418	0.902584
	C208	C	0.101083	0.897999	0.594978
	C209	C	0.101391	0.095147	0.407215
	C210	C	0.900310	0.096653	0.594832
	C211	C	0.900271	0.896375	0.406870
	C212	C	0.595417	0.094415	0.901478
	C213	C	0.407977	0.096638	0.103100
	C214	C	0.596093	0.897485	0.102467
	C215	C	0.407647	0.897951	0.901777
	Zn216	Zn	0.500906	-0.004234	0.750585
	Zn217	Zn	0.501329	-0.002636	0.252853
	Zn218	Zn	0.754294	0.496688	0.002459
	Zn219	Zn	0.251498	0.497402	0.001730
	Zn220	Zn	0.000536	0.746273	0.501409
	Zn221	Zn	0.000866	0.246933	0.501075
	Zn222	Zn	0.002331	0.496862	0.752674
	Zn223	Zn	0.001482	0.496354	0.249844
	Zn224	Zn	0.502032	0.746251	0.001833
	Zn225	Zn	0.502768	0.246581	0.002543
	Zn226	Zn	0.750067	-0.003386	0.501248
	Zn227	Zn	0.252178	-0.003866	0.501341
	N228	N	0.415051	0.958897	0.679143
	N229	N	0.585975	0.033412	0.678900
	N230	N	0.586916	0.959787	0.323863
	N231	N	0.416773	0.034572	0.325417
	N232	N	0.683543	0.409083	0.965294
	N233	N	0.682176	0.582815	0.038872
	N234	N	0.321732	0.584542	0.965890
	N235	N	0.321972	0.409681	0.038412
	N236	N	0.962540	0.672096	0.418500
	N237	N	0.038598	0.674306	0.586570
	N238	N	0.962838	0.320548	0.585282
	N239	N	0.038817	0.319144	0.416247
	N240	N	0.964596	0.410563	0.681393
	N241	N	0.037605	0.585192	0.683155
	N242	N	0.964596	0.583102	0.321175
	N243	N	0.037597	0.408563	0.319849
	N244	N	0.417944	0.673300	0.964536
	N245	N	0.587489	0.674258	0.039037
	N246	N	0.588304	0.318147	0.964554
	N247	N	0.419327	0.320712	0.040734
	N248	N	0.678746	0.959598	0.415870
	N249	N	0.677961	0.034025	0.586585
	N250	N	0.322385	0.959105	0.587598
	N251	N	0.323431	0.033510	0.416045
	N252	N	0.917583	0.459042	0.177618
	N253	N	0.087479	0.534174	0.179519
	N254	N	0.089140	0.459947	0.822836
	N255	N	0.917941	0.534863	0.825450
	N256	N	0.181719	0.908647	0.464614
	N257	N	0.180527	0.083079	0.538080
	N258	N	0.820291	0.083829	0.464470
	N259	N	0.820133	0.909635	0.537345
	N260	N	0.464226	0.173559	0.918419
	N261	N	0.540413	0.173702	0.086423
	N262	N	0.464363	0.819824	0.086312
	N263	N	0.539125	0.818861	0.917037
	N264	N	0.465533	0.909824	0.182226
	N265	N	0.538701	0.084129	0.182380
	N266	N	0.464881	0.083684	0.821916
	N267	N	0.537664	0.908096	0.820630
	N268	N	0.916575	0.173485	0.463067
	N269	N	0.085299	0.174099	0.538802
	N270	N	0.085236	0.819297	0.463508
	N271	N	0.916773	0.820496	0.539230
	N272	N	0.180374	0.459655	0.916007
	N273	N	0.180056	0.534639	0.087533
	N274	N	0.825444	0.459422	0.086926
	N275	N	0.824642	0.533932	0.916281
	O276	O	1.039548	0.936299	-0.034877
	H277	H	1.038650	0.947168	-0.033748
	H278	H	1.039460	0.933578	-0.034410
	O279	O	0.044014	0.005857	0.006654
	H280	H	0.038402	0.001062	0.005363
	H281	H	0.034751	0.016791	0.015085
	O282	O	0.026147	0.055886	0.982163
	H283	H	0.026257	0.052594	0.979079
	H284	H	0.022160	0.060537	0.980876
	O285	O	0.440694	0.474040	0.550714
	H286	H	0.430802	0.466165	0.549552
	H287	H	0.446009	0.472338	0.549686
	O288	O	0.451464	0.483859	0.508410
	H289	H	0.452555	0.488258	0.508415
	H290	H	0.453694	0.482714	0.501725
	O291	O	0.466997	0.509543	0.527158
	H292	H	0.457266	0.506051	0.534476
	H293	H	0.462578	0.507575	0.528749
	O294	O	-0.008605	0.061451	-0.054063
	H295	H	-0.009525	0.061876	-0.043745
	H296	H	-0.006614	0.061553	-0.060514
	O297	O	0.483401	0.521914	0.529472
	H298	H	0.484081	0.523201	0.537179
	H299	H	0.478333	0.528398	0.531417
	O300	O	0.017677	0.989529	0.916492
	H301	H	0.023931	0.986515	0.907936
	H302	H	0.012050	0.978534	0.918083
	O303	O	0.426754	0.528072	0.558807
	H304	H	0.428994	0.521940	0.555161
	H305	H	0.430523	0.531610	0.567568
	O306	O	0.061876	-0.054143	0.908234
	H307	H	0.067766	-0.048991	0.905999
	H308	H	0.061199	-0.053559	0.907933
	O309	O	1.076432	1.061517	0.969693
	H310	H	1.072020	1.077342	0.975338
	H311	H	1.076285	1.064781	0.973635
	O312	O	0.425010	0.490480	0.466728
	H313	H	0.416923	0.487910	0.475182
	H314	H	0.426015	0.487984	0.460710
	O315	O	0.442279	0.520242	0.502805
	H316	H	0.444561	0.527971	0.504525
	H317	H	0.440049	0.522485	0.496838
	O318	O	0.014800	1.057248	-0.059343
	H319	H	0.017427	1.040106	-0.064995
	H320	H	0.011161	1.059072	-0.069041
	O321	O	0.999383	1.012292	-0.076379
	H322	H	1.005402	1.005345	-0.077459
	H323	H	0.999773	1.010520	-0.087287
