data_Molecule from HDF5

_cell_length_a		16.540662
_cell_length_b		16.386710
_cell_length_c		16.545461
_cell_angle_alpha	89.993626
_cell_angle_beta	90.017786
_cell_angle_gamma	89.964920
_symmetry_space_group_name_H-M	'P 1'
_symmetry_Int_Tables_number		1

loop_
	_symmetry_equiv_pos_as_xyz
	x,y,z

loop_
	_atom_site_label
	_atom_site_type_symbol
	_atom_site_fract_x
	_atom_site_fract_y
	_atom_site_fract_z
	H0	H	0.390726	0.846682	0.702110
	H1	H	0.602570	0.162672	0.703547
	H2	H	0.599565	0.847322	0.261108
	H3	H	0.383594	0.160666	0.255307
	H4	H	0.719623	0.394944	0.825777
	H5	H	0.717218	0.607989	0.138675
	H6	H	0.273982	0.609710	0.826329
	H7	H	0.270582	0.393374	0.136885
	H8	H	0.839044	0.724622	0.376578
	H9	H	0.153775	0.720235	0.581430
	H10	H	0.838361	0.281795	0.586252
	H11	H	0.152594	0.280149	0.373623
	H12	H	0.840519	0.394227	0.706305
	H13	H	0.150668	0.609076	0.703373
	H14	H	0.840312	0.610462	0.257543
	H15	H	0.152540	0.394522	0.256192
	H16	H	0.394701	0.721746	0.824026
	H17	H	0.601600	0.726164	0.138172
	H18	H	0.600165	0.281575	0.824182
	H19	H	0.386933	0.277501	0.137395
	H20	H	0.716631	0.847239	0.376082
	H21	H	0.718685	0.163069	0.588492
	H22	H	0.273461	0.847587	0.587531
	H23	H	0.270150	0.161733	0.372103
	H24	H	0.887893	0.346503	0.206131
	H25	H	0.099835	0.663092	0.199812
	H26	H	0.102584	0.346372	0.758497
	H27	H	0.889337	0.661934	0.760833
	H28	H	0.219142	0.896886	0.325461
	H29	H	0.218018	0.111875	0.637553
	H30	H	0.772083	0.112304	0.323528
	H31	H	0.773686	0.898385	0.638236
	H32	H	0.339191	0.225904	0.875450
	H33	H	0.652228	0.227434	0.088746
	H34	H	0.339071	0.782693	0.085415
	H35	H	0.654538	0.783170	0.876710
	H36	H	0.339718	0.895753	0.204523
	H37	H	0.650753	0.113735	0.207707
	H38	H	0.341241	0.112570	0.756519
	H39	H	0.653528	0.897568	0.758964
	H40	H	0.889733	0.227575	0.322800
	H41	H	0.099930	0.225507	0.638614
	H42	H	0.100656	0.782361	0.323565
	H43	H	0.891479	0.783203	0.639434
	H44	H	0.219958	0.346840	0.873245
	H45	H	0.217118	0.661639	0.086360
	H46	H	0.771237	0.345888	0.091185
	H47	H	0.775043	0.662248	0.877667
	H48	H	0.404889	0.118791	0.568549
	H49	H	0.596013	0.889316	0.565076
	H50	H	0.589779	0.119326	0.398774
	H51	H	0.407611	0.890974	0.391660
	H52	H	0.578888	0.415771	0.091467
	H53	H	0.583757	0.594939	0.869857
	H54	H	0.412961	0.592666	0.092449
	H55	H	0.404085	0.413179	0.868646
	H56	H	0.109999	0.594288	0.388206
	H57	H	0.882139	0.594191	0.569290
	H58	H	0.107566	0.417364	0.571077
	H59	H	0.886783	0.417502	0.397024
	H60	H	0.107295	0.415799	0.569805
	H61	H	0.882527	0.590366	0.570673
	H62	H	0.108634	0.593242	0.392569
	H63	H	0.886964	0.422348	0.391734
	H64	H	0.404023	0.596592	0.097417
	H65	H	0.589572	0.594253	0.867895
	H66	H	0.585917	0.412492	0.094651
	H67	H	0.405689	0.420639	0.872299
	H68	H	0.582702	0.120993	0.386810
	H69	H	0.583216	0.888561	0.580826
	H70	H	0.410284	0.118087	0.571202
	H71	H	0.409849	0.894247	0.394525
	H72	H	0.903617	0.615268	0.064300
	H73	H	0.084281	0.388143	0.076048
	H74	H	0.077881	0.615134	0.890786
	H75	H	0.907681	0.390659	0.893321
	H76	H	0.081227	0.917635	0.590915
	H77	H	0.074103	0.085507	0.374984
	H78	H	0.902126	0.091823	0.593511
	H79	H	0.905486	0.912634	0.367850
	H80	H	0.608724	0.094942	0.895080
	H81	H	0.386427	0.089726	0.066381
	H82	H	0.608492	0.918814	0.073997
	H83	H	0.384970	0.916379	0.890892
	H84	H	0.608942	0.913458	0.070493
	H85	H	0.385220	0.087664	0.070677
	H86	H	0.605667	0.087518	0.895619
	H87	H	0.383281	0.912868	0.889853
	H88	H	0.909569	0.087808	0.588705
	H89	H	0.082037	0.101430	0.366693
	H90	H	0.083644	0.908838	0.594503
	H91	H	0.904428	0.916366	0.369004
	H92	H	0.086197	0.615151	0.899062
	H93	H	0.077463	0.393395	0.066248
	H94	H	0.905239	0.618364	0.074182
	H95	H	0.908488	0.390873	0.893611
	H96	H	0.409834	0.116315	0.565569
	H97	H	0.577345	0.897325	0.563443
	H98	H	0.576450	0.114649	0.397618
	H99	H	0.405595	0.892429	0.395486
	H100	H	0.585801	0.420704	0.092614
	H101	H	0.586654	0.589704	0.869786
	H102	H	0.403929	0.586119	0.093959
	H103	H	0.411738	0.415036	0.871037
	H104	H	0.109189	0.589944	0.389302
	H105	H	0.880873	0.593302	0.572740
	H106	H	0.106450	0.417841	0.569183
	H107	H	0.883433	0.416006	0.391129
	H108	H	0.912629	0.613485	0.068568
	H109	H	0.090019	0.389693	0.064495
	H110	H	0.088768	0.619624	0.888258
	H111	H	0.907984	0.390859	0.894180
	H112	H	0.090338	0.916285	0.595188
	H113	H	0.092428	0.084944	0.368648
	H114	H	0.910127	0.097082	0.592083
	H115	H	0.908124	0.914755	0.370083
	H116	H	0.608941	0.089961	0.889168
	H117	H	0.383764	0.092694	0.069826
	H118	H	0.605990	0.918485	0.068566
	H119	H	0.384739	0.913633	0.892666
	C120	C	0.375607	0.013389	0.601572
	C121	C	0.618306	0.995966	0.602998
	C122	C	0.615353	0.013720	0.361489
	C123	C	0.373223	0.996428	0.359788
	C124	C	0.616645	0.382502	-0.010360
	C125	C	0.618415	0.625336	0.973145
	C126	C	0.375221	0.624413	-0.009125
	C127	C	0.373528	0.381558	0.973157
	C128	C	0.005150	0.625146	0.358365
	C129	C	0.986272	0.624436	0.602536
	C130	C	0.003582	0.383003	0.602810
	C131	C	0.988567	0.383229	0.359199
	C132	C	0.873987	0.511738	0.102973
	C133	C	0.116481	0.495085	0.101332
	C134	C	0.117112	0.512167	0.860062
	C135	C	0.874796	0.495141	0.860987
	C136	C	0.118000	0.881538	0.489999
	C137	C	0.115894	0.124872	0.473219
	C138	C	0.873646	0.126293	0.488144
	C139	C	0.874126	0.882486	0.473068
	C140	C	0.504327	0.124714	0.860200
	C141	C	0.487190	0.125328	0.103512
	C142	C	0.504346	0.883307	0.102913
	C143	C	0.488260	0.881711	0.858934
	C144	C	0.372993	0.894363	0.661979
	C145	C	0.620884	0.115003	0.663742
	C146	C	0.617851	0.894677	0.301155
	C147	C	0.367309	0.113666	0.296719
	C148	C	0.678673	0.377549	0.872473
	C149	C	0.677534	0.626971	0.091451
	C150	C	0.315002	0.627140	0.872857
	C151	C	0.311575	0.376576	0.090270
	C152	C	0.886556	0.684974	0.357162
	C153	C	0.105774	0.682192	0.602371
	C154	C	0.885776	0.321733	0.605020
	C155	C	0.105575	0.320591	0.355465
	C156	C	0.886784	0.377758	0.664725
	C157	C	0.104290	0.626944	0.662573
	C158	C	0.887105	0.628179	0.298009
	C159	C	0.105473	0.377869	0.297065
	C160	C	0.374954	0.682879	0.871772
	C161	C	0.620351	0.685703	0.091287
	C162	C	0.619067	0.321319	0.871521
	C163	C	0.369702	0.318755	0.090423
	C164	C	0.675928	0.894521	0.358419
	C165	C	0.678768	0.115132	0.606339
	C166	C	0.314401	0.894849	0.604990
	C167	C	0.310448	0.114188	0.355010
	C168	C	0.870114	0.393620	0.165337
	C169	C	0.118444	0.614817	0.160718
	C170	C	0.120548	0.393958	0.798628
	C171	C	0.871854	0.614277	0.800808
	C172	C	0.178602	0.878858	0.372036
	C173	C	0.177192	0.129199	0.590609
	C174	C	0.812756	0.129787	0.370343
	C175	C	0.813984	0.880252	0.591054
	C176	C	0.386496	0.185882	0.857506
	C177	C	0.605002	0.187276	0.107314
	C178	C	0.386345	0.822444	0.104565
	C179	C	0.607025	0.822507	0.857828
	C180	C	0.386576	0.879275	0.163488
	C181	C	0.604116	0.130674	0.166495
	C182	C	0.387452	0.129438	0.798148
	C183	C	0.606436	0.879425	0.798952
	C184	C	0.871088	0.187560	0.370196
	C185	C	0.118462	0.186016	0.591205
	C186	C	0.119616	0.821769	0.371302
	C187	C	0.872468	0.822652	0.591669
	C188	C	0.178619	0.393946	0.856210
	C189	C	0.177129	0.614224	0.104397
	C190	C	0.811880	0.393378	0.108027
	C191	C	0.814900	0.614449	0.859120
	C192	C	0.401228	0.096131	0.575827
	C193	C	0.592755	0.913261	0.577242
	C194	C	0.590393	0.096748	0.387038
	C195	C	0.399913	0.914123	0.386401
	C196	C	0.591004	0.408754	0.071381
	C197	C	0.593669	0.600117	0.890583
	C198	C	0.399937	0.599133	0.073258
	C199	C	0.399844	0.408446	0.891909
	C200	C	0.087583	0.599935	0.383002
	C201	C	0.903458	0.599629	0.577862
	C202	C	0.085716	0.409268	0.577155
	C203	C	0.906816	0.410722	0.385564
	C204	C	0.899630	0.594174	0.076629
	C205	C	0.091326	0.412231	0.076137
	C206	C	0.091796	0.594952	0.885683
	C207	C	0.900581	0.412485	0.886490
	C208	C	0.092585	0.906970	0.572034
	C209	C	0.090078	0.098389	0.391563
	C210	C	0.899687	0.099853	0.570077
	C211	C	0.899084	0.907443	0.390475
	C212	C	0.586417	0.098277	0.885983
	C213	C	0.406462	0.097866	0.076811
	C214	C	0.586369	0.909328	0.078028
	C215	C	0.405861	0.907021	0.883794
	Zn216	Zn	0.496800	0.004411	0.730758
	Zn217	Zn	0.494977	0.004529	0.232432
	Zn218	Zn	0.746356	0.502800	-0.018298
	Zn219	Zn	0.245563	0.503409	-0.018102
	Zn220	Zn	-0.004270	0.752840	0.481432
	Zn221	Zn	-0.004151	0.254989	0.480506
	Zn222	Zn	-0.005080	0.503890	0.732045
	Zn223	Zn	-0.003381	0.503520	0.229829
	Zn224	Zn	0.496867	0.754095	-0.018202
	Zn225	Zn	0.495898	0.253177	-0.018651
	Zn226	Zn	0.745099	0.004929	0.480817
	Zn227	Zn	0.245755	0.004657	0.481073
	N228	N	0.410274	0.969155	0.660027
	N229	N	0.584200	0.039758	0.661981
	N230	N	0.581095	0.969825	0.302933
	N231	N	0.405753	0.039466	0.299600
	N232	N	0.677396	0.414676	0.946957
	N233	N	0.676326	0.590322	0.016950
	N234	N	0.315194	0.591368	0.947883
	N235	N	0.313819	0.414727	0.016315
	N236	N	0.961066	0.683390	0.393815
	N237	N	0.031273	0.680621	0.565723
	N238	N	0.959630	0.324750	0.567343
	N239	N	0.031822	0.323896	0.393330
	N240	N	0.961153	0.415128	0.663447
	N241	N	0.028843	0.592016	0.662918
	N242	N	0.961857	0.591932	0.298541
	N243	N	0.031389	0.416001	0.299278
	N244	N	0.411754	0.681457	0.946162
	N245	N	0.584294	0.684678	0.016598
	N246	N	0.581310	0.324286	0.945360
	N247	N	0.407428	0.321353	0.016630
	N248	N	0.674746	0.969775	0.395148
	N249	N	0.677491	0.039994	0.569440
	N250	N	0.315787	0.970023	0.568244
	N251	N	0.314066	0.039993	0.393531
	N252	N	0.907940	0.468174	0.162300
	N253	N	0.081485	0.539767	0.158980
	N254	N	0.082812	0.468556	0.800993
	N255	N	0.908520	0.539103	0.802084
	N256	N	0.177796	0.915269	0.446925
	N257	N	0.175719	0.091835	0.516363
	N258	N	0.814171	0.092642	0.444938
	N259	N	0.814585	0.916478	0.516166
	N260	N	0.460378	0.182915	0.895327
	N261	N	0.531460	0.184306	0.068884
	N262	N	0.460481	0.824981	0.067335
	N263	N	0.532529	0.823862	0.894590
	N264	N	0.461005	0.916494	0.162547
	N265	N	0.529779	0.093358	0.164485
	N266	N	0.461858	0.092305	0.799697
	N267	N	0.531506	0.915573	0.799469
	N268	N	0.908251	0.185460	0.444464
	N269	N	0.081097	0.183598	0.517107
	N270	N	0.082732	0.823175	0.445660
	N271	N	0.909178	0.823930	0.517094
	N272	N	0.176595	0.468597	0.893715
	N273	N	0.176101	0.538816	0.068284
	N274	N	0.814327	0.467895	0.069896
	N275	N	0.816375	0.539128	0.895705
	O276	O	0.036218	0.199878	0.918783
	H277	H	0.039387	0.190788	0.930440
	H278	H	0.031428	0.194594	0.925025
	O279	O	0.499685	0.530512	0.691381
	H280	H	0.488898	0.536836	0.703498
	H281	H	0.491256	0.521130	0.694100
	O282	O	1.008779	0.971472	0.184921
	H283	H	0.988277	0.969414	0.181478
	H284	H	0.990028	0.968476	0.189404
	O285	O	0.620122	0.361878	0.604953
	H286	H	0.640831	0.363331	0.627753
	H287	H	0.625001	0.357014	0.602470
	O288	O	-0.214801	0.140715	0.014827
	H289	H	-0.219528	0.164297	0.009387
	H290	H	-0.216691	0.147086	-0.017891
	O291	O	1.373795	0.557732	0.577987
	H292	H	1.377800	0.545742	0.568733
	H293	H	1.370157	0.535698	0.588614
	O294	O	0.712463	0.290159	-0.541718
	H295	H	0.716262	0.277653	-0.564473
	H296	H	0.723362	0.280550	-0.562524
	O297	O	-0.125658	0.043421	0.843040
	H298	H	-0.113420	0.062673	0.843254
	H299	H	-0.120557	0.053550	0.839244
	O300	O	0.587776	0.581134	0.314840
	H301	H	0.594612	0.569709	0.306617
	H302	H	0.605094	0.599139	0.317523
	O303	O	0.186259	0.136168	1.176374
	H304	H	0.190756	0.140550	1.155127
	H305	H	0.196794	0.099607	1.188315
	O306	O	0.208216	1.081322	0.955728
	H307	H	0.208674	1.053484	0.970212
	H308	H	0.209835	1.068538	0.931927
	O309	O	0.648936	1.622441	1.354400
	H310	H	0.640656	1.622490	1.360521
	H311	H	0.654117	1.607376	1.374711
	O312	O	0.695292	0.456341	0.678215
	H313	H	0.683756	0.453583	0.669808
	H314	H	0.716686	0.456198	0.699290
	O315	O	0.164640	0.067082	1.085957
	H316	H	0.159288	0.054835	1.105311
	H317	H	0.150498	0.051576	1.087832
	O318	O	-0.701841	0.489878	0.681915
	H319	H	-0.715007	0.460980	0.702763
	H320	H	-0.697409	0.472192	0.678634
	O321	O	0.654209	0.522950	0.417713
	H322	H	0.648656	0.525963	0.436624
	H323	H	0.663606	0.513626	0.422817
	O324	O	1.201750	-0.203903	0.774233
	H325	H	1.183807	-0.190170	0.784354
	H326	H	1.217638	-0.220760	0.773406
	O327	O	1.280598	0.348878	0.524109
	H328	H	1.270649	0.335403	0.512315
	H329	H	1.271376	0.364391	0.513525
	O330	O	1.207301	-0.024662	-0.218209
	H331	H	1.209583	-0.035536	-0.228127
	H332	H	1.212045	-0.036798	-0.232079
	O333	O	1.043748	0.910925	1.024215
	H334	H	1.047462	0.912003	1.020890
	H335	H	1.042445	0.904811	1.056295
	O336	O	1.000985	0.061835	0.902435
	H337	H	1.012743	0.064486	0.900393
	H338	H	1.007737	0.054618	0.908393
	O339	O	0.319517	0.440454	0.458421
	H340	H	0.329925	0.439389	0.467699
	H341	H	0.334953	0.457057	0.449170
	O342	O	0.976367	0.987066	0.107964
	H343	H	0.974650	0.997351	0.096145
	H344	H	0.977666	1.007008	0.100500
	O345	O	0.085958	0.076920	-0.170513
	H346	H	0.084740	0.088973	-0.170021
	H347	H	0.082254	0.069533	-0.179868
	O348	O	1.295907	-0.322402	1.288082
	H349	H	1.292904	-0.358811	1.292755
	H350	H	1.295134	-0.320024	1.315429
	O351	O	0.889184	1.118241	0.013216
	H352	H	0.869026	1.128048	0.001665
	H353	H	0.895268	1.120655	0.021121
	O354	O	0.437724	0.663822	0.565223
	H355	H	0.431701	0.673579	0.562184
	H356	H	0.427726	0.668477	0.562839
	O357	O	1.162977	0.901746	1.071175
	H358	H	1.160486	0.898581	1.078049
	H359	H	1.170640	0.900635	1.080064
	O360	O	0.704305	0.501660	0.312376
	H361	H	0.706082	0.512002	0.332618
	H362	H	0.720597	0.508217	0.300941
	O363	O	-0.154194	0.972314	0.185003
	H364	H	-0.169417	0.986564	0.187780
	H365	H	-0.155249	0.989698	0.183217
	O366	O	1.053849	-0.056345	0.956359
	H367	H	1.048674	-0.062825	0.956063
	H368	H	1.045364	-0.052633	0.966727
	O369	O	0.307701	0.318889	0.672636
	H370	H	0.298596	0.312378	0.625154
	H371	H	0.320392	0.298034	0.689043
	O372	O	0.498803	0.371609	0.686295
	H373	H	0.499221	0.369309	0.693585
	H374	H	0.494754	0.377782	0.690853
	O375	O	1.308143	0.689793	-0.329267
	H376	H	1.306474	0.695501	-0.327744
	H377	H	1.314880	0.663971	-0.344828
	O378	O	0.843341	-0.134416	-0.254945
	H379	H	0.826724	-0.130863	-0.245436
	H380	H	0.861294	-0.147834	-0.264761
	O381	O	1.060103	0.161992	-0.127834
	H382	H	1.086935	0.166137	-0.108206
	H383	H	1.054571	0.149388	-0.115215
	O384	O	-0.013038	0.209253	1.188468
	H385	H	0.014418	0.198647	1.172278
	H386	H	-0.000332	0.237499	1.209286
	O387	O	-0.326784	0.320199	1.299795
	H388	H	-0.332019	0.353698	1.286732
	H389	H	-0.348409	0.320913	1.298464
	O390	O	-0.061612	-0.206971	0.976551
	H391	H	-0.071589	-0.205840	0.982245
	H392	H	-0.064302	-0.208533	0.991752
	O393	O	0.750028	0.758196	0.224881
	H394	H	0.739320	0.758236	0.234615
	H395	H	0.750128	0.784680	0.225134
	O396	O	0.377828	0.339644	0.366995
	H397	H	0.393328	0.344709	0.383018
	H398	H	0.379286	0.349094	0.361444
	O399	O	0.518484	0.476550	0.565574
	H400	H	0.516722	0.479903	0.567742
	H401	H	0.525334	0.465280	0.584188
	O402	O	-0.495971	0.718118	1.490886
	H403	H	-0.513784	0.708630	1.491472
	H404	H	-0.503277	0.702425	1.475790
	O405	O	-0.216607	0.048813	-0.087500
	H406	H	-0.211452	0.039916	-0.104294
	H407	H	-0.222499	0.055896	-0.101519
	O408	O	0.427027	0.526621	0.442440
	H409	H	0.438534	0.502710	0.450776
	H410	H	0.437242	0.526616	0.433549
	O411	O	0.633313	0.447546	0.562281
	H412	H	0.645585	0.431029	0.565216
	H413	H	0.626096	0.439454	0.577976
	O414	O	0.815996	0.800362	1.003839
	H415	H	0.813162	0.800380	1.018517
	H416	H	0.809168	0.789695	0.991238
	O417	O	0.297418	0.704650	0.434637
	H418	H	0.291390	0.695237	0.430598
	H419	H	0.303174	0.704261	0.442503
	O420	O	0.516044	0.284283	0.261934
	H421	H	0.507749	0.295461	0.286487
	H422	H	0.517573	0.244670	0.227406
	O423	O	-0.154705	0.903151	-0.121687
	H424	H	-0.150164	0.897434	-0.105592
	H425	H	-0.146383	0.910040	-0.123256
	O426	O	0.280219	1.509292	1.281638
	H427	H	0.284486	1.514194	1.279979
	H428	H	0.280748	1.496287	1.264020
	O429	O	-0.199483	-0.802038	0.793090
	H430	H	-0.165814	-0.808571	0.787008
	H431	H	-0.192005	-0.837333	0.788866
	O432	O	0.712031	0.716823	0.504258
	H433	H	0.696942	0.723647	0.515008
	H434	H	0.725034	0.731991	0.499266
	O435	O	0.026832	-0.206581	-0.228764
	H436	H	0.026062	-0.226707	-0.231014
	H437	H	0.028314	-0.212204	-0.225893
	O438	O	1.161912	0.210124	-0.000991
	H439	H	1.168819	0.180352	-0.004921
	H440	H	1.187394	0.229191	-0.006628
	O441	O	0.477068	0.706103	0.281770
	H442	H	0.487228	0.707084	0.281291
	H443	H	0.457796	0.713926	0.289339
	O444	O	-0.047498	0.922661	1.097864
	H445	H	-0.046872	0.934897	1.097423
	H446	H	-0.048641	0.929674	1.098117
	O447	O	0.967523	0.818558	1.187358
	H448	H	0.947578	0.806586	1.200451
	H449	H	0.940773	0.805085	1.187567
	O450	O	0.455621	0.459073	0.257453
	H451	H	0.474195	0.469683	0.264035
	H452	H	0.458984	0.452489	0.262165
	O453	O	0.807102	1.123460	-0.161409
	H454	H	0.794781	1.120709	-0.176048
	H455	H	0.818618	1.117763	-0.161405
	O456	O	0.695821	0.638869	0.675579
	H457	H	0.704470	0.634236	0.674707
	H458	H	0.677788	0.646295	0.679596
	O459	O	0.523254	0.523794	0.598100
	H460	H	0.515449	0.534045	0.614420
	H461	H	0.508980	0.535864	0.572639
	O462	O	0.348629	1.276497	1.420632
	H463	H	0.359234	1.273091	1.423383
	H464	H	0.361582	1.274743	1.416428
	O465	O	1.198861	-0.157960	-0.055667
	H466	H	1.184035	-0.166452	-0.049321
	H467	H	1.215753	-0.167071	-0.048764
