data_Molecule from HDF5

_cell_length_a		16.375625
_cell_length_b		16.227542
_cell_length_c		16.116551
_cell_angle_alpha	89.970667
_cell_angle_beta	89.899824
_cell_angle_gamma	90.312720
_symmetry_space_group_name_H-M	'P 1'
_symmetry_Int_Tables_number		1

loop_
	_symmetry_equiv_pos_as_xyz
	x,y,z

loop_
	_atom_site_label
	_atom_site_type_symbol
	_atom_site_fract_x
	_atom_site_fract_y
	_atom_site_fract_z
	H0	H	0.404103	0.832089	0.711444
	H1	H	0.598919	0.162655	0.710950
	H2	H	0.598504	0.832072	0.286029
	H3	H	0.407124	0.162046	0.286608
	H4	H	0.718374	0.395779	0.836450
	H5	H	0.716001	0.597334	0.164111
	H6	H	0.288268	0.596113	0.835729
	H7	H	0.286386	0.396010	0.164430
	H8	H	0.839847	0.713773	0.398325
	H9	H	0.164302	0.714267	0.599378
	H10	H	0.839705	0.279613	0.600888
	H11	H	0.165804	0.283539	0.400768
	H12	H	0.839302	0.398517	0.714845
	H13	H	0.165704	0.595690	0.712895
	H14	H	0.838525	0.594739	0.284904
	H15	H	0.164824	0.401389	0.285304
	H16	H	0.405594	0.708113	0.834127
	H17	H	0.599417	0.709862	0.164657
	H18	H	0.598231	0.285875	0.833243
	H19	H	0.403275	0.282827	0.164744
	H20	H	0.717231	0.833387	0.397936
	H21	H	0.718498	0.160837	0.599766
	H22	H	0.285911	0.834116	0.599362
	H23	H	0.287531	0.160153	0.398079
	H24	H	0.904350	0.332826	0.211909
	H25	H	0.098910	0.662409	0.211192
	H26	H	0.098848	0.332317	0.786128
	H27	H	0.907435	0.661547	0.786932
	H28	H	0.217534	0.897898	0.335047
	H29	H	0.217523	0.096754	0.664366
	H30	H	0.787570	0.097659	0.334974
	H31	H	0.786314	0.897094	0.663093
	H32	H	0.339472	0.212078	0.898887
	H33	H	0.664091	0.213604	0.098370
	H34	H	0.339873	0.780312	0.098892
	H35	H	0.665387	0.782463	0.899858
	H36	H	0.339879	0.898278	0.213898
	H37	H	0.665768	0.095020	0.211583
	H38	H	0.338159	0.092558	0.785896
	H39	H	0.665782	0.900904	0.784566
	H40	H	0.906829	0.208117	0.333389
	H41	H	0.100311	0.209506	0.665442
	H42	H	0.099650	0.785635	0.333895
	H43	H	0.903150	0.783840	0.664537
	H44	H	0.217351	0.333749	0.898652
	H45	H	0.219812	0.659747	0.101500
	H46	H	0.783992	0.334607	0.101817
	H47	H	0.786500	0.660038	0.898046
	H48	H	0.411246	0.113821	0.589747
	H49	H	0.590001	0.880984	0.591688
	H50	H	0.599436	0.113143	0.411580
	H51	H	0.403872	0.876077	0.398953
	H52	H	0.598454	0.408014	0.118051
	H53	H	0.600085	0.586979	0.880134
	H54	H	0.407688	0.589083	0.118430
	H55	H	0.416248	0.408843	0.885452
	H56	H	0.114415	0.583305	0.409939
	H57	H	0.890432	0.587183	0.580718
	H58	H	0.116838	0.407393	0.591491
	H59	H	0.888856	0.401936	0.413217
	H60	H	0.119475	0.403330	0.595477
	H61	H	0.886662	0.580913	0.601700
	H62	H	0.121357	0.591969	0.394954
	H63	H	0.885809	0.407138	0.403270
	H64	H	0.409369	0.585742	0.117623
	H65	H	0.591768	0.587676	0.882699
	H66	H	0.589099	0.408955	0.114958
	H67	H	0.409316	0.395617	0.879500
	H68	H	0.600001	0.116015	0.402530
	H69	H	0.595963	0.881237	0.586404
	H70	H	0.405090	0.115491	0.591807
	H71	H	0.417596	0.882307	0.407113
	H72	H	0.909978	0.614742	0.091950
	H73	H	0.092175	0.380094	0.090285
	H74	H	0.101717	0.615150	0.909303
	H75	H	0.909373	0.379008	0.905362
	H76	H	0.095458	0.909453	0.616276
	H77	H	0.101148	0.092196	0.380113
	H78	H	0.912657	0.079817	0.612773
	H79	H	0.909691	0.899290	0.379394
	H80	H	0.618021	0.089746	0.903430
	H81	H	0.385215	0.086749	0.097913
	H82	H	0.619393	0.902209	0.094044
	H83	H	0.390163	0.906667	0.913383
	H84	H	0.618547	0.901949	0.090656
	H85	H	0.384220	0.096326	0.092480
	H86	H	0.618862	0.094539	0.903188
	H87	H	0.384869	0.906627	0.897042
	H88	H	0.915977	0.093967	0.617262
	H89	H	0.096521	0.085725	0.382572
	H90	H	0.091128	0.903617	0.617241
	H91	H	0.904108	0.907667	0.380183
	H92	H	0.095251	0.615626	0.902059
	H93	H	0.098183	0.380271	0.089626
	H94	H	0.906211	0.614725	0.089042
	H95	H	0.909988	0.381004	0.911237
	H96	H	0.409915	0.114889	0.595252
	H97	H	0.598073	0.878683	0.593933
	H98	H	0.591528	0.112995	0.405741
	H99	H	0.403167	0.881026	0.415704
	H100	H	0.592149	0.399190	0.118093
	H101	H	0.596135	0.594055	0.880167
	H102	H	0.412024	0.589125	0.117679
	H103	H	0.400679	0.409773	0.880606
	H104	H	0.118881	0.601489	0.410959
	H105	H	0.882154	0.602289	0.595403
	H106	H	0.118425	0.400770	0.589340
	H107	H	0.883733	0.396506	0.404665
	H108	H	0.905361	0.616094	0.093656
	H109	H	0.095326	0.379053	0.095168
	H110	H	0.092616	0.611112	0.911031
	H111	H	0.904846	0.379818	0.909169
	H112	H	0.098923	0.903528	0.619200
	H113	H	0.093044	0.093998	0.381875
	H114	H	0.901427	0.088808	0.620349
	H115	H	0.913426	0.907876	0.383260
	H116	H	0.618091	0.092298	0.907118
	H117	H	0.388344	0.087083	0.087727
	H118	H	0.618298	0.905093	0.092418
	H119	H	0.383866	0.892120	0.906175
	C120	C	0.380197	0.005946	0.620800
	C121	C	0.623594	0.988992	0.620196
	C122	C	0.624296	0.005463	0.377672
	C123	C	0.380911	0.988654	0.378216
	C124	C	0.622709	0.376356	0.008185
	C125	C	0.623987	0.618391	0.990319
	C126	C	0.381631	0.616940	0.008629
	C127	C	0.379987	0.375328	0.990807
	C128	C	0.010286	0.619873	0.377175
	C129	C	0.994147	0.618956	0.620932
	C130	C	0.010827	0.374323	0.622194
	C131	C	0.993803	0.374532	0.378081
	C132	C	0.879234	0.506164	0.121127
	C133	C	0.123563	0.488559	0.120644
	C134	C	0.124572	0.505545	0.878183
	C135	C	0.880564	0.488452	0.878765
	C136	C	0.123624	0.876671	0.508379
	C137	C	0.124837	0.118808	0.491091
	C138	C	0.881718	0.117189	0.507722
	C139	C	0.880312	0.875752	0.489982
	C140	C	0.510421	0.119439	0.876387
	C141	C	0.493472	0.118939	0.120820
	C142	C	0.510946	0.874438	0.120974
	C143	C	0.494135	0.874133	0.876599
	C144	C	0.382986	0.881776	0.674929
	C145	C	0.620153	0.113096	0.674092
	C146	C	0.620113	0.881544	0.322934
	C147	C	0.385257	0.112402	0.323158
	C148	C	0.678745	0.377522	0.884689
	C149	C	0.678232	0.616791	0.114835
	C150	C	0.326382	0.615582	0.884607
	C151	C	0.324439	0.376513	0.115116
	C152	C	0.888016	0.675091	0.379130
	C153	C	0.116125	0.675296	0.618977
	C154	C	0.888438	0.317993	0.620922
	C155	C	0.116862	0.321136	0.380469
	C156	C	0.888165	0.377040	0.677796
	C157	C	0.116768	0.616383	0.675550
	C158	C	0.887463	0.615975	0.322689
	C159	C	0.116506	0.379621	0.323046
	C160	C	0.384838	0.671143	0.883822
	C161	C	0.620637	0.673012	0.115108
	C162	C	0.619545	0.322129	0.883358
	C163	C	0.382578	0.320284	0.115408
	C164	C	0.679309	0.882242	0.378333
	C165	C	0.679764	0.112095	0.618789
	C166	C	0.324281	0.882694	0.619248
	C167	C	0.326038	0.111642	0.378921
	C168	C	0.882665	0.382329	0.175555
	C169	C	0.119727	0.612789	0.174508
	C170	C	0.120588	0.381711	0.823097
	C171	C	0.885093	0.612308	0.823932
	C172	C	0.179357	0.878267	0.384244
	C173	C	0.179862	0.116842	0.615204
	C174	C	0.826160	0.116520	0.383964
	C175	C	0.824126	0.876715	0.613996
	C176	C	0.387925	0.174131	0.878870
	C177	C	0.615969	0.175002	0.118344
	C178	C	0.388520	0.818606	0.118949
	C179	C	0.616791	0.820317	0.879233
	C180	C	0.388431	0.877218	0.176064
	C181	C	0.616678	0.116502	0.174998
	C182	C	0.387047	0.114452	0.823153
	C183	C	0.616860	0.878823	0.821612
	C184	C	0.885208	0.171855	0.383164
	C185	C	0.121675	0.173032	0.615731
	C186	C	0.120755	0.822487	0.383612
	C187	C	0.882557	0.820821	0.614707
	C188	C	0.178889	0.382217	0.879525
	C189	C	0.180206	0.611515	0.120252
	C190	C	0.822733	0.383205	0.120856
	C191	C	0.825375	0.611530	0.879279
	C192	C	0.402298	0.092307	0.598743
	C193	C	0.601385	0.902656	0.597378
	C194	C	0.603347	0.091914	0.399969
	C195	C	0.401884	0.902308	0.400654
	C196	C	0.599960	0.398770	0.094819
	C197	C	0.602411	0.596066	0.903523
	C198	C	0.403361	0.594465	0.095450
	C199	C	0.402206	0.397974	0.904239
	C200	C	0.095901	0.598572	0.398945
	C201	C	0.908514	0.596671	0.599063
	C202	C	0.096008	0.397088	0.599109
	C203	C	0.908305	0.395534	0.400449
	C204	C	0.900968	0.592816	0.098241
	C205	C	0.101751	0.402200	0.098313
	C206	C	0.102964	0.591661	0.900860
	C207	C	0.901766	0.402263	0.901813
	C208	C	0.101682	0.899006	0.595119
	C209	C	0.103440	0.097088	0.403923
	C210	C	0.903721	0.094300	0.594347
	C211	C	0.902559	0.898242	0.403444
	C212	C	0.596038	0.098314	0.898127
	C213	C	0.408179	0.096632	0.099122
	C214	C	0.596618	0.896657	0.098800
	C215	C	0.408590	0.895472	0.899202
	Zn216	Zn	0.501720	-0.002789	0.747820
	Zn217	Zn	0.502730	-0.002806	0.249908
	Zn218	Zn	0.751235	0.497337	-0.000092
	Zn219	Zn	0.252781	0.496798	-0.000107
	Zn220	Zn	0.002196	0.749061	0.499480
	Zn221	Zn	0.002402	0.245304	0.499774
	Zn222	Zn	0.002766	0.497049	0.750371
	Zn223	Zn	0.001387	0.497205	0.248290
	Zn224	Zn	0.502521	0.745192	-0.000667
	Zn225	Zn	0.501563	0.248011	-0.000609
	Zn226	Zn	0.752698	-0.003147	0.498799
	Zn227	Zn	0.252265	-0.002684	0.499510
	N228	N	0.417059	0.959403	0.675813
	N229	N	0.585899	0.035586	0.674936
	N230	N	0.586713	0.959165	0.322286
	N231	N	0.418690	0.034763	0.322682
	N232	N	0.680804	0.410227	0.963314
	N233	N	0.680550	0.583545	0.036208
	N234	N	0.324240	0.582657	0.963301
	N235	N	0.322737	0.410090	0.036628
	N236	N	0.965528	0.677858	0.412150
	N237	N	0.038715	0.677024	0.585761
	N238	N	0.965661	0.316264	0.587011
	N239	N	0.039709	0.318094	0.414183
	N240	N	0.965184	0.411404	0.678608
	N241	N	0.039825	0.582225	0.677201
	N242	N	0.964386	0.582429	0.321201
	N243	N	0.039051	0.412120	0.321232
	N244	N	0.418471	0.672122	0.961895
	N245	N	0.587406	0.674053	0.036838
	N246	N	0.585132	0.321522	0.961307
	N247	N	0.416252	0.319177	0.037291
	N248	N	0.681938	0.960312	0.411804
	N249	N	0.681932	0.033771	0.585879
	N250	N	0.322187	0.960955	0.586507
	N251	N	0.323191	0.033726	0.412299
	N252	N	0.916804	0.459919	0.175841
	N253	N	0.085146	0.535226	0.174952
	N254	N	0.087205	0.459328	0.822402
	N255	N	0.918674	0.534851	0.823622
	N256	N	0.181095	0.911628	0.462727
	N257	N	0.182027	0.083880	0.536520
	N258	N	0.823970	0.083117	0.462390
	N259	N	0.822631	0.910285	0.535566
	N260	N	0.465512	0.177152	0.911570
	N261	N	0.538494	0.176647	0.085413
	N262	N	0.465917	0.816625	0.085725
	N263	N	0.539445	0.817041	0.912351
	N264	N	0.465353	0.911642	0.177096
	N265	N	0.539724	0.082024	0.176511
	N266	N	0.464214	0.081507	0.821270
	N267	N	0.539468	0.911511	0.819801
	N268	N	0.918878	0.172506	0.461266
	N269	N	0.088182	0.174414	0.537517
	N270	N	0.086924	0.821392	0.461789
	N271	N	0.916884	0.820151	0.536820
	N272	N	0.181582	0.460196	0.913025
	N273	N	0.182572	0.533357	0.087299
	N274	N	0.820428	0.461381	0.087917
	N275	N	0.822338	0.533431	0.912552
	O276	O	0.525955	0.394820	0.534190
	H277	H	0.522758	0.395249	0.532771
	H278	H	0.535887	0.383056	0.521020
	O279	O	0.545323	0.504170	0.551051
	H280	H	0.541576	0.509343	0.550952
	H281	H	0.547278	0.501343	0.541815
	O282	O	0.444339	0.492764	0.486524
	H283	H	0.444740	0.509323	0.489121
	H284	H	0.444531	0.491894	0.491155
	O285	O	-0.027379	1.026080	1.005584
	H286	H	-0.025333	1.015526	1.008479
	H287	H	-0.026300	1.028273	0.998638
	O288	O	0.435374	0.539137	0.436681
	H289	H	0.432807	0.540610	0.438855
	H290	H	0.433497	0.531167	0.446727
	O291	O	-0.462784	0.498567	0.496019
	H292	H	-0.454719	0.500122	0.494431
	H293	H	-0.454741	0.490965	0.499033
	O294	O	0.508220	0.469006	0.483364
	H295	H	0.512317	0.461170	0.481101
	H296	H	0.513332	0.471821	0.483266
	O297	O	0.440428	0.546120	0.519182
	H298	H	0.446079	0.551835	0.521159
	H299	H	0.432463	0.538317	0.527631
	O300	O	0.585308	0.483712	0.480277
	H301	H	0.580375	0.490212	0.485392
	H302	H	0.592619	0.481522	0.477137
	O303	O	0.582877	0.509879	0.501807
	H304	H	0.581661	0.513551	0.507311
	H305	H	0.580970	0.503873	0.509316
	O306	O	0.633061	0.356989	1.306229
	H307	H	0.626061	0.352475	1.307376
	H308	H	0.634571	0.362161	1.305960
	O309	O	0.466458	0.463955	0.603286
	H310	H	0.463633	0.457836	0.604511
	H311	H	0.457114	0.464207	0.599316
	O312	O	0.505102	0.559787	0.550694
	H313	H	0.498137	0.558446	0.553300
	H314	H	0.503891	0.567106	0.551941
	O315	O	1.010709	-0.001550	1.025749
	H316	H	1.010408	0.003414	1.029650
	H317	H	1.009379	0.002327	1.027173
	O318	O	-0.024959	0.029616	0.022268
	H319	H	-0.029538	0.033385	0.025357
	H320	H	-0.024819	0.026564	0.014662
	O321	O	0.540436	0.464632	0.467840
	H322	H	0.540942	0.473158	0.472623
	H323	H	0.533844	0.454809	0.468130
	O324	O	0.976815	-0.007945	0.007461
	H325	H	0.981654	-0.010964	0.009581
	H326	H	0.984414	-0.006818	0.013398
	O327	O	0.992785	1.036129	-0.009861
	H328	H	0.991204	1.041330	-0.012679
	H329	H	0.978983	1.037368	-0.008314
	O330	O	0.532372	0.490555	0.460824
	H331	H	0.524035	0.493220	0.453251
	H332	H	0.533157	0.496406	0.458324
	O333	O	0.518063	0.465005	0.422567
	H334	H	0.537008	0.475832	0.418308
	H335	H	0.508916	0.471765	0.424423
