data_Molecule from HDF5

_cell_length_a		16.219762
_cell_length_b		16.346058
_cell_length_c		16.177942
_cell_angle_alpha	90.781633
_cell_angle_beta	89.351935
_cell_angle_gamma	89.576430
_symmetry_space_group_name_H-M	'P 1'
_symmetry_Int_Tables_number		1

loop_
	_symmetry_equiv_pos_as_xyz
	x,y,z

loop_
	_atom_site_label
	_atom_site_type_symbol
	_atom_site_fract_x
	_atom_site_fract_y
	_atom_site_fract_z
	H0	H	0.395352	0.837701	0.713022
	H1	H	0.592230	0.164355	0.718638
	H2	H	0.598980	0.841345	0.279149
	H3	H	0.394802	0.166018	0.287736
	H4	H	0.715146	0.397867	0.836903
	H5	H	0.704855	0.603608	0.165678
	H6	H	0.282292	0.600469	0.835098
	H7	H	0.276896	0.407087	0.163829
	H8	H	0.833064	0.720309	0.401889
	H9	H	0.159415	0.717686	0.599855
	H10	H	0.831964	0.290542	0.602546
	H11	H	0.156085	0.281713	0.393421
	H12	H	0.832102	0.406363	0.714820
	H13	H	0.160295	0.600889	0.712084
	H14	H	0.830432	0.601392	0.291386
	H15	H	0.157541	0.400035	0.281459
	H16	H	0.395346	0.715734	0.835531
	H17	H	0.592413	0.722125	0.162931
	H18	H	0.600460	0.280962	0.837561
	H19	H	0.389616	0.288918	0.163699
	H20	H	0.714310	0.840975	0.395580
	H21	H	0.707387	0.165675	0.601773
	H22	H	0.278047	0.839644	0.599017
	H23	H	0.277716	0.164843	0.403615
	H24	H	0.892437	0.340991	0.216035
	H25	H	0.091938	0.664864	0.218525
	H26	H	0.096899	0.339629	0.780080
	H27	H	0.896016	0.666176	0.787574
	H28	H	0.213654	0.899608	0.336297
	H29	H	0.205451	0.102159	0.665416
	H30	H	0.781883	0.100213	0.336065
	H31	H	0.779751	0.907362	0.664718
	H32	H	0.332293	0.219826	0.901372
	H33	H	0.656853	0.221884	0.103670
	H34	H	0.330642	0.791417	0.100569
	H35	H	0.656941	0.782378	0.894037
	H36	H	0.330839	0.909042	0.214536
	H37	H	0.659521	0.104518	0.215125
	H38	H	0.329334	0.099145	0.790543
	H39	H	0.658323	0.899213	0.781393
	H40	H	0.891994	0.218305	0.337151
	H41	H	0.091756	0.221075	0.663015
	H42	H	0.100334	0.781804	0.337287
	H43	H	0.895016	0.791433	0.664688
	H44	H	0.214451	0.340126	0.895401
	H45	H	0.205393	0.667345	0.099677
	H46	H	0.777970	0.340844	0.100771
	H47	H	0.777449	0.664958	0.901966
	H48	H	0.398088	0.117420	0.594814
	H49	H	0.591503	0.885286	0.590427
	H50	H	0.585986	0.119926	0.404800
	H51	H	0.409481	0.888358	0.406365
	H52	H	0.579712	0.408308	0.116408
	H53	H	0.579281	0.592755	0.885109
	H54	H	0.398742	0.600907	0.118135
	H55	H	0.403555	0.406832	0.882042
	H56	H	0.114245	0.597136	0.406859
	H57	H	0.880156	0.595828	0.590709
	H58	H	0.109343	0.412398	0.582426
	H59	H	0.877321	0.411615	0.408207
	H60	H	0.113776	0.413787	0.592944
	H61	H	0.878308	0.596706	0.599742
	H62	H	0.110459	0.590999	0.412433
	H63	H	0.876692	0.408361	0.408025
	H64	H	0.398959	0.598043	0.117959
	H65	H	0.592076	0.597849	0.880062
	H66	H	0.589987	0.410981	0.117911
	H67	H	0.405814	0.414067	0.884489
	H68	H	0.585282	0.116590	0.413087
	H69	H	0.585682	0.887555	0.591057
	H70	H	0.400508	0.118880	0.598552
	H71	H	0.403497	0.887766	0.409962
	H72	H	0.900227	0.619808	0.100278
	H73	H	0.094817	0.385756	0.088106
	H74	H	0.100749	0.622727	0.903623
	H75	H	0.908120	0.389206	0.906686
	H76	H	0.089679	0.901767	0.621457
	H77	H	0.089563	0.088697	0.383756
	H78	H	0.899541	0.097129	0.617629
	H79	H	0.898110	0.916261	0.383510
	H80	H	0.610877	0.087445	0.903600
	H81	H	0.377326	0.102943	0.092838
	H82	H	0.612366	0.911542	0.092498
	H83	H	0.377296	0.905921	0.909374
	H84	H	0.612270	0.905630	0.085652
	H85	H	0.381714	0.092973	0.089226
	H86	H	0.613724	0.097998	0.908123
	H87	H	0.377409	0.909707	0.906999
	H88	H	0.903536	0.098402	0.617526
	H89	H	0.084312	0.090653	0.384156
	H90	H	0.093422	0.918113	0.617195
	H91	H	0.915392	0.912234	0.387327
	H92	H	0.080230	0.618679	0.897854
	H93	H	0.083444	0.386266	0.096540
	H94	H	0.903856	0.617464	0.093551
	H95	H	0.904417	0.388052	0.909281
	H96	H	0.402701	0.116301	0.594582
	H97	H	0.588577	0.887435	0.585909
	H98	H	0.593056	0.120301	0.410153
	H99	H	0.403503	0.885940	0.402758
	H100	H	0.583016	0.418212	0.114273
	H101	H	0.590844	0.584124	0.884933
	H102	H	0.400982	0.600127	0.117849
	H103	H	0.410378	0.407594	0.884744
	H104	H	0.112160	0.588856	0.404558
	H105	H	0.877406	0.602738	0.594066
	H106	H	0.113843	0.403236	0.587961
	H107	H	0.878362	0.410196	0.411319
	H108	H	0.896281	0.619122	0.093582
	H109	H	0.082377	0.391404	0.082987
	H110	H	0.086339	0.614483	0.918364
	H111	H	0.904413	0.386505	0.905440
	H112	H	0.076964	0.911941	0.613837
	H113	H	0.087713	0.094085	0.382418
	H114	H	0.900612	0.101684	0.618687
	H115	H	0.905092	0.899285	0.379499
	H116	H	0.608709	0.089636	0.914553
	H117	H	0.378098	0.094621	0.100407
	H118	H	0.609328	0.913747	0.084436
	H119	H	0.376132	0.906546	0.904932
	C120	C	0.371926	0.009968	0.623450
	C121	C	0.616296	0.993992	0.620774
	C122	C	0.618545	0.011488	0.377370
	C123	C	0.374762	0.994679	0.378969
	C124	C	0.616873	0.380383	0.008607
	C125	C	0.615277	0.623248	0.991757
	C126	C	0.372221	0.625961	0.009056
	C127	C	0.374752	0.382150	0.991786
	C128	C	0.003938	0.622753	0.380198
	C129	C	0.987277	0.625970	0.622781
	C130	C	0.004047	0.382532	0.619151
	C131	C	0.985144	0.379401	0.377180
	C132	C	0.871152	0.511587	0.123952
	C133	C	0.114864	0.495069	0.120056
	C134	C	0.118898	0.511006	0.875829
	C135	C	0.874872	0.495045	0.878876
	C136	C	0.117950	0.879717	0.509412
	C137	C	0.114858	0.122528	0.491510
	C138	C	0.872401	0.125782	0.509200
	C139	C	0.875545	0.881945	0.491735
	C140	C	0.502814	0.121575	0.880687
	C141	C	0.486856	0.126477	0.123250
	C142	C	0.503169	0.882827	0.118911
	C143	C	0.485320	0.877928	0.876607
	C144	C	0.375070	0.886968	0.676178
	C145	C	0.612619	0.115964	0.679446
	C146	C	0.618606	0.889824	0.318277
	C147	C	0.375135	0.117149	0.325053
	C148	C	0.675751	0.379186	0.885973
	C149	C	0.669205	0.623806	0.115642
	C150	C	0.318762	0.621562	0.884677
	C151	C	0.316018	0.385871	0.115113
	C152	C	0.881567	0.680910	0.382390
	C153	C	0.110328	0.680440	0.620011
	C154	C	0.880822	0.328303	0.620452
	C155	C	0.107697	0.321206	0.375283
	C156	C	0.880970	0.385979	0.676539
	C157	C	0.110851	0.621896	0.675601
	C158	C	0.880170	0.621685	0.327389
	C159	C	0.108283	0.379831	0.319370
	C160	C	0.375333	0.678802	0.884899
	C161	C	0.612684	0.682243	0.114646
	C162	C	0.618917	0.320771	0.886197
	C163	C	0.372535	0.327531	0.115065
	C164	C	0.676075	0.889790	0.376193
	C165	C	0.670288	0.116669	0.621423
	C166	C	0.316287	0.887906	0.619630
	C167	C	0.316543	0.116485	0.382464
	C168	C	0.873044	0.389620	0.178503
	C169	C	0.112177	0.616750	0.178823
	C170	C	0.117556	0.388537	0.818357
	C171	C	0.875712	0.617242	0.824848
	C172	C	0.175505	0.879439	0.385608
	C173	C	0.168455	0.122058	0.615885
	C174	C	0.818185	0.121586	0.385657
	C175	C	0.818092	0.886290	0.615503
	C176	C	0.380420	0.180093	0.882157
	C177	C	0.608479	0.183386	0.122638
	C178	C	0.379570	0.829237	0.119160
	C179	C	0.608329	0.821031	0.875550
	C180	C	0.379842	0.887428	0.176235
	C181	C	0.609979	0.124579	0.177936
	C182	C	0.379027	0.119872	0.827221
	C183	C	0.608967	0.879235	0.819677
	C184	C	0.873623	0.180076	0.385989
	C185	C	0.112295	0.181395	0.614533
	C186	C	0.118948	0.821339	0.386089
	C187	C	0.875537	0.828641	0.615634
	C188	C	0.175721	0.388672	0.875923
	C189	C	0.168754	0.617913	0.119772
	C190	C	0.815711	0.389469	0.121050
	C191	C	0.816622	0.616553	0.881863
	C192	C	0.393808	0.095441	0.602292
	C193	C	0.594792	0.908629	0.596292
	C194	C	0.594866	0.096795	0.402077
	C195	C	0.398629	0.909363	0.400218
	C196	C	0.591556	0.405283	0.094095
	C197	C	0.593795	0.598812	0.905762
	C198	C	0.393304	0.605738	0.095515
	C199	C	0.399478	0.403242	0.906079
	C200	C	0.090003	0.599275	0.401633
	C201	C	0.900982	0.604580	0.601274
	C202	C	0.090179	0.403696	0.594715
	C203	C	0.899594	0.403057	0.401876
	C204	C	0.893586	0.596758	0.102182
	C205	C	0.093266	0.409724	0.095986
	C206	C	0.095748	0.596450	0.899528
	C207	C	0.898626	0.409906	0.900621
	C208	C	0.093853	0.903648	0.595050
	C209	C	0.093522	0.098232	0.405555
	C210	C	0.894681	0.105296	0.595549
	C211	C	0.899388	0.902987	0.405699
	C212	C	0.588760	0.098341	0.902456
	C213	C	0.401298	0.103714	0.100805
	C214	C	0.588976	0.904072	0.094647
	C215	C	0.399321	0.900611	0.900359
	Zn216	Zn	0.494193	0.000879	0.751146
	Zn217	Zn	0.496444	0.003882	0.249097
	Zn218	Zn	0.744308	0.502713	0.001211
	Zn219	Zn	0.246040	0.503626	-0.000579
	Zn220	Zn	-0.003918	0.752454	0.500725
	Zn221	Zn	-0.006093	0.252714	0.499241
	Zn222	Zn	-0.003947	0.502747	0.748347
	Zn223	Zn	-0.006148	0.502413	0.251259
	Zn224	Zn	0.493979	0.752052	-0.000824
	Zn225	Zn	0.494853	0.252601	0.000905
	Zn226	Zn	0.746443	0.003273	0.500082
	Zn227	Zn	0.244537	0.001989	0.500573
	N228	N	0.408732	0.963880	0.678779
	N229	N	0.579753	0.038546	0.679242
	N230	N	0.583500	0.966722	0.318842
	N231	N	0.410595	0.040361	0.322760
	N232	N	0.674467	0.415487	0.963205
	N233	N	0.670784	0.587640	0.038294
	N234	N	0.316511	0.589480	0.962827
	N235	N	0.317617	0.419400	0.037611
	N236	N	0.959727	0.681914	0.414481
	N237	N	0.032203	0.683170	0.588000
	N238	N	0.958401	0.326130	0.585331
	N239	N	0.030124	0.320817	0.410398
	N240	N	0.958744	0.418813	0.675982
	N241	N	0.033198	0.588620	0.677512
	N242	N	0.957216	0.586045	0.326127
	N243	N	0.031048	0.415266	0.320278
	N244	N	0.407782	0.681879	0.963178
	N245	N	0.580321	0.682250	0.036352
	N246	N	0.583074	0.321283	0.963677
	N247	N	0.408446	0.325030	0.037467
	N248	N	0.676365	0.966616	0.411933
	N249	N	0.672506	0.039966	0.585631
	N250	N	0.314358	0.965415	0.587497
	N251	N	0.316406	0.039372	0.415251
	N252	N	0.906787	0.466480	0.180505
	N253	N	0.079468	0.539358	0.179253
	N254	N	0.083300	0.465785	0.817982
	N255	N	0.911411	0.540754	0.823123
	N256	N	0.174970	0.915070	0.463072
	N257	N	0.170289	0.086332	0.538374
	N258	N	0.817487	0.088482	0.463207
	N259	N	0.817821	0.918497	0.537325
	N260	N	0.458411	0.181289	0.914727
	N261	N	0.530972	0.184555	0.089371
	N262	N	0.457216	0.826248	0.084203
	N263	N	0.530446	0.820060	0.910236
	N264	N	0.457743	0.920114	0.176182
	N265	N	0.533071	0.089822	0.178628
	N266	N	0.456146	0.084317	0.826081
	N267	N	0.531588	0.913787	0.819989
	N268	N	0.906780	0.182816	0.464012
	N269	N	0.079729	0.181883	0.536310
	N270	N	0.084020	0.821125	0.464002
	N271	N	0.910530	0.825794	0.537851
	N272	N	0.176927	0.465952	0.910670
	N273	N	0.170447	0.541086	0.083743
	N274	N	0.814424	0.466339	0.087700
	N275	N	0.815905	0.539385	0.914662
	O276	O	1.124799	-0.140269	0.876264
	H277	H	1.125180	-0.147507	0.874650
	H278	H	1.119025	-0.143057	0.875371
	O279	O	0.526082	0.657190	0.520012
	H280	H	0.515535	0.656054	0.525463
	H281	H	0.528753	0.648498	0.526619
	O282	O	0.574697	0.412339	0.417742
	H283	H	0.586512	0.397373	0.413664
	H284	H	0.570665	0.410727	0.416428
	O285	O	0.550508	0.424176	0.452411
	H286	H	0.553033	0.429753	0.446366
	H287	H	0.542030	0.411161	0.447601
	O288	O	0.584082	0.465311	0.516427
	H289	H	0.587662	0.453915	0.518562
	H290	H	0.582727	0.462651	0.504351
	O291	O	0.081574	0.064670	0.962899
	H292	H	0.077107	0.051204	0.963799
	H293	H	0.096338	0.061046	0.967335
	O294	O	0.987688	1.064625	0.015796
	H295	H	0.994456	1.060443	0.020968
	H296	H	0.992093	1.065755	0.015878
	O297	O	0.945038	0.899707	-0.012819
	H298	H	0.944452	0.895870	-0.004556
	H299	H	0.947502	0.907629	-0.014038
	O300	O	0.560501	0.477693	0.436266
	H301	H	0.567462	0.475169	0.438221
	H302	H	0.553491	0.472899	0.436619
	O303	O	0.423653	0.530879	0.527172
	H304	H	0.410327	0.537326	0.532985
	H305	H	0.430622	0.533043	0.517752
	O306	O	0.541627	0.482797	0.627226
	H307	H	0.537078	0.480579	0.635371
	H308	H	0.541314	0.498688	0.631020
	O309	O	0.585191	0.604189	0.584855
	H310	H	0.590232	0.620155	0.589275
	H311	H	0.574995	0.599420	0.602832
	O312	O	0.969064	0.917446	1.006104
	H313	H	0.969995	0.904432	1.002193
	H314	H	0.967625	0.919726	0.996260
	O315	O	0.964504	0.951169	-0.022244
	H316	H	0.956662	0.944213	-0.009141
	H317	H	0.968596	0.950133	-0.031465
	O318	O	0.402468	0.544933	0.352039
	H319	H	0.414913	0.537744	0.356913
	H320	H	0.401627	0.553137	0.351694
	O321	O	0.505094	0.459306	0.596168
	H322	H	0.502488	0.468931	0.592023
	H323	H	0.508054	0.446484	0.583629
	O324	O	0.030114	1.004765	1.010717
	H325	H	0.040185	1.010555	1.027352
	H326	H	0.033131	0.995650	1.007128
	O327	O	-0.052866	0.930637	1.127400
	H328	H	-0.048943	0.949811	1.130476
	H329	H	-0.081796	0.924891	1.131986
	O330	O	0.037850	0.095081	0.059073
	H331	H	0.044359	0.098785	0.062841
	H332	H	0.033632	0.079616	0.075885
	O333	O	0.514108	0.421506	0.546990
	H334	H	0.523001	0.420789	0.557611
	H335	H	0.515691	0.413339	0.557698
	O336	O	-0.111797	0.062037	-0.067933
	H337	H	-0.114928	0.053513	-0.076230
	H338	H	-0.100978	0.065315	-0.068344
	O339	O	0.048962	-0.020463	0.077899
	H340	H	0.059483	-0.027760	0.079895
	H341	H	0.054448	-0.021317	0.077523
	O342	O	0.334636	0.445906	0.523311
	H343	H	0.333821	0.452237	0.531300
	H344	H	0.316769	0.431538	0.522301
	O345	O	0.047369	0.985599	0.890477
	H346	H	0.050113	0.981840	0.903688
	H347	H	0.050563	0.987193	0.878142
	O348	O	0.342043	0.528295	0.590885
	H349	H	0.351736	0.517180	0.588527
	H350	H	0.338915	0.531499	0.592916
	O351	O	0.411363	0.520981	0.541207
	H352	H	0.401577	0.514445	0.537607
	H353	H	0.398885	0.525961	0.533452
	O354	O	0.063097	1.043019	0.043803
	H355	H	0.062388	1.045656	0.041053
	H356	H	0.061957	1.047807	0.046822
	O357	O	0.487656	0.467607	0.463282
	H358	H	0.478453	0.458167	0.466786
	H359	H	0.495164	0.459562	0.454640
	O360	O	0.969782	0.042564	0.983246
	H361	H	0.973159	0.052748	0.987709
	H362	H	0.980910	0.039356	0.974324
	O363	O	0.436345	0.450717	0.341687
	H364	H	0.428908	0.447885	0.340406
	H365	H	0.428322	0.442324	0.326883
	O366	O	0.602460	0.473545	0.524694
	H367	H	0.612844	0.480709	0.519408
	H368	H	0.610141	0.479093	0.521521
	O369	O	0.954326	0.092529	0.048605
	H370	H	0.949609	0.100518	0.054645
	H371	H	0.953571	0.104347	0.029307
	O372	O	0.652931	0.499656	0.477362
	H373	H	0.671238	0.505834	0.473116
	H374	H	0.646363	0.513657	0.484414
	O375	O	0.891722	0.002934	1.015770
	H376	H	0.896260	0.007420	1.017471
	H377	H	0.890625	-0.002731	1.017294
	O378	O	0.044009	0.981310	-0.043563
	H379	H	0.029849	0.980694	-0.044966
	H380	H	0.041335	0.979512	-0.029930
	O381	O	0.464282	0.433928	0.545675
	H382	H	0.468095	0.446916	0.551980
	H383	H	0.451190	0.440167	0.554730
	O384	O	0.948971	1.062630	0.012203
	H385	H	0.956838	1.065723	0.003173
	H386	H	0.945136	1.067245	0.002056
	O387	O	0.969904	0.099276	0.983306
	H388	H	0.970282	0.109092	0.987831
	H389	H	0.964789	0.096541	0.972200
	O390	O	1.080989	0.962491	0.041471
	H391	H	1.068453	0.954558	0.041656
	H392	H	1.071919	0.960579	0.037696
	O393	O	0.430319	0.589605	0.440597
	H394	H	0.437794	0.586261	0.445148
	H395	H	0.436176	0.581471	0.446272
