data_Molecule from HDF5

_cell_length_a		16.220098
_cell_length_b		16.332012
_cell_length_c		16.172622
_cell_angle_alpha	89.991100
_cell_angle_beta	90.195291
_cell_angle_gamma	90.171127
_symmetry_space_group_name_H-M	'P 1'
_symmetry_Int_Tables_number		1

loop_
	_symmetry_equiv_pos_as_xyz
	x,y,z

loop_
	_atom_site_label
	_atom_site_type_symbol
	_atom_site_fract_x
	_atom_site_fract_y
	_atom_site_fract_z
	H0	H	0.403368	0.837215	0.715010
	H1	H	0.602995	0.163725	0.716441
	H2	H	0.600913	0.837694	0.285762
	H3	H	0.405166	0.164212	0.286382
	H4	H	0.713038	0.403652	0.834368
	H5	H	0.718315	0.597660	0.165048
	H6	H	0.289900	0.597444	0.835044
	H7	H	0.288665	0.401630	0.164989
	H8	H	0.839611	0.716359	0.396568
	H9	H	0.167126	0.715610	0.598586
	H10	H	0.840749	0.282970	0.600583
	H11	H	0.167252	0.287430	0.400458
	H12	H	0.836902	0.403471	0.710054
	H13	H	0.167275	0.599674	0.713551
	H14	H	0.838439	0.596128	0.285561
	H15	H	0.167600	0.403126	0.286917
	H16	H	0.403655	0.714791	0.836381
	H17	H	0.604427	0.714451	0.165919
	H18	H	0.600226	0.285861	0.836014
	H19	H	0.403401	0.285194	0.164620
	H20	H	0.718875	0.837631	0.400434
	H21	H	0.720415	0.163639	0.600806
	H22	H	0.286484	0.838018	0.599875
	H23	H	0.289276	0.164481	0.402325
	H24	H	0.904640	0.336090	0.213668
	H25	H	0.102126	0.663846	0.213612
	H26	H	0.097871	0.336553	0.786471
	H27	H	0.905349	0.664240	0.785098
	H28	H	0.215608	0.905085	0.335063
	H29	H	0.215786	0.097081	0.665891
	H30	H	0.788083	0.099747	0.336147
	H31	H	0.790917	0.902003	0.665471
	H32	H	0.338290	0.214147	0.901410
	H33	H	0.666053	0.216310	0.101801
	H34	H	0.338575	0.784554	0.100885
	H35	H	0.666551	0.784336	0.900980
	H36	H	0.337971	0.904383	0.212729
	H37	H	0.666994	0.098375	0.214543
	H38	H	0.337682	0.095898	0.787530
	H39	H	0.667646	0.902675	0.787940
	H40	H	0.903466	0.215278	0.335161
	H41	H	0.104830	0.216793	0.664287
	H42	H	0.103370	0.786698	0.335451
	H43	H	0.903838	0.784396	0.663406
	H44	H	0.215032	0.336152	0.901984
	H45	H	0.218298	0.662907	0.097180
	H46	H	0.787806	0.336526	0.097624
	H47	H	0.786745	0.663787	0.898287
	H48	H	0.410105	0.118699	0.600180
	H49	H	0.605430	0.883351	0.589845
	H50	H	0.602954	0.117660	0.408853
	H51	H	0.396734	0.881682	0.408830
	H52	H	0.597148	0.411894	0.117441
	H53	H	0.592205	0.598617	0.883046
	H54	H	0.405072	0.593566	0.119432
	H55	H	0.410218	0.405698	0.882768
	H56	H	0.121146	0.605715	0.413478
	H57	H	0.887380	0.595023	0.582653
	H58	H	0.123708	0.394791	0.589939
	H59	H	0.886104	0.416425	0.399123
	H60	H	0.114241	0.417228	0.581663
	H61	H	0.887400	0.587229	0.593674
	H62	H	0.115384	0.585298	0.413323
	H63	H	0.881434	0.395935	0.402652
	H64	H	0.412655	0.587789	0.115947
	H65	H	0.599211	0.592400	0.882351
	H66	H	0.590898	0.407148	0.116191
	H67	H	0.408533	0.405429	0.881635
	H68	H	0.594053	0.117752	0.402764
	H69	H	0.595411	0.882736	0.601764
	H70	H	0.415758	0.114105	0.590541
	H71	H	0.414703	0.883372	0.397577
	H72	H	0.902424	0.616563	0.089029
	H73	H	0.103472	0.382868	0.086224
	H74	H	0.106431	0.617586	0.912356
	H75	H	0.904507	0.382572	0.901843
	H76	H	0.090361	0.908877	0.615378
	H77	H	0.091733	0.095702	0.384507
	H78	H	0.905263	0.092747	0.619565
	H79	H	0.909665	0.910600	0.382907
	H80	H	0.617400	0.089509	0.911570
	H81	H	0.386614	0.085116	0.095715
	H82	H	0.621089	0.899061	0.089960
	H83	H	0.381897	0.901851	0.899342
	H84	H	0.615679	0.913531	0.088634
	H85	H	0.381773	0.100163	0.099404
	H86	H	0.621104	0.093753	0.903597
	H87	H	0.386930	0.900512	0.916802
	H88	H	0.917372	0.086505	0.613977
	H89	H	0.099421	0.100331	0.379172
	H90	H	0.095957	0.902965	0.619027
	H91	H	0.912692	0.907954	0.383432
	H92	H	0.096399	0.618902	0.895140
	H93	H	0.099154	0.379974	0.103564
	H94	H	0.911830	0.617723	0.100387
	H95	H	0.909603	0.385006	0.903475
	H96	H	0.404145	0.117455	0.589661
	H97	H	0.590949	0.888299	0.587742
	H98	H	0.593840	0.113756	0.413730
	H99	H	0.414235	0.889425	0.418199
	H100	H	0.598249	0.404827	0.119273
	H101	H	0.591119	0.590214	0.885500
	H102	H	0.415063	0.597418	0.118144
	H103	H	0.408668	0.407283	0.883038
	H104	H	0.123735	0.594272	0.395761
	H105	H	0.883579	0.599507	0.594809
	H106	H	0.122272	0.414807	0.606299
	H107	H	0.889980	0.408395	0.418614
	H108	H	0.916694	0.613042	0.087993
	H109	H	0.087018	0.386671	0.091898
	H110	H	0.086972	0.612175	0.911411
	H111	H	0.905857	0.384230	0.907333
	H112	H	0.098470	0.910191	0.617371
	H113	H	0.099701	0.091108	0.382307
	H114	H	0.916994	0.101146	0.617548
	H115	H	0.909914	0.905795	0.382080
	H116	H	0.620906	0.099372	0.912268
	H117	H	0.386329	0.095875	0.084744
	H118	H	0.622072	0.908918	0.102781
	H119	H	0.388871	0.916409	0.907469
	C120	C	0.380994	0.009041	0.622046
	C121	C	0.625837	0.992573	0.622564
	C122	C	0.625266	0.008842	0.379199
	C123	C	0.380656	0.992599	0.379044
	C124	C	0.623358	0.379347	0.008700
	C125	C	0.624339	0.622133	0.992350
	C126	C	0.382270	0.621300	0.008906
	C127	C	0.381061	0.378204	0.991418
	C128	C	0.011725	0.622874	0.377665
	C129	C	0.994786	0.622654	0.620009
	C130	C	0.011502	0.379606	0.621295
	C131	C	0.994793	0.379719	0.378537
	C132	C	0.881780	0.507626	0.120821
	C133	C	0.125263	0.491278	0.121900
	C134	C	0.124337	0.508385	0.877476
	C135	C	0.879554	0.492211	0.876538
	C136	C	0.124206	0.879520	0.508653
	C137	C	0.125238	0.123294	0.491258
	C138	C	0.883237	0.122177	0.508359
	C139	C	0.882215	0.879142	0.491473
	C140	C	0.511015	0.121820	0.879871
	C141	C	0.493560	0.122243	0.122290
	C142	C	0.511416	0.878457	0.122738
	C143	C	0.494399	0.878172	0.879361
	C144	C	0.383286	0.886019	0.676904
	C145	C	0.623633	0.115030	0.678524
	C146	C	0.621712	0.885980	0.324014
	C147	C	0.384334	0.115450	0.323942
	C148	C	0.676297	0.382660	0.883971
	C149	C	0.680647	0.618863	0.115933
	C150	C	0.327368	0.618118	0.884622
	C151	C	0.326504	0.381133	0.115853
	C152	C	0.888459	0.677929	0.377713
	C153	C	0.118082	0.677659	0.618444
	C154	C	0.888932	0.322593	0.619647
	C155	C	0.118425	0.325606	0.380950
	C156	C	0.887062	0.382493	0.674296
	C157	C	0.118214	0.619861	0.675658
	C158	C	0.887757	0.618276	0.322542
	C159	C	0.118531	0.383077	0.324356
	C160	C	0.383489	0.676999	0.885497
	C161	C	0.623646	0.676648	0.116361
	C162	C	0.620505	0.323831	0.885135
	C163	C	0.382922	0.323064	0.115574
	C164	C	0.680561	0.886241	0.380764
	C165	C	0.682117	0.115040	0.621051
	C166	C	0.324923	0.886505	0.619860
	C167	C	0.326398	0.115581	0.381508
	C168	C	0.884512	0.384816	0.175499
	C169	C	0.122567	0.614596	0.176124
	C170	C	0.119888	0.385311	0.823173
	C171	C	0.883669	0.615331	0.822325
	C172	C	0.178857	0.883361	0.384420
	C173	C	0.179322	0.119197	0.616338
	C174	C	0.826715	0.119747	0.384619
	C175	C	0.828352	0.881817	0.616126
	C176	C	0.387196	0.176100	0.881449
	C177	C	0.617262	0.178034	0.121272
	C178	C	0.387664	0.822986	0.120689
	C179	C	0.617786	0.822871	0.881473
	C180	C	0.387212	0.882407	0.176074
	C181	C	0.617819	0.119223	0.177204
	C182	C	0.386801	0.117458	0.825074
	C183	C	0.618346	0.881227	0.824884
	C184	C	0.883984	0.177504	0.384490
	C185	C	0.124140	0.178357	0.615379
	C186	C	0.122696	0.824935	0.384361
	C187	C	0.884283	0.823219	0.614877
	C188	C	0.178052	0.385184	0.880741
	C189	C	0.180395	0.614339	0.118554
	C190	C	0.826055	0.385109	0.118079
	C191	C	0.824785	0.614991	0.878679
	C192	C	0.403621	0.094845	0.600038
	C193	C	0.603541	0.906828	0.599730
	C194	C	0.603337	0.094329	0.401773
	C195	C	0.402349	0.906768	0.401459
	C196	C	0.601906	0.401478	0.095244
	C197	C	0.600900	0.600215	0.905874
	C198	C	0.404441	0.599311	0.095610
	C199	C	0.402693	0.399655	0.904744
	C200	C	0.097820	0.601448	0.400886
	C201	C	0.908367	0.600353	0.596991
	C202	C	0.097959	0.402273	0.599147
	C203	C	0.908217	0.400790	0.400423
	C204	C	0.903865	0.593694	0.098683
	C205	C	0.103257	0.405416	0.100288
	C206	C	0.102883	0.594177	0.899638
	C207	C	0.900439	0.406178	0.897947
	C208	C	0.101656	0.900966	0.594885
	C209	C	0.103361	0.102061	0.404414
	C210	C	0.906331	0.099807	0.594573
	C211	C	0.904160	0.901692	0.405273
	C212	C	0.597411	0.100476	0.902529
	C213	C	0.407142	0.100169	0.099762
	C214	C	0.597466	0.900666	0.100401
	C215	C	0.408179	0.899973	0.901364
	Zn216	Zn	0.503117	0.000287	0.751178
	Zn217	Zn	0.502969	0.000676	0.250493
	Zn218	Zn	0.751680	0.500105	-0.000774
	Zn219	Zn	0.253520	0.499489	-0.000036
	Zn220	Zn	0.003016	0.751524	0.498911
	Zn221	Zn	0.004314	0.250941	0.499666
	Zn222	Zn	0.002250	0.500924	0.748446
	Zn223	Zn	0.002984	0.500052	0.250570
	Zn224	Zn	0.502737	0.750102	0.001678
	Zn225	Zn	0.502415	0.250476	0.001061
	Zn226	Zn	0.754897	0.000595	0.500900
	Zn227	Zn	0.252030	0.001276	0.500798
	N228	N	0.417744	0.963166	0.678166
	N229	N	0.589611	0.037648	0.679759
	N230	N	0.588068	0.963097	0.322995
	N231	N	0.417266	0.037867	0.322367
	N232	N	0.678294	0.416351	0.961876
	N233	N	0.681340	0.585849	0.037614
	N234	N	0.326284	0.584210	0.962675
	N235	N	0.325386	0.414946	0.037737
	N236	N	0.966591	0.680966	0.411151
	N237	N	0.040226	0.679429	0.584674
	N238	N	0.967324	0.320667	0.587330
	N239	N	0.040469	0.323190	0.414067
	N240	N	0.964614	0.417088	0.675380
	N241	N	0.040358	0.586214	0.676640
	N242	N	0.965307	0.584732	0.322360
	N243	N	0.040602	0.416162	0.323037
	N244	N	0.416913	0.678908	0.963721
	N245	N	0.589628	0.679063	0.038358
	N246	N	0.588203	0.321951	0.963731
	N247	N	0.416298	0.321425	0.037562
	N248	N	0.683050	0.963708	0.414201
	N249	N	0.683435	0.037755	0.587073
	N250	N	0.323546	0.964049	0.586585
	N251	N	0.324130	0.038252	0.415170
	N252	N	0.918190	0.462176	0.177434
	N253	N	0.089161	0.537047	0.178500
	N254	N	0.087246	0.462984	0.821127
	N255	N	0.917033	0.538021	0.820925
	N256	N	0.179908	0.916730	0.462528
	N257	N	0.180300	0.085750	0.538160
	N258	N	0.825818	0.086328	0.462748
	N259	N	0.826911	0.915917	0.538252
	N260	N	0.465417	0.178799	0.914661
	N261	N	0.539165	0.180026	0.087828
	N262	N	0.466037	0.820195	0.088396
	N263	N	0.539764	0.820798	0.914603
	N264	N	0.464948	0.916190	0.177433
	N265	N	0.539869	0.085659	0.178293
	N266	N	0.464796	0.084417	0.824023
	N267	N	0.540704	0.914799	0.823226
	N268	N	0.918370	0.178984	0.462313
	N269	N	0.091354	0.181030	0.536795
	N270	N	0.089277	0.822485	0.462404
	N271	N	0.916698	0.821383	0.536556
	N272	N	0.181005	0.462677	0.913841
	N273	N	0.182167	0.536733	0.085668
	N274	N	0.824332	0.462593	0.084653
	N275	N	0.821986	0.537346	0.911700
	O276	O	0.514394	0.608168	0.560681
	H277	H	0.519245	0.601915	0.564722
	H278	H	0.507513	0.616243	0.550372
	O279	O	0.593924	0.535166	0.605601
	H280	H	0.603697	0.536880	0.607679
	H281	H	0.600573	0.544325	0.602923
	O282	O	0.513870	0.442370	0.535639
	H283	H	0.514064	0.448239	0.534506
	H284	H	0.525812	0.448684	0.540903
	O285	O	-0.097060	0.964547	1.008008
	H286	H	-0.092113	0.967955	1.021072
	H287	H	-0.101424	0.956639	1.010899
	O288	O	0.510903	0.466537	0.634192
	H289	H	0.516539	0.477937	0.634987
	H290	H	0.522359	0.463169	0.624552
	O291	O	-0.411265	0.436209	0.479874
	H292	H	-0.408381	0.434235	0.482343
	H293	H	-0.412613	0.438545	0.484387
	O294	O	0.458072	0.541456	0.422035
	H295	H	0.445061	0.544142	0.418582
	H296	H	0.449900	0.534315	0.425628
	O297	O	0.440680	0.528818	0.478032
	H298	H	0.429502	0.521904	0.479879
	H299	H	0.435789	0.514713	0.475813
	O300	O	0.546305	0.619639	0.527803
	H301	H	0.528742	0.629024	0.515295
	H302	H	0.548095	0.622616	0.517055
	O303	O	0.483971	0.562520	0.420234
	H304	H	0.482516	0.559131	0.425982
	H305	H	0.485872	0.556332	0.423816
	O306	O	0.902719	-0.079292	1.055501
	H307	H	0.900857	-0.083669	1.061848
	H308	H	0.913863	-0.076781	1.055126
	O309	O	0.529063	0.451352	0.486798
	H310	H	0.522561	0.462968	0.488936
	H311	H	0.543397	0.450691	0.477265
	O312	O	0.474182	0.429618	0.593106
	H313	H	0.477873	0.424482	0.591975
	H314	H	0.468720	0.437551	0.606401
	O315	O	0.918182	-0.049763	0.981030
	H316	H	0.916296	-0.049095	0.981301
	H317	H	0.910927	-0.054292	0.983595
	O318	O	-0.077602	-0.057434	0.026819
	H319	H	-0.078551	-0.046416	0.024556
	H320	H	-0.088614	-0.054636	0.022536
	O321	O	0.526703	0.465309	0.391082
	H322	H	0.522875	0.462672	0.389929
	H323	H	0.532274	0.452759	0.400742
	O324	O	0.903036	-0.070705	0.045376
	H325	H	0.906571	-0.076832	0.041218
	H326	H	0.899449	-0.067945	0.047116
	O327	O	0.929245	0.936298	0.023739
	H328	H	0.920891	0.938180	0.019377
	H329	H	0.921924	0.930244	0.022630
	O330	O	0.448014	0.533156	0.419700
	H331	H	0.440517	0.539897	0.418166
	H332	H	0.438681	0.538449	0.423380
	O333	O	0.502152	0.529324	0.535447
	H334	H	0.505109	0.526770	0.540456
	H335	H	0.503575	0.519904	0.538454
