data_Molecule from HDF5

_cell_length_a		16.392223
_cell_length_b		16.196847
_cell_length_c		16.179098
_cell_angle_alpha	90.044326
_cell_angle_beta	90.295926
_cell_angle_gamma	90.045321
_symmetry_space_group_name_H-M	'P 1'
_symmetry_Int_Tables_number		1

loop_
	_symmetry_equiv_pos_as_xyz
	x,y,z

loop_
	_atom_site_label
	_atom_site_type_symbol
	_atom_site_fract_x
	_atom_site_fract_y
	_atom_site_fract_z
	H0	H	0.409342	0.837896	0.711428
	H1	H	0.602462	0.168060	0.714512
	H2	H	0.599359	0.838247	0.289161
	H3	H	0.407427	0.167948	0.289076
	H4	H	0.716835	0.403652	0.837409
	H5	H	0.720924	0.606456	0.164175
	H6	H	0.287454	0.603128	0.837178
	H7	H	0.288669	0.402619	0.165285
	H8	H	0.842391	0.719196	0.400695
	H9	H	0.167377	0.719029	0.601546
	H10	H	0.841775	0.287506	0.599167
	H11	H	0.167302	0.288687	0.403051
	H12	H	0.841333	0.403511	0.715451
	H13	H	0.167310	0.602146	0.717588
	H14	H	0.842184	0.602819	0.284113
	H15	H	0.167518	0.405209	0.285681
	H16	H	0.405715	0.716126	0.835964
	H17	H	0.602052	0.718070	0.166293
	H18	H	0.599836	0.290493	0.836895
	H19	H	0.406863	0.290991	0.166554
	H20	H	0.719635	0.839977	0.400515
	H21	H	0.721075	0.167644	0.603385
	H22	H	0.288355	0.840388	0.601072
	H23	H	0.288751	0.167157	0.401042
	H24	H	0.908140	0.338542	0.212537
	H25	H	0.102724	0.668365	0.214107
	H26	H	0.098210	0.338253	0.790742
	H27	H	0.906040	0.668508	0.786567
	H28	H	0.217944	0.903272	0.337187
	H29	H	0.220498	0.104732	0.664656
	H30	H	0.788655	0.102535	0.337294
	H31	H	0.789511	0.902203	0.665601
	H32	H	0.340484	0.216914	0.903212
	H33	H	0.666485	0.218323	0.101473
	H34	H	0.340274	0.789491	0.097629
	H35	H	0.666190	0.788423	0.903331
	H36	H	0.340494	0.904430	0.214997
	H37	H	0.665998	0.101203	0.217702
	H38	H	0.340962	0.100660	0.785060
	H39	H	0.667167	0.904427	0.787285
	H40	H	0.905351	0.215944	0.336015
	H41	H	0.102608	0.217104	0.665242
	H42	H	0.100475	0.790461	0.336404
	H43	H	0.908453	0.789736	0.666423
	H44	H	0.218842	0.340656	0.900352
	H45	H	0.220554	0.666641	0.101668
	H46	H	0.787183	0.340446	0.101578
	H47	H	0.786731	0.667478	0.899018
	H48	H	0.407952	0.123463	0.597045
	H49	H	0.601099	0.884568	0.596634
	H50	H	0.598966	0.123707	0.399524
	H51	H	0.411096	0.883203	0.401859
	H52	H	0.597538	0.414619	0.118898
	H53	H	0.593247	0.590714	0.886208
	H54	H	0.420993	0.591923	0.114231
	H55	H	0.414949	0.413744	0.886196
	H56	H	0.123708	0.593640	0.393676
	H57	H	0.889451	0.591411	0.596675
	H58	H	0.120151	0.407337	0.594787
	H59	H	0.886530	0.400852	0.408020
	H60	H	0.118521	0.412261	0.594647
	H61	H	0.887484	0.601066	0.593913
	H62	H	0.123208	0.610375	0.412536
	H63	H	0.892349	0.414938	0.413356
	H64	H	0.409953	0.607599	0.122490
	H65	H	0.591711	0.597593	0.883870
	H66	H	0.593835	0.411344	0.118175
	H67	H	0.409458	0.403720	0.881496
	H68	H	0.587652	0.117263	0.413444
	H69	H	0.592952	0.887964	0.593798
	H70	H	0.417226	0.119383	0.593698
	H71	H	0.413040	0.888553	0.413726
	H72	H	0.909820	0.619594	0.085805
	H73	H	0.100401	0.386201	0.088781
	H74	H	0.097105	0.625048	0.899928
	H75	H	0.908458	0.389257	0.916186
	H76	H	0.090138	0.904653	0.619263
	H77	H	0.096890	0.095236	0.383519
	H78	H	0.910261	0.093274	0.618006
	H79	H	0.904417	0.918836	0.385227
	H80	H	0.619262	0.101413	0.912373
	H81	H	0.382284	0.105015	0.104758
	H82	H	0.618132	0.911068	0.091307
	H83	H	0.387972	0.913381	0.902752
	H84	H	0.619065	0.913380	0.097960
	H85	H	0.389538	0.103692	0.082840
	H86	H	0.617802	0.092088	0.909398
	H87	H	0.386078	0.905615	0.903684
	H88	H	0.915294	0.095491	0.617475
	H89	H	0.097697	0.097546	0.382660
	H90	H	0.107331	0.909567	0.622398
	H91	H	0.919188	0.912663	0.387809
	H92	H	0.087265	0.617268	0.913317
	H93	H	0.099721	0.383827	0.098138
	H94	H	0.906203	0.622960	0.096076
	H95	H	0.902908	0.383494	0.904413
	H96	H	0.408785	0.119786	0.587093
	H97	H	0.600513	0.886945	0.588135
	H98	H	0.606388	0.120987	0.417143
	H99	H	0.401839	0.883291	0.410331
	H100	H	0.598689	0.410207	0.119978
	H101	H	0.598656	0.595282	0.883347
	H102	H	0.401484	0.588452	0.119353
	H103	H	0.402952	0.414200	0.883457
	H104	H	0.115102	0.587114	0.416409
	H105	H	0.891279	0.594158	0.586533
	H106	H	0.121919	0.410184	0.598680
	H107	H	0.887736	0.413813	0.398016
	H108	H	0.917188	0.620012	0.093945
	H109	H	0.091630	0.387429	0.093339
	H110	H	0.105952	0.621832	0.915622
	H111	H	0.915967	0.387265	0.904638
	H112	H	0.095128	0.921181	0.614229
	H113	H	0.099381	0.094985	0.383031
	H114	H	0.911091	0.098640	0.619702
	H115	H	0.907607	0.903201	0.380873
	H116	H	0.621552	0.098621	0.903389
	H117	H	0.390383	0.085149	0.096667
	H118	H	0.619915	0.906712	0.096556
	H119	H	0.388600	0.910125	0.910170
	C120	C	0.383243	0.012095	0.621391
	C121	C	0.626810	0.995200	0.622197
	C122	C	0.625547	0.011893	0.380760
	C123	C	0.381496	0.994273	0.380126
	C124	C	0.624925	0.382434	0.010345
	C125	C	0.624327	0.625064	0.992725
	C126	C	0.382188	0.624781	0.009729
	C127	C	0.381514	0.381868	0.992754
	C128	C	0.012997	0.625536	0.378462
	C129	C	0.996673	0.625088	0.622728
	C130	C	0.012347	0.381249	0.623424
	C131	C	0.996412	0.381502	0.378276
	C132	C	0.882760	0.512206	0.121236
	C133	C	0.125903	0.494657	0.122297
	C134	C	0.124310	0.512759	0.880721
	C135	C	0.880801	0.495108	0.878836
	C136	C	0.125504	0.882806	0.509868
	C137	C	0.126310	0.125089	0.491839
	C138	C	0.883210	0.124589	0.509465
	C139	C	0.882660	0.882059	0.493431
	C140	C	0.512050	0.125578	0.879149
	C141	C	0.495162	0.125818	0.123576
	C142	C	0.511293	0.881842	0.123056
	C143	C	0.495190	0.881162	0.878375
	C144	C	0.387580	0.887431	0.674806
	C145	C	0.623768	0.118841	0.677469
	C146	C	0.621511	0.887875	0.325837
	C147	C	0.385729	0.118707	0.326007
	C148	C	0.679044	0.384178	0.886541
	C149	C	0.681635	0.625059	0.115736
	C150	C	0.325988	0.622987	0.886181
	C151	C	0.327039	0.383527	0.116515
	C152	C	0.890902	0.680961	0.380533
	C153	C	0.118940	0.680841	0.621620
	C154	C	0.890119	0.325680	0.619927
	C155	C	0.118754	0.326455	0.381682
	C156	C	0.889906	0.383594	0.677721
	C157	C	0.118614	0.623137	0.679603
	C158	C	0.890885	0.623199	0.322445
	C159	C	0.119036	0.384747	0.323928
	C160	C	0.384802	0.678993	0.885533
	C161	C	0.622116	0.680381	0.116795
	C162	C	0.620938	0.327698	0.886280
	C163	C	0.385740	0.328006	0.117151
	C164	C	0.681047	0.888727	0.381549
	C165	C	0.682679	0.118575	0.621997
	C166	C	0.327186	0.888701	0.620279
	C167	C	0.326647	0.118062	0.381225
	C168	C	0.886215	0.388070	0.175769
	C169	C	0.123004	0.618863	0.176805
	C170	C	0.119822	0.387944	0.827141
	C171	C	0.884088	0.619030	0.823385
	C172	C	0.180071	0.883829	0.386197
	C173	C	0.182067	0.123935	0.615745
	C174	C	0.827199	0.122597	0.385981
	C175	C	0.827775	0.882912	0.616597
	C176	C	0.389254	0.179410	0.881995
	C177	C	0.617661	0.180678	0.121928
	C178	C	0.388864	0.827129	0.118962
	C179	C	0.617728	0.826047	0.882094
	C180	C	0.389077	0.884196	0.177396
	C181	C	0.617606	0.122394	0.179363
	C182	C	0.389583	0.121769	0.823383
	C183	C	0.618281	0.883912	0.824601
	C184	C	0.885142	0.178906	0.385529
	C185	C	0.123354	0.179586	0.616138
	C186	C	0.121874	0.827790	0.385648
	C187	C	0.886724	0.826769	0.617051
	C188	C	0.179827	0.389089	0.881545
	C189	C	0.181944	0.618000	0.121306
	C190	C	0.826593	0.388950	0.120400
	C191	C	0.825027	0.618623	0.879370
	C192	C	0.404986	0.098550	0.599326
	C193	C	0.604684	0.908850	0.599427
	C194	C	0.603877	0.098296	0.403439
	C195	C	0.402563	0.907640	0.402108
	C196	C	0.603094	0.405307	0.096801
	C197	C	0.601359	0.601602	0.906564
	C198	C	0.404344	0.602406	0.096188
	C199	C	0.402848	0.404059	0.906116
	C200	C	0.098676	0.603641	0.401013
	C201	C	0.911522	0.602283	0.599275
	C202	C	0.097890	0.403392	0.602263
	C203	C	0.910936	0.403309	0.400061
	C204	C	0.904614	0.598324	0.098740
	C205	C	0.103896	0.408095	0.099854
	C206	C	0.103109	0.599012	0.902958
	C207	C	0.902614	0.409156	0.901766
	C208	C	0.103871	0.905260	0.596304
	C209	C	0.104312	0.102698	0.405507
	C210	C	0.905707	0.102408	0.596058
	C211	C	0.904280	0.904914	0.406796
	C212	C	0.597365	0.103851	0.901777
	C213	C	0.409504	0.104097	0.101334
	C214	C	0.596888	0.903910	0.101526
	C215	C	0.409717	0.903221	0.899318
	Zn216	Zn	0.504599	0.003144	0.749418
	Zn217	Zn	0.503013	0.003128	0.252809
	Zn218	Zn	0.752879	0.504033	0.000795
	Zn219	Zn	0.253410	0.503141	0.001224
	Zn220	Zn	0.004894	0.754114	0.501263
	Zn221	Zn	0.004543	0.252393	0.500471
	Zn222	Zn	0.004087	0.503483	0.752246
	Zn223	Zn	0.004509	0.503655	0.249257
	Zn224	Zn	0.503435	0.753085	0.001014
	Zn225	Zn	0.503503	0.254832	0.001790
	Zn226	Zn	0.754866	0.003676	0.501958
	Zn227	Zn	0.253623	0.003422	0.500889
	N228	N	0.421548	0.965157	0.675537
	N229	N	0.589794	0.041203	0.677742
	N230	N	0.587423	0.965428	0.325540
	N231	N	0.419210	0.040837	0.325134
	N232	N	0.682006	0.417158	0.964838
	N233	N	0.683145	0.591416	0.037562
	N234	N	0.324182	0.589778	0.964410
	N235	N	0.324231	0.416294	0.037977
	N236	N	0.968075	0.682610	0.414636
	N237	N	0.042091	0.682134	0.586989
	N238	N	0.967324	0.324164	0.586830
	N239	N	0.041574	0.324459	0.414761
	N240	N	0.966860	0.417347	0.680072
	N241	N	0.041638	0.589138	0.680238
	N242	N	0.967888	0.589651	0.321180
	N243	N	0.041902	0.418199	0.321713
	N244	N	0.419144	0.679993	0.963205
	N245	N	0.587419	0.680466	0.039248
	N246	N	0.587904	0.326839	0.964314
	N247	N	0.418968	0.326880	0.039259
	N248	N	0.683717	0.966859	0.414839
	N249	N	0.684627	0.040518	0.588326
	N250	N	0.324580	0.967119	0.587691
	N251	N	0.324013	0.039779	0.414263
	N252	N	0.920587	0.465543	0.176142
	N253	N	0.089029	0.541162	0.177430
	N254	N	0.086090	0.465613	0.826473
	N255	N	0.918177	0.541484	0.823099
	N256	N	0.182293	0.917451	0.464430
	N257	N	0.184037	0.090654	0.537514
	N258	N	0.825960	0.089400	0.464165
	N259	N	0.825408	0.916584	0.538639
	N260	N	0.466331	0.181949	0.915915
	N261	N	0.540599	0.182836	0.087862
	N262	N	0.465951	0.825712	0.085740
	N263	N	0.540370	0.824241	0.914771
	N264	N	0.466265	0.917498	0.179987
	N265	N	0.540406	0.089025	0.180558
	N266	N	0.466858	0.088879	0.821621
	N267	N	0.541144	0.917437	0.822038
	N268	N	0.919320	0.180279	0.463305
	N269	N	0.089293	0.180271	0.538264
	N270	N	0.088500	0.827062	0.463509
	N271	N	0.920194	0.826134	0.539204
	N272	N	0.182772	0.467499	0.914386
	N273	N	0.183815	0.539800	0.088153
	N274	N	0.824147	0.467142	0.087150
	N275	N	0.822851	0.540639	0.913221
	O276	O	0.573161	0.526111	0.513606
	H277	H	0.563699	0.524000	0.515290
	H278	H	0.576803	0.530353	0.516163
	O279	O	-0.062146	0.006986	0.036480
	H280	H	-0.065473	0.001549	0.036696
	H281	H	-0.063095	0.016768	0.042446
	O282	O	0.616202	0.576485	0.537126
	H283	H	0.619250	0.571610	0.539716
	H284	H	0.623395	0.577872	0.542946
	O285	O	0.592922	0.571234	0.517492
	H286	H	0.591431	0.578949	0.518692
	H287	H	0.592244	0.583249	0.510147
	O288	O	0.941535	0.022544	-0.002953
	H289	H	0.944295	0.027465	0.004217
	H290	H	0.943148	0.022242	-0.005480
	O291	O	-0.432566	0.523848	-0.497641
	H292	H	-0.427976	0.519920	-0.503875
	H293	H	-0.426295	0.536817	-0.494766
	O294	O	0.554608	0.491626	0.511896
	H295	H	0.558124	0.484028	0.513349
	H296	H	0.555094	0.486373	0.507904
	O297	O	-0.041246	1.051526	0.039966
	H298	H	-0.045927	1.054735	0.031721
	H299	H	-0.037254	1.056134	0.031732
	O300	O	0.938471	0.001586	1.042616
	H301	H	0.933248	0.000447	1.039915
	H302	H	0.940150	0.002556	1.051325
	O303	O	0.577525	0.511966	0.529753
	H304	H	0.574933	0.510479	0.522786
	H305	H	0.579069	0.508683	0.530986
	O306	O	-0.032865	1.034668	1.015449
	H307	H	-0.030712	1.025323	1.015086
	H308	H	-0.032484	1.031305	1.017448
	O309	O	0.538304	0.522813	0.551436
	H310	H	0.545238	0.526675	0.555538
	H311	H	0.538061	0.519213	0.550309
