data_Molecule from HDF5

_cell_length_a		16.197832
_cell_length_b		16.469585
_cell_length_c		16.362521
_cell_angle_alpha	90.031285
_cell_angle_beta	90.049515
_cell_angle_gamma	90.049129
_symmetry_space_group_name_H-M	'P 1'
_symmetry_Int_Tables_number		1

loop_
	_symmetry_equiv_pos_as_xyz
	x,y,z

loop_
	_atom_site_label
	_atom_site_type_symbol
	_atom_site_fract_x
	_atom_site_fract_y
	_atom_site_fract_z
	H0	H	0.394158	0.838051	0.720962
	H1	H	0.607529	0.154041	0.723102
	H2	H	0.605363	0.838164	0.278788
	H3	H	0.394597	0.155782	0.277178
	H4	H	0.719954	0.393896	0.840052
	H5	H	0.717410	0.597980	0.161148
	H6	H	0.281172	0.595492	0.839484
	H7	H	0.282352	0.390960	0.160260
	H8	H	0.839672	0.715334	0.397726
	H9	H	0.162743	0.717629	0.606933
	H10	H	0.840461	0.275705	0.609046
	H11	H	0.161814	0.275480	0.397046
	H12	H	0.839057	0.396214	0.718775
	H13	H	0.163176	0.600995	0.720302
	H14	H	0.839336	0.598401	0.283656
	H15	H	0.163331	0.392369	0.283648
	H16	H	0.393991	0.716006	0.839467
	H17	H	0.606642	0.719103	0.157202
	H18	H	0.607585	0.275247	0.840237
	H19	H	0.393718	0.271929	0.157230
	H20	H	0.717849	0.836419	0.399445
	H21	H	0.719439	0.156560	0.602764
	H22	H	0.281730	0.836432	0.601695
	H23	H	0.278941	0.155388	0.394457
	H24	H	0.895010	0.336935	0.223485
	H25	H	0.104759	0.654448	0.220267
	H26	H	0.108030	0.338232	0.777493
	H27	H	0.895164	0.654286	0.779148
	H28	H	0.218769	0.894367	0.340273
	H29	H	0.222152	0.099685	0.660791
	H30	H	0.784700	0.097501	0.338900
	H31	H	0.783429	0.896953	0.662661
	H32	H	0.340483	0.217217	0.891951
	H33	H	0.662230	0.216271	0.103510
	H34	H	0.340603	0.777096	0.103596
	H35	H	0.660560	0.773986	0.890769
	H36	H	0.340418	0.894158	0.217547
	H37	H	0.662461	0.101674	0.218729
	H38	H	0.339562	0.099872	0.779781
	H39	H	0.662959	0.894134	0.781190
	H40	H	0.893947	0.219889	0.342485
	H41	H	0.107411	0.217063	0.661644
	H42	H	0.107531	0.775052	0.343600
	H43	H	0.893327	0.775885	0.661191
	H44	H	0.217782	0.334526	0.899560
	H45	H	0.221402	0.653638	0.103787
	H46	H	0.780659	0.335379	0.104358
	H47	H	0.779760	0.654624	0.896135
	H48	H	0.410575	0.106745	0.581059
	H49	H	0.597695	0.878986	0.596488
	H50	H	0.590781	0.110492	0.408954
	H51	H	0.405501	0.881895	0.408969
	H52	H	0.578280	0.406440	0.110706
	H53	H	0.591645	0.587476	0.883944
	H54	H	0.421810	0.593278	0.112000
	H55	H	0.415070	0.413778	0.888876
	H56	H	0.116700	0.583661	0.409667
	H57	H	0.886823	0.586567	0.587190
	H58	H	0.109649	0.416241	0.578689
	H59	H	0.887610	0.407136	0.418453
	H60	H	0.119580	0.413265	0.604141
	H61	H	0.886225	0.584374	0.592189
	H62	H	0.118744	0.590867	0.409938
	H63	H	0.887528	0.412500	0.412215
	H64	H	0.404103	0.591805	0.117951
	H65	H	0.591854	0.582251	0.885489
	H66	H	0.591519	0.394712	0.118243
	H67	H	0.418095	0.399296	0.884922
	H68	H	0.593527	0.111340	0.408317
	H69	H	0.581753	0.884389	0.593813
	H70	H	0.406110	0.113456	0.594743
	H71	H	0.414776	0.883528	0.402802
	H72	H	0.907396	0.609704	0.092135
	H73	H	0.094400	0.381099	0.087984
	H74	H	0.086627	0.607715	0.910345
	H75	H	0.906162	0.379846	0.906055
	H76	H	0.088550	0.903097	0.616850
	H77	H	0.093145	0.089567	0.385829
	H78	H	0.912092	0.087448	0.614984
	H79	H	0.910403	0.912278	0.388845
	H80	H	0.614384	0.081899	0.912588
	H81	H	0.385500	0.087722	0.088377
	H82	H	0.618706	0.907874	0.093430
	H83	H	0.385851	0.911945	0.905282
	H84	H	0.616911	0.901422	0.083333
	H85	H	0.387415	0.085480	0.083285
	H86	H	0.617448	0.086271	0.907618
	H87	H	0.382050	0.899693	0.906867
	H88	H	0.911381	0.089162	0.616399
	H89	H	0.087329	0.082064	0.389066
	H90	H	0.093720	0.909612	0.616081
	H91	H	0.918779	0.899739	0.387832
	H92	H	0.092862	0.608293	0.914996
	H93	H	0.093424	0.377617	0.099215
	H94	H	0.912094	0.609134	0.095989
	H95	H	0.921819	0.385176	0.908347
	H96	H	0.421285	0.107226	0.592855
	H97	H	0.593386	0.884900	0.581171
	H98	H	0.591250	0.111582	0.406228
	H99	H	0.415352	0.887017	0.414177
	H100	H	0.596260	0.412421	0.113175
	H101	H	0.586738	0.585544	0.886574
	H102	H	0.413499	0.577217	0.110585
	H103	H	0.403603	0.404596	0.883451
	H104	H	0.115485	0.587359	0.416219
	H105	H	0.885093	0.589231	0.591310
	H106	H	0.119805	0.392063	0.586645
	H107	H	0.885313	0.404815	0.411602
	H108	H	0.912715	0.607359	0.091076
	H109	H	0.084282	0.382301	0.093601
	H110	H	0.093303	0.610798	0.907272
	H111	H	0.910780	0.385646	0.920523
	H112	H	0.085901	0.910558	0.613412
	H113	H	0.083487	0.091270	0.388004
	H114	H	0.909723	0.086935	0.615602
	H115	H	0.904368	0.899615	0.383238
	H116	H	0.615329	0.088673	0.913632
	H117	H	0.386431	0.082226	0.087996
	H118	H	0.613957	0.913256	0.083529
	H119	H	0.386848	0.905949	0.916813
	C120	C	0.379680	0.004452	0.620974
	C121	C	0.622428	0.987934	0.621886
	C122	C	0.622763	0.005627	0.377341
	C123	C	0.379274	0.988730	0.376884
	C124	C	0.621561	0.373843	0.008376
	C125	C	0.622302	0.617693	0.990517
	C126	C	0.379537	0.617656	0.007957
	C127	C	0.379894	0.373654	0.990913
	C128	C	0.010131	0.618073	0.380636
	C129	C	0.992786	0.618112	0.622295
	C130	C	0.009788	0.375976	0.622367
	C131	C	0.993115	0.375842	0.381889
	C132	C	0.878145	0.503964	0.124414
	C133	C	0.122970	0.485801	0.123861
	C134	C	0.122779	0.504121	0.879177
	C135	C	0.880446	0.488222	0.879777
	C136	C	0.121525	0.876244	0.509862
	C137	C	0.121913	0.118841	0.492967
	C138	C	0.879076	0.119071	0.509892
	C139	C	0.879280	0.874035	0.493049
	C140	C	0.509344	0.117229	0.878495
	C141	C	0.492599	0.117921	0.119721
	C142	C	0.510101	0.876154	0.118875
	C143	C	0.491521	0.874373	0.877428
	C144	C	0.376800	0.885293	0.680517
	C145	C	0.625153	0.107060	0.682304
	C146	C	0.623710	0.885551	0.318935
	C147	C	0.376309	0.107911	0.316788
	C148	C	0.680933	0.374003	0.888024
	C149	C	0.679617	0.617941	0.112044
	C150	C	0.320179	0.616062	0.887444
	C151	C	0.320954	0.371997	0.111774
	C152	C	0.888343	0.676190	0.379254
	C153	C	0.114365	0.677658	0.624595
	C154	C	0.888627	0.316200	0.625857
	C155	C	0.113881	0.315825	0.379192
	C156	C	0.887712	0.375984	0.680622
	C157	C	0.114693	0.619244	0.680701
	C158	C	0.888090	0.617871	0.322468
	C159	C	0.114443	0.373965	0.322487
	C160	C	0.376446	0.675846	0.887430
	C161	C	0.624751	0.678334	0.110233
	C162	C	0.624977	0.314994	0.888152
	C163	C	0.376546	0.312796	0.110205
	C164	C	0.679532	0.884632	0.379051
	C165	C	0.680921	0.108238	0.622320
	C166	C	0.320514	0.884438	0.621323
	C167	C	0.319013	0.107947	0.375606
	C168	C	0.876216	0.384605	0.183797
	C169	C	0.123746	0.606552	0.181369
	C170	C	0.125509	0.385067	0.818453
	C171	C	0.877476	0.607064	0.819691
	C172	C	0.179864	0.875180	0.388888
	C173	C	0.182497	0.119123	0.612979
	C174	C	0.822016	0.118324	0.388028
	C175	C	0.821304	0.876150	0.613957
	C176	C	0.388470	0.176959	0.874898
	C177	C	0.613718	0.177226	0.122085
	C178	C	0.388852	0.816791	0.121596
	C179	C	0.612678	0.814435	0.873821
	C180	C	0.388834	0.874913	0.178434
	C181	C	0.613736	0.120123	0.179576
	C182	C	0.388075	0.118720	0.818921
	C183	C	0.613547	0.874170	0.818936
	C184	C	0.876600	0.178965	0.389788
	C185	C	0.125399	0.177596	0.613284
	C186	C	0.124767	0.815518	0.390596
	C187	C	0.876528	0.816010	0.613371
	C188	C	0.180258	0.383220	0.879229
	C189	C	0.181962	0.605910	0.123706
	C190	C	0.819717	0.383630	0.124030
	C191	C	0.819972	0.607319	0.877960
	C192	C	0.405220	0.087596	0.596497
	C193	C	0.597975	0.904578	0.597671
	C194	C	0.598806	0.089426	0.400729
	C195	C	0.404619	0.905679	0.401502
	C196	C	0.596019	0.397704	0.092013
	C197	C	0.597358	0.592519	0.906898
	C198	C	0.405349	0.594068	0.091860
	C199	C	0.404862	0.398777	0.907495
	C200	C	0.094915	0.594265	0.404946
	C201	C	0.908266	0.593730	0.597549
	C202	C	0.094256	0.400147	0.597219
	C203	C	0.908715	0.400889	0.406993
	C204	C	0.903299	0.587286	0.100090
	C205	C	0.098257	0.402428	0.100319
	C206	C	0.098207	0.587213	0.903750
	C207	C	0.905696	0.405207	0.904582
	C208	C	0.096533	0.900780	0.593728
	C209	C	0.095495	0.094618	0.409603
	C210	C	0.903721	0.094957	0.593715
	C211	C	0.903958	0.897278	0.408460
	C212	C	0.593953	0.092774	0.903984
	C213	C	0.408318	0.092501	0.093935
	C214	C	0.594541	0.900601	0.093992
	C215	C	0.406914	0.898599	0.902203
	Zn216	Zn	0.500278	-0.003552	0.750842
	Zn217	Zn	0.501398	-0.002952	0.247355
	Zn218	Zn	0.750301	0.495495	0.000576
	Zn219	Zn	0.251445	0.494108	0.000950
	Zn220	Zn	0.001265	0.746719	0.502114
	Zn221	Zn	0.000607	0.247444	0.502131
	Zn222	Zn	0.001574	0.496548	0.749995
	Zn223	Zn	0.001364	0.495573	0.252837
	Zn224	Zn	0.501122	0.746767	-0.001713
	Zn225	Zn	0.500732	0.245134	-0.001285
	Zn226	Zn	0.751576	-0.003232	0.500321
	Zn227	Zn	0.250665	-0.003428	0.499975
	N228	N	0.412900	0.960903	0.680475
	N229	N	0.589569	0.031248	0.682345
	N230	N	0.589525	0.961790	0.317567
	N231	N	0.413365	0.032794	0.317713
	N232	N	0.679153	0.409740	0.963806
	N233	N	0.678234	0.580934	0.036695
	N234	N	0.322034	0.580710	0.963534
	N235	N	0.323052	0.409232	0.036698
	N236	N	0.965315	0.676506	0.414690
	N237	N	0.037519	0.677245	0.589009
	N238	N	0.965473	0.315950	0.590419
	N239	N	0.037394	0.316889	0.415425
	N240	N	0.963948	0.412519	0.678353
	N241	N	0.038082	0.583041	0.679647
	N242	N	0.964858	0.582458	0.322971
	N243	N	0.038108	0.410622	0.324107
	N244	N	0.412694	0.676760	0.963503
	N245	N	0.590072	0.678382	0.033613
	N246	N	0.588536	0.314952	0.964003
	N247	N	0.412333	0.313424	0.034054
	N248	N	0.679626	0.960367	0.414341
	N249	N	0.679407	0.033356	0.585482
	N250	N	0.322354	0.959571	0.584872
	N251	N	0.320425	0.032820	0.412137
	N252	N	0.911736	0.460389	0.184155
	N253	N	0.087956	0.530838	0.181799
	N254	N	0.090653	0.461110	0.818268
	N255	N	0.914507	0.532250	0.820961
	N256	N	0.177960	0.912293	0.464097
	N257	N	0.180659	0.083441	0.537106
	N258	N	0.823279	0.081893	0.463488
	N259	N	0.822977	0.911702	0.537818
	N260	N	0.464964	0.176135	0.911292
	N261	N	0.536995	0.176137	0.085938
	N262	N	0.465307	0.817285	0.085300
	N263	N	0.535697	0.814066	0.909208
	N264	N	0.465429	0.910945	0.177009
	N265	N	0.537328	0.084111	0.178153
	N266	N	0.464275	0.082218	0.821101
	N267	N	0.537299	0.910805	0.821198
	N268	N	0.911244	0.179736	0.466628
	N269	N	0.088516	0.177575	0.537637
	N270	N	0.089117	0.816158	0.466767
	N271	N	0.911739	0.814675	0.536914
	N272	N	0.178781	0.458098	0.916482
	N273	N	0.181699	0.530067	0.088762
	N274	N	0.820536	0.459037	0.087952
	N275	N	0.821936	0.532391	0.915005
	O276	O	0.362709	0.373924	0.608664
	H277	H	0.362766	0.373729	0.600504
	H278	H	0.370331	0.368845	0.609301
	O279	O	0.451682	0.564411	0.327775
	H280	H	0.442630	0.563636	0.318465
	H281	H	0.470910	0.552824	0.320714
	O282	O	0.459972	0.474307	0.529876
	H283	H	0.455502	0.479811	0.525911
	H284	H	0.452120	0.469053	0.517500
	O285	O	0.821309	-0.183775	0.184232
	H286	H	0.820589	-0.187882	0.190946
	H287	H	0.816589	-0.177131	0.175192
	O288	O	-0.448564	0.420387	0.491885
	H289	H	-0.446302	0.419783	0.490412
	H290	H	-0.444474	0.407240	0.481620
	O291	O	0.368407	0.624440	0.543792
	H292	H	0.365594	0.612180	0.539254
	H293	H	0.356315	0.622298	0.539286
	O294	O	0.554912	0.347872	0.316165
	H295	H	0.570487	0.343625	0.318855
	H296	H	0.559668	0.336541	0.324376
	O297	O	1.095249	0.868614	1.141571
	H298	H	1.090003	0.862612	1.148413
	H299	H	1.096536	0.858998	1.129443
	O300	O	-0.027344	-0.073251	0.065650
	H301	H	-0.037730	-0.074005	0.082983
	H302	H	-0.043581	-0.096665	0.066425
	O303	O	0.398283	0.682298	0.306599
	H304	H	0.405596	0.685339	0.312291
	H305	H	0.392581	0.647712	0.317361
	O306	O	1.044806	0.043773	0.190068
	H307	H	1.045245	0.028514	0.198131
	H308	H	1.057015	0.052900	0.169579
	O309	O	0.608406	0.601132	0.665838
	H310	H	0.585254	0.592064	0.664990
	H311	H	0.605281	0.606021	0.682197
	O312	O	0.877046	0.974345	-0.140403
	H313	H	0.889336	0.976346	-0.152188
	H314	H	0.876305	0.978832	-0.127405
	O315	O	0.404411	0.468555	0.440044
	H316	H	0.390015	0.485671	0.434775
	H317	H	0.414890	0.472470	0.434683
	O318	O	0.786708	0.771865	0.241619
	H319	H	0.785658	0.762320	0.224007
	H320	H	0.789678	0.780627	0.254775
	O321	O	1.589918	-0.498543	1.570834
	H322	H	1.585835	-0.497654	1.576714
	H323	H	1.596896	-0.504221	1.593499
	O324	O	-0.159964	0.138139	1.007355
	H325	H	-0.148716	0.136031	1.014900
	H326	H	-0.168371	0.136421	1.007494
	O327	O	0.499027	0.553043	0.550990
	H328	H	0.488403	0.556991	0.565172
	H329	H	0.499562	0.564499	0.544146
	O330	O	0.346768	0.331043	0.561457
	H331	H	0.338324	0.339357	0.559759
	H332	H	0.334193	0.327661	0.541420
	O333	O	1.178375	1.116347	1.179253
	H334	H	1.189960	1.100864	1.180635
	H335	H	1.179065	1.120268	1.165750
	O336	O	0.559032	0.602879	0.618358
	H337	H	0.553286	0.604116	0.613482
	H338	H	0.550579	0.602556	0.610042
	O339	O	0.930320	0.167552	0.807894
	H340	H	0.937606	0.168816	0.798269
	H341	H	0.914037	0.157872	0.797533
	O342	O	-0.025293	0.998631	1.055855
	H343	H	-0.034628	0.994735	1.066421
	H344	H	-0.031524	0.992367	1.052891
	O345	O	0.174601	0.860082	0.870059
	H346	H	0.169884	0.860479	0.868791
	H347	H	0.174351	0.874501	0.870398
	O348	O	0.610709	0.527795	0.528015
	H349	H	0.598973	0.534216	0.531888
	H350	H	0.625151	0.519763	0.531370
	O351	O	0.036908	-0.043148	-0.181469
	H352	H	0.030063	-0.043189	-0.183953
	H353	H	0.043701	-0.047101	-0.170990
	O354	O	1.053277	1.011022	-0.187213
	H355	H	1.058603	1.020715	-0.190763
	H356	H	1.054950	1.018067	-0.191826
	O357	O	0.019434	1.194199	-0.022276
	H358	H	0.000964	1.187230	-0.030114
	H359	H	0.000897	1.195036	-0.033347
	O360	O	0.646686	0.388780	0.303461
	H361	H	0.672115	0.397619	0.292910
	H362	H	0.652684	0.364865	0.314201
	O363	O	0.656741	0.605608	0.520439
	H364	H	0.647330	0.604155	0.520662
	H365	H	0.666233	0.612574	0.535893
	O366	O	0.526315	0.553891	0.454681
	H367	H	0.542502	0.552055	0.452655
	H368	H	0.534681	0.558822	0.469077
	O369	O	0.651902	0.356550	0.440087
	H370	H	0.650364	0.359084	0.452387
	H371	H	0.664790	0.351839	0.447108
	O372	O	0.152354	1.145555	0.025459
	H373	H	0.140367	1.161091	0.022105
	H374	H	0.140960	1.148377	0.027075
	O375	O	0.533558	0.656289	0.610145
	H376	H	0.534007	0.655871	0.601658
	H377	H	0.537052	0.669411	0.621649
	O378	O	0.441671	0.370500	0.352335
	H379	H	0.447286	0.359921	0.357961
	H380	H	0.456192	0.376659	0.337222
	O381	O	0.348726	0.411132	0.684990
	H382	H	0.335685	0.402359	0.702524
	H383	H	0.342797	0.396420	0.675086
	O384	O	-0.169120	0.984445	1.180880
	H385	H	-0.177259	0.977131	1.200555
	H386	H	-0.170192	0.993891	1.179421
	O387	O	0.911260	0.838352	-0.084101
	H388	H	0.917088	0.813781	-0.074382
	H389	H	0.919459	0.850931	-0.090969
	O390	O	0.594159	0.618341	0.445948
	H391	H	0.585383	0.613214	0.456951
	H392	H	0.596755	0.617902	0.451241
	O393	O	0.915615	0.193858	1.069560
	H394	H	0.933131	0.198151	1.061039
	H395	H	0.924032	0.206481	1.072576
	O396	O	0.026093	0.928361	0.922691
	H397	H	0.041076	0.916768	0.921295
	H398	H	0.043404	0.926376	0.924204
	O399	O	0.325308	0.616807	0.530532
	H400	H	0.316378	0.616147	0.537238
	H401	H	0.335968	0.625190	0.512886
	O402	O	0.918163	0.038988	1.037878
	H403	H	0.921743	0.023112	1.051602
	H404	H	0.909508	0.041320	1.042074
	O405	O	-0.124636	-0.211541	0.046074
	H406	H	-0.114777	-0.219251	0.035799
	H407	H	-0.125565	-0.222192	0.064802
	O408	O	1.172632	0.845814	0.962355
	H409	H	1.167304	0.845585	0.966298
	H410	H	1.180230	0.835956	0.953066
	O411	O	0.911303	0.861360	0.005550
	H412	H	0.915527	0.850725	0.021777
	H413	H	0.906468	0.870207	0.005402
	O414	O	-0.135582	0.042846	0.816469
	H415	H	-0.142253	0.045463	0.816402
	H416	H	-0.142295	0.031286	0.828196
	O417	O	0.594795	0.357226	0.564693
	H418	H	0.577711	0.359452	0.577095
	H419	H	0.582144	0.351184	0.560196
	O420	O	0.121564	0.998802	0.082273
	H421	H	0.127654	0.999940	0.086387
	H422	H	0.114699	0.990679	0.092606
	O423	O	1.150176	0.045270	-0.102549
	H424	H	1.140427	0.043245	-0.098321
	H425	H	1.153539	0.050477	-0.082025
	O426	O	0.039580	0.028561	1.156257
	H427	H	0.046175	0.005683	1.152903
	H428	H	0.034407	0.019045	1.158733
	O429	O	0.438666	0.376278	0.392186
	H430	H	0.431915	0.363589	0.391857
	H431	H	0.441300	0.375703	0.378722
