data_Molecule from HDF5

_cell_length_a		16.357612
_cell_length_b		16.175972
_cell_length_c		16.290803
_cell_angle_alpha	89.922817
_cell_angle_beta	90.025201
_cell_angle_gamma	90.037839
_symmetry_space_group_name_H-M	'P 1'
_symmetry_Int_Tables_number		1

loop_
	_symmetry_equiv_pos_as_xyz
	x,y,z

loop_
	_atom_site_label
	_atom_site_type_symbol
	_atom_site_fract_x
	_atom_site_fract_y
	_atom_site_fract_z
	H0	H	0.401574	0.834882	0.713595
	H1	H	0.595876	0.165265	0.712879
	H2	H	0.594977	0.834834	0.288613
	H3	H	0.401934	0.166016	0.288383
	H4	H	0.713810	0.400437	0.837180
	H5	H	0.714639	0.599750	0.162923
	H6	H	0.283868	0.599868	0.836485
	H7	H	0.284115	0.401304	0.163792
	H8	H	0.834783	0.714515	0.402893
	H9	H	0.162410	0.712656	0.595897
	H10	H	0.835229	0.286419	0.597281
	H11	H	0.161500	0.286397	0.403063
	H12	H	0.835600	0.401976	0.715136
	H13	H	0.161288	0.600605	0.715286
	H14	H	0.835584	0.599933	0.284026
	H15	H	0.161302	0.401002	0.285644
	H16	H	0.401916	0.713748	0.835866
	H17	H	0.595219	0.713063	0.164040
	H18	H	0.595083	0.286971	0.836560
	H19	H	0.403024	0.288311	0.165441
	H20	H	0.711969	0.835572	0.403344
	H21	H	0.712823	0.164333	0.598912
	H22	H	0.284582	0.835637	0.600020
	H23	H	0.284250	0.164759	0.401720
	H24	H	0.901209	0.335887	0.212607
	H25	H	0.096698	0.664970	0.213129
	H26	H	0.095225	0.335279	0.788100
	H27	H	0.901560	0.665331	0.787140
	H28	H	0.213711	0.899978	0.337245
	H29	H	0.213362	0.098634	0.664113
	H30	H	0.783510	0.099882	0.337653
	H31	H	0.782141	0.899415	0.663246
	H32	H	0.335045	0.213440	0.904333
	H33	H	0.662587	0.213451	0.096708
	H34	H	0.334526	0.786645	0.097384
	H35	H	0.662174	0.787583	0.903777
	H36	H	0.335207	0.900152	0.216176
	H37	H	0.661987	0.098796	0.215569
	H38	H	0.335022	0.099098	0.785162
	H39	H	0.661437	0.901066	0.785183
	H40	H	0.902796	0.212525	0.336024
	H41	H	0.096308	0.213790	0.664707
	H42	H	0.094119	0.788094	0.335935
	H43	H	0.902323	0.787927	0.665607
	H44	H	0.211899	0.335333	0.902316
	H45	H	0.213026	0.665027	0.098120
	H46	H	0.785763	0.335647	0.097917
	H47	H	0.783822	0.664765	0.900775
	H48	H	0.404053	0.118012	0.594391
	H49	H	0.596347	0.883497	0.588366
	H50	H	0.595617	0.120489	0.401941
	H51	H	0.405672	0.882093	0.403210
	H52	H	0.598999	0.408710	0.118260
	H53	H	0.597308	0.587544	0.883784
	H54	H	0.404743	0.599588	0.118647
	H55	H	0.397043	0.404283	0.880679
	H56	H	0.114626	0.598177	0.408647
	H57	H	0.885366	0.581052	0.595123
	H58	H	0.118967	0.391641	0.593494
	H59	H	0.884967	0.408466	0.414478
	H60	H	0.109625	0.415155	0.581909
	H61	H	0.877041	0.600573	0.605837
	H62	H	0.113224	0.590187	0.407653
	H63	H	0.882675	0.412833	0.399722
	H64	H	0.399138	0.587496	0.116564
	H65	H	0.586553	0.592498	0.885512
	H66	H	0.590104	0.411705	0.115702
	H67	H	0.405981	0.416288	0.887058
	H68	H	0.584063	0.115337	0.406924
	H69	H	0.593402	0.879524	0.599014
	H70	H	0.407022	0.117089	0.592842
	H71	H	0.408977	0.884828	0.410767
	H72	H	0.905301	0.616967	0.089293
	H73	H	0.089879	0.378907	0.107100
	H74	H	0.089428	0.619376	0.900340
	H75	H	0.902858	0.379667	0.899559
	H76	H	0.090959	0.907340	0.616693
	H77	H	0.097177	0.092233	0.382991
	H78	H	0.903552	0.102224	0.620788
	H79	H	0.908594	0.909902	0.385355
	H80	H	0.612465	0.087798	0.905653
	H81	H	0.384706	0.084299	0.096437
	H82	H	0.612904	0.910328	0.095290
	H83	H	0.383817	0.910386	0.909230
	H84	H	0.615673	0.905273	0.098396
	H85	H	0.378503	0.098880	0.104426
	H86	H	0.615861	0.095367	0.902380
	H87	H	0.381698	0.908355	0.902816
	H88	H	0.897413	0.087237	0.617837
	H89	H	0.090381	0.089730	0.385760
	H90	H	0.093347	0.904914	0.618256
	H91	H	0.904732	0.903603	0.382869
	H92	H	0.088577	0.615280	0.912747
	H93	H	0.081073	0.388316	0.085014
	H94	H	0.903977	0.619186	0.093704
	H95	H	0.913987	0.386145	0.908159
	H96	H	0.404369	0.117751	0.591582
	H97	H	0.585832	0.885103	0.591945
	H98	H	0.594582	0.116622	0.415238
	H99	H	0.401065	0.882219	0.410031
	H100	H	0.591790	0.402297	0.118456
	H101	H	0.594930	0.599255	0.880361
	H102	H	0.412194	0.589897	0.113708
	H103	H	0.412013	0.401220	0.884028
	H104	H	0.115635	0.594706	0.401849
	H105	H	0.882929	0.601371	0.582870
	H106	H	0.117173	0.414282	0.608934
	H107	H	0.878538	0.398212	0.404028
	H108	H	0.908032	0.617635	0.092676
	H109	H	0.105469	0.381049	0.087339
	H110	H	0.099843	0.619775	0.907982
	H111	H	0.900521	0.383313	0.914176
	H112	H	0.094282	0.908273	0.617277
	H113	H	0.091152	0.097312	0.383791
	H114	H	0.912907	0.089996	0.613853
	H115	H	0.900465	0.910812	0.383524
	H116	H	0.614165	0.095074	0.910476
	H117	H	0.382710	0.099302	0.086898
	H118	H	0.614552	0.904692	0.092116
	H119	H	0.381752	0.903549	0.908103
	C120	C	0.377263	0.008540	0.621588
	C121	C	0.619741	0.991711	0.621390
	C122	C	0.619843	0.008795	0.379418
	C123	C	0.377152	0.991994	0.379603
	C124	C	0.620910	0.378762	0.008936
	C125	C	0.620881	0.621709	0.991298
	C126	C	0.376808	0.621496	0.008299
	C127	C	0.376988	0.378598	0.992150
	C128	C	0.006388	0.622646	0.378011
	C129	C	0.990199	0.622305	0.622163
	C130	C	0.006965	0.378650	0.622336
	C131	C	0.989902	0.378232	0.378242
	C132	C	0.877524	0.509008	0.120589
	C133	C	0.120407	0.491705	0.121393
	C134	C	0.120555	0.509057	0.878906
	C135	C	0.877494	0.492051	0.878841
	C136	C	0.120294	0.878768	0.509021
	C137	C	0.120761	0.121579	0.492392
	C138	C	0.877040	0.121513	0.509038
	C139	C	0.876781	0.879047	0.492315
	C140	C	0.506544	0.121779	0.878116
	C141	C	0.490444	0.121828	0.122774
	C142	C	0.506284	0.878342	0.123153
	C143	C	0.490510	0.878800	0.878418
	C144	C	0.380551	0.884273	0.676248
	C145	C	0.616486	0.116000	0.675540
	C146	C	0.616381	0.884243	0.325633
	C147	C	0.380543	0.116393	0.325276
	C148	C	0.675263	0.380822	0.885696
	C149	C	0.676099	0.619524	0.114473
	C150	C	0.322187	0.619557	0.885085
	C151	C	0.321965	0.380881	0.115035
	C152	C	0.883573	0.676910	0.381682
	C153	C	0.113299	0.676225	0.617830
	C154	C	0.883796	0.324310	0.618522
	C155	C	0.113098	0.324334	0.382463
	C156	C	0.884162	0.381797	0.677012
	C157	C	0.112853	0.620175	0.676760
	C158	C	0.884067	0.620157	0.322448
	C159	C	0.112628	0.380866	0.323449
	C160	C	0.380861	0.676127	0.884721
	C161	C	0.616889	0.675765	0.115039
	C162	C	0.616725	0.324163	0.885484
	C163	C	0.381401	0.324994	0.115989
	C164	C	0.674389	0.884593	0.382469
	C165	C	0.674608	0.115634	0.619080
	C166	C	0.322436	0.884715	0.619755
	C167	C	0.322442	0.115886	0.381882
	C168	C	0.880598	0.385018	0.175030
	C169	C	0.117350	0.615826	0.175536
	C170	C	0.116731	0.384794	0.824651
	C171	C	0.880390	0.616166	0.824522
	C172	C	0.175189	0.880407	0.385904
	C173	C	0.175462	0.119096	0.615348
	C174	C	0.822061	0.119507	0.385958
	C175	C	0.821440	0.880246	0.615145
	C176	C	0.383737	0.176352	0.882399
	C177	C	0.613793	0.175795	0.118324
	C178	C	0.383585	0.823419	0.119314
	C179	C	0.613291	0.824531	0.882340
	C180	C	0.383793	0.880337	0.178055
	C181	C	0.613497	0.118815	0.177269
	C182	C	0.383872	0.119756	0.823038
	C183	C	0.613043	0.881132	0.823618
	C184	C	0.881159	0.175521	0.385306
	C185	C	0.117227	0.176129	0.615591
	C186	C	0.115988	0.824684	0.385200
	C187	C	0.881050	0.824784	0.616128
	C188	C	0.174489	0.384677	0.881717
	C189	C	0.175334	0.615692	0.118526
	C190	C	0.822943	0.385039	0.118540
	C191	C	0.821883	0.615600	0.880648
	C192	C	0.398769	0.095204	0.599429
	C193	C	0.598197	0.905100	0.599536
	C194	C	0.597936	0.095161	0.401388
	C195	C	0.399000	0.905443	0.401431
	C196	C	0.599807	0.400776	0.094962
	C197	C	0.599278	0.599693	0.905497
	C198	C	0.398937	0.599030	0.094114
	C199	C	0.398674	0.400684	0.905945
	C200	C	0.092353	0.600772	0.399498
	C201	C	0.904065	0.600645	0.600980
	C202	C	0.092966	0.400548	0.600966
	C203	C	0.904279	0.400015	0.399699
	C204	C	0.899412	0.595623	0.098499
	C205	C	0.098711	0.405278	0.099708
	C206	C	0.098962	0.595744	0.900703
	C207	C	0.899362	0.405348	0.900722
	C208	C	0.099099	0.900574	0.595212
	C209	C	0.099187	0.099524	0.406215
	C210	C	0.898340	0.099491	0.595261
	C211	C	0.898224	0.901428	0.406221
	C212	C	0.592104	0.099267	0.899705
	C213	C	0.404360	0.100480	0.101955
	C214	C	0.592054	0.900463	0.101642
	C215	C	0.404684	0.900914	0.900267
	Zn216	Zn	0.498456	0.000065	0.749409
	Zn217	Zn	0.498288	0.000145	0.251993
	Zn218	Zn	0.749375	0.500161	-0.000097
	Zn219	Zn	0.248505	0.499957	-0.000234
	Zn220	Zn	-0.001665	0.750845	0.500882
	Zn221	Zn	-0.001370	0.249729	0.500361
	Zn222	Zn	-0.001323	0.501178	0.751201
	Zn223	Zn	-0.001550	0.500023	0.249004
	Zn224	Zn	0.498259	0.749809	0.000085
	Zn225	Zn	0.498747	0.250469	0.000820
	Zn226	Zn	0.748118	0.000330	0.500829
	Zn227	Zn	0.249036	-0.000302	0.500548
	N228	N	0.414062	0.962320	0.677321
	N229	N	0.583305	0.037846	0.677234
	N230	N	0.582888	0.962142	0.323817
	N231	N	0.413808	0.038364	0.323757
	N232	N	0.678173	0.413957	0.963395
	N233	N	0.678633	0.586592	0.036597
	N234	N	0.319628	0.586332	0.962825
	N235	N	0.319397	0.413620	0.037045
	N236	N	0.960517	0.678421	0.415407
	N237	N	0.036066	0.677531	0.584484
	N238	N	0.960993	0.322447	0.585298
	N239	N	0.035915	0.322561	0.415597
	N240	N	0.961837	0.414887	0.679409
	N241	N	0.035197	0.587380	0.679574
	N242	N	0.961678	0.587006	0.320253
	N243	N	0.035190	0.414105	0.321008
	N244	N	0.414152	0.677369	0.962318
	N245	N	0.583281	0.677336	0.037686
	N246	N	0.583500	0.323017	0.963021
	N247	N	0.414776	0.323400	0.038442
	N248	N	0.676668	0.963047	0.415242
	N249	N	0.676606	0.037401	0.586035
	N250	N	0.320314	0.962993	0.586457
	N251	N	0.320336	0.037690	0.415009
	N252	N	0.913737	0.463130	0.176592
	N253	N	0.083880	0.537894	0.177444
	N254	N	0.084126	0.463274	0.822497
	N255	N	0.914249	0.538381	0.823432
	N256	N	0.178062	0.913253	0.463797
	N257	N	0.177638	0.085773	0.537748
	N258	N	0.819436	0.086660	0.463918
	N259	N	0.818693	0.913379	0.537362
	N260	N	0.461007	0.177670	0.915984
	N261	N	0.536412	0.177667	0.085285
	N262	N	0.460647	0.822384	0.085482
	N263	N	0.536107	0.823273	0.915987
	N264	N	0.461105	0.913779	0.180532
	N265	N	0.535739	0.086073	0.180193
	N266	N	0.461275	0.086515	0.820557
	N267	N	0.535632	0.914247	0.821225
	N268	N	0.914625	0.176803	0.462732
	N269	N	0.084329	0.178136	0.537806
	N270	N	0.082526	0.823471	0.462698
	N271	N	0.914715	0.823904	0.538677
	N272	N	0.176855	0.462845	0.914682
	N273	N	0.177289	0.537427	0.085491
	N274	N	0.821118	0.463227	0.085036
	N275	N	0.820046	0.537297	0.913825
	O276	O	1.000497	0.012389	1.034989
	H277	H	1.003916	0.011550	1.037537
	H278	H	1.002412	0.015713	1.034362
	O279	O	0.362430	0.446276	0.507362
	H280	H	0.351147	0.447510	0.508651
	H281	H	0.363066	0.442808	0.509700
	O282	O	0.993373	0.981093	0.018882
	H283	H	0.993020	0.981067	0.019554
	H284	H	0.992125	0.985416	0.022057
	O285	O	0.362231	0.470982	0.529071
	H286	H	0.355405	0.471474	0.533523
	H287	H	0.365418	0.468615	0.528013
