data_Molecule from HDF5

_cell_length_a		16.404758
_cell_length_b		16.149908
_cell_length_c		16.176110
_cell_angle_alpha	90.141463
_cell_angle_beta	90.136549
_cell_angle_gamma	89.644673
_symmetry_space_group_name_H-M	'P 1'
_symmetry_Int_Tables_number		1

loop_
	_symmetry_equiv_pos_as_xyz
	x,y,z

loop_
	_atom_site_label
	_atom_site_type_symbol
	_atom_site_fract_x
	_atom_site_fract_y
	_atom_site_fract_z
	H0	H	0.409979	0.833856	0.715747
	H1	H	0.602791	0.164778	0.716514
	H2	H	0.604009	0.833737	0.290313
	H3	H	0.408217	0.165159	0.290490
	H4	H	0.723958	0.395033	0.839195
	H5	H	0.722732	0.600221	0.166094
	H6	H	0.288394	0.601968	0.839000
	H7	H	0.290429	0.396274	0.165371
	H8	H	0.842768	0.715431	0.405031
	H9	H	0.168576	0.714789	0.603725
	H10	H	0.841182	0.287577	0.599685
	H11	H	0.167556	0.281049	0.404025
	H12	H	0.842569	0.403024	0.717141
	H13	H	0.169132	0.596161	0.718081
	H14	H	0.842951	0.599042	0.287658
	H15	H	0.168756	0.396835	0.287832
	H16	H	0.408849	0.711882	0.836543
	H17	H	0.604563	0.712174	0.167186
	H18	H	0.604058	0.285211	0.837798
	H19	H	0.411951	0.288927	0.168272
	H20	H	0.723574	0.836187	0.401171
	H21	H	0.720064	0.164206	0.604044
	H22	H	0.291232	0.835476	0.603589
	H23	H	0.288502	0.162855	0.401039
	H24	H	0.910948	0.333346	0.215756
	H25	H	0.103408	0.664138	0.217492
	H26	H	0.104614	0.334078	0.789164
	H27	H	0.909965	0.665668	0.793163
	H28	H	0.223417	0.895546	0.339625
	H29	H	0.222322	0.101024	0.666196
	H30	H	0.788222	0.101494	0.339523
	H31	H	0.790885	0.900639	0.667334
	H32	H	0.344191	0.215745	0.903733
	H33	H	0.670283	0.212309	0.100895
	H34	H	0.343964	0.784855	0.099242
	H35	H	0.669385	0.781998	0.902525
	H36	H	0.343578	0.899877	0.217502
	H37	H	0.669133	0.096970	0.219572
	H38	H	0.343426	0.098101	0.788615
	H39	H	0.669204	0.899828	0.787514
	H40	H	0.908237	0.211403	0.337467
	H41	H	0.100378	0.209814	0.668464
	H42	H	0.102633	0.785325	0.337966
	H43	H	0.910221	0.788918	0.669001
	H44	H	0.223508	0.335288	0.901413
	H45	H	0.222208	0.663231	0.104322
	H46	H	0.792900	0.334168	0.103189
	H47	H	0.788752	0.662101	0.901928
	H48	H	0.419228	0.112496	0.588170
	H49	H	0.594903	0.884505	0.592221
	H50	H	0.601441	0.118025	0.412876
	H51	H	0.424286	0.884803	0.411801
	H52	H	0.603279	0.409894	0.119952
	H53	H	0.607914	0.591858	0.881988
	H54	H	0.408610	0.586370	0.119797
	H55	H	0.400271	0.415893	0.883824
	H56	H	0.117512	0.581752	0.414672
	H57	H	0.891756	0.596758	0.587206
	H58	H	0.124296	0.402734	0.605304
	H59	H	0.890751	0.403264	0.414391
	H60	H	0.121846	0.396794	0.591305
	H61	H	0.891335	0.585126	0.601385
	H62	H	0.123220	0.592728	0.402413
	H63	H	0.891183	0.412944	0.408782
	H64	H	0.419680	0.587159	0.116221
	H65	H	0.598448	0.580441	0.888106
	H66	H	0.598878	0.406954	0.119169
	H67	H	0.425477	0.416753	0.891147
	H68	H	0.595782	0.117219	0.407813
	H69	H	0.605388	0.881775	0.589958
	H70	H	0.402237	0.119384	0.592292
	H71	H	0.408367	0.882747	0.419084
	H72	H	0.913396	0.616906	0.097771
	H73	H	0.099812	0.382853	0.091826
	H74	H	0.099499	0.613710	0.923017
	H75	H	0.919613	0.381473	0.905702
	H76	H	0.097374	0.909492	0.619157
	H77	H	0.101607	0.092403	0.383702
	H78	H	0.907241	0.092240	0.621347
	H79	H	0.913115	0.905058	0.384984
	H80	H	0.624228	0.097046	0.907768
	H81	H	0.389606	0.095147	0.099299
	H82	H	0.621938	0.901784	0.092740
	H83	H	0.392222	0.906438	0.911919
	H84	H	0.620033	0.909887	0.095870
	H85	H	0.391301	0.096459	0.093112
	H86	H	0.620930	0.092189	0.914266
	H87	H	0.392265	0.908661	0.908460
	H88	H	0.914105	0.090719	0.619074
	H89	H	0.099213	0.084375	0.387177
	H90	H	0.100678	0.904899	0.621202
	H91	H	0.909789	0.910001	0.385799
	H92	H	0.109410	0.620528	0.907376
	H93	H	0.104694	0.381181	0.094645
	H94	H	0.915423	0.614652	0.092776
	H95	H	0.914869	0.382752	0.916723
	H96	H	0.415267	0.118628	0.605710
	H97	H	0.601420	0.880077	0.600403
	H98	H	0.594644	0.115126	0.414982
	H99	H	0.410523	0.878702	0.402045
	H100	H	0.603428	0.404746	0.121148
	H101	H	0.592958	0.594993	0.885650
	H102	H	0.413752	0.596888	0.120206
	H103	H	0.415411	0.394257	0.880998
	H104	H	0.120709	0.598152	0.417658
	H105	H	0.886405	0.602954	0.604162
	H106	H	0.118124	0.411737	0.594041
	H107	H	0.888417	0.403932	0.403978
	H108	H	0.909942	0.616536	0.092953
	H109	H	0.100038	0.381457	0.097100
	H110	H	0.089959	0.616045	0.905229
	H111	H	0.907955	0.379152	0.907812
	H112	H	0.103084	0.910408	0.619947
	H113	H	0.093663	0.091048	0.386012
	H114	H	0.912407	0.096746	0.621291
	H115	H	0.914998	0.910066	0.388231
	H116	H	0.622414	0.089091	0.905841
	H117	H	0.392223	0.090178	0.095341
	H118	H	0.623647	0.903951	0.100876
	H119	H	0.390293	0.904524	0.908430
	C120	C	0.384720	0.007750	0.624117
	C121	C	0.628111	0.990969	0.624106
	C122	C	0.626845	0.007890	0.382249
	C123	C	0.384675	0.990628	0.381297
	C124	C	0.629653	0.377308	0.011440
	C125	C	0.627877	0.618599	0.994105
	C126	C	0.384713	0.620178	0.010325
	C127	C	0.385867	0.378999	0.993941
	C128	C	0.013565	0.621001	0.381878
	C129	C	0.997603	0.622157	0.625779
	C130	C	0.013498	0.376957	0.624914
	C131	C	0.997520	0.376593	0.380574
	C132	C	0.885309	0.507120	0.123779
	C133	C	0.128975	0.490562	0.124433
	C134	C	0.127784	0.507725	0.882798
	C135	C	0.885023	0.490278	0.881590
	C136	C	0.128468	0.877727	0.511452
	C137	C	0.126712	0.119581	0.494409
	C138	C	0.883132	0.121518	0.511626
	C139	C	0.884571	0.879390	0.494862
	C140	C	0.514862	0.121806	0.880739
	C141	C	0.498590	0.121776	0.124726
	C142	C	0.514571	0.876363	0.124944
	C143	C	0.498722	0.876710	0.880391
	C144	C	0.388652	0.883476	0.678776
	C145	C	0.623890	0.115186	0.679562
	C146	C	0.624969	0.883632	0.327233
	C147	C	0.387003	0.115218	0.326975
	C148	C	0.685266	0.377019	0.887921
	C149	C	0.684374	0.618877	0.117263
	C150	C	0.327791	0.620197	0.887318
	C151	C	0.330062	0.378900	0.117132
	C152	C	0.891238	0.677328	0.384150
	C153	C	0.120099	0.676489	0.623498
	C154	C	0.890512	0.323991	0.621039
	C155	C	0.119293	0.319623	0.383364
	C156	C	0.891169	0.381418	0.679569
	C157	C	0.120467	0.617903	0.680658
	C158	C	0.891562	0.619526	0.325682
	C159	C	0.119862	0.377410	0.325687
	C160	C	0.387774	0.674940	0.886303
	C161	C	0.625559	0.674801	0.117803
	C162	C	0.625708	0.322230	0.887247
	C163	C	0.390233	0.325008	0.118257
	C164	C	0.684009	0.884694	0.382899
	C165	C	0.682357	0.114936	0.623443
	C166	C	0.329522	0.884229	0.623110
	C167	C	0.327516	0.114050	0.382078
	C168	C	0.889379	0.382696	0.178519
	C169	C	0.125055	0.614705	0.180197
	C170	C	0.125186	0.383447	0.827232
	C171	C	0.888283	0.615337	0.828535
	C172	C	0.184449	0.876961	0.388400
	C173	C	0.182810	0.119398	0.617699
	C174	C	0.827292	0.120155	0.388142
	C175	C	0.829111	0.881056	0.618404
	C176	C	0.392514	0.177589	0.883259
	C177	C	0.621347	0.175340	0.122119
	C178	C	0.392423	0.822102	0.121224
	C179	C	0.621024	0.820749	0.882910
	C180	C	0.392269	0.879422	0.180030
	C181	C	0.620908	0.117892	0.180760
	C182	C	0.392223	0.119241	0.825823
	C183	C	0.620997	0.879010	0.825434
	C184	C	0.886702	0.174942	0.386990
	C185	C	0.122638	0.174073	0.618430
	C186	C	0.124314	0.822227	0.387610
	C187	C	0.888566	0.825659	0.619515
	C188	C	0.184264	0.384025	0.882835
	C189	C	0.183914	0.614342	0.124073
	C190	C	0.830746	0.383173	0.122418
	C191	C	0.828479	0.613833	0.883049
	C192	C	0.405880	0.094283	0.601760
	C193	C	0.606711	0.904378	0.601064
	C194	C	0.604050	0.094300	0.405194
	C195	C	0.407615	0.904298	0.404310
	C196	C	0.608125	0.400367	0.097891
	C197	C	0.606170	0.595675	0.907551
	C198	C	0.407446	0.596919	0.096332
	C199	C	0.407343	0.402084	0.907664
	C200	C	0.098463	0.597759	0.404773
	C201	C	0.911953	0.601106	0.604042
	C202	C	0.099188	0.397635	0.603337
	C203	C	0.912177	0.399975	0.402545
	C204	C	0.906688	0.593809	0.101177
	C205	C	0.107713	0.404285	0.101328
	C206	C	0.106036	0.594442	0.905343
	C207	C	0.907556	0.403447	0.903562
	C208	C	0.106815	0.901298	0.597904
	C209	C	0.104687	0.096160	0.407919
	C210	C	0.904863	0.099548	0.598244
	C211	C	0.906266	0.901792	0.408515
	C212	C	0.600386	0.099334	0.902716
	C213	C	0.413301	0.100236	0.102394
	C214	C	0.599783	0.898535	0.102950
	C215	C	0.413595	0.899776	0.902979
	Zn216	Zn	0.506616	-0.000534	0.751856
	Zn217	Zn	0.505836	-0.000904	0.253809
	Zn218	Zn	0.757237	0.498172	0.002276
	Zn219	Zn	0.256979	0.499090	0.002735
	Zn220	Zn	0.005723	0.750965	0.503805
	Zn221	Zn	0.004988	0.247908	0.502311
	Zn222	Zn	0.006243	0.499426	0.754299
	Zn223	Zn	0.006226	0.498971	0.251825
	Zn224	Zn	0.507023	0.747232	0.001929
	Zn225	Zn	0.506900	0.250996	0.002690
	Zn226	Zn	0.755499	0.000564	0.503309
	Zn227	Zn	0.256841	-0.000867	0.502431
	N228	N	0.422258	0.961192	0.679498
	N229	N	0.590837	0.036924	0.680090
	N230	N	0.590048	0.961235	0.326678
	N231	N	0.421806	0.037482	0.326364
	N232	N	0.687900	0.410481	0.966140
	N233	N	0.685832	0.584501	0.039380
	N234	N	0.325666	0.586836	0.965443
	N235	N	0.327140	0.411877	0.038767
	N236	N	0.968095	0.678288	0.418415
	N237	N	0.042795	0.679446	0.590229
	N238	N	0.967802	0.321015	0.587794
	N239	N	0.042259	0.319219	0.416836
	N240	N	0.968453	0.413847	0.681907
	N241	N	0.043389	0.584844	0.682094
	N242	N	0.968470	0.585178	0.324237
	N243	N	0.043036	0.412201	0.323790
	N244	N	0.422422	0.675115	0.963764
	N245	N	0.591242	0.674696	0.040216
	N246	N	0.591708	0.322365	0.964964
	N247	N	0.424263	0.325030	0.040636
	N248	N	0.685293	0.963136	0.416398
	N249	N	0.684898	0.036820	0.589769
	N250	N	0.326838	0.962563	0.589940
	N251	N	0.326277	0.035690	0.415392
	N252	N	0.922323	0.460729	0.179524
	N253	N	0.091770	0.536841	0.180748
	N254	N	0.090876	0.461402	0.826954
	N255	N	0.922751	0.537383	0.827655
	N256	N	0.187167	0.910892	0.466465
	N257	N	0.185531	0.086244	0.539323
	N258	N	0.824847	0.087820	0.466693
	N259	N	0.826770	0.913944	0.540054
	N260	N	0.469662	0.179334	0.916576
	N261	N	0.544288	0.177955	0.088135
	N262	N	0.469443	0.820006	0.087961
	N263	N	0.543888	0.819022	0.916110
	N264	N	0.469421	0.912517	0.182241
	N265	N	0.543537	0.085521	0.182626
	N266	N	0.469179	0.085104	0.824328
	N267	N	0.543980	0.913240	0.823859
	N268	N	0.920923	0.175616	0.464693
	N269	N	0.088532	0.174108	0.540728
	N270	N	0.090333	0.822816	0.465246
	N271	N	0.922344	0.824508	0.541772
	N272	N	0.185941	0.462312	0.916630
	N273	N	0.186731	0.536133	0.090299
	N274	N	0.828176	0.461578	0.088970
	N275	N	0.826233	0.534987	0.915041
	O276	O	0.477304	0.431083	0.478450
	H277	H	0.465572	0.432381	0.484931
	H278	H	0.482845	0.434274	0.483038
	O279	O	0.566871	0.501972	0.465887
	H280	H	0.559286	0.505246	0.460787
	H281	H	0.565817	0.502321	0.471107
	O282	O	0.446515	0.509640	0.509851
	H283	H	0.446468	0.510242	0.512924
	H284	H	0.446675	0.498325	0.518023
	O285	O	0.087884	0.969612	0.972133
	H286	H	0.078975	0.977083	0.975038
	H287	H	0.087079	0.969182	0.964778
	O288	O	0.580107	0.499099	0.538092
	H289	H	0.598213	0.500593	0.524841
	H290	H	0.574934	0.507089	0.536941
	O291	O	-0.481540	0.564329	0.495307
	H292	H	-0.481216	0.567419	0.497127
	H293	H	-0.487021	0.575106	0.489392
	O294	O	0.430097	0.502692	0.507119
	H295	H	0.433635	0.499391	0.507134
	H296	H	0.422269	0.495639	0.503446
	O297	O	0.486027	0.487842	0.596175
	H298	H	0.488261	0.501018	0.592528
	H299	H	0.499649	0.503347	0.601095
	O300	O	0.471238	0.484718	0.480653
	H301	H	0.464569	0.474221	0.474089
	H302	H	0.477445	0.491955	0.470745
	O303	O	0.607285	0.508083	0.529383
	H304	H	0.602434	0.520146	0.516428
	H305	H	0.616388	0.517810	0.531925
	O306	O	0.356510	0.533438	1.480916
	H307	H	0.348827	0.533149	1.481408
	H308	H	0.357407	0.524536	1.474850
	O309	O	0.495288	0.403130	0.464670
	H310	H	0.494755	0.387059	0.470940
	H311	H	0.490384	0.412212	0.467282
	O312	O	0.405783	0.452938	0.435988
	H313	H	0.410819	0.452830	0.447696
	H314	H	0.403654	0.449167	0.438328
	O315	O	1.083541	-0.000292	0.982826
	H316	H	1.096464	-0.010255	0.980715
	H317	H	1.090230	0.003656	0.981399
	O318	O	-0.534063	-0.443980	-0.529706
	H319	H	-0.531898	-0.453283	-0.529709
	H320	H	-0.535783	-0.444707	-0.534161
	O321	O	0.516232	0.479082	0.560627
	H322	H	0.519826	0.473883	0.562680
	H323	H	0.522459	0.480947	0.559282
	O324	O	1.070776	-0.022457	-0.030468
	H325	H	1.073841	-0.025838	-0.030591
	H326	H	1.072958	-0.018072	-0.025034
	O327	O	1.110231	1.004652	-0.011778
	H328	H	1.110351	1.006864	-0.015046
	H329	H	1.111501	1.000912	-0.013148
	O330	O	0.519500	0.532475	0.484337
	H331	H	0.525389	0.542129	0.480363
	H332	H	0.516193	0.535118	0.476479
	O333	O	0.404839	0.596361	0.406357
	H334	H	0.392646	0.599277	0.392079
	H335	H	0.395867	0.586412	0.415689
