data_Molecule from HDF5

_cell_length_a		16.515750
_cell_length_b		16.444561
_cell_length_c		16.482014
_cell_angle_alpha	89.835039
_cell_angle_beta	89.859425
_cell_angle_gamma	89.941539
_symmetry_space_group_name_H-M	'P 1'
_symmetry_Int_Tables_number		1

loop_
	_symmetry_equiv_pos_as_xyz
	x,y,z

loop_
	_atom_site_label
	_atom_site_type_symbol
	_atom_site_fract_x
	_atom_site_fract_y
	_atom_site_fract_z
	H0	H	0.392092	0.841988	0.712981
	H1	H	0.602588	0.157056	0.713832
	H2	H	0.599852	0.841107	0.273858
	H3	H	0.389059	0.157236	0.266050
	H4	H	0.721129	0.391398	0.835278
	H5	H	0.720499	0.606155	0.146707
	H6	H	0.274357	0.607080	0.835604
	H7	H	0.274572	0.392667	0.149965
	H8	H	0.839281	0.719650	0.389169
	H9	H	0.154731	0.722353	0.596968
	H10	H	0.841215	0.276108	0.598853
	H11	H	0.154143	0.276092	0.383574
	H12	H	0.842119	0.392883	0.716064
	H13	H	0.154832	0.606320	0.713035
	H14	H	0.838832	0.603848	0.272231
	H15	H	0.153733	0.391687	0.267034
	H16	H	0.391788	0.722376	0.834493
	H17	H	0.601931	0.720083	0.148703
	H18	H	0.603096	0.276697	0.834218
	H19	H	0.388997	0.275125	0.148931
	H20	H	0.716879	0.841882	0.390208
	H21	H	0.719528	0.156675	0.599285
	H22	H	0.275597	0.842527	0.597095
	H23	H	0.272625	0.157506	0.381255
	H24	H	0.889673	0.340846	0.214256
	H25	H	0.100515	0.655911	0.213037
	H26	H	0.106076	0.341930	0.768503
	H27	H	0.892272	0.657964	0.769001
	H28	H	0.220230	0.894954	0.334022
	H29	H	0.221220	0.108751	0.646994
	H30	H	0.772522	0.108509	0.334939
	H31	H	0.773465	0.891994	0.649737
	H32	H	0.340555	0.224033	0.885073
	H33	H	0.654725	0.221008	0.095993
	H34	H	0.340145	0.779536	0.096809
	H35	H	0.655776	0.781062	0.887794
	H36	H	0.340223	0.896572	0.212861
	H37	H	0.655370	0.105558	0.212205
	H38	H	0.339925	0.108632	0.768461
	H39	H	0.653725	0.894174	0.768798
	H40	H	0.887828	0.225988	0.335007
	H41	H	0.104097	0.222999	0.647778
	H42	H	0.100223	0.780910	0.332364
	H43	H	0.891147	0.776488	0.649405
	H44	H	0.220174	0.340996	0.886311
	H45	H	0.218302	0.656086	0.097785
	H46	H	0.773162	0.341925	0.098592
	H47	H	0.774784	0.657252	0.884203
	H48	H	0.405985	0.114331	0.580520
	H49	H	0.587042	0.887853	0.577584
	H50	H	0.579315	0.109179	0.408505
	H51	H	0.401819	0.884584	0.398230
	H52	H	0.583093	0.408970	0.103859
	H53	H	0.590497	0.584215	0.878259
	H54	H	0.401580	0.581530	0.104597
	H55	H	0.407434	0.413321	0.880043
	H56	H	0.111563	0.589117	0.398377
	H57	H	0.883189	0.592109	0.583771
	H58	H	0.109884	0.410037	0.578350
	H59	H	0.882570	0.405462	0.402008
	H60	H	0.109802	0.412292	0.579272
	H61	H	0.886608	0.589384	0.574711
	H62	H	0.110078	0.590666	0.403890
	H63	H	0.888069	0.413065	0.409534
	H64	H	0.416228	0.588455	0.101526
	H65	H	0.579883	0.586829	0.880829
	H66	H	0.588238	0.411408	0.104961
	H67	H	0.410810	0.414360	0.881793
	H68	H	0.596426	0.116129	0.405335
	H69	H	0.586845	0.885964	0.583215
	H70	H	0.411270	0.112616	0.580583
	H71	H	0.418416	0.890469	0.398941
	H72	H	0.906913	0.608463	0.072061
	H73	H	0.084409	0.384753	0.082738
	H74	H	0.088882	0.613607	0.897640
	H75	H	0.910185	0.388276	0.904903
	H76	H	0.086186	0.912523	0.603027
	H77	H	0.079118	0.081304	0.383672
	H78	H	0.908364	0.086035	0.603146
	H79	H	0.904748	0.907300	0.377753
	H80	H	0.605076	0.079888	0.904517
	H81	H	0.386610	0.088338	0.077364
	H82	H	0.612900	0.906479	0.082321
	H83	H	0.385104	0.915225	0.901468
	H84	H	0.610417	0.909873	0.081301
	H85	H	0.387420	0.083725	0.078039
	H86	H	0.611177	0.088787	0.895178
	H87	H	0.382288	0.907908	0.899739
	H88	H	0.909985	0.087301	0.602080
	H89	H	0.082192	0.093217	0.377648
	H90	H	0.084487	0.909031	0.604117
	H91	H	0.904827	0.914728	0.380603
	H92	H	0.080479	0.608981	0.902130
	H93	H	0.082322	0.387470	0.076559
	H94	H	0.901737	0.615478	0.084632
	H95	H	0.910277	0.387502	0.903570
	H96	H	0.408083	0.112030	0.575867
	H97	H	0.581843	0.887572	0.580296
	H98	H	0.583195	0.116345	0.391461
	H99	H	0.407619	0.892374	0.413404
	H100	H	0.584254	0.414223	0.101759
	H101	H	0.586209	0.594967	0.875685
	H102	H	0.403547	0.597493	0.108237
	H103	H	0.410719	0.410674	0.880405
	H104	H	0.108930	0.585263	0.401488
	H105	H	0.886935	0.582019	0.582430
	H106	H	0.109782	0.410832	0.580732
	H107	H	0.885258	0.416431	0.398546
	H108	H	0.915708	0.610377	0.084327
	H109	H	0.089341	0.385663	0.078022
	H110	H	0.090160	0.611271	0.908037
	H111	H	0.911510	0.388699	0.904181
	H112	H	0.088758	0.909917	0.604874
	H113	H	0.091741	0.083195	0.378306
	H114	H	0.908560	0.088250	0.603511
	H115	H	0.911288	0.910757	0.380533
	H116	H	0.608239	0.093105	0.908380
	H117	H	0.384960	0.086113	0.081411
	H118	H	0.612091	0.909400	0.085243
	H119	H	0.385668	0.909610	0.906901
	C120	C	0.375627	0.008787	0.612212
	C121	C	0.617835	0.991329	0.612795
	C122	C	0.618408	0.008909	0.370529
	C123	C	0.375847	0.992483	0.369691
	C124	C	0.618237	0.378279	-0.000150
	C125	C	0.618083	0.620760	0.982217
	C126	C	0.374740	0.622122	0.000981
	C127	C	0.376194	0.378465	0.984169
	C128	C	0.005585	0.620473	0.369909
	C129	C	0.989477	0.620687	0.612297
	C130	C	0.006324	0.378272	0.612821
	C131	C	0.988705	0.377912	0.369781
	C132	C	0.875048	0.507230	0.112893
	C133	C	0.117144	0.490096	0.112289
	C134	C	0.119781	0.507390	0.869742
	C135	C	0.877179	0.492007	0.870481
	C136	C	0.118511	0.878508	0.499540
	C137	C	0.118103	0.120666	0.482781
	C138	C	0.875214	0.121497	0.499470
	C139	C	0.875290	0.878489	0.484030
	C140	C	0.505085	0.121501	0.869751
	C141	C	0.489560	0.120015	0.111812
	C142	C	0.507034	0.877387	0.114263
	C143	C	0.488695	0.879173	0.870456
	C144	C	0.373668	0.889659	0.672640
	C145	C	0.620813	0.109829	0.673561
	C146	C	0.619430	0.889126	0.312402
	C147	C	0.371702	0.110248	0.307161
	C148	C	0.680300	0.373908	0.881905
	C149	C	0.679317	0.623626	0.100132
	C150	C	0.314585	0.625119	0.882624
	C151	C	0.314779	0.374560	0.102412
	C152	C	0.886691	0.680159	0.369595
	C153	C	0.107705	0.681776	0.614706
	C154	C	0.888236	0.317271	0.616587
	C155	C	0.107019	0.316645	0.366047
	C156	C	0.888596	0.375117	0.674917
	C157	C	0.107886	0.624141	0.672570
	C158	C	0.886474	0.622500	0.311533
	C159	C	0.106675	0.374191	0.307821
	C160	C	0.373008	0.682665	0.882196
	C161	C	0.620610	0.680602	0.101011
	C162	C	0.621245	0.317209	0.881510
	C163	C	0.372237	0.316444	0.102201
	C164	C	0.677361	0.889262	0.370221
	C165	C	0.678993	0.109594	0.616395
	C166	C	0.315475	0.889885	0.615223
	C167	C	0.313566	0.110242	0.364563
	C168	C	0.871510	0.388452	0.173989
	C169	C	0.119196	0.608801	0.172848
	C170	C	0.122858	0.388967	0.809334
	C171	C	0.874273	0.610617	0.809418
	C172	C	0.178896	0.876891	0.380799
	C173	C	0.180334	0.125752	0.599964
	C174	C	0.813028	0.126216	0.382004
	C175	C	0.814539	0.874908	0.602502
	C176	C	0.387407	0.183140	0.867041
	C177	C	0.607720	0.180882	0.114083
	C178	C	0.387640	0.818904	0.115449
	C179	C	0.607823	0.820221	0.868918
	C180	C	0.387719	0.876828	0.173370
	C181	C	0.607930	0.123203	0.172050
	C182	C	0.387090	0.125717	0.808900
	C183	C	0.606941	0.876874	0.809711
	C184	C	0.870594	0.184619	0.381927
	C185	C	0.121737	0.182535	0.600507
	C186	C	0.119595	0.820061	0.379978
	C187	C	0.873000	0.817150	0.602294
	C188	C	0.180118	0.388597	0.867586
	C189	C	0.177484	0.608883	0.115399
	C190	C	0.813769	0.388997	0.116189
	C191	C	0.815670	0.610034	0.866639
	C192	C	0.401019	0.091382	0.586425
	C193	C	0.592533	0.908749	0.587556
	C194	C	0.593460	0.092193	0.394844
	C195	C	0.401906	0.910427	0.396111
	C196	C	0.592618	0.404138	0.081910
	C197	C	0.592672	0.595623	0.899772
	C198	C	0.399858	0.596341	0.083468
	C199	C	0.402352	0.405001	0.902146
	C200	C	0.088376	0.595440	0.394198
	C201	C	0.907251	0.594917	0.587518
	C202	C	0.088378	0.403682	0.586810
	C203	C	0.906877	0.403879	0.395883
	C204	C	0.900649	0.589867	0.087595
	C205	C	0.092485	0.407490	0.086613
	C206	C	0.094004	0.589962	0.895199
	C207	C	0.903129	0.409617	0.896766
	C208	C	0.093551	0.903326	0.582459
	C209	C	0.091534	0.093890	0.401193
	C210	C	0.901534	0.094935	0.581411
	C211	C	0.899822	0.903840	0.401141
	C212	C	0.586913	0.094955	0.895400
	C213	C	0.407638	0.093601	0.086037
	C214	C	0.590107	0.901526	0.089928
	C215	C	0.405871	0.903910	0.895435
	Zn216	Zn	0.496354	0.000384	0.741234
	Zn217	Zn	0.497434	0.000759	0.241639
	Zn218	Zn	0.747169	0.499373	-0.009058
	Zn219	Zn	0.247217	0.498872	-0.007822
	Zn220	Zn	-0.002981	0.749307	0.491496
	Zn221	Zn	-0.002796	0.249545	0.490861
	Zn222	Zn	-0.001539	0.499976	0.741574
	Zn223	Zn	-0.004013	0.498748	0.241286
	Zn224	Zn	0.497777	0.750029	-0.008826
	Zn225	Zn	0.496968	0.249762	-0.008037
	Zn226	Zn	0.746411	0.000018	0.492060
	Zn227	Zn	0.247301	0.000282	0.490696
	N228	N	0.410202	0.964658	0.671048
	N229	N	0.583536	0.035367	0.671599
	N230	N	0.583646	0.964670	0.312440
	N231	N	0.410096	0.036206	0.310397
	N232	N	0.678698	0.411176	0.956473
	N233	N	0.677993	0.587261	0.025271
	N234	N	0.315334	0.588263	0.957525
	N235	N	0.317207	0.412661	0.028129
	N236	N	0.961985	0.679237	0.405013
	N237	N	0.033315	0.679573	0.577943
	N238	N	0.962390	0.318957	0.578945
	N239	N	0.032682	0.318715	0.403595
	N240	N	0.963154	0.412064	0.672862
	N241	N	0.033314	0.586809	0.671398
	N242	N	0.961451	0.586427	0.311370
	N243	N	0.032001	0.411221	0.309816
	N244	N	0.409711	0.680911	0.956783
	N245	N	0.583179	0.678920	0.026751
	N246	N	0.583541	0.319729	0.955759
	N247	N	0.409632	0.318684	0.027599
	N248	N	0.677033	0.964967	0.405276
	N249	N	0.677108	0.034922	0.579227
	N250	N	0.316576	0.964998	0.578484
	N251	N	0.316246	0.036031	0.403043
	N252	N	0.908902	0.462983	0.172114
	N253	N	0.082333	0.534035	0.170898
	N254	N	0.086235	0.464107	0.810392
	N255	N	0.911791	0.535980	0.811631
	N256	N	0.178578	0.911990	0.456303
	N257	N	0.178191	0.087919	0.525791
	N258	N	0.815650	0.087906	0.456141
	N259	N	0.815806	0.912361	0.527830
	N260	N	0.461816	0.180978	0.903873
	N261	N	0.533039	0.178958	0.077449
	N262	N	0.462878	0.818863	0.079824
	N263	N	0.533107	0.821394	0.905869
	N264	N	0.463129	0.912110	0.173204
	N265	N	0.533480	0.086090	0.170728
	N266	N	0.461464	0.088157	0.810322
	N267	N	0.531743	0.912716	0.810458
	N268	N	0.908447	0.181901	0.456105
	N269	N	0.083748	0.179556	0.526462
	N270	N	0.082933	0.820749	0.455010
	N271	N	0.910311	0.819537	0.527746
	N272	N	0.178525	0.463504	0.904239
	N273	N	0.176461	0.534088	0.078598
	N274	N	0.815884	0.463811	0.078833
	N275	N	0.817348	0.535074	0.903749
	O276	O	0.431234	0.302654	0.687697
	H277	H	0.458318	0.308459	0.694144
	H278	H	0.436800	0.292509	0.683838
	O279	O	0.697197	0.696803	0.551151
	H280	H	0.670722	0.707993	0.563430
	H281	H	0.709044	0.707421	0.563792
	O282	O	0.823199	0.831741	0.197586
	H283	H	0.819661	0.871716	0.203799
	H284	H	0.796973	0.823360	0.218694
	O285	O	0.801727	0.193624	0.798740
	H286	H	0.814796	0.173726	0.801407
	H287	H	0.789175	0.214577	0.799625
	O288	O	0.039748	0.054156	-0.198706
	H289	H	0.027903	0.053243	-0.206591
	H290	H	0.063459	0.047480	-0.198486
	O291	O	0.981405	1.050728	-0.033621
	H292	H	0.980953	1.068886	-0.027047
	H293	H	0.973595	1.052134	-0.040819
	O294	O	0.367291	0.620078	-0.413959
	H295	H	0.363523	0.657629	-0.411334
	H296	H	0.366783	0.613191	-0.400190
	O297	O	0.455454	0.488343	0.436979
	H298	H	0.452549	0.488151	0.443780
	H299	H	0.459091	0.500640	0.445823
	O300	O	0.672573	0.490571	0.326641
	H301	H	0.674210	0.470323	0.323525
	H302	H	0.685588	0.486147	0.314513
	O303	O	0.273596	0.265003	0.730115
	H304	H	0.299666	0.250524	0.730426
	H305	H	0.266949	0.250806	0.693919
	O306	O	-0.197035	0.983138	1.039119
	H307	H	-0.197202	0.988186	1.037491
	H308	H	-0.207785	0.986798	1.033697
	O309	O	1.167978	0.971872	1.032255
	H310	H	1.151819	0.982518	1.014693
	H311	H	1.173809	0.955337	1.025393
	O312	O	0.709383	0.282742	0.471084
	H313	H	0.725689	0.304789	0.475036
	H314	H	0.727948	0.265277	0.462167
	O315	O	-0.175953	-0.003489	1.209776
	H316	H	-0.179034	0.006747	1.225512
	H317	H	-0.165991	0.017198	1.197039
	O318	O	-0.400582	0.608254	0.473737
	H319	H	-0.390771	0.610508	0.478317
	H320	H	-0.403898	0.613135	0.487598
	O321	O	0.673860	0.360326	0.649032
	H322	H	0.661413	0.382526	0.654137
	H323	H	0.673437	0.369463	0.624419
	O324	O	1.150862	-0.160938	0.842457
	H325	H	1.158406	-0.179834	0.869603
	H326	H	1.122539	-0.160706	0.855816
	O327	O	1.283265	0.525032	0.279941
	H328	H	1.265955	0.536990	0.269160
	H329	H	1.279338	0.536610	0.281916
	O330	O	0.940043	-0.052608	-0.236292
	H331	H	0.940989	-0.046353	-0.229167
	H332	H	0.926384	-0.057261	-0.243720
	O333	O	1.213539	0.787430	0.961957
	H334	H	1.227183	0.763813	0.973524
	H335	H	1.205295	0.788953	0.976021
	O336	O	0.784207	0.025971	0.777981
	H337	H	0.776659	0.038338	0.770447
	H338	H	0.769680	0.024586	0.776046
	O339	O	0.425284	0.498157	0.627016
	H340	H	0.407240	0.497796	0.632873
	H341	H	0.418007	0.500814	0.626014
	O342	O	0.314801	0.465104	0.413081
	H343	H	0.316370	0.483720	0.418561
	H344	H	0.306358	0.476231	0.407765
	O345	O	0.017215	0.211301	0.211014
	H346	H	0.052542	0.211165	0.216474
	H347	H	0.037728	0.228948	0.232966
	O348	O	1.202421	0.074587	0.932156
	H349	H	1.191465	0.080673	0.928815
	H350	H	1.205273	0.065050	0.907637
	O351	O	1.019445	0.959400	0.126723
	H352	H	1.013934	0.949186	0.120385
	H353	H	1.012303	0.957339	0.129125
	O354	O	0.681581	0.513422	0.421304
	H355	H	0.676968	0.536371	0.415084
	H356	H	0.683859	0.510300	0.402861
	O357	O	1.000142	0.777799	0.981944
	H358	H	0.990632	0.783510	0.973094
	H359	H	0.988614	0.772759	0.984907
	O360	O	0.284371	0.707229	0.326283
	H361	H	0.321535	0.703961	0.309889
	H362	H	0.253545	0.742883	0.298369
	O363	O	-0.034031	0.787161	0.136027
	H364	H	-0.035964	0.758835	0.158303
	H365	H	-0.053501	0.798850	0.130752
	O366	O	1.027873	-0.195285	0.798196
	H367	H	1.017915	-0.216633	0.790887
	H368	H	1.016748	-0.183591	0.807992
	O369	O	0.659235	0.523246	0.512875
	H370	H	0.653067	0.538941	0.502116
	H371	H	0.660939	0.546925	0.517634
	O372	O	0.521972	0.298295	0.284189
	H373	H	0.498572	0.299468	0.302719
	H374	H	0.511791	0.289431	0.269468
	O375	O	0.733949	0.705132	0.283914
	H376	H	0.712645	0.701311	0.301066
	H377	H	0.723980	0.686348	0.297005
	O378	O	0.424316	0.705290	0.281095
	H379	H	0.453012	0.695507	0.264903
	H380	H	0.424272	0.699245	0.263564
	O381	O	1.040486	0.206588	-0.058237
	H382	H	1.033656	0.203872	-0.057320
	H383	H	1.022479	0.205391	-0.065052
	O384	O	0.203994	-0.016915	0.773574
	H385	H	0.218395	-0.037077	0.755401
	H386	H	0.205516	-0.047001	0.772057
	O387	O	-0.143115	1.032976	0.987796
	H388	H	-0.141727	1.030457	0.996467
	H389	H	-0.138580	1.042464	0.973006
	O390	O	0.167161	0.207925	1.021278
	H391	H	0.155830	0.198031	0.993482
	H392	H	0.181942	0.229889	1.011313
	O393	O	1.188048	0.824951	0.151367
	H394	H	1.175505	0.856822	0.139208
	H395	H	1.168285	0.837259	0.141029
	O396	O	0.562167	0.596385	0.708123
	H397	H	0.559900	0.612681	0.718002
	H398	H	0.556894	0.592284	0.690388
	O399	O	0.617796	0.676158	0.645433
	H400	H	0.608045	0.651273	0.653834
	H401	H	0.608249	0.688704	0.665536
	O402	O	0.194201	0.003979	1.188387
	H403	H	0.188718	0.002122	1.197504
	H404	H	0.185335	-0.007799	1.167686
	O405	O	-0.204844	-0.211452	0.018767
	H406	H	-0.201623	-0.217976	0.040560
	H407	H	-0.224086	-0.211673	0.028477
	O408	O	0.284861	0.291293	0.512329
	H409	H	0.264964	0.279778	0.517057
	H410	H	0.276704	0.304788	0.489946
	O411	O	0.714385	0.508884	0.687712
	H412	H	0.703567	0.506873	0.700157
	H413	H	0.724093	0.522990	0.698770
	O414	O	0.432466	0.615041	0.600631
	H415	H	0.435049	0.605053	0.583545
	H416	H	0.418980	0.610359	0.597341
	O417	O	0.439007	0.284242	0.429797
	H418	H	0.422209	0.288603	0.430757
	H419	H	0.447906	0.282271	0.451294
	O420	O	0.532378	0.600153	0.275456
	H421	H	0.529052	0.584161	0.277496
	H422	H	0.545851	0.586293	0.276844
	O423	O	-0.032499	1.221782	-0.223502
	H424	H	-0.032664	1.242574	-0.251367
	H425	H	-0.043845	1.214614	-0.225386
	O426	O	0.684322	1.309132	1.299720
	H427	H	0.694714	1.318261	1.328419
	H428	H	0.635177	1.302770	1.291653
	O429	O	0.440076	-0.500513	0.713860
	H430	H	0.422311	-0.511019	0.717077
	H431	H	0.438850	-0.499533	0.713197
	O432	O	0.547759	0.283192	0.543188
	H433	H	0.556036	0.289623	0.539014
	H434	H	0.562011	0.281237	0.534659
	O435	O	-0.164737	0.066957	0.083526
	H436	H	-0.177802	0.077550	0.097398
	H437	H	-0.161990	0.091241	0.087636
	O438	O	0.787263	0.210668	-0.032296
	H439	H	0.774701	0.231837	-0.032244
	H440	H	0.796987	0.210670	-0.037888
	O441	O	0.508206	0.683195	0.485010
	H442	H	0.488981	0.707005	0.475285
	H443	H	0.491192	0.663400	0.483180
	O444	O	-0.156050	0.845221	0.875162
	H445	H	-0.147134	0.866370	0.885493
	H446	H	-0.166073	0.846535	0.894284
	O447	O	1.051550	0.875249	1.103401
	H448	H	1.038373	0.875572	1.098802
	H449	H	1.035647	0.871666	1.113468
	O450	O	0.279095	0.474963	0.712074
	H451	H	0.269552	0.450263	0.719447
	H452	H	0.266589	0.451229	0.724833
	O453	O	0.311939	0.720668	0.474347
	H454	H	0.300364	0.723239	0.453536
	H455	H	0.296726	0.732262	0.466872
	O456	O	0.475075	0.454920	0.282185
	H457	H	0.466542	0.447601	0.294249
	H458	H	0.458429	0.453356	0.289573
	O459	O	0.341895	0.596722	0.627646
	H460	H	0.338743	0.598515	0.615122
	H461	H	0.337430	0.604881	0.640057
	O462	O	0.176114	1.173114	1.179292
	H463	H	0.189276	1.175805	1.139226
	H464	H	0.186669	1.135701	1.175400
	O465	O	0.929156	0.120244	0.140134
	H466	H	0.940290	0.129720	0.132833
	H467	H	0.937181	0.128036	0.145164
