data_Molecule from HDF5

_cell_length_a		16.340056
_cell_length_b		16.271596
_cell_length_c		16.208857
_cell_angle_alpha	90.006040
_cell_angle_beta	89.890485
_cell_angle_gamma	89.960218
_symmetry_space_group_name_H-M	'P 1'
_symmetry_Int_Tables_number		1

loop_
	_symmetry_equiv_pos_as_xyz
	x,y,z

loop_
	_atom_site_label
	_atom_site_type_symbol
	_atom_site_fract_x
	_atom_site_fract_y
	_atom_site_fract_z
	H0	H	0.400631	0.838848	0.712769
	H1	H	0.594095	0.167819	0.711395
	H2	H	0.596018	0.838927	0.285830
	H3	H	0.401405	0.167582	0.285717
	H4	H	0.714814	0.404580	0.835728
	H5	H	0.712671	0.601277	0.164371
	H6	H	0.284584	0.603122	0.835832
	H7	H	0.285594	0.405152	0.164317
	H8	H	0.835929	0.717468	0.402174
	H9	H	0.161826	0.719385	0.598222
	H10	H	0.834931	0.290313	0.598263
	H11	H	0.161966	0.287503	0.399915
	H12	H	0.835741	0.406044	0.714887
	H13	H	0.163180	0.600839	0.712621
	H14	H	0.835682	0.602353	0.284592
	H15	H	0.163063	0.405962	0.285703
	H16	H	0.403848	0.715432	0.834195
	H17	H	0.596797	0.716950	0.164317
	H18	H	0.598324	0.289866	0.834695
	H19	H	0.402174	0.289676	0.163826
	H20	H	0.713934	0.840290	0.399375
	H21	H	0.713025	0.166818	0.598424
	H22	H	0.283415	0.839225	0.598718
	H23	H	0.282480	0.166281	0.398627
	H24	H	0.903671	0.338515	0.212633
	H25	H	0.094641	0.668228	0.211415
	H26	H	0.099237	0.338738	0.785187
	H27	H	0.903044	0.667722	0.787347
	H28	H	0.213368	0.904104	0.335961
	H29	H	0.212873	0.103337	0.663722
	H30	H	0.784998	0.102271	0.334174
	H31	H	0.782267	0.904360	0.662788
	H32	H	0.336098	0.219246	0.901007
	H33	H	0.663029	0.217447	0.097204
	H34	H	0.335410	0.789932	0.097341
	H35	H	0.662993	0.789321	0.899911
	H36	H	0.335434	0.906926	0.212666
	H37	H	0.662864	0.100830	0.213632
	H38	H	0.334743	0.100856	0.786703
	H39	H	0.662464	0.906878	0.785056
	H40	H	0.900600	0.217602	0.334205
	H41	H	0.094463	0.216878	0.663837
	H42	H	0.096236	0.790993	0.334598
	H43	H	0.900133	0.790259	0.663486
	H44	H	0.215663	0.340052	0.900667
	H45	H	0.213018	0.667376	0.098212
	H46	H	0.784217	0.339515	0.099861
	H47	H	0.786073	0.666715	0.901967
	H48	H	0.408362	0.118867	0.590583
	H49	H	0.588968	0.887541	0.590037
	H50	H	0.592661	0.117296	0.414679
	H51	H	0.405379	0.887979	0.411031
	H52	H	0.593746	0.411868	0.116505
	H53	H	0.590607	0.595214	0.883619
	H54	H	0.409228	0.597380	0.116155
	H55	H	0.414061	0.410565	0.884149
	H56	H	0.115886	0.598511	0.406709
	H57	H	0.882897	0.598739	0.592540
	H58	H	0.112414	0.421368	0.594192
	H59	H	0.883851	0.403916	0.415712
	H60	H	0.119817	0.402006	0.600662
	H61	H	0.883734	0.594732	0.593092
	H62	H	0.115928	0.596884	0.405789
	H63	H	0.886286	0.421336	0.407044
	H64	H	0.403824	0.600363	0.118366
	H65	H	0.594394	0.600287	0.881419
	H66	H	0.590504	0.410177	0.115694
	H67	H	0.403107	0.406134	0.879933
	H68	H	0.599120	0.123819	0.402081
	H69	H	0.594852	0.886773	0.589118
	H70	H	0.400788	0.119759	0.588886
	H71	H	0.400293	0.885025	0.404785
	H72	H	0.906025	0.617491	0.088322
	H73	H	0.082143	0.389260	0.094771
	H74	H	0.095406	0.622506	0.897640
	H75	H	0.918106	0.388380	0.902003
	H76	H	0.082254	0.912166	0.614265
	H77	H	0.081514	0.096322	0.385260
	H78	H	0.903837	0.102555	0.617645
	H79	H	0.912345	0.912906	0.384004
	H80	H	0.613902	0.098680	0.912659
	H81	H	0.384426	0.096592	0.091392
	H82	H	0.615766	0.900879	0.084056
	H83	H	0.383963	0.908071	0.910305
	H84	H	0.611356	0.920969	0.089560
	H85	H	0.383743	0.097158	0.093541
	H86	H	0.613568	0.089111	0.903119
	H87	H	0.383601	0.912917	0.904479
	H88	H	0.898374	0.093700	0.616553
	H89	H	0.095543	0.103124	0.378720
	H90	H	0.094808	0.902144	0.620088
	H91	H	0.905212	0.903567	0.380055
	H92	H	0.083991	0.616815	0.908596
	H93	H	0.099365	0.387963	0.082263
	H94	H	0.900555	0.621778	0.093321
	H95	H	0.906771	0.389726	0.920033
	H96	H	0.403073	0.120707	0.596284
	H97	H	0.591997	0.885623	0.594894
	H98	H	0.584734	0.119509	0.401336
	H99	H	0.408470	0.886619	0.402840
	H100	H	0.592703	0.408704	0.117412
	H101	H	0.597120	0.594597	0.882067
	H102	H	0.403388	0.593454	0.117172
	H103	H	0.403777	0.418395	0.884203
	H104	H	0.115660	0.598190	0.404385
	H105	H	0.882096	0.597637	0.596092
	H106	H	0.112054	0.405247	0.580402
	H107	H	0.879188	0.406197	0.396704
	H108	H	0.908146	0.620173	0.096378
	H109	H	0.100409	0.381832	0.102187
	H110	H	0.099958	0.619578	0.913264
	H111	H	0.897840	0.382605	0.902581
	H112	H	0.097166	0.918428	0.616630
	H113	H	0.095383	0.087046	0.384262
	H114	H	0.908151	0.094407	0.613928
	H115	H	0.900368	0.915109	0.381710
	H116	H	0.617990	0.101906	0.899744
	H117	H	0.382807	0.098286	0.091381
	H118	H	0.619763	0.907633	0.103533
	H119	H	0.381578	0.906278	0.903080
	C120	C	0.376319	0.011280	0.620629
	C121	C	0.619605	0.995154	0.619742
	C122	C	0.620361	0.012106	0.377469
	C123	C	0.376688	0.994939	0.377565
	C124	C	0.621000	0.381927	0.008064
	C125	C	0.621375	0.624767	0.991267
	C126	C	0.377749	0.625103	0.008167
	C127	C	0.378377	0.382622	0.991178
	C128	C	0.007476	0.625880	0.377455
	C129	C	0.990951	0.625347	0.621756
	C130	C	0.006879	0.381635	0.621066
	C131	C	0.990922	0.381764	0.377661
	C132	C	0.877082	0.511471	0.121628
	C133	C	0.121238	0.495063	0.121119
	C134	C	0.121710	0.511350	0.878039
	C135	C	0.878906	0.494944	0.879199
	C136	C	0.119336	0.882497	0.508101
	C137	C	0.119338	0.124390	0.491104
	C138	C	0.876002	0.125238	0.507109
	C139	C	0.876929	0.882066	0.490616
	C140	C	0.507226	0.125482	0.877335
	C141	C	0.491396	0.125411	0.120760
	C142	C	0.507459	0.881724	0.120501
	C143	C	0.491051	0.880926	0.877045
	C144	C	0.379801	0.887853	0.675202
	C145	C	0.615879	0.118625	0.674574
	C146	C	0.616947	0.888007	0.323276
	C147	C	0.380357	0.118549	0.323193
	C148	C	0.677056	0.384073	0.884669
	C149	C	0.674945	0.621598	0.115387
	C150	C	0.322707	0.623222	0.884680
	C151	C	0.323163	0.384491	0.114907
	C152	C	0.884625	0.680174	0.380498
	C153	C	0.113514	0.680680	0.618719
	C154	C	0.883830	0.327867	0.618602
	C155	C	0.113488	0.326099	0.379817
	C156	C	0.884295	0.385251	0.676882
	C157	C	0.114075	0.622227	0.675812
	C158	C	0.884493	0.622507	0.322846
	C159	C	0.114148	0.384937	0.323203
	C160	C	0.381936	0.678871	0.883805
	C161	C	0.617672	0.679285	0.115210
	C162	C	0.618753	0.327428	0.883926
	C163	C	0.381215	0.327467	0.114906
	C164	C	0.675770	0.888815	0.379169
	C165	C	0.674795	0.118273	0.618125
	C166	C	0.321693	0.887911	0.618480
	C167	C	0.320869	0.117590	0.379003
	C168	C	0.881710	0.387672	0.175533
	C169	C	0.116932	0.618820	0.175021
	C170	C	0.119467	0.387960	0.822905
	C171	C	0.882227	0.618565	0.824716
	C172	C	0.174783	0.884420	0.384635
	C173	C	0.174712	0.123051	0.614660
	C174	C	0.822477	0.122688	0.383241
	C175	C	0.820978	0.884518	0.613921
	C176	C	0.384579	0.180889	0.880455
	C177	C	0.614418	0.179662	0.118072
	C178	C	0.384408	0.827249	0.117940
	C179	C	0.614194	0.827180	0.879866
	C180	C	0.384208	0.885753	0.175108
	C181	C	0.614214	0.121741	0.175687
	C182	C	0.383752	0.122013	0.823854
	C183	C	0.613793	0.885187	0.822240
	C184	C	0.879828	0.180046	0.383407
	C185	C	0.115676	0.179247	0.614903
	C186	C	0.116904	0.827708	0.384238
	C187	C	0.878989	0.827350	0.614286
	C188	C	0.177355	0.388437	0.880306
	C189	C	0.175438	0.618407	0.118549
	C190	C	0.822542	0.388226	0.119636
	C191	C	0.823768	0.617884	0.881347
	C192	C	0.397769	0.097599	0.598423
	C193	C	0.598212	0.908944	0.597671
	C194	C	0.598563	0.097861	0.399370
	C195	C	0.398562	0.908691	0.399570
	C196	C	0.598936	0.403747	0.094089
	C197	C	0.600319	0.603036	0.904593
	C198	C	0.399142	0.603373	0.094809
	C199	C	0.400569	0.405066	0.904943
	C200	C	0.093603	0.604267	0.399384
	C201	C	0.905224	0.603514	0.600162
	C202	C	0.092645	0.403165	0.598447
	C203	C	0.905308	0.403936	0.399944
	C204	C	0.898669	0.597630	0.099321
	C205	C	0.100185	0.408620	0.099564
	C206	C	0.099475	0.597249	0.899978
	C207	C	0.901151	0.409046	0.901595
	C208	C	0.097530	0.904412	0.594540
	C209	C	0.097466	0.101958	0.404939
	C210	C	0.897247	0.103426	0.593883
	C211	C	0.899293	0.904171	0.404262
	C212	C	0.593073	0.103414	0.898807
	C213	C	0.405858	0.103641	0.098725
	C214	C	0.593365	0.903298	0.098707
	C215	C	0.405073	0.902451	0.899445
	Zn216	Zn	0.498007	0.003482	0.748463
	Zn217	Zn	0.498874	0.003542	0.249554
	Zn218	Zn	0.749330	0.503166	0.000117
	Zn219	Zn	0.249857	0.503780	-0.000039
	Zn220	Zn	-0.001201	0.753935	0.499359
	Zn221	Zn	-0.002185	0.252602	0.498812
	Zn222	Zn	-0.000266	0.503254	0.750073
	Zn223	Zn	-0.000522	0.503544	0.249088
	Zn224	Zn	0.499638	0.752605	-0.000888
	Zn225	Zn	0.499914	0.254321	-0.001009
	Zn226	Zn	0.748403	0.003820	0.498390
	Zn227	Zn	0.248054	0.002933	0.499741
	N228	N	0.412807	0.965540	0.676641
	N229	N	0.582406	0.041187	0.675613
	N230	N	0.583228	0.965510	0.321970
	N231	N	0.414175	0.041097	0.322069
	N232	N	0.678630	0.417289	0.962769
	N233	N	0.677398	0.588567	0.037287
	N234	N	0.320101	0.590634	0.962964
	N235	N	0.321414	0.418072	0.037069
	N236	N	0.961925	0.681974	0.413972
	N237	N	0.035969	0.682747	0.585875
	N238	N	0.961084	0.325388	0.584697
	N239	N	0.035895	0.324118	0.413001
	N240	N	0.961785	0.418211	0.678110
	N241	N	0.036861	0.588489	0.677774
	N242	N	0.962079	0.589274	0.320926
	N243	N	0.037114	0.418972	0.321956
	N244	N	0.415691	0.680081	0.961588
	N245	N	0.584823	0.681125	0.037090
	N246	N	0.584703	0.325978	0.961412
	N247	N	0.414626	0.325982	0.036935
	N248	N	0.677929	0.966626	0.412147
	N249	N	0.677269	0.040379	0.584857
	N250	N	0.319265	0.965803	0.585298
	N251	N	0.318573	0.039790	0.412150
	N252	N	0.914697	0.465402	0.176979
	N253	N	0.083860	0.541223	0.176660
	N254	N	0.085608	0.465452	0.821340
	N255	N	0.915820	0.540920	0.823258
	N256	N	0.176573	0.917673	0.462621
	N257	N	0.176929	0.089426	0.536657
	N258	N	0.820075	0.089315	0.461098
	N259	N	0.819640	0.917931	0.535854
	N260	N	0.462341	0.183273	0.912897
	N261	N	0.537105	0.182173	0.084737
	N262	N	0.461947	0.824615	0.084919
	N263	N	0.536720	0.824500	0.913227
	N264	N	0.461650	0.918893	0.176949
	N265	N	0.536758	0.088667	0.177413
	N266	N	0.460946	0.088320	0.821852
	N267	N	0.536163	0.917849	0.820392
	N268	N	0.912495	0.181567	0.461584
	N269	N	0.082126	0.180375	0.537253
	N270	N	0.083181	0.826437	0.462144
	N271	N	0.912917	0.825619	0.536666
	N272	N	0.179013	0.466230	0.913649
	N273	N	0.178332	0.540337	0.085939
	N274	N	0.819344	0.466364	0.087146
	N275	N	0.821575	0.540076	0.914413
	O276	O	0.062846	0.004017	0.954974
	H277	H	0.062874	0.003099	0.957611
	H278	H	0.070054	0.000475	0.951221
	O279	O	0.513676	0.479108	0.493456
	H280	H	0.508418	0.484397	0.507901
	H281	H	0.508331	0.482373	0.492162
	O282	O	0.536676	0.451134	0.462553
	H283	H	0.544333	0.462080	0.455714
	H284	H	0.530928	0.453632	0.462141
	O285	O	0.532619	0.452965	0.503361
	H286	H	0.524623	0.457242	0.508242
	H287	H	0.539029	0.445362	0.499045
	O288	O	0.526294	0.456208	0.514086
	H289	H	0.516770	0.457656	0.505818
	H290	H	0.529171	0.443637	0.522454
	O291	O	0.049041	1.010979	0.956736
	H292	H	0.043601	1.017247	0.957172
	H293	H	0.051162	1.013581	0.954312
	O294	O	0.521047	0.431130	0.524568
	H295	H	0.530907	0.425623	0.531100
	H296	H	0.531768	0.426688	0.520898
	O297	O	1.071901	0.003564	-0.015805
	H298	H	1.074364	0.003548	-0.014082
	H299	H	1.074840	0.006892	-0.014480
