data_Molecule from HDF5

_cell_length_a		16.270936
_cell_length_b		16.364327
_cell_length_c		16.028129
_cell_angle_alpha	90.502794
_cell_angle_beta	90.184079
_cell_angle_gamma	90.197419
_symmetry_space_group_name_H-M	'P 1'
_symmetry_Int_Tables_number		1

loop_
	_symmetry_equiv_pos_as_xyz
	x,y,z

loop_
	_atom_site_label
	_atom_site_type_symbol
	_atom_site_fract_x
	_atom_site_fract_y
	_atom_site_fract_z
	H0	H	0.406852	0.833934	0.697787
	H1	H	0.599452	0.162755	0.703218
	H2	H	0.597163	0.836477	0.273471
	H3	H	0.404971	0.163821	0.276847
	H4	H	0.711321	0.401680	0.821042
	H5	H	0.714436	0.598916	0.153384
	H6	H	0.286444	0.596446	0.822737
	H7	H	0.289239	0.402675	0.154800
	H8	H	0.839656	0.713303	0.386661
	H9	H	0.164511	0.717945	0.592017
	H10	H	0.839572	0.282181	0.586333
	H11	H	0.165265	0.281863	0.385116
	H12	H	0.836030	0.403947	0.696298
	H13	H	0.165459	0.597669	0.703309
	H14	H	0.835850	0.591629	0.278485
	H15	H	0.166123	0.401231	0.272645
	H16	H	0.401363	0.711116	0.821901
	H17	H	0.604161	0.716235	0.152697
	H18	H	0.599231	0.284632	0.822502
	H19	H	0.402570	0.286570	0.153807
	H20	H	0.716919	0.837172	0.385883
	H21	H	0.719561	0.161587	0.591296
	H22	H	0.284823	0.836644	0.587391
	H23	H	0.286281	0.161959	0.389888
	H24	H	0.905562	0.334601	0.197148
	H25	H	0.098885	0.662947	0.204101
	H26	H	0.096625	0.335880	0.772924
	H27	H	0.904289	0.663193	0.776109
	H28	H	0.215074	0.898738	0.321610
	H29	H	0.215274	0.099045	0.654125
	H30	H	0.788098	0.096547	0.323238
	H31	H	0.789600	0.901968	0.653934
	H32	H	0.338959	0.213371	0.887049
	H33	H	0.664638	0.218245	0.090547
	H34	H	0.339892	0.781926	0.088330
	H35	H	0.664679	0.781423	0.885059
	H36	H	0.336928	0.904380	0.197723
	H37	H	0.666293	0.097720	0.201976
	H38	H	0.337634	0.093286	0.775722
	H39	H	0.667187	0.902488	0.775399
	H40	H	0.903332	0.210003	0.322432
	H41	H	0.104836	0.216600	0.652189
	H42	H	0.101856	0.783259	0.322211
	H43	H	0.902576	0.786310	0.652979
	H44	H	0.216708	0.336509	0.885718
	H45	H	0.219307	0.661140	0.092849
	H46	H	0.785651	0.336586	0.084800
	H47	H	0.786308	0.662414	0.889599
	H48	H	0.409290	0.116048	0.586474
	H49	H	0.591212	0.882987	0.584493
	H50	H	0.602577	0.117090	0.399003
	H51	H	0.407393	0.884590	0.393383
	H52	H	0.596297	0.414333	0.106468
	H53	H	0.587271	0.593639	0.869997
	H54	H	0.410989	0.588249	0.105136
	H55	H	0.414817	0.402823	0.871371
	H56	H	0.119703	0.597392	0.401042
	H57	H	0.887220	0.595048	0.573062
	H58	H	0.116105	0.416414	0.579708
	H59	H	0.884971	0.391436	0.403530
	H60	H	0.122199	0.402664	0.588826
	H61	H	0.885261	0.587342	0.584160
	H62	H	0.116577	0.586390	0.399799
	H63	H	0.889925	0.415369	0.396480
	H64	H	0.414814	0.594890	0.105367
	H65	H	0.598299	0.595640	0.865597
	H66	H	0.587512	0.407359	0.105557
	H67	H	0.403262	0.400490	0.866431
	H68	H	0.595994	0.117952	0.391403
	H69	H	0.595613	0.885683	0.572067
	H70	H	0.412234	0.112856	0.578291
	H71	H	0.405733	0.882622	0.393777
	H72	H	0.903973	0.613631	0.072114
	H73	H	0.092681	0.385194	0.076218
	H74	H	0.093011	0.614628	0.896535
	H75	H	0.907022	0.380178	0.881659
	H76	H	0.099605	0.912464	0.606316
	H77	H	0.099130	0.084447	0.369412
	H78	H	0.910522	0.090607	0.607171
	H79	H	0.919456	0.905483	0.372394
	H80	H	0.614213	0.085045	0.905552
	H81	H	0.381468	0.090594	0.094964
	H82	H	0.620187	0.904216	0.079114
	H83	H	0.391728	0.915018	0.902792
	H84	H	0.618269	0.906900	0.077316
	H85	H	0.381478	0.109205	0.077315
	H86	H	0.622111	0.090024	0.884013
	H87	H	0.382033	0.905927	0.880707
	H88	H	0.913701	0.092557	0.607281
	H89	H	0.086772	0.090112	0.371527
	H90	H	0.088801	0.910283	0.603908
	H91	H	0.905207	0.895377	0.364412
	H92	H	0.094243	0.614589	0.900606
	H93	H	0.098953	0.382215	0.077961
	H94	H	0.899549	0.619877	0.089519
	H95	H	0.912340	0.386870	0.899607
	H96	H	0.403800	0.115955	0.579852
	H97	H	0.604748	0.879810	0.581703
	H98	H	0.594316	0.114399	0.400185
	H99	H	0.407560	0.881993	0.391847
	H100	H	0.597081	0.404115	0.109274
	H101	H	0.595531	0.585888	0.869320
	H102	H	0.407988	0.594089	0.108910
	H103	H	0.407143	0.411795	0.871241
	H104	H	0.121021	0.592117	0.391234
	H105	H	0.881907	0.600182	0.583823
	H106	H	0.118711	0.400936	0.571554
	H107	H	0.880397	0.398970	0.379562
	H108	H	0.916410	0.614077	0.085869
	H109	H	0.093623	0.382555	0.082054
	H110	H	0.096733	0.615921	0.897630
	H111	H	0.894097	0.380034	0.895914
	H112	H	0.095567	0.902578	0.608765
	H113	H	0.097789	0.097576	0.365442
	H114	H	0.910464	0.093917	0.608140
	H115	H	0.902809	0.913828	0.369052
	H116	H	0.621835	0.106483	0.901278
	H117	H	0.390256	0.085301	0.070955
	H118	H	0.618298	0.907085	0.081471
	H119	H	0.383686	0.891162	0.901112
	C120	C	0.380335	0.007072	0.609628
	C121	C	0.625491	0.990659	0.609847
	C122	C	0.624719	0.008523	0.366757
	C123	C	0.379189	0.991209	0.365511
	C124	C	0.621511	0.379048	-0.003000
	C125	C	0.623103	0.621220	0.978312
	C126	C	0.381206	0.620287	-0.003169
	C127	C	0.379708	0.377503	0.979377
	C128	C	0.010564	0.619621	0.367340
	C129	C	0.992915	0.622774	0.610301
	C130	C	0.010552	0.378287	0.608000
	C131	C	0.993487	0.374830	0.364359
	C132	C	0.879056	0.507924	0.109342
	C133	C	0.123656	0.490962	0.110079
	C134	C	0.122934	0.507555	0.867418
	C135	C	0.877489	0.490535	0.865079
	C136	C	0.123005	0.878383	0.496329
	C137	C	0.123955	0.120433	0.478602
	C138	C	0.882614	0.118969	0.497246
	C139	C	0.880735	0.877443	0.478509
	C140	C	0.511061	0.120874	0.867193
	C141	C	0.493191	0.122817	0.110029
	C142	C	0.510827	0.877903	0.108344
	C143	C	0.493802	0.875854	0.865473
	C144	C	0.384833	0.883480	0.661875
	C145	C	0.621339	0.113621	0.665862
	C146	C	0.619473	0.885534	0.310898
	C147	C	0.383486	0.114532	0.312982
	C148	C	0.674878	0.380977	0.871123
	C149	C	0.677665	0.619436	0.103547
	C150	C	0.324503	0.617402	0.872399
	C151	C	0.325854	0.381361	0.104688
	C152	C	0.887932	0.674727	0.367694
	C153	C	0.115946	0.678682	0.610256
	C154	C	0.887696	0.321509	0.605815
	C155	C	0.116543	0.320059	0.365622
	C156	C	0.886060	0.381979	0.660611
	C157	C	0.116329	0.619178	0.666044
	C158	C	0.886169	0.614051	0.313979
	C159	C	0.116927	0.379458	0.309596
	C160	C	0.381740	0.674373	0.871944
	C161	C	0.622637	0.677596	0.103087
	C162	C	0.619163	0.322954	0.871843
	C163	C	0.382258	0.323848	0.104390
	C164	C	0.678839	0.885811	0.367144
	C165	C	0.681003	0.113096	0.610063
	C166	C	0.324247	0.884697	0.606937
	C167	C	0.324222	0.113639	0.369000
	C168	C	0.883442	0.384088	0.161473
	C169	C	0.120218	0.614076	0.166486
	C170	C	0.118578	0.384669	0.811002
	C171	C	0.882447	0.613971	0.812367
	C172	C	0.177366	0.879553	0.371061
	C173	C	0.178898	0.119358	0.603985
	C174	C	0.826621	0.116262	0.372411
	C175	C	0.826438	0.881219	0.603942
	C176	C	0.387635	0.175194	0.867734
	C177	C	0.616060	0.179186	0.109755
	C178	C	0.388078	0.821325	0.107325
	C179	C	0.616633	0.820917	0.866746
	C180	C	0.386684	0.882248	0.161740
	C181	C	0.617184	0.119201	0.164813
	C182	C	0.387054	0.115477	0.812636
	C183	C	0.617682	0.880628	0.811793
	C184	C	0.883538	0.172941	0.372074
	C185	C	0.123462	0.177504	0.603081
	C186	C	0.121231	0.821805	0.371681
	C187	C	0.882693	0.823410	0.603576
	C188	C	0.178308	0.385192	0.867022
	C189	C	0.180195	0.613122	0.111219
	C190	C	0.823679	0.385177	0.105720
	C191	C	0.823574	0.613531	0.868627
	C192	C	0.401924	0.092642	0.587926
	C193	C	0.603514	0.905089	0.586480
	C194	C	0.603815	0.094392	0.390025
	C195	C	0.400403	0.905262	0.386781
	C196	C	0.599889	0.401803	0.084447
	C197	C	0.600236	0.598657	0.890822
	C198	C	0.404368	0.598721	0.083974
	C199	C	0.401740	0.398647	0.892195
	C200	C	0.096766	0.598396	0.390639
	C201	C	0.906964	0.600796	0.587118
	C202	C	0.096759	0.400242	0.586399
	C203	C	0.907112	0.395730	0.386694
	C204	C	0.900409	0.593642	0.088706
	C205	C	0.101602	0.405520	0.085945
	C206	C	0.101112	0.593068	0.891209
	C207	C	0.898317	0.404566	0.886225
	C208	C	0.101078	0.901600	0.583710
	C209	C	0.101314	0.097212	0.391237
	C210	C	0.905080	0.098420	0.584773
	C211	C	0.902802	0.898423	0.391195
	C212	C	0.597009	0.100223	0.890153
	C213	C	0.406774	0.101139	0.087867
	C214	C	0.596689	0.899709	0.085977
	C215	C	0.408078	0.897601	0.888063
	Zn216	Zn	0.502623	-0.001471	0.738391
	Zn217	Zn	0.501819	0.000456	0.237659
	Zn218	Zn	0.749072	0.499686	-0.012598
	Zn219	Zn	0.253241	0.499448	-0.010979
	Zn220	Zn	0.002141	0.750256	0.487421
	Zn221	Zn	0.002806	0.247033	0.487604
	Zn222	Zn	0.000989	0.499629	0.737458
	Zn223	Zn	0.001703	0.499255	0.238131
	Zn224	Zn	0.502362	0.747834	-0.012724
	Zn225	Zn	0.501631	0.250763	-0.011759
	Zn226	Zn	0.754451	-0.000471	0.488345
	Zn227	Zn	0.250436	-0.000908	0.487918
	N228	N	0.418768	0.960586	0.663685
	N229	N	0.587541	0.036444	0.666014
	N230	N	0.586340	0.962784	0.310596
	N231	N	0.416819	0.037338	0.310751
	N232	N	0.676366	0.415413	0.949845
	N233	N	0.678084	0.584976	0.024976
	N234	N	0.324300	0.584351	0.950983
	N235	N	0.324384	0.414296	0.026175
	N236	N	0.966276	0.678127	0.400180
	N237	N	0.038064	0.681115	0.576420
	N238	N	0.966120	0.318907	0.573938
	N239	N	0.038697	0.316984	0.399060
	N240	N	0.963159	0.416891	0.661607
	N241	N	0.038872	0.585168	0.666336
	N242	N	0.963599	0.580316	0.313706
	N243	N	0.039407	0.412751	0.308772
	N244	N	0.416182	0.676450	0.950542
	N245	N	0.589299	0.678617	0.024099
	N246	N	0.586653	0.321804	0.951049
	N247	N	0.415181	0.321305	0.025454
	N248	N	0.682138	0.963320	0.401146
	N249	N	0.683734	0.035533	0.576182
	N250	N	0.321243	0.962522	0.575136
	N251	N	0.321474	0.035864	0.401085
	N252	N	0.917272	0.461197	0.163901
	N253	N	0.085643	0.537087	0.165753
	N254	N	0.084873	0.461741	0.811033
	N255	N	0.915291	0.536551	0.809812
	N256	N	0.178991	0.913806	0.449916
	N257	N	0.179161	0.084341	0.525525
	N258	N	0.825977	0.083738	0.451178
	N259	N	0.824995	0.913814	0.525180
	N260	N	0.465545	0.178576	0.901027
	N261	N	0.537988	0.181591	0.076458
	N262	N	0.466143	0.818530	0.074913
	N263	N	0.538477	0.817667	0.899350
	N264	N	0.463995	0.916811	0.162622
	N265	N	0.539835	0.084896	0.165158
	N266	N	0.464707	0.082153	0.812062
	N267	N	0.540361	0.914256	0.810961
	N268	N	0.917869	0.174805	0.450685
	N269	N	0.090084	0.178197	0.524148
	N270	N	0.088013	0.821286	0.450514
	N271	N	0.915966	0.821049	0.524632
	N272	N	0.180987	0.462575	0.901577
	N273	N	0.182521	0.535709	0.076935
	N274	N	0.820493	0.463103	0.074204
	N275	N	0.820106	0.535698	0.900333
	O276	O	0.969192	0.979736	-0.056037
	H277	H	0.959704	0.974617	-0.067108
	H278	H	0.978948	0.974273	-0.056434
	O279	O	0.487444	-0.496856	1.509887
	H280	H	0.484910	-0.495598	1.510327
	H281	H	0.489898	-0.507159	1.515878
	O282	O	-0.050649	0.013647	0.006313
	H283	H	-0.046625	0.019403	0.013070
	H284	H	-0.047527	0.012470	-0.005139
	O285	O	0.493589	0.495531	0.499484
	H286	H	0.500728	0.508481	0.500398
	H287	H	0.492803	0.497053	0.486665
	O288	O	-0.020278	-0.085729	0.014898
	H289	H	-0.013935	-0.086061	0.015327
	H290	H	-0.025147	-0.077252	0.024042
	O291	O	0.054030	1.013184	0.044488
	H292	H	0.056560	1.018310	0.046139
	H293	H	0.053474	1.017900	0.045294
	O294	O	-0.006677	1.039681	0.051752
	H295	H	-0.000454	1.045482	0.048725
	H296	H	-0.002925	1.047035	0.054400
	O297	O	0.500747	0.494454	0.498921
	H298	H	0.495956	0.494466	0.503975
	H299	H	0.497733	0.495459	0.491423
	O300	O	0.497153	0.487581	0.482979
	H301	H	0.502431	0.486652	0.485777
	H302	H	0.503897	0.491576	0.489601
	O303	O	1.035162	-0.048272	0.972681
	H304	H	1.040538	-0.057541	0.985807
	H305	H	1.033847	-0.056925	0.973479
	O306	O	0.082379	1.002038	0.947787
	H307	H	0.085364	1.003414	0.937844
	H308	H	0.077597	0.993430	0.958131
	O309	O	-0.036690	0.959559	0.912396
	H310	H	-0.035393	0.955826	0.910428
	H311	H	-0.038006	0.971397	0.920867
	O312	O	0.064147	-0.014198	0.977375
	H313	H	0.069815	-0.014540	0.985348
	H314	H	0.066605	-0.013750	0.981853
	O315	O	0.524163	0.502539	0.533143
	H316	H	0.525183	0.510520	0.535110
	H317	H	0.523698	0.502819	0.529080
	O318	O	0.005365	0.055816	1.047179
	H319	H	-0.003599	0.043145	1.043515
	H320	H	0.003914	0.062646	1.044282
	O321	O	0.027419	0.949939	1.048681
	H322	H	0.029614	0.956365	1.045983
	H323	H	0.029946	0.951009	1.054427
	O324	O	1.028698	0.025487	0.962801
	H325	H	1.034424	0.010255	0.959345
	H326	H	1.021817	0.023550	0.965610
	O327	O	1.019074	0.943446	0.973742
	H328	H	1.014423	0.951372	0.973849
	H329	H	1.007025	0.950385	0.962788
	O330	O	0.497551	0.460830	0.542976
	H331	H	0.496328	0.455288	0.542408
	H332	H	0.499732	0.454416	0.536998
	O333	O	0.557324	0.504162	0.594867
	H334	H	0.567498	0.509764	0.614542
	H335	H	0.565971	0.508368	0.594940
	O336	O	0.443633	0.470865	0.501135
	H337	H	0.439204	0.464648	0.502159
	H338	H	0.444522	0.480150	0.500211
	O339	O	0.542303	0.509534	0.445548
	H340	H	0.539220	0.504009	0.446029
	H341	H	0.544692	0.506418	0.436452
	O342	O	0.504346	0.539895	0.420582
	H343	H	0.503736	0.540801	0.414565
	H344	H	0.505050	0.532063	0.426058
	O345	O	0.522322	0.476325	0.502146
	H346	H	0.522601	0.475986	0.503822
	H347	H	0.508632	0.479267	0.506856
