data_Molecule from HDF5

_cell_length_a		16.330928
_cell_length_b		16.286636
_cell_length_c		16.208489
_cell_angle_alpha	90.151169
_cell_angle_beta	89.596716
_cell_angle_gamma	90.219748
_symmetry_space_group_name_H-M	'P 1'
_symmetry_Int_Tables_number		1

loop_
	_symmetry_equiv_pos_as_xyz
	x,y,z

loop_
	_atom_site_label
	_atom_site_type_symbol
	_atom_site_fract_x
	_atom_site_fract_y
	_atom_site_fract_z
	H0	H	0.402410	0.824248	0.712866
	H1	H	0.600977	0.150728	0.714130
	H2	H	0.603852	0.824480	0.283341
	H3	H	0.403514	0.149500	0.281493
	H4	H	0.721653	0.385779	0.834383
	H5	H	0.721309	0.590054	0.160378
	H6	H	0.292309	0.585234	0.833580
	H7	H	0.286017	0.384149	0.160319
	H8	H	0.841086	0.704458	0.398150
	H9	H	0.165262	0.707627	0.598584
	H10	H	0.842446	0.272653	0.599885
	H11	H	0.166613	0.272128	0.394984
	H12	H	0.842673	0.388521	0.716353
	H13	H	0.167649	0.590269	0.712267
	H14	H	0.841130	0.588150	0.282632
	H15	H	0.166273	0.386937	0.279452
	H16	H	0.404572	0.703284	0.835201
	H17	H	0.605414	0.704747	0.161071
	H18	H	0.607445	0.269218	0.835862
	H19	H	0.404588	0.272703	0.161637
	H20	H	0.721407	0.826033	0.397526
	H21	H	0.721266	0.149979	0.602888
	H22	H	0.279784	0.828237	0.603819
	H23	H	0.288319	0.151288	0.397746
	H24	H	0.903015	0.325548	0.214862
	H25	H	0.103926	0.650653	0.212891
	H26	H	0.104758	0.325643	0.779775
	H27	H	0.907675	0.651952	0.785152
	H28	H	0.221705	0.887889	0.336498
	H29	H	0.219220	0.094281	0.661005
	H30	H	0.788078	0.089031	0.336403
	H31	H	0.787026	0.888443	0.663232
	H32	H	0.342570	0.203664	0.899175
	H33	H	0.666480	0.206637	0.100997
	H34	H	0.342695	0.769857	0.099975
	H35	H	0.666008	0.769852	0.894110
	H36	H	0.341569	0.885610	0.216316
	H37	H	0.666255	0.089428	0.216953
	H38	H	0.340585	0.086187	0.785153
	H39	H	0.665231	0.887066	0.780200
	H40	H	0.904269	0.203913	0.335158
	H41	H	0.103856	0.206294	0.660626
	H42	H	0.105934	0.771179	0.335612
	H43	H	0.901331	0.772595	0.662469
	H44	H	0.223008	0.325346	0.892295
	H45	H	0.223321	0.649008	0.099510
	H46	H	0.784682	0.326423	0.101622
	H47	H	0.785661	0.648581	0.893692
	H48	H	0.411255	0.103292	0.588719
	H49	H	0.595268	0.868461	0.597807
	H50	H	0.590712	0.099458	0.415385
	H51	H	0.414676	0.873511	0.406802
	H52	H	0.594153	0.399508	0.113714
	H53	H	0.593607	0.578956	0.883122
	H54	H	0.411447	0.583159	0.116029
	H55	H	0.417543	0.394185	0.881847
	H56	H	0.118691	0.576794	0.403679
	H57	H	0.887778	0.578756	0.594107
	H58	H	0.120931	0.392621	0.585327
	H59	H	0.886769	0.395450	0.401584
	H60	H	0.118463	0.402019	0.585820
	H61	H	0.888604	0.582246	0.592999
	H62	H	0.120836	0.585476	0.404075
	H63	H	0.889577	0.391654	0.412849
	H64	H	0.409917	0.571645	0.112893
	H65	H	0.598160	0.578473	0.880943
	H66	H	0.593245	0.395273	0.114329
	H67	H	0.412109	0.390789	0.879761
	H68	H	0.602911	0.104483	0.411810
	H69	H	0.587831	0.875524	0.585887
	H70	H	0.407365	0.105777	0.594074
	H71	H	0.411882	0.874337	0.414440
	H72	H	0.900731	0.605609	0.086583
	H73	H	0.095277	0.370763	0.093835
	H74	H	0.102066	0.605901	0.901073
	H75	H	0.917343	0.372711	0.903807
	H76	H	0.089475	0.903949	0.612528
	H77	H	0.101530	0.076287	0.381729
	H78	H	0.918263	0.078212	0.611919
	H79	H	0.916965	0.904946	0.387210
	H80	H	0.618085	0.078970	0.910200
	H81	H	0.393071	0.076874	0.083406
	H82	H	0.619307	0.892334	0.084376
	H83	H	0.384562	0.882818	0.907067
	H84	H	0.617769	0.902542	0.090729
	H85	H	0.390403	0.072327	0.095755
	H86	H	0.618595	0.074859	0.905158
	H87	H	0.392181	0.897697	0.916954
	H88	H	0.911070	0.089341	0.618529
	H89	H	0.091153	0.076532	0.383825
	H90	H	0.087828	0.897183	0.612492
	H91	H	0.916926	0.887332	0.381792
	H92	H	0.094731	0.602239	0.907411
	H93	H	0.091295	0.374466	0.084675
	H94	H	0.916562	0.606167	0.101800
	H95	H	0.915834	0.374777	0.912339
	H96	H	0.414252	0.104367	0.595263
	H97	H	0.602781	0.871013	0.584912
	H98	H	0.593033	0.104548	0.402108
	H99	H	0.407963	0.871309	0.409160
	H100	H	0.597270	0.396584	0.114722
	H101	H	0.596703	0.575517	0.882586
	H102	H	0.419928	0.577459	0.111489
	H103	H	0.411700	0.397532	0.881380
	H104	H	0.118161	0.581032	0.411116
	H105	H	0.888704	0.580218	0.590235
	H106	H	0.121299	0.397294	0.593578
	H107	H	0.891318	0.402936	0.408778
	H108	H	0.920592	0.598112	0.080519
	H109	H	0.100513	0.371434	0.084775
	H110	H	0.104300	0.603295	0.911052
	H111	H	0.909526	0.371479	0.906925
	H112	H	0.094619	0.899699	0.615768
	H113	H	0.096372	0.085561	0.380221
	H114	H	0.904683	0.076420	0.617127
	H115	H	0.902202	0.897825	0.379472
	H116	H	0.620779	0.081248	0.904540
	H117	H	0.386969	0.084543	0.092499
	H118	H	0.623340	0.892295	0.096236
	H119	H	0.387528	0.899298	0.897947
	C120	C	0.379955	-0.002751	0.622039
	C121	C	0.624675	0.978955	0.620536
	C122	C	0.625950	-0.003953	0.378378
	C123	C	0.382334	0.979859	0.379035
	C124	C	0.625665	0.366519	0.006526
	C125	C	0.626457	0.609063	0.989372
	C126	C	0.384228	0.607260	0.005811
	C127	C	0.383023	0.364567	0.989082
	C128	C	0.012011	0.610251	0.376692
	C129	C	0.995715	0.610749	0.620689
	C130	C	0.013250	0.367585	0.619587
	C131	C	0.995947	0.366506	0.376273
	C132	C	0.882124	0.496418	0.119972
	C133	C	0.126445	0.479083	0.118819
	C134	C	0.128882	0.496560	0.875240
	C135	C	0.884417	0.479962	0.877260
	C136	C	0.123507	0.868630	0.507023
	C137	C	0.125653	0.110737	0.489420
	C138	C	0.882064	0.110704	0.507955
	C139	C	0.881200	0.866652	0.490821
	C140	C	0.511867	0.107928	0.877511
	C141	C	0.496358	0.108866	0.120912
	C142	C	0.512996	0.865357	0.120855
	C143	C	0.495367	0.864363	0.876641
	C144	C	0.380967	0.873932	0.676833
	C145	C	0.622303	0.101638	0.677051
	C146	C	0.624813	0.873868	0.320776
	C147	C	0.383730	0.101660	0.320905
	C148	C	0.683617	0.366069	0.883721
	C149	C	0.683292	0.609492	0.111654
	C150	C	0.329299	0.605741	0.882959
	C151	C	0.325151	0.365119	0.111499
	C152	C	0.889701	0.666199	0.378304
	C153	C	0.117303	0.668717	0.618632
	C154	C	0.891046	0.310960	0.619449
	C155	C	0.117723	0.309751	0.375518
	C156	C	0.891158	0.368876	0.677235
	C157	C	0.118664	0.610122	0.674981
	C158	C	0.889752	0.608246	0.320754
	C159	C	0.117752	0.367253	0.318118
	C160	C	0.385349	0.664376	0.883640
	C161	C	0.625572	0.666588	0.112130
	C162	C	0.626390	0.308654	0.884160
	C163	C	0.384094	0.309534	0.112328
	C164	C	0.683042	0.874373	0.377923
	C165	C	0.681532	0.101527	0.621121
	C166	C	0.320657	0.875798	0.622026
	C167	C	0.326355	0.102371	0.378418
	C168	C	0.882722	0.374159	0.176755
	C169	C	0.124917	0.601499	0.175403
	C170	C	0.125770	0.374206	0.817844
	C171	C	0.886522	0.602637	0.821797
	C172	C	0.182403	0.868409	0.384932
	C173	C	0.181513	0.112200	0.611995
	C174	C	0.825727	0.109384	0.385223
	C175	C	0.824732	0.868200	0.613913
	C176	C	0.390556	0.164575	0.879592
	C177	C	0.617908	0.167532	0.120657
	C178	C	0.391171	0.808119	0.120129
	C179	C	0.617497	0.808636	0.875890
	C180	C	0.390579	0.865832	0.177968
	C181	C	0.617949	0.109230	0.178255
	C182	C	0.389641	0.106195	0.822735
	C183	C	0.617042	0.866546	0.818723
	C184	C	0.883755	0.166311	0.384493
	C185	C	0.124142	0.168551	0.611672
	C186	C	0.124699	0.810484	0.384390
	C187	C	0.881832	0.810687	0.613669
	C188	C	0.184423	0.374022	0.874061
	C189	C	0.184170	0.600734	0.118833
	C190	C	0.824088	0.374716	0.120222
	C191	C	0.826025	0.600857	0.876121
	C192	C	0.403926	0.082223	0.599368
	C193	C	0.601905	0.893848	0.596576
	C194	C	0.602401	0.080818	0.402675
	C195	C	0.404845	0.895242	0.403140
	C196	C	0.601778	0.390160	0.091823
	C197	C	0.602837	0.584936	0.904114
	C198	C	0.407044	0.584102	0.091426
	C199	C	0.406779	0.387517	0.903443
	C200	C	0.097042	0.587609	0.399486
	C201	C	0.910615	0.587362	0.598960
	C202	C	0.098176	0.390516	0.595181
	C203	C	0.911125	0.389864	0.400586
	C204	C	0.905972	0.581315	0.096565
	C205	C	0.102693	0.394123	0.094952
	C206	C	0.106819	0.581728	0.899437
	C207	C	0.907581	0.394947	0.900738
	C208	C	0.098099	0.893138	0.591636
	C209	C	0.102975	0.086327	0.403959
	C210	C	0.904687	0.087971	0.593673
	C211	C	0.905038	0.889950	0.404991
	C212	C	0.597121	0.084878	0.899942
	C213	C	0.412074	0.084778	0.097424
	C214	C	0.598145	0.888984	0.097204
	C215	C	0.410135	0.886597	0.900480
	Zn216	Zn	0.502717	-0.013201	0.748609
	Zn217	Zn	0.504130	-0.012610	0.249999
	Zn218	Zn	0.754449	0.487625	-0.002242
	Zn219	Zn	0.255700	0.486479	-0.002621
	Zn220	Zn	0.002696	0.739210	0.498538
	Zn221	Zn	0.004361	0.238076	0.497569
	Zn222	Zn	0.005514	0.489203	0.748543
	Zn223	Zn	0.004029	0.488161	0.248055
	Zn224	Zn	0.505016	0.736629	-0.001649
	Zn225	Zn	0.505139	0.237409	-0.001801
	Zn226	Zn	0.754329	-0.011161	0.499757
	Zn227	Zn	0.252795	-0.009853	0.499115
	N228	N	0.417112	0.950337	0.677082
	N229	N	0.587682	0.024397	0.676817
	N230	N	0.589948	0.950472	0.321067
	N231	N	0.418063	0.024658	0.321032
	N232	N	0.683312	0.401355	0.960839
	N233	N	0.683905	0.574577	0.034359
	N234	N	0.328566	0.570884	0.960102
	N235	N	0.324421	0.398566	0.033863
	N236	N	0.966601	0.667604	0.412259
	N237	N	0.039967	0.669399	0.585580
	N238	N	0.967936	0.310114	0.584148
	N239	N	0.040964	0.309153	0.410870
	N240	N	0.968148	0.403258	0.677312
	N241	N	0.042157	0.574911	0.676584
	N242	N	0.966801	0.574188	0.319508
	N243	N	0.040973	0.401692	0.318393
	N244	N	0.418841	0.665313	0.961264
	N245	N	0.591095	0.666496	0.035016
	N246	N	0.591190	0.308460	0.961566
	N247	N	0.419425	0.308863	0.035062
	N248	N	0.684149	0.951577	0.412784
	N249	N	0.683365	0.024299	0.586881
	N250	N	0.319521	0.953591	0.589059
	N251	N	0.325456	0.025859	0.414012
	N252	N	0.918191	0.450839	0.176719
	N253	N	0.089673	0.524775	0.175560
	N254	N	0.092025	0.451539	0.818120
	N255	N	0.922364	0.526437	0.822467
	N256	N	0.181838	0.903724	0.461995
	N257	N	0.182605	0.077165	0.534730
	N258	N	0.824618	0.075505	0.462904
	N259	N	0.824403	0.902322	0.536331
	N260	N	0.467810	0.165859	0.912827
	N261	N	0.541245	0.167608	0.085777
	N262	N	0.468361	0.807443	0.085684
	N263	N	0.540793	0.807139	0.911052
	N264	N	0.467560	0.900708	0.178605
	N265	N	0.541593	0.073654	0.178538
	N266	N	0.466192	0.071549	0.821642
	N267	N	0.540074	0.900583	0.819020
	N268	N	0.917790	0.167522	0.461935
	N269	N	0.089982	0.167751	0.534454
	N270	N	0.088714	0.810529	0.461392
	N271	N	0.916157	0.809568	0.535967
	N272	N	0.186239	0.450900	0.909085
	N273	N	0.185047	0.523555	0.084330
	N274	N	0.823698	0.451700	0.085635
	N275	N	0.824839	0.523617	0.910136
	O276	O	-0.059256	-0.136480	0.081190
	H277	H	-0.056110	-0.126874	0.080955
	H278	H	-0.068671	-0.130930	0.061178
	O279	O	0.344371	0.614709	0.388633
	H280	H	0.340274	0.618046	0.378528
	H281	H	0.352714	0.611352	0.395795
	O282	O	1.185798	0.129515	0.123202
	H283	H	1.181471	0.122054	0.122249
	H284	H	1.194685	0.143151	0.117814
	O285	O	-0.024326	1.070920	-0.075878
	H286	H	-0.016219	1.072549	-0.087376
	H287	H	-0.029999	1.067544	-0.063712
	O288	O	0.456976	0.496360	0.606049
	H289	H	0.445481	0.496623	0.601828
	H290	H	0.456556	0.495795	0.624929
	O291	O	0.624401	0.484875	0.565683
	H292	H	0.626991	0.476258	0.557225
	H293	H	0.627407	0.490983	0.578113
	O294	O	1.142397	1.014077	0.973638
	H295	H	1.143238	1.019442	0.982719
	H296	H	1.147236	1.029873	0.978080
	O297	O	-0.126126	0.089880	0.065464
	H298	H	-0.116004	0.092865	0.078158
	H299	H	-0.126797	0.090617	0.065689
	O300	O	0.501287	0.612891	0.509106
	H301	H	0.520983	0.613561	0.508144
	H302	H	0.498104	0.606249	0.500820
	O303	O	-0.042160	0.961994	0.933454
	H304	H	-0.040067	0.956902	0.936433
	H305	H	-0.040907	0.970904	0.923875
	O306	O	0.830275	1.085673	0.036320
	H307	H	0.833021	1.093489	0.026126
	H308	H	0.833066	1.071337	0.037350
	O309	O	0.856784	-0.112077	-0.020467
	H310	H	0.851875	-0.114061	-0.026466
	H311	H	0.857308	-0.108495	-0.035017
	O312	O	-0.156105	-0.118536	1.119765
	H313	H	-0.160343	-0.125442	1.118276
	H314	H	-0.156104	-0.109721	1.131478
	O315	O	0.453426	0.468609	0.616372
	H316	H	0.438894	0.464811	0.625171
	H317	H	0.447126	0.449763	0.584725
	O318	O	0.415124	0.599512	0.433641
	H319	H	0.417257	0.611528	0.433281
	H320	H	0.414824	0.592387	0.428552
	O321	O	0.606755	0.490347	0.546868
	H322	H	0.617223	0.485657	0.548534
	H323	H	0.600073	0.482797	0.555709
	O324	O	0.576860	0.441100	0.425971
	H325	H	0.567318	0.436699	0.437285
	H326	H	0.588370	0.461919	0.425501
	O327	O	0.060039	1.054516	1.092100
	H328	H	0.063945	1.065346	1.103848
	H329	H	0.054696	1.058136	1.099081
	O330	O	0.540413	0.391955	0.470704
	H331	H	0.542206	0.391561	0.469194
	H332	H	0.538154	0.396237	0.461233
	O333	O	0.184159	0.921242	0.919742
	H334	H	0.176880	0.922572	0.924118
	H335	H	0.186784	0.923264	0.903454
	O336	O	0.940297	0.838680	0.999377
	H337	H	0.945812	0.850454	0.989312
	H338	H	0.953528	0.833870	0.997177
	O339	O	0.527653	0.384513	0.554943
	H340	H	0.543605	0.376433	0.548597
	H341	H	0.510199	0.378264	0.555675
	O342	O	1.101710	-0.063658	0.033803
	H343	H	1.106505	-0.042178	0.026894
	H344	H	1.108979	-0.076433	0.037901
	O345	O	0.513249	0.407217	0.433656
	H346	H	0.498528	0.401378	0.439003
	H347	H	0.526514	0.415869	0.440895
	O348	O	0.919052	1.016552	0.931964
	H349	H	0.912180	1.021957	0.926203
	H350	H	0.909653	1.013582	0.934788
	O351	O	0.448479	1.458360	-0.542440
	H352	H	0.447094	1.466506	-0.546360
	H353	H	0.451265	1.450649	-0.536941
	O354	O	0.466372	0.539420	0.399535
	H355	H	0.467996	0.548594	0.406531
	H356	H	0.442097	0.540577	0.392091
	O357	O	0.092503	0.841821	0.834785
	H358	H	0.093787	0.831548	0.834895
	H359	H	0.093797	0.834978	0.841155
	O360	O	-0.044470	0.153150	0.046500
	H361	H	-0.037913	0.149559	0.053823
	H362	H	-0.039747	0.157968	0.050921
	O363	O	0.424283	0.318279	0.447981
	H364	H	0.437837	0.334373	0.444037
	H365	H	0.417532	0.284522	0.437011
	O366	O	0.519409	0.579551	0.530083
	H367	H	0.510500	0.585994	0.532295
	H368	H	0.518629	0.594558	0.540453
	O369	O	0.648942	0.325825	0.435780
	H370	H	0.663755	0.328411	0.441017
	H371	H	0.652734	0.330350	0.436111
	O372	O	0.534543	0.591709	0.607842
	H373	H	0.550819	0.600507	0.607654
	H374	H	0.522878	0.588965	0.601846
	O375	O	0.564898	0.455259	0.391811
	H376	H	0.560634	0.481644	0.375010
	H377	H	0.564775	0.455074	0.389430
	O378	O	-0.018598	0.795768	1.101729
	H379	H	-0.019199	0.790219	1.107258
	H380	H	-0.026568	0.790388	1.108850
	O381	O	0.405931	0.488380	0.569615
	H382	H	0.411790	0.488185	0.570901
	H383	H	0.401359	0.493392	0.563681
	O384	O	-0.012162	1.018043	0.165529
	H385	H	-0.008774	1.019474	0.156355
	H386	H	-0.022510	1.018628	0.173140
	O387	O	0.972129	-0.003679	0.899309
	H388	H	0.960788	-0.025381	0.916602
	H389	H	0.991914	-0.009631	0.908599
	O390	O	-0.110937	1.126977	-0.178391
	H391	H	-0.117931	1.146286	-0.183522
	H392	H	-0.124410	1.114838	-0.182406
	O393	O	1.126003	0.906069	0.017665
	H394	H	1.123193	0.907825	0.020120
	H395	H	1.127689	0.895439	0.009802
	O396	O	0.448425	0.473786	0.491835
	H397	H	0.443617	0.450869	0.489061
	H398	H	0.450661	0.477145	0.484732
	O399	O	0.151417	1.076189	0.939856
	H400	H	0.135248	1.083974	0.941216
	H401	H	0.157397	1.063930	0.925569
	O402	O	1.070351	1.019756	1.012501
	H403	H	1.064434	1.006198	1.009612
	H404	H	1.068536	1.015603	1.009636
	O405	O	0.558952	0.582151	0.385325
	H406	H	0.551745	0.591600	0.374888
	H407	H	0.568133	0.565495	0.398795
