data_Molecule from HDF5

_cell_length_a		16.424254
_cell_length_b		16.611040
_cell_length_c		16.425561
_cell_angle_alpha	90.025596
_cell_angle_beta	90.082306
_cell_angle_gamma	90.080517
_symmetry_space_group_name_H-M	'P 1'
_symmetry_Int_Tables_number		1

loop_
	_symmetry_equiv_pos_as_xyz
	x,y,z

loop_
	_atom_site_label
	_atom_site_type_symbol
	_atom_site_fract_x
	_atom_site_fract_y
	_atom_site_fract_z
	H0	H	0.397608	0.840091	0.710977
	H1	H	0.600241	0.157077	0.707538
	H2	H	0.600005	0.839732	0.273042
	H3	H	0.398681	0.156815	0.273710
	H4	H	0.715686	0.399324	0.829642
	H5	H	0.717439	0.599688	0.150133
	H6	H	0.279824	0.602916	0.831673
	H7	H	0.283235	0.397477	0.149899
	H8	H	0.841498	0.715588	0.388901
	H9	H	0.159360	0.719592	0.596966
	H10	H	0.842037	0.277369	0.595265
	H11	H	0.158363	0.278035	0.388123
	H12	H	0.840748	0.397606	0.707789
	H13	H	0.160840	0.600725	0.709929
	H14	H	0.839989	0.596069	0.275074
	H15	H	0.159053	0.395341	0.270850
	H16	H	0.391750	0.722435	0.834005
	H17	H	0.604245	0.718967	0.148774
	H18	H	0.604107	0.278440	0.832072
	H19	H	0.397809	0.279745	0.150323
	H20	H	0.716753	0.838906	0.390702
	H21	H	0.720705	0.155284	0.593545
	H22	H	0.281605	0.839003	0.593344
	H23	H	0.282180	0.156159	0.390521
	H24	H	0.895634	0.340803	0.210744
	H25	H	0.105743	0.655192	0.213062
	H26	H	0.103699	0.340659	0.770147
	H27	H	0.896494	0.655095	0.768201
	H28	H	0.219744	0.893736	0.331631
	H29	H	0.221673	0.102365	0.648883
	H30	H	0.782256	0.099832	0.331005
	H31	H	0.782240	0.894647	0.648990
	H32	H	0.341578	0.218773	0.886904
	H33	H	0.659791	0.218278	0.095094
	H34	H	0.343295	0.773942	0.099257
	H35	H	0.657392	0.777705	0.885170
	H36	H	0.341253	0.894115	0.211798
	H37	H	0.659801	0.100791	0.210824
	H38	H	0.340620	0.102572	0.770697
	H39	H	0.658807	0.896954	0.771999
	H40	H	0.896467	0.216968	0.331528
	H41	H	0.109992	0.223063	0.645898
	H42	H	0.107164	0.775228	0.332783
	H43	H	0.896561	0.776787	0.648887
	H44	H	0.221199	0.340987	0.886368
	H45	H	0.222734	0.655372	0.095223
	H46	H	0.779086	0.341298	0.093514
	H47	H	0.778934	0.655467	0.884666
	H48	H	0.407996	0.111288	0.581995
	H49	H	0.592034	0.882773	0.588358
	H50	H	0.588806	0.110653	0.397793
	H51	H	0.411165	0.885859	0.400967
	H52	H	0.598843	0.414450	0.105176
	H53	H	0.589539	0.591475	0.875789
	H54	H	0.415630	0.585713	0.102183
	H55	H	0.414217	0.409930	0.877916
	H56	H	0.113670	0.588606	0.406757
	H57	H	0.890657	0.580292	0.578261
	H58	H	0.112813	0.410528	0.578169
	H59	H	0.886732	0.409977	0.398623
	H60	H	0.114124	0.406727	0.579547
	H61	H	0.884536	0.590143	0.586236
	H62	H	0.113613	0.582332	0.399609
	H63	H	0.883703	0.403242	0.398380
	H64	H	0.413997	0.589311	0.103117
	H65	H	0.589668	0.587493	0.876594
	H66	H	0.581467	0.411273	0.100173
	H67	H	0.413309	0.404484	0.876801
	H68	H	0.590900	0.109380	0.405226
	H69	H	0.585029	0.887405	0.580224
	H70	H	0.411816	0.109409	0.581833
	H71	H	0.407989	0.885312	0.401094
	H72	H	0.909794	0.610526	0.078902
	H73	H	0.089392	0.386110	0.083661
	H74	H	0.092143	0.613009	0.892495
	H75	H	0.910094	0.386501	0.898549
	H76	H	0.086846	0.909442	0.602159
	H77	H	0.086299	0.085330	0.379486
	H78	H	0.918149	0.091446	0.602747
	H79	H	0.910594	0.904953	0.376424
	H80	H	0.615432	0.087438	0.893497
	H81	H	0.387760	0.088300	0.082931
	H82	H	0.610443	0.911525	0.076143
	H83	H	0.385842	0.904709	0.905708
	H84	H	0.613173	0.911639	0.083536
	H85	H	0.385644	0.092534	0.080762
	H86	H	0.616090	0.096590	0.901221
	H87	H	0.388945	0.913474	0.905592
	H88	H	0.906616	0.091392	0.607458
	H89	H	0.088386	0.089190	0.377157
	H90	H	0.088610	0.903309	0.604966
	H91	H	0.910755	0.906477	0.375755
	H92	H	0.083146	0.607361	0.902726
	H93	H	0.088129	0.387931	0.076960
	H94	H	0.906796	0.611681	0.082959
	H95	H	0.910399	0.386377	0.901349
	H96	H	0.409464	0.109352	0.578340
	H97	H	0.596123	0.885657	0.577778
	H98	H	0.596426	0.111452	0.400489
	H99	H	0.409624	0.884208	0.398149
	H100	H	0.591322	0.397673	0.107791
	H101	H	0.586540	0.589678	0.877610
	H102	H	0.411400	0.586142	0.103256
	H103	H	0.409017	0.408333	0.877183
	H104	H	0.116908	0.591376	0.398484
	H105	H	0.888738	0.592659	0.573039
	H106	H	0.113275	0.407651	0.575968
	H107	H	0.887793	0.404822	0.404563
	H108	H	0.911452	0.610470	0.083626
	H109	H	0.094704	0.386718	0.079520
	H110	H	0.096522	0.610276	0.906024
	H111	H	0.907800	0.385971	0.899564
	H112	H	0.093754	0.908546	0.604639
	H113	H	0.091072	0.084802	0.377314
	H114	H	0.911021	0.081394	0.601675
	H115	H	0.911371	0.905552	0.376712
	H116	H	0.611344	0.085838	0.904668
	H117	H	0.387806	0.088671	0.077796
	H118	H	0.613492	0.905008	0.079241
	H119	H	0.385482	0.909994	0.897772
	C120	C	0.378709	0.005653	0.612389
	C121	C	0.622296	0.989635	0.612723
	C122	C	0.621686	0.006010	0.370417
	C123	C	0.378477	0.989385	0.369473
	C124	C	0.621600	0.377101	-0.001071
	C125	C	0.620881	0.620294	0.981598
	C126	C	0.379886	0.619691	-0.001150
	C127	C	0.380454	0.377133	0.982350
	C128	C	0.009532	0.617939	0.370591
	C129	C	0.992700	0.619528	0.611839
	C130	C	0.008483	0.376681	0.610769
	C131	C	0.991229	0.375213	0.368674
	C132	C	0.878268	0.506532	0.112233
	C133	C	0.122298	0.490561	0.112073
	C134	C	0.122446	0.506446	0.868750
	C135	C	0.878703	0.490393	0.868415
	C136	C	0.122106	0.875455	0.499105
	C137	C	0.121680	0.118925	0.482036
	C138	C	0.880051	0.118591	0.498888
	C139	C	0.880040	0.875453	0.481739
	C140	C	0.508711	0.120342	0.869073
	C141	C	0.492314	0.120394	0.112131
	C142	C	0.508244	0.877422	0.112144
	C143	C	0.491227	0.877863	0.870376
	C144	C	0.378364	0.887156	0.671236
	C145	C	0.621133	0.109169	0.669414
	C146	C	0.620182	0.886858	0.312509
	C147	C	0.379064	0.109163	0.312414
	C148	C	0.678161	0.378550	0.878103
	C149	C	0.679337	0.620265	0.101852
	C150	C	0.319551	0.621660	0.879488
	C151	C	0.322376	0.377567	0.102338
	C152	C	0.888959	0.675878	0.370103
	C153	C	0.111998	0.679429	0.614860
	C154	C	0.889312	0.317654	0.612965
	C155	C	0.111067	0.317451	0.368295
	C156	C	0.888749	0.377329	0.668974
	C157	C	0.112827	0.620119	0.670827
	C158	C	0.888244	0.616715	0.313533
	C159	C	0.111272	0.375218	0.310047
	C160	C	0.375325	0.680992	0.880592
	C161	C	0.622860	0.679210	0.101270
	C162	C	0.622732	0.318466	0.879235
	C163	C	0.379452	0.319261	0.102356
	C164	C	0.678078	0.886337	0.370974
	C165	C	0.680712	0.108256	0.612625
	C166	C	0.320766	0.886591	0.612618
	C167	C	0.321239	0.108787	0.370582
	C168	C	0.876864	0.388128	0.171126
	C169	C	0.124393	0.608374	0.172329
	C170	C	0.123353	0.387943	0.809519
	C171	C	0.877560	0.608349	0.808595
	C172	C	0.180847	0.874595	0.379462
	C173	C	0.181951	0.121059	0.601222
	C174	C	0.821488	0.118732	0.378742
	C175	C	0.821788	0.875427	0.601651
	C176	C	0.388953	0.178930	0.868292
	C177	C	0.611992	0.178855	0.113876
	C178	C	0.390194	0.815375	0.116354
	C179	C	0.610070	0.817970	0.867247
	C180	C	0.389113	0.875088	0.172202
	C181	C	0.612026	0.120336	0.171267
	C182	C	0.388597	0.121258	0.810422
	C183	C	0.610907	0.877424	0.811192
	C184	C	0.878325	0.177017	0.379040
	C185	C	0.126373	0.180974	0.599702
	C186	C	0.124456	0.815673	0.380035
	C187	C	0.878289	0.816661	0.601266
	C188	C	0.181780	0.388178	0.867233
	C189	C	0.182591	0.608510	0.114104
	C190	C	0.819032	0.388326	0.112685
	C191	C	0.818947	0.608364	0.866346
	C192	C	0.402694	0.088449	0.587877
	C193	C	0.598154	0.906876	0.589030
	C194	C	0.598591	0.088837	0.394211
	C195	C	0.402464	0.906728	0.393193
	C196	C	0.597471	0.400891	0.082607
	C197	C	0.595868	0.596343	0.898337
	C198	C	0.405930	0.594269	0.081266
	C199	C	0.404875	0.400746	0.898882
	C200	C	0.092805	0.594341	0.394575
	C201	C	0.909610	0.594755	0.586521
	C202	C	0.091936	0.401303	0.585352
	C203	C	0.907685	0.399117	0.393306
	C204	C	0.902573	0.589454	0.088609
	C205	C	0.097781	0.408362	0.087215
	C206	C	0.097719	0.588919	0.893328
	C207	C	0.902705	0.407859	0.892856
	C208	C	0.097144	0.900129	0.582330
	C209	C	0.095906	0.093693	0.399508
	C210	C	0.904819	0.094860	0.582146
	C211	C	0.903863	0.898984	0.398043
	C212	C	0.592465	0.096704	0.893116
	C213	C	0.408771	0.096463	0.087424
	C214	C	0.590897	0.902367	0.086744
	C215	C	0.408172	0.902279	0.895737
	Zn216	Zn	0.499682	-0.001370	0.741864
	Zn217	Zn	0.500150	-0.001337	0.240494
	Zn218	Zn	0.749306	0.499041	-0.010026
	Zn219	Zn	0.251807	0.498494	-0.009540
	Zn220	Zn	0.001534	0.747332	0.490607
	Zn221	Zn	0.000080	0.247273	0.490825
	Zn222	Zn	0.001020	0.497924	0.739264
	Zn223	Zn	0.000589	0.498033	0.241344
	Zn224	Zn	0.499685	0.748747	-0.009174
	Zn225	Zn	0.500686	0.248381	-0.009533
	Zn226	Zn	0.752384	-0.002577	0.490851
	Zn227	Zn	0.249315	-0.002833	0.490922
	N228	N	0.413193	0.962327	0.671430
	N229	N	0.585408	0.034353	0.669692
	N230	N	0.585922	0.962286	0.311963
	N231	N	0.413755	0.033935	0.311382
	N232	N	0.677714	0.414016	0.953583
	N233	N	0.678308	0.584539	0.026361
	N234	N	0.322156	0.584043	0.954154
	N235	N	0.322686	0.412686	0.026692
	N236	N	0.965236	0.676895	0.404670
	N237	N	0.036233	0.679359	0.579140
	N238	N	0.965027	0.317416	0.577523
	N239	N	0.035309	0.317273	0.403531
	N240	N	0.964039	0.413342	0.667608
	N241	N	0.037712	0.583476	0.668981
	N242	N	0.964071	0.581786	0.313415
	N243	N	0.035437	0.410269	0.310052
	N244	N	0.411764	0.680011	0.955706
	N245	N	0.587678	0.679799	0.025396
	N246	N	0.588707	0.317179	0.955616
	N247	N	0.414592	0.318704	0.026528
	N248	N	0.679452	0.961390	0.405798
	N249	N	0.681648	0.032797	0.578425
	N250	N	0.320454	0.961571	0.577289
	N251	N	0.320362	0.033387	0.404912
	N252	N	0.912992	0.462675	0.170816
	N253	N	0.087745	0.534086	0.171340
	N254	N	0.087554	0.462627	0.810147
	N255	N	0.913999	0.534031	0.809552
	N256	N	0.179358	0.911011	0.454493
	N257	N	0.178789	0.082808	0.527208
	N258	N	0.822290	0.083215	0.454289
	N259	N	0.822518	0.911208	0.526201
	N260	N	0.464826	0.178687	0.903866
	N261	N	0.536449	0.179104	0.078008
	N262	N	0.465168	0.816836	0.079466
	N263	N	0.534644	0.818132	0.903337
	N264	N	0.463291	0.913144	0.169595
	N265	N	0.536315	0.085062	0.170553
	N266	N	0.464061	0.085658	0.810762
	N267	N	0.535789	0.913683	0.812911
	N268	N	0.913856	0.177326	0.454767
	N269	N	0.089422	0.179725	0.524754
	N270	N	0.088665	0.816099	0.455635
	N271	N	0.913884	0.816675	0.525747
	N272	N	0.181512	0.462951	0.903122
	N273	N	0.181502	0.534213	0.077469
	N274	N	0.819394	0.463199	0.077006
	N275	N	0.819468	0.533904	0.902669
	O276	O	0.584462	0.359304	0.595518
	H277	H	0.569256	0.362009	0.578307
	H278	H	0.575489	0.367071	0.588769
	O279	O	0.705867	0.560696	0.437842
	H280	H	0.710538	0.555356	0.433842
	H281	H	0.692958	0.546388	0.425186
	O282	O	0.820474	0.881778	0.183561
	H283	H	0.858685	0.878431	0.188127
	H284	H	0.818145	0.877284	0.144407
	O285	O	0.796170	0.204114	0.783452
	H286	H	0.793454	0.220146	0.798723
	H287	H	0.775325	0.208800	0.774590
	O288	O	-0.064350	0.208173	-0.190674
	H289	H	-0.082456	0.215397	-0.187821
	H290	H	-0.073463	0.220507	-0.210479
	O291	O	0.893184	0.917845	-0.091662
	H292	H	0.887709	0.919124	-0.070786
	H293	H	0.900472	0.928013	-0.098625
	O294	O	0.191774	0.806364	-0.200683
	H295	H	0.195153	0.793772	-0.165538
	H296	H	0.159016	0.792000	-0.198832
	O297	O	0.600736	0.364703	0.300739
	H298	H	0.622601	0.374010	0.309346
	H299	H	0.606468	0.336858	0.280932
	O300	O	0.478416	0.506348	0.408040
	H301	H	0.470962	0.511168	0.411038
	H302	H	0.464768	0.496587	0.401499
	O303	O	0.313951	0.299027	0.684680
	H304	H	0.317986	0.311703	0.664066
	H305	H	0.292929	0.277091	0.686164
	O306	O	0.038325	1.053109	1.045101
	H307	H	0.035498	1.039982	1.054749
	H308	H	0.046526	1.041341	1.052321
	O309	O	1.035360	1.066543	1.183524
	H310	H	1.036856	1.088467	1.184728
	H311	H	1.028806	1.073364	1.181285
	O312	O	0.701497	0.295863	0.537718
	H313	H	0.702735	0.307265	0.529632
	H314	H	0.694217	0.288049	0.525320
	O315	O	0.051322	0.051233	0.764686
	H316	H	0.060786	0.074421	0.762773
	H317	H	0.073842	0.058680	0.756571
	O318	O	-0.482359	0.334200	0.436921
	H319	H	-0.501265	0.335342	0.437597
	H320	H	-0.481542	0.327003	0.432842
	O321	O	0.545396	0.467105	0.670255
	H322	H	0.550053	0.462124	0.688031
	H323	H	0.527595	0.459419	0.651182
	O324	O	0.777084	-0.031748	0.967002
	H325	H	0.784008	-0.033080	0.968343
	H326	H	0.766309	-0.023797	0.971500
	O327	O	1.304389	0.697843	0.353858
	H328	H	1.287035	0.703356	0.372987
	H329	H	1.312284	0.705348	0.369274
	O330	O	1.170950	0.201175	0.009670
	H331	H	1.194693	0.219477	0.007520
	H332	H	1.168969	0.181709	0.017933
	O333	O	1.192569	0.804583	1.062405
	H334	H	1.189953	0.828571	1.061425
	H335	H	1.200142	0.806344	1.056665
	O336	O	0.791119	0.029025	0.776434
	H337	H	0.793749	0.045091	0.776454
	H338	H	0.771291	0.039682	0.765110
	O339	O	0.509141	0.500457	0.290794
	H340	H	0.494658	0.509902	0.297765
	H341	H	0.510894	0.503186	0.274270
	O342	O	0.682329	0.480175	0.291450
	H343	H	0.684233	0.491387	0.273866
	H344	H	0.671843	0.471810	0.295798
	O345	O	-0.073898	0.233867	0.242740
	H346	H	-0.085375	0.251231	0.236156
	H347	H	-0.093181	0.230610	0.242833
	O348	O	1.207390	0.102374	1.191807
	H349	H	1.220241	0.103039	1.188092
	H350	H	1.187239	0.130809	1.191986
	O351	O	1.208049	1.009501	0.065168
	H352	H	1.229590	1.015399	0.064957
	H353	H	1.189960	1.037290	0.074925
	O354	O	0.640110	0.704384	0.584335
	H355	H	0.656798	0.727590	0.600481
	H356	H	0.644572	0.703316	0.547414
	O357	O	1.169517	1.156406	0.854979
	H358	H	1.161212	1.147430	0.866902
	H359	H	1.171225	1.146214	0.864187
	O360	O	0.438946	0.691275	0.293297
	H361	H	0.438266	0.702522	0.293667
	H362	H	0.439201	0.692511	0.302204
	O363	O	-0.168079	0.927939	0.211231
	H364	H	-0.156985	0.889110	0.209089
	H365	H	-0.186867	0.927283	0.232961
	O366	O	1.024522	-0.214114	0.788578
	H367	H	1.017683	-0.216001	0.762790
	H368	H	1.014327	-0.195885	0.793030
	O369	O	0.444106	0.419315	0.375528
	H370	H	0.447198	0.419188	0.361859
	H371	H	0.443558	0.411308	0.370581
	O372	O	0.676392	0.406795	0.527609
	H373	H	0.671979	0.406856	0.523333
	H374	H	0.659202	0.409476	0.543749
	O375	O	0.522662	0.509335	0.556402
	H376	H	0.530370	0.539911	0.557889
	H377	H	0.543016	0.498603	0.553374
	O378	O	0.283649	0.463972	0.706092
	H379	H	0.281668	0.444348	0.718306
	H380	H	0.271624	0.465368	0.723434
	O381	O	0.945455	-0.068442	-0.217371
	H382	H	0.952807	-0.050298	-0.209951
	H383	H	0.941661	-0.037407	-0.222799
	O384	O	-0.101748	-0.222122	0.968638
	H385	H	-0.104854	-0.228255	0.961856
	H386	H	-0.081181	-0.218712	0.998426
	O387	O	-0.113332	1.156881	1.017453
	H388	H	-0.115301	1.155514	1.031066
	H389	H	-0.095867	1.161260	0.997260
	O390	O	0.144175	0.209662	1.121028
	H391	H	0.110906	0.213506	1.117026
	H392	H	0.162075	0.228391	1.142431
	O393	O	1.081115	0.851514	0.048215
	H394	H	1.084490	0.850099	0.054824
	H395	H	1.074142	0.855419	0.033614
	O396	O	0.387517	0.600307	0.674586
	H397	H	0.400837	0.602290	0.684232
	H398	H	0.392820	0.593904	0.674142
	O399	O	0.444982	0.707408	0.617795
	H400	H	0.475515	0.717425	0.628802
	H401	H	0.449660	0.710503	0.636087
	O402	O	-0.010021	-0.099954	1.141963
	H403	H	0.006856	-0.097207	1.143346
	H404	H	-0.012521	-0.090498	1.148011
	O405	O	-0.020400	0.098845	0.019991
	H406	H	-0.024652	0.100411	0.010212
	H407	H	-0.016272	0.095643	-0.000797
	O408	O	0.332080	0.300459	0.509255
	H409	H	0.337098	0.307458	0.506089
	H410	H	0.324588	0.305500	0.499985
	O411	O	0.667778	0.665932	0.497220
	H412	H	0.677337	0.654117	0.476310
	H413	H	0.676001	0.676221	0.495937
	O414	O	0.475891	0.311027	0.684029
	H415	H	0.477096	0.299567	0.700697
	H416	H	0.451501	0.313011	0.681257
	O417	O	0.294685	0.530685	0.281499
	H418	H	0.274827	0.540730	0.265898
	H419	H	0.298338	0.560088	0.278423
	O420	O	0.441011	0.683917	0.540020
	H421	H	0.449757	0.688175	0.556800
	H422	H	0.450839	0.675346	0.556254
	O423	O	-0.180551	1.113073	0.142412
	H424	H	-0.183906	1.072272	0.139440
	H425	H	-0.166504	1.110389	0.136055
	O426	O	1.025158	0.938743	1.125219
	H427	H	1.038756	0.957784	1.116855
	H428	H	1.028289	0.931396	1.136768
	O429	O	0.223748	-0.033196	0.769660
	H430	H	0.240201	-0.057550	0.749279
	H431	H	0.229365	-0.063915	0.761359
	O432	O	0.308384	0.371622	0.405136
	H433	H	0.326787	0.378621	0.416777
	H434	H	0.311989	0.389185	0.414381
	O435	O	-0.001936	0.003383	-0.071120
	H436	H	-0.019554	-0.001936	-0.076271
	H437	H	-0.003108	0.012788	-0.070484
	O438	O	0.801809	0.184153	-0.019481
	H439	H	0.790057	0.170984	-0.009735
	H440	H	0.788571	0.185350	-0.018221
	O441	O	0.599010	0.678807	0.381210
	H442	H	0.596020	0.680530	0.390782
	H443	H	0.607783	0.673385	0.383193
	O444	O	-0.210067	0.791369	1.071249
	H445	H	-0.208857	0.793281	1.060527
	H446	H	-0.205389	0.771246	1.065066
	O447	O	0.752396	0.749279	0.746078
	H448	H	0.768073	0.753128	0.742217
	H449	H	0.770856	0.752750	0.764994
	O450	O	0.695403	0.518601	0.676844
	H451	H	0.691359	0.534959	0.678744
	H452	H	0.699236	0.525661	0.684774
	O453	O	0.299844	0.570433	0.482669
	H454	H	0.315092	0.574156	0.480864
	H455	H	0.295403	0.574980	0.503918
	O456	O	0.665832	0.310728	0.294286
	H457	H	0.674924	0.300458	0.287085
	H458	H	0.670865	0.337848	0.302479
	O459	O	0.383087	0.523810	0.589136
	H460	H	0.384857	0.534096	0.587582
	H461	H	0.390783	0.528026	0.596130
	O462	O	0.123680	0.801822	1.040158
	H463	H	0.135416	0.814449	1.050520
	H464	H	0.133422	0.801622	1.036250
	O465	O	1.176384	0.033219	-0.000321
	H466	H	1.179839	0.033545	-0.000893
	H467	H	1.180239	0.042196	0.003186
