data_Molecule from HDF5

_cell_length_a		16.309636
_cell_length_b		16.257901
_cell_length_c		16.272840
_cell_angle_alpha	89.968135
_cell_angle_beta	90.019613
_cell_angle_gamma	89.960207
_symmetry_space_group_name_H-M	'P 1'
_symmetry_Int_Tables_number		1

loop_
	_symmetry_equiv_pos_as_xyz
	x,y,z

loop_
	_atom_site_label
	_atom_site_type_symbol
	_atom_site_fract_x
	_atom_site_fract_y
	_atom_site_fract_z
	H0	H	0.403096	0.835526	0.714030
	H1	H	0.598013	0.164066	0.713484
	H2	H	0.597987	0.836037	0.285905
	H3	H	0.401978	0.164380	0.286740
	H4	H	0.713716	0.401935	0.836252
	H5	H	0.714811	0.598615	0.163926
	H6	H	0.285507	0.599297	0.836466
	H7	H	0.286583	0.402487	0.164054
	H8	H	0.836551	0.713963	0.402428
	H9	H	0.163620	0.713721	0.597423
	H10	H	0.836617	0.286110	0.597370
	H11	H	0.163237	0.285221	0.401781
	H12	H	0.836465	0.402092	0.713559
	H13	H	0.163560	0.598062	0.713781
	H14	H	0.836875	0.599083	0.285213
	H15	H	0.163692	0.402307	0.286170
	H16	H	0.402743	0.713552	0.836103
	H17	H	0.597250	0.713175	0.164885
	H18	H	0.599030	0.284503	0.836560
	H19	H	0.402732	0.286302	0.164010
	H20	H	0.714201	0.836181	0.401640
	H21	H	0.714727	0.163428	0.598458
	H22	H	0.285749	0.835396	0.598964
	H23	H	0.285434	0.163958	0.401524
	H24	H	0.901797	0.335743	0.214221
	H25	H	0.097587	0.664303	0.213352
	H26	H	0.097534	0.336026	0.786433
	H27	H	0.901855	0.664018	0.786106
	H28	H	0.214322	0.901356	0.336634
	H29	H	0.215172	0.099522	0.663172
	H30	H	0.785380	0.099183	0.336622
	H31	H	0.787289	0.903132	0.664017
	H32	H	0.336450	0.213994	0.902235
	H33	H	0.663819	0.213288	0.097564
	H34	H	0.336225	0.785626	0.097315
	H35	H	0.663910	0.786062	0.902769
	H36	H	0.336459	0.900349	0.214930
	H37	H	0.663197	0.097811	0.215284
	H38	H	0.336607	0.098784	0.785368
	H39	H	0.664027	0.902718	0.786925
	H40	H	0.901374	0.214706	0.336467
	H41	H	0.097872	0.213754	0.664025
	H42	H	0.098113	0.785108	0.335781
	H43	H	0.902695	0.785896	0.663335
	H44	H	0.214206	0.336085	0.901170
	H45	H	0.213714	0.664276	0.097205
	H46	H	0.785537	0.336320	0.098587
	H47	H	0.784568	0.663876	0.900509
	H48	H	0.400081	0.116979	0.590474
	H49	H	0.603789	0.880268	0.592694
	H50	H	0.599027	0.119368	0.405289
	H51	H	0.404528	0.884877	0.413899
	H52	H	0.592224	0.408140	0.116340
	H53	H	0.591440	0.591539	0.884955
	H54	H	0.412489	0.588837	0.113854
	H55	H	0.402594	0.404895	0.881456
	H56	H	0.116135	0.594595	0.409628
	H57	H	0.880549	0.604370	0.592955
	H58	H	0.114681	0.411641	0.590457
	H59	H	0.882818	0.408500	0.401749
	H60	H	0.118350	0.407449	0.599217
	H61	H	0.886740	0.588759	0.584612
	H62	H	0.115737	0.588970	0.405637
	H63	H	0.882888	0.402588	0.407389
	H64	H	0.407364	0.601885	0.119493
	H65	H	0.592884	0.596056	0.883507
	H66	H	0.592193	0.405478	0.117105
	H67	H	0.406956	0.409559	0.883842
	H68	H	0.587762	0.116361	0.402788
	H69	H	0.590629	0.881141	0.602516
	H70	H	0.409223	0.117541	0.598889
	H71	H	0.402615	0.880750	0.402681
	H72	H	0.893905	0.620771	0.093686
	H73	H	0.097951	0.383406	0.089735
	H74	H	0.087232	0.613770	0.911468
	H75	H	0.906764	0.384201	0.909874
	H76	H	0.088854	0.907818	0.615304
	H77	H	0.083878	0.089851	0.387213
	H78	H	0.897832	0.091791	0.618951
	H79	H	0.911101	0.909094	0.384684
	H80	H	0.617920	0.093770	0.902842
	H81	H	0.382767	0.097045	0.093266
	H82	H	0.618919	0.913985	0.110982
	H83	H	0.382101	0.897945	0.909089
	H84	H	0.620613	0.888795	0.091272
	H85	H	0.385021	0.091236	0.090837
	H86	H	0.616139	0.096456	0.909910
	H87	H	0.387735	0.913607	0.911899
	H88	H	0.911752	0.087452	0.613913
	H89	H	0.094087	0.102383	0.380118
	H90	H	0.094561	0.901891	0.618754
	H91	H	0.905910	0.901652	0.381266
	H92	H	0.101555	0.618710	0.910206
	H93	H	0.095355	0.381378	0.097447
	H94	H	0.917050	0.616686	0.102275
	H95	H	0.903788	0.381703	0.906298
	H96	H	0.411564	0.113458	0.587631
	H97	H	0.589588	0.885902	0.586676
	H98	H	0.591930	0.114636	0.412928
	H99	H	0.413351	0.884402	0.405912
	H100	H	0.594209	0.406935	0.116633
	H101	H	0.596328	0.591917	0.882888
	H102	H	0.397969	0.589969	0.118595
	H103	H	0.408907	0.402999	0.882608
	H104	H	0.117658	0.594749	0.403832
	H105	H	0.882372	0.588528	0.602745
	H106	H	0.117000	0.401726	0.590999
	H107	H	0.885431	0.410397	0.409675
	H108	H	0.911058	0.610812	0.078614
	H109	H	0.089889	0.384912	0.091716
	H110	H	0.091886	0.619017	0.898118
	H111	H	0.908535	0.382722	0.904842
	H112	H	0.096946	0.910341	0.617058
	H113	H	0.100231	0.085914	0.383387
	H114	H	0.909357	0.101914	0.617942
	H115	H	0.902160	0.909456	0.382618
	H116	H	0.614899	0.088563	0.908028
	H117	H	0.382521	0.091054	0.097015
	H118	H	0.609800	0.916819	0.080347
	H119	H	0.381770	0.909342	0.897375
	C120	C	0.378662	0.007776	0.621265
	C121	C	0.622079	0.991153	0.621816
	C122	C	0.621121	0.008392	0.378601
	C123	C	0.378177	0.991705	0.378798
	C124	C	0.621236	0.378219	0.008345
	C125	C	0.621916	0.622001	0.992042
	C126	C	0.378318	0.621533	0.008655
	C127	C	0.378384	0.378331	0.991445
	C128	C	0.008509	0.621650	0.378040
	C129	C	0.991572	0.621679	0.621490
	C130	C	0.008530	0.378453	0.621586
	C131	C	0.991693	0.378531	0.378261
	C132	C	0.878601	0.508056	0.121070
	C133	C	0.122133	0.491930	0.120908
	C134	C	0.121474	0.508515	0.878384
	C135	C	0.878239	0.491732	0.878684
	C136	C	0.121434	0.878406	0.508509
	C137	C	0.121554	0.121577	0.491490
	C138	C	0.878258	0.122065	0.508639
	C139	C	0.878393	0.878530	0.491276
	C140	C	0.508215	0.121487	0.878718
	C141	C	0.491409	0.121691	0.122006
	C142	C	0.508056	0.878607	0.121737
	C143	C	0.491975	0.878432	0.878332
	C144	C	0.382020	0.884344	0.676304
	C145	C	0.618332	0.115108	0.675932
	C146	C	0.618428	0.884884	0.323590
	C147	C	0.381414	0.115172	0.324250
	C148	C	0.676190	0.380876	0.885036
	C149	C	0.676948	0.619196	0.115304
	C150	C	0.323758	0.619055	0.885185
	C151	C	0.324365	0.381776	0.115161
	C152	C	0.885532	0.676675	0.381161
	C153	C	0.114614	0.676407	0.618513
	C154	C	0.885470	0.323801	0.618229
	C155	C	0.114623	0.323338	0.381201
	C156	C	0.885125	0.381541	0.675779
	C157	C	0.114605	0.618885	0.676414
	C158	C	0.885574	0.619604	0.322900
	C159	C	0.114731	0.381117	0.323549
	C160	C	0.381587	0.676172	0.885138
	C161	C	0.618740	0.676309	0.115504
	C162	C	0.619058	0.322802	0.885194
	C163	C	0.381794	0.323825	0.115044
	C164	C	0.676401	0.885104	0.380870
	C165	C	0.676392	0.114955	0.618774
	C166	C	0.323576	0.884528	0.619224
	C167	C	0.323502	0.115164	0.381271
	C168	C	0.881487	0.384785	0.176211
	C169	C	0.118583	0.615351	0.175577
	C170	C	0.118487	0.385057	0.823617
	C171	C	0.881327	0.615244	0.823970
	C172	C	0.176280	0.881004	0.385115
	C173	C	0.176450	0.119123	0.614797
	C174	C	0.823122	0.119929	0.385400
	C175	C	0.824038	0.881482	0.614872
	C176	C	0.385160	0.176185	0.881650
	C177	C	0.614805	0.176309	0.119095
	C178	C	0.384901	0.823625	0.118404
	C179	C	0.614799	0.823294	0.881219
	C180	C	0.385071	0.880647	0.176744
	C181	C	0.614518	0.118807	0.176994
	C182	C	0.385276	0.119003	0.823564
	C183	C	0.615220	0.881218	0.823978
	C184	C	0.881109	0.176920	0.385229
	C185	C	0.118591	0.176444	0.614808
	C186	C	0.118574	0.823422	0.384885
	C187	C	0.881689	0.823731	0.614519
	C188	C	0.176202	0.385031	0.880983
	C189	C	0.176388	0.615465	0.118077
	C190	C	0.823666	0.384941	0.118854
	C191	C	0.823048	0.615066	0.880768
	C192	C	0.400481	0.093801	0.599009
	C193	C	0.601140	0.904835	0.600307
	C194	C	0.599280	0.094565	0.400701
	C195	C	0.400292	0.905535	0.400986
	C196	C	0.599397	0.400380	0.094482
	C197	C	0.600013	0.599889	0.906033
	C198	C	0.399670	0.599926	0.094998
	C199	C	0.399592	0.399675	0.905030
	C200	C	0.094486	0.599203	0.399972
	C201	C	0.905374	0.600192	0.599872
	C202	C	0.094533	0.400459	0.600051
	C203	C	0.905876	0.400664	0.399826
	C204	C	0.900893	0.593930	0.098251
	C205	C	0.100720	0.405541	0.099373
	C206	C	0.099970	0.594805	0.900184
	C207	C	0.899861	0.405199	0.900591
	C208	C	0.099810	0.900216	0.594816
	C209	C	0.099316	0.099095	0.405586
	C210	C	0.899904	0.100266	0.594829
	C211	C	0.899784	0.900183	0.405243
	C212	C	0.594140	0.099416	0.900358
	C213	C	0.405677	0.099716	0.100177
	C214	C	0.594220	0.900294	0.100449
	C215	C	0.405948	0.900409	0.899952
	Zn216	Zn	0.500375	-0.000028	0.749909
	Zn217	Zn	0.499674	-0.000189	0.250712
	Zn218	Zn	0.749532	0.499829	0.000157
	Zn219	Zn	0.250438	0.500031	-0.000494
	Zn220	Zn	0.000534	0.749826	0.499758
	Zn221	Zn	-0.000130	0.249755	0.499771
	Zn222	Zn	-0.000535	0.500054	0.750417
	Zn223	Zn	0.000271	0.500191	0.249287
	Zn224	Zn	0.499914	0.750104	0.000260
	Zn225	Zn	0.499966	0.249939	0.000140
	Zn226	Zn	0.749822	0.000228	0.499709
	Zn227	Zn	0.249676	-0.000014	0.500194
	N228	N	0.415501	0.961959	0.677808
	N229	N	0.585502	0.037145	0.678187
	N230	N	0.584851	0.962519	0.322213
	N231	N	0.414721	0.037383	0.322724
	N232	N	0.677760	0.414448	0.962611
	N233	N	0.678867	0.586078	0.037444
	N234	N	0.321709	0.585813	0.962855
	N235	N	0.322107	0.414876	0.037360
	N236	N	0.962963	0.677843	0.414869
	N237	N	0.037152	0.678048	0.585075
	N238	N	0.963045	0.321724	0.585441
	N239	N	0.037159	0.321713	0.414583
	N240	N	0.962731	0.414931	0.677896
	N241	N	0.037051	0.585466	0.678328
	N242	N	0.963055	0.586261	0.320752
	N243	N	0.037193	0.414701	0.321479
	N244	N	0.415053	0.677758	0.962830
	N245	N	0.585204	0.678048	0.037873
	N246	N	0.585642	0.321262	0.962863
	N247	N	0.414517	0.321603	0.037038
	N248	N	0.678001	0.962792	0.414507
	N249	N	0.678717	0.037174	0.585828
	N250	N	0.321560	0.962263	0.585700
	N251	N	0.321260	0.037314	0.414521
	N252	N	0.914970	0.462437	0.177572
	N253	N	0.085440	0.537654	0.177253
	N254	N	0.084952	0.462728	0.822029
	N255	N	0.915004	0.537509	0.822660
	N256	N	0.178048	0.914464	0.462886
	N257	N	0.178300	0.085673	0.537137
	N258	N	0.821328	0.086335	0.463128
	N259	N	0.821847	0.914852	0.537209
	N260	N	0.462545	0.177728	0.915213
	N261	N	0.537368	0.178128	0.085678
	N262	N	0.462429	0.822054	0.085096
	N263	N	0.537248	0.821539	0.914519
	N264	N	0.462573	0.913952	0.178999
	N265	N	0.536864	0.085646	0.179271
	N266	N	0.462913	0.085679	0.821680
	N267	N	0.537761	0.914730	0.821990
	N268	N	0.914400	0.178394	0.462791
	N269	N	0.085009	0.177950	0.537134
	N270	N	0.085322	0.821816	0.462510
	N271	N	0.914840	0.821943	0.536949
	N272	N	0.178184	0.462829	0.914185
	N273	N	0.178390	0.537701	0.084655
	N274	N	0.821962	0.462450	0.085127
	N275	N	0.821106	0.537216	0.914238
