data_Molecule from HDF5

_cell_length_a		16.301426
_cell_length_b		16.308646
_cell_length_c		16.204211
_cell_angle_alpha	89.660654
_cell_angle_beta	89.831205
_cell_angle_gamma	89.803647
_symmetry_space_group_name_H-M	'P 1'
_symmetry_Int_Tables_number		1

loop_
	_symmetry_equiv_pos_as_xyz
	x,y,z

loop_
	_atom_site_label
	_atom_site_type_symbol
	_atom_site_fract_x
	_atom_site_fract_y
	_atom_site_fract_z
	H0	H	0.405778	0.841447	0.708669
	H1	H	0.606403	0.165778	0.701967
	H2	H	0.608814	0.840165	0.272509
	H3	H	0.406778	0.165873	0.274100
	H4	H	0.719452	0.403842	0.823701
	H5	H	0.721163	0.602606	0.150263
	H6	H	0.289298	0.606201	0.823202
	H7	H	0.287543	0.402651	0.150386
	H8	H	0.845286	0.723265	0.382565
	H9	H	0.168148	0.716691	0.588222
	H10	H	0.843273	0.285115	0.590507
	H11	H	0.168486	0.285146	0.386232
	H12	H	0.843159	0.402033	0.703618
	H13	H	0.167921	0.598952	0.701516
	H14	H	0.842417	0.602127	0.272244
	H15	H	0.167915	0.401005	0.269944
	H16	H	0.403203	0.723150	0.825655
	H17	H	0.604291	0.715461	0.152204
	H18	H	0.607056	0.285940	0.825752
	H19	H	0.402780	0.286595	0.151809
	H20	H	0.724224	0.839854	0.387542
	H21	H	0.724418	0.163021	0.590794
	H22	H	0.289700	0.839461	0.592552
	H23	H	0.286388	0.162473	0.384482
	H24	H	0.903950	0.339947	0.205337
	H25	H	0.105459	0.664261	0.203081
	H26	H	0.107262	0.339494	0.772335
	H27	H	0.905202	0.663895	0.769490
	H28	H	0.223690	0.899450	0.324967
	H29	H	0.220940	0.099529	0.651819
	H30	H	0.787510	0.105659	0.326284
	H31	H	0.788616	0.896949	0.650267
	H32	H	0.343345	0.220425	0.888355
	H33	H	0.667063	0.220468	0.091238
	H34	H	0.342667	0.785242	0.092720
	H35	H	0.666318	0.783304	0.885564
	H36	H	0.342954	0.903954	0.205520
	H37	H	0.669102	0.101328	0.203427
	H38	H	0.344184	0.106661	0.770773
	H39	H	0.667955	0.903137	0.771968
	H40	H	0.903212	0.221097	0.325538
	H41	H	0.107984	0.216989	0.651240
	H42	H	0.110046	0.785093	0.325349
	H43	H	0.906046	0.784310	0.650812
	H44	H	0.226014	0.342391	0.884144
	H45	H	0.220699	0.665289	0.087108
	H46	H	0.787417	0.340964	0.090126
	H47	H	0.787498	0.663850	0.883202
	H48	H	0.403698	0.121908	0.582850
	H49	H	0.598082	0.886411	0.579690
	H50	H	0.594985	0.117021	0.396196
	H51	H	0.409041	0.886854	0.405601
	H52	H	0.587373	0.414325	0.101326
	H53	H	0.598461	0.586246	0.873084
	H54	H	0.419353	0.588321	0.099551
	H55	H	0.423731	0.415269	0.874732
	H56	H	0.119306	0.590206	0.397894
	H57	H	0.893251	0.584490	0.575800
	H58	H	0.121301	0.410579	0.578674
	H59	H	0.889408	0.407969	0.394638
	H60	H	0.123893	0.407359	0.583264
	H61	H	0.886029	0.595995	0.586220
	H62	H	0.121110	0.590221	0.393358
	H63	H	0.890174	0.408842	0.400070
	H64	H	0.413615	0.602127	0.105853
	H65	H	0.585956	0.597817	0.873140
	H66	H	0.597772	0.403168	0.107489
	H67	H	0.413802	0.403967	0.868910
	H68	H	0.598801	0.116742	0.399849
	H69	H	0.596906	0.885902	0.581953
	H70	H	0.421993	0.116377	0.583415
	H71	H	0.412093	0.882522	0.390185
	H72	H	0.913695	0.619463	0.084171
	H73	H	0.109215	0.384459	0.073376
	H74	H	0.100518	0.618774	0.897435
	H75	H	0.911041	0.383989	0.890845
	H76	H	0.108563	0.915125	0.605806
	H77	H	0.099709	0.094737	0.370060
	H78	H	0.910600	0.098932	0.607245
	H79	H	0.922597	0.909770	0.372791
	H80	H	0.625037	0.103135	0.894660
	H81	H	0.390100	0.095782	0.080627
	H82	H	0.626223	0.898930	0.086918
	H83	H	0.391774	0.922823	0.892113
	H84	H	0.618142	0.908004	0.068578
	H85	H	0.389635	0.094120	0.079804
	H86	H	0.617893	0.093537	0.906566
	H87	H	0.385413	0.903567	0.895987
	H88	H	0.910788	0.083641	0.602921
	H89	H	0.097146	0.088279	0.373758
	H90	H	0.088031	0.912257	0.600453
	H91	H	0.911140	0.909631	0.369650
	H92	H	0.096459	0.620058	0.887991
	H93	H	0.092519	0.384661	0.090172
	H94	H	0.916398	0.615313	0.074927
	H95	H	0.918433	0.388143	0.898454
	H96	H	0.412176	0.114400	0.567370
	H97	H	0.595123	0.887950	0.579617
	H98	H	0.600037	0.119312	0.394450
	H99	H	0.424434	0.889283	0.398739
	H100	H	0.603259	0.417964	0.103674
	H101	H	0.601637	0.602142	0.866798
	H102	H	0.404493	0.589143	0.104572
	H103	H	0.408321	0.419064	0.871358
	H104	H	0.122034	0.595199	0.396024
	H105	H	0.890198	0.600530	0.569863
	H106	H	0.121989	0.404348	0.577625
	H107	H	0.890235	0.412912	0.396614
	H108	H	0.907896	0.619091	0.076150
	H109	H	0.088078	0.393023	0.068308
	H110	H	0.091344	0.616305	0.896065
	H111	H	0.907106	0.386124	0.901389
	H112	H	0.099656	0.895594	0.609015
	H113	H	0.092170	0.094698	0.373365
	H114	H	0.924294	0.092846	0.601054
	H115	H	0.915430	0.920014	0.373622
	H116	H	0.620987	0.087600	0.892010
	H117	H	0.390093	0.094713	0.081346
	H118	H	0.619124	0.919547	0.086528
	H119	H	0.394461	0.914644	0.910904
	C120	C	0.383070	0.010911	0.610145
	C121	C	0.627420	0.993435	0.610013
	C122	C	0.628214	0.010576	0.367026
	C123	C	0.385003	0.993279	0.367436
	C124	C	0.626787	0.381317	-0.003298
	C125	C	0.625423	0.624022	0.979475
	C126	C	0.382939	0.624617	-0.004221
	C127	C	0.383996	0.382460	0.979437
	C128	C	0.014492	0.623827	0.365032
	C129	C	0.997387	0.622270	0.607260
	C130	C	0.014370	0.378743	0.610072
	C131	C	0.997292	0.379725	0.366165
	C132	C	0.882900	0.510860	0.108959
	C133	C	0.126029	0.494417	0.107336
	C134	C	0.126893	0.511125	0.864967
	C135	C	0.882933	0.493302	0.865633
	C136	C	0.128942	0.878604	0.497155
	C137	C	0.126606	0.121882	0.480157
	C138	C	0.884466	0.123178	0.496474
	C139	C	0.885959	0.881369	0.479378
	C140	C	0.514398	0.125616	0.866985
	C141	C	0.497475	0.124203	0.110567
	C142	C	0.513693	0.880015	0.111389
	C143	C	0.497027	0.882697	0.868195
	C144	C	0.385168	0.889508	0.669389
	C145	C	0.626450	0.116418	0.665079
	C146	C	0.627957	0.888632	0.310655
	C147	C	0.386233	0.116272	0.311265
	C148	C	0.682268	0.383274	0.873194
	C149	C	0.682487	0.622236	0.101655
	C150	C	0.327294	0.625215	0.872440
	C151	C	0.326030	0.382746	0.101897
	C152	C	0.893347	0.683435	0.364130
	C153	C	0.119434	0.678386	0.607160
	C154	C	0.892186	0.323139	0.609758
	C155	C	0.119569	0.323229	0.366365
	C156	C	0.891998	0.381248	0.666263
	C157	C	0.119425	0.619340	0.663383
	C158	C	0.891674	0.622849	0.309396
	C159	C	0.119259	0.381074	0.308497
	C160	C	0.383936	0.683429	0.873567
	C161	C	0.624195	0.678522	0.102721
	C162	C	0.626018	0.324852	0.874211
	C163	C	0.383678	0.325197	0.102565
	C164	C	0.685869	0.888654	0.367558
	C165	C	0.685334	0.114920	0.609485
	C166	C	0.327723	0.888452	0.611338
	C167	C	0.326515	0.114809	0.366518
	C168	C	0.883720	0.388626	0.166612
	C169	C	0.125236	0.615993	0.164686
	C170	C	0.126729	0.388439	0.809791
	C171	C	0.884925	0.615327	0.808089
	C172	C	0.185749	0.879750	0.374107
	C173	C	0.182811	0.119577	0.602949
	C174	C	0.826647	0.124196	0.374638
	C175	C	0.828016	0.879340	0.601877
	C176	C	0.392044	0.182519	0.868154
	C177	C	0.618852	0.181635	0.110599
	C178	C	0.391357	0.824069	0.111468
	C179	C	0.618301	0.823601	0.867154
	C180	C	0.391571	0.882674	0.167967
	C181	C	0.619818	0.122244	0.166389
	C182	C	0.392507	0.125810	0.809770
	C183	C	0.619147	0.882784	0.810376
	C184	C	0.884179	0.181651	0.374342
	C185	C	0.126876	0.178393	0.602517
	C186	C	0.129146	0.822867	0.374313
	C187	C	0.886333	0.822903	0.601889
	C188	C	0.186109	0.390059	0.865297
	C189	C	0.182409	0.616649	0.106721
	C190	C	0.825811	0.389208	0.109319
	C191	C	0.826220	0.615357	0.864676
	C192	C	0.406042	0.095583	0.585192
	C193	C	0.603750	0.908784	0.587112
	C194	C	0.604686	0.095483	0.390173
	C195	C	0.408506	0.908278	0.391078
	C196	C	0.603093	0.404857	0.082108
	C197	C	0.602041	0.601977	0.893258
	C198	C	0.405696	0.600322	0.081328
	C199	C	0.408266	0.405833	0.894068
	C200	C	0.098846	0.599110	0.388856
	C201	C	0.911863	0.600051	0.584069
	C202	C	0.100132	0.400877	0.586627
	C203	C	0.912019	0.402987	0.390112
	C204	C	0.906010	0.595758	0.085336
	C205	C	0.103317	0.409560	0.084006
	C206	C	0.103060	0.596155	0.887324
	C207	C	0.905762	0.408020	0.889980
	C208	C	0.105686	0.901027	0.582733
	C209	C	0.103369	0.099177	0.394550
	C210	C	0.908240	0.098856	0.581675
	C211	C	0.909658	0.906140	0.394146
	C212	C	0.599211	0.101678	0.890657
	C213	C	0.412142	0.101444	0.087444
	C214	C	0.599054	0.902324	0.087505
	C215	C	0.412522	0.906784	0.892521
	Zn216	Zn	0.506081	0.004340	0.738619
	Zn217	Zn	0.506218	0.002299	0.239293
	Zn218	Zn	0.754294	0.503149	-0.013065
	Zn219	Zn	0.255109	0.503442	-0.013917
	Zn220	Zn	0.006406	0.752524	0.487356
	Zn221	Zn	0.006241	0.251213	0.488606
	Zn222	Zn	0.004983	0.500921	0.737186
	Zn223	Zn	0.005233	0.502031	0.236851
	Zn224	Zn	0.504128	0.752505	-0.010819
	Zn225	Zn	0.505388	0.253274	-0.011067
	Zn226	Zn	0.756070	0.001275	0.488850
	Zn227	Zn	0.255098	0.000566	0.487440
	N228	N	0.419027	0.966703	0.668904
	N229	N	0.591032	0.040177	0.665467
	N230	N	0.592995	0.965627	0.309912
	N231	N	0.421968	0.039841	0.311818
	N232	N	0.682816	0.417632	0.950539
	N233	N	0.683489	0.589296	0.023620
	N234	N	0.326627	0.589336	0.949463
	N235	N	0.326081	0.417583	0.024390
	N236	N	0.970644	0.684177	0.398047
	N237	N	0.042392	0.680100	0.572808
	N238	N	0.969567	0.321364	0.575782
	N239	N	0.042659	0.322271	0.401245
	N240	N	0.969138	0.415004	0.666589
	N241	N	0.042377	0.585222	0.663546
	N242	N	0.967958	0.586678	0.309627
	N243	N	0.042023	0.415430	0.308113
	N244	N	0.417850	0.682942	0.951239
	N245	N	0.589165	0.679332	0.025613
	N246	N	0.592466	0.323361	0.952143
	N247	N	0.418873	0.324755	0.025333
	N248	N	0.686183	0.965328	0.401892
	N249	N	0.686431	0.037392	0.576176
	N250	N	0.326244	0.964899	0.575251
	N251	N	0.325573	0.037385	0.400779
	N252	N	0.918401	0.465261	0.166622
	N253	N	0.090851	0.539047	0.165302
	N254	N	0.090555	0.464621	0.809433
	N255	N	0.919589	0.538489	0.808862
	N256	N	0.185978	0.913712	0.451547
	N257	N	0.182852	0.085172	0.525702
	N258	N	0.826686	0.088407	0.451685
	N259	N	0.827530	0.914893	0.524667
	N260	N	0.468940	0.182477	0.903062
	N261	N	0.541748	0.182859	0.076477
	N262	N	0.468413	0.822369	0.076893
	N263	N	0.541516	0.823443	0.902422
	N264	N	0.468876	0.916485	0.168296
	N265	N	0.543211	0.087184	0.166302
	N266	N	0.469643	0.091473	0.808677
	N267	N	0.542842	0.918969	0.811028
	N268	N	0.919441	0.181160	0.451205
	N269	N	0.092508	0.179823	0.525203
	N270	N	0.094488	0.821858	0.451766
	N271	N	0.921511	0.824172	0.524745
	N272	N	0.186415	0.467306	0.898602
	N273	N	0.183141	0.540108	0.071796
	N274	N	0.824974	0.466231	0.074342
	N275	N	0.825026	0.538468	0.899784
	O276	O	0.087100	0.170586	0.048087
	H277	H	0.090935	0.176515	0.052662
	H278	H	0.089808	0.173803	0.058137
	O279	O	0.396307	0.413718	0.572499
	H280	H	0.397249	0.421587	0.566331
	H281	H	0.384636	0.414495	0.584039
	O282	O	0.870397	-0.099120	0.138085
	H283	H	0.885398	-0.082786	0.150094
	H284	H	0.860670	-0.097768	0.136952
	O285	O	0.005786	1.047034	-0.076783
	H286	H	0.022948	1.052415	-0.065015
	H287	H	0.005484	1.057211	-0.077890
	O288	O	0.134078	0.066351	0.979908
	H289	H	0.128157	0.065108	0.974225
	H290	H	0.129819	0.065085	0.988520
	O291	O	0.648603	0.484493	0.448868
	H292	H	0.662138	0.471394	0.449193
	H293	H	0.635898	0.491665	0.443957
	O294	O	1.066169	1.127184	0.981463
	H295	H	1.065403	1.125783	0.987688
	H296	H	1.075883	1.143145	0.986043
	O297	O	-0.160529	0.175794	-0.138446
	H298	H	-0.163519	0.171567	-0.122187
	H299	H	-0.156016	0.183398	-0.126934
	O300	O	0.382145	0.664579	0.405388
	H301	H	0.401372	0.663094	0.386849
	H302	H	0.364058	0.674405	0.396875
	O303	O	-0.164220	0.999423	1.099444
	H304	H	-0.160826	0.986498	1.094804
	H305	H	-0.170741	0.986494	1.106406
	O306	O	0.920584	0.972686	-0.060304
	H307	H	0.920335	0.975638	-0.053608
	H308	H	0.938009	0.993314	-0.062439
	O309	O	1.126249	-0.033544	0.015059
	H310	H	1.128904	-0.039197	0.013103
	H311	H	1.122769	-0.034268	0.021014
	O312	O	0.094808	-0.010323	0.925482
	H313	H	0.095447	-0.011201	0.927270
	H314	H	0.082446	-0.011312	0.914898
	O315	O	0.489897	0.539719	0.469345
	H316	H	0.488601	0.545959	0.483893
	H317	H	0.493306	0.537945	0.462490
	O318	O	0.539120	0.410784	0.594814
	H319	H	0.540775	0.414785	0.594855
	H320	H	0.545373	0.399562	0.594979
	O321	O	0.595869	0.485433	0.379734
	H322	H	0.578640	0.479619	0.378408
	H323	H	0.598610	0.499305	0.385863
	O324	O	0.519592	0.459366	0.647667
	H325	H	0.527393	0.450153	0.659262
	H326	H	0.513115	0.445892	0.641384
	O327	O	-0.092403	0.978142	0.945653
	H328	H	-0.084394	1.000043	0.944565
	H329	H	-0.083523	0.982021	0.939790
	O330	O	0.358964	0.409180	0.608222
	H331	H	0.370332	0.416297	0.601431
	H332	H	0.357342	0.430040	0.604833
	O333	O	-0.487088	0.581638	0.535264
	H334	H	-0.489380	0.593063	0.532211
	H335	H	-0.489357	0.579762	0.539540
	O336	O	0.990682	0.979086	1.083138
	H337	H	0.970709	0.981883	1.077141
	H338	H	0.998661	0.968550	1.089795
	O339	O	0.368553	0.448603	0.380866
	H340	H	0.370444	0.443033	0.382506
	H341	H	0.372180	0.434282	0.392869
	O342	O	1.636348	-0.656025	0.424281
	H343	H	1.625029	-0.661589	0.422364
	H344	H	1.632595	-0.655208	0.417491
	O345	O	0.581915	0.459598	0.561356
	H346	H	0.590109	0.463623	0.559262
	H347	H	0.568108	0.470804	0.554705
	O348	O	0.990782	0.976792	0.943196
	H349	H	1.001774	0.974014	0.946868
	H350	H	0.997842	0.981822	0.942832
	O351	O	0.673774	1.364920	-0.513819
	H352	H	0.683745	1.357961	-0.526431
	H353	H	0.670152	1.363224	-0.514177
	O354	O	-0.110429	-0.160480	0.071430
	H355	H	-0.137094	-0.146906	0.068388
	H356	H	-0.115955	-0.170734	0.057992
	O357	O	-0.084563	0.990777	0.957910
	H358	H	-0.081901	0.997257	0.955839
	H359	H	-0.100061	0.991228	0.945461
	O360	O	0.515427	0.650146	0.476206
	H361	H	0.511798	0.650274	0.472657
	H362	H	0.532030	0.643593	0.465515
	O363	O	0.570908	0.563025	0.455128
	H364	H	0.575664	0.555317	0.451777
	H365	H	0.572551	0.554062	0.461230
	O366	O	-0.056262	0.155977	0.802401
	H367	H	-0.067904	0.157340	0.808789
	H368	H	-0.062988	0.176523	0.784725
	O369	O	0.438252	0.410025	0.368874
	H370	H	0.447797	0.403188	0.357676
	H371	H	0.445244	0.419265	0.373560
	O372	O	0.578653	0.629807	0.502337
	H373	H	0.578869	0.637549	0.517386
	H374	H	0.577482	0.634986	0.514013
	O375	O	0.915957	-0.145328	1.035047
	H376	H	0.923331	-0.151306	1.024161
	H377	H	0.912864	-0.165033	1.026064
	O378	O	0.111145	1.148402	1.061990
	H379	H	0.116134	1.142395	1.057399
	H380	H	0.120520	1.151198	1.075460
	O381	O	0.383302	0.595907	0.570380
	H382	H	0.373410	0.596594	0.559974
	H383	H	0.392043	0.601185	0.571977
	O384	O	-0.077288	1.039618	-0.052661
	H385	H	-0.061948	1.033911	-0.043022
	H386	H	-0.080230	1.044301	-0.062139
	O387	O	1.457235	-0.400571	1.458431
	H388	H	1.451551	-0.389395	1.463045
	H389	H	1.445300	-0.402406	1.457398
	O390	O	0.118070	0.860115	0.041344
	H391	H	0.100679	0.864441	0.025381
	H392	H	0.120374	0.850123	0.045374
	O393	O	1.109156	0.965354	-0.028870
	H394	H	1.101967	0.975492	-0.046606
	H395	H	1.120025	0.969633	-0.028457
	O396	O	0.396790	0.520572	0.363646
	H397	H	0.390838	0.527055	0.349315
	H398	H	0.409239	0.516574	0.368057
	O399	O	0.154330	0.901016	0.980999
	H400	H	0.159075	0.894550	0.971790
	H401	H	0.145984	0.908048	0.974489
	O402	O	0.938680	1.087392	1.051878
	H403	H	0.921237	1.087663	1.049281
	H404	H	0.947805	1.077169	1.054933
	O405	O	0.480390	0.494945	0.408942
	H406	H	0.484624	0.493189	0.414511
	H407	H	0.482523	0.497149	0.403730
