data_Molecule from HDF5

_cell_length_a		16.545915
_cell_length_b		16.469122
_cell_length_c		16.606852
_cell_angle_alpha	90.129510
_cell_angle_beta	90.056310
_cell_angle_gamma	89.883078
_symmetry_space_group_name_H-M	'P 1'
_symmetry_Int_Tables_number		1

loop_
	_symmetry_equiv_pos_as_xyz
	x,y,z

loop_
	_atom_site_label
	_atom_site_type_symbol
	_atom_site_fract_x
	_atom_site_fract_y
	_atom_site_fract_z
	H0	H	0.397772	0.862628	0.708141
	H1	H	0.605479	0.178182	0.704615
	H2	H	0.608675	0.861714	0.263868
	H3	H	0.396074	0.176576	0.265429
	H4	H	0.725407	0.414037	0.832122
	H5	H	0.729212	0.631309	0.141240
	H6	H	0.280588	0.624686	0.830599
	H7	H	0.280913	0.414471	0.144410
	H8	H	0.845829	0.742364	0.381526
	H9	H	0.160008	0.741329	0.591583
	H10	H	0.844928	0.302948	0.587810
	H11	H	0.157886	0.295581	0.378962
	H12	H	0.846314	0.417426	0.706237
	H13	H	0.160694	0.625213	0.707677
	H14	H	0.847117	0.629333	0.262055
	H15	H	0.158544	0.411296	0.263424
	H16	H	0.397003	0.740726	0.829813
	H17	H	0.611093	0.746432	0.141504
	H18	H	0.605840	0.299114	0.831163
	H19	H	0.397762	0.298451	0.144945
	H20	H	0.723232	0.861070	0.381652
	H21	H	0.719667	0.179073	0.587078
	H22	H	0.280330	0.863459	0.594129
	H23	H	0.281190	0.176883	0.382729
	H24	H	0.897028	0.364210	0.210001
	H25	H	0.110873	0.677058	0.211734
	H26	H	0.106313	0.362272	0.767593
	H27	H	0.897458	0.677385	0.766280
	H28	H	0.227667	0.910386	0.332738
	H29	H	0.227719	0.128925	0.639794
	H30	H	0.780941	0.125042	0.329393
	H31	H	0.782387	0.916118	0.642338
	H32	H	0.344294	0.235965	0.886798
	H33	H	0.660625	0.238129	0.090411
	H34	H	0.346675	0.795968	0.094528
	H35	H	0.658913	0.797702	0.882664
	H36	H	0.347710	0.910000	0.212591
	H37	H	0.658675	0.125146	0.209160
	H38	H	0.346885	0.123513	0.766446
	H39	H	0.659343	0.913431	0.766006
	H40	H	0.899273	0.240708	0.328942
	H41	H	0.109285	0.243070	0.641411
	H42	H	0.110360	0.795005	0.331895
	H43	H	0.898468	0.800020	0.643122
	H44	H	0.220408	0.361449	0.886532
	H45	H	0.226169	0.677054	0.095395
	H46	H	0.781087	0.363569	0.093332
	H47	H	0.780871	0.676776	0.882006
	H48	H	0.412736	0.131011	0.572174
	H49	H	0.587715	0.905070	0.583537
	H50	H	0.591388	0.130646	0.399980
	H51	H	0.415562	0.908318	0.400964
	H52	H	0.593441	0.431016	0.100250
	H53	H	0.590694	0.611627	0.875433
	H54	H	0.419148	0.608367	0.095824
	H55	H	0.410797	0.421840	0.873023
	H56	H	0.115142	0.610663	0.398983
	H57	H	0.894828	0.599832	0.576351
	H58	H	0.115195	0.431511	0.575684
	H59	H	0.889381	0.433007	0.393375
	H60	H	0.116701	0.431959	0.578108
	H61	H	0.886506	0.612680	0.585600
	H62	H	0.111205	0.604806	0.403892
	H63	H	0.891034	0.428889	0.399670
	H64	H	0.413257	0.610801	0.099657
	H65	H	0.594477	0.603595	0.876851
	H66	H	0.592247	0.430669	0.098564
	H67	H	0.405707	0.431758	0.875062
	H68	H	0.593904	0.132878	0.395584
	H69	H	0.592567	0.908652	0.568716
	H70	H	0.414980	0.132883	0.578310
	H71	H	0.415567	0.907517	0.398314
	H72	H	0.913493	0.636441	0.083865
	H73	H	0.089470	0.410747	0.070674
	H74	H	0.084985	0.631113	0.896927
	H75	H	0.914103	0.405909	0.894483
	H76	H	0.088926	0.936839	0.596071
	H77	H	0.087990	0.107934	0.375598
	H78	H	0.909053	0.111548	0.599539
	H79	H	0.914869	0.928018	0.373663
	H80	H	0.617070	0.112083	0.898306
	H81	H	0.388189	0.114210	0.075744
	H82	H	0.609714	0.936193	0.070566
	H83	H	0.386589	0.931048	0.886972
	H84	H	0.612339	0.935977	0.076349
	H85	H	0.392683	0.105350	0.072304
	H86	H	0.615663	0.107041	0.896329
	H87	H	0.389631	0.924058	0.902133
	H88	H	0.911861	0.109320	0.597527
	H89	H	0.092377	0.107574	0.374056
	H90	H	0.088669	0.927327	0.598469
	H91	H	0.910450	0.932374	0.373826
	H92	H	0.096425	0.633122	0.904812
	H93	H	0.095790	0.406412	0.076474
	H94	H	0.928397	0.627296	0.072810
	H95	H	0.916421	0.407611	0.896962
	H96	H	0.418952	0.129306	0.573999
	H97	H	0.602565	0.902418	0.579314
	H98	H	0.588815	0.131471	0.394664
	H99	H	0.417850	0.908523	0.399679
	H100	H	0.592735	0.429614	0.100358
	H101	H	0.585899	0.605087	0.879261
	H102	H	0.413173	0.604160	0.096950
	H103	H	0.416607	0.430347	0.877711
	H104	H	0.113531	0.603206	0.395499
	H105	H	0.891793	0.615419	0.568991
	H106	H	0.117202	0.429563	0.576900
	H107	H	0.893049	0.436328	0.399339
	H108	H	0.909749	0.631025	0.064625
	H109	H	0.087435	0.409092	0.079998
	H110	H	0.096284	0.637450	0.891221
	H111	H	0.912677	0.406697	0.897761
	H112	H	0.097436	0.932102	0.599450
	H113	H	0.090124	0.104233	0.375874
	H114	H	0.912299	0.113409	0.598236
	H115	H	0.916307	0.933887	0.375684
	H116	H	0.617730	0.110588	0.892970
	H117	H	0.388814	0.106536	0.081917
	H118	H	0.613369	0.931387	0.072063
	H119	H	0.393986	0.940307	0.899333
	C120	C	0.382299	0.027967	0.607750
	C121	C	0.624364	1.010685	0.607635
	C122	C	0.623692	0.027379	0.364862
	C123	C	0.382507	1.011227	0.366279
	C124	C	0.624390	0.398536	-0.003992
	C125	C	0.624297	0.641520	0.979283
	C126	C	0.381565	0.640944	-0.005170
	C127	C	0.380078	0.397290	0.979320
	C128	C	0.010496	0.640756	0.365962
	C129	C	0.994486	0.641993	0.608832
	C130	C	0.012077	0.399454	0.607769
	C131	C	0.994219	0.398968	0.364730
	C132	C	0.883178	0.528736	0.107543
	C133	C	0.124277	0.512296	0.109070
	C134	C	0.123752	0.528894	0.866740
	C135	C	0.881884	0.511221	0.865171
	C136	C	0.124812	0.898282	0.495468
	C137	C	0.123527	0.140756	0.477545
	C138	C	0.880255	0.142353	0.494451
	C139	C	0.881879	0.899060	0.477951
	C140	C	0.512147	0.140888	0.865540
	C141	C	0.493639	0.141353	0.109144
	C142	C	0.509964	0.899361	0.107246
	C143	C	0.493884	0.898795	0.864786
	C144	C	0.379649	0.909872	0.668038
	C145	C	0.624568	0.130597	0.665370
	C146	C	0.626546	0.908898	0.304496
	C147	C	0.378447	0.129428	0.305619
	C148	C	0.684613	0.395744	0.878538
	C149	C	0.687251	0.647503	0.095190
	C150	C	0.320815	0.643249	0.877508
	C151	C	0.320719	0.396126	0.097343
	C152	C	0.893076	0.702371	0.363123
	C153	C	0.112852	0.701554	0.610345
	C154	C	0.892868	0.341438	0.607683
	C155	C	0.111489	0.337032	0.361673
	C156	C	0.893491	0.398403	0.666532
	C157	C	0.113137	0.644058	0.668296
	C158	C	0.893632	0.645809	0.303832
	C159	C	0.111676	0.394498	0.303985
	C160	C	0.378722	0.701035	0.877062
	C161	C	0.628507	0.705107	0.095109
	C162	C	0.625520	0.338691	0.878210
	C163	C	0.378742	0.338137	0.097476
	C164	C	0.683747	0.908654	0.362849
	C165	C	0.681139	0.131020	0.606683
	C166	C	0.321200	0.910160	0.611202
	C167	C	0.321068	0.129405	0.363734
	C168	C	0.879204	0.411038	0.169178
	C169	C	0.128284	0.629950	0.170772
	C170	C	0.124917	0.409701	0.807598
	C171	C	0.879088	0.629829	0.805857
	C172	C	0.186717	0.893169	0.378929
	C173	C	0.186075	0.145620	0.593644
	C174	C	0.821160	0.143438	0.376213
	C175	C	0.821878	0.897349	0.595279
	C176	C	0.392637	0.198237	0.866320
	C177	C	0.612586	0.199671	0.109976
	C178	C	0.393429	0.836646	0.112063
	C179	C	0.611775	0.837969	0.863677
	C180	C	0.393874	0.893344	0.170764
	C181	C	0.611753	0.143323	0.168933
	C182	C	0.393657	0.142212	0.806698
	C183	C	0.612023	0.895405	0.805618
	C184	C	0.879793	0.200885	0.375951
	C185	C	0.127088	0.202533	0.594308
	C186	C	0.128426	0.835722	0.378793
	C187	C	0.879875	0.839581	0.595638
	C188	C	0.181667	0.409187	0.866486
	C189	C	0.185679	0.630102	0.112892
	C190	C	0.821609	0.410698	0.111305
	C191	C	0.821115	0.629549	0.863365
	C192	C	0.407993	0.109816	0.582014
	C193	C	0.601002	0.927174	0.583923
	C194	C	0.598529	0.110074	0.389555
	C195	C	0.408979	0.929248	0.391945
	C196	C	0.599832	0.423528	0.078308
	C197	C	0.597957	0.614296	0.898349
	C198	C	0.407727	0.615349	0.076195
	C199	C	0.404045	0.421165	0.896768
	C200	C	0.092133	0.613973	0.392079
	C201	C	0.912487	0.616763	0.584080
	C202	C	0.094808	0.423825	0.583705
	C203	C	0.912513	0.425249	0.390280
	C204	C	0.909485	0.610256	0.081159
	C205	C	0.098608	0.430236	0.083198
	C206	C	0.099502	0.612251	0.890819
	C207	C	0.907236	0.428372	0.889423
	C208	C	0.099226	0.924653	0.576765
	C209	C	0.097421	0.114250	0.396277
	C210	C	0.904299	0.118401	0.576898
	C211	C	0.906953	0.924203	0.395750
	C212	C	0.595271	0.116787	0.889007
	C213	C	0.411292	0.115941	0.084067
	C214	C	0.590609	0.926643	0.080647
	C215	C	0.411509	0.924500	0.889224
	Zn216	Zn	0.503407	0.019899	0.736030
	Zn217	Zn	0.502325	0.019021	0.236729
	Zn218	Zn	0.753892	0.520192	-0.012702
	Zn219	Zn	0.252215	0.520287	-0.012158
	Zn220	Zn	0.002949	0.769996	0.487083
	Zn221	Zn	0.002712	0.270900	0.486047
	Zn222	Zn	0.003621	0.520564	0.737193
	Zn223	Zn	0.003239	0.520362	0.236930
	Zn224	Zn	0.501836	0.770444	-0.013349
	Zn225	Zn	0.502898	0.269371	-0.012321
	Zn226	Zn	0.752214	0.019695	0.485896
	Zn227	Zn	0.253399	0.019181	0.486451
	N228	N	0.417091	0.984106	0.665942
	N229	N	0.590082	0.054784	0.666169
	N230	N	0.589937	0.983836	0.305502
	N231	N	0.415900	0.054825	0.306953
	N232	N	0.684072	0.432226	0.952977
	N233	N	0.684501	0.608399	0.022200
	N234	N	0.322071	0.606942	0.951869
	N235	N	0.321075	0.431981	0.022635
	N236	N	0.966893	0.699334	0.400931
	N237	N	0.038157	0.700577	0.574180
	N238	N	0.967663	0.342044	0.571769
	N239	N	0.037363	0.339731	0.398758
	N240	N	0.968618	0.433628	0.666829
	N241	N	0.038552	0.607743	0.667650
	N242	N	0.967787	0.608256	0.305419
	N243	N	0.037745	0.432426	0.305747
	N244	N	0.415589	0.699942	0.951206
	N245	N	0.589775	0.701254	0.022045
	N246	N	0.588847	0.340423	0.952305
	N247	N	0.415053	0.338701	0.023146
	N248	N	0.682346	0.983589	0.399210
	N249	N	0.681459	0.055282	0.571630
	N250	N	0.322753	0.984636	0.574129
	N251	N	0.323387	0.054973	0.400527
	N252	N	0.916504	0.485537	0.167212
	N253	N	0.091044	0.555488	0.168727
	N254	N	0.089799	0.485310	0.807599
	N255	N	0.916085	0.555228	0.806877
	N256	N	0.184580	0.931208	0.452407
	N257	N	0.184016	0.107594	0.519985
	N258	N	0.821005	0.108229	0.451055
	N259	N	0.822931	0.933504	0.520863
	N260	N	0.467492	0.197765	0.901899
	N261	N	0.538020	0.198666	0.073760
	N262	N	0.466390	0.840481	0.073183
	N263	N	0.537031	0.839607	0.899423
	N264	N	0.467300	0.931696	0.167985
	N265	N	0.536556	0.107931	0.168845
	N266	N	0.469043	0.107312	0.805903
	N267	N	0.537557	0.932452	0.806071
	N268	N	0.915592	0.200792	0.450579
	N269	N	0.088771	0.199627	0.521149
	N270	N	0.090754	0.838634	0.452301
	N271	N	0.916350	0.840489	0.521390
	N272	N	0.181135	0.484440	0.902396
	N273	N	0.183087	0.555972	0.074932
	N274	N	0.823485	0.485017	0.074078
	N275	N	0.822618	0.554602	0.899600
	O276	O	1.142714	1.219849	0.072606
	H277	H	1.145558	1.220812	0.068802
	H278	H	1.131893	1.228448	0.061606
	O279	O	0.027248	-0.170793	0.941268
	H280	H	0.018307	-0.161899	0.937396
	H281	H	0.030263	-0.166627	0.920594
	O282	O	0.295546	0.323962	0.692459
	H283	H	0.319034	0.312774	0.668980
	H284	H	0.281318	0.295426	0.718771
	O285	O	0.469775	0.308499	0.705572
	H286	H	0.479806	0.310716	0.697676
	H287	H	0.465885	0.290686	0.720625
	O288	O	1.310163	-0.287283	1.288510
	H289	H	1.309249	-0.294657	1.319588
	H290	H	1.324008	-0.267255	1.272481
	O291	O	0.370709	0.430918	0.579054
	H292	H	0.355779	0.421160	0.575867
	H293	H	0.360577	0.435657	0.568346
	O294	O	0.053756	0.885219	-0.856698
	H295	H	0.046816	0.890239	-0.857073
	H296	H	0.070408	0.893789	-0.860677
	O297	O	0.289609	-0.509235	-0.293683
	H298	H	0.256136	-0.518080	-0.265351
	H299	H	0.299149	-0.554566	-0.303541
	O300	O	-0.114672	0.098545	0.122336
	H301	H	-0.123611	0.092287	0.124318
	H302	H	-0.106944	0.077290	0.119872
	O303	O	-0.017971	-0.095855	0.020738
	H304	H	-0.031534	-0.094560	0.013734
	H305	H	0.000896	-0.092809	0.018302
	O306	O	1.208180	-0.187137	0.912216
	H307	H	1.226423	-0.208292	0.923267
	H308	H	1.190043	-0.185559	0.895390
	O309	O	0.513747	0.507346	0.421877
	H310	H	0.514031	0.500814	0.431023
	H311	H	0.512957	0.502946	0.435057
	O312	O	0.215919	-0.105316	0.033661
	H313	H	0.223762	-0.118267	0.016706
	H314	H	0.229010	-0.089431	0.046856
	O315	O	0.858586	0.215773	1.022237
	H316	H	0.847255	0.218304	1.013631
	H317	H	0.839778	0.209102	1.015747
	O318	O	0.300030	0.736761	0.459382
	H319	H	0.289738	0.734424	0.456512
	H320	H	0.285527	0.750696	0.473629
	O321	O	-0.205426	1.144027	0.869469
	H322	H	-0.206970	1.119344	0.845018
	H323	H	-0.220875	1.154692	0.851912
	O324	O	0.997712	0.151020	0.924272
	H325	H	0.992134	0.161094	0.938219
	H326	H	0.977606	0.141823	0.936730
	O327	O	1.385412	-0.279972	0.606645
	H328	H	1.386196	-0.298313	0.604194
	H329	H	1.393548	-0.284646	0.599691
	O330	O	0.191786	0.202681	0.797375
	H331	H	0.176087	0.199716	0.818508
	H332	H	0.179898	0.171207	0.806313
	O333	O	0.516377	0.609520	0.338106
	H334	H	0.504083	0.621375	0.330976
	H335	H	0.493896	0.605891	0.343346
	O336	O	0.974936	-0.196752	1.201853
	H337	H	0.977410	-0.195439	1.212251
	H338	H	0.979094	-0.215770	1.195623
	O339	O	0.532267	0.301830	0.279465
	H340	H	0.519372	0.278864	0.267720
	H341	H	0.515857	0.303943	0.283969
	O342	O	-0.197709	0.993464	0.194878
	H343	H	-0.214992	0.985153	0.220155
	H344	H	-0.195066	0.955216	0.196855
	O345	O	0.366365	0.581235	0.515481
	H346	H	0.362632	0.578636	0.506814
	H347	H	0.361664	0.586742	0.521381
	O348	O	0.051631	1.082670	0.756821
	H349	H	0.035888	1.071989	0.753538
	H350	H	0.058004	1.091679	0.754590
	O351	O	0.172839	0.125281	1.018128
	H352	H	0.163075	0.124844	1.041386
	H353	H	0.183741	0.132077	1.018719
	O354	O	1.449032	-0.661644	1.533573
	H355	H	1.459361	-0.660873	1.532489
	H356	H	1.449911	-0.666882	1.530112
	O357	O	0.610987	0.658157	0.512115
	H358	H	0.610685	0.657737	0.513409
	H359	H	0.615142	0.659391	0.517128
	O360	O	0.510350	0.680482	0.427037
	H361	H	0.506956	0.689078	0.434967
	H362	H	0.504021	0.675068	0.414851
	O363	O	0.384783	0.465060	0.476686
	H364	H	0.384236	0.472468	0.485536
	H365	H	0.384400	0.454653	0.472727
	O366	O	0.798971	-0.136723	1.014406
	H367	H	0.794796	-0.155780	1.002777
	H368	H	0.800586	-0.114137	0.994631
	O369	O	-0.001863	0.228735	0.841644
	H370	H	0.016444	0.236589	0.851505
	H371	H	0.009104	0.227700	0.832080
	O372	O	0.336156	1.423238	0.401906
	H373	H	0.319851	1.406790	0.388481
	H374	H	0.337128	1.434593	0.407160
	O375	O	0.799162	0.049092	-0.227514
	H376	H	0.802945	0.061517	-0.234248
	H377	H	0.786174	0.050508	-0.239379
	O378	O	1.219717	1.049883	1.200604
	H379	H	1.236356	1.045478	1.220611
	H380	H	1.210038	1.068344	1.191345
	O381	O	0.088567	1.068816	-0.040670
	H382	H	0.078602	1.073636	-0.037549
	H383	H	0.083161	1.062668	-0.023243
	O384	O	0.673077	0.483423	0.645137
	H385	H	0.678446	0.476720	0.639664
	H386	H	0.693492	0.490547	0.642906
	O387	O	0.209723	1.005411	0.778597
	H388	H	0.216614	0.990417	0.777990
	H389	H	0.208546	1.000621	0.775341
	O390	O	0.052302	0.891520	0.856336
	H391	H	0.068348	0.888398	0.850493
	H392	H	0.056563	0.872912	0.852998
	O393	O	1.204100	-0.115783	-0.119873
	H394	H	1.222006	-0.112168	-0.122593
	H395	H	1.193400	-0.104755	-0.093642
	O396	O	1.199223	0.213507	0.182542
	H397	H	1.210352	0.196204	0.166948
	H398	H	1.149392	0.223711	0.184722
	O399	O	-0.043332	0.222092	1.188612
	H400	H	-0.049183	0.194944	1.186190
	H401	H	-0.057833	0.249866	1.215832
	O402	O	0.949623	-0.024767	0.782876
	H403	H	0.944787	-0.039654	0.778181
	H404	H	0.946242	-0.014156	0.790758
	O405	O	0.726311	0.303302	0.452662
	H406	H	0.750613	0.275463	0.442243
	H407	H	0.724496	0.309024	0.409859
	O408	O	0.899578	0.963690	0.940703
	H409	H	0.900691	0.964865	0.943396
	H410	H	0.895480	0.971545	0.933368
	O411	O	1.552980	1.422832	0.532810
	H412	H	1.552399	1.422554	0.533543
	H413	H	1.552531	1.429219	0.529636
	O414	O	-0.126331	-0.159278	-0.080519
	H415	H	-0.133620	-0.169738	-0.093060
	H416	H	-0.112249	-0.150101	-0.084941
	O417	O	-0.580644	-0.457891	0.565289
	H418	H	-0.578524	-0.450892	0.558440
	H419	H	-0.594182	-0.471119	0.580377
	O420	O	1.111896	-0.130231	1.032731
	H421	H	1.089158	-0.120044	1.026267
	H422	H	1.110690	-0.120373	1.034973
	O423	O	0.812859	1.031727	0.037273
	H424	H	0.808011	1.040245	0.029233
	H425	H	0.813008	1.034856	0.048651
	O426	O	0.484776	0.452446	0.508786
	H427	H	0.485062	0.460921	0.516989
	H428	H	0.495496	0.445762	0.502969
	O429	O	0.810015	0.828305	0.179501
	H430	H	0.845596	0.829667	0.179736
	H431	H	0.796039	0.814101	0.144448
	O432	O	1.502534	-0.485014	1.263412
	H433	H	1.495999	-0.492647	1.271744
	H434	H	1.506311	-0.490812	1.267863
	O435	O	-0.016544	1.033861	1.205890
	H436	H	-0.030884	1.019203	1.194487
	H437	H	-0.020132	1.018697	1.211824
	O438	O	0.556840	0.566450	0.677784
	H439	H	0.548597	0.560864	0.678993
	H440	H	0.541577	0.557382	0.682234
	O441	O	0.285895	0.543996	0.272172
	H442	H	0.280937	0.558202	0.261003
	H443	H	0.273685	0.561329	0.259818
	O444	O	0.479906	0.728735	0.273851
	H445	H	0.476173	0.735859	0.268769
	H446	H	0.489532	0.740986	0.274732
	O447	O	0.586538	0.653254	0.696571
	H448	H	0.580894	0.669285	0.708916
	H449	H	0.593293	0.643363	0.694010
	O450	O	0.708370	0.646940	-0.561391
	H451	H	0.723214	0.656872	-0.564184
	H452	H	0.699529	0.650234	-0.561482
	O453	O	-0.285053	0.588830	0.569889
	H454	H	-0.288175	0.580502	0.548893
	H455	H	-0.292849	0.594890	0.555401
	O456	O	-0.114534	1.248171	1.001553
	H457	H	-0.119253	1.242490	0.991207
	H458	H	-0.144403	1.265721	1.008606
	O459	O	0.605602	0.680090	0.581004
	H460	H	0.621313	0.693993	0.598783
	H461	H	0.598942	0.671313	0.572043
	O462	O	0.691546	0.324683	0.285052
	H463	H	0.690663	0.362273	0.276011
	H464	H	0.656695	0.310429	0.277488
	O465	O	0.720260	0.493647	0.270486
	H466	H	0.705589	0.506140	0.282828
	H467	H	0.739833	0.498574	0.239671
	O468	O	-0.259035	0.693214	-0.278245
	H469	H	-0.272475	0.669796	-0.293538
	H470	H	-0.256187	0.682322	-0.279204
	O471	O	0.409767	0.350053	0.397314
	H472	H	0.392544	0.364479	0.388877
	H473	H	0.404811	0.341097	0.389569
	O474	O	0.872385	1.226393	-0.223832
	H475	H	0.866419	1.249570	-0.239090
	H476	H	0.883481	1.232466	-0.216863
	O477	O	0.665290	0.363931	0.665191
	H478	H	0.655394	0.383013	0.648340
	H479	H	0.655643	0.373691	0.657569
