data_Molecule from HDF5

_cell_length_a		16.466325
_cell_length_b		16.446508
_cell_length_c		16.384531
_cell_angle_alpha	89.938955
_cell_angle_beta	89.954880
_cell_angle_gamma	90.074057
_symmetry_space_group_name_H-M	'P 1'
_symmetry_Int_Tables_number		1

loop_
	_symmetry_equiv_pos_as_xyz
	x,y,z

loop_
	_atom_site_label
	_atom_site_type_symbol
	_atom_site_fract_x
	_atom_site_fract_y
	_atom_site_fract_z
	H0	H	0.394865	0.848223	0.723675
	H1	H	0.616982	0.159340	0.724088
	H2	H	0.606282	0.844975	0.279555
	H3	H	0.399635	0.161738	0.275432
	H4	H	0.731035	0.393831	0.839253
	H5	H	0.724771	0.607198	0.155168
	H6	H	0.280255	0.613748	0.840039
	H7	H	0.282483	0.395365	0.154243
	H8	H	0.849745	0.723483	0.395460
	H9	H	0.163661	0.729113	0.608704
	H10	H	0.849755	0.278947	0.608578
	H11	H	0.161930	0.277999	0.388172
	H12	H	0.850277	0.395162	0.723830
	H13	H	0.162589	0.614122	0.724805
	H14	H	0.849365	0.606914	0.279454
	H15	H	0.163382	0.395684	0.273442
	H16	H	0.395713	0.729317	0.839836
	H17	H	0.607051	0.722211	0.155380
	H18	H	0.616424	0.277426	0.840070
	H19	H	0.399147	0.280749	0.154608
	H20	H	0.727976	0.846859	0.391374
	H21	H	0.731999	0.160375	0.607901
	H22	H	0.279067	0.848268	0.609093
	H23	H	0.280513	0.160275	0.388566
	H24	H	0.900921	0.345922	0.219533
	H25	H	0.110024	0.663142	0.216478
	H26	H	0.114799	0.347717	0.772116
	H27	H	0.898883	0.661164	0.774437
	H28	H	0.225813	0.899494	0.338801
	H29	H	0.231544	0.112767	0.655783
	H30	H	0.786374	0.108832	0.339327
	H31	H	0.781618	0.895284	0.655717
	H32	H	0.349755	0.228995	0.886489
	H33	H	0.663953	0.224569	0.102399
	H34	H	0.346792	0.781826	0.103476
	H35	H	0.663165	0.782246	0.891249
	H36	H	0.346236	0.899952	0.217716
	H37	H	0.664611	0.106815	0.217096
	H38	H	0.350142	0.114445	0.770625
	H39	H	0.661175	0.894453	0.771553
	H40	H	0.899777	0.226819	0.341029
	H41	H	0.116531	0.230113	0.655760
	H42	H	0.111544	0.782582	0.339984
	H43	H	0.900533	0.782045	0.657504
	H44	H	0.233249	0.347890	0.885139
	H45	H	0.228959	0.661086	0.103536
	H46	H	0.783516	0.346168	0.104378
	H47	H	0.783612	0.662002	0.890304
	H48	H	0.419024	0.115128	0.580554
	H49	H	0.591235	0.892343	0.585337
	H50	H	0.595214	0.118435	0.406869
	H51	H	0.411770	0.887877	0.405490
	H52	H	0.587254	0.415445	0.106455
	H53	H	0.594952	0.586001	0.883849
	H54	H	0.419692	0.589267	0.108296
	H55	H	0.427774	0.414731	0.886673
	H56	H	0.118744	0.588708	0.410925
	H57	H	0.897964	0.586517	0.581866
	H58	H	0.118375	0.415439	0.583813
	H59	H	0.896207	0.415137	0.414948
	H60	H	0.114798	0.420498	0.580374
	H61	H	0.893065	0.590101	0.592828
	H62	H	0.123636	0.593338	0.401788
	H63	H	0.894337	0.420045	0.406828
	H64	H	0.418723	0.595391	0.109604
	H65	H	0.588351	0.595913	0.883310
	H66	H	0.596612	0.407737	0.112884
	H67	H	0.414625	0.413651	0.881213
	H68	H	0.596655	0.117811	0.409675
	H69	H	0.592517	0.893125	0.581735
	H70	H	0.421855	0.114168	0.583382
	H71	H	0.419769	0.890947	0.406951
	H72	H	0.919331	0.615416	0.084033
	H73	H	0.096186	0.390718	0.082950
	H74	H	0.091715	0.613406	0.913616
	H75	H	0.921952	0.390366	0.903565
	H76	H	0.094979	0.912743	0.613152
	H77	H	0.095395	0.086159	0.388279
	H78	H	0.922138	0.092920	0.610987
	H79	H	0.918218	0.916273	0.386338
	H80	H	0.617825	0.091782	0.910503
	H81	H	0.393256	0.090461	0.085480
	H82	H	0.615937	0.917133	0.086446
	H83	H	0.392376	0.913852	0.910157
	H84	H	0.620578	0.912580	0.093644
	H85	H	0.391341	0.092786	0.089095
	H86	H	0.614993	0.089532	0.915032
	H87	H	0.395354	0.917786	0.913926
	H88	H	0.915705	0.092288	0.613318
	H89	H	0.086491	0.091614	0.389337
	H90	H	0.096461	0.919663	0.611396
	H91	H	0.919052	0.911266	0.384715
	H92	H	0.093725	0.614770	0.914180
	H93	H	0.095565	0.390189	0.087751
	H94	H	0.908084	0.619397	0.085688
	H95	H	0.923750	0.396866	0.918060
	H96	H	0.422240	0.113012	0.579884
	H97	H	0.595095	0.892481	0.584178
	H98	H	0.597852	0.118702	0.406592
	H99	H	0.413521	0.892032	0.413362
	H100	H	0.599592	0.420578	0.109250
	H101	H	0.599484	0.595530	0.878898
	H102	H	0.414184	0.591000	0.110710
	H103	H	0.418757	0.425043	0.887362
	H104	H	0.122990	0.599341	0.411328
	H105	H	0.894054	0.598380	0.583521
	H106	H	0.117173	0.421248	0.587133
	H107	H	0.891422	0.410706	0.407617
	H108	H	0.915523	0.619428	0.094725
	H109	H	0.091560	0.391992	0.084870
	H110	H	0.092689	0.615008	0.911975
	H111	H	0.910054	0.389940	0.913681
	H112	H	0.089750	0.917107	0.610230
	H113	H	0.095018	0.095520	0.384415
	H114	H	0.918848	0.087352	0.610453
	H115	H	0.914352	0.913914	0.383618
	H116	H	0.615768	0.086363	0.910710
	H117	H	0.392696	0.095075	0.084710
	H118	H	0.619705	0.908265	0.085335
	H119	H	0.393078	0.919892	0.908305
	C120	C	0.385437	0.011398	0.617238
	C121	C	0.627661	0.995815	0.618937
	C122	C	0.627270	0.013105	0.376183
	C123	C	0.383060	0.994920	0.375871
	C124	C	0.628370	0.381073	0.005475
	C125	C	0.625900	0.624234	0.987418
	C126	C	0.383797	0.625445	0.005377
	C127	C	0.385644	0.382993	0.988755
	C128	C	0.016865	0.625193	0.377218
	C129	C	0.998516	0.625761	0.620574
	C130	C	0.014204	0.384012	0.619304
	C131	C	0.997738	0.382045	0.376393
	C132	C	0.883249	0.512876	0.119783
	C133	C	0.127445	0.495192	0.118283
	C134	C	0.127663	0.511912	0.876868
	C135	C	0.884697	0.495728	0.877064
	C136	C	0.127175	0.883036	0.507029
	C137	C	0.127568	0.126113	0.490505
	C138	C	0.885517	0.124392	0.507137
	C139	C	0.884423	0.881476	0.489830
	C140	C	0.513889	0.124710	0.876021
	C141	C	0.496989	0.125229	0.119006
	C142	C	0.513667	0.881023	0.120115
	C143	C	0.496969	0.882975	0.876278
	C144	C	0.379056	0.894782	0.681791
	C145	C	0.633706	0.112661	0.682846
	C146	C	0.627038	0.893005	0.317843
	C147	C	0.380907	0.114087	0.315360
	C148	C	0.690544	0.376784	0.886860
	C149	C	0.684923	0.625965	0.107508
	C150	C	0.321184	0.630251	0.887106
	C151	C	0.323359	0.378213	0.106940
	C152	C	0.897335	0.684278	0.376032
	C153	C	0.116231	0.688283	0.625636
	C154	C	0.896877	0.320478	0.625142
	C155	C	0.115236	0.319348	0.371496
	C156	C	0.896989	0.378364	0.682780
	C157	C	0.115679	0.630945	0.683816
	C158	C	0.897023	0.626295	0.318464
	C159	C	0.115817	0.378009	0.314189
	C160	C	0.378867	0.688004	0.887082
	C161	C	0.626651	0.683176	0.107521
	C162	C	0.633200	0.318673	0.887207
	C163	C	0.381400	0.320991	0.107008
	C164	C	0.687180	0.894028	0.373655
	C165	C	0.691200	0.113032	0.624795
	C166	C	0.321110	0.894673	0.624463
	C167	C	0.321894	0.113427	0.371958
	C168	C	0.882468	0.393337	0.179337
	C169	C	0.129092	0.615036	0.177572
	C170	C	0.132288	0.394612	0.813079
	C171	C	0.881350	0.614177	0.815333
	C172	C	0.186634	0.880917	0.387049
	C173	C	0.190557	0.130659	0.608546
	C174	C	0.825775	0.127159	0.387367
	C175	C	0.822710	0.877836	0.608519
	C176	C	0.396917	0.188275	0.869848
	C177	C	0.616302	0.184741	0.120872
	C178	C	0.394416	0.821841	0.121687
	C179	C	0.615209	0.821471	0.872619
	C180	C	0.393964	0.880608	0.178667
	C181	C	0.616648	0.126278	0.178190
	C182	C	0.396927	0.130561	0.812158
	C183	C	0.614396	0.877724	0.813185
	C184	C	0.882437	0.185854	0.388312
	C185	C	0.133421	0.189155	0.608407
	C186	C	0.130255	0.822074	0.387711
	C187	C	0.881983	0.821394	0.609395
	C188	C	0.191423	0.394746	0.869324
	C189	C	0.188530	0.613893	0.121439
	C190	C	0.823799	0.393609	0.122051
	C191	C	0.823674	0.614383	0.873008
	C192	C	0.413310	0.092809	0.589174
	C193	C	0.600594	0.913975	0.591637
	C194	C	0.603407	0.096644	0.400817
	C195	C	0.407896	0.911902	0.401277
	C196	C	0.601931	0.407115	0.087976
	C197	C	0.601311	0.599487	0.903931
	C198	C	0.410094	0.599115	0.088042
	C199	C	0.412665	0.410280	0.906532
	C200	C	0.100228	0.600784	0.401208
	C201	C	0.916402	0.599241	0.593773
	C202	C	0.095672	0.411235	0.591834
	C203	C	0.915484	0.407981	0.402571
	C204	C	0.907311	0.596442	0.095296
	C205	C	0.101820	0.412660	0.092545
	C206	C	0.100558	0.593029	0.905050
	C207	C	0.911061	0.413725	0.903864
	C208	C	0.101338	0.908982	0.589759
	C209	C	0.100262	0.099068	0.408809
	C210	C	0.911387	0.098435	0.589853
	C211	C	0.910000	0.906665	0.406611
	C212	C	0.595167	0.097011	0.903903
	C213	C	0.414218	0.100138	0.093684
	C214	C	0.597046	0.905727	0.095571
	C215	C	0.415025	0.909468	0.902982
	Zn216	Zn	0.505347	0.004404	0.746940
	Zn217	Zn	0.504786	0.003779	0.247761
	Zn218	Zn	0.754909	0.503968	-0.002967
	Zn219	Zn	0.256705	0.503119	-0.002977
	Zn220	Zn	0.007140	0.753829	0.498908
	Zn221	Zn	0.006017	0.253895	0.499445
	Zn222	Zn	0.005944	0.504398	0.748936
	Zn223	Zn	0.006434	0.504267	0.247447
	Zn224	Zn	0.504528	0.753670	-0.003277
	Zn225	Zn	0.506084	0.253922	-0.003519
	Zn226	Zn	0.756405	0.003800	0.498115
	Zn227	Zn	0.255499	0.004036	0.498636
	N228	N	0.418684	0.968357	0.677228
	N229	N	0.595067	0.038609	0.679487
	N230	N	0.590657	0.968082	0.319205
	N231	N	0.418258	0.039474	0.317691
	N232	N	0.687895	0.414800	0.961567
	N233	N	0.684727	0.590346	0.031735
	N234	N	0.324363	0.591763	0.961714
	N235	N	0.325895	0.415874	0.032111
	N236	N	0.972737	0.683711	0.411677
	N237	N	0.042166	0.685195	0.587060
	N238	N	0.971009	0.323548	0.586512
	N239	N	0.040857	0.321657	0.409408
	N240	N	0.970877	0.416984	0.679293
	N241	N	0.041516	0.592679	0.680666
	N242	N	0.972355	0.590387	0.318904
	N243	N	0.041645	0.416167	0.316974
	N244	N	0.417082	0.684963	0.961473
	N245	N	0.590989	0.682566	0.031762
	N246	N	0.595132	0.321346	0.961790
	N247	N	0.419476	0.323799	0.032349
	N248	N	0.687608	0.969790	0.408898
	N249	N	0.687544	0.039089	0.585963
	N250	N	0.325249	0.968195	0.584941
	N251	N	0.323022	0.038284	0.408744
	N252	N	0.918511	0.468741	0.178364
	N253	N	0.092156	0.540095	0.176023
	N254	N	0.093403	0.468396	0.817742
	N255	N	0.918618	0.539499	0.817687
	N256	N	0.185003	0.917926	0.462404
	N257	N	0.187093	0.092116	0.534253
	N258	N	0.827790	0.089370	0.462234
	N259	N	0.823982	0.914316	0.533089
	N260	N	0.470687	0.184694	0.908981
	N261	N	0.540831	0.184458	0.085062
	N262	N	0.469907	0.822092	0.086016
	N263	N	0.541087	0.824586	0.910983
	N264	N	0.469314	0.916610	0.177945
	N265	N	0.541252	0.090204	0.177369
	N266	N	0.470896	0.092043	0.815733
	N267	N	0.539795	0.915158	0.815231
	N268	N	0.918678	0.184482	0.463922
	N269	N	0.095191	0.186535	0.533958
	N270	N	0.094287	0.823123	0.463393
	N271	N	0.919718	0.823568	0.534541
	N272	N	0.188597	0.468619	0.908364
	N273	N	0.187951	0.538365	0.085449
	N274	N	0.824045	0.468929	0.085951
	N275	N	0.825467	0.539563	0.910326
	O276	O	0.686990	0.495113	0.706142
	H277	H	0.701214	0.490136	0.723577
	H278	H	0.683187	0.491835	0.702586
	O279	O	0.807667	0.011608	0.787907
	H280	H	0.790726	0.004004	0.786137
	H281	H	0.796892	0.026512	0.788865
	O282	O	0.488985	0.291276	0.712934
	H283	H	0.474036	0.299071	0.702412
	H284	H	0.489190	0.262847	0.740760
	O285	O	0.572695	0.326430	0.484082
	H286	H	0.592562	0.326067	0.496352
	H287	H	0.555783	0.324949	0.497712
	O288	O	1.177828	0.832349	-0.160625
	H289	H	1.143656	0.838055	-0.169441
	H290	H	1.172179	0.831842	-0.142543
	O291	O	0.271818	0.253976	0.219812
	H292	H	0.269600	0.228424	0.225402
	H293	H	0.267400	0.256812	0.213045
	O294	O	0.124531	0.087880	0.978878
	H295	H	0.147479	0.113227	0.996486
	H296	H	0.127886	0.071083	0.951063
	O297	O	0.715182	0.716507	0.514952
	H298	H	0.731020	0.731522	0.543517
	H299	H	0.711476	0.716904	0.534947
	O300	O	0.284755	0.543435	0.412599
	H301	H	0.293138	0.527616	0.409475
	H302	H	0.282684	0.545740	0.406571
	O303	O	0.682603	0.677146	0.672473
	H304	H	0.638683	0.682663	0.686986
	H305	H	0.682378	0.641487	0.670836
	O306	O	0.684670	0.393688	0.574167
	H307	H	0.693389	0.386993	0.578648
	H308	H	0.697459	0.412640	0.574677
	O309	O	0.597832	0.348000	0.536943
	H310	H	0.589524	0.342401	0.545262
	H311	H	0.617111	0.341211	0.536308
	O312	O	-0.019808	0.815513	1.184169
	H313	H	-0.052228	0.803307	1.187793
	H314	H	-0.035134	0.800447	1.188847
	O315	O	0.707917	0.454624	0.496393
	H316	H	0.707138	0.478450	0.496120
	H317	H	0.710448	0.452937	0.469786
	O318	O	0.432973	0.382759	0.340749
	H319	H	0.439918	0.384472	0.353198
	H320	H	0.424615	0.390926	0.349857
	O321	O	-0.049743	-0.122511	-0.055033
	H322	H	-0.046254	-0.123535	-0.053177
	H323	H	-0.044459	-0.117443	-0.068148
	O324	O	0.714448	0.487722	0.295877
	H325	H	0.726117	0.463067	0.295256
	H326	H	0.718884	0.458750	0.287551
	O327	O	0.527284	0.715631	0.712152
	H328	H	0.524316	0.754722	0.733924
	H329	H	0.504744	0.719756	0.677238
	O330	O	0.024367	1.212857	0.205356
	H331	H	0.033084	1.204094	0.217638
	H332	H	0.044333	1.225850	0.218144
	O333	O	0.445692	0.725398	0.566689
	H334	H	0.417442	0.713241	0.549823
	H335	H	0.446377	0.732498	0.539650
	O336	O	-0.023636	0.017127	-0.121074
	H337	H	-0.040080	0.028439	-0.124195
	H338	H	-0.011574	0.029319	-0.117987
	O339	O	0.105951	1.049225	0.899766
	H340	H	0.102948	1.048409	0.903778
	H341	H	0.107419	1.057762	0.887924
	O342	O	-0.038234	0.869517	0.976282
	H343	H	-0.046178	0.866825	0.982831
	H344	H	-0.034718	0.880170	0.984527
	O345	O	0.806294	1.198607	0.023416
	H346	H	0.815477	1.190063	0.036457
	H347	H	0.809676	1.204747	0.031189
	O348	O	0.552625	0.465680	0.566096
	H349	H	0.530712	0.458578	0.570137
	H350	H	0.562134	0.460383	0.567882
	O351	O	0.086566	0.964259	1.099919
	H352	H	0.100408	0.970591	1.095898
	H353	H	0.073919	0.957289	1.089993
	O354	O	0.203280	1.063203	-0.107464
	H355	H	0.202251	1.065067	-0.117766
	H356	H	0.212051	1.051336	-0.108690
	O357	O	-0.141620	-0.020252	1.208276
	H358	H	-0.162520	-0.020503	1.217076
	H359	H	-0.139722	-0.025475	1.206861
	O360	O	0.317881	0.559121	0.356496
	H361	H	0.312331	0.559941	0.342484
	H362	H	0.319621	0.571901	0.365620
	O363	O	-0.048033	-0.206014	0.867707
	H364	H	-0.059662	-0.221170	0.859896
	H365	H	-0.063667	-0.186930	0.854862
	O366	O	0.692745	0.686695	0.315643
	H367	H	0.673980	0.667001	0.329409
	H368	H	0.685227	0.668636	0.337027
	O369	O	0.544032	0.601787	0.560833
	H370	H	0.557512	0.615772	0.553524
	H371	H	0.560700	0.594313	0.555413
	O372	O	1.183598	-0.051679	0.997128
	H373	H	1.170759	-0.046792	0.981031
	H374	H	1.183316	-0.055337	0.986573
	O375	O	0.346381	0.316232	0.497460
	H376	H	0.320673	0.298903	0.509189
	H377	H	0.333614	0.350777	0.477474
	O378	O	0.299039	0.438396	0.699387
	H379	H	0.292114	0.432556	0.735689
	H380	H	0.325920	0.454328	0.701624
	O381	O	1.135763	-0.202702	0.997195
	H382	H	1.136421	-0.201110	1.010514
	H383	H	1.135028	-0.207476	0.996721
	O384	O	0.589071	0.409423	0.316304
	H385	H	0.591412	0.396416	0.299862
	H386	H	0.575610	0.423761	0.328379
	O387	O	0.106460	0.103093	1.053685
	H388	H	0.117700	0.105239	1.069296
	H389	H	0.115359	0.084672	1.043611
	O390	O	-0.128070	-0.051609	-0.125114
	H391	H	-0.129508	-0.063937	-0.117519
	H392	H	-0.128082	-0.050528	-0.115398
	O393	O	1.095138	0.911945	1.161801
	H394	H	1.088567	0.885760	1.156002
	H395	H	1.075112	0.923944	1.169461
	O396	O	0.992385	0.052256	-0.047805
	H397	H	1.003439	0.058934	-0.036649
	H398	H	0.989072	0.035002	-0.036756
	O399	O	0.837462	0.177134	0.818588
	H400	H	0.849599	0.158085	0.812268
	H401	H	0.828077	0.185505	0.864957
	O402	O	0.792450	0.835507	1.002408
	H403	H	0.797734	0.826866	0.993047
	H404	H	0.785979	0.844205	1.012784
	O405	O	0.798806	1.047832	0.059079
	H406	H	0.797729	1.047710	0.063553
	H407	H	0.806094	1.049095	0.058610
	O408	O	0.815140	-0.200647	0.201012
	H409	H	0.809964	-0.184541	0.169447
	H410	H	0.784768	-0.233541	0.231078
	O411	O	0.753112	1.168515	0.293343
	H412	H	0.748397	1.143726	0.289291
	H413	H	0.741650	1.164349	0.316945
	O414	O	0.293467	0.592459	0.476113
	H415	H	0.281634	0.611256	0.469966
	H416	H	0.280315	0.570163	0.486425
	O417	O	0.300226	0.620999	0.385604
	H418	H	0.302519	0.628923	0.389142
	H419	H	0.279226	0.632859	0.374734
	O420	O	-0.009397	0.088202	-0.018594
	H421	H	-0.004564	0.098134	-0.029702
	H422	H	0.003948	0.095692	-0.009041
	O423	O	0.553680	0.499192	0.464619
	H424	H	0.552664	0.485848	0.470911
	H425	H	0.554531	0.497141	0.463181
	O426	O	0.570626	0.303580	0.303921
	H427	H	0.563947	0.279353	0.297233
	H428	H	0.541443	0.291415	0.319144
	O429	O	0.317508	0.313487	0.628292
	H430	H	0.313206	0.303005	0.605274
	H431	H	0.304355	0.341564	0.637499
	O432	O	0.426919	0.539887	0.567879
	H433	H	0.423904	0.531206	0.551446
	H434	H	0.423529	0.529637	0.579375
	O435	O	0.454203	0.700306	0.394117
	H436	H	0.449385	0.707728	0.418593
	H437	H	0.474241	0.707047	0.390341
	O438	O	0.057663	0.195538	-0.075830
	H439	H	0.046994	0.192887	-0.091597
	H440	H	0.055173	0.198695	-0.068829
	O441	O	1.210753	0.140260	0.085418
	H442	H	1.193875	0.139051	0.103788
	H443	H	1.222921	0.155246	0.090857
	O444	O	0.055546	1.191629	0.939499
	H445	H	0.043698	1.195623	0.928318
	H446	H	0.042186	1.183127	0.931485
	O447	O	0.492183	0.690818	0.295583
	H448	H	0.494364	0.692418	0.299123
	H449	H	0.489076	0.690610	0.290919
	O450	O	0.401223	0.531217	0.717837
	H451	H	0.403683	0.539604	0.730584
	H452	H	0.424174	0.539448	0.709431
	O453	O	0.464714	0.443454	0.345244
	H454	H	0.475114	0.434501	0.339982
	H455	H	0.472844	0.437103	0.341110
