data_Molecule from HDF5

_cell_length_a		16.327693
_cell_length_b		16.140603
_cell_length_c		16.286250
_cell_angle_alpha	90.453509
_cell_angle_beta	89.955558
_cell_angle_gamma	90.149120
_symmetry_space_group_name_H-M	'P 1'
_symmetry_Int_Tables_number		1

loop_
	_symmetry_equiv_pos_as_xyz
	x,y,z

loop_
	_atom_site_label
	_atom_site_type_symbol
	_atom_site_fract_x
	_atom_site_fract_y
	_atom_site_fract_z
	H0	H	0.401460	0.831517	0.710119
	H1	H	0.596799	0.161519	0.714136
	H2	H	0.596791	0.832946	0.284366
	H3	H	0.402388	0.162361	0.287878
	H4	H	0.714674	0.395197	0.836841
	H5	H	0.715467	0.599221	0.162385
	H6	H	0.284032	0.596069	0.836492
	H7	H	0.282669	0.396679	0.162140
	H8	H	0.834620	0.708459	0.404379
	H9	H	0.162798	0.713592	0.598014
	H10	H	0.834845	0.284587	0.595742
	H11	H	0.162671	0.285130	0.401627
	H12	H	0.835937	0.398992	0.713855
	H13	H	0.161855	0.599092	0.715678
	H14	H	0.835624	0.594418	0.285854
	H15	H	0.160833	0.396091	0.282177
	H16	H	0.403760	0.706932	0.834226
	H17	H	0.596970	0.712897	0.162873
	H18	H	0.595250	0.282428	0.835880
	H19	H	0.401267	0.284959	0.163212
	H20	H	0.713743	0.832965	0.398261
	H21	H	0.712561	0.162218	0.599595
	H22	H	0.283957	0.832489	0.596927
	H23	H	0.287363	0.162738	0.402699
	H24	H	0.900748	0.332435	0.211225
	H25	H	0.096900	0.661878	0.214129
	H26	H	0.096796	0.332996	0.782891
	H27	H	0.901218	0.662289	0.788757
	H28	H	0.214054	0.895357	0.335531
	H29	H	0.213990	0.098593	0.661461
	H30	H	0.783214	0.096325	0.335997
	H31	H	0.783008	0.898637	0.662598
	H32	H	0.335174	0.208307	0.902893
	H33	H	0.662130	0.212205	0.097474
	H34	H	0.335266	0.782922	0.096435
	H35	H	0.662372	0.782424	0.900786
	H36	H	0.336268	0.896827	0.215366
	H37	H	0.661935	0.098351	0.215232
	H38	H	0.335959	0.094234	0.785330
	H39	H	0.661839	0.896393	0.782591
	H40	H	0.901829	0.209818	0.334733
	H41	H	0.095905	0.212428	0.662090
	H42	H	0.095327	0.782527	0.334858
	H43	H	0.902782	0.786972	0.663899
	H44	H	0.211514	0.331623	0.899330
	H45	H	0.214626	0.661370	0.100013
	H46	H	0.784459	0.332553	0.097824
	H47	H	0.786273	0.661741	0.903327
	H48	H	0.407989	0.115058	0.596427
	H49	H	0.593760	0.878345	0.590458
	H50	H	0.584115	0.111788	0.412917
	H51	H	0.388867	0.876448	0.412823
	H52	H	0.591317	0.411879	0.114299
	H53	H	0.589388	0.590888	0.883351
	H54	H	0.406022	0.584058	0.114071
	H55	H	0.400177	0.399814	0.880381
	H56	H	0.113805	0.590572	0.410834
	H57	H	0.884300	0.587671	0.595740
	H58	H	0.110093	0.407854	0.575736
	H59	H	0.882282	0.407463	0.405929
	H60	H	0.114731	0.419182	0.604060
	H61	H	0.880485	0.593925	0.597417
	H62	H	0.115318	0.585411	0.405525
	H63	H	0.881121	0.402053	0.401012
	H64	H	0.411246	0.593099	0.115274
	H65	H	0.597914	0.591163	0.880595
	H66	H	0.588452	0.401782	0.116640
	H67	H	0.404915	0.407645	0.883315
	H68	H	0.601457	0.116769	0.413427
	H69	H	0.589957	0.880531	0.591525
	H70	H	0.406429	0.114692	0.590804
	H71	H	0.409209	0.874768	0.388088
	H72	H	0.899320	0.614635	0.082249
	H73	H	0.081447	0.380339	0.096075
	H74	H	0.090770	0.614730	0.907255
	H75	H	0.909158	0.378763	0.904628
	H76	H	0.093840	0.915475	0.613414
	H77	H	0.090244	0.090684	0.381820
	H78	H	0.904244	0.094886	0.616976
	H79	H	0.888860	0.911716	0.380269
	H80	H	0.617900	0.093206	0.901216
	H81	H	0.383183	0.090256	0.092985
	H82	H	0.614143	0.912262	0.098007
	H83	H	0.382874	0.903893	0.904805
	H84	H	0.618367	0.896432	0.094224
	H85	H	0.382458	0.089740	0.095315
	H86	H	0.614423	0.092090	0.913307
	H87	H	0.382290	0.902048	0.903864
	H88	H	0.903169	0.088920	0.615121
	H89	H	0.095847	0.092216	0.379974
	H90	H	0.084494	0.904016	0.614139
	H91	H	0.918258	0.912674	0.389624
	H92	H	0.093112	0.613990	0.910191
	H93	H	0.092319	0.382506	0.079765
	H94	H	0.901485	0.620177	0.104199
	H95	H	0.904917	0.380188	0.907684
	H96	H	0.403426	0.115966	0.594679
	H97	H	0.591139	0.880185	0.587626
	H98	H	0.592259	0.118072	0.397706
	H99	H	0.419357	0.886541	0.416351
	H100	H	0.597890	0.405029	0.118442
	H101	H	0.594724	0.583885	0.883297
	H102	H	0.400631	0.592701	0.117689
	H103	H	0.409389	0.399512	0.883213
	H104	H	0.116637	0.592297	0.403482
	H105	H	0.882731	0.592747	0.590533
	H106	H	0.121780	0.389896	0.597455
	H107	H	0.882016	0.400403	0.407833
	H108	H	0.918977	0.610820	0.092928
	H109	H	0.100810	0.375048	0.096742
	H110	H	0.094521	0.615766	0.907367
	H111	H	0.904152	0.378014	0.902668
	H112	H	0.098395	0.902579	0.617908
	H113	H	0.094990	0.086399	0.382157
	H114	H	0.909003	0.090745	0.614869
	H115	H	0.906357	0.886524	0.378116
	H116	H	0.613898	0.081934	0.905121
	H117	H	0.381917	0.091967	0.094607
	H118	H	0.612629	0.906505	0.083025
	H119	H	0.382551	0.901402	0.905520
	C120	C	0.377361	0.005940	0.621133
	C121	C	0.620306	0.988392	0.620104
	C122	C	0.620651	0.006618	0.378345
	C123	C	0.378030	0.988406	0.377974
	C124	C	0.620616	0.376079	0.008488
	C125	C	0.621873	0.618560	0.990660
	C126	C	0.377804	0.618155	0.007513
	C127	C	0.376593	0.374548	0.990680
	C128	C	0.007040	0.617942	0.378664
	C129	C	0.990624	0.620679	0.622700
	C130	C	0.007387	0.376933	0.620464
	C131	C	0.989984	0.375367	0.376730
	C132	C	0.877882	0.505935	0.120605
	C133	C	0.120538	0.488102	0.120616
	C134	C	0.120490	0.505686	0.878352
	C135	C	0.877865	0.488359	0.878230
	C136	C	0.120420	0.876740	0.507303
	C137	C	0.121692	0.119706	0.489580
	C138	C	0.877237	0.119208	0.507157
	C139	C	0.876499	0.875987	0.490850
	C140	C	0.507175	0.117263	0.878551
	C141	C	0.490553	0.119971	0.122476
	C142	C	0.507302	0.875765	0.120484
	C143	C	0.490452	0.874220	0.876094
	C144	C	0.380209	0.881317	0.674176
	C145	C	0.617760	0.112518	0.676246
	C146	C	0.617801	0.882274	0.321927
	C147	C	0.381275	0.112940	0.324531
	C148	C	0.675899	0.376061	0.885175
	C149	C	0.676939	0.618282	0.113727
	C150	C	0.322586	0.615522	0.884771
	C151	C	0.321003	0.376958	0.113511
	C152	C	0.883619	0.671589	0.382822
	C153	C	0.113686	0.675883	0.619256
	C154	C	0.883863	0.322281	0.616692
	C155	C	0.113480	0.321769	0.380143
	C156	C	0.884325	0.379403	0.675262
	C157	C	0.113300	0.619152	0.677818
	C158	C	0.884212	0.615087	0.323725
	C159	C	0.112508	0.377062	0.320979
	C160	C	0.381665	0.671403	0.883821
	C161	C	0.618415	0.675272	0.113782
	C162	C	0.616847	0.319914	0.884908
	C163	C	0.380354	0.321711	0.114269
	C164	C	0.675741	0.882321	0.378386
	C165	C	0.675011	0.112918	0.618877
	C166	C	0.322110	0.881772	0.617571
	C167	C	0.324245	0.113018	0.381596
	C168	C	0.880144	0.381635	0.174191
	C169	C	0.118320	0.612476	0.176591
	C170	C	0.117302	0.382069	0.821408
	C171	C	0.880998	0.612944	0.825508
	C172	C	0.175838	0.876264	0.384241
	C173	C	0.176115	0.118640	0.612729
	C174	C	0.821657	0.116324	0.384623
	C175	C	0.821423	0.878698	0.613996
	C176	C	0.384076	0.170995	0.882150
	C177	C	0.613209	0.175314	0.118821
	C178	C	0.384077	0.820770	0.117378
	C179	C	0.613629	0.819911	0.879572
	C180	C	0.384744	0.877090	0.176559
	C181	C	0.613280	0.118129	0.177029
	C182	C	0.384537	0.114506	0.823595
	C183	C	0.613167	0.876120	0.820614
	C184	C	0.880821	0.172444	0.383691
	C185	C	0.117207	0.174857	0.613060
	C186	C	0.117008	0.820077	0.384024
	C187	C	0.880954	0.823246	0.614787
	C188	C	0.174452	0.381253	0.879063
	C189	C	0.176474	0.612267	0.119845
	C190	C	0.822349	0.381919	0.117981
	C191	C	0.823377	0.612481	0.882187
	C192	C	0.399279	0.092720	0.600035
	C193	C	0.598132	0.901957	0.596808
	C194	C	0.599098	0.092963	0.401323
	C195	C	0.399394	0.901728	0.399489
	C196	C	0.599044	0.399439	0.094085
	C197	C	0.600340	0.595406	0.904789
	C198	C	0.399523	0.596388	0.093665
	C199	C	0.398412	0.396028	0.904626
	C200	C	0.093069	0.596031	0.400316
	C201	C	0.904678	0.598064	0.601080
	C202	C	0.093354	0.399111	0.598808
	C203	C	0.904113	0.396896	0.398503
	C204	C	0.900000	0.592703	0.099351
	C205	C	0.098110	0.401741	0.097561
	C206	C	0.099116	0.592408	0.901597
	C207	C	0.899608	0.401286	0.898922
	C208	C	0.098799	0.900409	0.592921
	C209	C	0.099984	0.096673	0.403478
	C210	C	0.899016	0.097857	0.593462
	C211	C	0.898081	0.897145	0.404832
	C212	C	0.593183	0.095448	0.900142
	C213	C	0.404555	0.097259	0.100784
	C214	C	0.592857	0.898580	0.098435
	C215	C	0.404743	0.895965	0.898214
	Zn216	Zn	0.499479	-0.003213	0.748278
	Zn217	Zn	0.499020	-0.002607	0.250473
	Zn218	Zn	0.750424	0.496650	0.000053
	Zn219	Zn	0.248788	0.496522	-0.000801
	Zn220	Zn	-0.001206	0.747732	0.499653
	Zn221	Zn	-0.001084	0.247817	0.498186
	Zn222	Zn	-0.000921	0.498446	0.750334
	Zn223	Zn	-0.001390	0.496847	0.248443
	Zn224	Zn	0.498946	0.746558	-0.001163
	Zn225	Zn	0.498715	0.247429	-0.000267
	Zn226	Zn	0.747969	-0.002447	0.499197
	Zn227	Zn	0.249775	-0.002822	0.498360
	N228	N	0.414043	0.959494	0.676480
	N229	N	0.584388	0.034260	0.676946
	N230	N	0.584125	0.960435	0.321776
	N231	N	0.414085	0.034623	0.322215
	N232	N	0.678671	0.409910	0.962916
	N233	N	0.679275	0.583869	0.036208
	N234	N	0.319864	0.583488	0.962780
	N235	N	0.318600	0.409223	0.035510
	N236	N	0.961147	0.673556	0.416035
	N237	N	0.036297	0.676960	0.585791
	N238	N	0.961341	0.320510	0.583417
	N239	N	0.036415	0.320419	0.414112
	N240	N	0.962097	0.412655	0.677697
	N241	N	0.035721	0.585686	0.680055
	N242	N	0.961938	0.582392	0.321249
	N243	N	0.034777	0.409697	0.318733
	N244	N	0.415317	0.673042	0.961209
	N245	N	0.584917	0.675625	0.036327
	N246	N	0.583257	0.319696	0.962428
	N247	N	0.414161	0.320133	0.036871
	N248	N	0.677559	0.960287	0.412954
	N249	N	0.676662	0.034638	0.584719
	N250	N	0.319881	0.960367	0.585556
	N251	N	0.322013	0.034551	0.414121
	N252	N	0.913970	0.459681	0.175986
	N253	N	0.084204	0.534514	0.177103
	N254	N	0.084712	0.460564	0.820873
	N255	N	0.914065	0.534564	0.822934
	N256	N	0.178139	0.910815	0.461810
	N257	N	0.178827	0.084770	0.535023
	N258	N	0.819657	0.083837	0.462444
	N259	N	0.818557	0.910926	0.536054
	N260	N	0.461472	0.173100	0.915443
	N261	N	0.535912	0.176419	0.085652
	N262	N	0.461203	0.819820	0.083255
	N263	N	0.536304	0.818362	0.913224
	N264	N	0.462238	0.910885	0.178353
	N265	N	0.535761	0.084483	0.179510
	N266	N	0.462225	0.081758	0.821315
	N267	N	0.535711	0.909270	0.818414
	N268	N	0.914513	0.174573	0.461077
	N269	N	0.083959	0.175693	0.535282
	N270	N	0.082977	0.820415	0.461371
	N271	N	0.914604	0.821455	0.537385
	N272	N	0.176468	0.459199	0.913839
	N273	N	0.178171	0.533997	0.085699
	N274	N	0.820794	0.460403	0.085455
	N275	N	0.821478	0.533877	0.914204
	O276	O	1.005606	0.918258	-0.037810
	H277	H	1.014283	0.914972	-0.040220
	H278	H	1.009008	0.915377	-0.049203
	O279	O	0.070659	0.014067	0.040854
	H280	H	0.071892	0.020820	0.047196
	H281	H	0.058263	0.015913	0.040287
	O282	O	0.037805	-0.058177	0.967026
	H283	H	0.038039	-0.058556	0.964563
	H284	H	0.044051	-0.054605	0.962072
	O285	O	0.510566	0.505849	0.478959
	H286	H	0.527087	0.510566	0.487409
	H287	H	0.514420	0.513383	0.477072
	O288	O	0.498730	0.535775	0.526259
	H289	H	0.497011	0.527986	0.522641
	H290	H	0.490595	0.536185	0.527251
	O291	O	0.505990	0.568727	0.490648
	H292	H	0.513254	0.572048	0.495680
	H293	H	0.498687	0.568473	0.497620
	O294	O	0.034778	0.031794	-0.029775
	H295	H	0.040147	0.036098	-0.029232
	H296	H	0.024327	0.029650	-0.019094
	O297	O	0.459738	0.514459	0.519262
	H298	H	0.467403	0.515217	0.507439
	H299	H	0.458159	0.512786	0.519888
	O300	O	0.024224	0.954809	0.965468
	H301	H	0.025514	0.963716	0.967814
	H302	H	0.026224	0.964669	0.957165
	O303	O	0.512938	0.529967	0.522586
	H304	H	0.518462	0.521935	0.520942
	H305	H	0.506081	0.529505	0.523099
	O306	O	0.007231	-0.007643	1.062097
	H307	H	-0.005351	-0.021820	1.061097
	H308	H	0.016982	-0.008465	1.061497
	O309	O	1.030510	0.939797	0.988555
	H310	H	1.040234	0.926759	0.977360
	H311	H	1.038570	0.939115	0.989284
	O312	O	0.515539	0.495611	0.505871
	H313	H	0.517986	0.511456	0.496521
	H314	H	0.520143	0.497530	0.511352
	O315	O	0.545952	0.600326	0.557057
	H316	H	0.540029	0.597517	0.563420
	H317	H	0.539949	0.597315	0.565178
	O318	O	-0.010725	1.010286	0.005837
	H319	H	-0.004719	1.004811	0.004494
	H320	H	-0.020223	1.012874	0.011312
	O321	O	1.059734	1.006969	-0.005961
	H322	H	1.062962	1.009543	-0.003737
	H323	H	1.049116	1.010934	0.003007
