data_Molecule from HDF5

_cell_length_a		16.173628
_cell_length_b		16.271512
_cell_length_c		16.296026
_cell_angle_alpha	90.025501
_cell_angle_beta	90.064976
_cell_angle_gamma	90.032112
_symmetry_space_group_name_H-M	'P 1'
_symmetry_Int_Tables_number		1

loop_
	_symmetry_equiv_pos_as_xyz
	x,y,z

loop_
	_atom_site_label
	_atom_site_type_symbol
	_atom_site_fract_x
	_atom_site_fract_y
	_atom_site_fract_z
	H0	H	0.401917	0.835635	0.714613
	H1	H	0.601939	0.162709	0.715305
	H2	H	0.601215	0.835978	0.284288
	H3	H	0.402408	0.163262	0.285724
	H4	H	0.712748	0.401731	0.834367
	H5	H	0.714019	0.597416	0.162670
	H6	H	0.286162	0.596621	0.835601
	H7	H	0.286135	0.401038	0.163072
	H8	H	0.836758	0.713198	0.400218
	H9	H	0.165670	0.711490	0.597994
	H10	H	0.836545	0.284270	0.596935
	H11	H	0.165761	0.286743	0.401276
	H12	H	0.835492	0.400185	0.712075
	H13	H	0.164449	0.599098	0.715055
	H14	H	0.836011	0.597921	0.285529
	H15	H	0.164582	0.400190	0.284742
	H16	H	0.400060	0.714086	0.835827
	H17	H	0.599400	0.714277	0.162635
	H18	H	0.599009	0.283124	0.835334
	H19	H	0.400831	0.284037	0.162224
	H20	H	0.713863	0.835090	0.401750
	H21	H	0.715221	0.162712	0.596355
	H22	H	0.286769	0.834772	0.597533
	H23	H	0.288227	0.163426	0.403603
	H24	H	0.897879	0.335931	0.215961
	H25	H	0.100292	0.662103	0.215323
	H26	H	0.099277	0.335256	0.784483
	H27	H	0.900313	0.662130	0.783312
	H28	H	0.214703	0.901938	0.336004
	H29	H	0.214924	0.097260	0.663847
	H30	H	0.787233	0.096860	0.335365
	H31	H	0.786963	0.900822	0.662893
	H32	H	0.335638	0.211961	0.900453
	H33	H	0.664770	0.214525	0.098623
	H34	H	0.335636	0.785846	0.097974
	H35	H	0.664733	0.784808	0.900983
	H36	H	0.336596	0.900339	0.214616
	H37	H	0.665724	0.098683	0.214246
	H38	H	0.336866	0.098882	0.784024
	H39	H	0.664976	0.900233	0.785944
	H40	H	0.902148	0.213315	0.335519
	H41	H	0.100536	0.214272	0.662802
	H42	H	0.101008	0.783753	0.336197
	H43	H	0.900618	0.782769	0.662085
	H44	H	0.213105	0.334231	0.903141
	H45	H	0.213693	0.663369	0.097325
	H46	H	0.786200	0.335231	0.095067
	H47	H	0.787607	0.663970	0.902053
	H48	H	0.409716	0.112869	0.584318
	H49	H	0.590154	0.884662	0.589638
	H50	H	0.593808	0.116962	0.404773
	H51	H	0.400454	0.880700	0.408385
	H52	H	0.587666	0.403932	0.114244
	H53	H	0.591311	0.594919	0.881458
	H54	H	0.402723	0.593510	0.117711
	H55	H	0.395713	0.413643	0.881662
	H56	H	0.113729	0.580756	0.408546
	H57	H	0.885610	0.589269	0.585775
	H58	H	0.119726	0.395207	0.586502
	H59	H	0.887696	0.416160	0.412000
	H60	H	0.112970	0.417279	0.586489
	H61	H	0.882534	0.587340	0.596606
	H62	H	0.122638	0.593249	0.396129
	H63	H	0.879422	0.405872	0.395555
	H64	H	0.408877	0.589500	0.113903
	H65	H	0.594319	0.593351	0.881596
	H66	H	0.596913	0.403336	0.116622
	H67	H	0.418827	0.410420	0.887696
	H68	H	0.592807	0.115885	0.406507
	H69	H	0.599315	0.881662	0.592528
	H70	H	0.401390	0.118593	0.595442
	H71	H	0.410356	0.880373	0.397892
	H72	H	0.914725	0.614760	0.098340
	H73	H	0.092069	0.380122	0.099969
	H74	H	0.093058	0.614546	0.910494
	H75	H	0.916939	0.383425	0.898495
	H76	H	0.093271	0.915579	0.613137
	H77	H	0.103593	0.096081	0.379213
	H78	H	0.910443	0.105786	0.619141
	H79	H	0.909597	0.910539	0.384767
	H80	H	0.619459	0.095006	0.905640
	H81	H	0.387357	0.083828	0.087548
	H82	H	0.615206	0.908404	0.086465
	H83	H	0.380723	0.904351	0.902044
	H84	H	0.618567	0.909787	0.096367
	H85	H	0.380506	0.089788	0.102347
	H86	H	0.617705	0.092763	0.910497
	H87	H	0.383544	0.904053	0.911004
	H88	H	0.895344	0.087015	0.618008
	H89	H	0.092851	0.083172	0.385958
	H90	H	0.085093	0.898869	0.616130
	H91	H	0.912079	0.901357	0.382824
	H92	H	0.095235	0.617161	0.904297
	H93	H	0.086145	0.385245	0.088694
	H94	H	0.906699	0.613653	0.084838
	H95	H	0.905312	0.385054	0.916570
	H96	H	0.415530	0.115033	0.597583
	H97	H	0.591585	0.880747	0.599050
	H98	H	0.594885	0.116470	0.406305
	H99	H	0.413752	0.885820	0.411170
	H100	H	0.593114	0.412359	0.113764
	H101	H	0.591660	0.591790	0.882832
	H102	H	0.409373	0.597847	0.116734
	H103	H	0.405639	0.392101	0.878836
	H104	H	0.118293	0.598633	0.414353
	H105	H	0.881690	0.598118	0.591514
	H106	H	0.121536	0.407947	0.605466
	H107	H	0.882354	0.396103	0.413401
	H108	H	0.899850	0.619671	0.097461
	H109	H	0.099987	0.381557	0.089251
	H110	H	0.088966	0.614340	0.904604
	H111	H	0.896217	0.377494	0.898636
	H112	H	0.102839	0.901263	0.620228
	H113	H	0.086819	0.099577	0.383734
	H114	H	0.917895	0.084863	0.610142
	H115	H	0.902412	0.904764	0.380840
	H116	H	0.617881	0.089146	0.905388
	H117	H	0.382522	0.099873	0.088408
	H118	H	0.619450	0.900314	0.092537
	H119	H	0.384461	0.911714	0.906287
	C120	C	0.379670	0.007401	0.621099
	C121	C	0.622661	0.990692	0.621793
	C122	C	0.622273	0.007687	0.377867
	C123	C	0.379471	0.990753	0.377925
	C124	C	0.621219	0.377597	0.006809
	C125	C	0.621209	0.621146	0.990530
	C126	C	0.378130	0.621674	0.008044
	C127	C	0.378100	0.377032	0.990647
	C128	C	0.009456	0.620228	0.377701
	C129	C	0.992098	0.620234	0.620640
	C130	C	0.009331	0.377709	0.620857
	C131	C	0.991768	0.377647	0.378008
	C132	C	0.878174	0.507389	0.121220
	C133	C	0.121297	0.490797	0.121092
	C134	C	0.121500	0.507427	0.877916
	C135	C	0.877801	0.490360	0.876589
	C136	C	0.122646	0.876905	0.508334
	C137	C	0.123026	0.121072	0.491060
	C138	C	0.879413	0.120816	0.507565
	C139	C	0.878957	0.876620	0.490740
	C140	C	0.509155	0.120442	0.878354
	C141	C	0.492219	0.120693	0.121576
	C142	C	0.509076	0.877811	0.120803
	C143	C	0.491627	0.878106	0.878006
	C144	C	0.381509	0.884282	0.676403
	C145	C	0.621355	0.113897	0.676935
	C146	C	0.620592	0.884761	0.322534
	C147	C	0.381859	0.114095	0.323336
	C148	C	0.675637	0.380484	0.883624
	C149	C	0.676221	0.618234	0.113900
	C150	C	0.323274	0.617984	0.884577
	C151	C	0.323710	0.380421	0.114178
	C152	C	0.885827	0.675482	0.379940
	C153	C	0.116162	0.674684	0.618792
	C154	C	0.885430	0.322258	0.617586
	C155	C	0.116313	0.323958	0.381020
	C156	C	0.884702	0.380224	0.674485
	C157	C	0.115499	0.618253	0.676698
	C158	C	0.885434	0.618144	0.323048
	C159	C	0.115559	0.379816	0.322682
	C160	C	0.380044	0.676336	0.884733
	C161	C	0.619104	0.676084	0.113740
	C162	C	0.619034	0.321654	0.884099
	C163	C	0.380242	0.322027	0.113583
	C164	C	0.676977	0.884221	0.380990
	C165	C	0.677762	0.113984	0.618111
	C166	C	0.324250	0.883829	0.618354
	C167	C	0.325117	0.114327	0.381635
	C168	C	0.879614	0.384465	0.176468
	C169	C	0.119666	0.613612	0.176579
	C170	C	0.119255	0.383993	0.822769
	C171	C	0.880326	0.613587	0.821619
	C172	C	0.177149	0.880444	0.384931
	C173	C	0.177421	0.118105	0.614715
	C174	C	0.824645	0.117799	0.384298
	C175	C	0.824278	0.879674	0.613956
	C176	C	0.384985	0.174538	0.880500
	C177	C	0.615914	0.176348	0.118946
	C178	C	0.384913	0.823267	0.118578
	C179	C	0.615536	0.822616	0.880449
	C180	C	0.385317	0.880519	0.176172
	C181	C	0.616121	0.119112	0.176781
	C182	C	0.385626	0.118551	0.822424
	C183	C	0.615737	0.880100	0.823401
	C184	C	0.881598	0.175994	0.384455
	C185	C	0.120722	0.176355	0.614103
	C186	C	0.120927	0.821407	0.385193
	C187	C	0.880714	0.820893	0.613419
	C188	C	0.176063	0.383478	0.881304
	C189	C	0.176174	0.614170	0.117987
	C190	C	0.823410	0.384224	0.117048
	C191	C	0.824162	0.614546	0.880452
	C192	C	0.402068	0.093286	0.598858
	C193	C	0.600238	0.904696	0.600169
	C194	C	0.600447	0.094138	0.399737
	C195	C	0.401495	0.904500	0.399678
	C196	C	0.598927	0.399972	0.092668
	C197	C	0.599033	0.599693	0.904289
	C198	C	0.400463	0.599992	0.093937
	C199	C	0.400137	0.398916	0.904874
	C200	C	0.096041	0.597767	0.399952
	C201	C	0.905454	0.598162	0.597869
	C202	C	0.095685	0.400118	0.599189
	C203	C	0.905346	0.399585	0.400393
	C204	C	0.900540	0.593643	0.099824
	C205	C	0.099189	0.404540	0.098976
	C206	C	0.099010	0.593130	0.899963
	C207	C	0.899523	0.404233	0.898207
	C208	C	0.100310	0.898863	0.594284
	C209	C	0.101067	0.099231	0.405206
	C210	C	0.901558	0.099117	0.593518
	C211	C	0.901347	0.898893	0.404925
	C212	C	0.595994	0.098612	0.900475
	C213	C	0.405784	0.097862	0.099361
	C214	C	0.595383	0.899720	0.098401
	C215	C	0.405340	0.900280	0.899866
	Zn216	Zn	0.500900	-0.000320	0.750389
	Zn217	Zn	0.500974	-0.000783	0.249093
	Zn218	Zn	0.749722	0.500072	-0.001523
	Zn219	Zn	0.250382	0.499392	-0.000643
	Zn220	Zn	0.001096	0.748168	0.499418
	Zn221	Zn	0.001203	0.249788	0.498955
	Zn222	Zn	0.000021	0.498940	0.748736
	Zn223	Zn	0.000320	0.498806	0.249837
	Zn224	Zn	0.499953	0.750000	-0.000664
	Zn225	Zn	0.499846	0.248351	-0.000667
	Zn226	Zn	0.750552	-0.001169	0.499429
	Zn227	Zn	0.250788	-0.000972	0.499840
	N228	N	0.415133	0.961979	0.678255
	N229	N	0.587994	0.036147	0.679423
	N230	N	0.587651	0.962504	0.320258
	N231	N	0.414852	0.036223	0.320858
	N232	N	0.677134	0.414557	0.960869
	N233	N	0.677712	0.584956	0.036367
	N234	N	0.321908	0.584777	0.962089
	N235	N	0.322083	0.414013	0.036597
	N236	N	0.964245	0.677068	0.413046
	N237	N	0.038406	0.675882	0.584495
	N238	N	0.963792	0.320672	0.584896
	N239	N	0.038272	0.322300	0.414552
	N240	N	0.962757	0.413804	0.676702
	N241	N	0.037075	0.585162	0.677963
	N242	N	0.963231	0.584136	0.321853
	N243	N	0.037248	0.412653	0.320883
	N244	N	0.413539	0.678571	0.962375
	N245	N	0.585504	0.677842	0.036094
	N246	N	0.586044	0.319588	0.961908
	N247	N	0.413381	0.319863	0.036008
	N248	N	0.678026	0.961936	0.414642
	N249	N	0.678920	0.036401	0.584747
	N250	N	0.322964	0.961475	0.584737
	N251	N	0.323426	0.036620	0.414860
	N252	N	0.912603	0.462336	0.179414
	N253	N	0.086298	0.535931	0.178496
	N254	N	0.086202	0.461922	0.820349
	N255	N	0.912875	0.535483	0.819008
	N256	N	0.178363	0.914074	0.462328
	N257	N	0.179014	0.084478	0.537151
	N258	N	0.822861	0.084319	0.461760
	N259	N	0.822961	0.913441	0.536632
	N260	N	0.462925	0.175886	0.914449
	N261	N	0.537829	0.177510	0.085339
	N262	N	0.462777	0.821573	0.084709
	N263	N	0.537455	0.821349	0.913984
	N264	N	0.463350	0.913824	0.177486
	N265	N	0.538080	0.085112	0.178333
	N266	N	0.463995	0.085685	0.821050
	N267	N	0.537834	0.913839	0.821718
	N268	N	0.915197	0.177886	0.462042
	N269	N	0.087464	0.178253	0.536357
	N270	N	0.087817	0.818976	0.463084
	N271	N	0.914239	0.819010	0.535738
	N272	N	0.177564	0.461039	0.914838
	N273	N	0.177412	0.536641	0.084002
	N274	N	0.822497	0.461665	0.083291
	N275	N	0.822655	0.537018	0.914121
	O276	O	1.039780	0.957429	-0.077728
	H277	H	1.041184	0.956954	-0.079182
	H278	H	1.029094	0.958378	-0.069604
	O279	O	-0.006052	-0.092973	-0.030643
	H280	H	-0.014709	-0.087890	-0.026882
	H281	H	-0.001462	-0.084748	-0.030705
	O282	O	0.017422	-0.022966	0.957754
	H283	H	0.017651	-0.026096	0.950123
	H284	H	0.020361	-0.017403	0.962066
	O285	O	0.497517	0.490992	0.536054
	H286	H	0.491763	0.493474	0.548288
	H287	H	0.505777	0.486403	0.546271
	O288	O	0.531206	0.495670	0.519394
	H289	H	0.539177	0.502113	0.518518
	H290	H	0.521156	0.496821	0.518667
	O291	O	0.552542	0.481801	0.536501
	H292	H	0.549472	0.483348	0.534925
	H293	H	0.557404	0.481505	0.531522
	O294	O	-0.019400	0.036343	-0.028757
	H295	H	-0.015952	0.033705	-0.028228
	H296	H	-0.015810	0.044138	-0.031528
	O297	O	0.473280	0.468711	0.521322
	H298	H	0.475754	0.462435	0.514428
	H299	H	0.481015	0.464930	0.530814
	O300	O	0.045587	1.009520	1.025910
	H301	H	0.040487	1.006787	1.036703
	H302	H	0.051321	1.010649	1.029903
	O303	O	0.473477	0.461214	0.530901
	H304	H	0.468871	0.457423	0.531418
	H305	H	0.475574	0.459311	0.538441
	O306	O	0.070099	-0.001735	0.997934
	H307	H	0.063421	-0.011278	0.997728
	H308	H	0.070246	-0.003418	0.993101
	O309	O	1.026118	1.043149	1.035560
	H310	H	1.030185	1.049287	1.031198
	H311	H	1.029339	1.040459	1.043302
	O312	O	0.493896	0.506777	0.486690
	H313	H	0.490044	0.507834	0.491721
	H314	H	0.491328	0.503194	0.486270
	O315	O	0.450015	0.506129	0.537154
	H316	H	0.447470	0.504927	0.531378
	H317	H	0.447266	0.505230	0.523647
	O318	O	-0.064266	1.015246	0.007865
	H319	H	-0.064875	1.019515	-0.000850
	H320	H	-0.064767	1.022715	0.012628
	O321	O	1.011605	0.922059	-0.011371
	H322	H	1.013556	0.911164	-0.015934
	H323	H	1.006446	0.911214	-0.018496
