data_Molecule from HDF5

_cell_length_a		16.559232
_cell_length_b		16.599240
_cell_length_c		16.593811
_cell_angle_alpha	89.924926
_cell_angle_beta	90.116145
_cell_angle_gamma	90.042750
_symmetry_space_group_name_H-M	'P 1'
_symmetry_Int_Tables_number		1

loop_
	_symmetry_equiv_pos_as_xyz
	x,y,z

loop_
	_atom_site_label
	_atom_site_type_symbol
	_atom_site_fract_x
	_atom_site_fract_y
	_atom_site_fract_z
	H0	H	0.375612	0.824749	0.719647
	H1	H	0.579865	0.140389	0.716716
	H2	H	0.581512	0.826146	0.278541
	H3	H	0.370777	0.136562	0.277393
	H4	H	0.697723	0.377844	0.843781
	H5	H	0.695918	0.584225	0.156640
	H6	H	0.253642	0.589682	0.843231
	H7	H	0.261125	0.383632	0.157876
	H8	H	0.820468	0.702416	0.395024
	H9	H	0.131748	0.704597	0.606792
	H10	H	0.822771	0.258265	0.604808
	H11	H	0.135197	0.264645	0.396534
	H12	H	0.823540	0.371899	0.722804
	H13	H	0.130836	0.590019	0.724104
	H14	H	0.820829	0.587080	0.278105
	H15	H	0.136752	0.384201	0.283532
	H16	H	0.371412	0.705239	0.842924
	H17	H	0.580469	0.701137	0.156614
	H18	H	0.578923	0.264264	0.841877
	H19	H	0.375355	0.265865	0.156494
	H20	H	0.697966	0.825871	0.395974
	H21	H	0.695762	0.140244	0.600199
	H22	H	0.256825	0.825012	0.605049
	H23	H	0.255714	0.137102	0.395128
	H24	H	0.873792	0.326767	0.220252
	H25	H	0.081796	0.640349	0.218404
	H26	H	0.082294	0.327088	0.777042
	H27	H	0.867043	0.635158	0.773130
	H28	H	0.200044	0.874718	0.345167
	H29	H	0.197168	0.085941	0.655384
	H30	H	0.758561	0.083424	0.341749
	H31	H	0.756109	0.876830	0.655118
	H32	H	0.318869	0.199084	0.898198
	H33	H	0.633770	0.200316	0.101573
	H34	H	0.320788	0.760977	0.103589
	H35	H	0.633114	0.760518	0.893273
	H36	H	0.320364	0.877883	0.218843
	H37	H	0.633305	0.084561	0.218323
	H38	H	0.319485	0.084396	0.780170
	H39	H	0.635225	0.880222	0.780818
	H40	H	0.874957	0.200426	0.340919
	H41	H	0.084987	0.205765	0.652543
	H42	H	0.082728	0.760186	0.343864
	H43	H	0.869576	0.757489	0.653549
	H44	H	0.197674	0.326401	0.894208
	H45	H	0.197407	0.640108	0.101835
	H46	H	0.757172	0.326406	0.103959
	H47	H	0.754681	0.637361	0.892806
	H48	H	0.384024	0.094479	0.588062
	H49	H	0.567952	0.869190	0.591758
	H50	H	0.561783	0.091448	0.409878
	H51	H	0.396491	0.871765	0.408721
	H52	H	0.561465	0.390503	0.110530
	H53	H	0.561574	0.570814	0.889247
	H54	H	0.380303	0.568894	0.112222
	H55	H	0.387934	0.392710	0.887375
	H56	H	0.091641	0.575164	0.408778
	H57	H	0.867039	0.568938	0.581572
	H58	H	0.088775	0.391010	0.585561
	H59	H	0.863683	0.389923	0.407250
	H60	H	0.085910	0.398398	0.583992
	H61	H	0.867560	0.564344	0.585446
	H62	H	0.088896	0.572639	0.411647
	H63	H	0.864768	0.391535	0.409499
	H64	H	0.393498	0.565839	0.105453
	H65	H	0.566716	0.573927	0.886121
	H66	H	0.570418	0.386343	0.114538
	H67	H	0.384250	0.387984	0.885289
	H68	H	0.569528	0.093968	0.413765
	H69	H	0.568552	0.868868	0.590102
	H70	H	0.388676	0.094412	0.592568
	H71	H	0.386524	0.871308	0.418638
	H72	H	0.887392	0.595700	0.090360
	H73	H	0.070872	0.369880	0.087099
	H74	H	0.066855	0.594244	0.912549
	H75	H	0.887539	0.369444	0.909312
	H76	H	0.061904	0.895025	0.609568
	H77	H	0.063045	0.074292	0.385994
	H78	H	0.884868	0.077270	0.613337
	H79	H	0.888046	0.895567	0.388232
	H80	H	0.592686	0.076495	0.903546
	H81	H	0.364628	0.068836	0.084646
	H82	H	0.590379	0.896520	0.095526
	H83	H	0.364192	0.891248	0.907425
	H84	H	0.591883	0.885563	0.088765
	H85	H	0.362959	0.070700	0.094831
	H86	H	0.590525	0.078202	0.911143
	H87	H	0.367435	0.891859	0.914694
	H88	H	0.886079	0.066027	0.609885
	H89	H	0.071091	0.073949	0.383899
	H90	H	0.064352	0.889511	0.612033
	H91	H	0.890875	0.892117	0.387755
	H92	H	0.061350	0.593519	0.908095
	H93	H	0.070120	0.368468	0.096311
	H94	H	0.888570	0.594467	0.088468
	H95	H	0.890351	0.371465	0.911385
	H96	H	0.390290	0.092506	0.586798
	H97	H	0.569618	0.869000	0.592134
	H98	H	0.568141	0.095550	0.404953
	H99	H	0.383994	0.867117	0.405523
	H100	H	0.569794	0.396518	0.111517
	H101	H	0.567436	0.567615	0.887998
	H102	H	0.391243	0.579047	0.111841
	H103	H	0.382269	0.393709	0.885388
	H104	H	0.090217	0.570792	0.407932
	H105	H	0.865060	0.569499	0.586773
	H106	H	0.090051	0.396506	0.590824
	H107	H	0.864179	0.392827	0.407145
	H108	H	0.886223	0.595165	0.088471
	H109	H	0.063349	0.371541	0.091538
	H110	H	0.061277	0.591358	0.914213
	H111	H	0.887367	0.370873	0.913094
	H112	H	0.068627	0.894897	0.611355
	H113	H	0.067728	0.067807	0.387910
	H114	H	0.895571	0.073096	0.609325
	H115	H	0.886718	0.891499	0.386687
	H116	H	0.589769	0.070932	0.908179
	H117	H	0.362353	0.078076	0.087825
	H118	H	0.586872	0.895955	0.082942
	H119	H	0.367026	0.898522	0.909551
	C120	C	0.356170	-0.009960	0.621248
	C121	C	0.599162	0.973754	0.621000
	C122	C	0.597938	-0.009804	0.378288
	C123	C	0.355974	0.972967	0.378368
	C124	C	0.598328	0.360461	0.008273
	C125	C	0.597409	0.602579	0.991153
	C126	C	0.355362	0.604305	0.007011
	C127	C	0.354926	0.361589	0.990563
	C128	C	-0.013642	0.604432	0.377702
	C129	C	0.968295	0.602304	0.619665
	C130	C	-0.013909	0.360793	0.620060
	C131	C	0.969109	0.362002	0.377901
	C132	C	0.856200	0.491612	0.121136
	C133	C	0.098906	0.474649	0.121128
	C134	C	0.097051	0.490883	0.878400
	C135	C	0.855076	0.472960	0.877686
	C136	C	0.097680	0.860591	0.508169
	C137	C	0.099513	0.103906	0.489210
	C138	C	0.857138	0.102873	0.507074
	C139	C	0.855644	0.860358	0.490389
	C140	C	0.486168	0.105056	0.877028
	C141	C	0.467338	0.103304	0.120428
	C142	C	0.485896	0.860447	0.120663
	C143	C	0.469520	0.861786	0.878754
	C144	C	0.355838	0.871889	0.680339
	C145	C	0.598903	0.092839	0.677999
	C146	C	0.599774	0.872662	0.318909
	C147	C	0.352879	0.090125	0.317987
	C148	C	0.657598	0.359502	0.890408
	C149	C	0.656461	0.603450	0.109537
	C150	C	0.294330	0.607698	0.889688
	C151	C	0.299216	0.363541	0.110010
	C152	C	0.867656	0.662909	0.376409
	C153	C	0.084998	0.664094	0.624334
	C154	C	0.869424	0.298761	0.623207
	C155	C	0.088104	0.304246	0.377805
	C156	C	0.869777	0.355500	0.681764
	C157	C	0.084574	0.606914	0.682434
	C158	C	0.867889	0.605713	0.318325
	C159	C	0.088849	0.363776	0.321820
	C160	C	0.352709	0.665152	0.889724
	C161	C	0.598918	0.661413	0.109374
	C162	C	0.598457	0.303083	0.889453
	C163	C	0.356047	0.304810	0.109441
	C164	C	0.657503	0.872548	0.377216
	C165	C	0.656505	0.092832	0.619951
	C166	C	0.296962	0.872093	0.623290
	C167	C	0.295832	0.090336	0.376469
	C168	C	0.854689	0.373883	0.180673
	C169	C	0.100533	0.593019	0.179435
	C170	C	0.100377	0.373581	0.817660
	C171	C	0.850347	0.588958	0.814915
	C172	C	0.159042	0.857324	0.391327
	C173	C	0.158466	0.105317	0.607535
	C174	C	0.797948	0.103297	0.388788
	C175	C	0.795712	0.858092	0.608165
	C176	C	0.366561	0.161199	0.877740
	C177	C	0.586386	0.161203	0.121030
	C178	C	0.367796	0.800917	0.122070
	C179	C	0.586645	0.801437	0.875924
	C180	C	0.367562	0.858886	0.179552
	C181	C	0.585858	0.103817	0.179155
	C182	C	0.366887	0.104032	0.819489
	C183	C	0.587731	0.860804	0.819917
	C184	C	0.856066	0.161000	0.388276
	C185	C	0.102452	0.164724	0.606399
	C186	C	0.101021	0.800106	0.390871
	C187	C	0.852341	0.799186	0.607544
	C188	C	0.157504	0.373268	0.876120
	C189	C	0.157919	0.592852	0.121254
	C190	C	0.796996	0.373573	0.122613
	C191	C	0.794063	0.590060	0.874173
	C192	C	0.380686	0.072446	0.596292
	C193	C	0.575493	0.890659	0.597968
	C194	C	0.573269	0.072315	0.402627
	C195	C	0.381695	0.891310	0.403921
	C196	C	0.574124	0.384311	0.090822
	C197	C	0.572559	0.577919	0.909095
	C198	C	0.380819	0.578393	0.088660
	C199	C	0.378005	0.384752	0.907550
	C200	C	0.068880	0.579931	0.402345
	C201	C	0.887438	0.575304	0.592359
	C202	C	0.067214	0.387664	0.594174
	C203	C	0.885871	0.384982	0.401286
	C204	C	0.880627	0.573773	0.096143
	C205	C	0.074810	0.391535	0.098220
	C206	C	0.070549	0.571910	0.904168
	C207	C	0.881082	0.391690	0.903759
	C208	C	0.072160	0.885912	0.589633
	C209	C	0.074605	0.079000	0.407277
	C210	C	0.881861	0.078949	0.589413
	C211	C	0.881271	0.885866	0.408698
	C212	C	0.569200	0.081931	0.900656
	C213	C	0.384657	0.079547	0.095999
	C214	C	0.568069	0.885470	0.096067
	C215	C	0.387417	0.886947	0.903523
	Zn216	Zn	0.477774	-0.017583	0.749807
	Zn217	Zn	0.476814	-0.018252	0.249096
	Zn218	Zn	0.726930	0.482495	-0.000419
	Zn219	Zn	0.226577	0.483176	-0.001230
	Zn220	Zn	-0.022991	0.731965	0.499618
	Zn221	Zn	-0.022312	0.232571	0.498527
	Zn222	Zn	-0.023479	0.481370	0.748964
	Zn223	Zn	-0.021968	0.483550	0.249469
	Zn224	Zn	0.477329	0.732298	-0.001066
	Zn225	Zn	0.476487	0.232440	-0.000781
	Zn226	Zn	0.727879	-0.017910	0.499363
	Zn227	Zn	0.226778	-0.019048	0.499886
	N228	N	0.391837	0.946531	0.679327
	N229	N	0.564205	0.017637	0.679038
	N230	N	0.563274	0.946760	0.319613
	N231	N	0.389514	0.016041	0.319033
	N232	N	0.657877	0.394245	0.965463
	N233	N	0.655937	0.567750	0.034878
	N234	N	0.295826	0.570675	0.963620
	N235	N	0.298163	0.397824	0.034923
	N236	N	0.942392	0.662353	0.412476
	N237	N	0.011539	0.661498	0.586082
	N238	N	0.942729	0.302043	0.585194
	N239	N	0.012549	0.302939	0.411855
	N240	N	0.943391	0.393323	0.679853
	N241	N	0.010884	0.569020	0.679552
	N242	N	0.942719	0.570167	0.318943
	N243	N	0.013533	0.398402	0.321246
	N244	N	0.389925	0.663106	0.963719
	N245	N	0.563219	0.661219	0.034636
	N246	N	0.562526	0.303233	0.963933
	N247	N	0.389761	0.303100	0.033895
	N248	N	0.656364	0.946581	0.413615
	N249	N	0.657194	0.017628	0.585645
	N250	N	0.296897	0.946726	0.587512
	N251	N	0.297511	0.016325	0.413288
	N252	N	0.890609	0.448465	0.180121
	N253	N	0.064570	0.518453	0.179356
	N254	N	0.063582	0.447661	0.818776
	N255	N	0.887397	0.515060	0.817020
	N256	N	0.157157	0.894240	0.465254
	N257	N	0.157181	0.068543	0.533594
	N258	N	0.798446	0.068113	0.463690
	N259	N	0.797852	0.895496	0.534458
	N260	N	0.441775	0.162146	0.912628
	N261	N	0.511482	0.161327	0.085298
	N262	N	0.442434	0.801512	0.086398
	N263	N	0.512117	0.802037	0.911864
	N264	N	0.442043	0.895166	0.178903
	N265	N	0.510794	0.068732	0.179001
	N266	N	0.442363	0.070082	0.818648
	N267	N	0.513811	0.897848	0.821483
	N268	N	0.891981	0.161278	0.462946
	N269	N	0.066797	0.164375	0.531650
	N270	N	0.063601	0.801958	0.464575
	N271	N	0.888951	0.800448	0.533223
	N272	N	0.155722	0.447255	0.913166
	N273	N	0.157175	0.518097	0.085832
	N274	N	0.797594	0.447934	0.086406
	N275	N	0.796827	0.516964	0.912698
	O276	O	-0.185644	0.848078	-0.057601
	H277	H	-0.189761	0.841466	-0.069068
	H278	H	-0.192328	0.828021	-0.068059
	O279	O	0.601289	0.431441	0.648143
	H280	H	0.605411	0.452079	0.652968
	H281	H	0.610644	0.431778	0.653736
	O282	O	1.258991	0.263337	0.532478
	H283	H	1.243540	0.248925	0.556632
	H284	H	1.246553	0.255714	0.560377
	O285	O	0.630882	0.302450	0.664336
	H286	H	0.617568	0.321375	0.646656
	H287	H	0.636877	0.314469	0.648755
	O288	O	0.192052	0.203264	0.219078
	H289	H	0.199814	0.172738	0.198029
	H290	H	0.226732	0.229485	0.252473
	O291	O	0.267675	0.516181	0.286806
	H292	H	0.264037	0.524318	0.283227
	H293	H	0.256156	0.524512	0.281550
	O294	O	1.296470	0.294814	1.324040
	H295	H	1.315844	0.301340	1.345550
	H296	H	1.303156	0.325185	1.340308
	O297	O	0.680050	0.464586	0.321954
	H298	H	0.683728	0.485820	0.320775
	H299	H	0.678481	0.470958	0.332386
	O300	O	-0.033050	0.007463	1.203117
	H301	H	-0.019041	0.001496	1.208037
	H302	H	-0.023066	0.035050	1.216165
	O303	O	0.438336	0.418133	0.544249
	H304	H	0.433336	0.404897	0.543808
	H305	H	0.434220	0.417274	0.546078
	O306	O	0.570149	0.685574	0.391847
	H307	H	0.567636	0.685505	0.382586
	H308	H	0.558366	0.676592	0.386096
	O309	O	0.261138	0.454950	0.717043
	H310	H	0.243965	0.433682	0.730588
	H311	H	0.250794	0.426531	0.715427
	O312	O	0.410750	0.576913	0.586240
	H313	H	0.412951	0.569931	0.578968
	H314	H	0.410514	0.556823	0.570766
	O315	O	0.784202	1.172490	1.183072
	H316	H	0.805705	1.168126	1.169214
	H317	H	0.798680	1.143028	1.174906
	O318	O	-0.032300	0.189730	0.784489
	H319	H	-0.057084	0.175982	0.798418
	H320	H	-0.058038	0.213661	0.764770
	O321	O	0.695588	0.500166	0.714224
	H322	H	0.700644	0.516877	0.711165
	H323	H	0.714959	0.520614	0.725712
	O324	O	0.935448	1.147523	0.083805
	H325	H	0.942983	1.152744	0.087124
	H326	H	0.944703	1.158629	0.080543
	O327	O	-0.031412	0.203370	0.997979
	H328	H	-0.024449	0.196313	0.992471
	H329	H	-0.015116	0.201672	0.994040
	O330	O	0.139995	0.934329	-0.169611
	H331	H	0.158147	0.931932	-0.196961
	H332	H	0.112868	0.944569	-0.167910
	O333	O	0.936298	0.128147	0.945668
	H334	H	0.938576	0.111956	0.930803
	H335	H	0.945047	0.126502	0.945042
	O336	O	0.434239	0.262349	0.720103
	H337	H	0.463936	0.277776	0.709754
	H338	H	0.448939	0.233177	0.742589
	O339	O	0.915159	-0.084954	0.951495
	H340	H	0.891998	-0.086125	0.954932
	H341	H	0.909415	-0.093072	0.932387
	O342	O	0.269452	0.609654	0.514077
	H343	H	0.261434	0.582478	0.523807
	H344	H	0.268209	0.615698	0.507830
	O345	O	-0.241270	1.019701	0.773150
	H346	H	-0.252582	1.036472	0.764252
	H347	H	-0.259594	1.023827	0.770705
	O348	O	0.452248	0.480444	0.723553
	H349	H	0.436401	0.473412	0.711415
	H350	H	0.453293	0.482010	0.728112
	O351	O	0.033939	0.780658	0.042848
	H352	H	0.012280	0.781243	0.025274
	H353	H	0.021888	0.783094	0.046545
	O354	O	0.197791	0.207800	1.039057
	H355	H	0.200864	0.203373	1.038781
	H356	H	0.216218	0.226615	1.055365
	O357	O	0.436513	0.596443	0.626523
	H358	H	0.427310	0.590035	0.630283
	H359	H	0.425390	0.595388	0.602683
	O360	O	0.472118	0.564829	0.518902
	H361	H	0.470586	0.566387	0.513280
	H362	H	0.461986	0.557999	0.507526
	O363	O	0.287569	0.464018	-0.333767
	H364	H	0.269105	0.450827	-0.310257
	H365	H	0.319752	0.447421	-0.327698
	O366	O	0.338551	0.460045	0.363467
	H367	H	0.337324	0.463327	0.360713
	H368	H	0.328895	0.472715	0.362558
	O369	O	1.172054	-0.216311	-0.201443
	H370	H	1.165654	-0.184132	-0.195645
	H371	H	1.187457	-0.220409	-0.198339
	O372	O	1.157619	0.971947	0.016538
	H373	H	1.161136	0.954575	-0.000107
	H374	H	1.143134	0.972001	0.022200
	O375	O	0.779427	-0.165682	0.200019
	H376	H	0.773331	-0.143438	0.193931
	H377	H	0.770832	-0.155704	0.220555
	O378	O	0.329918	0.601376	0.353934
	H379	H	0.317605	0.612940	0.346964
	H380	H	0.337717	0.591222	0.359904
	O381	O	0.042639	1.030707	0.773025
	H382	H	0.015867	1.040687	0.773753
	H383	H	0.026940	1.017987	0.768369
	O384	O	1.028027	-0.019231	0.988607
	H385	H	1.026084	-0.027203	0.995764
	H386	H	1.028959	-0.006485	0.990030
	O387	O	0.946183	0.763631	0.214488
	H388	H	0.935911	0.747843	0.238371
	H389	H	0.930072	0.757999	0.207686
	O390	O	0.922635	0.927342	0.208088
	H391	H	0.947482	0.936220	0.199639
	H392	H	0.909074	0.913675	0.217826
	O393	O	0.682976	0.277344	0.294738
	H394	H	0.681666	0.311312	0.297904
	H395	H	0.705133	0.259401	0.265038
	O396	O	0.173020	1.119204	0.857770
	H397	H	0.153924	1.105010	0.864520
	H398	H	0.166706	1.091743	0.866820
	O399	O	0.185663	0.030954	1.209875
	H400	H	0.193689	0.030114	1.214199
	H401	H	0.189870	0.028167	1.201388
	O402	O	0.528650	-0.487611	0.308930
	H403	H	0.519155	-0.483368	0.298401
	H404	H	0.531124	-0.501777	0.310570
	O405	O	1.756131	0.761874	0.034437
	H406	H	1.731442	0.737813	0.040773
	H407	H	1.756515	0.767754	0.061325
	O408	O	0.125778	-0.108043	0.077429
	H409	H	0.127876	-0.119502	0.066868
	H410	H	0.120117	-0.109212	0.062731
	O411	O	1.004589	0.764073	0.785669
	H412	H	1.024142	0.767064	0.791226
	H413	H	1.015670	0.742664	0.769884
	O414	O	0.442034	0.702458	0.280756
	H415	H	0.422597	0.700367	0.275967
	H416	H	0.428469	0.720882	0.265563
	O417	O	0.829721	0.985118	0.149146
	H418	H	0.850574	0.985457	0.136888
	H419	H	0.842367	0.981283	0.146346
	O420	O	0.681451	0.649867	0.559118
	H421	H	0.665802	0.652565	0.553949
	H422	H	0.673900	0.649367	0.531101
	O423	O	0.042612	-0.016144	1.084630
	H424	H	0.043123	-0.022037	1.087497
	H425	H	0.033312	-0.017063	1.090747
	O426	O	0.510495	0.683251	0.702041
	H427	H	0.495906	0.693784	0.691100
	H428	H	0.490047	0.658623	0.718246
	O429	O	1.015539	1.209563	1.224142
	H430	H	1.053245	1.207468	1.226517
	H431	H	1.023822	1.238338	1.251498
	O432	O	0.594341	0.515988	0.515040
	H433	H	0.597052	0.503884	0.507381
	H434	H	0.595298	0.520068	0.508677
	O435	O	-0.644869	0.594838	-0.592682
	H436	H	-0.648349	0.593199	-0.571999
	H437	H	-0.645291	0.583259	-0.597122
	O438	O	-0.242204	0.004743	-0.013294
	H439	H	-0.241997	-0.022541	-0.026133
	H440	H	-0.244816	0.017100	-0.015773
	O441	O	-0.165425	-0.241582	-0.144406
	H442	H	-0.181414	-0.253332	-0.152471
	H443	H	-0.171251	-0.245284	-0.156472
	O444	O	0.379997	0.351362	0.498867
	H445	H	0.397309	0.342150	0.487942
	H446	H	0.370788	0.340499	0.502281
	O447	O	0.227428	1.233470	0.745854
	H448	H	0.227759	1.219941	0.759798
	H449	H	0.223932	1.207359	0.770244
	O450	O	-0.304575	1.265079	1.466526
	H451	H	-0.285797	1.242671	1.455766
	H452	H	-0.301150	1.272280	1.443247
	O453	O	0.753992	0.758542	0.686941
	H454	H	0.744709	0.754704	0.675479
	H455	H	0.730431	0.764131	0.675700
	O456	O	0.704478	0.711171	1.277202
	H457	H	0.697487	0.711553	1.285567
	H458	H	0.706806	0.709615	1.285460
	O459	O	1.188129	0.767757	-0.032068
	H460	H	1.165191	0.760080	-0.037710
	H461	H	1.207668	0.748996	-0.035153
	O462	O	0.694997	0.568806	0.488438
	H463	H	0.693646	0.570430	0.486348
	H464	H	0.688156	0.571821	0.497468
	O465	O	1.399328	0.472706	0.418448
	H466	H	1.389819	0.463239	0.421486
	H467	H	1.391009	0.469194	0.409475
	O468	O	0.557935	0.397848	0.452757
	H469	H	0.558046	0.401958	0.462131
	H470	H	0.573629	0.402248	0.457951
	O471	O	0.770778	0.189056	0.788544
	H472	H	0.766113	0.179921	0.825486
	H473	H	0.747760	0.207127	0.775814
	O474	O	0.469382	0.401449	0.498913
	H475	H	0.472446	0.389694	0.509714
	H476	H	0.458797	0.399559	0.507177
	O477	O	1.085002	0.017538	1.873330
	H478	H	1.083429	0.006265	1.871420
	H479	H	1.096988	0.014710	1.882635
	O480	O	0.189002	0.773714	0.213791
	H481	H	0.203106	0.779920	0.217674
	H482	H	0.168172	0.780738	0.181072
	O483	O	-0.242594	1.179026	-0.027083
	H484	H	-0.230012	1.188095	-0.012146
	H485	H	-0.248008	1.189994	-0.019167
	O486	O	0.851801	-0.138724	0.796222
	H487	H	0.830542	-0.142881	0.788264
	H488	H	0.847824	-0.152704	0.789624
	O489	O	1.507595	0.259817	0.280477
	H490	H	1.507622	0.229324	0.248999
	H491	H	1.536719	0.264707	0.295829
