data_Molecule from HDF5

_cell_length_a		16.369106
_cell_length_b		16.514502
_cell_length_c		16.414108
_cell_angle_alpha	90.043404
_cell_angle_beta	89.789985
_cell_angle_gamma	89.818562
_symmetry_space_group_name_H-M	'P 1'
_symmetry_Int_Tables_number		1

loop_
	_symmetry_equiv_pos_as_xyz
	x,y,z

loop_
	_atom_site_label
	_atom_site_type_symbol
	_atom_site_fract_x
	_atom_site_fract_y
	_atom_site_fract_z
	H0	H	0.404123	0.838339	0.730057
	H1	H	0.615670	0.152197	0.732838
	H2	H	0.621028	0.840736	0.282047
	H3	H	0.400304	0.152169	0.284246
	H4	H	0.733258	0.389071	0.852028
	H5	H	0.734973	0.605320	0.166649
	H6	H	0.290945	0.600517	0.851288
	H7	H	0.287479	0.391299	0.168701
	H8	H	0.852522	0.722465	0.397030
	H9	H	0.165250	0.719476	0.614422
	H10	H	0.850126	0.275307	0.616140
	H11	H	0.166589	0.272899	0.400453
	H12	H	0.850228	0.391641	0.731572
	H13	H	0.167907	0.599937	0.726833
	H14	H	0.853717	0.607878	0.281345
	H15	H	0.168374	0.390297	0.286318
	H16	H	0.403938	0.718474	0.852794
	H17	H	0.620319	0.721617	0.166299
	H18	H	0.618832	0.272420	0.853413
	H19	H	0.401102	0.273212	0.167864
	H20	H	0.736459	0.840706	0.398175
	H21	H	0.731052	0.153359	0.615289
	H22	H	0.283919	0.841279	0.617561
	H23	H	0.286433	0.153848	0.402637
	H24	H	0.900744	0.341458	0.235034
	H25	H	0.118543	0.652500	0.234179
	H26	H	0.112937	0.338059	0.788553
	H27	H	0.901165	0.654116	0.786063
	H28	H	0.234835	0.888190	0.351946
	H29	H	0.227128	0.101573	0.666904
	H30	H	0.785259	0.103833	0.350804
	H31	H	0.787160	0.890407	0.666183
	H32	H	0.353123	0.219810	0.902442
	H33	H	0.668528	0.219155	0.118006
	H34	H	0.352072	0.773739	0.116921
	H35	H	0.666845	0.767110	0.896924
	H36	H	0.352358	0.888831	0.233064
	H37	H	0.668532	0.101844	0.231746
	H38	H	0.349811	0.098178	0.791980
	H39	H	0.667160	0.884497	0.781881
	H40	H	0.898279	0.221605	0.351133
	H41	H	0.112141	0.218505	0.664934
	H42	H	0.119785	0.771540	0.351436
	H43	H	0.898943	0.771852	0.664654
	H44	H	0.229801	0.337911	0.905463
	H45	H	0.232143	0.653635	0.116212
	H46	H	0.785829	0.340180	0.118721
	H47	H	0.783989	0.652253	0.900653
	H48	H	0.413683	0.112528	0.603942
	H49	H	0.600983	0.882558	0.597636
	H50	H	0.590711	0.106539	0.418635
	H51	H	0.420024	0.886855	0.429757
	H52	H	0.601604	0.403779	0.125430
	H53	H	0.589886	0.575168	0.903427
	H54	H	0.414912	0.582975	0.125179
	H55	H	0.418707	0.408341	0.897595
	H56	H	0.117171	0.576141	0.424991
	H57	H	0.895533	0.589446	0.589542
	H58	H	0.120504	0.409903	0.594816
	H59	H	0.896408	0.408539	0.422171
	H60	H	0.123619	0.406662	0.600421
	H61	H	0.897417	0.577081	0.596014
	H62	H	0.124214	0.584578	0.414224
	H63	H	0.897251	0.412016	0.422379
	H64	H	0.425546	0.580242	0.120266
	H65	H	0.592086	0.590342	0.897681
	H66	H	0.598840	0.413276	0.121842
	H67	H	0.425190	0.408308	0.898677
	H68	H	0.597084	0.106295	0.426945
	H69	H	0.593620	0.884327	0.598191
	H70	H	0.423865	0.108695	0.604522
	H71	H	0.417229	0.881619	0.417467
	H72	H	0.928181	0.605685	0.095207
	H73	H	0.100914	0.382007	0.101521
	H74	H	0.108538	0.610413	0.921385
	H75	H	0.917068	0.384954	0.926769
	H76	H	0.091530	0.906182	0.619936
	H77	H	0.098847	0.083205	0.394347
	H78	H	0.919525	0.087994	0.621629
	H79	H	0.927055	0.905158	0.395810
	H80	H	0.622158	0.082424	0.923493
	H81	H	0.399857	0.088409	0.088344
	H82	H	0.624595	0.904542	0.096453
	H83	H	0.399631	0.908415	0.921987
	H84	H	0.619407	0.909421	0.089905
	H85	H	0.398782	0.075860	0.099129
	H86	H	0.624250	0.082386	0.919962
	H87	H	0.397340	0.906779	0.920619
	H88	H	0.918758	0.085105	0.620646
	H89	H	0.094389	0.084598	0.395258
	H90	H	0.097658	0.907730	0.621676
	H91	H	0.918837	0.910706	0.394345
	H92	H	0.100763	0.612404	0.909822
	H93	H	0.093034	0.386467	0.098236
	H94	H	0.923208	0.605188	0.089783
	H95	H	0.920932	0.380927	0.912792
	H96	H	0.418653	0.108489	0.594801
	H97	H	0.597235	0.885248	0.591881
	H98	H	0.600955	0.109501	0.418184
	H99	H	0.429179	0.887046	0.420333
	H100	H	0.591838	0.404978	0.121900
	H101	H	0.604510	0.579341	0.896407
	H102	H	0.423397	0.591169	0.124627
	H103	H	0.422317	0.402681	0.895621
	H104	H	0.121638	0.590321	0.428268
	H105	H	0.891743	0.588094	0.603292
	H106	H	0.122583	0.403088	0.594181
	H107	H	0.896001	0.411021	0.419556
	H108	H	0.921476	0.608546	0.096065
	H109	H	0.100916	0.385135	0.092622
	H110	H	0.094744	0.607805	0.921135
	H111	H	0.930684	0.388137	0.922011
	H112	H	0.094070	0.912255	0.618639
	H113	H	0.097513	0.087515	0.393165
	H114	H	0.921917	0.086391	0.620260
	H115	H	0.926945	0.914632	0.398770
	H116	H	0.624182	0.085264	0.922256
	H117	H	0.393513	0.090455	0.103541
	H118	H	0.621650	0.913608	0.097858
	H119	H	0.398101	0.905825	0.923219
	C120	C	0.386123	0.005610	0.632321
	C121	C	0.630459	0.987678	0.629773
	C122	C	0.631602	0.004799	0.386645
	C123	C	0.388075	0.988265	0.388116
	C124	C	0.631622	0.374283	0.019084
	C125	C	0.630861	0.616902	1.001939
	C126	C	0.389124	0.617325	0.018760
	C127	C	0.388617	0.374291	1.001805
	C128	C	0.018037	0.618705	0.386814
	C129	C	0.999507	0.617857	0.629118
	C130	C	0.017016	0.375144	0.629711
	C131	C	1.000793	0.376235	0.387328
	C132	C	0.889015	0.504596	0.129846
	C133	C	0.131551	0.488240	0.130707
	C134	C	0.131982	0.505055	0.886334
	C135	C	0.888389	0.488292	0.887182
	C136	C	0.129900	0.875089	0.516664
	C137	C	0.128600	0.117463	0.499096
	C138	C	0.886654	0.119060	0.516686
	C139	C	0.888788	0.875704	0.499763
	C140	C	0.518622	0.116246	0.888999
	C141	C	0.501805	0.117484	0.130728
	C142	C	0.518415	0.875131	0.129954
	C143	C	0.502132	0.872775	0.887197
	C144	C	0.384540	0.886408	0.691203
	C145	C	0.633690	0.105353	0.691878
	C146	C	0.637334	0.887508	0.323237
	C147	C	0.383580	0.105616	0.325617
	C148	C	0.692862	0.371171	0.899934
	C149	C	0.693981	0.621959	0.119496
	C150	C	0.329952	0.619435	0.899290
	C151	C	0.327253	0.372528	0.120964
	C152	C	0.899978	0.681937	0.380506
	C153	C	0.118273	0.678722	0.632102
	C154	C	0.897482	0.315659	0.633355
	C155	C	0.119207	0.313608	0.382818
	C156	C	0.897984	0.373212	0.691384
	C157	C	0.119426	0.619434	0.688196
	C158	C	0.900411	0.624314	0.322940
	C159	C	0.120397	0.372217	0.326101
	C160	C	0.386208	0.678266	0.900080
	C161	C	0.636681	0.680200	0.119375
	C162	C	0.635777	0.313164	0.900336
	C163	C	0.384061	0.313602	0.120519
	C164	C	0.694972	0.887504	0.381308
	C165	C	0.690970	0.105938	0.633077
	C166	C	0.324959	0.887845	0.634958
	C167	C	0.326539	0.106410	0.384621
	C168	C	0.883582	0.388134	0.193882
	C169	C	0.135518	0.605852	0.192803
	C170	C	0.132610	0.385797	0.827572
	C171	C	0.884173	0.606571	0.826496
	C172	C	0.193290	0.871029	0.398737
	C173	C	0.187836	0.119915	0.618775
	C174	C	0.825628	0.121769	0.398094
	C175	C	0.826541	0.872146	0.618339
	C176	C	0.399881	0.178121	0.885671
	C177	C	0.620677	0.179015	0.135184
	C178	C	0.399620	0.813957	0.134335
	C179	C	0.620091	0.809228	0.881173
	C180	C	0.399778	0.871469	0.192295
	C181	C	0.620955	0.120342	0.191819
	C182	C	0.398407	0.117835	0.830368
	C183	C	0.620196	0.867730	0.823745
	C184	C	0.882010	0.180570	0.398325
	C185	C	0.130682	0.178136	0.618118
	C186	C	0.135980	0.812907	0.398453
	C187	C	0.882688	0.813021	0.617563
	C188	C	0.190371	0.385563	0.886037
	C189	C	0.192679	0.606008	0.134361
	C190	C	0.826265	0.387522	0.135688
	C191	C	0.825425	0.605660	0.883572
	C192	C	0.411362	0.088245	0.607849
	C193	C	0.604842	0.905475	0.603408
	C194	C	0.604057	0.085939	0.413456
	C195	C	0.414529	0.906558	0.414893
	C196	C	0.605198	0.400065	0.101627
	C197	C	0.603401	0.589526	0.920426
	C198	C	0.414225	0.592076	0.101897
	C199	C	0.414600	0.399363	0.918865
	C200	C	0.099547	0.591429	0.414514
	C201	C	0.916706	0.592353	0.603621
	C202	C	0.100311	0.399520	0.603740
	C203	C	0.918339	0.402827	0.413719
	C204	C	0.916403	0.585588	0.101917
	C205	C	0.105590	0.406126	0.104805
	C206	C	0.108200	0.588408	0.910468
	C207	C	0.915233	0.406071	0.913130
	C208	C	0.102358	0.901114	0.598616
	C209	C	0.103885	0.092320	0.416021
	C210	C	0.912667	0.093662	0.599379
	C211	C	0.916428	0.902522	0.417716
	C212	C	0.601831	0.090634	0.914449
	C213	C	0.419074	0.092045	0.104538
	C214	C	0.600776	0.901505	0.102562
	C215	C	0.419845	0.899341	0.914304
	Zn216	Zn	0.509588	-0.004519	0.759601
	Zn217	Zn	0.509590	-0.003804	0.258669
	Zn218	Zn	0.759936	0.495996	0.009437
	Zn219	Zn	0.260445	0.495942	0.009495
	Zn220	Zn	0.008754	0.746565	0.507637
	Zn221	Zn	0.007582	0.247188	0.507619
	Zn222	Zn	0.009060	0.496703	0.757926
	Zn223	Zn	0.009850	0.496807	0.259198
	Zn224	Zn	0.510468	0.745643	0.010184
	Zn225	Zn	0.510048	0.245906	0.010210
	Zn226	Zn	0.759814	-0.003740	0.508481
	Zn227	Zn	0.258060	-0.003001	0.508962
	N228	N	0.421899	0.960688	0.689704
	N229	N	0.597117	0.030685	0.690049
	N230	N	0.598586	0.961446	0.326411
	N231	N	0.420882	0.030943	0.327384
	N232	N	0.690442	0.408508	0.974648
	N233	N	0.690509	0.583312	0.045414
	N234	N	0.331413	0.582349	0.974157
	N235	N	0.330162	0.409651	0.046060
	N236	N	0.974057	0.678650	0.419585
	N237	N	0.042632	0.678028	0.596284
	N238	N	0.972515	0.316842	0.595344
	N239	N	0.043867	0.315808	0.419947
	N240	N	0.973220	0.409602	0.689132
	N241	N	0.044443	0.582467	0.686718
	N242	N	0.974700	0.585627	0.326701
	N243	N	0.045590	0.410178	0.328546
	N244	N	0.421899	0.677296	0.975649
	N245	N	0.598412	0.677314	0.045233
	N246	N	0.598381	0.314915	0.975448
	N247	N	0.421591	0.314600	0.045479
	N248	N	0.691692	0.961269	0.419997
	N249	N	0.689124	0.031593	0.595334
	N250	N	0.325603	0.963061	0.599256
	N251	N	0.329287	0.032364	0.422720
	N252	N	0.921836	0.462015	0.190380
	N253	N	0.098172	0.531615	0.190650
	N254	N	0.097293	0.461246	0.827488
	N255	N	0.922656	0.532487	0.828857
	N256	N	0.189885	0.908880	0.473167
	N257	N	0.186700	0.083053	0.543771
	N258	N	0.828274	0.084288	0.472695
	N259	N	0.830268	0.910311	0.543806
	N260	N	0.475843	0.177328	0.921345
	N261	N	0.545356	0.177500	0.098118
	N262	N	0.474542	0.816136	0.096271
	N263	N	0.545652	0.812468	0.920153
	N264	N	0.474719	0.908669	0.189695
	N265	N	0.546123	0.083179	0.189493
	N266	N	0.473410	0.080136	0.832234
	N267	N	0.545994	0.906712	0.827456
	N268	N	0.918970	0.179108	0.473239
	N269	N	0.094638	0.176827	0.542666
	N270	N	0.097216	0.815282	0.472840
	N271	N	0.920337	0.815116	0.542847
	N272	N	0.190401	0.460907	0.921616
	N273	N	0.190217	0.531911	0.096263
	N274	N	0.829637	0.460913	0.096481
	N275	N	0.828081	0.531108	0.920724
	O276	O	-0.177263	0.186868	-0.185450
	H277	H	-0.151241	0.195117	-0.173162
	H278	H	-0.158869	0.191985	-0.157580
	O279	O	0.820911	-0.195858	1.129795
	H280	H	0.836694	-0.177025	1.154844
	H281	H	0.825257	-0.194648	1.144381
	O282	O	0.668729	0.463888	0.551826
	H283	H	0.661267	0.454045	0.566750
	H284	H	0.674534	0.451351	0.563714
	O285	O	0.359072	0.641948	0.698230
	H286	H	0.373403	0.614130	0.699256
	H287	H	0.346120	0.633758	0.678570
	O288	O	1.205025	0.799125	-0.181758
	H289	H	1.184272	0.824311	-0.192671
	H290	H	1.196848	0.778674	-0.207549
	O291	O	-0.076933	-0.035188	0.149559
	H292	H	-0.068033	-0.052568	0.152939
	H293	H	-0.067669	-0.056686	0.143742
	O294	O	-0.001026	0.069241	1.145128
	H295	H	0.022856	0.062206	1.149475
	H296	H	0.002490	0.081387	1.152072
	O297	O	0.329829	0.674039	0.337441
	H298	H	0.317253	0.639271	0.338688
	H299	H	0.365162	0.676424	0.323681
	O300	O	0.488192	0.708035	0.295720
	H301	H	0.493595	0.716425	0.299680
	H302	H	0.495579	0.727811	0.291362
	O303	O	0.349286	0.423738	0.440174
	H304	H	0.359055	0.409554	0.431824
	H305	H	0.358192	0.435166	0.459779
	O306	O	0.388990	0.457596	0.392610
	H307	H	0.404979	0.476451	0.388340
	H308	H	0.395597	0.449683	0.386998
	O309	O	0.323875	0.305436	0.700214
	H310	H	0.320123	0.282816	0.707508
	H311	H	0.340055	0.300485	0.674766
	O312	O	0.226093	0.779808	0.982030
	H313	H	0.254058	0.753218	0.968364
	H314	H	0.223138	0.778955	0.939255
	O315	O	0.725809	0.474915	0.299336
	H316	H	0.738949	0.468260	0.278521
	H317	H	0.716015	0.477351	0.290264
	O318	O	0.578118	0.695173	0.418080
	H319	H	0.544956	0.692996	0.442806
	H320	H	0.603428	0.683785	0.425575
	O321	O	-0.054463	0.019696	0.077276
	H322	H	-0.034393	0.022732	0.062761
	H323	H	-0.052092	0.005486	0.061773
	O324	O	0.723600	0.715852	0.532750
	H325	H	0.754521	0.745133	0.529421
	H326	H	0.724314	0.692278	0.505634
	O327	O	0.559820	0.523117	0.502841
	H328	H	0.566270	0.538989	0.502091
	H329	H	0.575204	0.516471	0.509792
	O330	O	0.038614	0.780049	-0.205567
	H331	H	0.017509	0.773332	-0.217072
	H332	H	0.024510	0.784759	-0.218263
	O333	O	0.955888	-0.209341	0.938755
	H334	H	0.922160	-0.197291	0.944840
	H335	H	0.950417	-0.207430	0.917397
	O336	O	-0.098479	-0.053572	-0.159576
	H337	H	-0.120778	-0.046592	-0.160703
	H338	H	-0.107002	-0.037399	-0.150100
	O339	O	-0.166731	0.974500	1.204015
	H340	H	-0.180238	0.978779	1.213817
	H341	H	-0.154557	0.985093	1.209371
	O342	O	-0.031370	0.997712	0.974202
	H343	H	-0.013164	0.989705	1.001637
	H344	H	-0.063645	0.998796	0.982318
	O345	O	0.990612	1.153350	0.020676
	H346	H	0.987738	1.120267	0.026040
	H347	H	1.024672	1.153496	0.027894
	O348	O	0.713409	0.509891	0.720575
	H349	H	0.719430	0.522282	0.742002
	H350	H	0.716101	0.553876	0.721647
	O351	O	0.050989	1.011794	0.789069
	H352	H	0.055512	0.997728	0.792339
	H353	H	0.028221	1.004061	0.799532
	O354	O	0.225847	0.988526	0.129075
	H355	H	0.228363	0.999548	0.122465
	H356	H	0.214491	0.952631	0.121300
	O357	O	-0.040039	0.150870	1.127180
	H358	H	-0.023569	0.144243	1.111723
	H359	H	-0.044883	0.134575	1.121708
	O360	O	0.478287	0.277654	0.476032
	H361	H	0.479739	0.276690	0.458871
	H362	H	0.475761	0.278058	0.489764
	O363	O	0.057397	-0.180563	1.046650
	H364	H	0.060913	-0.184548	1.021137
	H365	H	0.058804	-0.196015	1.024919
	O366	O	0.792135	1.017510	-0.209363
	H367	H	0.794196	1.061160	-0.209210
	H368	H	0.759672	1.018442	-0.224026
	O369	O	0.716809	0.302188	0.494245
	H370	H	0.701355	0.301470	0.517996
	H371	H	0.737482	0.271150	0.488821
	O372	O	0.614325	0.337118	0.646097
	H373	H	0.619619	0.333112	0.653036
	H374	H	0.613545	0.358138	0.655219
	O375	O	0.513647	0.289265	0.679374
	H376	H	0.516779	0.271837	0.699748
	H377	H	0.524984	0.303071	0.679869
	O378	O	0.304096	0.704197	0.496494
	H379	H	0.309292	0.695339	0.479229
	H380	H	0.288899	0.720694	0.479080
	O381	O	1.295060	0.465272	0.727157
	H382	H	1.284075	0.435604	0.730514
	H383	H	1.279412	0.442446	0.740904
	O384	O	0.522084	0.692993	0.708909
	H385	H	0.504588	0.663629	0.704462
	H386	H	0.512239	0.704384	0.724729
	O387	O	-0.012076	0.181421	0.811102
	H388	H	-0.006004	0.183395	0.815909
	H389	H	0.009145	0.171400	0.831465
	O390	O	-0.519584	-0.310112	-0.453745
	H391	H	-0.536073	-0.311265	-0.452094
	H392	H	-0.522885	-0.321624	-0.437942
	O393	O	1.150260	1.056462	0.843447
	H394	H	1.162636	1.032841	0.852337
	H395	H	1.156496	1.061475	0.842041
	O396	O	1.158809	-0.028385	0.213414
	H397	H	1.164461	-0.055838	0.207948
	H398	H	1.162852	-0.028590	0.193413
	O399	O	0.943922	-0.201839	1.206972
	H400	H	0.954115	-0.201296	1.199552
	H401	H	0.969544	-0.219261	1.211125
	O402	O	1.197393	1.129118	0.879334
	H403	H	1.186193	1.125796	0.871613
	H404	H	1.180740	1.115002	0.890514
	O405	O	1.028544	1.201449	0.224710
	H406	H	1.027510	1.227752	0.243715
	H407	H	1.007090	1.197734	0.215584
	O408	O	0.802475	0.208857	-0.018416
	H409	H	0.786208	0.207589	-0.006013
	H410	H	0.804753	0.220296	-0.000390
	O411	O	0.532175	1.284847	0.300785
	H412	H	0.553610	1.285807	0.304072
	H413	H	0.531435	1.282855	0.273356
	O414	O	0.415483	0.545291	0.456829
	H415	H	0.417859	0.539338	0.470490
	H416	H	0.407422	0.560550	0.458308
	O417	O	0.568282	0.497278	0.414691
	H418	H	0.560571	0.513327	0.411047
	H419	H	0.569189	0.498305	0.428727
	O420	O	0.209355	0.175722	0.019063
	H421	H	0.209805	0.141757	0.040477
	H422	H	0.226656	0.197252	0.041857
	O423	O	-0.203046	0.831511	-0.000839
	H424	H	-0.213624	0.811916	0.012465
	H425	H	-0.202344	0.829729	0.027671
	O426	O	0.685040	0.322321	0.346193
	H427	H	0.674066	0.357709	0.341288
	H428	H	0.690259	0.303936	0.379316
	O429	O	0.687390	0.669896	0.692554
	H430	H	0.643296	0.682155	0.693746
	H431	H	0.690414	0.685516	0.647967
	O432	O	0.528022	0.465338	0.597056
	H433	H	0.561288	0.476747	0.598627
	H434	H	0.514974	0.472163	0.585846
	O435	O	0.467581	0.464536	0.710167
	H436	H	0.470166	0.447255	0.721557
	H437	H	0.450407	0.449370	0.695386
	O438	O	0.634798	0.537235	-0.547288
	H439	H	0.634321	0.520617	-0.539080
	H440	H	0.642783	0.511017	-0.552582
	O441	O	1.197015	0.165890	0.171501
	H442	H	1.162199	0.178713	0.189766
	H443	H	1.202554	0.119737	0.188931
	O444	O	-0.089462	0.944431	1.078794
	H445	H	-0.094282	0.917071	1.081767
	H446	H	-0.084299	0.940306	1.050910
	O447	O	0.305853	0.516633	0.308100
	H448	H	0.316672	0.498216	0.314391
	H449	H	0.291872	0.502940	0.301411
	O450	O	0.226108	0.989656	0.906490
	H451	H	0.229045	0.998853	0.894347
	H452	H	0.224447	0.981330	0.892171
	O453	O	0.304023	0.286938	0.533757
	H454	H	0.297169	0.271749	0.523259
	H455	H	0.308662	0.285079	0.535096
