data_Molecule from HDF5

_cell_length_a		16.193266
_cell_length_b		16.346244
_cell_length_c		16.192431
_cell_angle_alpha	89.987262
_cell_angle_beta	89.949172
_cell_angle_gamma	90.379689
_symmetry_space_group_name_H-M	'P 1'
_symmetry_Int_Tables_number		1

loop_
	_symmetry_equiv_pos_as_xyz
	x,y,z

loop_
	_atom_site_label
	_atom_site_type_symbol
	_atom_site_fract_x
	_atom_site_fract_y
	_atom_site_fract_z
	H0	H	0.405167	0.835873	0.715537
	H1	H	0.604225	0.162204	0.715643
	H2	H	0.601962	0.835601	0.286648
	H3	H	0.408017	0.162553	0.284606
	H4	H	0.720769	0.401984	0.836037
	H5	H	0.721119	0.596122	0.166016
	H6	H	0.295300	0.595877	0.835998
	H7	H	0.292995	0.400523	0.164693
	H8	H	0.841177	0.713813	0.400332
	H9	H	0.168697	0.718295	0.601278
	H10	H	0.842476	0.283388	0.601850
	H11	H	0.169349	0.284814	0.399198
	H12	H	0.841853	0.401329	0.715107
	H13	H	0.171323	0.599184	0.712483
	H14	H	0.841483	0.595664	0.286581
	H15	H	0.171842	0.404118	0.288484
	H16	H	0.409159	0.712491	0.836378
	H17	H	0.609315	0.715269	0.164627
	H18	H	0.608932	0.282880	0.836998
	H19	H	0.408107	0.284791	0.165233
	H20	H	0.718952	0.835853	0.402099
	H21	H	0.720438	0.162611	0.599566
	H22	H	0.288992	0.837086	0.598724
	H23	H	0.293381	0.163757	0.401677
	H24	H	0.908673	0.335964	0.214625
	H25	H	0.108193	0.663043	0.215145
	H26	H	0.105182	0.336915	0.784207
	H27	H	0.909917	0.663319	0.787220
	H28	H	0.218374	0.903191	0.335990
	H29	H	0.218397	0.098520	0.665664
	H30	H	0.792953	0.096933	0.335232
	H31	H	0.791105	0.902073	0.664962
	H32	H	0.343158	0.212954	0.901426
	H33	H	0.670791	0.214792	0.101093
	H34	H	0.344061	0.780544	0.101240
	H35	H	0.671886	0.786125	0.901094
	H36	H	0.340949	0.899451	0.213140
	H37	H	0.670939	0.096513	0.214268
	H38	H	0.341016	0.094283	0.789913
	H39	H	0.670545	0.901882	0.785770
	H40	H	0.906497	0.214436	0.336235
	H41	H	0.105810	0.216490	0.663825
	H42	H	0.103477	0.786236	0.336740
	H43	H	0.903019	0.783986	0.664149
	H44	H	0.219942	0.335350	0.902607
	H45	H	0.225223	0.661462	0.099493
	H46	H	0.791784	0.335992	0.100135
	H47	H	0.792695	0.662114	0.902588
	H48	H	0.410541	0.116270	0.593415
	H49	H	0.594092	0.882471	0.598558
	H50	H	0.607362	0.118376	0.404798
	H51	H	0.416674	0.884772	0.406899
	H52	H	0.597803	0.406612	0.117369
	H53	H	0.597511	0.590544	0.884521
	H54	H	0.415382	0.584835	0.115889
	H55	H	0.411076	0.404831	0.882193
	H56	H	0.126560	0.603962	0.405854
	H57	H	0.889289	0.595100	0.587435
	H58	H	0.120673	0.418005	0.594303
	H59	H	0.890963	0.410222	0.411049
	H60	H	0.127014	0.401055	0.598187
	H61	H	0.890625	0.585823	0.594403
	H62	H	0.120587	0.593326	0.417450
	H63	H	0.886946	0.407218	0.402937
	H64	H	0.421033	0.593539	0.117247
	H65	H	0.599762	0.597107	0.882184
	H66	H	0.598810	0.402885	0.118531
	H67	H	0.417210	0.408406	0.884157
	H68	H	0.592467	0.115127	0.401645
	H69	H	0.593250	0.886306	0.588143
	H70	H	0.411944	0.117134	0.598185
	H71	H	0.409327	0.885020	0.414269
	H72	H	0.913505	0.614531	0.089270
	H73	H	0.095776	0.385908	0.090651
	H74	H	0.103591	0.617208	0.904942
	H75	H	0.912179	0.382859	0.906099
	H76	H	0.089245	0.898130	0.618033
	H77	H	0.093438	0.092637	0.384908
	H78	H	0.917679	0.098162	0.618308
	H79	H	0.917598	0.898618	0.382443
	H80	H	0.624569	0.091150	0.905804
	H81	H	0.387639	0.091137	0.097630
	H82	H	0.623527	0.906588	0.094953
	H83	H	0.385450	0.905454	0.895882
	H84	H	0.624576	0.906340	0.094303
	H85	H	0.387386	0.097255	0.091394
	H86	H	0.625465	0.096128	0.908787
	H87	H	0.387620	0.891637	0.915445
	H88	H	0.906749	0.093288	0.619993
	H89	H	0.099182	0.098525	0.381536
	H90	H	0.108808	0.906522	0.621537
	H91	H	0.904028	0.907199	0.380378
	H92	H	0.099945	0.614648	0.906598
	H93	H	0.106730	0.382353	0.092510
	H94	H	0.911005	0.616982	0.096912
	H95	H	0.916360	0.383769	0.906894
	H96	H	0.415025	0.115247	0.594167
	H97	H	0.603229	0.882276	0.592256
	H98	H	0.597644	0.112111	0.416361
	H99	H	0.407616	0.882059	0.404793
	H100	H	0.601980	0.406182	0.117464
	H101	H	0.603865	0.590141	0.883538
	H102	H	0.412071	0.594139	0.120214
	H103	H	0.417516	0.401175	0.881770
	H104	H	0.122381	0.588543	0.403108
	H105	H	0.885744	0.595863	0.598929
	H106	H	0.121027	0.405114	0.581233
	H107	H	0.888266	0.401220	0.410052
	H108	H	0.918472	0.614807	0.095247
	H109	H	0.098551	0.380803	0.101490
	H110	H	0.103273	0.615569	0.909429
	H111	H	0.913287	0.383920	0.908864
	H112	H	0.093896	0.919447	0.614492
	H113	H	0.102222	0.090630	0.382732
	H114	H	0.915322	0.086627	0.614716
	H115	H	0.917059	0.914293	0.386672
	H116	H	0.623261	0.090489	0.910766
	H117	H	0.391238	0.088803	0.089710
	H118	H	0.623951	0.907375	0.094100
	H119	H	0.395531	0.913989	0.916829
	C120	C	0.382782	0.008313	0.623845
	C121	C	0.626489	0.991030	0.621999
	C122	C	0.627265	0.007541	0.378639
	C123	C	0.383485	0.991518	0.379148
	C124	C	0.628764	0.377358	0.009363
	C125	C	0.629081	0.620764	0.992489
	C126	C	0.387618	0.619364	0.009278
	C127	C	0.386176	0.376737	0.991790
	C128	C	0.014386	0.622350	0.379693
	C129	C	0.997082	0.621866	0.622201
	C130	C	0.014545	0.378879	0.621209
	C131	C	0.997464	0.378540	0.379150
	C132	C	0.885438	0.507454	0.122540
	C133	C	0.129852	0.490956	0.123426
	C134	C	0.129810	0.507849	0.878238
	C135	C	0.885654	0.491173	0.878781
	C136	C	0.125723	0.879802	0.509208
	C137	C	0.127202	0.122638	0.491674
	C138	C	0.884373	0.121397	0.508951
	C139	C	0.882933	0.877649	0.491646
	C140	C	0.515566	0.120279	0.879939
	C141	C	0.497667	0.120682	0.122182
	C142	C	0.515412	0.876805	0.122853
	C143	C	0.498128	0.876567	0.879741
	C144	C	0.384670	0.885248	0.678324
	C145	C	0.624956	0.113443	0.678025
	C146	C	0.623492	0.884300	0.324138
	C147	C	0.386998	0.113855	0.322967
	C148	C	0.683549	0.380803	0.885298
	C149	C	0.684054	0.617235	0.116553
	C150	C	0.332689	0.616590	0.885270
	C151	C	0.330654	0.379644	0.115734
	C152	C	0.890367	0.675854	0.381036
	C153	C	0.120278	0.679231	0.620930
	C154	C	0.891311	0.322150	0.621029
	C155	C	0.120864	0.323459	0.380182
	C156	C	0.890868	0.380718	0.677209
	C157	C	0.121467	0.619881	0.676117
	C158	C	0.890543	0.617378	0.324380
	C159	C	0.121930	0.382403	0.324819
	C160	C	0.389584	0.674285	0.885486
	C161	C	0.628566	0.676511	0.115851
	C162	C	0.627886	0.321508	0.885830
	C163	C	0.387796	0.322047	0.115839
	C164	C	0.681647	0.884583	0.381382
	C165	C	0.682513	0.113704	0.619902
	C166	C	0.327045	0.885703	0.620074
	C167	C	0.330183	0.114622	0.381186
	C168	C	0.887818	0.384783	0.177419
	C169	C	0.128197	0.613789	0.177699
	C170	C	0.126276	0.385441	0.822352
	C171	C	0.889045	0.614222	0.824360
	C172	C	0.180493	0.882872	0.385102
	C173	C	0.181856	0.119870	0.615939
	C174	C	0.830168	0.117969	0.384723
	C175	C	0.828210	0.880881	0.615698
	C176	C	0.391819	0.174820	0.881672
	C177	C	0.621568	0.176511	0.120881
	C178	C	0.392455	0.819601	0.120975
	C179	C	0.622417	0.823266	0.881092
	C180	C	0.390932	0.878664	0.176718
	C181	C	0.621636	0.117856	0.177199
	C182	C	0.390902	0.116146	0.826055
	C183	C	0.621899	0.880681	0.823991
	C184	C	0.886598	0.176519	0.385258
	C185	C	0.125607	0.178308	0.615121
	C186	C	0.123805	0.824347	0.385569
	C187	C	0.883984	0.822292	0.615264
	C188	C	0.183136	0.384481	0.881188
	C189	C	0.186451	0.613243	0.120340
	C190	C	0.829943	0.384777	0.120231
	C191	C	0.830975	0.613830	0.881781
	C192	C	0.405813	0.094221	0.601718
	C193	C	0.603642	0.905707	0.599484
	C194	C	0.605539	0.092896	0.400854
	C195	C	0.405002	0.906006	0.401862
	C196	C	0.606128	0.398892	0.095584
	C197	C	0.606874	0.599079	0.905732
	C198	C	0.409671	0.597422	0.095746
	C199	C	0.408484	0.398534	0.905187
	C200	C	0.100617	0.601558	0.402186
	C201	C	0.910844	0.599096	0.600080
	C202	C	0.100605	0.401547	0.598013
	C203	C	0.911038	0.399880	0.401526
	C204	C	0.907761	0.593459	0.100448
	C205	C	0.107175	0.405165	0.101374
	C206	C	0.108534	0.593541	0.900513
	C207	C	0.907423	0.405616	0.900809
	C208	C	0.103739	0.901701	0.595660
	C209	C	0.104858	0.100385	0.405397
	C210	C	0.906821	0.099317	0.595441
	C211	C	0.906036	0.900020	0.405334
	C212	C	0.601926	0.098913	0.902016
	C213	C	0.411140	0.098709	0.099682
	C214	C	0.601849	0.899877	0.100947
	C215	C	0.411959	0.897535	0.902631
	Zn216	Zn	0.505933	-0.001310	0.752182
	Zn217	Zn	0.505380	-0.001043	0.250502
	Zn218	Zn	0.756860	0.499156	0.000800
	Zn219	Zn	0.258289	0.498850	0.000543
	Zn220	Zn	0.004919	0.750597	0.501198
	Zn221	Zn	0.005503	0.250189	0.500215
	Zn222	Zn	0.006979	0.500146	0.749482
	Zn223	Zn	0.006790	0.500016	0.251611
	Zn224	Zn	0.507964	0.748663	0.000798
	Zn225	Zn	0.507169	0.248773	0.000366
	Zn226	Zn	0.756217	-0.000317	0.500122
	Zn227	Zn	0.254879	0.001111	0.500548
	N228	N	0.418602	0.962643	0.680736
	N229	N	0.590678	0.036234	0.679312
	N230	N	0.590422	0.961572	0.322316
	N231	N	0.419442	0.036320	0.321583
	N232	N	0.684208	0.414707	0.962881
	N233	N	0.684525	0.583213	0.038752
	N234	N	0.331489	0.582865	0.963211
	N235	N	0.329459	0.412996	0.037765
	N236	N	0.968286	0.679146	0.414709
	N237	N	0.041957	0.680559	0.588028
	N238	N	0.969113	0.320812	0.586856
	N239	N	0.042666	0.320754	0.413158
	N240	N	0.968544	0.415407	0.677313
	N241	N	0.043966	0.585086	0.677108
	N242	N	0.968745	0.584924	0.323158
	N243	N	0.044141	0.416027	0.324103
	N244	N	0.423015	0.676121	0.963607
	N245	N	0.595007	0.678501	0.037857
	N246	N	0.594332	0.319422	0.963912
	N247	N	0.421591	0.320069	0.037804
	N248	N	0.684202	0.962199	0.414564
	N249	N	0.683695	0.036574	0.585937
	N250	N	0.325953	0.963171	0.586760
	N251	N	0.328088	0.037683	0.415810
	N252	N	0.921867	0.462203	0.178770
	N253	N	0.093794	0.536576	0.179711
	N254	N	0.093706	0.463067	0.820623
	N255	N	0.922346	0.536975	0.822483
	N256	N	0.182038	0.916469	0.463053
	N257	N	0.183147	0.086062	0.538125
	N258	N	0.828581	0.084488	0.462704
	N259	N	0.827600	0.914643	0.537871
	N260	N	0.470123	0.177487	0.914444
	N261	N	0.543435	0.178414	0.087336
	N262	N	0.470850	0.818507	0.088013
	N263	N	0.544482	0.820716	0.915146
	N264	N	0.468393	0.913717	0.177819
	N265	N	0.543767	0.083869	0.177956
	N266	N	0.468820	0.082921	0.824694
	N267	N	0.543770	0.913062	0.822896
	N268	N	0.919701	0.178425	0.463458
	N269	N	0.092381	0.180070	0.536952
	N270	N	0.090400	0.822586	0.463546
	N271	N	0.917349	0.820293	0.537003
	N272	N	0.185283	0.461571	0.915436
	N273	N	0.187577	0.535830	0.087195
	N274	N	0.828413	0.462066	0.086719
	N275	N	0.828733	0.536386	0.914902
	O276	O	0.457745	0.475894	0.510960
	H277	H	0.454025	0.469784	0.505481
	H278	H	0.454547	0.474934	0.519733
	O279	O	0.519130	0.438433	0.463654
	H280	H	0.514947	0.430014	0.462054
	H281	H	0.536181	0.435150	0.465203
	O282	O	0.599599	0.555250	0.497115
	H283	H	0.587004	0.547508	0.496568
	H284	H	0.600033	0.560086	0.509484
	O285	O	0.054740	0.994022	1.037494
	H286	H	0.046046	0.992005	1.042908
	H287	H	0.051291	0.990859	1.040120
	O288	O	0.423181	0.573537	0.484206
	H289	H	0.411413	0.573609	0.485712
	H290	H	0.430303	0.565538	0.477324
	O291	O	-0.502634	0.532465	0.537596
	H292	H	-0.505155	0.528598	0.528032
	H293	H	-0.506487	0.526100	0.533641
	O294	O	0.484983	0.473682	0.490271
	H295	H	0.499553	0.475613	0.478714
	H296	H	0.488139	0.477551	0.492329
	O297	O	0.496334	0.433158	0.457025
	H298	H	0.508197	0.430617	0.454313
	H299	H	0.502043	0.429644	0.454889
	O300	O	0.508140	0.402166	0.501337
	H301	H	0.514683	0.406971	0.498625
	H302	H	0.513533	0.403790	0.495952
	O303	O	0.551873	0.456709	0.502903
	H304	H	0.547856	0.460083	0.501317
	H305	H	0.543272	0.449709	0.515506
	O306	O	0.494382	0.572618	1.534440
	H307	H	0.487434	0.573019	1.533150
	H308	H	0.488659	0.582985	1.525461
	O309	O	0.534254	0.517543	0.479467
	H310	H	0.533020	0.518810	0.474026
	H311	H	0.519586	0.518875	0.475636
	O312	O	0.488766	0.571019	0.525872
	H313	H	0.492088	0.568256	0.533533
	H314	H	0.474535	0.571678	0.529905
	O315	O	1.034369	-0.032693	1.005113
	H316	H	1.039872	-0.032590	1.015809
	H317	H	1.037732	-0.034347	1.002661
	O318	O	-0.551957	-0.574363	-0.484508
	H319	H	-0.546634	-0.584056	-0.487388
	H320	H	-0.551631	-0.571934	-0.486811
	O321	O	0.493405	0.587385	0.564406
	H322	H	0.496768	0.576786	0.570814
	H323	H	0.501390	0.593419	0.570516
	O324	O	1.016743	-0.015790	0.018581
	H325	H	1.012488	-0.021730	0.010712
	H326	H	1.013671	-0.014046	0.022602
	O327	O	1.038364	0.981644	0.022878
	H328	H	1.048911	0.981766	0.018627
	H329	H	1.034975	0.980294	0.027450
	O330	O	0.463715	0.514239	0.477871
	H331	H	0.466999	0.517422	0.480562
	H332	H	0.450053	0.529654	0.471228
	O333	O	0.483292	0.496568	0.517747
	H334	H	0.488370	0.499775	0.533627
	H335	H	0.485122	0.496583	0.519385
