data_Molecule from HDF5

_cell_length_a		16.438798
_cell_length_b		16.120934
_cell_length_c		16.142662
_cell_angle_alpha	89.766220
_cell_angle_beta	89.818740
_cell_angle_gamma	89.659429
_symmetry_space_group_name_H-M	'P 1'
_symmetry_Int_Tables_number		1

loop_
	_symmetry_equiv_pos_as_xyz
	x,y,z

loop_
	_atom_site_label
	_atom_site_type_symbol
	_atom_site_fract_x
	_atom_site_fract_y
	_atom_site_fract_z
	H0	H	0.405519	0.827100	0.708084
	H1	H	0.595508	0.158760	0.704826
	H2	H	0.599225	0.826871	0.283324
	H3	H	0.402991	0.158495	0.282163
	H4	H	0.720739	0.392629	0.833060
	H5	H	0.717106	0.595424	0.159669
	H6	H	0.286168	0.595893	0.832229
	H7	H	0.286886	0.390790	0.159662
	H8	H	0.839421	0.709694	0.398784
	H9	H	0.165697	0.706791	0.591839
	H10	H	0.839272	0.278989	0.596128
	H11	H	0.164952	0.277627	0.398160
	H12	H	0.839752	0.396345	0.713632
	H13	H	0.166375	0.590128	0.708664
	H14	H	0.840333	0.596063	0.280279
	H15	H	0.166253	0.396045	0.283112
	H16	H	0.406068	0.705433	0.829423
	H17	H	0.597307	0.705212	0.160575
	H18	H	0.601811	0.282149	0.830362
	H19	H	0.408106	0.282274	0.161505
	H20	H	0.718586	0.828423	0.393494
	H21	H	0.717253	0.155872	0.596974
	H22	H	0.287616	0.828055	0.596202
	H23	H	0.284953	0.156620	0.393151
	H24	H	0.907682	0.328594	0.209398
	H25	H	0.096631	0.660980	0.205915
	H26	H	0.100142	0.327492	0.785061
	H27	H	0.906677	0.660659	0.784074
	H28	H	0.217456	0.892610	0.331715
	H29	H	0.217159	0.094418	0.659679
	H30	H	0.784757	0.095573	0.331259
	H31	H	0.784924	0.889826	0.658896
	H32	H	0.340558	0.211993	0.897035
	H33	H	0.665305	0.206254	0.093965
	H34	H	0.338530	0.778709	0.093144
	H35	H	0.664299	0.778274	0.897203
	H36	H	0.338367	0.895127	0.210452
	H37	H	0.663892	0.090137	0.211113
	H38	H	0.338024	0.092441	0.782196
	H39	H	0.663720	0.893868	0.779450
	H40	H	0.904413	0.207439	0.330299
	H41	H	0.094553	0.201899	0.662300
	H42	H	0.099077	0.781786	0.330473
	H43	H	0.907380	0.782718	0.661630
	H44	H	0.219230	0.329442	0.896401
	H45	H	0.217642	0.658153	0.095640
	H46	H	0.787210	0.329830	0.100303
	H47	H	0.785051	0.657964	0.893439
	H48	H	0.412682	0.108501	0.584863
	H49	H	0.588563	0.875658	0.590493
	H50	H	0.597894	0.110101	0.407549
	H51	H	0.416164	0.875848	0.400175
	H52	H	0.596558	0.404076	0.113177
	H53	H	0.600579	0.592529	0.874335
	H54	H	0.400642	0.582254	0.115333
	H55	H	0.404364	0.401866	0.876076
	H56	H	0.119157	0.583662	0.394597
	H57	H	0.888663	0.587808	0.586486
	H58	H	0.119640	0.391835	0.592103
	H59	H	0.885609	0.398412	0.403142
	H60	H	0.115193	0.399017	0.584013
	H61	H	0.888056	0.584323	0.593471
	H62	H	0.120404	0.595334	0.401134
	H63	H	0.888594	0.402435	0.405900
	H64	H	0.413725	0.578852	0.110047
	H65	H	0.601681	0.574490	0.879351
	H66	H	0.594348	0.398850	0.113370
	H67	H	0.411300	0.409548	0.880298
	H68	H	0.593361	0.110895	0.399057
	H69	H	0.597448	0.876133	0.579773
	H70	H	0.401078	0.111395	0.581834
	H71	H	0.406881	0.876859	0.412964
	H72	H	0.903777	0.612380	0.086008
	H73	H	0.099688	0.374430	0.093195
	H74	H	0.097977	0.614997	0.895137
	H75	H	0.910351	0.380228	0.917594
	H76	H	0.096598	0.896110	0.615166
	H77	H	0.098062	0.090234	0.375802
	H78	H	0.894033	0.078920	0.614466
	H79	H	0.906687	0.901220	0.375719
	H80	H	0.615702	0.084196	0.903994
	H81	H	0.387279	0.087399	0.086915
	H82	H	0.613791	0.903234	0.082940
	H83	H	0.382937	0.896166	0.897471
	H84	H	0.617487	0.902053	0.095258
	H85	H	0.386922	0.086788	0.089752
	H86	H	0.617333	0.082540	0.895040
	H87	H	0.385867	0.898332	0.905809
	H88	H	0.915810	0.075775	0.607926
	H89	H	0.099211	0.078060	0.378966
	H90	H	0.100448	0.903348	0.614366
	H91	H	0.907929	0.905860	0.378291
	H92	H	0.089346	0.608961	0.906099
	H93	H	0.092055	0.376870	0.090567
	H94	H	0.909061	0.613467	0.091311
	H95	H	0.902654	0.372779	0.901258
	H96	H	0.404482	0.113468	0.593856
	H97	H	0.601567	0.870544	0.592224
	H98	H	0.588618	0.107656	0.406441
	H99	H	0.402109	0.871181	0.398887
	H100	H	0.599013	0.399313	0.115569
	H101	H	0.586164	0.584106	0.880911
	H102	H	0.410078	0.592442	0.115444
	H103	H	0.415562	0.399055	0.878216
	H104	H	0.116328	0.584885	0.407686
	H105	H	0.885462	0.592181	0.592381
	H106	H	0.117743	0.402324	0.594617
	H107	H	0.887142	0.403669	0.400242
	H108	H	0.911183	0.610101	0.084593
	H109	H	0.099226	0.377164	0.084434
	H110	H	0.103178	0.612807	0.909060
	H111	H	0.921616	0.378001	0.900538
	H112	H	0.092345	0.903548	0.612741
	H113	H	0.088000	0.084267	0.380071
	H114	H	0.908605	0.096656	0.616097
	H115	H	0.911801	0.901943	0.378573
	H116	H	0.619253	0.091465	0.898854
	H117	H	0.386364	0.089690	0.088647
	H118	H	0.619069	0.890956	0.087456
	H119	H	0.386528	0.903802	0.899017
	C120	C	0.379473	0.001679	0.615972
	C121	C	0.622813	0.983198	0.616006
	C122	C	0.622574	0.000619	0.374566
	C123	C	0.379551	0.984006	0.374352
	C124	C	0.625541	0.371652	0.005154
	C125	C	0.623880	0.613784	0.986822
	C126	C	0.380637	0.613995	0.004284
	C127	C	0.382187	0.373040	0.987121
	C128	C	0.010944	0.617314	0.373505
	C129	C	0.994794	0.615627	0.617881
	C130	C	0.010189	0.370374	0.619893
	C131	C	0.994463	0.372157	0.374512
	C132	C	0.880656	0.502857	0.117767
	C133	C	0.124580	0.485537	0.117306
	C134	C	0.124463	0.502492	0.875165
	C135	C	0.882242	0.486087	0.876272
	C136	C	0.124043	0.872153	0.504904
	C137	C	0.122791	0.113506	0.487328
	C138	C	0.878340	0.114030	0.503785
	C139	C	0.880965	0.873380	0.486632
	C140	C	0.510183	0.115950	0.871770
	C141	C	0.493808	0.115180	0.117368
	C142	C	0.509555	0.870345	0.117665
	C143	C	0.492746	0.870886	0.872620
	C144	C	0.383741	0.876717	0.671129
	C145	C	0.617923	0.108631	0.669354
	C146	C	0.620231	0.876504	0.319809
	C147	C	0.382666	0.108693	0.319539
	C148	C	0.682021	0.373139	0.881673
	C149	C	0.679137	0.614278	0.110400
	C150	C	0.325202	0.614168	0.880623
	C151	C	0.325936	0.372565	0.110875
	C152	C	0.888347	0.672669	0.376992
	C153	C	0.117308	0.669562	0.613405
	C154	C	0.887903	0.316344	0.617363
	C155	C	0.116465	0.315963	0.377585
	C156	C	0.888216	0.374655	0.675602
	C157	C	0.117641	0.611460	0.671246
	C158	C	0.888721	0.615909	0.318222
	C159	C	0.117092	0.374898	0.320212
	C160	C	0.384734	0.668832	0.879375
	C161	C	0.619444	0.668719	0.111076
	C162	C	0.622724	0.318265	0.880422
	C163	C	0.385881	0.318077	0.111562
	C164	C	0.679533	0.877354	0.374956
	C165	C	0.678008	0.107315	0.615383
	C166	C	0.325332	0.877177	0.615500
	C167	C	0.323584	0.107797	0.374692
	C168	C	0.885643	0.378277	0.172772
	C169	C	0.119028	0.611061	0.169803
	C170	C	0.120986	0.377269	0.821719
	C171	C	0.884987	0.610687	0.820877
	C172	C	0.179449	0.872998	0.380811
	C173	C	0.178226	0.112903	0.610907
	C174	C	0.823309	0.114354	0.380238
	C175	C	0.824747	0.872471	0.610381
	C176	C	0.388387	0.172682	0.875996
	C177	C	0.616539	0.169057	0.114793
	C178	C	0.387251	0.815935	0.114671
	C179	C	0.615546	0.815712	0.875931
	C180	C	0.387214	0.873803	0.173014
	C181	C	0.615877	0.111121	0.172725
	C182	C	0.387301	0.113526	0.818814
	C183	C	0.615117	0.873197	0.817441
	C184	C	0.882721	0.169921	0.379659
	C185	C	0.117501	0.166823	0.612270
	C186	C	0.120496	0.818128	0.380087
	C187	C	0.885192	0.818869	0.611735
	C188	C	0.180384	0.378252	0.876792
	C189	C	0.179036	0.609540	0.115227
	C190	C	0.825599	0.379061	0.118532
	C191	C	0.824766	0.609275	0.875368
	C192	C	0.400053	0.088475	0.593534
	C193	C	0.601973	0.896571	0.593957
	C194	C	0.599865	0.087235	0.397650
	C195	C	0.401772	0.897079	0.397313
	C196	C	0.603088	0.394116	0.091788
	C197	C	0.602324	0.590628	0.900589
	C198	C	0.402036	0.591302	0.091019
	C199	C	0.404204	0.396586	0.900528
	C200	C	0.096351	0.594645	0.394957
	C201	C	0.909502	0.594375	0.596780
	C202	C	0.095534	0.391489	0.597118
	C203	C	0.909027	0.394736	0.396697
	C204	C	0.901734	0.589720	0.094135
	C205	C	0.103254	0.398573	0.095612
	C206	C	0.103075	0.589722	0.896896
	C207	C	0.904783	0.399626	0.899671
	C208	C	0.102688	0.894337	0.591636
	C209	C	0.101338	0.090937	0.400638
	C210	C	0.899814	0.090551	0.590543
	C211	C	0.902464	0.896367	0.399900
	C212	C	0.595275	0.092878	0.892893
	C213	C	0.408940	0.094254	0.095130
	C214	C	0.594773	0.892371	0.095070
	C215	C	0.407360	0.892841	0.894474
	Zn216	Zn	0.501020	-0.006826	0.742930
	Zn217	Zn	0.501147	-0.007136	0.246899
	Zn218	Zn	0.752438	0.493553	-0.003127
	Zn219	Zn	0.252701	0.493348	-0.003788
	Zn220	Zn	0.002346	0.745519	0.495681
	Zn221	Zn	0.001536	0.241201	0.496006
	Zn222	Zn	0.003426	0.494231	0.747738
	Zn223	Zn	0.002904	0.494848	0.244966
	Zn224	Zn	0.501642	0.741117	-0.004747
	Zn225	Zn	0.503406	0.244776	-0.004840
	Zn226	Zn	0.751091	-0.007772	0.495270
	Zn227	Zn	0.251362	-0.007333	0.495809
	N228	N	0.416700	0.954995	0.671538
	N229	N	0.584371	0.030555	0.669985
	N230	N	0.585423	0.954380	0.319511
	N231	N	0.416661	0.030616	0.319142
	N232	N	0.684024	0.405245	0.960474
	N233	N	0.681944	0.580810	0.032175
	N234	N	0.322627	0.580754	0.959207
	N235	N	0.323329	0.405975	0.032355
	N236	N	0.965192	0.673703	0.410550
	N237	N	0.039852	0.672516	0.581043
	N238	N	0.964667	0.313515	0.583290
	N239	N	0.039052	0.313987	0.410450
	N240	N	0.965243	0.407341	0.677165
	N241	N	0.040658	0.578560	0.673984
	N242	N	0.965908	0.582222	0.315885
	N243	N	0.040196	0.409269	0.318491
	N244	N	0.418718	0.668597	0.957096
	N245	N	0.585793	0.668669	0.033148
	N246	N	0.588322	0.317142	0.958271
	N247	N	0.420279	0.318611	0.033755
	N248	N	0.681251	0.955793	0.408056
	N249	N	0.681383	0.028486	0.583103
	N250	N	0.322307	0.955737	0.582051
	N251	N	0.321822	0.029227	0.408419
	N252	N	0.919064	0.456244	0.172395
	N253	N	0.086054	0.532802	0.171362
	N254	N	0.086965	0.455592	0.820719
	N255	N	0.920111	0.533038	0.821304
	N256	N	0.181671	0.906030	0.459282
	N257	N	0.181402	0.080433	0.532233
	N258	N	0.820284	0.080795	0.458677
	N259	N	0.821921	0.905557	0.531685
	N260	N	0.465722	0.174407	0.908081
	N261	N	0.539886	0.171598	0.080745
	N262	N	0.464297	0.813572	0.081068
	N263	N	0.538431	0.813943	0.909449
	N264	N	0.464194	0.906901	0.174809
	N265	N	0.538754	0.078667	0.174696
	N266	N	0.464121	0.079068	0.816015
	N267	N	0.537935	0.906550	0.815093
	N268	N	0.916244	0.169982	0.457621
	N269	N	0.083687	0.167185	0.534337
	N270	N	0.086596	0.817509	0.458106
	N271	N	0.919441	0.819195	0.533780
	N272	N	0.182491	0.456909	0.909430
	N273	N	0.182336	0.530542	0.083279
	N274	N	0.822481	0.457687	0.084825
	N275	N	0.822846	0.530637	0.909208
	O276	O	1.005070	1.025833	-0.002531
	H277	H	1.000403	1.016849	-0.001585
	H278	H	0.999627	1.036380	-0.000335
	O279	O	0.502970	-0.502326	1.596132
	H280	H	0.501425	-0.504439	1.594396
	H281	H	0.498689	-0.496270	1.596231
	O282	O	-0.070359	0.005852	-0.098179
	H283	H	-0.059365	0.022143	-0.100456
	H284	H	-0.068478	0.015217	-0.111142
	O285	O	0.474153	0.492547	0.418501
	H286	H	0.469737	0.491615	0.419179
	H287	H	0.470770	0.490637	0.427879
	O288	O	-0.013281	0.059587	0.023976
	H289	H	-0.015382	0.046753	0.026098
	H290	H	-0.021081	0.060772	0.021138
	O291	O	-0.064957	0.961358	0.019607
	H292	H	-0.069840	0.960779	0.011890
	H293	H	-0.070702	0.966808	0.020094
	O294	O	0.470751	1.477971	-0.520448
	H295	H	0.465209	1.479943	-0.521675
	H296	H	0.477890	1.469897	-0.512237
	O297	O	0.504408	0.484585	0.420675
	H298	H	0.493747	0.476515	0.423772
	H299	H	0.517065	0.485202	0.412924
	O300	O	0.503648	0.516792	0.507950
	H301	H	0.506064	0.522680	0.509405
	H302	H	0.508511	0.524386	0.507673
	O303	O	1.020875	-0.001011	0.946669
	H304	H	1.016100	-0.006251	0.951965
	H305	H	1.030359	-0.007595	0.945436
	O306	O	-0.057301	1.016663	0.985610
	H307	H	-0.054770	1.017736	0.980339
	H308	H	-0.064307	1.012060	0.989767
	O309	O	-0.095845	1.069839	1.034094
	H310	H	-0.094282	1.083762	1.029060
	H311	H	-0.098438	1.078022	1.026336
	O312	O	-0.038823	-0.018806	1.000624
	H313	H	-0.047000	-0.015545	0.994593
	H314	H	-0.040539	-0.022145	0.994042
	O315	O	0.579575	0.395686	0.472884
	H316	H	0.568571	0.390750	0.474907
	H317	H	0.583052	0.384342	0.462711
	O318	O	-0.022607	0.033199	0.935846
	H319	H	-0.009872	0.035079	0.939848
	H320	H	-0.029740	0.037047	0.928358
	O321	O	-0.238765	1.232561	0.666933
	H322	H	-0.239125	1.251735	0.663467
	H323	H	-0.245913	1.230539	0.662067
	O324	O	0.969656	0.036796	1.004693
	H325	H	0.974828	0.034594	1.001359
	H326	H	0.968228	0.049670	1.008809
	O327	O	0.948107	1.021904	1.001355
	H328	H	0.949800	1.015962	0.992185
	H329	H	0.944296	1.012005	1.000739
	O330	O	0.608385	0.542575	0.446215
	H331	H	0.610707	0.540729	0.441745
	H332	H	0.615085	0.530121	0.447298
	O333	O	0.611697	0.512583	0.509011
	H334	H	0.616627	0.526937	0.497976
	H335	H	0.603537	0.516369	0.510760
	O336	O	0.468249	0.397152	0.502077
	H337	H	0.476584	0.394061	0.496924
	H338	H	0.475212	0.400208	0.500939
	O339	O	0.587026	0.375046	0.493775
	H340	H	0.601622	0.364192	0.495587
	H341	H	0.584838	0.382221	0.472797
	O342	O	0.507887	0.548235	0.486745
	H343	H	0.512870	0.559836	0.488095
	H344	H	0.511566	0.547064	0.481148
	O345	O	0.543442	0.485479	0.390369
	H346	H	0.533430	0.476776	0.388550
	H347	H	0.544363	0.478887	0.395682
