data_Molecule from HDF5

_cell_length_a		16.651453
_cell_length_b		16.694200
_cell_length_c		16.617154
_cell_angle_alpha	89.994257
_cell_angle_beta	89.928455
_cell_angle_gamma	90.078246
_symmetry_space_group_name_H-M	'P 1'
_symmetry_Int_Tables_number		1

loop_
	_symmetry_equiv_pos_as_xyz
	x,y,z

loop_
	_atom_site_label
	_atom_site_type_symbol
	_atom_site_fract_x
	_atom_site_fract_y
	_atom_site_fract_z
	H0	H	0.388892	0.847292	0.720228
	H1	H	0.597704	0.158499	0.720431
	H2	H	0.602551	0.849424	0.275769
	H3	H	0.382709	0.153527	0.271886
	H4	H	0.712200	0.401559	0.842960
	H5	H	0.713977	0.606815	0.156283
	H6	H	0.274585	0.603889	0.845429
	H7	H	0.269184	0.392263	0.154355
	H8	H	0.838870	0.722605	0.396932
	H9	H	0.148020	0.726907	0.606520
	H10	H	0.838982	0.283520	0.605745
	H11	H	0.148168	0.280994	0.395716
	H12	H	0.838665	0.400450	0.720449
	H13	H	0.147904	0.610735	0.722842
	H14	H	0.837792	0.604571	0.282150
	H15	H	0.148658	0.398394	0.279974
	H16	H	0.390538	0.720195	0.844464
	H17	H	0.598176	0.723559	0.155856
	H18	H	0.597268	0.284087	0.842900
	H19	H	0.386868	0.278374	0.155156
	H20	H	0.716711	0.849577	0.393866
	H21	H	0.714601	0.157725	0.604793
	H22	H	0.269389	0.849386	0.607668
	H23	H	0.264843	0.152472	0.386477
	H24	H	0.888561	0.347778	0.221521
	H25	H	0.101798	0.655839	0.223708
	H26	H	0.103322	0.349503	0.774080
	H27	H	0.893959	0.660207	0.782986
	H28	H	0.221311	0.892522	0.348527
	H29	H	0.220302	0.113745	0.653478
	H30	H	0.766600	0.114417	0.350043
	H31	H	0.774555	0.899590	0.656439
	H32	H	0.337805	0.224031	0.893827
	H33	H	0.647696	0.225520	0.106707
	H34	H	0.339951	0.777956	0.110322
	H35	H	0.646931	0.782308	0.896140
	H36	H	0.340667	0.894205	0.225840
	H37	H	0.647104	0.109789	0.223140
	H38	H	0.337313	0.107333	0.778809
	H39	H	0.648138	0.899431	0.780542
	H40	H	0.885425	0.226998	0.347538
	H41	H	0.103407	0.227987	0.654738
	H42	H	0.104362	0.777789	0.347216
	H43	H	0.889593	0.782794	0.655354
	H44	H	0.218877	0.348157	0.890039
	H45	H	0.218337	0.654968	0.107344
	H46	H	0.771316	0.349035	0.106606
	H47	H	0.776458	0.659549	0.898168
	H48	H	0.406507	0.113956	0.592087
	H49	H	0.580063	0.894541	0.583602
	H50	H	0.585062	0.115066	0.410236
	H51	H	0.407507	0.895501	0.417970
	H52	H	0.582701	0.414515	0.111410
	H53	H	0.585777	0.592963	0.887842
	H54	H	0.404789	0.594518	0.114532
	H55	H	0.408957	0.417620	0.891727
	H56	H	0.105542	0.589321	0.409430
	H57	H	0.885165	0.592118	0.586755
	H58	H	0.104520	0.418863	0.588269
	H59	H	0.881495	0.408298	0.416709
	H60	H	0.106220	0.413239	0.589198
	H61	H	0.882252	0.590698	0.593544
	H62	H	0.106590	0.594273	0.411809
	H63	H	0.884982	0.419730	0.415066
	H64	H	0.403432	0.585117	0.112541
	H65	H	0.583544	0.593355	0.888072
	H66	H	0.580716	0.411417	0.111875
	H67	H	0.408323	0.410314	0.889538
	H68	H	0.576026	0.111796	0.409629
	H69	H	0.594936	0.887558	0.590287
	H70	H	0.409031	0.110543	0.585229
	H71	H	0.405955	0.892681	0.412862
	H72	H	0.906347	0.614112	0.092090
	H73	H	0.077491	0.393030	0.086603
	H74	H	0.081160	0.609488	0.915188
	H75	H	0.905733	0.390766	0.904844
	H76	H	0.080808	0.914051	0.610836
	H77	H	0.079884	0.084407	0.393138
	H78	H	0.903514	0.095121	0.614290
	H79	H	0.908029	0.913820	0.388891
	H80	H	0.607330	0.095437	0.904002
	H81	H	0.383884	0.089251	0.085936
	H82	H	0.603181	0.917722	0.088926
	H83	H	0.379084	0.912006	0.907916
	H84	H	0.605170	0.910759	0.088178
	H85	H	0.384611	0.088389	0.082640
	H86	H	0.604746	0.096960	0.913962
	H87	H	0.379465	0.908899	0.910889
	H88	H	0.903071	0.090117	0.612997
	H89	H	0.074677	0.090847	0.393930
	H90	H	0.080818	0.917907	0.610163
	H91	H	0.903986	0.912509	0.387086
	H92	H	0.086847	0.612175	0.914925
	H93	H	0.085530	0.390792	0.086812
	H94	H	0.905088	0.613436	0.089481
	H95	H	0.905754	0.393531	0.914289
	H96	H	0.401800	0.114226	0.585488
	H97	H	0.580106	0.889112	0.600333
	H98	H	0.580937	0.110572	0.417683
	H99	H	0.411030	0.894663	0.413682
	H100	H	0.584684	0.411812	0.112200
	H101	H	0.584856	0.594891	0.887518
	H102	H	0.411989	0.589310	0.110281
	H103	H	0.402472	0.414372	0.888519
	H104	H	0.104858	0.590108	0.415076
	H105	H	0.880691	0.597031	0.590715
	H106	H	0.104435	0.415151	0.583738
	H107	H	0.880626	0.413686	0.406271
	H108	H	0.903720	0.615288	0.091419
	H109	H	0.081245	0.390340	0.094007
	H110	H	0.083324	0.612090	0.910217
	H111	H	0.897419	0.389296	0.910339
	H112	H	0.077749	0.916025	0.609671
	H113	H	0.081609	0.092054	0.390051
	H114	H	0.907245	0.092987	0.611375
	H115	H	0.904276	0.916582	0.388381
	H116	H	0.602529	0.087665	0.908835
	H117	H	0.384806	0.086491	0.085428
	H118	H	0.601967	0.914198	0.082469
	H119	H	0.380969	0.912426	0.911676
	C120	C	0.372925	0.010800	0.620170
	C121	C	0.615970	0.993716	0.622814
	C122	C	0.614781	0.011281	0.379096
	C123	C	0.372362	0.994196	0.378765
	C124	C	0.614465	0.381934	0.007973
	C125	C	0.615740	0.625134	0.991445
	C126	C	0.374066	0.621581	0.009481
	C127	C	0.372740	0.380140	0.992038
	C128	C	0.002601	0.623332	0.379854
	C129	C	0.985383	0.625840	0.622338
	C130	C	0.002669	0.383191	0.620810
	C131	C	0.984890	0.381322	0.379925
	C132	C	0.872512	0.511654	0.122575
	C133	C	0.115293	0.493154	0.122099
	C134	C	0.116884	0.510079	0.878588
	C135	C	0.873236	0.494855	0.879451
	C136	C	0.114821	0.881673	0.508842
	C137	C	0.114194	0.123921	0.493191
	C138	C	0.871644	0.125484	0.510418
	C139	C	0.873370	0.882671	0.491404
	C140	C	0.501662	0.124891	0.877599
	C141	C	0.485930	0.122129	0.119055
	C142	C	0.501911	0.880914	0.120986
	C143	C	0.483579	0.880513	0.878750
	C144	C	0.370361	0.894216	0.680592
	C145	C	0.616577	0.111236	0.681098
	C146	C	0.619428	0.895703	0.316988
	C147	C	0.366035	0.108128	0.314036
	C148	C	0.673210	0.381896	0.890156
	C149	C	0.674091	0.625656	0.109453
	C150	C	0.314380	0.622888	0.892093
	C151	C	0.310470	0.375483	0.108185
	C152	C	0.885410	0.682592	0.378248
	C153	C	0.101901	0.686107	0.624472
	C154	C	0.885551	0.323395	0.623805
	C155	C	0.101823	0.321434	0.377432
	C156	C	0.885619	0.381728	0.680767
	C157	C	0.101798	0.628523	0.682358
	C158	C	0.884895	0.623900	0.321442
	C159	C	0.102129	0.379544	0.320041
	C160	C	0.371863	0.680704	0.891769
	C161	C	0.616694	0.683658	0.109199
	C162	C	0.615725	0.323797	0.890015
	C163	C	0.368938	0.318839	0.108642
	C164	C	0.676643	0.895913	0.375333
	C165	C	0.674746	0.111084	0.623678
	C166	C	0.311168	0.895092	0.624331
	C167	C	0.307498	0.107410	0.371045
	C168	C	0.869747	0.394784	0.182314
	C169	C	0.119526	0.609278	0.183027
	C170	C	0.120465	0.395383	0.815441
	C171	C	0.874180	0.613007	0.822073
	C172	C	0.179133	0.875954	0.394201
	C173	C	0.178436	0.130208	0.607692
	C174	C	0.808461	0.130602	0.395473
	C175	C	0.814346	0.881017	0.609291
	C176	C	0.384738	0.184461	0.875497
	C177	C	0.601541	0.184187	0.123511
	C178	C	0.386193	0.818681	0.127089
	C179	C	0.600689	0.821848	0.877224
	C180	C	0.386550	0.876868	0.184162
	C181	C	0.601276	0.126703	0.181519
	C182	C	0.384254	0.126057	0.818535
	C183	C	0.600845	0.879743	0.819698
	C184	C	0.867614	0.186718	0.394267
	C185	C	0.120093	0.186992	0.608390
	C186	C	0.121210	0.818714	0.393464
	C187	C	0.871414	0.822938	0.608875
	C188	C	0.177906	0.394607	0.873435
	C189	C	0.177585	0.608664	0.125313
	C190	C	0.811793	0.395339	0.124797
	C191	C	0.815879	0.612724	0.879366
	C192	C	0.398506	0.091656	0.594600
	C193	C	0.592181	0.911689	0.598364
	C194	C	0.588260	0.091577	0.405195
	C195	C	0.400443	0.914888	0.407055
	C196	C	0.589828	0.405706	0.090325
	C197	C	0.591583	0.600916	0.909071
	C198	C	0.399402	0.596651	0.091218
	C199	C	0.398947	0.406578	0.911151
	C200	C	0.084440	0.598412	0.404923
	C201	C	0.903901	0.600536	0.597418
	C202	C	0.083995	0.408448	0.594585
	C203	C	0.903644	0.406640	0.405334
	C204	C	0.897976	0.593112	0.098003
	C205	C	0.088926	0.412447	0.096404
	C206	C	0.091135	0.590524	0.905747
	C207	C	0.896459	0.412608	0.903014
	C208	C	0.087501	0.908553	0.589293
	C209	C	0.086560	0.096713	0.413187
	C210	C	0.897358	0.099816	0.591840
	C211	C	0.898262	0.907442	0.409441
	C212	C	0.583572	0.100411	0.901969
	C213	C	0.405295	0.095548	0.092211
	C214	C	0.582458	0.906815	0.093923
	C215	C	0.401294	0.904385	0.903085
	Zn216	Zn	0.492830	0.002789	0.750240
	Zn217	Zn	0.494141	0.002291	0.249741
	Zn218	Zn	0.743905	0.503298	0.000598
	Zn219	Zn	0.244648	0.500524	0.000892
	Zn220	Zn	-0.005971	0.753713	0.499913
	Zn221	Zn	-0.006164	0.252943	0.501505
	Zn222	Zn	-0.005045	0.503757	0.750479
	Zn223	Zn	-0.006418	0.502581	0.250884
	Zn224	Zn	0.492685	0.752018	0.000558
	Zn225	Zn	0.493766	0.252470	-0.000467
	Zn226	Zn	0.744286	0.003063	0.500482
	Zn227	Zn	0.242882	0.003375	0.500360
	N228	N	0.408125	0.967225	0.678230
	N229	N	0.580927	0.037052	0.680917
	N230	N	0.581714	0.968588	0.319175
	N231	N	0.405955	0.036560	0.318646
	N232	N	0.672693	0.417316	0.964716
	N233	N	0.673571	0.589784	0.035084
	N234	N	0.315444	0.586933	0.966421
	N235	N	0.312591	0.412800	0.034674
	N236	N	0.959784	0.682445	0.413833
	N237	N	0.028454	0.684429	0.587699
	N238	N	0.959550	0.324066	0.587292
	N239	N	0.027706	0.322000	0.413451
	N240	N	0.959563	0.417961	0.679415
	N241	N	0.028420	0.591610	0.681078
	N242	N	0.958977	0.587885	0.322316
	N243	N	0.028224	0.415982	0.321140
	N244	N	0.407962	0.680234	0.965974
	N245	N	0.581154	0.683478	0.034706
	N246	N	0.579947	0.323563	0.964442
	N247	N	0.406638	0.321373	0.035210
	N248	N	0.673870	0.968736	0.413510
	N249	N	0.674703	0.036772	0.588268
	N250	N	0.312400	0.968723	0.587523
	N251	N	0.311233	0.035405	0.410569
	N252	N	0.906900	0.468214	0.181076
	N253	N	0.081569	0.536328	0.181416
	N254	N	0.083090	0.468525	0.818444
	N255	N	0.908918	0.538435	0.821532
	N256	N	0.175083	0.914636	0.466908
	N257	N	0.174739	0.091256	0.535134
	N258	N	0.811192	0.092625	0.468725
	N259	N	0.815148	0.917305	0.535246
	N260	N	0.458959	0.184002	0.911354
	N261	N	0.528549	0.181633	0.085483
	N262	N	0.458919	0.821143	0.088388
	N263	N	0.526408	0.821940	0.913088
	N264	N	0.459519	0.914918	0.180686
	N265	N	0.528143	0.088878	0.178960
	N266	N	0.458180	0.089778	0.819534
	N267	N	0.526942	0.915612	0.820423
	N268	N	0.906185	0.183662	0.466954
	N269	N	0.080661	0.183216	0.536062
	N270	N	0.081845	0.822202	0.465909
	N271	N	0.907298	0.823622	0.534339
	N272	N	0.175685	0.466927	0.912272
	N273	N	0.175067	0.535337	0.088107
	N274	N	0.813199	0.469032	0.088310
	N275	N	0.814902	0.538175	0.914089
	O276	O	-0.047759	1.064003	0.233753
	H277	H	-0.054883	1.045421	0.231941
	H278	H	-0.034185	1.055262	0.238769
	O279	O	0.303571	0.310946	0.313641
	H280	H	0.271180	0.280748	0.281928
	H281	H	0.309735	0.327022	0.326835
	O282	O	1.298610	0.305987	0.695641
	H283	H	1.312500	0.302723	0.694752
	H284	H	1.292995	0.293157	0.681476
	O285	O	0.489828	0.274069	0.474855
	H286	H	0.477037	0.272507	0.465006
	H287	H	0.495205	0.279964	0.480171
	O288	O	0.508980	0.744656	0.479581
	H289	H	0.529260	0.740243	0.467961
	H290	H	0.499565	0.753532	0.455127
	O291	O	0.283488	0.286732	0.514452
	H292	H	0.267092	0.277396	0.515692
	H293	H	0.290988	0.285174	0.501403
	O294	O	1.121465	0.142812	1.036004
	H295	H	1.089388	0.140610	1.039632
	H296	H	1.123779	0.132703	1.012314
	O297	O	0.534247	0.538424	0.282411
	H298	H	0.514136	0.518139	0.277992
	H299	H	0.530697	0.545121	0.289137
	O300	O	-0.034560	0.210849	0.800032
	H301	H	-0.021661	0.221875	0.799987
	H302	H	-0.023308	0.214602	0.801670
	O303	O	0.682697	0.693624	0.311806
	H304	H	0.657839	0.674768	0.314436
	H305	H	0.676948	0.672157	0.341468
	O306	O	0.676285	0.305704	0.318503
	H307	H	0.681062	0.322871	0.328443
	H308	H	0.673674	0.302667	0.324840
	O309	O	0.308662	0.686852	0.684527
	H310	H	0.327916	0.675281	0.661106
	H311	H	0.319750	0.662544	0.668424
	O312	O	0.432803	0.662793	0.546048
	H313	H	0.435791	0.670465	0.524657
	H314	H	0.434395	0.660554	0.528874
	O315	O	0.768023	0.984738	1.159218
	H316	H	0.754818	0.999365	1.159147
	H317	H	0.772326	0.980269	1.165655
	O318	O	0.487738	0.473651	0.547312
	H319	H	0.483000	0.482688	0.538424
	H320	H	0.483888	0.476649	0.553409
	O321	O	0.216171	0.795525	0.786719
	H322	H	0.237142	0.782563	0.783739
	H323	H	0.212768	0.774795	0.779273
	O324	O	1.066048	1.222116	-0.104088
	H325	H	1.052862	1.199629	-0.089842
	H326	H	1.084019	1.222227	-0.087498
	O327	O	0.048296	0.059442	0.759389
	H328	H	0.050366	0.063716	0.755520
	H329	H	0.056762	0.053565	0.758971
	O330	O	0.668979	0.307164	0.666320
	H331	H	0.657292	0.332362	0.654127
	H332	H	0.640799	0.314676	0.647721
	O333	O	0.600781	0.329912	0.477611
	H334	H	0.606238	0.326637	0.490985
	H335	H	0.585607	0.333501	0.482871
	O336	O	0.786626	0.215560	0.210011
	H337	H	0.780119	0.229832	0.214532
	H338	H	0.791887	0.192456	0.214930
	O339	O	0.977504	0.036367	0.994875
	H340	H	0.979739	0.024887	1.001397
	H341	H	0.961471	0.036480	1.000947
	O342	O	-0.046810	-0.025753	-0.015290
	H343	H	-0.055292	-0.027065	-0.031745
	H344	H	-0.050708	-0.037459	-0.007517
	O345	O	-0.207101	0.921577	0.975686
	H346	H	-0.217500	0.935985	0.984746
	H347	H	-0.208694	0.938162	0.956121
	O348	O	0.204943	0.013920	0.218030
	H349	H	0.221413	0.029164	0.237835
	H350	H	0.196008	0.027830	0.205361
	O351	O	0.790521	0.786911	0.213575
	H352	H	0.756144	0.758559	0.240761
	H353	H	0.791604	0.810852	0.194042
	O354	O	0.217569	0.024681	0.983122
	H355	H	0.199077	0.024930	0.985178
	H356	H	0.221613	0.019808	0.987132
	O357	O	0.651771	0.445059	0.641178
	H358	H	0.649319	0.462193	0.642414
	H359	H	0.663672	0.454103	0.648769
	O360	O	0.277276	0.479194	0.713458
	H361	H	0.280678	0.451698	0.711570
	H362	H	0.262862	0.466335	0.730627
	O363	O	0.193416	-0.069387	0.024780
	H364	H	0.198919	-0.074871	0.022102
	H365	H	0.187699	-0.068241	0.026332
	O366	O	0.721517	0.544464	0.724702
	H367	H	0.723118	0.583408	0.727451
	H368	H	0.744196	0.558770	0.749643
	O369	O	0.800095	0.067186	0.031338
	H370	H	0.789597	0.088162	0.022624
	H371	H	0.798635	0.065924	0.043320
	O372	O	0.779283	0.778541	0.023744
	H373	H	0.769171	0.786289	0.041768
	H374	H	0.763314	0.770180	0.032142
	O375	O	0.786987	0.033211	0.149284
	H376	H	0.799145	0.027412	0.146263
	H377	H	0.777005	0.032928	0.162494
	O378	O	0.275992	0.527172	0.278659
	H379	H	0.251925	0.530854	0.245930
	H380	H	0.288766	0.558485	0.283821
	O381	O	-0.017541	0.840185	0.855604
	H382	H	-0.012819	0.827969	0.854851
	H383	H	-0.011214	0.869754	0.849811
	O384	O	0.764565	0.048776	0.778119
	H385	H	0.754583	0.069777	0.766537
	H386	H	0.751705	0.077339	0.761835
	O387	O	1.016745	0.768759	0.020355
	H388	H	1.016145	0.762165	0.008468
	H389	H	1.015360	0.764834	0.014803
	O390	O	0.201901	0.215009	0.213501
	H391	H	0.196800	0.193777	0.187609
	H392	H	0.163471	0.215917	0.201775
	O393	O	0.438111	0.455692	0.290089
	H394	H	0.432545	0.453887	0.302396
	H395	H	0.430562	0.427708	0.287605
	O396	O	0.089812	0.824212	0.788559
	H397	H	0.081083	0.835941	0.799331
	H398	H	0.101674	0.794627	0.761959
	O399	O	0.146959	0.101544	0.848306
	H400	H	0.136011	0.088445	0.848518
	H401	H	0.148090	0.089183	0.858785
	O402	O	0.513204	0.410057	0.439880
	H403	H	0.506941	0.414718	0.433368
	H404	H	0.505857	0.402708	0.426866
	O405	O	0.917494	-0.027210	0.780158
	H406	H	0.917722	-0.019901	0.792066
	H407	H	0.910675	-0.008656	0.767244
	O408	O	0.211183	0.226601	0.026912
	H409	H	0.231706	0.250203	0.023840
	H410	H	0.199169	0.226365	0.020055
	O411	O	0.702207	0.710446	0.703634
	H412	H	0.723870	0.742747	0.735497
	H413	H	0.656685	0.720738	0.711215
	O414	O	0.472113	0.716084	0.288607
	H415	H	0.469365	0.707371	0.273770
	H416	H	0.462186	0.721472	0.280260
	O417	O	0.518180	0.278245	0.280430
	H418	H	0.513349	0.264839	0.273291
	H419	H	0.542706	0.270936	0.272746
	O420	O	0.335993	0.494332	0.446623
	H421	H	0.335674	0.506423	0.456021
	H422	H	0.332341	0.506963	0.428440
	O423	O	0.185088	-0.005310	0.829188
	H424	H	0.191072	-0.008048	0.836795
	H425	H	0.183757	-0.015474	0.812200
	O426	O	0.659648	0.642312	0.454659
	H427	H	0.673974	0.659364	0.464240
	H428	H	0.664105	0.626176	0.462566
	O429	O	0.794886	0.809844	0.808007
	H430	H	0.817877	0.828294	0.824810
	H431	H	0.809136	0.832077	0.828672
	O432	O	0.697542	0.720558	0.548253
	H433	H	0.692560	0.723834	0.583268
	H434	H	0.715811	0.737693	0.556430
	O435	O	0.474771	0.532826	0.493232
	H436	H	0.473419	0.535523	0.497510
	H437	H	0.470123	0.529007	0.488407
	O438	O	-0.062994	0.214332	0.067580
	H439	H	-0.073336	0.197503	0.067160
	H440	H	-0.083455	0.216539	0.062742
	O441	O	0.032178	0.220356	0.224781
	H442	H	0.015051	0.210799	0.212182
	H443	H	0.022501	0.247382	0.249750
	O444	O	0.463855	0.276034	0.716643
	H445	H	0.467057	0.291578	0.722979
	H446	H	0.453050	0.256699	0.742310
	O447	O	0.190756	0.824993	1.177935
	H448	H	0.193827	0.855324	1.161854
	H449	H	0.159560	0.830531	1.167046
	O450	O	0.217968	0.779537	0.972119
	H451	H	0.230324	0.776390	0.973459
	H452	H	0.222070	0.770851	0.966209
	O453	O	0.339518	0.454318	0.500732
	H454	H	0.332436	0.448615	0.479721
	H455	H	0.343741	0.438326	0.489030
	O456	O	0.033389	-0.002130	0.973699
	H457	H	0.035448	-0.009145	0.963563
	H458	H	0.037591	-0.005067	0.979567
	O459	O	0.969865	0.780000	0.226682
	H460	H	0.942111	0.775380	0.230986
	H461	H	0.955842	0.763692	0.243150
	O462	O	0.670395	0.499354	0.291076
	H463	H	0.672555	0.494957	0.296817
	H464	H	0.671542	0.500203	0.285907
	O465	O	0.995172	0.006022	0.060640
	H466	H	0.987212	-0.001361	0.061587
	H467	H	0.997625	-0.008423	0.043728
	O468	O	0.284192	0.718669	0.470399
	H469	H	0.277186	0.703725	0.473659
	H470	H	0.265906	0.733080	0.462479
	O471	O	0.512462	0.445082	0.658740
	H472	H	0.523937	0.448144	0.655041
	H473	H	0.507985	0.453692	0.650915
	O474	O	0.460207	0.564354	0.719365
	H475	H	0.445404	0.565407	0.715557
	H476	H	0.469119	0.553279	0.717884
	O477	O	0.689372	0.460330	1.467471
	H478	H	0.678919	0.461453	1.478353
	H479	H	0.681534	0.443476	1.481424
	O480	O	0.264710	0.548735	0.551507
	H481	H	0.253441	0.539380	0.574097
	H482	H	0.272349	0.527026	0.541514
	O483	O	0.525639	0.712503	0.712495
	H484	H	0.508547	0.709612	0.706566
	H485	H	0.508750	0.724128	0.715676
	O486	O	0.797284	0.221029	0.780442
	H487	H	0.775777	0.247907	0.758451
	H488	H	0.829717	0.234025	0.770469
	O489	O	1.044752	0.934705	0.233819
	H490	H	1.064843	0.938074	0.226676
	H491	H	1.036194	0.909129	0.237343
	O492	O	0.297959	-0.295381	0.297042
	H493	H	0.285801	-0.286087	0.285006
	H494	H	0.300715	-0.280110	0.307790
	O495	O	-0.093745	0.849759	0.987295
	H496	H	-0.119613	0.851423	0.986915
	H497	H	-0.068050	0.847033	1.000227
	O498	O	0.765169	1.230431	0.971420
	H499	H	0.751803	1.248515	0.951344
	H500	H	0.758316	1.236780	0.946773
	O501	O	0.705688	0.359353	0.508443
	H502	H	0.700888	0.356698	0.502306
	H503	H	0.716400	0.369885	0.513982
