data_Molecule from HDF5

_cell_length_a		16.346661
_cell_length_b		16.128858
_cell_length_c		16.388271
_cell_angle_alpha	89.964133
_cell_angle_beta	89.824438
_cell_angle_gamma	90.097061
_symmetry_space_group_name_H-M	'P 1'
_symmetry_Int_Tables_number		1

loop_
	_symmetry_equiv_pos_as_xyz
	x,y,z

loop_
	_atom_site_label
	_atom_site_type_symbol
	_atom_site_fract_x
	_atom_site_fract_y
	_atom_site_fract_z
	H0	H	0.408885	0.835036	0.710732
	H1	H	0.608933	0.163842	0.709856
	H2	H	0.610236	0.835359	0.279974
	H3	H	0.410759	0.164022	0.280495
	H4	H	0.724883	0.398753	0.832661
	H5	H	0.726447	0.600503	0.156574
	H6	H	0.291581	0.600832	0.833427
	H7	H	0.291606	0.398596	0.157386
	H8	H	0.844527	0.713644	0.399240
	H9	H	0.171526	0.713231	0.591225
	H10	H	0.844743	0.286492	0.591411
	H11	H	0.172570	0.286649	0.397671
	H12	H	0.846844	0.397090	0.712510
	H13	H	0.169676	0.601225	0.711794
	H14	H	0.845707	0.601161	0.278447
	H15	H	0.170698	0.399288	0.277520
	H16	H	0.412208	0.713117	0.831964
	H17	H	0.604833	0.711848	0.158668
	H18	H	0.605379	0.285414	0.831191
	H19	H	0.411735	0.285940	0.158476
	H20	H	0.722744	0.835162	0.397389
	H21	H	0.722903	0.164527	0.593288
	H22	H	0.292906	0.835737	0.595986
	H23	H	0.295062	0.164939	0.395415
	H24	H	0.908089	0.334875	0.209540
	H25	H	0.107549	0.663829	0.208430
	H26	H	0.108821	0.334632	0.779773
	H27	H	0.909381	0.663396	0.780197
	H28	H	0.226905	0.898806	0.334065
	H29	H	0.226234	0.101987	0.657487
	H30	H	0.792497	0.100917	0.333339
	H31	H	0.792767	0.899267	0.657495
	H32	H	0.344413	0.211459	0.899931
	H33	H	0.672173	0.213276	0.091725
	H34	H	0.344795	0.785470	0.093328
	H35	H	0.672918	0.786339	0.898145
	H36	H	0.347746	0.896839	0.214046
	H37	H	0.671768	0.099690	0.209870
	H38	H	0.346252	0.099920	0.779469
	H39	H	0.671265	0.898631	0.778441
	H40	H	0.913171	0.212333	0.331136
	H41	H	0.105831	0.215170	0.658645
	H42	H	0.107225	0.785911	0.332150
	H43	H	0.911502	0.786227	0.658167
	H44	H	0.222451	0.334610	0.896266
	H45	H	0.221946	0.664163	0.092925
	H46	H	0.794693	0.334835	0.092830
	H47	H	0.794423	0.662887	0.895017
	H48	H	0.405381	0.120912	0.588276
	H49	H	0.608377	0.881069	0.584752
	H50	H	0.595213	0.114557	0.405473
	H51	H	0.406977	0.879624	0.406191
	H52	H	0.611933	0.407038	0.112634
	H53	H	0.606219	0.595909	0.877527
	H54	H	0.419163	0.602753	0.113120
	H55	H	0.407162	0.408443	0.877854
	H56	H	0.124009	0.591976	0.399659
	H57	H	0.890618	0.592785	0.589998
	H58	H	0.127361	0.405753	0.596365
	H59	H	0.892982	0.407547	0.402032
	H60	H	0.124241	0.401302	0.580711
	H61	H	0.893214	0.591899	0.587363
	H62	H	0.124392	0.593370	0.400019
	H63	H	0.892410	0.407376	0.400427
	H64	H	0.402918	0.589059	0.113078
	H65	H	0.605478	0.588218	0.880156
	H66	H	0.597644	0.415648	0.106767
	H67	H	0.419717	0.410804	0.882404
	H68	H	0.607945	0.117851	0.406393
	H69	H	0.598904	0.880212	0.595943
	H70	H	0.423341	0.117977	0.598243
	H71	H	0.422232	0.881730	0.394716
	H72	H	0.916744	0.618878	0.092243
	H73	H	0.099768	0.379579	0.093768
	H74	H	0.104223	0.618910	0.897388
	H75	H	0.918253	0.381563	0.903480
	H76	H	0.102060	0.915649	0.608564
	H77	H	0.097309	0.103381	0.378590
	H78	H	0.918526	0.080426	0.606871
	H79	H	0.919865	0.912853	0.381997
	H80	H	0.627123	0.096524	0.896606
	H81	H	0.393379	0.087936	0.089236
	H82	H	0.627517	0.899506	0.090037
	H83	H	0.395278	0.907044	0.908936
	H84	H	0.622001	0.908795	0.081581
	H85	H	0.392170	0.090674	0.092279
	H86	H	0.623646	0.093023	0.907615
	H87	H	0.393858	0.913145	0.899207
	H88	H	0.922200	0.102227	0.610751
	H89	H	0.115464	0.090935	0.376977
	H90	H	0.094771	0.904623	0.609477
	H91	H	0.917397	0.900966	0.378511
	H92	H	0.092883	0.614422	0.901717
	H93	H	0.094561	0.384233	0.083507
	H94	H	0.922128	0.614428	0.084155
	H95	H	0.916112	0.381379	0.903700
	H96	H	0.422243	0.112662	0.577853
	H97	H	0.594716	0.884810	0.582757
	H98	H	0.601543	0.119278	0.395370
	H99	H	0.423384	0.887097	0.412793
	H100	H	0.597176	0.398654	0.111738
	H101	H	0.598789	0.593177	0.879585
	H102	H	0.421334	0.582931	0.105573
	H103	H	0.416476	0.398797	0.877599
	H104	H	0.123368	0.591286	0.399993
	H105	H	0.892406	0.590246	0.589655
	H106	H	0.120832	0.417560	0.586611
	H107	H	0.892707	0.405830	0.400552
	H108	H	0.912071	0.617792	0.083373
	H109	H	0.106451	0.380500	0.083976
	H110	H	0.102342	0.615043	0.909701
	H111	H	0.916756	0.381445	0.901999
	H112	H	0.107323	0.904612	0.613593
	H113	H	0.096538	0.081674	0.385314
	H114	H	0.902231	0.093788	0.614649
	H115	H	0.908232	0.909395	0.378108
	H116	H	0.622600	0.085704	0.899284
	H117	H	0.392599	0.092365	0.088347
	H118	H	0.624586	0.912686	0.094236
	H119	H	0.390405	0.901507	0.899604
	C120	C	0.387341	0.008352	0.617393
	C121	C	0.629794	0.990771	0.616572
	C122	C	0.630708	0.008441	0.373834
	C123	C	0.388462	0.991561	0.374785
	C124	C	0.630551	0.377456	0.002866
	C125	C	0.631844	0.621399	0.986612
	C126	C	0.386386	0.621049	0.003443
	C127	C	0.386227	0.377295	0.986733
	C128	C	0.016636	0.621919	0.372095
	C129	C	0.999387	0.620945	0.617173
	C130	C	0.016817	0.378072	0.616777
	C131	C	1.000411	0.377969	0.372385
	C132	C	0.887554	0.508147	0.115576
	C133	C	0.128760	0.490526	0.115250
	C134	C	0.129347	0.507623	0.873458
	C135	C	0.887996	0.490093	0.873677
	C136	C	0.130739	0.878312	0.503658
	C137	C	0.131513	0.122063	0.487383
	C138	C	0.886756	0.121197	0.503170
	C139	C	0.886792	0.878452	0.486824
	C140	C	0.516805	0.120971	0.873430
	C141	C	0.500392	0.120395	0.117665
	C142	C	0.517420	0.877241	0.117651
	C143	C	0.500930	0.878096	0.873728
	C144	C	0.388597	0.884473	0.673092
	C145	C	0.628074	0.114980	0.671425
	C146	C	0.629530	0.884679	0.318177
	C147	C	0.390492	0.115091	0.318691
	C148	C	0.686109	0.379000	0.880882
	C149	C	0.687346	0.619849	0.108452
	C150	C	0.330397	0.620165	0.881537
	C151	C	0.330352	0.379105	0.109020
	C152	C	0.893296	0.676357	0.377183
	C153	C	0.122571	0.675999	0.612772
	C154	C	0.893811	0.323365	0.613328
	C155	C	0.123506	0.323821	0.376155
	C156	C	0.894871	0.378275	0.673324
	C157	C	0.121674	0.620453	0.672618
	C158	C	0.894312	0.620897	0.316782
	C159	C	0.122483	0.379732	0.316533
	C160	C	0.390679	0.675770	0.880639
	C161	C	0.627519	0.675829	0.109399
	C162	C	0.626550	0.322744	0.880217
	C163	C	0.389873	0.323042	0.109722
	C164	C	0.685468	0.884319	0.376532
	C165	C	0.685205	0.115231	0.614012
	C166	C	0.331187	0.884697	0.615881
	C167	C	0.333307	0.115544	0.376056
	C168	C	0.888211	0.384482	0.171807
	C169	C	0.127239	0.614795	0.170330
	C170	C	0.128108	0.383966	0.817767
	C171	C	0.889468	0.614038	0.818275
	C172	C	0.187656	0.879349	0.382086
	C173	C	0.187216	0.121360	0.609347
	C174	C	0.831187	0.120112	0.381420
	C175	C	0.831145	0.879822	0.609034
	C176	C	0.393690	0.175219	0.877577
	C177	C	0.623281	0.175587	0.113081
	C178	C	0.394337	0.822147	0.114868
	C179	C	0.623661	0.822956	0.876696
	C180	C	0.395781	0.877420	0.175002
	C181	C	0.623197	0.119246	0.171933
	C182	C	0.394622	0.119553	0.817889
	C183	C	0.622861	0.879007	0.817198
	C184	C	0.891079	0.175705	0.380463
	C185	C	0.127539	0.177646	0.609937
	C186	C	0.128270	0.823054	0.381149
	C187	C	0.890052	0.823371	0.609415
	C188	C	0.184921	0.383860	0.875620
	C189	C	0.184139	0.614953	0.112870
	C190	C	0.831963	0.384217	0.113689
	C191	C	0.832309	0.613927	0.875162
	C192	C	0.410186	0.094876	0.594674
	C193	C	0.607278	0.904298	0.594235
	C194	C	0.608269	0.094897	0.395955
	C195	C	0.410910	0.905032	0.397858
	C196	C	0.608557	0.400429	0.088444
	C197	C	0.610059	0.599034	0.901204
	C198	C	0.407939	0.598286	0.088508
	C199	C	0.408113	0.399753	0.901412
	C200	C	0.101794	0.598970	0.393544
	C201	C	0.914341	0.598188	0.595465
	C202	C	0.102195	0.401282	0.594485
	C203	C	0.914898	0.400357	0.394485
	C204	C	0.910400	0.594726	0.093205
	C205	C	0.106829	0.404096	0.093511
	C206	C	0.106642	0.593878	0.896316
	C207	C	0.910355	0.403633	0.896444
	C208	C	0.108158	0.901400	0.588542
	C209	C	0.109825	0.098787	0.402294
	C210	C	0.908105	0.098786	0.588672
	C211	C	0.908694	0.901095	0.401546
	C212	C	0.602193	0.098485	0.894901
	C213	C	0.415051	0.097222	0.096332
	C214	C	0.602652	0.900183	0.095190
	C215	C	0.415496	0.900584	0.895917
	Zn216	Zn	0.509055	-0.000341	0.744569
	Zn217	Zn	0.509250	-0.000932	0.246349
	Zn218	Zn	0.760456	0.498919	-0.005635
	Zn219	Zn	0.257171	0.499062	-0.004885
	Zn220	Zn	0.008459	0.750060	0.495119
	Zn221	Zn	0.008760	0.249778	0.495225
	Zn222	Zn	0.008382	0.499106	0.745399
	Zn223	Zn	0.008009	0.499510	0.243410
	Zn224	Zn	0.508918	0.749454	-0.004904
	Zn225	Zn	0.508564	0.248896	-0.004626
	Zn226	Zn	0.757785	-0.000547	0.495175
	Zn227	Zn	0.260395	0.000234	0.495581
	N228	N	0.422525	0.962665	0.674337
	N229	N	0.594389	0.036703	0.673152
	N230	N	0.595912	0.962898	0.316577
	N231	N	0.424243	0.036893	0.317955
	N232	N	0.688565	0.412408	0.958172
	N233	N	0.690376	0.586927	0.030926
	N234	N	0.327697	0.586703	0.958753
	N235	N	0.328086	0.412194	0.031601
	N236	N	0.970287	0.677111	0.410825
	N237	N	0.045644	0.676479	0.578906
	N238	N	0.970666	0.322975	0.578750
	N239	N	0.046384	0.322385	0.410095
	N240	N	0.972275	0.411897	0.675133
	N241	N	0.044405	0.586876	0.675399
	N242	N	0.971829	0.587681	0.313571
	N243	N	0.044906	0.412636	0.314217
	N244	N	0.424679	0.676530	0.957411
	N245	N	0.593499	0.676713	0.032760
	N246	N	0.592838	0.321675	0.957233
	N247	N	0.423745	0.321594	0.032717
	N248	N	0.686405	0.962257	0.410415
	N249	N	0.686311	0.037093	0.580398
	N250	N	0.330334	0.962804	0.581987
	N251	N	0.331998	0.037548	0.410194
	N252	N	0.922231	0.462551	0.173000
	N253	N	0.093493	0.536605	0.171887
	N254	N	0.094381	0.462104	0.816292
	N255	N	0.923157	0.536045	0.817121
	N256	N	0.189375	0.913050	0.459191
	N257	N	0.189790	0.087732	0.532159
	N258	N	0.828369	0.086916	0.458861
	N259	N	0.828849	0.913300	0.531666
	N260	N	0.470618	0.176169	0.911399
	N261	N	0.546033	0.176151	0.079750
	N262	N	0.470908	0.822090	0.079821
	N263	N	0.546926	0.822477	0.911195
	N264	N	0.473209	0.911087	0.176847
	N265	N	0.545936	0.085463	0.174928
	N266	N	0.472283	0.086796	0.815108
	N267	N	0.545464	0.912474	0.815193
	N268	N	0.924790	0.176517	0.457179
	N269	N	0.093751	0.178331	0.533101
	N270	N	0.093569	0.822447	0.457677
	N271	N	0.924001	0.822616	0.532570
	N272	N	0.185849	0.461796	0.909694
	N273	N	0.185337	0.536744	0.079341
	N274	N	0.831398	0.462158	0.079492
	N275	N	0.831225	0.535767	0.908985
	O276	O	1.012829	0.960454	-0.042430
	H277	H	1.008500	0.958697	-0.045255
	H278	H	1.013903	0.970233	-0.046079
	O279	O	0.093782	0.047998	1.040704
	H280	H	0.092426	0.051209	1.047098
	H281	H	0.100200	0.048842	1.038213
	O282	O	0.044978	-0.014917	-0.104494
	H283	H	0.045902	-0.010160	-0.104359
	H284	H	0.039561	-0.016609	-0.101733
	O285	O	0.518271	0.488855	0.519948
	H286	H	0.513849	0.482659	0.519128
	H287	H	0.526241	0.481067	0.518211
	O288	O	-0.030719	-0.073651	-0.008523
	H289	H	-0.029124	-0.075969	-0.002843
	H290	H	-0.027763	-0.079022	-0.013477
	O291	O	0.007065	0.953062	0.061075
	H292	H	0.008409	0.957667	0.046241
	H293	H	0.010562	0.969987	0.064329
	O294	O	-0.014967	1.058745	0.072494
	H295	H	-0.009355	1.059966	0.063822
	H296	H	-0.014185	1.052525	0.063640
	O297	O	0.497353	0.514445	0.450643
	H298	H	0.496197	0.513736	0.443123
	H299	H	0.498508	0.523844	0.456336
	O300	O	0.523751	0.485493	0.452390
	H301	H	0.520873	0.487011	0.456901
	H302	H	0.528429	0.470042	0.452851
	O303	O	1.022146	0.011104	0.950329
	H304	H	1.020029	0.011952	0.952428
	H305	H	1.023138	0.017167	0.950146
	O306	O	-0.022281	0.955021	1.054137
	H307	H	-0.025133	0.946384	1.055075
	H308	H	-0.028319	0.956937	1.062230
	O309	O	-0.010113	1.004109	0.967546
	H310	H	-0.011348	1.000657	0.964670
	H311	H	-0.015820	0.998479	0.971942
	O312	O	0.011586	0.041729	0.982969
	H313	H	0.020165	0.038566	0.986024
	H314	H	0.014269	0.034832	0.973440
	O315	O	0.484938	0.441398	0.480913
	H316	H	0.476620	0.434175	0.479985
	H317	H	0.482190	0.437765	0.481127
	O318	O	0.040711	-0.008265	1.042366
	H319	H	0.046912	-0.016053	1.037017
	H320	H	0.039634	-0.013200	1.059513
	O321	O	0.482838	0.496524	0.470626
	H322	H	0.486865	0.497048	0.467769
	H323	H	0.479250	0.504381	0.478747
	O324	O	1.060790	-0.044720	0.938441
	H325	H	1.060248	-0.055449	0.921616
	H326	H	1.063361	-0.041670	0.951457
	O327	O	0.990647	0.932271	1.039469
	H328	H	0.984557	0.923838	1.041838
	H329	H	0.988603	0.931755	1.035643
	O330	O	0.485365	0.493059	0.496162
	H331	H	0.482686	0.498297	0.493066
	H332	H	0.482607	0.476272	0.501406
	O333	O	-0.110960	-0.009531	1.056302
	H334	H	-0.110504	-0.002661	1.055634
	H335	H	-0.112388	-0.016924	1.059854
	O336	O	0.481867	0.521384	0.459565
	H337	H	0.484301	0.521124	0.462862
	H338	H	0.479493	0.525379	0.458333
	O339	O	0.540108	0.441669	0.510916
	H340	H	0.539933	0.441039	0.520058
	H341	H	0.532868	0.448079	0.501597
	O342	O	0.063349	1.027293	-0.062173
	H343	H	0.064298	1.026934	-0.054194
	H344	H	0.068553	1.021994	-0.056471
	O345	O	0.526982	0.516426	0.509702
	H346	H	0.533366	0.517064	0.509116
	H347	H	0.542099	0.513480	0.505455
