data_Molecule from HDF5

_cell_length_a		16.418572
_cell_length_b		16.376797
_cell_length_c		16.465775
_cell_angle_alpha	89.991548
_cell_angle_beta	90.010429
_cell_angle_gamma	89.937546
_symmetry_space_group_name_H-M	'P 1'
_symmetry_Int_Tables_number		1

loop_
	_symmetry_equiv_pos_as_xyz
	x,y,z

loop_
	_atom_site_label
	_atom_site_type_symbol
	_atom_site_fract_x
	_atom_site_fract_y
	_atom_site_fract_z
	H0	H	0.384917	0.853801	0.716387
	H1	H	0.596294	0.170790	0.720124
	H2	H	0.594011	0.854307	0.277893
	H3	H	0.381774	0.171826	0.273380
	H4	H	0.712913	0.404659	0.840384
	H5	H	0.709792	0.619657	0.153934
	H6	H	0.267653	0.616949	0.838213
	H7	H	0.268253	0.407544	0.155743
	H8	H	0.829641	0.733571	0.398429
	H9	H	0.150299	0.732173	0.601617
	H10	H	0.831113	0.292459	0.604403
	H11	H	0.147956	0.294876	0.392619
	H12	H	0.830212	0.407959	0.719867
	H13	H	0.147800	0.619121	0.719735
	H14	H	0.830528	0.622790	0.276401
	H15	H	0.146968	0.410369	0.275652
	H16	H	0.381236	0.734858	0.838459
	H17	H	0.593362	0.735153	0.153845
	H18	H	0.594151	0.291642	0.838539
	H19	H	0.383673	0.290291	0.155100
	H20	H	0.709943	0.854814	0.395396
	H21	H	0.712245	0.172540	0.603977
	H22	H	0.266604	0.856397	0.602782
	H23	H	0.268293	0.173133	0.390132
	H24	H	0.880238	0.357649	0.221743
	H25	H	0.092046	0.674851	0.215221
	H26	H	0.094007	0.355585	0.774614
	H27	H	0.879516	0.672408	0.775614
	H28	H	0.210593	0.908982	0.338264
	H29	H	0.215673	0.124861	0.653022
	H30	H	0.768473	0.120181	0.339119
	H31	H	0.767705	0.907946	0.655469
	H32	H	0.331522	0.235241	0.889042
	H33	H	0.648150	0.233113	0.100972
	H34	H	0.329521	0.792424	0.102526
	H35	H	0.647345	0.791126	0.892932
	H36	H	0.331695	0.906883	0.220589
	H37	H	0.647906	0.119005	0.218213
	H38	H	0.332753	0.121182	0.771780
	H39	H	0.647993	0.905679	0.775790
	H40	H	0.882085	0.237475	0.339819
	H41	H	0.096190	0.237766	0.655676
	H42	H	0.094787	0.792427	0.339658
	H43	H	0.885871	0.794383	0.657026
	H44	H	0.209536	0.354005	0.891207
	H45	H	0.210926	0.672055	0.103095
	H46	H	0.765958	0.355418	0.105153
	H47	H	0.764996	0.672180	0.892071
	H48	H	0.401820	0.126233	0.581751
	H49	H	0.577229	0.900979	0.583784
	H50	H	0.587690	0.130263	0.408461
	H51	H	0.401142	0.901983	0.411033
	H52	H	0.577281	0.425599	0.108672
	H53	H	0.578150	0.596481	0.884397
	H54	H	0.404734	0.610196	0.110501
	H55	H	0.404597	0.424018	0.886154
	H56	H	0.100504	0.602805	0.412981
	H57	H	0.875634	0.595268	0.596954
	H58	H	0.104024	0.424268	0.591033
	H59	H	0.877321	0.433427	0.407966
	H60	H	0.100084	0.424819	0.580208
	H61	H	0.871553	0.617095	0.590807
	H62	H	0.103256	0.598813	0.401091
	H63	H	0.873527	0.424129	0.405884
	H64	H	0.389921	0.602932	0.113824
	H65	H	0.570898	0.600202	0.886090
	H66	H	0.575170	0.423012	0.109317
	H67	H	0.397161	0.418133	0.882113
	H68	H	0.575008	0.129189	0.398984
	H69	H	0.583467	0.899287	0.583514
	H70	H	0.403524	0.127204	0.587826
	H71	H	0.400582	0.900711	0.407811
	H72	H	0.893572	0.629383	0.083445
	H73	H	0.079605	0.399928	0.088555
	H74	H	0.075685	0.627031	0.906781
	H75	H	0.902900	0.401014	0.907097
	H76	H	0.079189	0.926456	0.609696
	H77	H	0.077089	0.102078	0.386644
	H78	H	0.900089	0.103119	0.610680
	H79	H	0.910555	0.923698	0.387611
	H80	H	0.601969	0.098771	0.906185
	H81	H	0.378607	0.099796	0.081694
	H82	H	0.603551	0.916347	0.082241
	H83	H	0.376498	0.925359	0.906891
	H84	H	0.598283	0.929772	0.082435
	H85	H	0.376350	0.097283	0.088163
	H86	H	0.603195	0.102633	0.907615
	H87	H	0.375479	0.924165	0.906589
	H88	H	0.902275	0.101337	0.609171
	H89	H	0.076258	0.106022	0.384856
	H90	H	0.080322	0.926037	0.610299
	H91	H	0.895814	0.916802	0.381173
	H92	H	0.074663	0.625154	0.911974
	H93	H	0.073690	0.400530	0.089270
	H94	H	0.899607	0.629150	0.090969
	H95	H	0.902366	0.402850	0.911601
	H96	H	0.407387	0.124231	0.583515
	H97	H	0.579972	0.898579	0.589402
	H98	H	0.574458	0.124538	0.414001
	H99	H	0.403875	0.902171	0.408519
	H100	H	0.578398	0.423071	0.110401
	H101	H	0.577185	0.605060	0.881966
	H102	H	0.402274	0.594032	0.105475
	H103	H	0.395108	0.428181	0.884431
	H104	H	0.106535	0.610378	0.404058
	H105	H	0.880270	0.602702	0.576023
	H106	H	0.099353	0.434161	0.587261
	H107	H	0.877329	0.426547	0.415146
	H108	H	0.902063	0.625121	0.081999
	H109	H	0.076446	0.401847	0.083910
	H110	H	0.079721	0.626741	0.909901
	H111	H	0.898412	0.400063	0.909170
	H112	H	0.079948	0.927212	0.610200
	H113	H	0.080130	0.103919	0.384649
	H114	H	0.902777	0.104232	0.609145
	H115	H	0.895749	0.933400	0.385543
	H116	H	0.601421	0.100115	0.910312
	H117	H	0.374957	0.103842	0.086086
	H118	H	0.603722	0.924248	0.094462
	H119	H	0.376127	0.924474	0.907445
	C120	C	0.369523	0.021670	0.617609
	C121	C	0.612319	1.004534	0.618722
	C122	C	0.611147	0.022647	0.375958
	C123	C	0.368352	1.005873	0.375235
	C124	C	0.610068	0.391189	0.005449
	C125	C	0.607957	0.633368	0.988433
	C126	C	0.366525	0.634616	0.005219
	C127	C	0.366724	0.390791	0.988552
	C128	C	-0.002328	0.636465	0.376100
	C129	C	0.981222	0.636537	0.619969
	C130	C	-0.003465	0.394218	0.618886
	C131	C	0.980531	0.394882	0.376517
	C132	C	0.865730	0.523033	0.119133
	C133	C	0.109613	0.505831	0.118845
	C134	C	0.109335	0.521536	0.876903
	C135	C	0.866961	0.505429	0.876335
	C136	C	0.111790	0.893532	0.505754
	C137	C	0.111303	0.137129	0.489031
	C138	C	0.868219	0.136369	0.505739
	C139	C	0.869024	0.892971	0.489532
	C140	C	0.497803	0.133750	0.874791
	C141	C	0.481082	0.133589	0.117869
	C142	C	0.497408	0.890952	0.118891
	C143	C	0.480765	0.891719	0.875251
	C144	C	0.366416	0.902042	0.677018
	C145	C	0.614121	0.123855	0.679255
	C146	C	0.612736	0.902286	0.317549
	C147	C	0.364612	0.124293	0.313837
	C148	C	0.672019	0.387126	0.887337
	C149	C	0.668976	0.636900	0.106773
	C150	C	0.306691	0.636151	0.885961
	C151	C	0.307295	0.388673	0.108091
	C152	C	0.877513	0.695161	0.377333
	C153	C	0.101602	0.694145	0.621127
	C154	C	0.878319	0.332518	0.622266
	C155	C	0.099996	0.334587	0.374018
	C156	C	0.877925	0.390446	0.679773
	C157	C	0.100324	0.637784	0.680046
	C158	C	0.877951	0.639821	0.317033
	C159	C	0.099360	0.391865	0.315598
	C160	C	0.363454	0.694674	0.886082
	C161	C	0.610706	0.694370	0.106929
	C162	C	0.612586	0.331085	0.886163
	C163	C	0.365085	0.330606	0.107650
	C164	C	0.670806	0.902653	0.375356
	C165	C	0.671974	0.124569	0.621545
	C166	C	0.307405	0.903433	0.620583
	C167	C	0.307443	0.124979	0.371931
	C168	C	0.862443	0.404803	0.181398
	C169	C	0.111067	0.626408	0.176735
	C170	C	0.112257	0.402726	0.815249
	C171	C	0.862444	0.624826	0.815809
	C172	C	0.170842	0.891054	0.386136
	C173	C	0.174107	0.141694	0.606467
	C174	C	0.808188	0.138381	0.386912
	C175	C	0.808504	0.890710	0.608352
	C176	C	0.379085	0.195055	0.871239
	C177	C	0.600489	0.193599	0.119449
	C178	C	0.377638	0.831903	0.120986
	C179	C	0.599906	0.831001	0.873840
	C180	C	0.378567	0.888895	0.179804
	C181	C	0.600350	0.136826	0.178008
	C182	C	0.379692	0.137853	0.812948
	C183	C	0.600096	0.887910	0.815459
	C184	C	0.865010	0.196853	0.387085
	C185	C	0.114582	0.198022	0.607836
	C186	C	0.113523	0.832689	0.386910
	C187	C	0.867383	0.834002	0.609151
	C188	C	0.169736	0.402012	0.873509
	C189	C	0.170159	0.624994	0.120548
	C190	C	0.805411	0.403753	0.122870
	C191	C	0.805078	0.624404	0.873619
	C192	C	0.396342	0.104460	0.591834
	C193	C	0.587415	0.921415	0.593000
	C194	C	0.586204	0.106289	0.400115
	C195	C	0.394438	0.922955	0.401771
	C196	C	0.584140	0.416507	0.087773
	C197	C	0.582569	0.607773	0.905647
	C198	C	0.391620	0.609783	0.088224
	C199	C	0.391495	0.416296	0.905725
	C200	C	0.081445	0.611258	0.399482
	C201	C	0.897423	0.611985	0.595147
	C202	C	0.079598	0.420329	0.593225
	C203	C	0.897684	0.420536	0.402430
	C204	C	0.891122	0.606207	0.093110
	C205	C	0.084044	0.422523	0.094484
	C206	C	0.083953	0.604531	0.902411
	C207	C	0.893608	0.422954	0.901919
	C208	C	0.086831	0.919090	0.588440
	C209	C	0.085128	0.111385	0.406854
	C210	C	0.894033	0.110516	0.588215
	C211	C	0.893681	0.917550	0.406404
	C212	C	0.580523	0.107757	0.900862
	C213	C	0.398253	0.107768	0.092552
	C214	C	0.580177	0.916038	0.093761
	C215	C	0.397640	0.917322	0.899878
	Zn216	Zn	0.490022	0.012106	0.746207
	Zn217	Zn	0.489789	0.013210	0.247085
	Zn218	Zn	0.738052	0.512916	-0.003052
	Zn219	Zn	0.238056	0.512798	-0.002575
	Zn220	Zn	-0.009238	0.764232	0.498538
	Zn221	Zn	-0.011023	0.265508	0.497602
	Zn222	Zn	-0.011689	0.515068	0.747741
	Zn223	Zn	-0.011664	0.515882	0.246852
	Zn224	Zn	0.487605	0.762992	-0.003770
	Zn225	Zn	0.488908	0.262375	-0.003591
	Zn226	Zn	0.739941	0.014583	0.497167
	Zn227	Zn	0.240535	0.014982	0.496607
	N228	N	0.404205	0.976774	0.675275
	N229	N	0.577866	0.048276	0.677597
	N230	N	0.576577	0.977914	0.317758
	N231	N	0.401979	0.049239	0.316109
	N232	N	0.670576	0.423782	0.962203
	N233	N	0.667254	0.599457	0.032230
	N234	N	0.308365	0.599429	0.961048
	N235	N	0.308175	0.425225	0.032981
	N236	N	0.953157	0.693267	0.413097
	N237	N	0.026223	0.693560	0.584815
	N238	N	0.953204	0.334895	0.585177
	N239	N	0.024905	0.336113	0.411076
	N240	N	0.952645	0.428155	0.677613
	N241	N	0.024120	0.602961	0.679596
	N242	N	0.953748	0.604262	0.316132
	N243	N	0.023951	0.428344	0.316899
	N244	N	0.399586	0.694158	0.961416
	N245	N	0.573553	0.692238	0.032275
	N246	N	0.574754	0.333460	0.960597
	N247	N	0.401024	0.331486	0.032345
	N248	N	0.669653	0.978487	0.411131
	N249	N	0.670942	0.049316	0.584621
	N250	N	0.309282	0.979152	0.584541
	N251	N	0.309589	0.049869	0.409276
	N252	N	0.899378	0.479977	0.179049
	N253	N	0.073948	0.551295	0.175730
	N254	N	0.075209	0.477931	0.817358
	N255	N	0.900181	0.549983	0.817202
	N256	N	0.169935	0.928450	0.460870
	N257	N	0.172232	0.104471	0.531796
	N258	N	0.809943	0.101454	0.461888
	N259	N	0.809400	0.926961	0.532995
	N260	N	0.453573	0.192677	0.909157
	N261	N	0.525322	0.191699	0.082823
	N262	N	0.452355	0.833234	0.083633
	N263	N	0.524666	0.833206	0.910255
	N264	N	0.454082	0.924779	0.178786
	N265	N	0.525046	0.100244	0.177395
	N266	N	0.454586	0.100431	0.815115
	N267	N	0.524967	0.924878	0.816200
	N268	N	0.901521	0.195817	0.462085
	N269	N	0.076484	0.195712	0.533575
	N270	N	0.077616	0.834040	0.462336
	N271	N	0.904360	0.835377	0.534359
	N272	N	0.167728	0.476769	0.911263
	N273	N	0.169490	0.548899	0.085428
	N274	N	0.807469	0.478438	0.084957
	N275	N	0.807619	0.549004	0.910401
	O276	O	0.443556	0.491361	0.634113
	H277	H	0.444821	0.485602	0.631683
	H278	H	0.440664	0.496342	0.622538
	O279	O	0.460132	0.671678	0.486128
	H280	H	0.447984	0.675293	0.473288
	H281	H	0.452638	0.680235	0.486215
	O282	O	0.399623	0.716026	0.292361
	H283	H	0.407345	0.719325	0.281183
	H284	H	0.371479	0.726455	0.285653
	O285	O	1.676778	1.568032	0.689661
	H286	H	1.660218	1.570651	0.687273
	H287	H	1.690404	1.571610	0.689170
	O288	O	0.535615	0.348484	0.583064
	H289	H	0.555131	0.359178	0.584380
	H290	H	0.536526	0.350725	0.574978
	O291	O	0.698830	0.505297	0.290163
	H292	H	0.699043	0.472787	0.281077
	H293	H	0.713340	0.486030	0.271215
	O294	O	0.827259	0.874214	1.057357
	H295	H	0.828901	0.884214	1.045850
	H296	H	0.817032	0.874909	1.053767
	O297	O	0.453924	0.553973	0.297484
	H298	H	0.465943	0.547681	0.301482
	H299	H	0.450793	0.551559	0.285515
	O300	O	-0.660435	-0.559287	-0.592713
	H301	H	-0.671130	-0.556836	-0.593854
	H302	H	-0.642015	-0.576469	-0.583821
	O303	O	0.954656	0.015819	0.871412
	H304	H	0.951928	0.000742	0.868390
	H305	H	0.938667	0.013588	0.868456
	O306	O	0.178813	-0.147299	1.025458
	H307	H	0.182298	-0.116888	1.022982
	H308	H	0.176167	-0.159589	1.024820
	O309	O	0.812790	0.021222	-0.207865
	H310	H	0.810611	0.028809	-0.203920
	H311	H	0.803080	0.026045	-0.227350
	O312	O	0.366663	0.396003	0.688250
	H313	H	0.369898	0.383122	0.697494
	H314	H	0.390590	0.408809	0.704892
	O315	O	0.674994	0.329872	0.311005
	H316	H	0.633046	0.319014	0.312531
	H317	H	0.674650	0.318888	0.352042
	O318	O	0.774930	-0.968700	-0.017631
	H319	H	0.769899	-0.969241	-0.012808
	H320	H	0.773521	-0.939945	-0.015163
	O321	O	0.643935	0.685959	0.620275
	H322	H	0.643480	0.682516	0.598627
	H323	H	0.651522	0.667813	0.614613
	O324	O	0.951088	0.004787	1.175421
	H325	H	0.955398	0.033090	1.186597
	H326	H	0.949036	0.005556	1.158172
	O327	O	-0.187062	1.196863	0.811599
	H328	H	-0.172298	1.188461	0.823589
	H329	H	-0.179468	1.206945	0.841024
	O330	O	0.006294	0.800234	0.795773
	H331	H	0.009893	0.793199	0.812170
	H332	H	0.010155	0.775591	0.775796
	O333	O	0.503023	0.628141	-0.623134
	H334	H	0.504340	0.635641	-0.624655
	H335	H	0.505804	0.620386	-0.627053
	O336	O	0.960344	0.838948	-0.054057
	H337	H	0.974496	0.851152	-0.044064
	H338	H	0.958188	0.845451	-0.064717
	O339	O	0.067642	1.082907	0.990326
	H340	H	0.071655	1.080198	1.001313
	H341	H	0.060926	1.073728	0.987137
	O342	O	0.374696	0.333133	0.492233
	H343	H	0.388085	0.334069	0.518843
	H344	H	0.362330	0.328277	0.499214
	O345	O	0.070897	0.140831	0.989005
	H346	H	0.064366	0.131965	0.972634
	H347	H	0.084354	0.144626	0.983214
	O348	O	0.453260	0.588324	0.504520
	H349	H	0.440434	0.592585	0.489268
	H350	H	0.457882	0.580574	0.506284
	O351	O	0.740190	0.788784	0.238055
	H352	H	0.731276	0.781008	0.216078
	H353	H	0.731698	0.809311	0.240735
	O354	O	0.311769	0.646541	1.497445
	H355	H	0.306292	0.644947	1.492311
	H356	H	0.320817	0.643159	1.495030
	O357	O	0.010990	-0.088164	0.168271
	H358	H	-0.010506	-0.094638	0.161156
	H359	H	-0.006258	-0.096382	0.169534
	O360	O	0.831703	-0.033817	0.961958
	H361	H	0.827925	-0.032004	0.956325
	H362	H	0.830408	-0.018326	0.974217
	O363	O	1.105614	0.013783	-0.195236
	H364	H	1.101157	-0.004797	-0.215514
	H365	H	1.112383	0.017711	-0.194992
	O366	O	-0.210808	0.217011	0.976946
	H367	H	-0.189574	0.225830	0.992039
	H368	H	-0.212086	0.240298	0.995775
	O369	O	0.931681	0.204956	1.053035
	H370	H	0.951533	0.200317	1.066791
	H371	H	0.960504	0.199959	1.054717
	O372	O	0.696367	0.302816	0.474418
	H373	H	0.713423	0.287432	0.483150
	H374	H	0.703529	0.318749	0.498489
	O375	O	0.198737	0.173483	0.999983
	H376	H	0.207648	0.153364	0.980780
	H377	H	0.197283	0.181081	0.997079
	O378	O	0.688632	0.459122	0.572742
	H379	H	0.680902	0.472686	0.597032
	H380	H	0.692075	0.490513	0.540614
	O381	O	-0.159696	1.003341	0.186381
	H382	H	-0.167637	1.012547	0.201376
	H383	H	-0.158122	1.003949	0.184971
	O384	O	0.592143	0.588191	0.466617
	H385	H	0.588453	0.601187	0.449671
	H386	H	0.586103	0.582564	0.448900
	O387	O	0.972853	0.217151	0.798732
	H388	H	0.966856	0.211631	0.792378
	H389	H	0.985038	0.217629	0.795361
	O390	O	1.164771	0.936112	-0.199718
	H391	H	1.157084	0.922766	-0.178090
	H392	H	1.178352	0.944310	-0.210119
	O393	O	1.171310	0.189130	1.186372
	H394	H	1.176855	0.161086	1.173126
	H395	H	1.186679	0.190815	1.159917
	O396	O	0.326498	0.548607	0.376482
	H397	H	0.327983	0.549559	0.402031
	H398	H	0.317161	0.527360	0.383656
	O399	O	0.543429	0.568461	0.604411
	H400	H	0.544361	0.601400	0.599316
	H401	H	0.553875	0.562473	0.609267
	O402	O	1.036270	1.052667	-0.009442
	H403	H	1.039665	1.049577	-0.039315
	H404	H	1.013375	1.043488	-0.008016
	O405	O	0.003144	-0.093514	0.003732
	H406	H	-0.016444	-0.095580	0.010031
	H407	H	0.008429	-0.093693	0.001423
	O408	O	0.386445	0.400293	0.369638
	H409	H	0.381814	0.411356	0.377443
	H410	H	0.371889	0.405493	0.384870
	O411	O	1.186423	0.844833	0.886332
	H412	H	1.168251	0.833970	0.882072
	H413	H	1.188708	0.842246	0.899522
	O414	O	0.302074	0.426140	0.552672
	H415	H	0.303967	0.417701	0.547882
	H416	H	0.299461	0.421596	0.562873
	O417	O	-0.080251	0.823887	1.201934
	H418	H	-0.091916	0.824245	1.198656
	H419	H	-0.095932	0.806920	1.214775
	O420	O	0.463876	1.578175	1.572648
	H421	H	0.476249	1.575193	1.573990
	H422	H	0.467002	1.589680	1.578869
	O423	O	0.184072	1.030504	0.202334
	H424	H	0.166885	1.023754	0.218031
	H425	H	0.183900	1.024510	0.219737
	O426	O	1.143956	0.031430	-0.064293
	H427	H	1.146117	0.048330	-0.052859
	H428	H	1.120644	0.028500	-0.053283
	O429	O	0.473740	0.376174	0.675377
	H430	H	0.476022	0.372975	0.678456
	H431	H	0.481215	0.387571	0.666712
	O432	O	0.618820	0.590078	0.462779
	H433	H	0.601640	0.608566	0.461405
	H434	H	0.616650	0.585680	0.430762
	O435	O	0.009451	0.226121	0.201399
	H436	H	0.055135	0.216566	0.193078
	H437	H	0.020472	0.252665	0.228857
	O438	O	-0.509504	1.695081	0.675947
	H439	H	-0.508622	1.700505	0.685525
	H440	H	-0.488584	1.690235	0.671698
	O441	O	0.459850	0.326755	0.291548
	H442	H	0.436057	0.328664	0.308993
	H443	H	0.454666	0.298812	0.278980
