data_Molecule from HDF5

_cell_length_a		16.234121
_cell_length_b		16.302283
_cell_length_c		16.346625
_cell_angle_alpha	90.318140
_cell_angle_beta	90.224312
_cell_angle_gamma	90.196259
_symmetry_space_group_name_H-M	'P 1'
_symmetry_Int_Tables_number		1

loop_
	_symmetry_equiv_pos_as_xyz
	x,y,z

loop_
	_atom_site_label
	_atom_site_type_symbol
	_atom_site_fract_x
	_atom_site_fract_y
	_atom_site_fract_z
	H0	H	0.394551	0.843237	0.713835
	H1	H	0.595757	0.169615	0.717051
	H2	H	0.596512	0.846150	0.281153
	H3	H	0.391784	0.168963	0.281487
	H4	H	0.709582	0.406443	0.837667
	H5	H	0.711743	0.607336	0.163285
	H6	H	0.277900	0.605520	0.837626
	H7	H	0.277159	0.405609	0.162757
	H8	H	0.831557	0.720542	0.398759
	H9	H	0.157539	0.724567	0.602043
	H10	H	0.832138	0.289998	0.599550
	H11	H	0.157230	0.289659	0.399443
	H12	H	0.831507	0.406579	0.714448
	H13	H	0.157533	0.609888	0.718186
	H14	H	0.831852	0.605294	0.284244
	H15	H	0.157340	0.403627	0.283283
	H16	H	0.393149	0.722004	0.837630
	H17	H	0.597940	0.725896	0.162423
	H18	H	0.593460	0.290471	0.837735
	H19	H	0.393359	0.288910	0.162474
	H20	H	0.709074	0.845091	0.397653
	H21	H	0.711583	0.169127	0.600784
	H22	H	0.279078	0.843719	0.596970
	H23	H	0.279405	0.170558	0.400551
	H24	H	0.892952	0.344163	0.216635
	H25	H	0.098702	0.667841	0.220579
	H26	H	0.096098	0.344855	0.782121
	H27	H	0.892592	0.668371	0.783918
	H28	H	0.210957	0.905499	0.337261
	H29	H	0.211044	0.107000	0.662636
	H30	H	0.776745	0.106257	0.337913
	H31	H	0.778401	0.907659	0.661420
	H32	H	0.331727	0.221084	0.898219
	H33	H	0.658245	0.223368	0.100725
	H34	H	0.331758	0.791584	0.099188
	H35	H	0.658334	0.790567	0.899263
	H36	H	0.332864	0.905127	0.216504
	H37	H	0.657578	0.109537	0.217245
	H38	H	0.331397	0.103887	0.785083
	H39	H	0.658184	0.905539	0.783679
	H40	H	0.891446	0.223499	0.337959
	H41	H	0.096059	0.224385	0.661559
	H42	H	0.094784	0.788274	0.337224
	H43	H	0.893129	0.791268	0.661651
	H44	H	0.209900	0.344293	0.899882
	H45	H	0.212332	0.669289	0.103070
	H46	H	0.780667	0.342527	0.097242
	H47	H	0.779851	0.669548	0.902072
	H48	H	0.393136	0.124914	0.593477
	H49	H	0.587349	0.889421	0.594356
	H50	H	0.580598	0.123374	0.403289
	H51	H	0.401409	0.893226	0.412251
	H52	H	0.586164	0.412190	0.116061
	H53	H	0.586046	0.601051	0.884961
	H54	H	0.402459	0.597136	0.115423
	H55	H	0.401078	0.411439	0.884528
	H56	H	0.112889	0.597795	0.404956
	H57	H	0.878051	0.597685	0.592956
	H58	H	0.110902	0.419212	0.595190
	H59	H	0.882198	0.414334	0.416529
	H60	H	0.112211	0.412610	0.591364
	H61	H	0.878294	0.599592	0.593160
	H62	H	0.111051	0.603067	0.414963
	H63	H	0.878968	0.422055	0.403397
	H64	H	0.407502	0.599083	0.114233
	H65	H	0.589177	0.596572	0.884953
	H66	H	0.590333	0.416290	0.116717
	H67	H	0.401257	0.415425	0.885548
	H68	H	0.583406	0.120767	0.415783
	H69	H	0.584289	0.891373	0.592655
	H70	H	0.407119	0.124129	0.602161
	H71	H	0.400508	0.890337	0.403119
	H72	H	0.905068	0.623111	0.097353
	H73	H	0.078543	0.388669	0.106199
	H74	H	0.081944	0.621137	0.908116
	H75	H	0.897743	0.391011	0.911616
	H76	H	0.081406	0.918638	0.612093
	H77	H	0.083748	0.093699	0.386861
	H78	H	0.907244	0.104289	0.614507
	H79	H	0.896663	0.915781	0.382895
	H80	H	0.611528	0.099495	0.908059
	H81	H	0.380063	0.099287	0.083280
	H82	H	0.609198	0.914792	0.083695
	H83	H	0.381573	0.912798	0.914743
	H84	H	0.608891	0.924242	0.093473
	H85	H	0.381550	0.089691	0.092386
	H86	H	0.612197	0.099071	0.908470
	H87	H	0.379656	0.921488	0.903562
	H88	H	0.897409	0.098804	0.616510
	H89	H	0.083248	0.103948	0.383355
	H90	H	0.085615	0.909742	0.615331
	H91	H	0.905526	0.915069	0.386110
	H92	H	0.086465	0.621074	0.913765
	H93	H	0.077946	0.397331	0.078962
	H94	H	0.907731	0.619533	0.090650
	H95	H	0.899000	0.387880	0.900075
	H96	H	0.407400	0.119303	0.586506
	H97	H	0.587240	0.890949	0.590774
	H98	H	0.592108	0.125312	0.408480
	H99	H	0.408520	0.893907	0.406372
	H100	H	0.585354	0.416750	0.114502
	H101	H	0.583917	0.596559	0.887471
	H102	H	0.403410	0.601698	0.116577
	H103	H	0.403775	0.413074	0.886136
	H104	H	0.108184	0.591765	0.413413
	H105	H	0.878830	0.598956	0.591001
	H106	H	0.108841	0.418826	0.588629
	H107	H	0.874867	0.406407	0.404470
	H108	H	0.900701	0.622707	0.091340
	H109	H	0.101223	0.387274	0.090044
	H110	H	0.088754	0.623935	0.907689
	H111	H	0.908959	0.391798	0.905700
	H112	H	0.091112	0.918729	0.615826
	H113	H	0.092473	0.098834	0.382131
	H114	H	0.906902	0.092972	0.612658
	H115	H	0.901438	0.907115	0.382126
	H116	H	0.612076	0.098884	0.907470
	H117	H	0.375690	0.101399	0.095740
	H118	H	0.615123	0.912920	0.096281
	H119	H	0.376116	0.907304	0.902730
	C120	C	0.372984	0.015175	0.621989
	C121	C	0.615994	0.998213	0.622024
	C122	C	0.615309	0.015901	0.378460
	C123	C	0.373213	0.999333	0.377525
	C124	C	0.616168	0.385219	0.008414
	C125	C	0.617173	0.628674	0.992502
	C126	C	0.373748	0.628335	0.008130
	C127	C	0.372367	0.384065	0.992417
	C128	C	0.003148	0.626838	0.380079
	C129	C	0.985955	0.629249	0.622843
	C130	C	0.003363	0.386274	0.620729
	C131	C	0.986146	0.384167	0.378249
	C132	C	0.874255	0.514454	0.121722
	C133	C	0.116768	0.497935	0.122929
	C134	C	0.115596	0.515062	0.879235
	C135	C	0.872428	0.497664	0.877554
	C136	C	0.115859	0.885237	0.507549
	C137	C	0.116239	0.128458	0.491328
	C138	C	0.873219	0.128225	0.507925
	C139	C	0.871567	0.884002	0.490797
	C140	C	0.503743	0.127684	0.878615
	C141	C	0.486650	0.128450	0.121437
	C142	C	0.503654	0.886558	0.120966
	C143	C	0.486841	0.884848	0.878241
	C144	C	0.374630	0.892341	0.676401
	C145	C	0.615817	0.120744	0.678989
	C146	C	0.615288	0.894351	0.320376
	C147	C	0.373057	0.120729	0.320491
	C148	C	0.671386	0.386682	0.886175
	C149	C	0.673801	0.627847	0.114510
	C150	C	0.316207	0.626121	0.886525
	C151	C	0.315818	0.385536	0.114094
	C152	C	0.880479	0.682706	0.379713
	C153	C	0.108506	0.686526	0.622138
	C154	C	0.880658	0.329102	0.619370
	C155	C	0.108445	0.327683	0.379359
	C156	C	0.880373	0.387072	0.676406
	C157	C	0.108772	0.629072	0.679672
	C158	C	0.880779	0.625421	0.322553
	C159	C	0.108571	0.384570	0.321823
	C160	C	0.373751	0.684185	0.886468
	C161	C	0.617132	0.686505	0.114092
	C162	C	0.613716	0.328944	0.886307
	C163	C	0.373885	0.327690	0.114025
	C164	C	0.671514	0.893813	0.378482
	C165	C	0.672929	0.120671	0.620710
	C166	C	0.317240	0.892430	0.618238
	C167	C	0.316975	0.121454	0.379558
	C168	C	0.874052	0.392341	0.177764
	C169	C	0.117484	0.619719	0.180977
	C170	C	0.115300	0.393346	0.821008
	C171	C	0.873061	0.619868	0.822047
	C172	C	0.172496	0.885651	0.385505
	C173	C	0.172819	0.127321	0.613771
	C174	C	0.815498	0.126646	0.386238
	C175	C	0.815790	0.886726	0.612671
	C176	C	0.380519	0.183016	0.879446
	C177	C	0.609195	0.185455	0.120620
	C178	C	0.380938	0.829707	0.119287
	C179	C	0.609627	0.828848	0.879554
	C180	C	0.381304	0.886194	0.177863
	C181	C	0.608896	0.129076	0.178949
	C182	C	0.380340	0.125143	0.822768
	C183	C	0.609508	0.886086	0.822004
	C184	C	0.872703	0.184848	0.386312
	C185	C	0.116044	0.185799	0.613185
	C186	C	0.114943	0.827165	0.385936
	C187	C	0.873175	0.829008	0.612863
	C188	C	0.172093	0.393052	0.879467
	C189	C	0.174106	0.620361	0.122543
	C190	C	0.817955	0.391676	0.118634
	C191	C	0.817027	0.620459	0.880844
	C192	C	0.395847	0.100693	0.600491
	C193	C	0.592858	0.912853	0.599457
	C194	C	0.592106	0.101227	0.402106
	C195	C	0.396514	0.914406	0.400661
	C196	C	0.593950	0.408434	0.093710
	C197	C	0.593457	0.605083	0.907588
	C198	C	0.397650	0.605738	0.093270
	C199	C	0.395209	0.406902	0.907403
	C200	C	0.088625	0.604116	0.404021
	C201	C	0.900581	0.605659	0.599267
	C202	C	0.088555	0.409722	0.598093
	C203	C	0.900825	0.407610	0.401334
	C204	C	0.897693	0.599608	0.099518
	C205	C	0.092808	0.413135	0.098880
	C206	C	0.092429	0.600072	0.902964
	C207	C	0.895268	0.412321	0.899408
	C208	C	0.092870	0.908832	0.592389
	C209	C	0.093354	0.105308	0.406109
	C210	C	0.897034	0.105334	0.592565
	C211	C	0.894494	0.906214	0.405617
	C212	C	0.589515	0.105673	0.901268
	C213	C	0.401423	0.103956	0.097454
	C214	C	0.588941	0.910399	0.098012
	C215	C	0.401406	0.907323	0.900571
	Zn216	Zn	0.494943	0.006737	0.750613
	Zn217	Zn	0.495160	0.007719	0.249686
	Zn218	Zn	0.745228	0.506575	0.000634
	Zn219	Zn	0.244411	0.506859	0.001023
	Zn220	Zn	-0.005936	0.755965	0.499704
	Zn221	Zn	-0.004978	0.256885	0.499762
	Zn222	Zn	-0.005355	0.507238	0.749966
	Zn223	Zn	-0.004737	0.505896	0.251143
	Zn224	Zn	0.495654	0.757524	0.000140
	Zn225	Zn	0.494707	0.255306	0.000005
	Zn226	Zn	0.743673	0.006732	0.499328
	Zn227	Zn	0.244896	0.007340	0.499154
	N228	N	0.408753	0.969713	0.678924
	N229	N	0.581213	0.043608	0.679997
	N230	N	0.581193	0.971451	0.320271
	N231	N	0.407338	0.043777	0.319105
	N232	N	0.673046	0.421185	0.963203
	N233	N	0.673921	0.592474	0.037951
	N234	N	0.316099	0.592128	0.963349
	N235	N	0.314668	0.419843	0.037426
	N236	N	0.957485	0.683579	0.414906
	N237	N	0.031233	0.686743	0.587586
	N238	N	0.957966	0.328491	0.585482
	N239	N	0.031331	0.327151	0.413473
	N240	N	0.957650	0.421895	0.677669
	N241	N	0.031367	0.594349	0.680421
	N242	N	0.958152	0.591469	0.322480
	N243	N	0.031327	0.418997	0.320930
	N244	N	0.408753	0.685783	0.963242
	N245	N	0.582671	0.687208	0.037067
	N246	N	0.580159	0.327975	0.963281
	N247	N	0.408176	0.326539	0.037215
	N248	N	0.671503	0.970488	0.414089
	N249	N	0.673249	0.043697	0.585986
	N250	N	0.316020	0.969650	0.585283
	N251	N	0.316884	0.044785	0.414323
	N252	N	0.908217	0.469572	0.179953
	N253	N	0.082686	0.542568	0.181528
	N254	N	0.081143	0.470468	0.820550
	N255	N	0.906459	0.542538	0.819621
	N256	N	0.173159	0.921096	0.462022
	N257	N	0.173229	0.092461	0.536908
	N258	N	0.815770	0.092022	0.462495
	N259	N	0.814680	0.920277	0.535712
	N260	N	0.458226	0.184819	0.913303
	N261	N	0.531977	0.185202	0.085760
	N262	N	0.458028	0.829732	0.084746
	N263	N	0.532329	0.827636	0.913539
	N264	N	0.458648	0.921049	0.178856
	N265	N	0.531344	0.094415	0.179612
	N266	N	0.457831	0.091477	0.822105
	N267	N	0.532099	0.920185	0.820951
	N268	N	0.908004	0.185953	0.463053
	N269	N	0.081652	0.186406	0.536173
	N270	N	0.080335	0.827069	0.462634
	N271	N	0.907211	0.827253	0.535967
	N272	N	0.172413	0.469662	0.915010
	N273	N	0.173715	0.543640	0.087064
	N274	N	0.817904	0.468695	0.084501
	N275	N	0.816057	0.543305	0.914527
	O276	O	1.002774	-0.128722	1.098552
	H277	H	0.994052	-0.134992	1.079164
	H278	H	1.002306	-0.139521	1.105677
	O279	O	0.438828	0.677502	0.494966
	H280	H	0.434913	0.677531	0.507284
	H281	H	0.444971	0.680527	0.493089
	O282	O	0.529120	0.437768	0.430590
	H283	H	0.544981	0.426458	0.436826
	H284	H	0.525743	0.442677	0.423918
	O285	O	0.501838	0.504614	0.479734
	H286	H	0.504437	0.511411	0.463106
	H287	H	0.501890	0.506821	0.464811
	O288	O	0.482047	0.424254	0.549490
	H289	H	0.486379	0.428405	0.553394
	H290	H	0.495403	0.428174	0.547631
	O291	O	-0.161596	-0.094091	1.076125
	H292	H	-0.167031	-0.088563	1.071121
	H293	H	-0.162680	-0.097174	1.072065
	O294	O	0.963074	0.926638	0.069243
	H295	H	0.974558	0.919152	0.063205
	H296	H	0.957419	0.935691	0.074594
	O297	O	1.058058	0.995462	-0.030162
	H298	H	1.054677	0.999915	-0.038978
	H299	H	1.057023	0.999631	-0.031552
	O300	O	0.395653	0.534681	0.465247
	H301	H	0.394811	0.549823	0.471434
	H302	H	0.394156	0.536441	0.470003
	O303	O	0.640289	0.521094	0.554083
	H304	H	0.645127	0.511439	0.560122
	H305	H	0.623806	0.521034	0.548534
	O306	O	0.523042	0.484818	0.432696
	H307	H	0.515823	0.482061	0.433483
	H308	H	0.516335	0.480567	0.439721
	O309	O	0.554861	0.535763	0.432798
	H310	H	0.560702	0.518950	0.435104
	H311	H	0.552624	0.537954	0.436409
	O312	O	0.984307	0.953543	0.901637
	H313	H	0.989768	0.951902	0.892822
	H314	H	0.983564	0.949992	0.899804
	O315	O	0.517801	0.474611	0.638018
	H316	H	0.518453	0.482958	0.649160
	H317	H	0.533597	0.463772	0.640059
	O318	O	0.419215	0.594642	0.384970
	H319	H	0.430363	0.591579	0.386715
	H320	H	0.415895	0.598960	0.385619
	O321	O	0.538362	0.494845	0.578456
	H322	H	0.522774	0.506521	0.568785
	H323	H	0.542629	0.498889	0.577904
	O324	O	-0.084126	0.904185	0.907046
	H325	H	-0.069859	0.893289	0.898856
	H326	H	-0.080634	0.901449	0.909226
	O327	O	-0.059092	1.116121	1.021705
	H328	H	-0.053301	1.111908	1.023532
	H329	H	-0.054679	1.111546	1.033402
	O330	O	-0.129130	0.101281	-0.119841
	H331	H	-0.130732	0.094883	-0.108247
	H332	H	-0.140241	0.102153	-0.128983
	O333	O	0.638353	0.630426	0.608319
	H334	H	0.655351	0.635403	0.625697
	H335	H	0.644004	0.624717	0.607513
	O336	O	-0.038031	-0.066831	0.054130
	H337	H	-0.029747	-0.066930	0.047892
	H338	H	-0.037271	-0.074469	0.048149
	O339	O	-0.023235	0.104480	0.013769
	H340	H	-0.039107	0.103132	0.014886
	H341	H	-0.019151	0.106854	0.025462
	O342	O	0.432404	0.522691	0.612837
	H343	H	0.424011	0.520700	0.606915
	H344	H	0.419874	0.532715	0.613065
	O345	O	0.080475	1.046476	1.127949
	H346	H	0.080485	1.043325	1.120402
	H347	H	0.085967	1.030030	1.133044
	O348	O	0.528901	0.378563	0.396753
	H349	H	0.550329	0.384823	0.400145
	H350	H	0.526952	0.372078	0.391059
	O351	O	0.596239	0.489828	0.513991
	H352	H	0.590625	0.492313	0.510775
	H353	H	0.600118	0.483656	0.514031
	O354	O	0.130146	1.066465	0.011061
	H355	H	0.141811	1.073786	0.028634
	H356	H	0.128944	1.055531	0.009316
	O357	O	0.890130	0.025306	0.043760
	H358	H	0.900408	0.029941	0.048693
	H359	H	0.888347	0.032701	0.053393
	O360	O	1.092244	-0.132034	0.909245
	H361	H	1.097641	-0.123888	0.896948
	H362	H	1.098097	-0.126736	0.914447
	O363	O	0.394202	0.463019	0.496922
	H364	H	0.406629	0.460651	0.496009
	H365	H	0.396185	0.456131	0.504151
	O366	O	0.346649	0.493455	0.461705
	H367	H	0.347300	0.499025	0.467643
	H368	H	0.342502	0.486347	0.458572
	O369	O	1.069589	0.140526	0.034928
	H370	H	1.077876	0.146757	0.060347
	H371	H	1.081919	0.129869	0.040117
	O372	O	0.609083	0.616884	0.629757
	H373	H	0.605462	0.614894	0.637820
	H374	H	0.593307	0.612487	0.631495
	O375	O	1.040418	0.088025	0.989597
	H376	H	1.041718	0.097878	0.995464
	H377	H	1.040990	0.091044	0.996388
	O378	O	0.125236	0.901450	-0.049073
	H379	H	0.124786	0.907385	-0.052093
	H380	H	0.119769	0.891414	-0.063787
	O381	O	0.397074	0.490538	0.442889
	H382	H	0.399495	0.496923	0.440878
	H383	H	0.387077	0.476610	0.436597
	O384	O	0.994019	1.038266	-0.030305
	H385	H	0.994606	1.032782	-0.031067
	H386	H	0.985827	1.034535	-0.040417
	O387	O	1.127380	0.011156	1.009048
	H388	H	1.120783	0.015153	1.012259
	H389	H	1.124825	0.020100	1.009038
	O390	O	0.997793	1.166437	-0.055512
	H391	H	0.991382	1.174625	-0.059115
	H392	H	0.987959	1.177050	-0.043150
	O393	O	0.416998	0.448245	0.450954
	H394	H	0.417195	0.439754	0.443658
	H395	H	0.402180	0.435057	0.449305
