data_Molecule from HDF5

_cell_length_a		16.529331
_cell_length_b		16.459649
_cell_length_c		16.401997
_cell_angle_alpha	89.981035
_cell_angle_beta	90.177188
_cell_angle_gamma	89.998355
_symmetry_space_group_name_H-M	'P 1'
_symmetry_Int_Tables_number		1

loop_
	_symmetry_equiv_pos_as_xyz
	x,y,z

loop_
	_atom_site_label
	_atom_site_type_symbol
	_atom_site_fract_x
	_atom_site_fract_y
	_atom_site_fract_z
	H0	H	0.407727	0.857521	0.733427
	H1	H	0.623584	0.171642	0.729480
	H2	H	0.623457	0.857361	0.282414
	H3	H	0.412008	0.173054	0.286166
	H4	H	0.741179	0.406488	0.850087
	H5	H	0.739062	0.620411	0.166036
	H6	H	0.289799	0.624787	0.853114
	H7	H	0.295755	0.406379	0.166438
	H8	H	0.861732	0.738388	0.398216
	H9	H	0.172737	0.739100	0.616785
	H10	H	0.862132	0.288821	0.615768
	H11	H	0.175328	0.291927	0.404425
	H12	H	0.861212	0.405860	0.731409
	H13	H	0.172842	0.623535	0.734731
	H14	H	0.860175	0.619024	0.286027
	H15	H	0.175480	0.409382	0.287589
	H16	H	0.407034	0.738159	0.850993
	H17	H	0.624112	0.736829	0.164679
	H18	H	0.622463	0.294491	0.847879
	H19	H	0.413706	0.293546	0.165348
	H20	H	0.741556	0.857294	0.397710
	H21	H	0.740769	0.169885	0.615790
	H22	H	0.293595	0.857177	0.615557
	H23	H	0.295677	0.171909	0.401863
	H24	H	0.915756	0.355212	0.225737
	H25	H	0.123061	0.672876	0.230622
	H26	H	0.123503	0.356968	0.786018
	H27	H	0.909264	0.671169	0.782910
	H28	H	0.237958	0.908520	0.349135
	H29	H	0.244478	0.123446	0.664590
	H30	H	0.796490	0.117383	0.350501
	H31	H	0.792677	0.902950	0.664776
	H32	H	0.359402	0.238640	0.898391
	H33	H	0.675040	0.234792	0.111112
	H34	H	0.362139	0.787873	0.116725
	H35	H	0.672256	0.788888	0.897616
	H36	H	0.360331	0.906381	0.230569
	H37	H	0.674289	0.118803	0.228321
	H38	H	0.359464	0.120928	0.783560
	H39	H	0.674138	0.908789	0.785561
	H40	H	0.915321	0.231425	0.349422
	H41	H	0.127243	0.237194	0.666302
	H42	H	0.119758	0.795094	0.347914
	H43	H	0.909682	0.789596	0.665033
	H44	H	0.240980	0.357816	0.901105
	H45	H	0.243462	0.670200	0.119279
	H46	H	0.796956	0.357048	0.112387
	H47	H	0.792662	0.670755	0.897792
	H48	H	0.430662	0.125057	0.593653
	H49	H	0.604938	0.902062	0.594039
	H50	H	0.605965	0.124807	0.423101
	H51	H	0.431995	0.902602	0.418419
	H52	H	0.614778	0.433400	0.119962
	H53	H	0.600401	0.601834	0.895885
	H54	H	0.434398	0.595136	0.116825
	H55	H	0.429267	0.429926	0.895867
	H56	H	0.132223	0.605405	0.413881
	H57	H	0.910399	0.596673	0.589095
	H58	H	0.130181	0.426799	0.597566
	H59	H	0.905856	0.424511	0.418702
	H60	H	0.129295	0.424509	0.595105
	H61	H	0.904973	0.598135	0.600504
	H62	H	0.130454	0.608507	0.424123
	H63	H	0.903637	0.422419	0.415594
	H64	H	0.435465	0.605315	0.120240
	H65	H	0.607963	0.603521	0.893072
	H66	H	0.597334	0.425595	0.117343
	H67	H	0.428505	0.423561	0.893746
	H68	H	0.609738	0.127583	0.417736
	H69	H	0.606180	0.900105	0.596248
	H70	H	0.430813	0.124721	0.593928
	H71	H	0.425677	0.901910	0.421628
	H72	H	0.927862	0.628835	0.100383
	H73	H	0.106456	0.400561	0.101640
	H74	H	0.108113	0.627232	0.924158
	H75	H	0.919546	0.400887	0.926714
	H76	H	0.111240	0.930057	0.621088
	H77	H	0.112157	0.108585	0.392102
	H78	H	0.925403	0.099966	0.622507
	H79	H	0.930232	0.924046	0.395550
	H80	H	0.627824	0.106094	0.921797
	H81	H	0.406465	0.104282	0.089538
	H82	H	0.630022	0.922583	0.094579
	H83	H	0.408280	0.931415	0.923645
	H84	H	0.624588	0.928826	0.088880
	H85	H	0.403818	0.100645	0.099653
	H86	H	0.628024	0.101442	0.917862
	H87	H	0.404631	0.928389	0.916011
	H88	H	0.931565	0.097473	0.620991
	H89	H	0.108369	0.092260	0.398475
	H90	H	0.100583	0.930278	0.617377
	H91	H	0.925204	0.926600	0.394768
	H92	H	0.101272	0.625247	0.919286
	H93	H	0.103724	0.403850	0.096029
	H94	H	0.930361	0.626880	0.095072
	H95	H	0.930143	0.399229	0.909743
	H96	H	0.430112	0.124956	0.593285
	H97	H	0.603660	0.901493	0.596877
	H98	H	0.602807	0.124533	0.417135
	H99	H	0.426076	0.899968	0.414837
	H100	H	0.611460	0.415229	0.125376
	H101	H	0.606376	0.596434	0.896281
	H102	H	0.426638	0.600228	0.122144
	H103	H	0.423892	0.427274	0.893647
	H104	H	0.127407	0.598169	0.420818
	H105	H	0.904975	0.607931	0.592429
	H106	H	0.127918	0.427714	0.594960
	H107	H	0.905019	0.420530	0.419201
	H108	H	0.924188	0.628434	0.095316
	H109	H	0.110438	0.401080	0.095517
	H110	H	0.101007	0.623584	0.927137
	H111	H	0.938460	0.407649	0.926010
	H112	H	0.104295	0.920988	0.622114
	H113	H	0.096041	0.105152	0.398108
	H114	H	0.930528	0.104111	0.623072
	H115	H	0.928926	0.929161	0.396762
	H116	H	0.630448	0.106462	0.915753
	H117	H	0.401373	0.110986	0.097347
	H118	H	0.628068	0.931379	0.098435
	H119	H	0.405727	0.923353	0.922925
	C120	C	0.396412	0.021851	0.628529
	C121	C	0.638287	1.004914	0.629132
	C122	C	0.638602	0.021849	0.385835
	C123	C	0.395312	1.005677	0.385484
	C124	C	0.639847	0.392476	0.015987
	C125	C	0.638631	0.634955	0.998890
	C126	C	0.396337	0.635055	0.016701
	C127	C	0.395531	0.393874	0.999130
	C128	C	0.025958	0.636112	0.386060
	C129	C	1.009065	0.635423	0.628996
	C130	C	0.026205	0.392502	0.629694
	C131	C	1.009433	0.391219	0.386695
	C132	C	0.895937	0.523329	0.128973
	C133	C	0.140065	0.505552	0.131292
	C134	C	0.137444	0.522365	0.888934
	C135	C	0.895508	0.505598	0.886122
	C136	C	0.137605	0.893922	0.515579
	C137	C	0.139534	0.135247	0.500277
	C138	C	0.896804	0.133389	0.517472
	C139	C	0.894683	0.891725	0.499167
	C140	C	0.524870	0.137325	0.884822
	C141	C	0.508023	0.136955	0.128291
	C142	C	0.524796	0.893232	0.128168
	C143	C	0.508844	0.893543	0.886468
	C144	C	0.391121	0.904530	0.691907
	C145	C	0.641414	0.123738	0.689855
	C146	C	0.641460	0.904358	0.323385
	C147	C	0.392971	0.124851	0.325288
	C148	C	0.700092	0.389526	0.897141
	C149	C	0.699147	0.638316	0.118026
	C150	C	0.331650	0.641303	0.899721
	C151	C	0.335962	0.389803	0.118477
	C152	C	0.908245	0.697021	0.381960
	C153	C	0.126101	0.698387	0.634407
	C154	C	0.908630	0.330129	0.633498
	C155	C	0.128140	0.331983	0.385515
	C156	C	0.908185	0.388432	0.690890
	C157	C	0.125909	0.640776	0.693068
	C158	C	0.907588	0.637761	0.325725
	C159	C	0.128216	0.390592	0.327738
	C160	C	0.390464	0.697719	0.898637
	C161	C	0.641910	0.696505	0.117341
	C162	C	0.641202	0.333316	0.896143
	C163	C	0.394762	0.333358	0.118162
	C164	C	0.700091	0.904229	0.381081
	C165	C	0.699933	0.122998	0.633136
	C166	C	0.334301	0.904067	0.633102
	C167	C	0.335207	0.124488	0.383134
	C168	C	0.895754	0.403613	0.187488
	C169	C	0.142472	0.624494	0.191896
	C170	C	0.141579	0.404345	0.826487
	C171	C	0.891572	0.623904	0.823615
	C172	C	0.197786	0.890749	0.396548
	C173	C	0.202841	0.139954	0.617920
	C174	C	0.837009	0.135591	0.397853
	C175	C	0.832932	0.886070	0.617377
	C176	C	0.406807	0.198279	0.881020
	C177	C	0.627307	0.195518	0.129878
	C178	C	0.408362	0.829791	0.133129
	C179	C	0.625717	0.830387	0.881067
	C180	C	0.407380	0.888944	0.189855
	C181	C	0.627007	0.138003	0.188291
	C182	C	0.406895	0.139652	0.823638
	C183	C	0.626669	0.890141	0.825279
	C184	C	0.895540	0.192624	0.397558
	C185	C	0.144056	0.196463	0.618960
	C186	C	0.139080	0.834219	0.395953
	C187	C	0.891400	0.829585	0.617533
	C188	C	0.199901	0.404750	0.884118
	C189	C	0.202442	0.623409	0.136502
	C190	C	0.836634	0.404370	0.131053
	C191	C	0.833694	0.623883	0.881064
	C192	C	0.422974	0.103568	0.601461
	C193	C	0.612448	0.922540	0.603130
	C194	C	0.613341	0.104186	0.412020
	C195	C	0.420715	0.922868	0.410775
	C196	C	0.614933	0.417449	0.099298
	C197	C	0.612494	0.608254	0.916481
	C198	C	0.424023	0.607773	0.098378
	C199	C	0.420091	0.419617	0.916119
	C200	C	0.108470	0.611177	0.412197
	C201	C	0.927877	0.608662	0.601753
	C202	C	0.107830	0.418941	0.603499
	C203	C	0.926407	0.415595	0.410925
	C204	C	0.920300	0.606431	0.104015
	C205	C	0.114362	0.423368	0.105129
	C206	C	0.110902	0.604061	0.915655
	C207	C	0.921643	0.424007	0.913197
	C208	C	0.112500	0.919613	0.598471
	C209	C	0.113022	0.109336	0.417771
	C210	C	0.922088	0.107961	0.600425
	C211	C	0.920555	0.918732	0.417130
	C212	C	0.607150	0.111996	0.911059
	C213	C	0.425511	0.112373	0.102881
	C214	C	0.606221	0.920022	0.101578
	C215	C	0.427522	0.920087	0.913027
	Zn216	Zn	0.516970	0.014370	0.757040
	Zn217	Zn	0.516580	0.014908	0.256700
	Zn218	Zn	0.767336	0.514405	0.007137
	Zn219	Zn	0.267368	0.514621	0.009511
	Zn220	Zn	0.017200	0.764958	0.507445
	Zn221	Zn	0.018033	0.262852	0.509099
	Zn222	Zn	0.017068	0.513891	0.758413
	Zn223	Zn	0.017436	0.514298	0.258153
	Zn224	Zn	0.517150	0.763672	0.007320
	Zn225	Zn	0.517175	0.266013	0.006387
	Zn226	Zn	0.767395	0.013315	0.508719
	Zn227	Zn	0.267315	0.013696	0.507588
	N228	N	0.429094	0.978743	0.689047
	N229	N	0.603978	0.049291	0.687639
	N230	N	0.603778	0.978616	0.326355
	N231	N	0.429593	0.049867	0.326435
	N232	N	0.699346	0.425410	0.972684
	N233	N	0.697322	0.600858	0.043067
	N234	N	0.335253	0.603016	0.974160
	N235	N	0.336499	0.426729	0.043383
	N236	N	0.983014	0.696351	0.418685
	N237	N	0.052502	0.695308	0.595312
	N238	N	0.982973	0.332332	0.596366
	N239	N	0.053123	0.332314	0.421314
	N240	N	0.982071	0.426573	0.688628
	N241	N	0.052161	0.602453	0.689957
	N242	N	0.981840	0.600460	0.328414
	N243	N	0.053177	0.426507	0.328085
	N244	N	0.430133	0.693849	0.972213
	N245	N	0.604958	0.694350	0.042284
	N246	N	0.604237	0.335022	0.971190
	N247	N	0.431045	0.335614	0.042937
	N248	N	0.698316	0.978272	0.419467
	N249	N	0.698312	0.047949	0.596301
	N250	N	0.337392	0.978014	0.594508
	N251	N	0.336314	0.049229	0.419462
	N252	N	0.931646	0.478851	0.186542
	N253	N	0.104508	0.550248	0.188890
	N254	N	0.103310	0.478450	0.829373
	N255	N	0.929224	0.549498	0.826409
	N256	N	0.197184	0.926874	0.472012
	N257	N	0.199986	0.102429	0.543093
	N258	N	0.837388	0.099993	0.473476
	N259	N	0.834816	0.923942	0.542695
	N260	N	0.481662	0.197275	0.918185
	N261	N	0.552310	0.195402	0.093610
	N262	N	0.482265	0.832601	0.095323
	N263	N	0.551380	0.832103	0.918316
	N264	N	0.480813	0.927976	0.186635
	N265	N	0.551982	0.102189	0.187198
	N266	N	0.481324	0.102823	0.825712
	N267	N	0.553029	0.928630	0.828393
	N268	N	0.932223	0.191424	0.472985
	N269	N	0.105167	0.193465	0.544856
	N270	N	0.102589	0.835788	0.471197
	N271	N	0.929083	0.832889	0.542958
	N272	N	0.197630	0.479064	0.922094
	N273	N	0.201270	0.548311	0.099667
	N274	N	0.836179	0.480076	0.095695
	N275	N	0.835973	0.549528	0.919237
	O276	O	0.636353	0.736314	0.482181
	H277	H	0.633055	0.731687	0.480964
	H278	H	0.657472	0.754120	0.494201
	O279	O	0.833836	-0.011584	1.111053
	H280	H	0.838777	-0.014427	1.100652
	H281	H	0.834435	-0.018484	1.113327
	O282	O	0.311619	0.543590	0.374919
	H283	H	0.290071	0.546974	0.353341
	H284	H	0.307524	0.537294	0.399595
	O285	O	0.701916	0.414253	0.604352
	H286	H	0.694456	0.412315	0.604990
	H287	H	0.697612	0.424352	0.608104
	O288	O	1.201914	1.017262	0.010890
	H289	H	1.193763	1.023046	0.003639
	H290	H	1.191283	1.019879	0.027107
	O291	O	0.420245	0.617791	0.705801
	H292	H	0.397297	0.602172	0.689557
	H293	H	0.435384	0.595317	0.706807
	O294	O	-0.179442	0.136143	0.846694
	H295	H	-0.190894	0.119715	0.847839
	H296	H	-0.173472	0.131524	0.851462
	O297	O	0.307257	0.725917	0.444167
	H298	H	0.274110	0.743916	0.437776
	H299	H	0.316186	0.715976	0.445554
	O300	O	0.804308	0.844757	1.019746
	H301	H	0.804403	0.838527	1.055019
	H302	H	0.793234	0.825258	1.029845
	O303	O	0.370437	0.312793	0.522991
	H304	H	0.376001	0.305091	0.527334
	H305	H	0.389210	0.308473	0.510183
	O306	O	0.341064	0.631845	0.320787
	H307	H	0.367345	0.621753	0.313207
	H308	H	0.339695	0.626612	0.324388
	O309	O	0.567081	0.490188	0.642665
	H310	H	0.562177	0.474103	0.643400
	H311	H	0.597227	0.497064	0.650781
	O312	O	-0.165692	1.070957	0.994293
	H313	H	-0.167465	1.083501	0.993086
	H314	H	-0.174772	1.054343	0.996896
	O315	O	0.633763	0.477009	0.294605
	H316	H	0.658066	0.478079	0.273336
	H317	H	0.616730	0.487690	0.289794
	O318	O	1.409195	-0.570297	-0.319502
	H319	H	1.439945	-0.577219	-0.315163
	H320	H	1.397124	-0.579976	-0.347223
	O321	O	0.037891	0.206393	-0.134652
	H322	H	0.034025	0.209327	-0.154269
	H323	H	0.012376	0.207060	-0.139542
	O324	O	0.540509	0.729136	0.722269
	H325	H	0.513374	0.701484	0.724555
	H326	H	0.537084	0.758143	0.755040
	O327	O	0.713951	0.319225	0.319460
	H328	H	0.738318	0.326863	0.293428
	H329	H	0.694589	0.346467	0.310023
	O330	O	0.031702	0.906852	0.185636
	H331	H	0.053817	0.914838	0.179426
	H332	H	0.040993	0.923243	0.179870
	O333	O	0.494033	0.731663	0.535806
	H334	H	0.493145	0.730990	0.532806
	H335	H	0.480574	0.732836	0.554461
	O336	O	-0.912582	0.033350	0.868643
	H337	H	-0.916419	0.023252	0.868628
	H338	H	-0.910228	0.018306	0.878134
	O339	O	-0.033195	1.220129	1.154910
	H340	H	-0.001394	1.225871	1.139700
	H341	H	-0.035966	1.224879	1.153717
	O342	O	0.196338	0.838266	0.833059
	H343	H	0.202195	0.884564	0.829305
	H344	H	0.161756	0.824591	0.825822
	O345	O	1.231218	1.228932	0.045094
	H346	H	1.252296	1.254171	0.060488
	H347	H	1.220160	1.230619	0.036704
	O348	O	0.495727	0.714217	0.309896
	H349	H	0.491227	0.723819	0.319713
	H350	H	0.494729	0.737259	0.321724
	O351	O	0.484112	0.307023	0.719391
	H352	H	0.475742	0.288819	0.736974
	H353	H	0.500918	0.299762	0.705508
	O354	O	-0.079722	1.002832	0.035790
	H355	H	-0.075942	1.023573	0.024044
	H356	H	-0.093493	1.019460	0.032367
	O357	O	-0.435030	-0.432764	1.301602
	H358	H	-0.457051	-0.397203	1.304185
	H359	H	-0.448803	-0.450339	1.301566
	O360	O	0.727255	0.610105	0.416115
	H361	H	0.721219	0.591212	0.409100
	H362	H	0.719941	0.596639	0.416537
	O363	O	0.089263	-0.106814	1.075450
	H364	H	0.085031	-0.099292	1.065422
	H365	H	0.099260	-0.100597	1.091876
	O366	O	-0.086947	0.110290	0.116430
	H367	H	-0.094908	0.093853	0.101377
	H368	H	-0.071152	0.101949	0.105232
	O369	O	0.411054	0.491559	0.515904
	H370	H	0.419344	0.496754	0.498012
	H371	H	0.417066	0.506977	0.520663
	O372	O	0.814130	0.187871	1.014994
	H373	H	0.808343	0.208503	0.999046
	H374	H	0.816807	0.183262	0.987293
	O375	O	0.302509	0.494849	0.707725
	H376	H	0.279869	0.490871	0.722002
	H377	H	0.307161	0.480450	0.702647
	O378	O	0.574015	0.302789	0.571012
	H379	H	0.574124	0.309973	0.579796
	H380	H	0.607721	0.302945	0.557637
	O381	O	0.542387	0.435639	0.531855
	H382	H	0.549234	0.450318	0.538317
	H383	H	0.553296	0.432281	0.543343
	O384	O	0.231302	0.798072	-0.009139
	H385	H	0.229295	0.799360	-0.048176
	H386	H	0.247818	0.773780	-0.009655
	O387	O	0.091379	0.118038	1.209981
	H388	H	0.101457	0.120277	1.183183
	H389	H	0.101531	0.095387	1.220079
	O390	O	0.222607	-0.000626	-0.202844
	H391	H	0.248151	0.003499	-0.220397
	H392	H	0.221595	0.008761	-0.174855
	O393	O	1.134170	1.116697	1.210689
	H394	H	1.134667	1.101961	1.185124
	H395	H	1.142757	1.122746	1.227966
	O396	O	0.735025	-0.707886	0.484591
	H397	H	0.742962	-0.703945	0.455730
	H398	H	0.754669	-0.727130	0.460653
	O399	O	0.388348	-0.601266	0.438493
	H400	H	0.409912	-0.593234	0.436273
	H401	H	0.395999	-0.605193	0.443909
	O402	O	0.899207	1.212783	0.811071
	H403	H	0.899758	1.226252	0.786587
	H404	H	0.898904	1.180673	0.810429
	O405	O	1.235700	0.996166	0.142336
	H406	H	1.251037	0.992777	0.136333
	H407	H	1.232944	0.996051	0.141943
	O408	O	1.036876	-0.197541	-0.201391
	H409	H	1.042114	-0.208533	-0.217457
	H410	H	1.023303	-0.214975	-0.185822
	O411	O	1.017848	1.211300	0.032391
	H412	H	1.024958	1.209736	0.022592
	H413	H	1.041227	1.216742	0.039344
	O414	O	-0.095938	-0.062296	-0.160590
	H415	H	-0.103453	-0.072601	-0.163801
	H416	H	-0.102492	-0.064344	-0.152981
	O417	O	0.731891	0.530458	0.720831
	H418	H	0.756118	0.543901	0.738092
	H419	H	0.729732	0.572873	0.718076
	O420	O	-0.167292	-0.168951	0.192460
	H421	H	-0.152005	-0.143197	0.201272
	H422	H	-0.146067	-0.166881	0.207069
	O423	O	0.322527	0.295402	0.276263
	H424	H	0.334339	0.298455	0.305901
	H425	H	0.286431	0.301310	0.281707
	O426	O	0.726305	0.629425	0.442322
	H427	H	0.748632	0.649365	0.445560
	H428	H	0.735447	0.611912	0.432484
	O429	O	0.350799	0.444657	0.476047
	H430	H	0.371094	0.437021	0.487545
	H431	H	0.346186	0.452906	0.476416
	O432	O	0.547451	0.300065	0.290391
	H433	H	0.545260	0.305800	0.274995
	H434	H	0.567201	0.284521	0.276150
	O435	O	0.501280	0.504048	0.541594
	H436	H	0.497885	0.502169	0.550771
	H437	H	0.504235	0.509231	0.540458
	O438	O	-0.034879	-0.015896	-0.030543
	H439	H	-0.046774	-0.017129	-0.036664
	H440	H	-0.024510	-0.013448	-0.024276
	O441	O	0.915724	-0.207875	-0.022091
	H442	H	0.896210	-0.214124	-0.011698
	H443	H	0.916682	-0.209476	0.008342
	O444	O	0.028041	0.823691	1.143227
	H445	H	0.040700	0.827196	1.135014
	H446	H	0.039934	0.823439	1.144625
	O447	O	0.060014	1.075859	-0.144988
	H448	H	0.059972	1.079939	-0.135825
	H449	H	0.065133	1.076970	-0.152207
	O450	O	0.697926	0.688418	0.685258
	H451	H	0.646200	0.703555	0.696448
	H452	H	0.708748	0.702355	0.632380
	O453	O	0.485693	0.573862	0.541863
	H454	H	0.492166	0.545332	0.555694
	H455	H	0.480154	0.562566	0.543790
