data_Molecule from HDF5

_cell_length_a		16.575725
_cell_length_b		16.522374
_cell_length_c		16.562258
_cell_angle_alpha	90.069570
_cell_angle_beta	90.085327
_cell_angle_gamma	90.084142
_symmetry_space_group_name_H-M	'P 1'
_symmetry_Int_Tables_number		1

loop_
	_symmetry_equiv_pos_as_xyz
	x,y,z

loop_
	_atom_site_label
	_atom_site_type_symbol
	_atom_site_fract_x
	_atom_site_fract_y
	_atom_site_fract_z
	H0	H	0.381374	0.857254	0.719335
	H1	H	0.596104	0.168105	0.723196
	H2	H	0.593848	0.857364	0.275896
	H3	H	0.381863	0.169967	0.276272
	H4	H	0.707898	0.407549	0.841535
	H5	H	0.710433	0.619285	0.153976
	H6	H	0.264939	0.617294	0.842054
	H7	H	0.264747	0.406390	0.154205
	H8	H	0.831776	0.735722	0.392615
	H9	H	0.145097	0.732675	0.601270
	H10	H	0.831595	0.291297	0.603232
	H11	H	0.144138	0.292552	0.393575
	H12	H	0.830854	0.408032	0.718871
	H13	H	0.144263	0.618296	0.719511
	H14	H	0.831622	0.619272	0.275839
	H15	H	0.143684	0.407638	0.276327
	H16	H	0.381441	0.734318	0.842538
	H17	H	0.592834	0.733504	0.155277
	H18	H	0.590781	0.291284	0.841872
	H19	H	0.381154	0.290341	0.154292
	H20	H	0.709513	0.856953	0.392329
	H21	H	0.712992	0.167752	0.607356
	H22	H	0.263904	0.858077	0.603374
	H23	H	0.265673	0.170271	0.391980
	H24	H	0.883517	0.356081	0.218168
	H25	H	0.094719	0.669919	0.220570
	H26	H	0.089309	0.354868	0.778056
	H27	H	0.882645	0.670827	0.777788
	H28	H	0.211078	0.905815	0.341929
	H29	H	0.210329	0.119794	0.653418
	H30	H	0.764844	0.119089	0.341891
	H31	H	0.763690	0.904455	0.652720
	H32	H	0.330699	0.234459	0.891683
	H33	H	0.644459	0.233997	0.101361
	H34	H	0.329451	0.791628	0.103024
	H35	H	0.643216	0.791204	0.893575
	H36	H	0.329771	0.908070	0.219912
	H37	H	0.644628	0.117835	0.218903
	H38	H	0.331939	0.119424	0.774073
	H39	H	0.641853	0.905603	0.774968
	H40	H	0.880937	0.235754	0.341806
	H41	H	0.092239	0.234406	0.654691
	H42	H	0.094994	0.789857	0.341659
	H43	H	0.881801	0.791213	0.654529
	H44	H	0.205387	0.354019	0.894386
	H45	H	0.210374	0.669655	0.104376
	H46	H	0.767272	0.355503	0.101044
	H47	H	0.765219	0.669709	0.892249
	H48	H	0.398926	0.125018	0.584255
	H49	H	0.574841	0.901313	0.587734
	H50	H	0.578040	0.126642	0.408693
	H51	H	0.398490	0.903011	0.415129
	H52	H	0.579225	0.429981	0.109154
	H53	H	0.582659	0.602063	0.883647
	H54	H	0.393013	0.602852	0.112984
	H55	H	0.391134	0.428641	0.886081
	H56	H	0.099235	0.599304	0.406761
	H57	H	0.875704	0.600866	0.589475
	H58	H	0.100196	0.427639	0.591935
	H59	H	0.877684	0.426000	0.411479
	H60	H	0.101578	0.419375	0.587523
	H61	H	0.874341	0.604683	0.588105
	H62	H	0.101318	0.604636	0.408660
	H63	H	0.875869	0.427497	0.405618
	H64	H	0.398869	0.594908	0.107910
	H65	H	0.573383	0.595822	0.889529
	H66	H	0.570554	0.424845	0.108491
	H67	H	0.404397	0.425254	0.888880
	H68	H	0.574356	0.125020	0.409081
	H69	H	0.572892	0.903150	0.584673
	H70	H	0.400883	0.126224	0.587629
	H71	H	0.393013	0.898463	0.406757
	H72	H	0.902807	0.623707	0.085050
	H73	H	0.074181	0.402502	0.086116
	H74	H	0.081288	0.624489	0.913184
	H75	H	0.905406	0.400696	0.900207
	H76	H	0.077291	0.924280	0.610025
	H77	H	0.077868	0.102770	0.385567
	H78	H	0.901321	0.104932	0.610209
	H79	H	0.901504	0.929177	0.389616
	H80	H	0.598658	0.097299	0.906082
	H81	H	0.375746	0.098561	0.091003
	H82	H	0.596593	0.928000	0.086538
	H83	H	0.375072	0.921511	0.912520
	H84	H	0.599989	0.922447	0.092927
	H85	H	0.374402	0.105315	0.088413
	H86	H	0.599734	0.106386	0.911251
	H87	H	0.377275	0.927618	0.909369
	H88	H	0.896347	0.101236	0.610282
	H89	H	0.076552	0.100249	0.386607
	H90	H	0.076885	0.927633	0.608015
	H91	H	0.902386	0.921991	0.386476
	H92	H	0.077528	0.626867	0.903165
	H93	H	0.076434	0.400681	0.085682
	H94	H	0.896345	0.625206	0.082665
	H95	H	0.899504	0.404715	0.918022
	H96	H	0.402145	0.123886	0.584674
	H97	H	0.576729	0.901822	0.584128
	H98	H	0.577010	0.125017	0.412343
	H99	H	0.402877	0.902271	0.405674
	H100	H	0.578570	0.420432	0.111983
	H101	H	0.571344	0.607773	0.886285
	H102	H	0.403603	0.604507	0.109680
	H103	H	0.395622	0.416359	0.882679
	H104	H	0.098061	0.600505	0.412470
	H105	H	0.875964	0.601770	0.585128
	H106	H	0.097963	0.426452	0.583127
	H107	H	0.874344	0.421515	0.407874
	H108	H	0.898297	0.626608	0.089678
	H109	H	0.075201	0.400995	0.088442
	H110	H	0.070944	0.622916	0.910796
	H111	H	0.887138	0.396338	0.905154
	H112	H	0.073752	0.925427	0.608668
	H113	H	0.075418	0.102836	0.386503
	H114	H	0.901682	0.099105	0.607431
	H115	H	0.895546	0.925966	0.385476
	H116	H	0.595239	0.098392	0.915634
	H117	H	0.377246	0.100645	0.083932
	H118	H	0.598797	0.919577	0.084501
	H119	H	0.372815	0.922648	0.906031
	C120	C	0.367038	0.021784	0.618426
	C121	C	0.609090	1.004440	0.619922
	C122	C	0.608813	0.021997	0.377630
	C123	C	0.365733	1.004761	0.376469
	C124	C	0.607511	0.392177	0.006290
	C125	C	0.609058	0.634748	0.989617
	C126	C	0.365908	0.633184	0.006810
	C127	C	0.365060	0.391084	0.989528
	C128	C	-0.003461	0.635056	0.376053
	C129	C	0.979016	0.634545	0.619439
	C130	C	-0.003823	0.392114	0.619258
	C131	C	0.978961	0.392190	0.376224
	C132	C	0.866485	0.521664	0.118224
	C133	C	0.108847	0.504790	0.119490
	C134	C	0.108097	0.520886	0.876970
	C135	C	0.865360	0.504496	0.875796
	C136	C	0.109050	0.892536	0.505846
	C137	C	0.108886	0.134851	0.489432
	C138	C	0.866543	0.134515	0.506259
	C139	C	0.866500	0.891791	0.490011
	C140	C	0.495144	0.133656	0.877399
	C141	C	0.479302	0.134167	0.119586
	C142	C	0.494849	0.891331	0.120283
	C143	C	0.478320	0.891163	0.877053
	C144	C	0.363190	0.904160	0.678930
	C145	C	0.613869	0.121147	0.682606
	C146	C	0.611898	0.904217	0.316323
	C147	C	0.363787	0.122941	0.316388
	C148	C	0.667534	0.389461	0.888407
	C149	C	0.669771	0.637107	0.107171
	C150	C	0.305429	0.635664	0.889045
	C151	C	0.304906	0.388330	0.107397
	C152	C	0.878811	0.695598	0.373748
	C153	C	0.097668	0.693477	0.620526
	C154	C	0.878523	0.331476	0.621389
	C155	C	0.096901	0.332350	0.374590
	C156	C	0.878127	0.389648	0.679011
	C157	C	0.097176	0.636779	0.679393
	C158	C	0.878830	0.637890	0.315613
	C159	C	0.096754	0.389820	0.316457
	C160	C	0.363226	0.693894	0.889276
	C161	C	0.611486	0.694256	0.107708
	C162	C	0.609244	0.331851	0.888451
	C163	C	0.362854	0.330655	0.107329
	C164	C	0.669434	0.904125	0.374300
	C165	C	0.671950	0.121197	0.624984
	C166	C	0.305071	0.904603	0.621314
	C167	C	0.305614	0.122965	0.373627
	C168	C	0.864589	0.403220	0.178262
	C169	C	0.112302	0.622697	0.180133
	C170	C	0.108847	0.402243	0.817577
	C171	C	0.863964	0.623288	0.817135
	C172	C	0.170216	0.888578	0.388659
	C173	C	0.169804	0.138176	0.606889
	C174	C	0.805406	0.137054	0.388765
	C175	C	0.805126	0.887896	0.606637
	C176	C	0.377674	0.194164	0.873782
	C177	C	0.597450	0.194201	0.120988
	C178	C	0.376726	0.831172	0.122321
	C179	C	0.595926	0.830936	0.874903
	C180	C	0.377109	0.889285	0.180299
	C181	C	0.597443	0.136567	0.179222
	C182	C	0.378218	0.136796	0.815382
	C183	C	0.595399	0.887800	0.815985
	C184	C	0.863025	0.195308	0.388723
	C185	C	0.110829	0.194947	0.607344
	C186	C	0.112146	0.830919	0.388535
	C187	C	0.863863	0.831237	0.607236
	C188	C	0.166301	0.401774	0.875727
	C189	C	0.170257	0.622420	0.122571
	C190	C	0.806806	0.402924	0.120223
	C191	C	0.805447	0.622648	0.874099
	C192	C	0.393355	0.103792	0.592962
	C193	C	0.582460	0.923201	0.593128
	C194	C	0.583580	0.104147	0.402848
	C195	C	0.390797	0.922570	0.401921
	C196	C	0.582885	0.417717	0.088386
	C197	C	0.583343	0.609261	0.907587
	C198	C	0.391391	0.607927	0.088791
	C199	C	0.389891	0.416283	0.907347
	C200	C	0.078168	0.609129	0.401911
	C201	C	0.896881	0.609804	0.594721
	C202	C	0.078573	0.417279	0.594660
	C203	C	0.897282	0.417503	0.401288
	C204	C	0.891672	0.603678	0.093056
	C205	C	0.082977	0.422726	0.093937
	C206	C	0.083703	0.603302	0.901890
	C207	C	0.890318	0.422085	0.900723
	C208	C	0.083166	0.918444	0.587442
	C209	C	0.083595	0.109149	0.407512
	C210	C	0.892337	0.108957	0.588022
	C211	C	0.892374	0.918214	0.408373
	C212	C	0.576628	0.107877	0.903556
	C213	C	0.397364	0.108873	0.094789
	C214	C	0.576975	0.916112	0.095197
	C215	C	0.396333	0.916693	0.902209
	Zn216	Zn	0.487346	0.012748	0.747741
	Zn217	Zn	0.487579	0.013492	0.248874
	Zn218	Zn	0.737245	0.512722	-0.002274
	Zn219	Zn	0.236764	0.511957	-0.001805
	Zn220	Zn	-0.011939	0.763215	0.497955
	Zn221	Zn	-0.012336	0.263368	0.497604
	Zn222	Zn	-0.012840	0.513521	0.747846
	Zn223	Zn	-0.012532	0.513360	0.247279
	Zn224	Zn	0.486961	0.762532	-0.000915
	Zn225	Zn	0.486721	0.262906	-0.001698
	Zn226	Zn	0.737683	0.012895	0.498218
	Zn227	Zn	0.237765	0.013854	0.497836
	N228	N	0.401087	0.978123	0.677035
	N229	N	0.575706	0.047414	0.679704
	N230	N	0.574950	0.978654	0.318073
	N231	N	0.400402	0.048398	0.317852
	N232	N	0.666529	0.426463	0.962611
	N233	N	0.668474	0.600768	0.032544
	N234	N	0.306905	0.598758	0.963219
	N235	N	0.306249	0.425198	0.033141
	N236	N	0.953182	0.694120	0.410357
	N237	N	0.023231	0.692418	0.584046
	N238	N	0.952901	0.332813	0.585067
	N239	N	0.022583	0.333344	0.410961
	N240	N	0.952463	0.426543	0.677902
	N241	N	0.022242	0.601103	0.679243
	N242	N	0.953110	0.601119	0.316806
	N243	N	0.022524	0.426395	0.317421
	N244	N	0.400117	0.692468	0.963516
	N245	N	0.574407	0.692914	0.033481
	N246	N	0.572626	0.333551	0.962726
	N247	N	0.399522	0.332206	0.033029
	N248	N	0.667741	0.978388	0.411483
	N249	N	0.669174	0.047516	0.586629
	N250	N	0.307489	0.978838	0.584521
	N251	N	0.306457	0.048221	0.409961
	N252	N	0.900761	0.478039	0.177359
	N253	N	0.074990	0.548492	0.178358
	N254	N	0.073207	0.477232	0.818239
	N255	N	0.900407	0.548680	0.817896
	N256	N	0.168386	0.926461	0.462603
	N257	N	0.168748	0.101375	0.532575
	N258	N	0.807569	0.099918	0.462864
	N259	N	0.806681	0.925011	0.532548
	N260	N	0.451244	0.192131	0.911907
	N261	N	0.522810	0.193217	0.084994
	N262	N	0.451166	0.832138	0.085976
	N263	N	0.521899	0.832649	0.911984
	N264	N	0.451631	0.925750	0.179397
	N265	N	0.522937	0.100130	0.178660
	N266	N	0.452423	0.100049	0.817307
	N267	N	0.521190	0.924650	0.817274
	N268	N	0.900340	0.193937	0.462775
	N269	N	0.073538	0.192721	0.533370
	N270	N	0.074436	0.833508	0.462337
	N271	N	0.901546	0.833728	0.533599
	N272	N	0.166158	0.476679	0.911741
	N273	N	0.168275	0.547892	0.085501
	N274	N	0.807754	0.477523	0.083657
	N275	N	0.806148	0.547700	0.909861
	O276	O	1.433527	0.546096	-0.338994
	H277	H	1.424954	0.527962	-0.351438
	H278	H	1.428646	0.542336	-0.336008
	O279	O	0.106991	0.010914	1.108319
	H280	H	0.108542	0.012557	1.107430
	H281	H	0.108025	0.004210	1.104746
	O282	O	0.520914	0.467367	0.585390
	H283	H	0.520530	0.465974	0.584038
	H284	H	0.530635	0.480183	0.586849
	O285	O	0.204056	-0.002840	0.896270
	H286	H	0.206835	-0.015759	0.893076
	H287	H	0.210569	-0.026007	0.883709
	O288	O	0.920198	-0.200919	0.928606
	H289	H	0.932525	-0.206843	0.945947
	H290	H	0.897942	-0.193830	0.928485
	O291	O	0.353940	0.313491	1.500309
	H292	H	0.366644	0.306231	1.512793
	H293	H	0.351588	0.298780	1.499107
	O294	O	0.082448	0.212978	-0.124558
	H295	H	0.080317	0.202292	-0.135542
	H296	H	0.086862	0.206238	-0.130507
	O297	O	0.626868	0.701703	0.362997
	H298	H	0.612137	0.692998	0.383136
	H299	H	0.618177	0.685051	0.360222
	O300	O	0.265392	0.317280	-0.288078
	H301	H	0.270260	0.312660	-0.299626
	H302	H	0.277863	0.291632	-0.272527
	O303	O	-0.226924	0.029451	-0.218731
	H304	H	-0.223571	0.059683	-0.203834
	H305	H	-0.255893	0.047819	-0.242316
	O306	O	1.077728	-0.146652	0.203535
	H307	H	1.069449	-0.139425	0.199653
	H308	H	1.078172	-0.158232	0.208986
	O309	O	0.419377	0.523683	0.588835
	H310	H	0.432302	0.505920	0.584578
	H311	H	0.427858	0.528966	0.575332
	O312	O	0.304742	0.528396	0.296968
	H313	H	0.290804	0.516041	0.288479
	H314	H	0.309226	0.504517	0.298870
	O315	O	0.278082	0.496418	0.713683
	H316	H	0.249385	0.488226	0.740920
	H317	H	0.288629	0.456551	0.702021
	O318	O	1.294126	0.703589	0.312396
	H319	H	1.279203	0.695956	0.323117
	H320	H	1.296957	0.683388	0.325719
	O321	O	0.702058	0.541649	0.719647
	H322	H	0.691698	0.571485	0.708784
	H323	H	0.727258	0.542877	0.752126
	O324	O	1.200673	0.072756	1.214160
	H325	H	1.194887	0.068542	1.225977
	H326	H	1.208349	0.076517	1.222432
	O327	O	1.034163	0.802627	1.036185
	H328	H	1.031448	0.806749	1.042201
	H329	H	1.050589	0.802020	1.034827
	O330	O	0.644675	0.353327	0.650851
	H331	H	0.649008	0.380587	0.643205
	H332	H	0.641948	0.344466	0.652141
	O333	O	0.705367	0.291972	0.471198
	H334	H	0.705047	0.290893	0.462627
	H335	H	0.730707	0.280490	0.461285
	O336	O	0.470111	0.312860	0.333833
	H337	H	0.486350	0.303093	0.309736
	H338	H	0.480939	0.309788	0.335220
	O339	O	0.681567	0.714011	0.695198
	H340	H	0.684734	0.701463	0.661865
	H341	H	0.655106	0.727207	0.711303
	O342	O	-0.013723	0.942405	0.148513
	H343	H	-0.017187	0.942397	0.150731
	H344	H	-0.022120	0.935532	0.147926
	O345	O	-0.212822	0.146222	-0.040016
	H346	H	-0.208320	0.135868	-0.005698
	H347	H	-0.199242	0.150963	-0.041222
	O348	O	0.535864	0.515699	0.435688
	H349	H	0.549488	0.507096	0.443423
	H350	H	0.541113	0.521646	0.432639
	O351	O	-0.063916	-0.034200	0.778062
	H352	H	-0.082725	-0.047187	0.776845
	H353	H	-0.077770	-0.036226	0.770612
	O354	O	0.889347	0.158322	1.050211
	H355	H	0.903211	0.151810	1.027184
	H356	H	0.898331	0.163409	1.050403
	O357	O	0.693536	0.470410	0.565557
	H358	H	0.702169	0.481176	0.592219
	H359	H	0.693981	0.470271	0.553345
	O360	O	0.511633	0.524347	0.289639
	H361	H	0.497257	0.520115	0.296373
	H362	H	0.490593	0.535904	0.291093
	O363	O	0.847125	0.810542	0.203460
	H364	H	0.860032	0.809491	0.180304
	H365	H	0.825063	0.790630	0.230324
	O366	O	1.007426	0.200274	1.218164
	H367	H	1.009952	0.210204	1.224878
	H368	H	0.999105	0.201959	1.223326
	O369	O	0.093386	0.077435	0.926773
	H370	H	0.082465	0.060223	0.944542
	H371	H	0.085992	0.064876	0.900888
	O372	O	0.201931	0.799027	0.968271
	H373	H	0.208294	0.787928	0.972320
	H374	H	0.211419	0.795262	0.954063
	O375	O	0.922840	-0.008456	0.002363
	H376	H	0.922907	-0.005858	-0.013587
	H377	H	0.925786	-0.004092	-0.005865
	O378	O	0.450902	0.704634	0.566807
	H379	H	0.449593	0.690248	0.564684
	H380	H	0.444718	0.714308	0.566155
	O381	O	-0.210134	0.859070	-0.159656
	H382	H	-0.210192	0.860064	-0.167277
	H383	H	-0.211005	0.882820	-0.155380
	O384	O	0.503914	0.585454	0.358678
	H385	H	0.499334	0.589193	0.351131
	H386	H	0.506875	0.578431	0.356916
	O387	O	0.193582	0.869999	0.796918
	H388	H	0.192658	0.845066	0.782248
	H389	H	0.194701	0.867055	0.811366
	O390	O	0.680357	0.317865	0.306067
	H391	H	0.680328	0.323887	0.305991
	H392	H	0.691918	0.342592	0.305894
	O393	O	1.073579	0.054083	-0.216249
	H394	H	1.058738	0.031468	-0.218382
	H395	H	1.087486	0.039849	-0.227519
	O396	O	0.692694	0.713393	0.528767
	H397	H	0.686906	0.722376	0.528953
	H398	H	0.686395	0.724960	0.522687
	O399	O	0.260170	0.743556	0.728225
	H400	H	0.273124	0.726991	0.706370
	H401	H	0.251160	0.741819	0.723786
	O402	O	0.785125	-0.069454	1.015444
	H403	H	0.782216	-0.075279	1.023362
	H404	H	0.777075	-0.074998	1.031525
	O405	O	0.699129	0.482438	0.291683
	H406	H	0.714644	0.487662	0.272265
	H407	H	0.675721	0.499129	0.293454
	O408	O	0.775717	0.987183	1.212447
	H409	H	0.779255	0.977649	1.210286
	H410	H	0.760672	0.981569	1.239635
	O411	O	1.200709	1.159496	0.000633
	H412	H	1.203229	1.169002	-0.001934
	H413	H	1.207233	1.143557	-0.007557
	O414	O	0.024974	-0.201785	-0.218429
	H415	H	0.029899	-0.209018	-0.220554
	H416	H	0.009202	-0.221333	-0.219113
	O417	O	0.446872	0.384827	0.277055
	H418	H	0.449821	0.371360	0.265178
	H419	H	0.450602	0.391340	0.277371
	O420	O	0.783262	0.221536	0.794421
	H421	H	0.792071	0.223884	0.825840
	H422	H	0.785420	0.232063	0.794627
	O423	O	1.040887	1.194848	0.026682
	H424	H	1.049689	1.194744	0.013632
	H425	H	1.043368	1.177776	0.022534
	O426	O	0.441739	0.303697	0.701631
	H427	H	0.451531	0.282112	0.711644
	H428	H	0.460588	0.314793	0.681036
	O429	O	0.454996	0.733128	0.275823
	H430	H	0.452683	0.764970	0.244269
	H431	H	0.417870	0.723481	0.283551
	O432	O	0.915170	-0.022878	1.161590
	H433	H	0.936675	-0.031854	1.167737
	H434	H	0.918976	0.005530	1.164931
	O435	O	0.713478	0.561909	0.440616
	H436	H	0.720173	0.571182	0.423617
	H437	H	0.715891	0.562398	0.459537
	O438	O	0.533526	0.622549	0.499366
	H439	H	0.520883	0.614591	0.501836
	H440	H	0.511986	0.622749	0.483830
	O441	O	0.891815	0.190297	-0.009842
	H442	H	0.892570	0.182987	-0.007786
	H443	H	0.909515	0.186249	-0.004997
	O444	O	0.329744	0.335754	0.339921
	H445	H	0.329661	0.317951	0.341047
	H446	H	0.318979	0.328365	0.338356
	O447	O	0.511743	0.723536	0.709828
	H448	H	0.508312	0.712390	0.717781
	H449	H	0.504672	0.732427	0.718623
	O450	O	0.903792	0.113638	0.110592
	H451	H	0.918388	0.103026	0.110250
	H452	H	0.905253	0.094245	0.098047
	O453	O	0.294787	0.430156	0.472489
	H454	H	0.289867	0.421776	0.456203
	H455	H	0.313294	0.429638	0.482487
	O456	O	0.053870	0.962027	1.159971
	H457	H	0.048620	0.964516	1.152816
	H458	H	0.055424	0.956477	1.168318
	O459	O	0.550705	0.288157	0.558805
	H460	H	0.543477	0.286220	0.542618
	H461	H	0.574885	0.291735	0.554338
	O462	O	1.287009	0.689873	0.488905
	H463	H	1.280429	0.684265	0.484926
	H464	H	1.285843	0.673747	0.504146
	O465	O	0.459663	0.514028	0.646763
	H466	H	0.461157	0.512748	0.644544
	H467	H	0.470128	0.512793	0.656945
	O468	O	-0.125528	0.885613	-0.005211
	H469	H	-0.131858	0.877726	-0.018439
	H470	H	-0.132191	0.877606	-0.013973
	O471	O	0.281398	0.590270	0.547095
	H472	H	0.279494	0.575919	0.546825
	H473	H	0.291038	0.571674	0.570197
	O474	O	0.957230	1.207525	-0.183738
	H475	H	0.966036	1.202846	-0.188652
	H476	H	0.958747	1.224917	-0.201353
	O477	O	0.208139	0.233596	1.222076
	H478	H	0.181898	0.230603	1.202563
	H479	H	0.209707	0.225389	1.201614
