data_Molecule from HDF5

_cell_length_a		16.580062
_cell_length_b		16.659860
_cell_length_c		16.573203
_cell_angle_alpha	89.885055
_cell_angle_beta	90.163347
_cell_angle_gamma	90.039529
_symmetry_space_group_name_H-M	'P 1'
_symmetry_Int_Tables_number		1

loop_
	_symmetry_equiv_pos_as_xyz
	x,y,z

loop_
	_atom_site_label
	_atom_site_type_symbol
	_atom_site_fract_x
	_atom_site_fract_y
	_atom_site_fract_z
	H0	H	0.393844	0.852865	0.701563
	H1	H	0.605621	0.161691	0.699426
	H2	H	0.604239	0.851055	0.258777
	H3	H	0.396663	0.162872	0.256466
	H4	H	0.716063	0.409669	0.819879
	H5	H	0.719403	0.610348	0.135900
	H6	H	0.277574	0.613103	0.823968
	H7	H	0.282989	0.403584	0.137256
	H8	H	0.844343	0.727416	0.375589
	H9	H	0.158102	0.728332	0.582968
	H10	H	0.843917	0.288523	0.583073
	H11	H	0.155009	0.285114	0.373484
	H12	H	0.842606	0.407624	0.695782
	H13	H	0.158026	0.611780	0.699780
	H14	H	0.843823	0.611027	0.259548
	H15	H	0.157596	0.404455	0.260800
	H16	H	0.392304	0.730370	0.823965
	H17	H	0.604335	0.728365	0.134372
	H18	H	0.602678	0.290375	0.821182
	H19	H	0.398336	0.287215	0.136425
	H20	H	0.721630	0.851233	0.375381
	H21	H	0.722734	0.161692	0.584577
	H22	H	0.278650	0.852155	0.583376
	H23	H	0.277432	0.161102	0.370120
	H24	H	0.898019	0.351414	0.198622
	H25	H	0.105052	0.664762	0.198502
	H26	H	0.102222	0.350864	0.761537
	H27	H	0.897073	0.665371	0.758922
	H28	H	0.219865	0.904091	0.321130
	H29	H	0.224182	0.113377	0.633352
	H30	H	0.780963	0.110144	0.322694
	H31	H	0.779675	0.900781	0.635542
	H32	H	0.345464	0.229462	0.871248
	H33	H	0.658988	0.225803	0.080643
	H34	H	0.345022	0.786370	0.083618
	H35	H	0.656951	0.786969	0.873818
	H36	H	0.345685	0.901225	0.200313
	H37	H	0.659480	0.108910	0.196727
	H38	H	0.345715	0.113546	0.755633
	H39	H	0.656972	0.903765	0.758034
	H40	H	0.894884	0.229125	0.324194
	H41	H	0.105634	0.227486	0.635117
	H42	H	0.106670	0.785847	0.322884
	H43	H	0.894659	0.783775	0.634992
	H44	H	0.218890	0.350628	0.877611
	H45	H	0.222726	0.663058	0.084081
	H46	H	0.781913	0.351281	0.081284
	H47	H	0.783081	0.665316	0.877341
	H48	H	0.418358	0.116742	0.565993
	H49	H	0.589825	0.895704	0.567160
	H50	H	0.594727	0.119021	0.391558
	H51	H	0.412781	0.895090	0.385450
	H52	H	0.592287	0.413365	0.092906
	H53	H	0.584460	0.603220	0.865755
	H54	H	0.408411	0.596283	0.092358
	H55	H	0.407578	0.418389	0.866240
	H56	H	0.111181	0.594671	0.394160
	H57	H	0.887682	0.592199	0.578237
	H58	H	0.112782	0.419777	0.570999
	H59	H	0.887552	0.424167	0.382394
	H60	H	0.113988	0.416118	0.570970
	H61	H	0.886472	0.608473	0.567440
	H62	H	0.115120	0.595174	0.383804
	H63	H	0.886144	0.410445	0.391654
	H64	H	0.416473	0.590362	0.087459
	H65	H	0.596759	0.599820	0.862844
	H66	H	0.594013	0.416068	0.092078
	H67	H	0.411383	0.418804	0.867140
	H68	H	0.592195	0.120738	0.383774
	H69	H	0.590528	0.894455	0.568532
	H70	H	0.411015	0.117015	0.561012
	H71	H	0.413222	0.897575	0.391499
	H72	H	0.907537	0.621331	0.069353
	H73	H	0.090701	0.396775	0.069124
	H74	H	0.095795	0.620581	0.890649
	H75	H	0.907582	0.395364	0.886475
	H76	H	0.095987	0.917737	0.592518
	H77	H	0.085681	0.093009	0.369362
	H78	H	0.913594	0.107196	0.595299
	H79	H	0.910875	0.918655	0.367813
	H80	H	0.614298	0.092633	0.882230
	H81	H	0.388624	0.101523	0.064111
	H82	H	0.613007	0.918855	0.069776
	H83	H	0.389884	0.919703	0.891059
	H84	H	0.613052	0.915811	0.066507
	H85	H	0.390150	0.094135	0.068238
	H86	H	0.615724	0.105916	0.889792
	H87	H	0.388468	0.919082	0.888437
	H88	H	0.901403	0.092545	0.594175
	H89	H	0.084565	0.099000	0.366739
	H90	H	0.087783	0.924852	0.587384
	H91	H	0.912191	0.919385	0.369252
	H92	H	0.087491	0.619902	0.885475
	H93	H	0.092340	0.394899	0.071654
	H94	H	0.911310	0.620970	0.072073
	H95	H	0.910768	0.395476	0.886091
	H96	H	0.410647	0.119756	0.569473
	H97	H	0.588695	0.895317	0.568719
	H98	H	0.586693	0.117088	0.389293
	H99	H	0.407392	0.895314	0.389333
	H100	H	0.590858	0.416291	0.092240
	H101	H	0.589289	0.591166	0.868805
	H102	H	0.418649	0.600932	0.090653
	H103	H	0.409945	0.415164	0.866202
	H104	H	0.115231	0.604324	0.390038
	H105	H	0.894230	0.592080	0.559510
	H106	H	0.112627	0.417324	0.567143
	H107	H	0.892720	0.424216	0.397843
	H108	H	0.911319	0.619671	0.067983
	H109	H	0.089375	0.396477	0.072216
	H110	H	0.087308	0.616735	0.895057
	H111	H	0.909815	0.396126	0.889119
	H112	H	0.085800	0.913766	0.589778
	H113	H	0.090704	0.096661	0.365982
	H114	H	0.919487	0.090329	0.587954
	H115	H	0.912798	0.917717	0.367486
	H116	H	0.609603	0.094013	0.896930
	H117	H	0.387000	0.100519	0.072612
	H118	H	0.611693	0.920562	0.065270
	H119	H	0.388580	0.917322	0.890563
	C120	C	0.379722	0.015673	0.598876
	C121	C	0.622014	0.997965	0.600087
	C122	C	0.622696	0.015656	0.356953
	C123	C	0.378996	0.998569	0.356057
	C124	C	0.622284	0.386342	-0.012597
	C125	C	0.621834	0.629729	0.969565
	C126	C	0.380050	0.628650	-0.012443
	C127	C	0.379450	0.385790	0.970581
	C128	C	0.009847	0.629374	0.357697
	C129	C	0.993156	0.629517	0.600288
	C130	C	0.009104	0.386768	0.600551
	C131	C	0.991961	0.387297	0.358622
	C132	C	0.879372	0.516556	0.100384
	C133	C	0.122915	0.499173	0.102022
	C134	C	0.121437	0.515775	0.859128
	C135	C	0.878992	0.499744	0.856683
	C136	C	0.121941	0.886708	0.486494
	C137	C	0.121008	0.128543	0.470201
	C138	C	0.878894	0.128706	0.488811
	C139	C	0.879733	0.885898	0.471352
	C140	C	0.509989	0.129150	0.857255
	C141	C	0.493042	0.128980	0.099456
	C142	C	0.509419	0.886212	0.099284
	C143	C	0.492246	0.886592	0.857526
	C144	C	0.376019	0.899390	0.660653
	C145	C	0.624194	0.115139	0.659549
	C146	C	0.623381	0.897795	0.298430
	C147	C	0.377492	0.115829	0.296203
	C148	C	0.678432	0.388585	0.867872
	C149	C	0.680599	0.630366	0.088208
	C150	C	0.318317	0.631090	0.870606
	C151	C	0.321899	0.384835	0.089545
	C152	C	0.891346	0.687654	0.356917
	C153	C	0.111181	0.688346	0.601753
	C154	C	0.890888	0.328574	0.601291
	C155	C	0.108900	0.326406	0.355997
	C156	C	0.890227	0.387601	0.657593
	C157	C	0.111062	0.630806	0.660130
	C158	C	0.891235	0.630190	0.298937
	C159	C	0.110035	0.385595	0.299687
	C160	C	0.375097	0.689718	0.870563
	C161	C	0.623555	0.688844	0.087575
	C162	C	0.621851	0.329641	0.868392
	C163	C	0.379490	0.327034	0.089062
	C164	C	0.681488	0.897857	0.356379
	C165	C	0.682389	0.114941	0.602471
	C166	C	0.318732	0.898967	0.601853
	C167	C	0.318452	0.115102	0.352751
	C168	C	0.879104	0.398444	0.158856
	C169	C	0.123991	0.617298	0.159650
	C170	C	0.121401	0.397996	0.800689
	C171	C	0.878848	0.618220	0.799067
	C172	C	0.180875	0.885216	0.368670
	C173	C	0.183048	0.131260	0.586876
	C174	C	0.819929	0.129648	0.370276
	C175	C	0.819437	0.882702	0.588531
	C176	C	0.392557	0.189450	0.853628
	C177	C	0.611655	0.186481	0.099783
	C178	C	0.392095	0.826217	0.101802
	C179	C	0.609855	0.826811	0.855397
	C180	C	0.392375	0.883398	0.159753
	C181	C	0.611901	0.128466	0.157567
	C182	C	0.392427	0.131515	0.796192
	C183	C	0.610057	0.885110	0.798133
	C184	C	0.876440	0.188730	0.371055
	C185	C	0.124301	0.188153	0.587782
	C186	C	0.124478	0.826362	0.369536
	C187	C	0.876973	0.824734	0.588261
	C188	C	0.179523	0.397861	0.858488
	C189	C	0.182505	0.616536	0.102650
	C190	C	0.821462	0.398256	0.100533
	C191	C	0.821788	0.618219	0.857732
	C192	C	0.405841	0.096763	0.572852
	C193	C	0.596745	0.916333	0.575114
	C194	C	0.598312	0.097619	0.381216
	C195	C	0.404184	0.917252	0.381426
	C196	C	0.599212	0.408863	0.070743
	C197	C	0.597311	0.604960	0.887268
	C198	C	0.406593	0.603012	0.068809
	C199	C	0.403041	0.410275	0.888043
	C200	C	0.092127	0.605030	0.382070
	C201	C	0.910831	0.604753	0.575405
	C202	C	0.091733	0.410848	0.576476
	C203	C	0.910195	0.412358	0.383713
	C204	C	0.903108	0.599049	0.076586
	C205	C	0.097944	0.417221	0.077827
	C206	C	0.097199	0.597730	0.883579
	C207	C	0.902623	0.417240	0.880373
	C208	C	0.096960	0.911715	0.568636
	C209	C	0.094608	0.103467	0.388518
	C210	C	0.904189	0.103932	0.570921
	C211	C	0.904793	0.911278	0.389507
	C212	C	0.591839	0.104361	0.882440
	C213	C	0.410133	0.105439	0.075362
	C214	C	0.591407	0.911148	0.074442
	C215	C	0.410136	0.911824	0.882777
	Zn216	Zn	0.500753	0.007810	0.728950
	Zn217	Zn	0.501020	0.006703	0.228000
	Zn218	Zn	0.750205	0.508224	-0.021538
	Zn219	Zn	0.251143	0.507351	-0.019816
	Zn220	Zn	0.001475	0.757908	0.478783
	Zn221	Zn	0.000309	0.257807	0.479727
	Zn222	Zn	0.001145	0.508414	0.728860
	Zn223	Zn	0.000812	0.508100	0.229319
	Zn224	Zn	0.500137	0.757585	-0.021497
	Zn225	Zn	0.500920	0.257903	-0.021559
	Zn226	Zn	0.751172	0.006525	0.479692
	Zn227	Zn	0.250439	0.007408	0.477402
	N228	N	0.413256	0.972971	0.658920
	N229	N	0.587360	0.041277	0.658265
	N230	N	0.587811	0.972221	0.298514
	N231	N	0.414486	0.042240	0.297975
	N232	N	0.679045	0.422810	0.943129
	N233	N	0.679933	0.594488	0.013617
	N234	N	0.321100	0.593814	0.944458
	N235	N	0.321528	0.420705	0.014762
	N236	N	0.966197	0.687461	0.392730
	N237	N	0.036629	0.687853	0.565636
	N238	N	0.965991	0.327636	0.566850
	N239	N	0.034394	0.327215	0.392002
	N240	N	0.964966	0.423064	0.657567
	N241	N	0.036503	0.595170	0.659418
	N242	N	0.965875	0.594838	0.299217
	N243	N	0.036212	0.422958	0.301134
	N244	N	0.412879	0.688235	0.944186
	N245	N	0.588003	0.688734	0.012679
	N246	N	0.587951	0.327835	0.943939
	N247	N	0.414034	0.327054	0.013882
	N248	N	0.681464	0.972215	0.391878
	N249	N	0.681011	0.041060	0.566014
	N250	N	0.320848	0.972445	0.564229
	N251	N	0.319414	0.041223	0.389173
	N252	N	0.914049	0.473150	0.159128
	N253	N	0.087787	0.543262	0.159422
	N254	N	0.086137	0.472524	0.800721
	N255	N	0.913554	0.543401	0.798114
	N256	N	0.179363	0.922062	0.442602
	N257	N	0.181090	0.094857	0.512646
	N258	N	0.821020	0.093239	0.444748
	N259	N	0.821154	0.920164	0.514842
	N260	N	0.466580	0.188279	0.890912
	N261	N	0.536619	0.186995	0.064639
	N262	N	0.466103	0.827807	0.064955
	N263	N	0.535317	0.827529	0.891561
	N264	N	0.466358	0.920259	0.158409
	N265	N	0.536806	0.093405	0.157684
	N266	N	0.466400	0.094647	0.798201
	N267	N	0.535670	0.921273	0.799087
	N268	N	0.912168	0.188433	0.445865
	N269	N	0.086443	0.186592	0.514101
	N270	N	0.088633	0.827025	0.444096
	N271	N	0.913928	0.826576	0.514319
	N272	N	0.179882	0.472179	0.893970
	N273	N	0.181973	0.542043	0.067447
	N274	N	0.821325	0.472838	0.064867
	N275	N	0.821604	0.543476	0.892728
	O276	O	-0.183178	1.187731	0.155635
	H277	H	-0.167040	1.167396	0.144920
	H278	H	-0.166083	1.176450	0.130357
	O279	O	0.455919	0.290081	0.678426
	H280	H	0.466959	0.309610	0.688068
	H281	H	0.448182	0.271579	0.696629
	O282	O	1.183977	0.043074	0.920267
	H283	H	1.182916	0.042665	0.911435
	H284	H	1.184922	0.053949	0.923843
	O285	O	0.486543	0.713804	0.589047
	H286	H	0.493245	0.719025	0.578177
	H287	H	0.488689	0.706578	0.575065
	O288	O	0.467292	0.411620	0.568839
	H289	H	0.466515	0.423181	0.566067
	H290	H	0.464143	0.419819	0.572095
	O291	O	-0.029200	-0.212188	0.205719
	H292	H	-0.072473	-0.214530	0.207788
	H293	H	-0.039673	-0.237731	0.221057
	O294	O	1.138711	0.015196	0.766309
	H295	H	1.146256	-0.003399	0.757294
	H296	H	1.135648	0.006865	0.750955
	O297	O	-0.213562	0.793044	1.021335
	H298	H	-0.230011	0.785062	1.003948
	H299	H	-0.217003	0.807179	0.998560
	O300	O	0.220983	0.034495	1.196894
	H301	H	0.227686	0.046177	1.207039
	H302	H	0.230864	0.057670	1.209408
	O303	O	0.453836	0.312836	0.382988
	H304	H	0.455825	0.322256	0.393264
	H305	H	0.435269	0.308327	0.377451
	O306	O	0.484122	0.502477	0.275236
	H307	H	0.485128	0.488441	0.281163
	H308	H	0.475676	0.487628	0.275565
	O309	O	0.692303	0.499160	0.438350
	H310	H	0.689947	0.498207	0.453745
	H311	H	0.690049	0.489550	0.415569
	O312	O	0.681081	0.575377	0.658929
	H313	H	0.670266	0.601435	0.659659
	H314	H	0.704710	0.581723	0.686129
	O315	O	1.034018	1.213370	1.190173
	H316	H	1.014584	1.202356	1.193329
	H317	H	1.017504	1.216577	1.188491
	O318	O	0.686916	0.499189	0.303370
	H319	H	0.708278	0.493405	0.286810
	H320	H	0.694035	0.475008	0.309016
	O321	O	0.303181	1.550705	0.556605
	H322	H	0.295713	1.547984	0.545753
	H323	H	0.305580	1.547300	0.572680
	O324	O	1.008180	1.217828	-0.016781
	H325	H	1.013645	1.229387	-0.015768
	H326	H	1.007131	1.190735	-0.033085
	O327	O	-0.210131	0.037573	0.770360
	H328	H	-0.206841	0.079752	0.769500
	H329	H	-0.222650	0.043100	0.742967
	O330	O	0.759254	0.244073	0.742163
	H331	H	0.732879	0.270032	0.714672
	H332	H	0.766846	0.258883	0.751994
	O333	O	0.503804	0.601573	0.461519
	H334	H	0.503590	0.592233	0.464975
	H335	H	0.505982	0.605722	0.466511
	O336	O	1.097350	0.006845	-0.170096
	H337	H	1.087369	0.000873	-0.160592
	H338	H	1.124877	0.007844	-0.175784
	O339	O	0.903972	-0.840296	0.825168
	H340	H	0.881140	-0.836963	0.833702
	H341	H	0.906894	-0.826332	0.805228
	O342	O	-0.154761	0.057267	0.104409
	H343	H	-0.146987	0.035216	0.111051
	H344	H	-0.156873	0.043452	0.104388
	O345	O	0.057664	0.907802	1.131184
	H346	H	0.065613	0.893892	1.132740
	H347	H	0.052333	0.892585	1.137880
	O348	O	0.102140	0.035394	-0.016825
	H349	H	0.105206	0.042848	-0.017239
	H350	H	0.103790	0.027717	-0.003864
	O351	O	0.530376	0.739983	0.501740
	H352	H	0.559281	0.728550	0.508438
	H353	H	0.533135	0.751461	0.500374
	O354	O	-0.284776	0.331662	1.270141
	H355	H	-0.273282	0.306640	1.252628
	H356	H	-0.290529	0.321954	1.262065
	O357	O	-0.014267	0.041160	0.188497
	H358	H	-0.002714	0.019142	0.191946
	H359	H	-0.004284	0.020752	0.189610
	O360	O	0.290356	0.539167	0.283223
	H361	H	0.293845	0.542032	0.286860
	H362	H	0.273088	0.540745	0.262001
	O363	O	0.319572	0.317040	0.303108
	H364	H	0.315905	0.327439	0.335574
	H365	H	0.296352	0.294279	0.285726
	O366	O	0.693030	0.489806	0.579160
	H367	H	0.707760	0.481273	0.594473
	H368	H	0.677080	0.492524	0.567899
	O369	O	1.190745	0.192098	-0.206928
	H370	H	1.189763	0.190503	-0.210623
	H371	H	1.175001	0.179474	-0.195121
	O372	O	0.795820	0.802999	0.187435
	H373	H	0.761321	0.767842	0.215582
	H374	H	0.788053	0.794140	0.132328
	O375	O	0.691656	-0.299792	0.284513
	H376	H	0.668256	-0.316252	0.301564
	H377	H	0.677400	-0.323335	0.301675
	O378	O	0.959726	0.953258	0.746115
	H379	H	0.972909	0.934456	0.743186
	H380	H	0.942296	0.959429	0.739368
	O381	O	-0.215800	0.974599	1.199722
	H382	H	-0.210070	0.932494	1.192176
	H383	H	-0.246523	0.965655	1.230576
	O384	O	1.146395	-0.203926	0.979248
	H385	H	1.147433	-0.204704	0.985021
	H386	H	1.150027	-0.204553	0.983600
	O387	O	1.119256	1.110204	-0.005268
	H388	H	1.123927	1.117649	-0.000194
	H389	H	1.128693	1.119844	-0.015066
	O390	O	0.319222	0.405502	0.429749
	H391	H	0.308275	0.391751	0.428234
	H392	H	0.323115	0.418774	0.428694
	O393	O	0.458685	0.602518	0.406648
	H394	H	0.447651	0.597433	0.397685
	H395	H	0.472357	0.598234	0.405389
	O396	O	-0.171819	0.851498	0.805040
	H397	H	-0.156828	0.877464	0.816307
	H398	H	-0.159116	0.865630	0.816328
	O399	O	0.141659	-0.062273	1.092322
	H400	H	0.136210	-0.074281	1.107603
	H401	H	0.150083	-0.056840	1.088416
	O402	O	0.688060	0.365968	0.667934
	H403	H	0.671289	0.384274	0.657987
	H404	H	0.675378	0.360553	0.638586
	O405	O	1.012291	0.123152	0.775969
	H406	H	1.021759	0.131718	0.773881
	H407	H	1.019192	0.122308	0.770073
	O408	O	0.203393	0.217708	0.187006
	H409	H	0.179354	0.212454	0.173060
	H410	H	0.184182	0.216712	0.177124
	O411	O	0.531218	0.495028	0.600179
	H412	H	0.530060	0.500287	0.597349
	H413	H	0.545143	0.499890	0.601472
	O414	O	0.570043	0.680035	0.662945
	H415	H	0.560473	0.694970	0.673085
	H416	H	0.561427	0.677701	0.657079
	O417	O	0.177052	0.814262	1.067116
	H418	H	0.193835	0.799874	1.082045
	H419	H	0.179742	0.834871	1.070309
	O420	O	-0.209177	0.964522	0.979015
	H421	H	-0.216139	0.982359	0.969115
	H422	H	-0.194577	0.964070	0.996660
	O423	O	0.034791	-0.209883	0.759688
	H424	H	0.028265	-0.232171	0.758434
	H425	H	0.036667	-0.216448	0.761649
	O426	O	0.339513	0.429507	0.679809
	H427	H	0.354340	0.432763	0.668688
	H428	H	0.317370	0.435457	0.698602
	O429	O	0.485039	0.624040	0.598337
	H430	H	0.482851	0.620188	0.588888
	H431	H	0.476215	0.627945	0.604256
	O432	O	0.713702	0.715895	0.649262
	H433	H	0.685113	0.720883	0.653894
	H434	H	0.736084	0.733904	0.667821
	O435	O	0.005565	0.819643	-0.022044
	H436	H	0.008694	0.818512	-0.026200
	H437	H	0.012349	0.832863	-0.004374
	O438	O	0.202345	-0.190791	-0.222055
	H439	H	0.183800	-0.180258	-0.228877
	H440	H	0.197055	-0.195344	-0.183463
	O441	O	-0.111044	-0.152418	-0.084678
	H442	H	-0.112588	-0.145340	-0.077276
	H443	H	-0.102375	-0.135629	-0.070377
	O444	O	0.715305	0.290623	0.421998
	H445	H	0.714951	0.264317	0.420507
	H446	H	0.715466	0.281945	0.397330
	O447	O	0.288902	1.294733	1.630286
	H448	H	0.294314	1.295937	1.627705
	H449	H	0.287636	1.312642	1.640010
	O450	O	0.217589	1.190704	0.996923
	H451	H	0.207211	1.177629	0.984303
	H452	H	0.238851	1.219060	1.001265
	O453	O	0.465970	0.281249	0.519601
	H454	H	0.469300	0.280370	0.538834
	H455	H	0.440088	0.279450	0.512241
	O456	O	-0.207785	0.217405	0.956373
	H457	H	-0.207074	0.224645	0.961137
	H458	H	-0.216632	0.211947	0.952002
	O459	O	0.712501	0.670473	0.475925
	H460	H	0.726841	0.663072	0.494978
	H461	H	0.721702	0.665097	0.489135
	O462	O	0.974446	0.214151	0.924550
	H463	H	0.958054	0.208416	0.930425
	H464	H	0.957530	0.226245	0.907186
	O465	O	0.996125	0.044918	0.024341
	H466	H	0.987070	0.033277	0.035666
	H467	H	0.998730	0.040735	0.014924
	O468	O	0.480275	0.460384	0.442584
	H469	H	0.482379	0.451789	0.435127
	H470	H	0.479676	0.460926	0.441502
	O471	O	0.579320	0.392301	0.510515
	H472	H	0.587111	0.375817	0.502692
	H473	H	0.581563	0.408991	0.498657
	O474	O	0.273019	0.734863	0.400916
	H475	H	0.271205	0.746046	0.386695
	H476	H	0.257507	0.733250	0.404974
	O477	O	0.296309	0.598177	1.669429
	H478	H	0.273859	0.609004	1.687795
	H479	H	0.319268	0.610529	1.659751
	O480	O	0.318730	0.503098	0.401345
	H481	H	0.326397	0.502790	0.409612
	H482	H	0.311307	0.495389	0.403279
	O483	O	0.295584	0.720495	0.267789
	H484	H	0.293842	0.700055	0.272787
	H485	H	0.321818	0.719519	0.281406
	O486	O	1.463907	-0.283593	1.277882
	H487	H	1.469532	-0.288038	1.265674
	H488	H	1.471922	-0.286467	1.282402
	O489	O	1.547085	0.287617	0.259016
	H490	H	1.550282	0.278758	0.254984
	H491	H	1.532421	0.275487	0.250315
