data_Molecule from HDF5

_cell_length_a		16.341051
_cell_length_b		16.243396
_cell_length_c		16.392530
_cell_angle_alpha	89.675551
_cell_angle_beta	89.789510
_cell_angle_gamma	89.876445
_symmetry_space_group_name_H-M	'P 1'
_symmetry_Int_Tables_number		1

loop_
	_symmetry_equiv_pos_as_xyz
	x,y,z

loop_
	_atom_site_label
	_atom_site_type_symbol
	_atom_site_fract_x
	_atom_site_fract_y
	_atom_site_fract_z
	H0	H	0.395348	0.836373	0.723031
	H1	H	0.598460	0.160713	0.717699
	H2	H	0.600771	0.834740	0.284475
	H3	H	0.397334	0.160412	0.285016
	H4	H	0.718278	0.397416	0.841612
	H5	H	0.718407	0.602150	0.162746
	H6	H	0.282204	0.601465	0.841381
	H7	H	0.280874	0.395511	0.163919
	H8	H	0.836368	0.715206	0.403104
	H9	H	0.160281	0.713929	0.601916
	H10	H	0.835524	0.280885	0.606175
	H11	H	0.160045	0.282411	0.404677
	H12	H	0.837832	0.392794	0.725427
	H13	H	0.160445	0.598544	0.718551
	H14	H	0.836961	0.601014	0.285125
	H15	H	0.159866	0.396528	0.286775
	H16	H	0.398670	0.717798	0.842002
	H17	H	0.598015	0.713591	0.165127
	H18	H	0.600586	0.282999	0.840700
	H19	H	0.398445	0.280736	0.164076
	H20	H	0.715201	0.833950	0.402232
	H21	H	0.714494	0.159535	0.602755
	H22	H	0.282378	0.834148	0.604222
	H23	H	0.281891	0.161068	0.401889
	H24	H	0.896370	0.336490	0.222138
	H25	H	0.099627	0.661288	0.219223
	H26	H	0.101307	0.335823	0.786623
	H27	H	0.898610	0.660176	0.785279
	H28	H	0.217026	0.896821	0.342501
	H29	H	0.216872	0.099728	0.664079
	H30	H	0.781192	0.099441	0.341016
	H31	H	0.780081	0.895434	0.664155
	H32	H	0.336770	0.215973	0.902570
	H33	H	0.662517	0.213237	0.100815
	H34	H	0.336607	0.783108	0.102950
	H35	H	0.662094	0.782526	0.902931
	H36	H	0.337050	0.895367	0.220975
	H37	H	0.660926	0.099173	0.219614
	H38	H	0.336758	0.100576	0.785681
	H39	H	0.660600	0.896266	0.784189
	H40	H	0.896548	0.216280	0.341552
	H41	H	0.096686	0.213165	0.666125
	H42	H	0.098038	0.783877	0.340576
	H43	H	0.897679	0.781180	0.665064
	H44	H	0.216147	0.335806	0.903008
	H45	H	0.214249	0.661410	0.101440
	H46	H	0.781576	0.336372	0.105479
	H47	H	0.783494	0.661367	0.901100
	H48	H	0.397626	0.114550	0.587142
	H49	H	0.583683	0.882836	0.597533
	H50	H	0.588386	0.112614	0.408351
	H51	H	0.406824	0.881184	0.409656
	H52	H	0.592594	0.404887	0.118487
	H53	H	0.582523	0.591481	0.890639
	H54	H	0.406057	0.587108	0.116991
	H55	H	0.404073	0.416209	0.889333
	H56	H	0.112097	0.591001	0.414796
	H57	H	0.880716	0.593504	0.599091
	H58	H	0.109361	0.410437	0.589719
	H59	H	0.882500	0.406983	0.414688
	H60	H	0.113865	0.407943	0.600633
	H61	H	0.884934	0.590137	0.589629
	H62	H	0.113590	0.585138	0.408522
	H63	H	0.882957	0.410813	0.411382
	H64	H	0.407855	0.591200	0.117695
	H65	H	0.595833	0.596584	0.885084
	H66	H	0.590664	0.409380	0.116274
	H67	H	0.415740	0.407289	0.890121
	H68	H	0.586520	0.111431	0.411827
	H69	H	0.588930	0.883664	0.588483
	H70	H	0.404403	0.116475	0.603733
	H71	H	0.411049	0.883575	0.412901
	H72	H	0.908433	0.609650	0.081470
	H73	H	0.090613	0.380916	0.099477
	H74	H	0.082431	0.611736	0.909003
	H75	H	0.905954	0.378600	0.904192
	H76	H	0.090676	0.904412	0.618133
	H77	H	0.089816	0.090901	0.388514
	H78	H	0.900407	0.097710	0.621742
	H79	H	0.909787	0.910404	0.390270
	H80	H	0.614489	0.094167	0.912959
	H81	H	0.383858	0.090786	0.094336
	H82	H	0.615893	0.910444	0.103563
	H83	H	0.389327	0.917018	0.917515
	H84	H	0.616955	0.897836	0.092985
	H85	H	0.385191	0.088346	0.093788
	H86	H	0.612414	0.084972	0.909275
	H87	H	0.381806	0.910006	0.902145
	H88	H	0.897996	0.078297	0.616796
	H89	H	0.090026	0.087342	0.389993
	H90	H	0.091528	0.906015	0.618417
	H91	H	0.907690	0.900874	0.386270
	H92	H	0.094064	0.613065	0.917389
	H93	H	0.085901	0.384420	0.095283
	H94	H	0.898095	0.618874	0.097988
	H95	H	0.918862	0.386567	0.915322
	H96	H	0.415496	0.110026	0.590670
	H97	H	0.593734	0.880111	0.596748
	H98	H	0.590722	0.112810	0.412373
	H99	H	0.405845	0.882221	0.414989
	H100	H	0.587616	0.405132	0.116220
	H101	H	0.594102	0.582517	0.890026
	H102	H	0.403788	0.590882	0.118870
	H103	H	0.403369	0.401759	0.885171
	H104	H	0.115762	0.593811	0.407557
	H105	H	0.884441	0.583257	0.598424
	H106	H	0.113068	0.400010	0.592191
	H107	H	0.882361	0.405956	0.409661
	H108	H	0.918828	0.613194	0.100426
	H109	H	0.092732	0.382959	0.092702
	H110	H	0.094959	0.617863	0.903570
	H111	H	0.901797	0.382164	0.921873
	H112	H	0.090294	0.905536	0.618199
	H113	H	0.087553	0.089587	0.390009
	H114	H	0.916143	0.087276	0.612998
	H115	H	0.900280	0.907667	0.386810
	H116	H	0.616255	0.092083	0.903096
	H117	H	0.384433	0.088571	0.095872
	H118	H	0.610490	0.912875	0.088074
	H119	H	0.383372	0.899239	0.917662
	C120	C	0.376512	0.006172	0.624427
	C121	C	0.618559	0.989290	0.623615
	C122	C	0.619606	0.005173	0.380880
	C123	C	0.377313	0.989696	0.381543
	C124	C	0.621064	0.376884	0.010670
	C125	C	0.620864	0.620450	0.994820
	C126	C	0.376761	0.620860	0.011313
	C127	C	0.377553	0.377192	0.994469
	C128	C	0.006932	0.619974	0.381016
	C129	C	0.990118	0.618806	0.624584
	C130	C	0.005913	0.375753	0.625701
	C131	C	0.989182	0.376834	0.381871
	C132	C	0.877500	0.506706	0.124470
	C133	C	0.119673	0.490206	0.124417
	C134	C	0.120763	0.506820	0.880862
	C135	C	0.878344	0.489496	0.882273
	C136	C	0.120122	0.876029	0.511559
	C137	C	0.118962	0.119284	0.495689
	C138	C	0.875356	0.118999	0.510868
	C139	C	0.876404	0.876216	0.494752
	C140	C	0.507138	0.120449	0.879760
	C141	C	0.491413	0.119565	0.123818
	C142	C	0.507260	0.876645	0.124672
	C143	C	0.491357	0.877488	0.881679
	C144	C	0.376689	0.884384	0.683104
	C145	C	0.618171	0.111827	0.679626
	C146	C	0.619954	0.883158	0.323769
	C147	C	0.377613	0.111816	0.323817
	C148	C	0.679288	0.377731	0.889817
	C149	C	0.678939	0.620853	0.115151
	C150	C	0.320382	0.620940	0.889940
	C151	C	0.320209	0.376700	0.115819
	C152	C	0.884850	0.676896	0.382677
	C153	C	0.112074	0.675369	0.622310
	C154	C	0.884220	0.319123	0.625773
	C155	C	0.111302	0.320069	0.383833
	C156	C	0.885459	0.374947	0.685100
	C157	C	0.111972	0.618057	0.680332
	C158	C	0.885283	0.619945	0.324238
	C159	C	0.111148	0.376894	0.325075
	C160	C	0.378285	0.678943	0.890093
	C161	C	0.619205	0.676610	0.116295
	C162	C	0.620550	0.320971	0.889152
	C163	C	0.378428	0.319243	0.115767
	C164	C	0.676863	0.882860	0.382132
	C165	C	0.675944	0.111255	0.622799
	C166	C	0.320368	0.883296	0.623996
	C167	C	0.320196	0.112088	0.381919
	C168	C	0.877079	0.385059	0.182929
	C169	C	0.119215	0.612614	0.180931
	C170	C	0.120778	0.384654	0.824591
	C171	C	0.878853	0.611713	0.824148
	C172	C	0.177490	0.877224	0.390333
	C173	C	0.177019	0.118930	0.616472
	C174	C	0.819278	0.119007	0.389422
	C175	C	0.819210	0.876337	0.616039
	C176	C	0.385127	0.177209	0.882255
	C177	C	0.613520	0.175729	0.121866
	C178	C	0.385255	0.820787	0.123291
	C179	C	0.613273	0.820709	0.882734
	C180	C	0.385386	0.876853	0.181892
	C181	C	0.612867	0.118917	0.180809
	C182	C	0.385306	0.120033	0.824062
	C183	C	0.612542	0.877605	0.823878
	C184	C	0.876771	0.177196	0.389792
	C185	C	0.117272	0.175361	0.617352
	C186	C	0.118404	0.820992	0.389484
	C187	C	0.877620	0.819417	0.616528
	C188	C	0.177963	0.384454	0.882533
	C189	C	0.175925	0.612815	0.122085
	C190	C	0.820018	0.385046	0.124676
	C191	C	0.821619	0.612279	0.881741
	C192	C	0.399180	0.091549	0.600692
	C193	C	0.595359	0.904231	0.600896
	C194	C	0.595539	0.090138	0.404065
	C195	C	0.401071	0.904459	0.405597
	C196	C	0.597116	0.399755	0.095149
	C197	C	0.597662	0.596984	0.910504
	C198	C	0.399257	0.596712	0.095776
	C199	C	0.400955	0.401373	0.910219
	C200	C	0.091650	0.596813	0.403678
	C201	C	0.905244	0.595761	0.602243
	C202	C	0.090225	0.399292	0.601186
	C203	C	0.904566	0.400821	0.405154
	C204	C	0.901564	0.591763	0.100282
	C205	C	0.096583	0.404770	0.102123
	C206	C	0.097405	0.592145	0.903487
	C207	C	0.901983	0.404539	0.906644
	C208	C	0.097189	0.898629	0.596287
	C209	C	0.095925	0.096072	0.411461
	C210	C	0.898230	0.094894	0.595323
	C211	C	0.899304	0.899581	0.409760
	C212	C	0.592207	0.097180	0.901905
	C213	C	0.406674	0.096189	0.101304
	C214	C	0.592293	0.900171	0.101540
	C215	C	0.406643	0.901651	0.905480
	Zn216	Zn	0.498446	-0.001615	0.751904
	Zn217	Zn	0.498472	-0.002651	0.252552
	Zn218	Zn	0.749725	0.498978	0.002615
	Zn219	Zn	0.248051	0.498642	0.002687
	Zn220	Zn	-0.001692	0.747859	0.503175
	Zn221	Zn	-0.002980	0.247974	0.503685
	Zn222	Zn	-0.001337	0.497644	0.753507
	Zn223	Zn	-0.001569	0.498580	0.253115
	Zn224	Zn	0.499469	0.749122	0.003579
	Zn225	Zn	0.499829	0.247918	0.002200
	Zn226	Zn	0.747158	-0.002709	0.502831
	Zn227	Zn	0.248791	-0.002234	0.503143
	N228	N	0.410557	0.961741	0.683616
	N229	N	0.583191	0.034900	0.680375
	N230	N	0.584825	0.960123	0.323018
	N231	N	0.412209	0.034543	0.323506
	N232	N	0.679658	0.411837	0.966357
	N233	N	0.680030	0.586746	0.038691
	N234	N	0.319430	0.585298	0.966222
	N235	N	0.319313	0.411852	0.039379
	N236	N	0.961395	0.677154	0.417336
	N237	N	0.035202	0.676222	0.588453
	N238	N	0.960150	0.319470	0.589366
	N239	N	0.034429	0.319736	0.418196
	N240	N	0.962185	0.409270	0.685235
	N241	N	0.035075	0.583868	0.681956
	N242	N	0.962139	0.585486	0.323034
	N243	N	0.034356	0.411453	0.323686
	N244	N	0.412627	0.679099	0.966473
	N245	N	0.583684	0.676401	0.040376
	N246	N	0.585078	0.320170	0.965444
	N247	N	0.413452	0.319279	0.039393
	N248	N	0.676710	0.959781	0.416860
	N249	N	0.676337	0.034157	0.588616
	N250	N	0.320062	0.960139	0.588237
	N251	N	0.319946	0.035109	0.417151
	N252	N	0.911920	0.461949	0.182939
	N253	N	0.084848	0.535274	0.182437
	N254	N	0.085951	0.461668	0.823420
	N255	N	0.913323	0.534392	0.824286
	N256	N	0.178810	0.910753	0.467123
	N257	N	0.178228	0.084706	0.539925
	N258	N	0.818307	0.083703	0.465838
	N259	N	0.818171	0.910629	0.539250
	N260	N	0.461989	0.177684	0.916001
	N261	N	0.537094	0.176076	0.087091
	N262	N	0.461881	0.820772	0.088475
	N263	N	0.536930	0.820776	0.918095
	N264	N	0.462377	0.910892	0.183007
	N265	N	0.536008	0.084628	0.182199
	N266	N	0.462225	0.085652	0.822345
	N267	N	0.535578	0.912119	0.823054
	N268	N	0.910844	0.177436	0.466341
	N269	N	0.081992	0.175576	0.541301
	N270	N	0.083415	0.820247	0.465963
	N271	N	0.912481	0.819174	0.539971
	N272	N	0.177986	0.461506	0.916828
	N273	N	0.176358	0.535680	0.087972
	N274	N	0.820169	0.461947	0.089194
	N275	N	0.821224	0.535402	0.917211
	O276	O	0.016940	0.163994	0.020867
	H277	H	0.008343	0.162732	0.009991
	H278	H	0.015893	0.153338	0.025273
	O279	O	0.608294	0.523664	0.395025
	H280	H	0.617461	0.526344	0.403220
	H281	H	0.613183	0.527803	0.391478
	O282	O	2.132681	1.091101	1.145598
	H283	H	2.133845	1.087291	1.153024
	H284	H	2.149556	1.087838	1.158437
	O285	O	-0.329178	0.506415	0.569690
	H286	H	-0.329794	0.499982	0.574315
	H287	H	-0.330631	0.499421	0.570377
	O288	O	0.522442	0.496404	0.336594
	H289	H	0.536458	0.518472	0.340617
	H290	H	0.502374	0.490250	0.336717
	O291	O	0.669749	0.354511	0.363784
	H292	H	0.672590	0.347995	0.361056
	H293	H	0.655625	0.358147	0.358898
	O294	O	1.006216	1.020528	1.129708
	H295	H	1.013074	1.020727	1.145699
	H296	H	1.007573	1.016689	1.133287
	O297	O	0.026884	0.111728	0.009829
	H298	H	0.025800	0.112571	0.015398
	H299	H	0.032748	0.125754	0.014204
	O300	O	0.585853	0.566992	0.525053
	H301	H	0.588176	0.565327	0.508385
	H302	H	0.585293	0.559739	0.534501
	O303	O	0.065857	0.974379	1.059788
	H304	H	0.074857	0.973858	1.045849
	H305	H	0.057409	0.960768	1.064507
	O306	O	0.405450	0.673447	0.422356
	H307	H	0.409791	0.679085	0.430057
	H308	H	0.415512	0.671044	0.424071
	O309	O	1.333101	0.359737	-0.332605
	H310	H	1.324938	0.352488	-0.338527
	H311	H	1.328212	0.361403	-0.326377
	O312	O	-0.094087	0.040161	1.114497
	H313	H	-0.078016	0.039225	1.117615
	H314	H	-0.090283	0.044489	1.108855
	O315	O	0.014723	0.959742	-0.133885
	H316	H	0.019942	0.960463	-0.146671
	H317	H	0.020787	0.953986	-0.131434
	O318	O	0.355483	0.437234	0.423005
	H319	H	0.367853	0.443312	0.432310
	H320	H	0.357843	0.440038	0.427458
	O321	O	0.377449	0.540301	0.371525
	H322	H	0.378890	0.547366	0.375276
	H323	H	0.359364	0.546401	0.357823
	O324	O	0.534855	0.382276	0.440396
	H325	H	0.513784	0.381944	0.447463
	H326	H	0.535141	0.380778	0.438758
	O327	O	0.437706	0.437763	0.668557
	H328	H	0.436329	0.431031	0.669498
	H329	H	0.443895	0.445214	0.667306
	O330	O	0.588384	0.543246	0.542748
	H331	H	0.596693	0.531606	0.540168
	H332	H	0.589519	0.551432	0.530180
	O333	O	0.021700	0.877789	1.054820
	H334	H	0.015549	0.881930	1.049793
	H335	H	0.010454	0.872378	1.057112
	O336	O	0.972792	0.932618	0.994360
	H337	H	0.979525	0.923443	0.988739
	H338	H	0.966602	0.928868	1.000179
	O339	O	0.517909	0.493677	0.517564
	H340	H	0.530638	0.511749	0.520750
	H341	H	0.506857	0.492719	0.524092
	O342	O	0.951238	0.026550	0.141085
	H343	H	0.958394	0.031397	0.131069
	H344	H	0.954884	0.037891	0.152103
	O345	O	0.571685	0.461030	0.486222
	H346	H	0.580015	0.476638	0.472715
	H347	H	0.571752	0.444101	0.471108
	O348	O	0.990435	0.981042	0.954605
	H349	H	0.992049	0.992471	0.948464
	H350	H	0.994654	0.978412	0.954892
	O351	O	1.021327	0.928979	-0.132460
	H352	H	1.027976	0.929104	-0.142098
	H353	H	1.013567	0.932628	-0.124672
	O354	O	0.481736	0.631357	0.529763
	H355	H	0.484589	0.636280	0.537398
	H356	H	0.487813	0.632530	0.534859
	O357	O	-0.075196	-0.013147	0.026781
	H358	H	-0.074240	-0.003658	0.029210
	H359	H	-0.073416	-0.016164	0.017815
	O360	O	-0.024744	0.026689	0.038495
	H361	H	-0.033219	0.030791	0.054436
	H362	H	-0.028576	0.021320	0.026181
	O363	O	0.548302	0.533064	0.610313
	H364	H	0.548329	0.532564	0.620736
	H365	H	0.548759	0.540626	0.600032
	O366	O	-0.014964	-0.096868	-0.082640
	H367	H	-0.014739	-0.102049	-0.076432
	H368	H	-0.015123	-0.092285	-0.087245
	O369	O	0.549502	0.432564	0.592196
	H370	H	0.551479	0.424660	0.583448
	H371	H	0.556862	0.432633	0.583497
	O372	O	0.359795	0.519227	0.526257
	H373	H	0.354185	0.526444	0.520926
	H374	H	0.364298	0.515502	0.544958
	O375	O	0.487477	0.389184	0.406078
	H376	H	0.496604	0.372704	0.400530
	H377	H	0.483524	0.405647	0.410718
	O378	O	0.582863	0.551656	0.556576
	H379	H	0.593468	0.547364	0.554236
	H380	H	0.584462	0.548866	0.562883
	O381	O	0.339948	0.478427	0.465043
	H382	H	0.336551	0.480552	0.455428
	H383	H	0.337708	0.486866	0.471505
	O384	O	0.063907	1.089740	-0.058232
	H385	H	0.055806	1.107541	-0.058502
	H386	H	0.060941	1.093289	-0.051125
	O387	O	1.019589	-0.019311	1.006189
	H388	H	1.019458	-0.026007	1.011690
	H389	H	1.025888	-0.026294	1.000566
	O390	O	-0.042376	1.075810	-0.051440
	H391	H	-0.054469	1.076788	-0.046923
	H392	H	-0.038653	1.075038	-0.046522
	O393	O	1.055353	0.946452	-0.142436
	H394	H	1.062134	0.946813	-0.152043
	H395	H	1.044636	0.947937	-0.143407
	O396	O	0.411567	0.510449	0.601288
	H397	H	0.412321	0.515888	0.589195
	H398	H	0.409601	0.504853	0.608121
	O399	O	-0.103456	1.006866	1.019251
	H400	H	-0.103924	1.007560	1.016748
	H401	H	-0.104162	1.012373	1.024716
	O402	O	0.998686	0.921945	0.960706
	H403	H	0.999359	0.936864	0.963805
	H404	H	1.006327	0.909700	0.962038
	O405	O	0.524602	0.473142	0.556186
	H406	H	0.530283	0.475624	0.570072
	H407	H	0.530512	0.469001	0.559580
