data_Molecule from HDF5

_cell_length_a		16.299319
_cell_length_b		16.404460
_cell_length_c		16.080856
_cell_angle_alpha	89.837244
_cell_angle_beta	89.924948
_cell_angle_gamma	89.842581
_symmetry_space_group_name_H-M	'P 1'
_symmetry_Int_Tables_number		1

loop_
	_symmetry_equiv_pos_as_xyz
	x,y,z

loop_
	_atom_site_label
	_atom_site_type_symbol
	_atom_site_fract_x
	_atom_site_fract_y
	_atom_site_fract_z
	H0	H	0.405344	0.839734	0.718049
	H1	H	0.599122	0.166324	0.714981
	H2	H	0.599639	0.839303	0.288240
	H3	H	0.403447	0.165982	0.287825
	H4	H	0.716192	0.404592	0.837437
	H5	H	0.717270	0.603431	0.166285
	H6	H	0.287690	0.604876	0.836408
	H7	H	0.286604	0.406281	0.166750
	H8	H	0.840349	0.721221	0.398070
	H9	H	0.164926	0.718101	0.601983
	H10	H	0.840192	0.284614	0.604230
	H11	H	0.165103	0.284338	0.399207
	H12	H	0.838152	0.405358	0.716276
	H13	H	0.167114	0.597796	0.712943
	H14	H	0.836842	0.598674	0.289296
	H15	H	0.166597	0.406148	0.287849
	H16	H	0.399787	0.721308	0.838124
	H17	H	0.600367	0.717130	0.167407
	H18	H	0.603347	0.288452	0.838249
	H19	H	0.399664	0.288454	0.166982
	H20	H	0.719166	0.840103	0.402544
	H21	H	0.719907	0.163564	0.603659
	H22	H	0.286788	0.840028	0.603219
	H23	H	0.283954	0.163904	0.400330
	H24	H	0.902640	0.340236	0.217110
	H25	H	0.096520	0.666911	0.214729
	H26	H	0.099594	0.339289	0.789388
	H27	H	0.903204	0.665200	0.784566
	H28	H	0.217665	0.904564	0.336628
	H29	H	0.214850	0.099903	0.667360
	H30	H	0.787936	0.100926	0.337155
	H31	H	0.790270	0.903004	0.667750
	H32	H	0.339661	0.222588	0.899392
	H33	H	0.663411	0.222587	0.105991
	H34	H	0.338924	0.786605	0.105729
	H35	H	0.663425	0.783918	0.900023
	H36	H	0.337170	0.908588	0.214841
	H37	H	0.666362	0.099287	0.214400
	H38	H	0.338151	0.101570	0.788121
	H39	H	0.667616	0.907116	0.792313
	H40	H	0.901758	0.216924	0.336814
	H41	H	0.102570	0.216658	0.666422
	H42	H	0.102944	0.788261	0.336269
	H43	H	0.902924	0.785746	0.665980
	H44	H	0.221775	0.343509	0.898310
	H45	H	0.216422	0.666395	0.101595
	H46	H	0.784178	0.341444	0.104105
	H47	H	0.784204	0.665326	0.898628
	H48	H	0.411347	0.119238	0.599591
	H49	H	0.598261	0.885864	0.597599
	H50	H	0.602095	0.118061	0.413116
	H51	H	0.408368	0.887816	0.412866
	H52	H	0.595470	0.413040	0.121329
	H53	H	0.589457	0.591658	0.886469
	H54	H	0.409053	0.595704	0.119838
	H55	H	0.401159	0.413714	0.881687
	H56	H	0.114764	0.589282	0.413187
	H57	H	0.883434	0.608616	0.590216
	H58	H	0.119423	0.402081	0.591381
	H59	H	0.887993	0.408613	0.416387
	H60	H	0.116769	0.411050	0.590325
	H61	H	0.892121	0.588532	0.580099
	H62	H	0.120865	0.595568	0.399857
	H63	H	0.885468	0.412648	0.405844
	H64	H	0.409316	0.597833	0.120238
	H65	H	0.589713	0.600624	0.883886
	H66	H	0.590740	0.415742	0.117994
	H67	H	0.416136	0.420116	0.888320
	H68	H	0.597077	0.120102	0.402825
	H69	H	0.595555	0.887305	0.597377
	H70	H	0.411377	0.115049	0.589433
	H71	H	0.406534	0.886014	0.407628
	H72	H	0.919460	0.618953	0.104319
	H73	H	0.093557	0.386306	0.100785
	H74	H	0.098021	0.618445	0.914010
	H75	H	0.901174	0.387647	0.915543
	H76	H	0.104496	0.916081	0.621006
	H77	H	0.091513	0.093319	0.384517
	H78	H	0.904324	0.094948	0.622027
	H79	H	0.915927	0.922062	0.389533
	H80	H	0.616890	0.096574	0.912940
	H81	H	0.385159	0.091181	0.101863
	H82	H	0.617249	0.916080	0.096658
	H83	H	0.383959	0.911940	0.905936
	H84	H	0.621345	0.901966	0.099682
	H85	H	0.382012	0.107825	0.096974
	H86	H	0.617643	0.096491	0.909896
	H87	H	0.385196	0.906866	0.914783
	H88	H	0.913458	0.086901	0.616030
	H89	H	0.094697	0.095899	0.383157
	H90	H	0.083852	0.911606	0.614959
	H91	H	0.919071	0.899427	0.382411
	H92	H	0.098771	0.622682	0.902596
	H93	H	0.090023	0.392444	0.087395
	H94	H	0.909952	0.612993	0.078189
	H95	H	0.906485	0.385862	0.902532
	H96	H	0.402296	0.119011	0.593824
	H97	H	0.597127	0.886344	0.594608
	H98	H	0.590653	0.116007	0.411841
	H99	H	0.412239	0.888302	0.408678
	H100	H	0.590141	0.409965	0.120028
	H101	H	0.597339	0.595389	0.883235
	H102	H	0.406841	0.596049	0.120534
	H103	H	0.415648	0.403774	0.883851
	H104	H	0.119016	0.604016	0.412088
	H105	H	0.885613	0.588743	0.604220
	H106	H	0.119994	0.407560	0.599710
	H107	H	0.884763	0.401956	0.408498
	H108	H	0.892645	0.623848	0.097478
	H109	H	0.102993	0.387110	0.089824
	H110	H	0.088667	0.617686	0.906145
	H111	H	0.915005	0.390026	0.913294
	H112	H	0.096549	0.896463	0.623265
	H113	H	0.095919	0.092372	0.384546
	H114	H	0.916913	0.099089	0.619581
	H115	H	0.897518	0.909846	0.379644
	H116	H	0.618601	0.099495	0.911841
	H117	H	0.389037	0.095882	0.084818
	H118	H	0.616244	0.906532	0.086194
	H119	H	0.388696	0.915648	0.914979
	C120	C	0.380089	0.010374	0.624584
	C121	C	0.625106	0.994029	0.624923
	C122	C	0.624762	0.010557	0.380260
	C123	C	0.380135	0.994556	0.380436
	C124	C	0.622170	0.383188	0.010829
	C125	C	0.621650	0.624698	0.993394
	C126	C	0.379725	0.625819	0.010822
	C127	C	0.380417	0.383500	0.993407
	C128	C	0.010258	0.624533	0.379415
	C129	C	0.994655	0.623632	0.621500
	C130	C	0.010613	0.379222	0.623657
	C131	C	0.994106	0.379685	0.379983
	C132	C	0.878511	0.511425	0.123566
	C133	C	0.122914	0.495920	0.121964
	C134	C	0.124479	0.512244	0.878923
	C135	C	0.879034	0.495050	0.879932
	C136	C	0.124094	0.880529	0.510382
	C137	C	0.123057	0.122661	0.493025
	C138	C	0.881657	0.123054	0.510550
	C139	C	0.881620	0.881073	0.493178
	C140	C	0.510336	0.126825	0.881004
	C141	C	0.493273	0.126235	0.124050
	C142	C	0.510051	0.880691	0.124233
	C143	C	0.493760	0.882000	0.882103
	C144	C	0.383855	0.888282	0.680097
	C145	C	0.621065	0.116957	0.678683
	C146	C	0.621052	0.888133	0.325510
	C147	C	0.382774	0.117094	0.325218
	C148	C	0.678430	0.384485	0.886918
	C149	C	0.678452	0.623187	0.117357
	C150	C	0.324902	0.624634	0.886173
	C151	C	0.324444	0.385870	0.117569
	C152	C	0.888290	0.681523	0.379855
	C153	C	0.116797	0.679356	0.620977
	C154	C	0.888695	0.323140	0.623500
	C155	C	0.116490	0.323425	0.379965
	C156	C	0.887393	0.383325	0.678868
	C157	C	0.117739	0.619612	0.676401
	C158	C	0.886495	0.620548	0.325638
	C159	C	0.117219	0.383926	0.324486
	C160	C	0.380760	0.682499	0.886847
	C161	C	0.620198	0.679570	0.117957
	C162	C	0.621730	0.327110	0.887124
	C163	C	0.380587	0.327361	0.117763
	C164	C	0.680607	0.888600	0.382313
	C165	C	0.681073	0.115865	0.623144
	C166	C	0.325224	0.888368	0.622771
	C167	C	0.323537	0.116152	0.381360
	C168	C	0.882046	0.388943	0.178968
	C169	C	0.118430	0.618235	0.177314
	C170	C	0.121315	0.388926	0.825309
	C171	C	0.882203	0.616875	0.823135
	C172	C	0.179553	0.884028	0.385791
	C173	C	0.178160	0.120702	0.617696
	C174	C	0.825618	0.121062	0.386423
	C175	C	0.827116	0.882668	0.617806
	C176	C	0.388047	0.183209	0.880834
	C177	C	0.615430	0.182843	0.124091
	C178	C	0.387390	0.825552	0.124062
	C179	C	0.615739	0.824123	0.881946
	C180	C	0.386573	0.886104	0.178641
	C181	C	0.616856	0.121534	0.178108
	C182	C	0.387351	0.123107	0.825443
	C183	C	0.617676	0.885055	0.827818
	C184	C	0.882405	0.178646	0.386161
	C185	C	0.122067	0.178501	0.617133
	C186	C	0.122689	0.826246	0.385555
	C187	C	0.883362	0.824328	0.616940
	C188	C	0.182078	0.390956	0.879524
	C189	C	0.177811	0.617959	0.120780
	C190	C	0.822699	0.389682	0.122991
	C191	C	0.823086	0.616968	0.879951
	C192	C	0.401890	0.095625	0.601202
	C193	C	0.603530	0.908777	0.602923
	C194	C	0.602957	0.095815	0.402630
	C195	C	0.402275	0.909515	0.403125
	C196	C	0.598708	0.406049	0.097470
	C197	C	0.598800	0.602463	0.906849
	C198	C	0.401764	0.603165	0.097601
	C199	C	0.404084	0.405875	0.907027
	C200	C	0.096036	0.602602	0.401864
	C201	C	0.909155	0.601719	0.598208
	C202	C	0.096427	0.400629	0.600579
	C203	C	0.908300	0.401222	0.403362
	C204	C	0.900777	0.596606	0.100372
	C205	C	0.101677	0.410721	0.099416
	C206	C	0.101704	0.597353	0.900886
	C207	C	0.901062	0.409979	0.903603
	C208	C	0.101641	0.901748	0.597255
	C209	C	0.100653	0.100317	0.406361
	C210	C	0.904705	0.100382	0.596837
	C211	C	0.904243	0.903859	0.406252
	C212	C	0.595560	0.104518	0.904918
	C213	C	0.407653	0.104787	0.101212
	C214	C	0.596122	0.901851	0.100992
	C215	C	0.408208	0.904896	0.905018
	Zn216	Zn	0.502903	0.003028	0.753709
	Zn217	Zn	0.501706	0.003430	0.251227
	Zn218	Zn	0.749579	0.503852	0.001836
	Zn219	Zn	0.252928	0.504870	0.000988
	Zn220	Zn	0.002775	0.753226	0.500855
	Zn221	Zn	0.002742	0.250330	0.501340
	Zn222	Zn	0.002188	0.502406	0.751313
	Zn223	Zn	0.001246	0.502634	0.251653
	Zn224	Zn	0.500845	0.752782	0.002433
	Zn225	Zn	0.501854	0.255925	0.002940
	Zn226	Zn	0.753805	0.002237	0.503058
	Zn227	Zn	0.250932	0.002699	0.502243
	N228	N	0.417196	0.965240	0.681371
	N229	N	0.587094	0.040272	0.680094
	N230	N	0.587220	0.965130	0.323829
	N231	N	0.417444	0.040616	0.324671
	N232	N	0.678642	0.418632	0.965003
	N233	N	0.679369	0.589820	0.038967
	N234	N	0.324089	0.590239	0.964260
	N235	N	0.324282	0.419873	0.039301
	N236	N	0.966272	0.684221	0.412457
	N237	N	0.039310	0.681951	0.587541
	N238	N	0.966415	0.320424	0.589765
	N239	N	0.038869	0.320733	0.413538
	N240	N	0.964219	0.417392	0.679126
	N241	N	0.040635	0.585535	0.676939
	N242	N	0.963225	0.585553	0.325427
	N243	N	0.039936	0.418227	0.324463
	N244	N	0.414186	0.683485	0.965368
	N245	N	0.585845	0.680810	0.039768
	N246	N	0.587531	0.326137	0.965422
	N247	N	0.414497	0.325423	0.039494
	N248	N	0.683151	0.965714	0.415391
	N249	N	0.683545	0.038481	0.590440
	N250	N	0.322727	0.965584	0.589115
	N251	N	0.321863	0.039012	0.414971
	N252	N	0.916084	0.465643	0.179509
	N253	N	0.084977	0.541250	0.178369
	N254	N	0.086175	0.465279	0.824807
	N255	N	0.916278	0.540164	0.823029
	N256	N	0.180580	0.917015	0.464340
	N257	N	0.178861	0.086577	0.539665
	N258	N	0.825400	0.086973	0.464586
	N259	N	0.825998	0.917294	0.539759
	N260	N	0.465535	0.185749	0.914619
	N261	N	0.537507	0.185920	0.091239
	N262	N	0.465235	0.822142	0.091010
	N263	N	0.537771	0.822311	0.914949
	N264	N	0.463924	0.919611	0.178826
	N265	N	0.540001	0.087116	0.178210
	N266	N	0.464446	0.088734	0.825190
	N267	N	0.540965	0.920482	0.827961
	N268	N	0.916572	0.180170	0.464369
	N269	N	0.088855	0.180092	0.538455
	N270	N	0.088825	0.824074	0.463897
	N271	N	0.916484	0.823286	0.538251
	N272	N	0.184311	0.468476	0.912075
	N273	N	0.180641	0.540950	0.087239
	N274	N	0.820580	0.466890	0.089112
	N275	N	0.820881	0.540039	0.914346
	O276	O	0.482185	0.496841	0.522927
	H277	H	0.485878	0.492084	0.516941
	H278	H	0.476358	0.494552	0.520891
	O279	O	0.506047	0.484409	0.448726
	H280	H	0.501709	0.489294	0.447480
	H281	H	0.500040	0.472591	0.438783
	O282	O	0.995498	1.112076	-0.038319
	H283	H	0.989603	1.117483	-0.039936
	H284	H	0.997972	1.115316	-0.021553
	O285	O	1.019571	-0.035599	1.104797
	H286	H	1.019639	-0.042096	1.102614
	H287	H	1.021497	-0.034585	1.096825
	O288	O	0.511649	0.523660	0.405356
	H289	H	0.505529	0.525076	0.414945
	H290	H	0.505386	0.520454	0.396021
	O291	O	0.477816	0.517842	0.386467
	H292	H	0.481984	0.517735	0.385014
	H293	H	0.471143	0.510043	0.391899
	O294	O	0.555797	0.602200	0.628513
	H295	H	0.564651	0.603005	0.635715
	H296	H	0.564452	0.598022	0.626295
	O297	O	0.573748	0.431228	0.552290
	H298	H	0.581522	0.427361	0.549061
	H299	H	0.571034	0.429951	0.540631
	O300	O	0.922115	0.016607	0.881973
	H301	H	0.924954	0.022451	0.874867
	H302	H	0.932170	0.016937	0.882625
	O303	O	1.015301	1.132266	0.008342
	H304	H	1.017503	1.123925	0.023784
	H305	H	0.997410	1.149520	0.000286
	O306	O	0.007685	1.003015	0.924083
	H307	H	0.007039	1.002433	0.928818
	H308	H	0.004571	1.005615	0.921732
	O309	O	0.536236	0.543852	0.621386
	H310	H	0.542665	0.557292	0.621414
	H311	H	0.527198	0.544276	0.618419
	O312	O	-0.038221	-0.012128	0.031360
	H313	H	-0.040240	-0.025442	0.019870
	H314	H	-0.054670	-0.014504	0.038246
	O315	O	0.993235	-0.057778	0.031783
	H316	H	0.980436	-0.053392	0.032330
	H317	H	0.994003	-0.061999	0.020649
	O318	O	1.066123	0.921986	1.012255
	H319	H	1.072747	0.930838	1.010808
	H320	H	1.061174	0.919769	1.012335
	O321	O	-0.493925	-0.501081	0.611580
	H322	H	-0.490052	-0.500261	0.608192
	H323	H	-0.492094	-0.505536	0.615953
	O324	O	0.469164	0.434776	0.586527
	H325	H	0.463690	0.434789	0.596066
	H326	H	0.478597	0.438560	0.595823
	O327	O	-0.535228	-0.544349	0.455293
	H328	H	-0.536473	-0.536019	0.465107
	H329	H	-0.539331	-0.553766	0.463710
	O330	O	0.578861	0.462264	0.348388
	H331	H	0.575117	0.457652	0.345482
	H332	H	0.565620	0.471366	0.349880
	O333	O	-0.508127	0.556745	0.507495
	H334	H	-0.509675	0.563065	0.505670
	H335	H	-0.512972	0.553783	0.515905
	O336	O	-0.053645	-0.022486	0.081255
	H337	H	-0.057413	-0.018575	0.089072
	H338	H	-0.057544	-0.014524	0.077869
	O339	O	0.036253	0.964713	0.965213
	H340	H	0.034258	0.958763	0.956030
	H341	H	0.033520	0.964974	0.951206
	O342	O	1.047457	1.042742	0.869531
	H343	H	1.051816	1.054781	0.868427
	H344	H	1.060899	1.047979	0.874361
	O345	O	1.067053	1.112653	0.137759
	H346	H	1.070796	1.104926	0.152079
	H347	H	1.066399	1.114418	0.141238
	O348	O	0.541524	0.512748	0.415257
	H349	H	0.538316	0.513672	0.413560
	H350	H	0.531557	0.507605	0.415798
	O351	O	0.596193	0.464564	0.571637
	H352	H	0.597857	0.462994	0.569324
	H353	H	0.604622	0.464491	0.580338
	O354	O	0.497877	0.494985	0.528017
	H355	H	0.496883	0.504195	0.527915
	H356	H	0.508019	0.496864	0.518999
	O357	O	1.048344	-0.033875	0.956149
	H358	H	1.055191	-0.045404	0.956772
	H359	H	1.055233	-0.023991	0.957531
	O360	O	0.593438	0.518265	0.519223
	H361	H	0.599120	0.522955	0.520914
	H362	H	0.591706	0.522584	0.513806
	O363	O	1.100299	1.029796	0.061347
	H364	H	1.088494	1.027220	0.072437
	H365	H	1.112841	1.030976	0.064053
	O366	O	0.984660	0.863650	1.038772
	H367	H	0.972316	0.865869	1.035421
	H368	H	0.984248	0.863375	1.030195
	O369	O	0.949727	0.016143	1.054243
	H370	H	0.955959	0.008873	1.069505
	H371	H	0.944180	0.020621	1.052811
	O372	O	0.046838	0.103990	0.024932
	H373	H	0.049597	0.075751	0.035806
	H374	H	0.060207	0.112000	0.026028
	O375	O	0.904363	0.035759	-0.075845
	H376	H	0.906620	0.052588	-0.082582
	H377	H	0.892218	0.039469	-0.072893
	O378	O	0.398988	0.460679	0.505791
	H379	H	0.386954	0.456715	0.494641
	H380	H	0.412340	0.465767	0.519143
	O381	O	0.412762	0.509235	0.440488
	H382	H	0.421910	0.512815	0.445600
	H383	H	0.404139	0.504550	0.442898
