data_Molecule from HDF5

_cell_length_a		16.340857
_cell_length_b		16.264596
_cell_length_c		16.342477
_cell_angle_alpha	90.210297
_cell_angle_beta	90.156315
_cell_angle_gamma	89.958068
_symmetry_space_group_name_H-M	'P 1'
_symmetry_Int_Tables_number		1

loop_
	_symmetry_equiv_pos_as_xyz
	x,y,z

loop_
	_atom_site_label
	_atom_site_type_symbol
	_atom_site_fract_x
	_atom_site_fract_y
	_atom_site_fract_z
	H0	H	0.410778	0.837815	0.719123
	H1	H	0.607759	0.165347	0.724280
	H2	H	0.607123	0.838278	0.292029
	H3	H	0.408215	0.164777	0.291574
	H4	H	0.723160	0.401273	0.842741
	H5	H	0.722950	0.600830	0.169457
	H6	H	0.291384	0.599886	0.844085
	H7	H	0.292414	0.402817	0.170035
	H8	H	0.843892	0.717249	0.408638
	H9	H	0.171775	0.715513	0.604591
	H10	H	0.844188	0.287994	0.604302
	H11	H	0.171166	0.287866	0.409130
	H12	H	0.844807	0.403513	0.721492
	H13	H	0.170602	0.601293	0.722800
	H14	H	0.844179	0.601261	0.291077
	H15	H	0.170743	0.402969	0.291362
	H16	H	0.409274	0.714821	0.842708
	H17	H	0.605959	0.716673	0.169745
	H18	H	0.605780	0.285764	0.842991
	H19	H	0.411391	0.288512	0.170122
	H20	H	0.723057	0.838386	0.407707
	H21	H	0.724230	0.165482	0.608165
	H22	H	0.293848	0.837821	0.604670
	H23	H	0.292409	0.165051	0.408291
	H24	H	0.909130	0.338532	0.220851
	H25	H	0.105768	0.666296	0.221715
	H26	H	0.105864	0.338551	0.790426
	H27	H	0.908397	0.666123	0.791703
	H28	H	0.220921	0.904123	0.343828
	H29	H	0.222875	0.100512	0.670250
	H30	H	0.791273	0.101061	0.343883
	H31	H	0.791705	0.902758	0.669665
	H32	H	0.344149	0.214831	0.909032
	H33	H	0.671173	0.217163	0.106894
	H34	H	0.344262	0.789198	0.102344
	H35	H	0.670778	0.786184	0.908577
	H36	H	0.345478	0.902427	0.221983
	H37	H	0.670601	0.101903	0.224540
	H38	H	0.344836	0.100360	0.791784
	H39	H	0.670907	0.901818	0.791001
	H40	H	0.908821	0.216740	0.343507
	H41	H	0.106274	0.217116	0.670625
	H42	H	0.104476	0.787842	0.343363
	H43	H	0.910626	0.789046	0.670891
	H44	H	0.221898	0.337877	0.906631
	H45	H	0.222352	0.665550	0.105945
	H46	H	0.794811	0.337468	0.102995
	H47	H	0.792540	0.666036	0.908171
	H48	H	0.412750	0.118296	0.598953
	H49	H	0.602346	0.885698	0.598149
	H50	H	0.597879	0.115960	0.421641
	H51	H	0.400029	0.881562	0.416508
	H52	H	0.601243	0.411506	0.120884
	H53	H	0.591983	0.583703	0.896940
	H54	H	0.414252	0.592500	0.122035
	H55	H	0.410790	0.405762	0.889262
	H56	H	0.124720	0.601046	0.410532
	H57	H	0.889563	0.596994	0.606868
	H58	H	0.127139	0.400205	0.603255
	H59	H	0.890686	0.411053	0.407309
	H60	H	0.120204	0.410795	0.590465
	H61	H	0.891919	0.601298	0.594147
	H62	H	0.121503	0.595726	0.419443
	H63	H	0.890990	0.403728	0.415205
	H64	H	0.416687	0.597780	0.122718
	H65	H	0.595538	0.607423	0.887528
	H66	H	0.600830	0.408198	0.121624
	H67	H	0.412615	0.412058	0.891182
	H68	H	0.605908	0.120429	0.414374
	H69	H	0.598806	0.886321	0.600670
	H70	H	0.416602	0.118530	0.601979
	H71	H	0.419500	0.882260	0.398506
	H72	H	0.914931	0.620047	0.105325
	H73	H	0.102431	0.386661	0.096259
	H74	H	0.093497	0.617511	0.910447
	H75	H	0.911592	0.389042	0.923538
	H76	H	0.104481	0.904096	0.625184
	H77	H	0.097194	0.095890	0.391659
	H78	H	0.921961	0.083892	0.616921
	H79	H	0.915844	0.908276	0.392331
	H80	H	0.624825	0.091289	0.906167
	H81	H	0.393094	0.099891	0.093624
	H82	H	0.620144	0.912981	0.090466
	H83	H	0.389457	0.906763	0.905019
	H84	H	0.624768	0.915546	0.110425
	H85	H	0.395376	0.086329	0.098631
	H86	H	0.624719	0.101588	0.918433
	H87	H	0.391913	0.903156	0.916851
	H88	H	0.922038	0.105895	0.623119
	H89	H	0.104132	0.097310	0.389530
	H90	H	0.105130	0.913148	0.623107
	H91	H	0.912486	0.909160	0.390727
	H92	H	0.100451	0.615591	0.921505
	H93	H	0.101333	0.385100	0.102760
	H94	H	0.919098	0.616431	0.096567
	H95	H	0.906505	0.381519	0.905265
	H96	H	0.416998	0.116610	0.597171
	H97	H	0.599039	0.887994	0.596511
	H98	H	0.595692	0.118139	0.410014
	H99	H	0.423865	0.890989	0.423633
	H100	H	0.603691	0.409173	0.121904
	H101	H	0.614250	0.590525	0.887522
	H102	H	0.410622	0.597158	0.123572
	H103	H	0.417181	0.407233	0.891338
	H104	H	0.122716	0.590189	0.410744
	H105	H	0.895147	0.588470	0.597327
	H106	H	0.122811	0.417597	0.606997
	H107	H	0.895171	0.413824	0.417867
	H108	H	0.909129	0.619399	0.096872
	H109	H	0.096025	0.387016	0.098303
	H110	H	0.105996	0.621322	0.910773
	H111	H	0.926038	0.387744	0.908665
	H112	H	0.097272	0.908503	0.621796
	H113	H	0.102669	0.091053	0.392263
	H114	H	0.902997	0.094013	0.625333
	H115	H	0.914690	0.911481	0.391673
	H116	H	0.619682	0.086273	0.919979
	H117	H	0.389990	0.096905	0.107530
	H118	H	0.627864	0.897181	0.101622
	H119	H	0.394553	0.915458	0.913206
	C120	C	0.386823	0.009693	0.627865
	C121	C	0.629527	0.994264	0.628269
	C122	C	0.628656	0.009934	0.386367
	C123	C	0.385968	0.992983	0.384862
	C124	C	0.630042	0.380138	0.013649
	C125	C	0.628826	0.622887	0.998574
	C126	C	0.385489	0.623356	0.014731
	C127	C	0.385710	0.380077	0.998700
	C128	C	0.015249	0.623892	0.385196
	C129	C	0.999910	0.624088	0.628112
	C130	C	0.015735	0.380989	0.628208
	C131	C	0.999770	0.380409	0.384811
	C132	C	0.885896	0.510305	0.127637
	C133	C	0.128743	0.494038	0.128190
	C134	C	0.128627	0.509941	0.884960
	C135	C	0.886288	0.494539	0.884878
	C136	C	0.129720	0.880186	0.515390
	C137	C	0.129577	0.123578	0.499212
	C138	C	0.886162	0.123638	0.514612
	C139	C	0.886078	0.881227	0.499317
	C140	C	0.515706	0.122556	0.885614
	C141	C	0.500090	0.123485	0.129433
	C142	C	0.516227	0.880239	0.128106
	C143	C	0.499772	0.879629	0.884060
	C144	C	0.389528	0.886711	0.682024
	C145	C	0.628029	0.116704	0.685696
	C146	C	0.627257	0.886978	0.330301
	C147	C	0.388200	0.116147	0.329820
	C148	C	0.685233	0.381398	0.891351
	C149	C	0.684530	0.620944	0.120941
	C150	C	0.329995	0.620583	0.892335
	C151	C	0.330783	0.382686	0.121197
	C152	C	0.892526	0.679239	0.387876
	C153	C	0.122784	0.678342	0.625626
	C154	C	0.893047	0.325720	0.625010
	C155	C	0.122266	0.325300	0.387859
	C156	C	0.893116	0.383253	0.683086
	C157	C	0.122341	0.621262	0.683974
	C158	C	0.892585	0.621583	0.329616
	C159	C	0.122239	0.383043	0.329787
	C160	C	0.388334	0.677756	0.891810
	C161	C	0.626343	0.678342	0.121182
	C162	C	0.627062	0.323770	0.891483
	C163	C	0.389792	0.325872	0.121375
	C164	C	0.684856	0.887152	0.387724
	C165	C	0.685672	0.116795	0.627752
	C166	C	0.331530	0.886734	0.625008
	C167	C	0.330541	0.116140	0.387528
	C168	C	0.888662	0.387054	0.182595
	C169	C	0.126290	0.617240	0.183865
	C170	C	0.126131	0.386980	0.829003
	C171	C	0.888488	0.617522	0.830082
	C172	C	0.183935	0.882735	0.392529
	C173	C	0.184930	0.121348	0.621690
	C174	C	0.829792	0.121520	0.392326
	C175	C	0.830505	0.882994	0.621677
	C176	C	0.393064	0.177768	0.888006
	C177	C	0.622532	0.179099	0.127295
	C178	C	0.393127	0.826469	0.124000
	C179	C	0.622210	0.824218	0.887392
	C180	C	0.393856	0.882726	0.183350
	C181	C	0.622365	0.121761	0.185711
	C182	C	0.393322	0.120744	0.829900
	C183	C	0.622314	0.881437	0.828960
	C184	C	0.888115	0.179050	0.392180
	C185	C	0.126581	0.178880	0.622008
	C186	C	0.125820	0.825407	0.392299
	C187	C	0.889334	0.826247	0.622103
	C188	C	0.183541	0.386708	0.887033
	C189	C	0.184098	0.616972	0.126292
	C190	C	0.831846	0.386604	0.124089
	C191	C	0.830681	0.617423	0.887608
	C192	C	0.409001	0.095844	0.605781
	C193	C	0.606738	0.908641	0.605031
	C194	C	0.606226	0.095867	0.408848
	C195	C	0.407881	0.907120	0.406605
	C196	C	0.608291	0.402980	0.099394
	C197	C	0.606788	0.600463	0.912814
	C198	C	0.407434	0.602056	0.100479
	C199	C	0.407227	0.401832	0.912800
	C200	C	0.100801	0.602100	0.406910
	C201	C	0.914322	0.601881	0.606131
	C202	C	0.101308	0.403110	0.606476
	C203	C	0.914363	0.402936	0.406879
	C204	C	0.907932	0.596335	0.106014
	C205	C	0.106580	0.408327	0.105695
	C206	C	0.106415	0.596022	0.907529
	C207	C	0.908352	0.408289	0.906249
	C208	C	0.108573	0.902089	0.601239
	C209	C	0.107651	0.101330	0.413382
	C210	C	0.908809	0.101127	0.599753
	C211	C	0.907947	0.903154	0.413865
	C212	C	0.601020	0.099852	0.908242
	C213	C	0.414751	0.100918	0.106720
	C214	C	0.602062	0.902003	0.106894
	C215	C	0.414084	0.901869	0.905464
	Zn216	Zn	0.507734	0.001806	0.756556
	Zn217	Zn	0.508301	0.001754	0.257655
	Zn218	Zn	0.758054	0.501973	0.005759
	Zn219	Zn	0.257044	0.501662	0.006658
	Zn220	Zn	0.007728	0.752594	0.507028
	Zn221	Zn	0.007909	0.252180	0.506673
	Zn222	Zn	0.007432	0.502243	0.756635
	Zn223	Zn	0.007160	0.502187	0.256172
	Zn224	Zn	0.507692	0.751332	0.006335
	Zn225	Zn	0.507932	0.251462	0.006483
	Zn226	Zn	0.757379	0.002195	0.506881
	Zn227	Zn	0.258429	0.001736	0.506673
	N228	N	0.423200	0.964147	0.683874
	N229	N	0.593740	0.039411	0.686083
	N230	N	0.593205	0.964353	0.329270
	N231	N	0.421846	0.038584	0.328039
	N232	N	0.687226	0.415559	0.968447
	N233	N	0.686102	0.587057	0.043670
	N234	N	0.328135	0.587423	0.969584
	N235	N	0.328216	0.415650	0.043773
	N236	N	0.969643	0.680543	0.421801
	N237	N	0.045818	0.680029	0.591534
	N238	N	0.970292	0.324231	0.591560
	N239	N	0.045204	0.323597	0.421306
	N240	N	0.970284	0.416817	0.685067
	N241	N	0.044796	0.588312	0.685783
	N242	N	0.969832	0.587991	0.327710
	N243	N	0.044831	0.416380	0.327627
	N244	N	0.422217	0.679494	0.968910
	N245	N	0.592244	0.679283	0.044110
	N246	N	0.593354	0.323003	0.968568
	N247	N	0.423246	0.324107	0.044235
	N248	N	0.685738	0.964695	0.421842
	N249	N	0.686490	0.039716	0.592810
	N250	N	0.329861	0.964588	0.592061
	N251	N	0.329205	0.038769	0.421021
	N252	N	0.921373	0.464958	0.185072
	N253	N	0.092628	0.539689	0.185124
	N254	N	0.092728	0.464535	0.827776
	N255	N	0.922173	0.539949	0.828179
	N256	N	0.186653	0.915868	0.470125
	N257	N	0.186881	0.087709	0.544352
	N258	N	0.828560	0.087976	0.469347
	N259	N	0.828537	0.916386	0.544502
	N260	N	0.470119	0.178871	0.922125
	N261	N	0.545556	0.180183	0.092873
	N262	N	0.470145	0.824843	0.090473
	N263	N	0.545124	0.823063	0.920946
	N264	N	0.471479	0.915646	0.186070
	N265	N	0.545121	0.088190	0.187306
	N266	N	0.470668	0.087257	0.828113
	N267	N	0.545027	0.915106	0.826736
	N268	N	0.922529	0.180406	0.469126
	N269	N	0.093018	0.180256	0.544648
	N270	N	0.092897	0.823722	0.469591
	N271	N	0.923297	0.825099	0.545002
	N272	N	0.185282	0.464371	0.920942
	N273	N	0.185732	0.539453	0.092439
	N274	N	0.830019	0.464104	0.090705
	N275	N	0.829304	0.539885	0.920757
	O276	O	0.559331	0.457700	0.430438
	H277	H	0.560328	0.454491	0.431226
	H278	H	0.561982	0.458986	0.426117
	O279	O	0.003571	0.063126	0.044810
	H280	H	0.012523	0.074608	0.051523
	H281	H	0.012023	0.051245	0.034645
	O282	O	0.487441	0.445180	0.409783
	H283	H	0.480678	0.446831	0.408977
	H284	H	0.492669	0.451945	0.408843
	O285	O	0.537522	0.534084	0.516024
	H286	H	0.536996	0.528801	0.520561
	H287	H	0.536886	0.536650	0.513629
	O288	O	1.047658	0.046937	0.030910
	H289	H	1.053151	0.036699	0.033247
	H290	H	1.047275	0.056369	0.023888
	O291	O	-0.523574	0.490620	-0.485252
	H292	H	-0.524406	0.491279	-0.475526
	H293	H	-0.522162	0.489717	-0.475132
	O294	O	0.503618	0.469256	0.447487
	H295	H	0.511506	0.473540	0.451208
	H296	H	0.497377	0.467521	0.442365
	O297	O	0.012779	1.070905	0.018840
	H298	H	0.015808	1.081389	0.023952
	H299	H	0.003249	1.074854	0.017788
	O300	O	0.525847	0.514554	0.502716
	H301	H	0.521546	0.504614	0.499145
	H302	H	0.527955	0.509022	0.502050
	O303	O	0.510396	0.493270	0.490139
	H304	H	0.508862	0.503035	0.495411
	H305	H	0.515688	0.498242	0.486308
	O306	O	0.020380	1.070598	1.052365
	H307	H	0.019614	1.069490	1.056217
	H308	H	0.017046	1.073958	1.056575
	O309	O	0.506352	0.425184	0.486395
	H310	H	0.505484	0.426490	0.480513
	H311	H	0.505477	0.420611	0.481228
