data_Molecule from HDF5

_cell_length_a		16.552313
_cell_length_b		16.710285
_cell_length_c		16.562517
_cell_angle_alpha	89.884271
_cell_angle_beta	90.023783
_cell_angle_gamma	89.922811
_symmetry_space_group_name_H-M	'P 1'
_symmetry_Int_Tables_number		1

loop_
	_symmetry_equiv_pos_as_xyz
	x,y,z

loop_
	_atom_site_label
	_atom_site_type_symbol
	_atom_site_fract_x
	_atom_site_fract_y
	_atom_site_fract_z
	H0	H	0.399942	0.853440	0.691502
	H1	H	0.612643	0.162535	0.689475
	H2	H	0.609869	0.852704	0.246334
	H3	H	0.397661	0.161358	0.243283
	H4	H	0.722813	0.407198	0.810437
	H5	H	0.724976	0.611510	0.124661
	H6	H	0.287115	0.609806	0.809558
	H7	H	0.283670	0.402871	0.122999
	H8	H	0.849818	0.729407	0.361660
	H9	H	0.159998	0.731240	0.575268
	H10	H	0.847762	0.290403	0.570325
	H11	H	0.160996	0.285806	0.362598
	H12	H	0.846809	0.408842	0.684477
	H13	H	0.162126	0.611813	0.688889
	H14	H	0.850448	0.614305	0.245191
	H15	H	0.161645	0.402794	0.247023
	H16	H	0.401017	0.728092	0.810578
	H17	H	0.610560	0.729495	0.123727
	H18	H	0.611410	0.286796	0.812257
	H19	H	0.398264	0.285591	0.123411
	H20	H	0.727897	0.853413	0.362403
	H21	H	0.727006	0.163329	0.571567
	H22	H	0.281789	0.854411	0.576054
	H23	H	0.282369	0.161697	0.361235
	H24	H	0.900174	0.352883	0.190272
	H25	H	0.111800	0.661683	0.190609
	H26	H	0.108030	0.351505	0.748361
	H27	H	0.902153	0.664318	0.748376
	H28	H	0.228745	0.901075	0.312256
	H29	H	0.226006	0.110916	0.624710
	H30	H	0.787961	0.111001	0.309329
	H31	H	0.787464	0.906825	0.624898
	H32	H	0.351014	0.231816	0.858581
	H33	H	0.661447	0.228284	0.072332
	H34	H	0.348394	0.787793	0.072462
	H35	H	0.661099	0.786727	0.863167
	H36	H	0.347838	0.905270	0.186611
	H37	H	0.662266	0.110515	0.186507
	H38	H	0.350123	0.113329	0.745823
	H39	H	0.662757	0.904563	0.748239
	H40	H	0.900207	0.230773	0.311966
	H41	H	0.108646	0.225910	0.625785
	H42	H	0.113171	0.784431	0.312867
	H43	H	0.902047	0.788948	0.624359
	H44	H	0.226490	0.352617	0.863110
	H45	H	0.227694	0.662283	0.073184
	H46	H	0.783515	0.352967	0.072993
	H47	H	0.786843	0.664822	0.867166
	H48	H	0.410680	0.119356	0.553199
	H49	H	0.598707	0.898744	0.550453
	H50	H	0.594696	0.118185	0.379742
	H51	H	0.410511	0.895103	0.380683
	H52	H	0.589591	0.420031	0.077667
	H53	H	0.589058	0.599381	0.857040
	H54	H	0.416989	0.591699	0.077402
	H55	H	0.419800	0.419315	0.856906
	H56	H	0.114769	0.599266	0.387807
	H57	H	0.892407	0.602255	0.552790
	H58	H	0.116160	0.421403	0.555650
	H59	H	0.891339	0.419735	0.373733
	H60	H	0.121010	0.415355	0.565339
	H61	H	0.896036	0.593494	0.555460
	H62	H	0.115666	0.589353	0.379007
	H63	H	0.893181	0.413564	0.383073
	H64	H	0.422051	0.602652	0.079412
	H65	H	0.597454	0.603552	0.852599
	H66	H	0.593216	0.413478	0.081424
	H67	H	0.417099	0.417855	0.855687
	H68	H	0.599706	0.120494	0.375785
	H69	H	0.600115	0.894237	0.562714
	H70	H	0.418744	0.119804	0.563232
	H71	H	0.420784	0.895960	0.371712
	H72	H	0.919358	0.617569	0.056604
	H73	H	0.093662	0.396221	0.059980
	H74	H	0.100968	0.620252	0.879004
	H75	H	0.910749	0.392127	0.867426
	H76	H	0.096609	0.919562	0.579937
	H77	H	0.094592	0.100829	0.354881
	H78	H	0.918781	0.100004	0.579455
	H79	H	0.916271	0.912092	0.352419
	H80	H	0.618269	0.095624	0.877068
	H81	H	0.394790	0.088904	0.059198
	H82	H	0.615392	0.924680	0.054919
	H83	H	0.394429	0.920805	0.881246
	H84	H	0.620026	0.915821	0.063870
	H85	H	0.387968	0.104444	0.060548
	H86	H	0.619147	0.100797	0.877819
	H87	H	0.394029	0.921206	0.877676
	H88	H	0.913725	0.100687	0.581689
	H89	H	0.095437	0.095363	0.355697
	H90	H	0.090578	0.923349	0.576899
	H91	H	0.911782	0.921149	0.354490
	H92	H	0.092488	0.620800	0.871716
	H93	H	0.090147	0.398531	0.055181
	H94	H	0.914320	0.618664	0.054139
	H95	H	0.921571	0.398548	0.877703
	H96	H	0.422420	0.114579	0.552393
	H97	H	0.588766	0.898630	0.558396
	H98	H	0.593105	0.119955	0.373231
	H99	H	0.422456	0.901258	0.384951
	H100	H	0.596916	0.420907	0.080325
	H101	H	0.598080	0.593581	0.855787
	H102	H	0.410181	0.600722	0.082599
	H103	H	0.416853	0.421294	0.855809
	H104	H	0.120708	0.601225	0.376312
	H105	H	0.891632	0.598849	0.561967
	H106	H	0.118815	0.410050	0.554553
	H107	H	0.896986	0.424180	0.382604
	H108	H	0.914817	0.619989	0.059767
	H109	H	0.096370	0.397554	0.054417
	H110	H	0.091098	0.616284	0.881513
	H111	H	0.906525	0.395551	0.882107
	H112	H	0.089915	0.915805	0.578436
	H113	H	0.090515	0.097814	0.357328
	H114	H	0.914818	0.095581	0.579384
	H115	H	0.921455	0.919477	0.357411
	H116	H	0.617252	0.097895	0.881359
	H117	H	0.395156	0.099277	0.045550
	H118	H	0.617513	0.912019	0.051046
	H119	H	0.393018	0.918565	0.879099
	C120	C	0.384394	0.016024	0.589490
	C121	C	0.627534	0.999956	0.588897
	C122	C	0.627851	0.016925	0.344590
	C123	C	0.384323	0.999460	0.346087
	C124	C	0.625686	0.387139	-0.023761
	C125	C	0.626577	0.630040	0.958905
	C126	C	0.384254	0.629305	-0.023964
	C127	C	0.384632	0.386873	0.959074
	C128	C	0.014510	0.629410	0.347096
	C129	C	0.996842	0.629298	0.588850
	C130	C	0.014110	0.386194	0.589341
	C131	C	0.997024	0.386464	0.347317
	C132	C	0.883628	0.516152	0.089761
	C133	C	0.126512	0.499560	0.088989
	C134	C	0.126516	0.516168	0.845711
	C135	C	0.882953	0.499456	0.845951
	C136	C	0.126501	0.886491	0.475914
	C137	C	0.126058	0.129020	0.459520
	C138	C	0.884028	0.130139	0.476087
	C139	C	0.884842	0.887037	0.458565
	C140	C	0.514932	0.130072	0.845794
	C141	C	0.496304	0.129102	0.087923
	C142	C	0.513432	0.886763	0.088299
	C143	C	0.497210	0.887828	0.847087
	C144	C	0.381303	0.900084	0.651079
	C145	C	0.630122	0.116324	0.648921
	C146	C	0.629119	0.899494	0.285898
	C147	C	0.380330	0.115242	0.284535
	C148	C	0.684695	0.386828	0.858153
	C149	C	0.685446	0.630710	0.077339
	C150	C	0.325960	0.629365	0.857034
	C151	C	0.323711	0.384424	0.076348
	C152	C	0.896793	0.689433	0.343698
	C153	C	0.113939	0.689931	0.592567
	C154	C	0.894808	0.329460	0.589558
	C155	C	0.114458	0.326342	0.344707
	C156	C	0.894540	0.388142	0.646110
	C157	C	0.115031	0.630685	0.648803
	C158	C	0.897103	0.631989	0.285914
	C159	C	0.114872	0.384632	0.287520
	C160	C	0.382639	0.688059	0.857556
	C161	C	0.628703	0.689434	0.076640
	C162	C	0.628959	0.327445	0.858786
	C163	C	0.381014	0.326300	0.076411
	C164	C	0.687636	0.899863	0.343479
	C165	C	0.687008	0.116684	0.590264
	C166	C	0.322752	0.900344	0.593565
	C167	C	0.322845	0.115276	0.343016
	C168	C	0.881544	0.399482	0.149996
	C169	C	0.129524	0.615717	0.149599
	C170	C	0.127313	0.398535	0.787690
	C171	C	0.883167	0.617634	0.788052
	C172	C	0.188072	0.883307	0.359094
	C173	C	0.185882	0.129645	0.577742
	C174	C	0.826336	0.130758	0.357283
	C175	C	0.826849	0.887344	0.577440
	C176	C	0.397639	0.190868	0.841807
	C177	C	0.614399	0.188545	0.090832
	C178	C	0.395343	0.827894	0.090200
	C179	C	0.614519	0.826988	0.844409
	C180	C	0.395131	0.885884	0.147417
	C181	C	0.614738	0.129971	0.147457
	C182	C	0.397292	0.132074	0.785532
	C183	C	0.615456	0.885705	0.787670
	C184	C	0.882205	0.189962	0.358334
	C185	C	0.127970	0.187179	0.578077
	C186	C	0.130978	0.825035	0.359383
	C187	C	0.883573	0.828690	0.577178
	C188	C	0.185924	0.398938	0.844890
	C189	C	0.187449	0.615783	0.091619
	C190	C	0.823692	0.399403	0.091777
	C191	C	0.825733	0.617882	0.846670
	C192	C	0.409939	0.096954	0.563595
	C193	C	0.602844	0.918367	0.564129
	C194	C	0.602826	0.098292	0.369153
	C195	C	0.410375	0.918598	0.371655
	C196	C	0.600410	0.411096	0.058460
	C197	C	0.601794	0.605801	0.876449
	C198	C	0.409014	0.605383	0.058320
	C199	C	0.410415	0.412158	0.877313
	C200	C	0.096067	0.603847	0.373446
	C201	C	0.914718	0.604965	0.563739
	C202	C	0.097035	0.408884	0.565348
	C203	C	0.915142	0.411908	0.372650
	C204	C	0.908919	0.597629	0.064068
	C205	C	0.100729	0.418689	0.063756
	C206	C	0.101885	0.598044	0.870412
	C207	C	0.906035	0.416886	0.869046
	C208	C	0.099852	0.912225	0.557346
	C209	C	0.100850	0.104986	0.377334
	C210	C	0.908687	0.105816	0.558686
	C211	C	0.909398	0.910803	0.376102
	C212	C	0.596807	0.105210	0.871359
	C213	C	0.414126	0.104645	0.062421
	C214	C	0.596254	0.910620	0.063635
	C215	C	0.415272	0.912929	0.872084
	Zn216	Zn	0.506580	0.008275	0.718301
	Zn217	Zn	0.505421	0.007818	0.216130
	Zn218	Zn	0.754508	0.507949	-0.031869
	Zn219	Zn	0.255861	0.507902	-0.032757
	Zn220	Zn	0.005581	0.758072	0.467526
	Zn221	Zn	0.005168	0.257873	0.468421
	Zn222	Zn	0.004976	0.508336	0.717077
	Zn223	Zn	0.005592	0.507790	0.218909
	Zn224	Zn	0.504868	0.758430	-0.032505
	Zn225	Zn	0.505459	0.257767	-0.032331
	Zn226	Zn	0.756292	0.008701	0.466951
	Zn227	Zn	0.254858	0.007644	0.467673
	N228	N	0.418703	0.973226	0.648927
	N229	N	0.593599	0.042653	0.647998
	N230	N	0.592845	0.973325	0.286171
	N231	N	0.417949	0.042186	0.286281
	N232	N	0.682792	0.423349	0.932284
	N233	N	0.684186	0.594309	0.003039
	N234	N	0.326492	0.593744	0.931795
	N235	N	0.325879	0.421382	0.002333
	N236	N	0.970838	0.688074	0.381209
	N237	N	0.039611	0.689018	0.555771
	N238	N	0.970395	0.327856	0.555291
	N239	N	0.040128	0.327337	0.381167
	N240	N	0.969777	0.422437	0.646542
	N241	N	0.041223	0.593580	0.646616
	N242	N	0.971253	0.595222	0.288056
	N243	N	0.040795	0.421437	0.289019
	N244	N	0.417923	0.688476	0.932584
	N245	N	0.592703	0.689121	0.001951
	N246	N	0.592835	0.327477	0.933309
	N247	N	0.418111	0.327497	0.002276
	N248	N	0.687176	0.973886	0.379170
	N249	N	0.685655	0.043225	0.553613
	N250	N	0.324503	0.973492	0.555946
	N251	N	0.325283	0.042279	0.380814
	N252	N	0.917984	0.473307	0.148903
	N253	N	0.092543	0.542368	0.148136
	N254	N	0.091263	0.472548	0.787936
	N255	N	0.917603	0.542806	0.787181
	N256	N	0.185391	0.920695	0.432698
	N257	N	0.185203	0.094540	0.502808
	N258	N	0.827183	0.094262	0.431692
	N259	N	0.827065	0.922703	0.502540
	N260	N	0.471963	0.190083	0.878578
	N261	N	0.539643	0.188411	0.054836
	N262	N	0.470218	0.827998	0.054432
	N263	N	0.539969	0.828089	0.880622
	N264	N	0.469707	0.921692	0.146493
	N265	N	0.540152	0.093980	0.146119
	N266	N	0.471277	0.095192	0.787679
	N267	N	0.541467	0.922707	0.789157
	N268	N	0.917212	0.189714	0.433410
	N269	N	0.091522	0.187297	0.503540
	N270	N	0.093288	0.826976	0.433153
	N271	N	0.918691	0.827999	0.502063
	N272	N	0.185723	0.473286	0.880225
	N273	N	0.185691	0.542617	0.054381
	N274	N	0.824649	0.473220	0.055276
	N275	N	0.825117	0.543265	0.881682
	O276	O	-0.194237	0.987974	-0.058197
	H277	H	-0.195154	0.998686	-0.055838
	H278	H	-0.182497	1.003937	-0.068842
	O279	O	0.584285	0.285924	0.473731
	H280	H	0.589415	0.295000	0.482636
	H281	H	0.587391	0.287930	0.488359
	O282	O	1.018726	0.014144	1.095874
	H283	H	1.031941	0.020660	1.094202
	H284	H	0.997728	0.005401	1.093362
	O285	O	0.478068	0.283163	0.684542
	H286	H	0.465780	0.252797	0.717406
	H287	H	0.469227	0.307441	0.682114
	O288	O	0.280804	0.523534	0.495913
	H289	H	0.276790	0.511593	0.496056
	H290	H	0.287163	0.522453	0.497579
	O291	O	0.061386	0.063991	0.130846
	H292	H	0.057313	0.055781	0.121809
	H293	H	0.061360	0.058873	0.129509
	O294	O	1.218013	-0.067970	0.883166
	H295	H	1.220439	-0.074164	0.865714
	H296	H	1.234356	-0.068519	0.890891
	O297	O	-0.048084	1.010159	0.803456
	H298	H	-0.040554	1.015909	0.790071
	H299	H	-0.031101	1.022638	0.808971
	O300	O	0.186394	0.044673	0.952344
	H301	H	0.185539	0.037534	0.936904
	H302	H	0.187177	0.059682	0.956300
	O303	O	0.375692	0.418448	0.444984
	H304	H	0.388170	0.424120	0.440972
	H305	H	0.370371	0.409161	0.444265
	O306	O	0.483653	0.743060	0.575189
	H307	H	0.478496	0.738468	0.583276
	H308	H	0.486228	0.748543	0.590189
	O309	O	0.832934	0.212016	0.973336
	H310	H	0.830109	0.217262	0.963298
	H311	H	0.825815	0.209197	0.955224
	O312	O	0.447187	0.575174	0.441891
	H313	H	0.448651	0.578329	0.443947
	H314	H	0.452435	0.580909	0.440277
	O315	O	1.229474	1.196918	0.974362
	H316	H	1.226095	1.202261	1.006642
	H317	H	1.245432	1.209450	0.995564
	O318	O	0.722521	0.728912	0.505872
	H319	H	0.746362	0.742084	0.515219
	H320	H	0.718093	0.731861	0.515526
	O321	O	0.440275	1.275481	0.406982
	H322	H	0.458834	1.277271	0.398310
	H323	H	0.456425	1.278946	0.406469
	O324	O	1.193984	1.121843	0.007384
	H325	H	1.194558	1.141711	0.018494
	H326	H	1.208586	1.132264	0.011322
	O327	O	0.210009	-0.204385	0.759455
	H328	H	0.191944	-0.205060	0.777478
	H329	H	0.227918	-0.212898	0.738524
	O330	O	0.964204	0.000691	0.980506
	H331	H	0.976094	0.007140	0.980629
	H332	H	0.971534	0.003329	0.969496
	O333	O	0.724708	0.528397	0.336205
	H334	H	0.726260	0.536896	0.332320
	H335	H	0.724991	0.542843	0.324028
	O336	O	1.027102	-0.016405	-0.250710
	H337	H	1.048444	-0.008957	-0.251412
	H338	H	1.031325	-0.000489	-0.252317
	O339	O	1.041668	-0.781902	0.903951
	H340	H	1.059981	-0.782209	0.908092
	H341	H	1.039940	-0.785072	0.905009
	O342	O	-0.299871	0.315090	0.362307
	H343	H	-0.316940	0.317678	0.359893
	H344	H	-0.289223	0.312644	0.371688
	O345	O	-0.679546	1.322441	1.284949
	H346	H	-0.661567	1.341989	1.294595
	H347	H	-0.660712	1.337107	1.303537
	O348	O	0.151052	-0.107256	0.161068
	H349	H	0.150603	-0.084997	0.163964
	H350	H	0.148198	-0.104970	0.147008
	O351	O	0.728465	0.506930	0.472743
	H352	H	0.728630	0.494132	0.465999
	H353	H	0.730465	0.526250	0.459586
	O354	O	-0.545336	0.719982	1.255106
	H355	H	-0.545474	0.734963	1.249169
	H356	H	-0.544075	0.727946	1.257499
	O357	O	-0.000537	0.009556	-0.063255
	H358	H	-0.003274	0.006750	-0.068907
	H359	H	-0.004494	0.021029	-0.063457
	O360	O	0.691997	0.318174	0.649677
	H361	H	0.683941	0.337565	0.622728
	H362	H	0.668226	0.332322	0.646348
	O363	O	0.291394	0.285864	0.503678
	H364	H	0.275610	0.255398	0.495780
	H365	H	0.313394	0.286940	0.489900
	O366	O	0.565430	0.532328	0.515313
	H367	H	0.553733	0.530913	0.515636
	H368	H	0.555114	0.544862	0.502535
	O369	O	1.058656	0.119528	-0.056798
	H370	H	1.055510	0.133515	-0.045911
	H371	H	1.065487	0.117888	-0.063214
	O372	O	0.544773	0.673360	0.637189
	H373	H	0.569554	0.673509	0.643031
	H374	H	0.548591	0.677637	0.636875
	O375	O	0.533576	-0.714056	0.251141
	H376	H	0.538908	-0.708712	0.237640
	H377	H	0.538481	-0.719685	0.235086
	O378	O	1.052524	1.211597	0.908126
	H379	H	1.050129	1.223430	0.894116
	H380	H	1.058894	1.213467	0.916553
	O381	O	0.023969	0.800956	1.157393
	H382	H	0.034908	0.797094	1.157459
	H383	H	0.029707	0.808841	1.144365
	O384	O	1.223178	-0.166086	0.977879
	H385	H	1.228932	-0.158173	0.966141
	H386	H	1.242054	-0.180911	0.981418
	O387	O	1.001552	0.804134	-0.180475
	H388	H	1.012842	0.808954	-0.177913
	H389	H	1.012787	0.805289	-0.181956
	O390	O	0.307337	0.726306	0.453546
	H391	H	0.307032	0.729698	0.455533
	H392	H	0.305102	0.725571	0.454003
	O393	O	0.724748	0.549975	0.686278
	H394	H	0.739078	0.556742	0.691663
	H395	H	0.728111	0.558900	0.698235
	O396	O	-0.309428	0.692689	1.284142
	H397	H	-0.312751	0.686502	1.287854
	H398	H	-0.295647	0.710097	1.260036
	O399	O	0.074329	0.031980	0.860109
	H400	H	0.083618	0.017583	0.860221
	H401	H	0.085558	0.038649	0.854202
	O402	O	0.289025	0.472433	0.684208
	H403	H	0.298082	0.474693	0.659059
	H404	H	0.255182	0.476552	0.710136
	O405	O	0.987910	0.160136	0.802486
	H406	H	0.998555	0.163975	0.800108
	H407	H	0.991452	0.165336	0.789520
	O408	O	0.289302	0.533564	0.247262
	H409	H	0.276359	0.554965	0.239967
	H410	H	0.283075	0.549358	0.236277
	O411	O	0.493602	0.525545	0.425468
	H412	H	0.506492	0.543598	0.427635
	H413	H	0.484910	0.523853	0.414397
	O414	O	0.760804	0.334479	0.200923
	H415	H	0.765097	0.348137	0.191866
	H416	H	0.764639	0.323405	0.196155
	O417	O	-0.040063	0.783459	1.004285
	H418	H	-0.050552	0.788380	1.002464
	H419	H	-0.053969	0.773019	1.010585
	O420	O	-0.187926	0.959668	1.166025
	H421	H	-0.173453	0.952294	1.171094
	H422	H	-0.201114	0.959730	1.167076
	O423	O	0.076231	-0.087643	0.826293
	H424	H	0.087764	-0.089180	0.818146
	H425	H	0.064519	-0.071782	0.823103
	O426	O	0.316721	0.689152	0.645870
	H427	H	0.340654	0.674465	0.639555
	H428	H	0.314832	0.686346	0.627347
	O429	O	0.565677	0.734764	0.397136
	H430	H	0.565872	0.742679	0.405257
	H431	H	0.585579	0.733361	0.392885
	O432	O	0.446938	0.575062	0.682068
	H433	H	0.441833	0.558333	0.682570
	H434	H	0.454540	0.574121	0.670111
	O435	O	-0.204525	0.804956	0.001793
	H436	H	-0.212038	0.818749	-0.003819
	H437	H	-0.212415	0.803953	-0.007792
	O438	O	-0.124106	0.095624	0.100506
	H439	H	-0.125978	0.089786	0.080791
	H440	H	-0.124388	0.089589	0.095354
	O441	O	-0.181517	-0.180454	-0.219529
	H442	H	-0.169225	-0.154159	-0.203322
	H443	H	-0.161026	-0.171607	-0.202520
	O444	O	0.557655	0.557891	0.266867
	H445	H	0.554684	0.566368	0.267828
	H446	H	0.568743	0.558137	0.262483
	O447	O	0.301948	1.305567	1.669217
	H448	H	0.307666	1.323338	1.648388
	H449	H	0.309501	1.311083	1.650711
	O450	O	0.211779	1.212689	1.130137
	H451	H	0.226347	1.223175	1.151074
	H452	H	0.180110	1.224103	1.149092
	O453	O	0.711557	0.717718	0.674252
	H454	H	0.742503	0.746974	0.698737
	H455	H	0.696734	0.703417	0.665282
	O456	O	-0.209170	0.037265	0.755838
	H457	H	-0.199707	0.074624	0.753475
	H458	H	-0.221324	0.042456	0.728466
	O459	O	0.716473	0.368173	0.495177
	H460	H	0.724212	0.357915	0.483101
	H461	H	0.721087	0.379333	0.507750
	O462	O	0.796069	-0.204848	1.173565
	H463	H	0.812797	-0.204115	1.141064
	H464	H	0.820387	-0.182649	1.173833
	O465	O	1.073986	0.224544	0.184280
	H466	H	1.064860	0.235230	0.201345
	H467	H	1.057994	0.213112	0.188544
	O468	O	0.528761	0.438026	0.658714
	H469	H	0.515278	0.432610	0.660341
	H470	H	0.538881	0.460282	0.653482
	O471	O	0.794945	0.216027	0.759947
	H472	H	0.768743	0.242917	0.730836
	H473	H	0.816330	0.221361	0.784568
	O474	O	-0.110765	0.993116	0.107560
	H475	H	-0.106214	0.987229	0.120204
	H476	H	-0.106984	0.998795	0.095367
	O477	O	0.431453	0.522493	1.532669
	H478	H	0.434948	0.525939	1.522709
	H479	H	0.436498	0.527748	1.529352
	O480	O	0.615336	0.384304	0.329731
	H481	H	0.598599	0.383137	0.336744
	H482	H	0.626305	0.392822	0.335891
	O483	O	0.139584	0.781398	0.084700
	H484	H	0.152241	0.789830	0.077728
	H485	H	0.124385	0.792401	0.066838
	O486	O	1.304722	-0.299550	1.298682
	H487	H	1.293482	-0.293096	1.306323
	H488	H	1.316707	-0.285058	1.299017
	O489	O	1.451349	0.446739	0.251826
	H490	H	1.441674	0.462680	0.248722
	H491	H	1.452948	0.461271	0.262530
