data_Molecule from HDF5

_cell_length_a		16.288951
_cell_length_b		16.313763
_cell_length_c		16.343527
_cell_angle_alpha	90.038459
_cell_angle_beta	90.099133
_cell_angle_gamma	89.998705
_symmetry_space_group_name_H-M	'P 1'
_symmetry_Int_Tables_number		1

loop_
	_symmetry_equiv_pos_as_xyz
	x,y,z

loop_
	_atom_site_label
	_atom_site_type_symbol
	_atom_site_fract_x
	_atom_site_fract_y
	_atom_site_fract_z
	H0	H	0.402215	0.843833	0.702680
	H1	H	0.600935	0.170181	0.703050
	H2	H	0.600807	0.843536	0.271875
	H3	H	0.401403	0.170049	0.272868
	H4	H	0.715843	0.409283	0.824137
	H5	H	0.717895	0.605839	0.151244
	H6	H	0.288442	0.605061	0.824290
	H7	H	0.288697	0.409488	0.150461
	H8	H	0.838059	0.721134	0.389534
	H9	H	0.165460	0.722122	0.587194
	H10	H	0.838098	0.292692	0.586875
	H11	H	0.165607	0.290946	0.390213
	H12	H	0.839055	0.408976	0.702187
	H13	H	0.166271	0.605227	0.703026
	H14	H	0.838943	0.606651	0.272059
	H15	H	0.165804	0.406317	0.272134
	H16	H	0.404413	0.720781	0.824468
	H17	H	0.601486	0.722880	0.150715
	H18	H	0.601007	0.291546	0.824480
	H19	H	0.402666	0.292400	0.150387
	H20	H	0.715969	0.842326	0.390215
	H21	H	0.717001	0.169190	0.587065
	H22	H	0.288303	0.843134	0.585228
	H23	H	0.286333	0.169993	0.389867
	H24	H	0.902498	0.343235	0.203248
	H25	H	0.102025	0.669613	0.203154
	H26	H	0.100927	0.342749	0.774059
	H27	H	0.903719	0.669365	0.772590
	H28	H	0.216307	0.907651	0.325434
	H29	H	0.215850	0.104366	0.651811
	H30	H	0.785037	0.105944	0.325817
	H31	H	0.786632	0.907336	0.651373
	H32	H	0.337976	0.220768	0.890403
	H33	H	0.664918	0.222154	0.087158
	H34	H	0.338004	0.792969	0.084905
	H35	H	0.665255	0.791674	0.887979
	H36	H	0.337817	0.906517	0.203331
	H37	H	0.664852	0.106997	0.204589
	H38	H	0.338516	0.106453	0.772934
	H39	H	0.665023	0.908949	0.773227
	H40	H	0.900466	0.223052	0.325966
	H41	H	0.099672	0.220738	0.651885
	H42	H	0.101613	0.790478	0.325339
	H43	H	0.902248	0.790696	0.650912
	H44	H	0.217996	0.343117	0.889146
	H45	H	0.217583	0.670252	0.085713
	H46	H	0.786390	0.343028	0.086124
	H47	H	0.787094	0.669417	0.887441
	H48	H	0.400516	0.126148	0.583635
	H49	H	0.589742	0.893550	0.575191
	H50	H	0.597820	0.121332	0.400738
	H51	H	0.398458	0.889787	0.401453
	H52	H	0.580944	0.404623	0.102284
	H53	H	0.587905	0.596377	0.876031
	H54	H	0.402167	0.601097	0.106272
	H55	H	0.415042	0.417993	0.873767
	H56	H	0.117033	0.597896	0.398194
	H57	H	0.886083	0.591813	0.590612
	H58	H	0.120341	0.402380	0.575143
	H59	H	0.887151	0.411516	0.399120
	H60	H	0.114219	0.422796	0.575598
	H61	H	0.883040	0.610017	0.581316
	H62	H	0.117522	0.597172	0.394024
	H63	H	0.888543	0.418713	0.396346
	H64	H	0.412109	0.594053	0.101047
	H65	H	0.593966	0.608638	0.870199
	H66	H	0.608736	0.409410	0.108498
	H67	H	0.410974	0.404944	0.869416
	H68	H	0.595733	0.123834	0.391097
	H69	H	0.601546	0.888647	0.579854
	H70	H	0.414024	0.122871	0.587079
	H71	H	0.408645	0.887109	0.382372
	H72	H	0.913778	0.621049	0.081690
	H73	H	0.089594	0.393706	0.077281
	H74	H	0.092797	0.620857	0.899264
	H75	H	0.910532	0.392616	0.899578
	H76	H	0.089637	0.907579	0.604525
	H77	H	0.090559	0.101045	0.372538
	H78	H	0.908825	0.091873	0.601719
	H79	H	0.910336	0.919098	0.375349
	H80	H	0.619770	0.100048	0.890327
	H81	H	0.382276	0.107419	0.081783
	H82	H	0.617902	0.913466	0.082658
	H83	H	0.388207	0.919747	0.897821
	H84	H	0.616722	0.914922	0.078006
	H85	H	0.389023	0.097842	0.073997
	H86	H	0.617826	0.104408	0.898658
	H87	H	0.384314	0.915546	0.887246
	H88	H	0.915600	0.104609	0.603743
	H89	H	0.096391	0.101489	0.371521
	H90	H	0.102474	0.912830	0.606180
	H91	H	0.913745	0.911103	0.373397
	H92	H	0.101347	0.624132	0.895097
	H93	H	0.101215	0.389960	0.076913
	H94	H	0.909576	0.620796	0.076947
	H95	H	0.904229	0.387534	0.893257
	H96	H	0.409703	0.120872	0.573099
	H97	H	0.590484	0.889128	0.588944
	H98	H	0.588601	0.119974	0.396696
	H99	H	0.419970	0.895897	0.399509
	H100	H	0.593144	0.430019	0.097697
	H101	H	0.602213	0.596278	0.871029
	H102	H	0.414409	0.607204	0.103974
	H103	H	0.401676	0.416009	0.870046
	H104	H	0.118154	0.601403	0.395395
	H105	H	0.891448	0.594399	0.571031
	H106	H	0.121609	0.413315	0.593506
	H107	H	0.885771	0.413869	0.391227
	H108	H	0.907879	0.623187	0.082405
	H109	H	0.095076	0.389226	0.087117
	H110	H	0.093519	0.623464	0.889293
	H111	H	0.913349	0.389725	0.890018
	H112	H	0.092531	0.920679	0.601166
	H113	H	0.094160	0.096323	0.374067
	H114	H	0.901877	0.102838	0.607010
	H115	H	0.904982	0.913094	0.370989
	H116	H	0.616262	0.094812	0.897451
	H117	H	0.385129	0.094318	0.086713
	H118	H	0.616923	0.918358	0.081311
	H119	H	0.384591	0.908068	0.897815
	C120	C	0.379868	0.015327	0.609724
	C121	C	0.622922	0.998219	0.609869
	C122	C	0.623256	0.014110	0.366806
	C123	C	0.379731	0.998836	0.366185
	C124	C	0.623331	0.385496	-0.004481
	C125	C	0.624247	0.629263	0.979914
	C126	C	0.381102	0.628747	-0.004434
	C127	C	0.380508	0.385158	0.979144
	C128	C	0.009883	0.627940	0.366571
	C129	C	0.994584	0.627916	0.609889
	C130	C	0.010563	0.384577	0.609946
	C131	C	0.994365	0.384977	0.366403
	C132	C	0.881055	0.514244	0.109183
	C133	C	0.124397	0.498491	0.109471
	C134	C	0.124325	0.514927	0.866489
	C135	C	0.881171	0.497918	0.865949
	C136	C	0.123709	0.884538	0.496579
	C137	C	0.122868	0.128203	0.480266
	C138	C	0.879623	0.128449	0.496615
	C139	C	0.880468	0.885178	0.480483
	C140	C	0.510041	0.128561	0.866808
	C141	C	0.493315	0.128879	0.109973
	C142	C	0.509381	0.886162	0.109333
	C143	C	0.493729	0.885678	0.865930
	C144	C	0.382338	0.892515	0.664640
	C145	C	0.620742	0.121416	0.664666
	C146	C	0.621255	0.891829	0.310617
	C147	C	0.381652	0.121563	0.311111
	C148	C	0.678186	0.388302	0.872930
	C149	C	0.679925	0.626486	0.102443
	C150	C	0.326209	0.625736	0.873099
	C151	C	0.325703	0.387938	0.101790
	C152	C	0.887022	0.683495	0.368913
	C153	C	0.116850	0.684078	0.608057
	C154	C	0.887305	0.330339	0.606983
	C155	C	0.116940	0.329001	0.368959
	C156	C	0.887608	0.387875	0.664400
	C157	C	0.117301	0.625910	0.665410
	C158	C	0.887432	0.626612	0.310352
	C159	C	0.116940	0.386139	0.310218
	C160	C	0.383921	0.683340	0.873252
	C161	C	0.622215	0.684656	0.102283
	C162	C	0.621026	0.329934	0.873163
	C163	C	0.382645	0.330136	0.101690
	C164	C	0.678503	0.891432	0.369147
	C165	C	0.678316	0.120870	0.607222
	C166	C	0.325410	0.892075	0.606371
	C167	C	0.324370	0.121541	0.369165
	C168	C	0.882606	0.391685	0.164903
	C169	C	0.122691	0.620992	0.165310
	C170	C	0.121764	0.391663	0.811694
	C171	C	0.883561	0.620803	0.810813
	C172	C	0.178878	0.886856	0.374079
	C173	C	0.178083	0.125336	0.603142
	C174	C	0.823593	0.126236	0.374244
	C175	C	0.824500	0.886891	0.602628
	C176	C	0.386794	0.183062	0.869770
	C177	C	0.616334	0.184140	0.107899
	C178	C	0.386497	0.830777	0.106035
	C179	C	0.616325	0.830101	0.868242
	C180	C	0.386477	0.887512	0.164486
	C181	C	0.616083	0.127065	0.166308
	C182	C	0.387206	0.126297	0.811410
	C183	C	0.616281	0.887981	0.810821
	C184	C	0.880865	0.184556	0.374507
	C185	C	0.120364	0.183101	0.603122
	C186	C	0.121660	0.828621	0.374173
	C187	C	0.882032	0.829020	0.602558
	C188	C	0.179590	0.391740	0.869026
	C189	C	0.179400	0.621429	0.106457
	C190	C	0.824928	0.391538	0.106819
	C191	C	0.825349	0.620637	0.867659
	C192	C	0.401642	0.101188	0.587827
	C193	C	0.600482	0.912644	0.587873
	C194	C	0.600805	0.099634	0.389552
	C195	C	0.402327	0.913108	0.388090
	C196	C	0.601011	0.408204	0.080815
	C197	C	0.601577	0.606997	0.894407
	C198	C	0.403146	0.607161	0.081606
	C199	C	0.402527	0.406757	0.893321
	C200	C	0.095422	0.605402	0.389160
	C201	C	0.908858	0.605447	0.587672
	C202	C	0.096551	0.406472	0.587864
	C203	C	0.909116	0.408144	0.388876
	C204	C	0.903589	0.599622	0.086861
	C205	C	0.101756	0.413048	0.087171
	C206	C	0.102308	0.600609	0.888305
	C207	C	0.902914	0.412160	0.887930
	C208	C	0.101350	0.907038	0.581850
	C209	C	0.100424	0.106062	0.394887
	C210	C	0.901948	0.106226	0.582045
	C211	C	0.903018	0.907746	0.395284
	C212	C	0.595877	0.106395	0.888836
	C213	C	0.407863	0.106402	0.087466
	C214	C	0.594938	0.908861	0.087264
	C215	C	0.407798	0.907794	0.887895
	Zn216	Zn	0.501737	0.007094	0.737885
	Zn217	Zn	0.501155	0.006961	0.238116
	Zn218	Zn	0.752352	0.506454	-0.012706
	Zn219	Zn	0.252634	0.506676	-0.012588
	Zn220	Zn	0.002106	0.756567	0.488448
	Zn221	Zn	0.001835	0.256532	0.488329
	Zn222	Zn	0.002704	0.506147	0.738234
	Zn223	Zn	0.002407	0.506731	0.237851
	Zn224	Zn	0.501842	0.757888	-0.012051
	Zn225	Zn	0.501576	0.256980	-0.011857
	Zn226	Zn	0.751642	0.005892	0.488682
	Zn227	Zn	0.251651	0.006726	0.488096
	N228	N	0.415477	0.970094	0.666849
	N229	N	0.586874	0.044103	0.666413
	N230	N	0.587680	0.969255	0.308898
	N231	N	0.415190	0.044261	0.309229
	N232	N	0.679807	0.422001	0.949973
	N233	N	0.681328	0.592843	0.025185
	N234	N	0.324500	0.592297	0.950226
	N235	N	0.324398	0.421420	0.024657
	N236	N	0.964262	0.684482	0.403257
	N237	N	0.039729	0.685115	0.574203
	N238	N	0.964882	0.328306	0.573755
	N239	N	0.039863	0.328094	0.402929
	N240	N	0.965169	0.421269	0.666089
	N241	N	0.039981	0.591536	0.666616
	N242	N	0.964811	0.592965	0.308862
	N243	N	0.039675	0.420489	0.308781
	N244	N	0.417131	0.685309	0.950691
	N245	N	0.588377	0.686409	0.025193
	N246	N	0.587632	0.328114	0.950491
	N247	N	0.415965	0.328233	0.024353
	N248	N	0.679725	0.968454	0.403293
	N249	N	0.679832	0.043601	0.573915
	N250	N	0.323937	0.969305	0.572784
	N251	N	0.322918	0.044188	0.402583
	N252	N	0.916456	0.468923	0.166633
	N253	N	0.089199	0.543621	0.167162
	N254	N	0.087974	0.468951	0.810005
	N255	N	0.917461	0.543614	0.809474
	N256	N	0.180218	0.921028	0.450984
	N257	N	0.179542	0.091657	0.525888
	N258	N	0.822442	0.092293	0.451111
	N259	N	0.823701	0.921299	0.525887
	N260	N	0.464140	0.184708	0.903602
	N261	N	0.539162	0.185399	0.073730
	N262	N	0.463935	0.829672	0.072550
	N263	N	0.539045	0.828936	0.902128
	N264	N	0.463818	0.921454	0.166561
	N265	N	0.538639	0.093156	0.167592
	N266	N	0.464758	0.092745	0.809694
	N267	N	0.539070	0.921935	0.809465
	N268	N	0.914975	0.185971	0.451612
	N269	N	0.086739	0.184819	0.525796
	N270	N	0.087978	0.827320	0.451329
	N271	N	0.916189	0.827773	0.525620
	N272	N	0.181343	0.469339	0.902203
	N273	N	0.181003	0.544166	0.072734
	N274	N	0.823754	0.468700	0.072852
	N275	N	0.823826	0.543358	0.901525
	O276	O	1.998881	-0.021930	1.055528
	H277	H	1.999726	-0.019481	1.054016
	H278	H	1.993153	-0.026499	1.049782
	O279	O	0.023309	-0.034917	-0.014732
	H280	H	0.010325	-0.039009	-0.020744
	H281	H	0.024681	-0.039492	-0.012711
	O282	O	-0.024428	-0.013440	1.004913
	H283	H	-0.020634	-0.009053	1.014810
	H284	H	-0.022020	-0.002836	1.003508
	O285	O	0.489909	0.423657	0.314171
	H286	H	0.493363	0.425861	0.300990
	H287	H	0.491867	0.427904	0.310418
	O288	O	0.500896	0.475607	0.356749
	H289	H	0.502116	0.481130	0.356599
	H290	H	0.498648	0.483818	0.367937
	O291	O	-0.002771	0.987609	0.997644
	H292	H	-0.008463	0.988168	0.990545
	H293	H	-0.007957	0.982767	0.999796
	O294	O	-0.052664	-0.074159	0.035840
	H295	H	-0.063735	-0.081649	0.034206
	H296	H	-0.047247	-0.069726	0.034191
	O297	O	-0.058811	-0.022110	1.069777
	H298	H	-0.056562	-0.017673	1.066357
	H299	H	-0.057694	-0.026503	1.071117
	O300	O	0.004319	0.954553	1.024761
	H301	H	0.003277	0.953431	1.027758
	H302	H	-0.004241	0.961610	1.020614
	O303	O	0.509069	0.533971	0.415707
	H304	H	0.501804	0.533146	0.420519
	H305	H	0.511751	0.525277	0.413487
	O306	O	-0.011642	0.011390	1.063657
	H307	H	-0.007847	0.003565	1.070959
	H308	H	-0.002123	0.014123	1.065098
	O309	O	1.029312	1.032587	1.045128
	H310	H	1.033595	1.037425	1.051630
	H311	H	1.035174	1.033776	1.045591
	O312	O	0.500677	0.475706	0.447176
	H313	H	0.493525	0.478193	0.435489
	H314	H	0.498036	0.469186	0.452932
	O315	O	0.528121	0.462356	0.407077
	H316	H	0.525077	0.451836	0.401680
	H317	H	0.537930	0.457617	0.407114
	O318	O	-0.037141	0.952707	0.048539
	H319	H	-0.036615	0.945008	0.056757
	H320	H	-0.048192	0.945721	0.047272
	O321	O	0.969377	0.982308	-0.005173
	H322	H	0.967347	0.984164	-0.002898
	H323	H	0.961644	0.975003	0.001864
