data_Molecule from HDF5

_cell_length_a		16.558822
_cell_length_b		16.502592
_cell_length_c		16.606688
_cell_angle_alpha	90.012308
_cell_angle_beta	90.020955
_cell_angle_gamma	90.048200
_symmetry_space_group_name_H-M	'P 1'
_symmetry_Int_Tables_number		1

loop_
	_symmetry_equiv_pos_as_xyz
	x,y,z

loop_
	_atom_site_label
	_atom_site_type_symbol
	_atom_site_fract_x
	_atom_site_fract_y
	_atom_site_fract_z
	H0	H	0.385547	0.857053	0.715482
	H1	H	0.591548	0.171492	0.716497
	H2	H	0.592881	0.856728	0.276103
	H3	H	0.381658	0.170887	0.273824
	H4	H	0.710250	0.410230	0.840695
	H5	H	0.711226	0.618156	0.153885
	H6	H	0.267232	0.619273	0.842202
	H7	H	0.264980	0.404118	0.151836
	H8	H	0.831529	0.732900	0.391813
	H9	H	0.145919	0.734934	0.598948
	H10	H	0.831883	0.295847	0.598734
	H11	H	0.146080	0.291383	0.391783
	H12	H	0.833628	0.408168	0.718167
	H13	H	0.146165	0.619295	0.716472
	H14	H	0.832713	0.616252	0.276450
	H15	H	0.146143	0.407019	0.274946
	H16	H	0.385602	0.735223	0.842119
	H17	H	0.595605	0.735445	0.153858
	H18	H	0.591780	0.294662	0.839451
	H19	H	0.383626	0.290370	0.153228
	H20	H	0.706498	0.855202	0.394282
	H21	H	0.707774	0.171693	0.600142
	H22	H	0.267484	0.858386	0.600206
	H23	H	0.266910	0.171885	0.391297
	H24	H	0.886324	0.356577	0.216951
	H25	H	0.099814	0.669280	0.221826
	H26	H	0.096504	0.357227	0.773216
	H27	H	0.884537	0.670210	0.774291
	H28	H	0.212931	0.907273	0.341725
	H29	H	0.212308	0.123379	0.651689
	H30	H	0.765884	0.119873	0.341199
	H31	H	0.769397	0.911009	0.653750
	H32	H	0.332905	0.235374	0.891847
	H33	H	0.645993	0.234113	0.101123
	H34	H	0.332435	0.790406	0.102510
	H35	H	0.646497	0.794888	0.894679
	H36	H	0.331615	0.907521	0.218614
	H37	H	0.644623	0.119681	0.219585
	H38	H	0.332609	0.118562	0.775597
	H39	H	0.644925	0.909238	0.776157
	H40	H	0.882386	0.237568	0.340844
	H41	H	0.092899	0.235546	0.653372
	H42	H	0.095259	0.791977	0.340852
	H43	H	0.885847	0.794315	0.653243
	H44	H	0.211672	0.356571	0.890309
	H45	H	0.214226	0.669309	0.104179
	H46	H	0.770977	0.356683	0.099489
	H47	H	0.769567	0.671181	0.892090
	H48	H	0.392887	0.129887	0.583600
	H49	H	0.576824	0.898421	0.595097
	H50	H	0.578042	0.125342	0.409338
	H51	H	0.402342	0.904293	0.412244
	H52	H	0.574230	0.419533	0.108800
	H53	H	0.579510	0.603950	0.885252
	H54	H	0.402604	0.603564	0.109300
	H55	H	0.404722	0.419878	0.885773
	H56	H	0.099662	0.599848	0.409736
	H57	H	0.876802	0.603631	0.586270
	H58	H	0.100688	0.429209	0.586438
	H59	H	0.881598	0.429295	0.412928
	H60	H	0.103913	0.422610	0.588437
	H61	H	0.877504	0.602737	0.584651
	H62	H	0.103603	0.603064	0.403525
	H63	H	0.877418	0.429603	0.401718
	H64	H	0.398839	0.598512	0.109161
	H65	H	0.580086	0.605962	0.884253
	H66	H	0.586128	0.421703	0.112195
	H67	H	0.395008	0.425740	0.884092
	H68	H	0.577629	0.127124	0.406450
	H69	H	0.573557	0.903423	0.582349
	H70	H	0.401716	0.129978	0.593676
	H71	H	0.396324	0.902086	0.408959
	H72	H	0.897481	0.628883	0.087616
	H73	H	0.075208	0.403504	0.083555
	H74	H	0.071383	0.623646	0.906141
	H75	H	0.899419	0.400420	0.905125
	H76	H	0.077467	0.927060	0.606812
	H77	H	0.078149	0.099861	0.385904
	H78	H	0.903555	0.098390	0.604811
	H79	H	0.902920	0.920124	0.384563
	H80	H	0.601401	0.097971	0.902175
	H81	H	0.377406	0.101871	0.084247
	H82	H	0.598282	0.928592	0.086213
	H83	H	0.377730	0.925279	0.911703
	H84	H	0.602057	0.925106	0.091126
	H85	H	0.377443	0.100944	0.084849
	H86	H	0.603589	0.109309	0.904962
	H87	H	0.376972	0.927837	0.903975
	H88	H	0.901910	0.111789	0.610424
	H89	H	0.074498	0.101562	0.387072
	H90	H	0.075552	0.924655	0.607678
	H91	H	0.891134	0.920276	0.380415
	H92	H	0.081371	0.623815	0.914502
	H93	H	0.078783	0.402028	0.084262
	H94	H	0.902695	0.627417	0.090310
	H95	H	0.901830	0.401873	0.907050
	H96	H	0.405290	0.124007	0.582056
	H97	H	0.586220	0.898332	0.584924
	H98	H	0.575051	0.125727	0.408037
	H99	H	0.402582	0.902694	0.405134
	H100	H	0.579109	0.431017	0.106647
	H101	H	0.581439	0.604399	0.885229
	H102	H	0.405221	0.598422	0.106828
	H103	H	0.403704	0.430945	0.889234
	H104	H	0.102472	0.607400	0.410404
	H105	H	0.876647	0.601516	0.586325
	H106	H	0.101186	0.423229	0.581885
	H107	H	0.876283	0.419649	0.408411
	H108	H	0.901970	0.626218	0.084697
	H109	H	0.075970	0.402121	0.086888
	H110	H	0.082973	0.628802	0.902378
	H111	H	0.899159	0.400846	0.908277
	H112	H	0.078430	0.924894	0.607899
	H113	H	0.077376	0.103800	0.385515
	H114	H	0.890550	0.102407	0.610141
	H115	H	0.895986	0.930315	0.385802
	H116	H	0.599654	0.101720	0.912679
	H117	H	0.377158	0.101354	0.085297
	H118	H	0.600303	0.922385	0.084857
	H119	H	0.374122	0.920210	0.906137
	C120	C	0.367946	0.023634	0.617704
	C121	C	0.610008	1.004956	0.618537
	C122	C	0.609146	0.022454	0.375838
	C123	C	0.367205	1.006258	0.375675
	C124	C	0.611183	0.392661	0.005394
	C125	C	0.612078	0.636121	0.988857
	C126	C	0.369223	0.633550	0.005786
	C127	C	0.367659	0.391382	0.988635
	C128	C	-0.001720	0.635040	0.375112
	C129	C	0.980757	0.634944	0.617371
	C130	C	-0.001529	0.392972	0.617773
	C131	C	0.981430	0.392566	0.375161
	C132	C	0.869273	0.522878	0.118390
	C133	C	0.111066	0.505535	0.118153
	C134	C	0.111279	0.521772	0.875054
	C135	C	0.868861	0.505165	0.875268
	C136	C	0.110063	0.893162	0.504682
	C137	C	0.109266	0.135336	0.488996
	C138	C	0.866333	0.136441	0.505144
	C139	C	0.866485	0.892394	0.487668
	C140	C	0.497816	0.134972	0.875283
	C141	C	0.480381	0.134691	0.117959
	C142	C	0.496704	0.892374	0.119083
	C143	C	0.480286	0.892648	0.876320
	C144	C	0.366457	0.904370	0.676159
	C145	C	0.610845	0.124063	0.677008
	C146	C	0.610698	0.903617	0.316514
	C147	C	0.363749	0.124180	0.314680
	C148	C	0.670146	0.391562	0.887373
	C149	C	0.671494	0.637582	0.106717
	C150	C	0.307994	0.637234	0.888887
	C151	C	0.306283	0.387448	0.105659
	C152	C	0.879278	0.693689	0.373146
	C153	C	0.098849	0.694931	0.618305
	C154	C	0.879629	0.334514	0.618293
	C155	C	0.099216	0.331786	0.373192
	C156	C	0.880542	0.390559	0.677572
	C157	C	0.098924	0.637380	0.676678
	C158	C	0.879942	0.635947	0.315425
	C159	C	0.099342	0.389226	0.315125
	C160	C	0.366542	0.694780	0.888710
	C161	C	0.613851	0.695662	0.106841
	C162	C	0.611522	0.334138	0.886834
	C163	C	0.365036	0.330459	0.106041
	C164	C	0.667453	0.903182	0.375085
	C165	C	0.668375	0.124198	0.619124
	C166	C	0.307965	0.905119	0.618968
	C167	C	0.306628	0.124532	0.373010
	C168	C	0.867590	0.404034	0.177122
	C169	C	0.116571	0.622383	0.180532
	C170	C	0.114369	0.404030	0.813971
	C171	C	0.866312	0.623216	0.814783
	C172	C	0.171920	0.889841	0.388242
	C173	C	0.170812	0.139966	0.605385
	C174	C	0.805973	0.138710	0.387799
	C175	C	0.808520	0.891781	0.606327
	C176	C	0.379738	0.195224	0.873308
	C177	C	0.598576	0.194606	0.120295
	C178	C	0.379190	0.830865	0.121286
	C179	C	0.599015	0.834022	0.875304
	C180	C	0.378725	0.889291	0.178700
	C181	C	0.597984	0.137654	0.178962
	C182	C	0.379580	0.137291	0.815527
	C183	C	0.598136	0.890530	0.816308
	C184	C	0.864019	0.196855	0.387631
	C185	C	0.111420	0.195840	0.606245
	C186	C	0.113227	0.832511	0.387647
	C187	C	0.866347	0.833689	0.606081
	C188	C	0.171663	0.403827	0.872236
	C189	C	0.173247	0.622666	0.121748
	C190	C	0.810164	0.404075	0.118995
	C191	C	0.809466	0.623829	0.873416
	C192	C	0.392786	0.106243	0.593407
	C193	C	0.585773	0.921709	0.594483
	C194	C	0.584086	0.104712	0.400679
	C195	C	0.393090	0.924443	0.401319
	C196	C	0.586738	0.417047	0.087786
	C197	C	0.587433	0.611674	0.906384
	C198	C	0.395014	0.607588	0.087242
	C199	C	0.393552	0.417797	0.907470
	C200	C	0.080336	0.610519	0.400351
	C201	C	0.898408	0.609790	0.592703
	C202	C	0.080823	0.417842	0.592741
	C203	C	0.899676	0.418704	0.400392
	C204	C	0.893712	0.605899	0.094487
	C205	C	0.084183	0.423842	0.092158
	C206	C	0.085846	0.603947	0.900393
	C207	C	0.893434	0.422526	0.899805
	C208	C	0.084295	0.918531	0.586318
	C209	C	0.083924	0.109089	0.407165
	C210	C	0.891397	0.111451	0.587010
	C211	C	0.890030	0.916556	0.405031
	C212	C	0.580035	0.110092	0.899824
	C213	C	0.398596	0.108859	0.092168
	C214	C	0.578960	0.917897	0.094552
	C215	C	0.397793	0.917097	0.900517
	Zn216	Zn	0.488673	0.013752	0.746848
	Zn217	Zn	0.487884	0.014441	0.247193
	Zn218	Zn	0.740509	0.514446	-0.002841
	Zn219	Zn	0.239363	0.513000	-0.002788
	Zn220	Zn	-0.011701	0.763781	0.495815
	Zn221	Zn	-0.010501	0.264826	0.496300
	Zn222	Zn	-0.010157	0.513633	0.746780
	Zn223	Zn	-0.009542	0.513582	0.246767
	Zn224	Zn	0.489567	0.763986	-0.002078
	Zn225	Zn	0.489781	0.263207	-0.003313
	Zn226	Zn	0.737877	0.014055	0.496789
	Zn227	Zn	0.238793	0.015339	0.496953
	N228	N	0.402825	0.979037	0.675532
	N229	N	0.575471	0.048767	0.677069
	N230	N	0.575155	0.978752	0.316537
	N231	N	0.400523	0.049765	0.316011
	N232	N	0.670168	0.427022	0.962150
	N233	N	0.670614	0.601440	0.032161
	N234	N	0.309618	0.599971	0.962691
	N235	N	0.307591	0.424375	0.031629
	N236	N	0.953994	0.693680	0.409177
	N237	N	0.024229	0.693671	0.582214
	N238	N	0.954171	0.335621	0.581939
	N239	N	0.024941	0.333773	0.409637
	N240	N	0.955484	0.425949	0.677508
	N241	N	0.024300	0.601036	0.676480
	N242	N	0.954946	0.600473	0.316249
	N243	N	0.024972	0.426394	0.316185
	N244	N	0.403800	0.692755	0.962632
	N245	N	0.577699	0.695024	0.032393
	N246	N	0.575593	0.334571	0.961384
	N247	N	0.402454	0.332662	0.032234
	N248	N	0.666747	0.978029	0.411257
	N249	N	0.668076	0.049001	0.583583
	N250	N	0.308672	0.980205	0.583422
	N251	N	0.308414	0.050072	0.410072
	N252	N	0.903397	0.479017	0.176933
	N253	N	0.078555	0.548413	0.178381
	N254	N	0.077685	0.478630	0.815396
	N255	N	0.902450	0.548424	0.815741
	N256	N	0.169951	0.927019	0.462161
	N257	N	0.169226	0.102810	0.531538
	N258	N	0.807406	0.101772	0.461886
	N259	N	0.808413	0.927358	0.531617
	N260	N	0.454205	0.193874	0.909635
	N261	N	0.524406	0.193030	0.083232
	N262	N	0.453633	0.832747	0.084927
	N263	N	0.524636	0.835164	0.911864
	N264	N	0.452787	0.926699	0.177403
	N265	N	0.523489	0.101198	0.177652
	N266	N	0.453887	0.100571	0.816596
	N267	N	0.523299	0.926456	0.816713
	N268	N	0.900913	0.195622	0.461606
	N269	N	0.073480	0.193001	0.532668
	N270	N	0.075117	0.834646	0.461000
	N271	N	0.901457	0.833637	0.531189
	N272	N	0.169942	0.478077	0.909520
	N273	N	0.169970	0.548904	0.083668
	N274	N	0.811056	0.479116	0.083079
	N275	N	0.810728	0.549304	0.910340
	O276	O	1.332250	0.350469	-0.729171
	H277	H	1.307358	0.369800	-0.722038
	H278	H	1.324175	0.324165	-0.734201
	O279	O	0.071266	0.080937	1.032343
	H280	H	0.084338	0.083290	1.025575
	H281	H	0.066952	0.091173	1.041609
	O282	O	0.404457	0.627819	0.478848
	H283	H	0.418520	0.627471	0.487171
	H284	H	0.415873	0.629185	0.481702
	O285	O	0.202957	0.113453	0.976949
	H286	H	0.193684	0.094557	0.993081
	H287	H	0.221463	0.116837	0.981864
	O288	O	0.861583	-0.179989	0.867412
	H289	H	0.873062	-0.162038	0.872765
	H290	H	0.882184	-0.178741	0.878643
	O291	O	0.483824	0.310847	1.520306
	H292	H	0.483093	0.314937	1.519969
	H293	H	0.477885	0.306074	1.500714
	O294	O	-0.049513	0.228597	-0.220341
	H295	H	-0.040891	0.232842	-0.209388
	H296	H	-0.049753	0.243302	-0.238064
	O297	O	0.535525	0.593871	0.496231
	H298	H	0.544455	0.594545	0.493557
	H299	H	0.551209	0.601298	0.498689
	O300	O	0.160208	0.125550	-0.115591
	H301	H	0.151020	0.122721	-0.117609
	H302	H	0.162148	0.109592	-0.090462
	O303	O	-0.203353	-0.027112	-0.122259
	H304	H	-0.195383	-0.026911	-0.137929
	H305	H	-0.204059	-0.014845	-0.114668
	O306	O	1.115884	0.109409	0.190751
	H307	H	1.117327	0.122683	0.205584
	H308	H	1.099522	0.120662	0.190889
	O309	O	0.321751	0.705230	0.672871
	H310	H	0.326424	0.699225	0.656819
	H311	H	0.346786	0.682082	0.664595
	O312	O	0.286784	0.526806	0.284217
	H313	H	0.269624	0.539283	0.269378
	H314	H	0.288940	0.545778	0.287497
	O315	O	0.277658	0.471594	0.695782
	H316	H	0.263093	0.469276	0.703235
	H317	H	0.268681	0.452855	0.700923
	O318	O	1.295471	0.705220	0.301030
	H319	H	1.288522	0.713821	0.331257
	H320	H	1.321086	0.688102	0.312510
	O321	O	0.434136	0.458131	0.447656
	H322	H	0.440176	0.447414	0.439161
	H323	H	0.430687	0.441655	0.455999
	O324	O	1.181788	0.121761	1.187753
	H325	H	1.192503	0.123331	1.176748
	H326	H	1.156557	0.109778	1.187843
	O327	O	1.176839	0.805145	0.951797
	H328	H	1.191673	0.792570	0.958530
	H329	H	1.168923	0.798373	0.963199
	O330	O	0.642318	0.506968	0.547001
	H331	H	0.636935	0.500591	0.528193
	H332	H	0.642547	0.516451	0.549535
	O333	O	0.700708	0.306871	0.346598
	H334	H	0.732672	0.281977	0.324209
	H335	H	0.695763	0.331431	0.340617
	O336	O	0.452435	0.322584	0.391291
	H337	H	0.458971	0.325771	0.382980
	H338	H	0.446468	0.327298	0.376809
	O339	O	0.683506	0.630487	0.568104
	H340	H	0.667514	0.626908	0.585323
	H341	H	0.683378	0.649104	0.595300
	O342	O	-0.031822	1.028231	0.227977
	H343	H	-0.030151	1.010991	0.224857
	H344	H	-0.046283	1.017212	0.225720
	O345	O	-0.227618	0.230571	-0.031466
	H346	H	-0.232994	0.235360	-0.058951
	H347	H	-0.240159	0.247516	-0.052516
	O348	O	0.326583	0.337773	0.137812
	H349	H	0.314693	0.320139	0.129535
	H350	H	0.312823	0.347204	0.134388
	O351	O	-0.030069	-0.084352	0.923370
	H352	H	-0.021355	-0.090965	0.933587
	H353	H	-0.049493	-0.079559	0.920549
	O354	O	0.954084	-0.046348	1.002571
	H355	H	0.957176	-0.049340	1.010197
	H356	H	0.960858	-0.037164	1.000666
	O357	O	0.564340	0.468636	0.692152
	H358	H	0.594704	0.469265	0.704768
	H359	H	0.565582	0.442369	0.688338
	O360	O	0.553443	0.563587	0.336264
	H361	H	0.539303	0.559585	0.332545
	H362	H	0.545074	0.563188	0.336881
	O363	O	0.905606	0.823285	0.205845
	H364	H	0.895446	0.833637	0.190434
	H365	H	0.888254	0.801871	0.231537
	O366	O	0.990768	0.222739	1.140097
	H367	H	0.979514	0.209078	1.125623
	H368	H	0.983359	0.227448	1.147878
	O369	O	0.034832	0.040066	0.875429
	H370	H	0.030119	0.026144	0.880065
	H371	H	0.031259	0.030093	0.868450
	O372	O	0.187681	0.906816	1.029457
	H373	H	0.196700	0.902697	1.034371
	H374	H	0.189258	0.908188	1.020770
	O375	O	0.789035	0.036228	0.012948
	H376	H	0.787872	0.033112	0.001592
	H377	H	0.787971	0.049855	0.005318
	O378	O	0.409081	0.574126	0.716249
	H379	H	0.422877	0.544620	0.713828
	H380	H	0.405210	0.551151	0.723502
	O381	O	-0.259581	0.761078	-0.253853
	H382	H	-0.247644	0.774433	-0.232003
	H383	H	-0.282275	0.773259	-0.242666
	O384	O	0.775711	0.797363	0.213633
	H385	H	0.786707	0.816940	0.223840
	H386	H	0.766862	0.785841	0.195268
	O387	O	0.207226	0.985671	0.776452
	H388	H	0.191124	0.968716	0.776021
	H389	H	0.233047	0.970421	0.748468
	O390	O	0.583407	0.308153	0.291503
	H391	H	0.561057	0.299946	0.282736
	H392	H	0.601806	0.298866	0.291823
	O393	O	0.831485	0.037687	-0.215283
	H394	H	0.830234	0.035214	-0.215147
	H395	H	0.829447	0.045246	-0.221403
	O396	O	0.710426	0.727623	0.531291
	H397	H	0.736888	0.757022	0.537559
	H398	H	0.706401	0.726167	0.573965
	O399	O	0.210333	0.794128	0.775429
	H400	H	0.220065	0.799917	0.793438
	H401	H	0.227377	0.770704	0.759126
	O402	O	0.777709	-0.198722	1.030089
	H403	H	0.757734	-0.211901	1.019182
	H404	H	0.785632	-0.195463	1.045690
	O405	O	0.698424	0.483522	0.289337
	H406	H	0.713486	0.487419	0.290781
	H407	H	0.703204	0.469572	0.289247
	O408	O	0.773685	0.994462	1.190911
	H409	H	0.784519	0.997215	1.174590
	H410	H	0.749090	0.998612	1.192885
	O411	O	1.149019	1.180178	-0.060266
	H412	H	1.158622	1.158361	-0.074858
	H413	H	1.164287	1.197405	-0.063623
	O414	O	0.011778	-0.072584	-0.192111
	H415	H	0.016859	-0.081828	-0.186188
	H416	H	0.019882	-0.087220	-0.208053
	O417	O	0.552301	0.495072	0.363191
	H418	H	0.557630	0.493963	0.361141
	H419	H	0.566167	0.475968	0.367839
	O420	O	0.779288	0.220300	0.791425
	H421	H	0.807468	0.207905	0.785545
	H422	H	0.752035	0.247228	0.760180
	O423	O	0.804341	1.194836	0.177501
	H424	H	0.814576	1.187523	0.154071
	H425	H	0.822063	1.176380	0.162886
	O426	O	0.475293	0.310506	0.702227
	H427	H	0.440843	0.298518	0.705999
	H428	H	0.470623	0.293778	0.689601
	O429	O	0.466028	0.720368	0.283972
	H430	H	0.456543	0.710847	0.277543
	H431	H	0.472656	0.730379	0.263699
	O432	O	0.946638	-0.158402	1.020770
	H433	H	0.945888	-0.148436	1.029428
	H434	H	0.949048	-0.160135	1.011568
	O435	O	0.631083	0.656648	0.424540
	H436	H	0.644638	0.661658	0.415826
	H437	H	0.630761	0.665521	0.419504
	O438	O	0.706032	0.535818	0.711251
	H439	H	0.715161	0.562349	0.714263
	H440	H	0.726070	0.542034	0.713720
	O441	O	0.916431	0.099532	0.072062
	H442	H	0.925661	0.087130	0.056680
	H443	H	0.912502	0.110925	0.065171
	O444	O	0.646703	0.309235	0.482837
	H445	H	0.665435	0.296808	0.470841
	H446	H	0.641901	0.301384	0.454326
	O447	O	0.530328	0.716088	0.703214
	H448	H	0.516083	0.723607	0.702779
	H449	H	0.505063	0.702029	0.704866
	O450	O	1.213551	-0.212624	0.292228
	H451	H	1.233443	-0.218104	0.316364
	H452	H	1.189840	-0.198411	0.288236
	O453	O	0.429872	0.676538	0.498332
	H454	H	0.442340	0.678860	0.492186
	H455	H	0.457174	0.680290	0.496618
	O456	O	0.020982	0.902370	1.215718
	H457	H	0.019406	0.886677	1.230244
	H458	H	0.008018	0.904701	1.210820
	O459	O	0.674545	0.329761	0.678360
	H460	H	0.662487	0.353915	0.664949
	H461	H	0.651799	0.335723	0.651591
	O462	O	1.281381	0.556703	0.485097
	H463	H	1.276758	0.547271	0.481170
	H464	H	1.293120	0.570391	0.485047
	O465	O	0.306160	0.319327	0.694133
	H466	H	0.298986	0.308465	0.659730
	H467	H	0.284541	0.318939	0.710085
	O468	O	0.026609	0.863614	-0.157816
	H469	H	0.032951	0.844093	-0.154483
	H470	H	0.046612	0.861823	-0.159210
	O471	O	0.289731	0.555737	0.509821
	H472	H	0.300640	0.550772	0.513528
	H473	H	0.288460	0.533511	0.527591
	O474	O	1.023816	1.214624	-0.039665
	H475	H	1.039586	1.214375	-0.038324
	H476	H	1.024605	1.213861	-0.041556
	O477	O	0.309340	0.311992	1.506518
	H478	H	0.316114	0.312852	1.481448
	H479	H	0.310075	0.310895	1.496969
