data_Molecule from HDF5

_cell_length_a		16.439877
_cell_length_b		16.505236
_cell_length_c		16.322101
_cell_angle_alpha	90.186300
_cell_angle_beta	89.808929
_cell_angle_gamma	89.836084
_symmetry_space_group_name_H-M	'P 1'
_symmetry_Int_Tables_number		1

loop_
	_symmetry_equiv_pos_as_xyz
	x,y,z

loop_
	_atom_site_label
	_atom_site_type_symbol
	_atom_site_fract_x
	_atom_site_fract_y
	_atom_site_fract_z
	H0	H	0.396007	0.845723	0.719501
	H1	H	0.604072	0.162234	0.721181
	H2	H	0.609528	0.846762	0.275708
	H3	H	0.396776	0.162511	0.281998
	H4	H	0.723167	0.396688	0.839138
	H5	H	0.723837	0.613494	0.155639
	H6	H	0.279700	0.612017	0.838657
	H7	H	0.279958	0.403733	0.157423
	H8	H	0.843320	0.730837	0.388119
	H9	H	0.157044	0.728292	0.605006
	H10	H	0.841869	0.282522	0.605918
	H11	H	0.156400	0.281881	0.389174
	H12	H	0.842354	0.397912	0.722017
	H13	H	0.158764	0.610019	0.718310
	H14	H	0.841524	0.611704	0.275744
	H15	H	0.159025	0.403660	0.278504
	H16	H	0.391880	0.729756	0.840445
	H17	H	0.608275	0.728255	0.155958
	H18	H	0.609901	0.278472	0.840541
	H19	H	0.394271	0.285444	0.157844
	H20	H	0.726492	0.848472	0.390827
	H21	H	0.722531	0.161876	0.607979
	H22	H	0.274663	0.848836	0.609547
	H23	H	0.278454	0.161070	0.395317
	H24	H	0.896250	0.346545	0.217926
	H25	H	0.104217	0.663676	0.218717
	H26	H	0.107499	0.348048	0.774389
	H27	H	0.893645	0.662753	0.776190
	H28	H	0.222662	0.899465	0.340335
	H29	H	0.219841	0.112389	0.658169
	H30	H	0.776807	0.111921	0.340183
	H31	H	0.778946	0.900149	0.658180
	H32	H	0.342508	0.226299	0.892533
	H33	H	0.657645	0.227661	0.106765
	H34	H	0.343297	0.782221	0.107708
	H35	H	0.656803	0.779732	0.889292
	H36	H	0.341723	0.899687	0.221725
	H37	H	0.658801	0.109368	0.221030
	H38	H	0.341322	0.107841	0.780436
	H39	H	0.657904	0.896925	0.775384
	H40	H	0.894133	0.225201	0.337730
	H41	H	0.104558	0.229190	0.656833
	H42	H	0.107685	0.783362	0.339341
	H43	H	0.890010	0.780313	0.655263
	H44	H	0.223943	0.348312	0.889467
	H45	H	0.222798	0.662722	0.104787
	H46	H	0.776304	0.348665	0.105755
	H47	H	0.776188	0.661666	0.891114
	H48	H	0.410468	0.117143	0.591688
	H49	H	0.590504	0.891425	0.588974
	H50	H	0.586351	0.114260	0.415715
	H51	H	0.410379	0.889320	0.409110
	H52	H	0.586699	0.419633	0.110090
	H53	H	0.582615	0.594392	0.885996
	H54	H	0.406875	0.588946	0.111046
	H55	H	0.412625	0.412491	0.882614
	H56	H	0.114778	0.603022	0.410908
	H57	H	0.889161	0.591001	0.584633
	H58	H	0.112982	0.411786	0.582993
	H59	H	0.884664	0.417877	0.405238
	H60	H	0.109076	0.418273	0.579107
	H61	H	0.887014	0.593813	0.586396
	H62	H	0.109147	0.589591	0.415026
	H63	H	0.883426	0.411494	0.405510
	H64	H	0.416948	0.592314	0.109152
	H65	H	0.590992	0.591817	0.884498
	H66	H	0.585358	0.413220	0.112247
	H67	H	0.410601	0.415012	0.883524
	H68	H	0.594400	0.117401	0.412500
	H69	H	0.587075	0.893384	0.585559
	H70	H	0.410273	0.117271	0.588299
	H71	H	0.414324	0.892165	0.412169
	H72	H	0.905494	0.618451	0.084324
	H73	H	0.092112	0.392362	0.085698
	H74	H	0.095402	0.617584	0.914548
	H75	H	0.913667	0.392326	0.905434
	H76	H	0.083642	0.924082	0.609145
	H77	H	0.094471	0.094349	0.382316
	H78	H	0.919281	0.102230	0.611538
	H79	H	0.916052	0.915525	0.385523
	H80	H	0.612409	0.091877	0.914279
	H81	H	0.385095	0.098614	0.092824
	H82	H	0.612193	0.916836	0.085014
	H83	H	0.387621	0.917842	0.911441
	H84	H	0.612936	0.916240	0.086730
	H85	H	0.387646	0.096363	0.086153
	H86	H	0.613353	0.090263	0.908972
	H87	H	0.387086	0.914993	0.910577
	H88	H	0.902712	0.097352	0.615215
	H89	H	0.087783	0.089003	0.386731
	H90	H	0.081152	0.911311	0.612233
	H91	H	0.910884	0.917538	0.384808
	H92	H	0.091950	0.621326	0.901386
	H93	H	0.089282	0.392625	0.087211
	H94	H	0.911767	0.618092	0.091031
	H95	H	0.916177	0.395517	0.912659
	H96	H	0.407744	0.117086	0.590162
	H97	H	0.592311	0.892050	0.584097
	H98	H	0.586867	0.117345	0.406739
	H99	H	0.409539	0.890764	0.414377
	H100	H	0.591896	0.415741	0.112661
	H101	H	0.585340	0.586540	0.887536
	H102	H	0.409469	0.598755	0.113617
	H103	H	0.413741	0.415514	0.883957
	H104	H	0.114197	0.591454	0.400957
	H105	H	0.887865	0.594120	0.582791
	H106	H	0.112191	0.419491	0.587146
	H107	H	0.886441	0.414088	0.410423
	H108	H	0.913919	0.615263	0.082227
	H109	H	0.089746	0.393339	0.083893
	H110	H	0.082285	0.615521	0.909780
	H111	H	0.908783	0.392145	0.911725
	H112	H	0.093394	0.916972	0.614144
	H113	H	0.085872	0.097951	0.384628
	H114	H	0.914038	0.085923	0.608227
	H115	H	0.914526	0.920285	0.387037
	H116	H	0.614113	0.095495	0.910093
	H117	H	0.386827	0.091452	0.092235
	H118	H	0.612756	0.915099	0.085093
	H119	H	0.387802	0.915568	0.913327
	C120	C	0.377196	0.013276	0.622451
	C121	C	0.621937	0.996432	0.620239
	C122	C	0.623261	0.013009	0.377312
	C123	C	0.379758	0.995248	0.379978
	C124	C	0.621691	0.382553	0.006670
	C125	C	0.620339	0.625241	0.989892
	C126	C	0.378317	0.626949	0.006679
	C127	C	0.379531	0.383749	0.989082
	C128	C	0.008353	0.627521	0.376230
	C129	C	0.991865	0.626182	0.618271
	C130	C	0.007865	0.383634	0.618033
	C131	C	0.990223	0.382998	0.374942
	C132	C	0.877694	0.513740	0.119141
	C133	C	0.121787	0.497195	0.118480
	C134	C	0.122626	0.514044	0.875289
	C135	C	0.879153	0.496919	0.876888
	C136	C	0.120243	0.884381	0.507030
	C137	C	0.120922	0.126863	0.490011
	C138	C	0.878405	0.127304	0.506767
	C139	C	0.879758	0.884523	0.490096
	C140	C	0.508799	0.124985	0.878448
	C141	C	0.491411	0.127078	0.122107
	C142	C	0.508884	0.883129	0.120387
	C143	C	0.491367	0.882490	0.877532
	C144	C	0.376025	0.893926	0.681310
	C145	C	0.622994	0.114939	0.681280
	C146	C	0.627154	0.894584	0.315744
	C147	C	0.378082	0.114684	0.321078
	C148	C	0.683160	0.378684	0.887214
	C149	C	0.682849	0.630347	0.108189
	C150	C	0.318619	0.630026	0.886698
	C151	C	0.319373	0.383810	0.109357
	C152	C	0.890195	0.689474	0.371895
	C153	C	0.110044	0.687525	0.622326
	C154	C	0.889272	0.322831	0.623137
	C155	C	0.109200	0.322894	0.371734
	C156	C	0.889597	0.380479	0.680986
	C157	C	0.110928	0.628553	0.678808
	C158	C	0.889231	0.630061	0.315821
	C159	C	0.110363	0.383111	0.316280
	C160	C	0.374959	0.688632	0.887862
	C161	C	0.625100	0.687676	0.108462
	C162	C	0.626746	0.319764	0.888020
	C163	C	0.376387	0.325190	0.109559
	C164	C	0.685588	0.895331	0.373101
	C165	C	0.681700	0.114872	0.624383
	C166	C	0.315628	0.895479	0.626213
	C167	C	0.319334	0.114017	0.377703
	C168	C	0.876496	0.394532	0.178863
	C169	C	0.123136	0.616124	0.179002
	C170	C	0.125389	0.395482	0.814603
	C171	C	0.875850	0.615371	0.816326
	C172	C	0.182035	0.881596	0.387872
	C173	C	0.180348	0.130275	0.609993
	C174	C	0.817008	0.129807	0.387572
	C175	C	0.818426	0.881698	0.609752
	C176	C	0.389876	0.185733	0.875494
	C177	C	0.610203	0.187109	0.124342
	C178	C	0.390480	0.822251	0.125125
	C179	C	0.609659	0.820591	0.872505
	C180	C	0.389667	0.880982	0.181879
	C181	C	0.610842	0.128545	0.181703
	C182	C	0.389326	0.126728	0.819315
	C183	C	0.610250	0.879055	0.815707
	C184	C	0.875636	0.186019	0.386225
	C185	C	0.122871	0.188534	0.609266
	C186	C	0.124868	0.823464	0.387448
	C187	C	0.873865	0.821968	0.608464
	C188	C	0.183609	0.395743	0.871864
	C189	C	0.181847	0.615692	0.121892
	C190	C	0.816757	0.395583	0.123095
	C191	C	0.817334	0.614798	0.873698
	C192	C	0.402317	0.095675	0.597313
	C193	C	0.597000	0.913660	0.593768
	C194	C	0.596795	0.095085	0.403966
	C195	C	0.404443	0.912548	0.404629
	C196	C	0.595430	0.408750	0.089875
	C197	C	0.593850	0.598468	0.907454
	C198	C	0.403876	0.600906	0.089666
	C199	C	0.405051	0.407391	0.905379
	C200	C	0.091250	0.601913	0.401668
	C201	C	0.909450	0.600387	0.592124
	C202	C	0.089847	0.409243	0.590777
	C203	C	0.906484	0.407465	0.400001
	C204	C	0.902967	0.595662	0.093443
	C205	C	0.097321	0.414409	0.092844
	C206	C	0.096998	0.596779	0.901149
	C207	C	0.905417	0.414836	0.902542
	C208	C	0.093606	0.910125	0.590160
	C209	C	0.096506	0.101190	0.406333
	C210	C	0.904347	0.102420	0.589910
	C211	C	0.906349	0.910323	0.407360
	C212	C	0.591661	0.099793	0.903855
	C213	C	0.408238	0.102589	0.097523
	C214	C	0.591175	0.908620	0.093441
	C215	C	0.408974	0.908662	0.904070
	Zn216	Zn	0.500556	0.003702	0.749685
	Zn217	Zn	0.500304	0.003847	0.249677
	Zn218	Zn	0.749111	0.504437	-0.002513
	Zn219	Zn	0.250864	0.505230	-0.003433
	Zn220	Zn	-0.000334	0.755520	0.497934
	Zn221	Zn	-0.001089	0.255352	0.496904
	Zn222	Zn	0.000147	0.505302	0.747081
	Zn223	Zn	-0.000351	0.505651	0.247246
	Zn224	Zn	0.500103	0.754339	-0.001095
	Zn225	Zn	0.500052	0.254470	-0.001429
	Zn226	Zn	0.751325	0.005455	0.499475
	Zn227	Zn	0.249319	0.004365	0.500336
	N228	N	0.413602	0.968081	0.679164
	N229	N	0.586535	0.040011	0.678841
	N230	N	0.589028	0.968887	0.318165
	N231	N	0.415157	0.039967	0.322352
	N232	N	0.680560	0.416590	0.962261
	N233	N	0.679762	0.591734	0.033509
	N234	N	0.320445	0.592493	0.961548
	N235	N	0.321080	0.419406	0.033386
	N236	N	0.965324	0.687916	0.408599
	N237	N	0.035018	0.686041	0.585428
	N238	N	0.963517	0.324982	0.584339
	N239	N	0.033227	0.322707	0.407126
	N240	N	0.964336	0.417575	0.678161
	N241	N	0.036311	0.591057	0.676442
	N242	N	0.963639	0.592048	0.318372
	N243	N	0.035200	0.419682	0.318120
	N244	N	0.411303	0.686898	0.963664
	N245	N	0.586863	0.684449	0.033896
	N246	N	0.589208	0.322031	0.963406
	N247	N	0.413316	0.325200	0.033904
	N248	N	0.683378	0.970086	0.410407
	N249	N	0.681049	0.040098	0.587264
	N250	N	0.316062	0.970852	0.590317
	N251	N	0.319899	0.038777	0.413405
	N252	N	0.913581	0.469011	0.176962
	N253	N	0.086435	0.541436	0.176912
	N254	N	0.088439	0.470218	0.816446
	N255	N	0.913650	0.541113	0.818144
	N256	N	0.179281	0.918838	0.463343
	N257	N	0.179419	0.092758	0.534652
	N258	N	0.818439	0.094169	0.463597
	N259	N	0.822170	0.920250	0.535246
	N260	N	0.465317	0.184869	0.911555
	N261	N	0.534761	0.186627	0.088171
	N262	N	0.465571	0.823381	0.087699
	N263	N	0.534748	0.822574	0.910306
	N264	N	0.464428	0.917924	0.179328
	N265	N	0.535904	0.092023	0.180586
	N266	N	0.464219	0.089490	0.821068
	N267	N	0.535768	0.916914	0.818883
	N268	N	0.912893	0.184879	0.461399
	N269	N	0.086789	0.186768	0.533397
	N270	N	0.087083	0.825202	0.462675
	N271	N	0.911235	0.823706	0.533159
	N272	N	0.181893	0.470591	0.908990
	N273	N	0.181192	0.540782	0.084885
	N274	N	0.817131	0.470586	0.086983
	N275	N	0.819262	0.540095	0.910562
	O276	O	0.429075	0.308678	0.693764
	H277	H	0.448087	0.303280	0.691864
	H278	H	0.442070	0.329819	0.705707
	O279	O	0.612338	0.605893	0.548953
	H280	H	0.621076	0.572146	0.537716
	H281	H	0.622186	0.613038	0.557756
	O282	O	0.575973	0.343450	0.447293
	H283	H	0.562033	0.330942	0.445601
	H284	H	0.581822	0.321011	0.456569
	O285	O	0.845039	1.022342	0.202502
	H286	H	0.833566	1.016223	0.220749
	H287	H	0.845290	1.002110	0.186508
	O288	O	0.701995	0.500684	0.413232
	H289	H	0.686529	0.506706	0.407025
	H290	H	0.721161	0.502229	0.400298
	O291	O	0.295687	0.601431	0.416564
	H292	H	0.285684	0.591755	0.384569
	H293	H	0.287857	0.598980	0.425898
	O294	O	1.199633	0.902463	0.976465
	H295	H	1.203119	0.893407	0.982425
	H296	H	1.205828	0.895063	0.980772
	O297	O	0.300723	0.371943	0.457572
	H298	H	0.290777	0.363930	0.463136
	H299	H	0.314148	0.365732	0.479136
	O300	O	0.083121	0.211524	0.201990
	H301	H	0.090973	0.223294	0.215374
	H302	H	0.064836	0.218549	0.191908
	O303	O	0.575680	0.305477	0.300053
	H304	H	0.579824	0.297915	0.285501
	H305	H	0.585248	0.313380	0.298581
	O306	O	0.138900	0.076279	1.113241
	H307	H	0.139240	0.072076	1.114761
	H308	H	0.135249	0.066158	1.119362
	O309	O	1.207625	0.115230	0.093934
	H310	H	1.214718	0.126858	0.088528
	H311	H	1.210016	0.132591	0.107878
	O312	O	0.608239	0.667087	0.480189
	H313	H	0.626333	0.680739	0.470132
	H314	H	0.595526	0.658207	0.484957
	O315	O	0.476160	0.715792	0.289920
	H316	H	0.485722	0.735281	0.290943
	H317	H	0.478613	0.717925	0.281264
	O318	O	0.369076	-0.414735	0.305496
	H319	H	0.363351	-0.452893	0.294317
	H320	H	0.384512	-0.410629	0.295576
	O321	O	0.629573	0.659934	0.649870
	H322	H	0.599947	0.669065	0.656043
	H323	H	0.636950	0.675314	0.609873
	O324	O	0.861928	-0.078456	0.978893
	H325	H	0.872050	-0.082895	0.966299
	H326	H	0.855711	-0.095122	0.982646
	O327	O	0.708639	0.549774	0.697664
	H328	H	0.729770	0.559420	0.718198
	H329	H	0.692539	0.584693	0.691953
	O330	O	-0.011271	1.020118	1.043236
	H331	H	-0.017015	1.012596	1.040227
	H332	H	-0.010928	1.032264	1.065353
	O333	O	0.123130	0.961198	-0.203619
	H334	H	0.114968	0.978829	-0.210110
	H335	H	0.121564	0.973250	-0.212014
	O336	O	1.135681	0.958928	-0.007564
	H337	H	1.128127	0.967468	-0.012077
	H338	H	1.135828	0.972501	-0.001285
	O339	O	0.074716	0.855412	0.783623
	H340	H	0.095835	0.869917	0.789933
	H341	H	0.091067	0.834253	0.754676
	O342	O	0.315203	0.308491	0.614024
	H343	H	0.306872	0.321572	0.605760
	H344	H	0.346020	0.295951	0.629481
	O345	O	-0.114735	-0.137017	0.945829
	H346	H	-0.127839	-0.139839	0.928048
	H347	H	-0.097095	-0.137880	0.932688
	O348	O	0.303035	0.698184	0.414358
	H349	H	0.322904	0.697197	0.382921
	H350	H	0.286403	0.688265	0.408809
	O351	O	0.812517	1.195067	-0.130072
	H352	H	0.803410	1.210760	-0.107234
	H353	H	0.839582	1.198724	-0.144224
	O354	O	0.361031	0.556415	1.637389
	H355	H	0.377866	0.553531	1.632586
	H356	H	0.357835	0.562668	1.637699
	O357	O	0.026224	0.118654	-0.123826
	H358	H	0.015224	0.098877	-0.111647
	H359	H	0.020947	0.123562	-0.104183
	O360	O	0.303518	0.485026	0.701610
	H361	H	0.300806	0.476280	0.691664
	H362	H	0.293481	0.494580	0.720441
	O363	O	0.951732	-0.077855	-0.079063
	H364	H	0.967935	-0.086941	-0.099395
	H365	H	0.952287	-0.080908	-0.064819
	O366	O	-0.178989	-0.100361	1.168073
	H367	H	-0.171370	-0.106825	1.174735
	H368	H	-0.169903	-0.097876	1.144618
	O369	O	0.993108	-0.064942	1.145333
	H370	H	0.982258	-0.083997	1.140326
	H371	H	0.991810	-0.064832	1.157890
	O372	O	0.524228	0.683665	0.476261
	H373	H	0.495521	0.690877	0.456961
	H374	H	0.515366	0.672946	0.486484
	O375	O	0.105919	-0.183044	0.898955
	H376	H	0.122411	-0.193951	0.931104
	H377	H	0.113824	-0.153901	0.892066
	O378	O	0.658737	0.476692	0.519152
	H379	H	0.660427	0.466690	0.521629
	H380	H	0.671265	0.462842	0.499276
	O381	O	-0.069299	0.933843	0.034766
	H382	H	-0.071804	0.912773	0.028621
	H383	H	-0.058754	0.926198	0.048753
	O384	O	0.545421	0.571622	0.546415
	H385	H	0.559064	0.566006	0.547418
	H386	H	0.529676	0.589918	0.542412
	O387	O	0.712411	0.423626	0.431020
	H388	H	0.710557	0.439308	0.454423
	H389	H	0.729086	0.398331	0.417404
	O390	O	0.962465	0.839252	0.033090
	H391	H	0.960113	0.848355	0.031303
	H392	H	0.967572	0.841910	0.022339
	O393	O	1.021676	0.205378	1.037479
	H394	H	1.027504	0.208226	1.045087
	H395	H	1.011707	0.206326	1.044467
	O396	O	0.498391	0.690778	0.695712
	H397	H	0.486462	0.685348	0.689195
	H398	H	0.491553	0.695927	0.715593
	O399	O	0.502696	0.466817	0.653834
	H400	H	0.493521	0.479751	0.651102
	H401	H	0.509855	0.466089	0.665571
	O402	O	1.049317	1.011553	0.089137
	H403	H	1.050081	1.007523	0.069730
	H404	H	1.044504	1.005867	0.081799
	O405	O	-0.004257	-0.176349	0.068029
	H406	H	-0.008592	-0.146391	0.071652
	H407	H	-0.023138	-0.179755	0.050354
	O408	O	0.396981	0.360481	0.312009
	H409	H	0.391230	0.354204	0.321699
	H410	H	0.402485	0.350149	0.320575
	O411	O	0.938582	1.186853	0.826597
	H412	H	0.949651	1.187217	0.816942
	H413	H	0.956766	1.196091	0.850632
	O414	O	0.427172	0.372881	0.486092
	H415	H	0.433976	0.376416	0.493760
	H416	H	0.410486	0.368719	0.496197
	O417	O	-0.193498	1.009561	0.798089
	H418	H	-0.193243	1.035303	0.808388
	H419	H	-0.205737	1.005446	0.780101
	O420	O	0.254365	1.325756	1.344591
	H421	H	0.235039	1.331009	1.369898
	H422	H	0.260475	1.312908	1.343926
	O423	O	0.151229	1.013927	0.179262
	H424	H	0.144985	1.018254	0.173393
	H425	H	0.150894	1.014652	0.194547
	O426	O	0.692870	0.317749	0.384631
	H427	H	0.701145	0.329713	0.380073
	H428	H	0.696117	0.312443	0.396059
	O429	O	0.575084	0.530448	0.467377
	H430	H	0.576792	0.534063	0.468247
	H431	H	0.580540	0.531937	0.457157
	O432	O	0.540024	0.522484	0.355038
	H433	H	0.543391	0.523666	0.361324
	H434	H	0.534502	0.529501	0.356118
	O435	O	0.085157	0.154835	-0.144871
	H436	H	0.085491	0.152748	-0.147252
	H437	H	0.091259	0.162396	-0.127942
	O438	O	-0.178556	1.171001	1.004841
	H439	H	-0.186691	1.138974	1.010680
	H440	H	-0.202312	1.200558	1.000795
	O441	O	0.453039	0.358213	0.444382
	H442	H	0.452091	0.366789	0.451298
	H443	H	0.443856	0.360366	0.436442
