data_Molecule from HDF5

_cell_length_a		16.337348
_cell_length_b		16.405497
_cell_length_c		16.301483
_cell_angle_alpha	89.919086
_cell_angle_beta	90.413830
_cell_angle_gamma	90.009599
_symmetry_space_group_name_H-M	'P 1'
_symmetry_Int_Tables_number		1

loop_
	_symmetry_equiv_pos_as_xyz
	x,y,z

loop_
	_atom_site_label
	_atom_site_type_symbol
	_atom_site_fract_x
	_atom_site_fract_y
	_atom_site_fract_z
	H0	H	0.398845	0.828412	0.724775
	H1	H	0.600959	0.149484	0.724186
	H2	H	0.601907	0.828638	0.288492
	H3	H	0.396460	0.149661	0.289124
	H4	H	0.715538	0.391695	0.846421
	H5	H	0.719864	0.594351	0.168238
	H6	H	0.278924	0.592812	0.847107
	H7	H	0.284280	0.387788	0.170135
	H8	H	0.839431	0.710242	0.400181
	H9	H	0.160843	0.709429	0.613145
	H10	H	0.838863	0.271136	0.609245
	H11	H	0.161565	0.271236	0.408705
	H12	H	0.838459	0.388008	0.724166
	H13	H	0.161351	0.590566	0.726680
	H14	H	0.838497	0.590144	0.289602
	H15	H	0.162352	0.390017	0.294368
	H16	H	0.395281	0.708227	0.846091
	H17	H	0.603901	0.708559	0.168818
	H18	H	0.600770	0.273873	0.845935
	H19	H	0.398359	0.270423	0.167912
	H20	H	0.716497	0.827460	0.405794
	H21	H	0.718263	0.148458	0.609106
	H22	H	0.283127	0.828023	0.608589
	H23	H	0.280482	0.149154	0.404743
	H24	H	0.898117	0.328774	0.223973
	H25	H	0.103883	0.649690	0.228243
	H26	H	0.100078	0.327572	0.793325
	H27	H	0.895959	0.649179	0.787250
	H28	H	0.218166	0.886371	0.345867
	H29	H	0.218294	0.089520	0.670445
	H30	H	0.778618	0.093008	0.347150
	H31	H	0.784287	0.886858	0.669055
	H32	H	0.338686	0.209621	0.901067
	H33	H	0.660453	0.208463	0.110532
	H34	H	0.338584	0.770296	0.108736
	H35	H	0.660284	0.771085	0.904951
	H36	H	0.337652	0.887946	0.223674
	H37	H	0.659056	0.094756	0.229081
	H38	H	0.338132	0.090847	0.788120
	H39	H	0.662110	0.890869	0.793902
	H40	H	0.895536	0.208351	0.346764
	H41	H	0.103130	0.205883	0.670455
	H42	H	0.103723	0.768653	0.346816
	H43	H	0.897145	0.769391	0.667879
	H44	H	0.217772	0.328982	0.906961
	H45	H	0.219855	0.650186	0.112022
	H46	H	0.781299	0.330659	0.110283
	H47	H	0.780798	0.650489	0.903695
	H48	H	0.415566	0.102820	0.602173
	H49	H	0.592893	0.871913	0.603517
	H50	H	0.593985	0.100629	0.427583
	H51	H	0.412560	0.876603	0.417047
	H52	H	0.593846	0.397638	0.124661
	H53	H	0.590948	0.579039	0.892474
	H54	H	0.411566	0.582978	0.123422
	H55	H	0.405428	0.403250	0.892873
	H56	H	0.111861	0.579005	0.422148
	H57	H	0.886635	0.580000	0.593743
	H58	H	0.116517	0.388164	0.595775
	H59	H	0.884459	0.397744	0.414623
	H60	H	0.111659	0.404206	0.596266
	H61	H	0.887535	0.576582	0.596595
	H62	H	0.114139	0.578033	0.416968
	H63	H	0.884584	0.395918	0.415426
	H64	H	0.408623	0.578998	0.122447
	H65	H	0.586764	0.580697	0.893723
	H66	H	0.590746	0.402166	0.122754
	H67	H	0.411373	0.400338	0.893030
	H68	H	0.594869	0.106861	0.410054
	H69	H	0.589615	0.874699	0.600302
	H70	H	0.407383	0.101870	0.589739
	H71	H	0.405915	0.874372	0.419517
	H72	H	0.906990	0.602155	0.091198
	H73	H	0.087185	0.376330	0.100563
	H74	H	0.095445	0.604458	0.920086
	H75	H	0.907892	0.375531	0.916902
	H76	H	0.090063	0.898075	0.621357
	H77	H	0.083427	0.072825	0.397906
	H78	H	0.903768	0.077410	0.623887
	H79	H	0.909657	0.896434	0.392179
	H80	H	0.613284	0.077836	0.914865
	H81	H	0.386893	0.080603	0.090106
	H82	H	0.612288	0.898867	0.094265
	H83	H	0.385398	0.902637	0.915219
	H84	H	0.611696	0.903309	0.097420
	H85	H	0.386620	0.074960	0.098490
	H86	H	0.617178	0.085374	0.913392
	H87	H	0.383157	0.896501	0.912146
	H88	H	0.914291	0.075944	0.619918
	H89	H	0.086071	0.088821	0.391866
	H90	H	0.091420	0.899156	0.621674
	H91	H	0.905820	0.899798	0.391295
	H92	H	0.087202	0.604839	0.913088
	H93	H	0.095577	0.375241	0.096756
	H94	H	0.905896	0.608290	0.104764
	H95	H	0.907984	0.375743	0.917103
	H96	H	0.401716	0.107246	0.602599
	H97	H	0.594307	0.872628	0.598022
	H98	H	0.579428	0.100223	0.415847
	H99	H	0.408048	0.872580	0.412913
	H100	H	0.588522	0.398073	0.122795
	H101	H	0.589721	0.583782	0.891400
	H102	H	0.413051	0.578642	0.121189
	H103	H	0.405667	0.396715	0.891075
	H104	H	0.115201	0.582766	0.418908
	H105	H	0.885220	0.580067	0.597632
	H106	H	0.118554	0.397560	0.609951
	H107	H	0.885473	0.397542	0.417051
	H108	H	0.917891	0.602919	0.100190
	H109	H	0.095117	0.372993	0.105207
	H110	H	0.085647	0.600609	0.922319
	H111	H	0.907632	0.375664	0.917120
	H112	H	0.090130	0.899958	0.621076
	H113	H	0.098191	0.077107	0.391247
	H114	H	0.911106	0.085556	0.624712
	H115	H	0.910403	0.901385	0.393240
	H116	H	0.613292	0.083887	0.920777
	H117	H	0.382505	0.084631	0.099052
	H118	H	0.614278	0.899490	0.099346
	H119	H	0.384534	0.896811	0.919257
	C120	C	0.378639	-0.002407	0.628575
	C121	C	0.621824	0.979816	0.629572
	C122	C	0.620505	-0.003200	0.386257
	C123	C	0.377721	0.980468	0.386000
	C124	C	0.620904	0.369769	0.016466
	C125	C	0.621114	0.612507	0.999030
	C126	C	0.378627	0.611036	0.015888
	C127	C	0.378084	0.368718	0.998959
	C128	C	0.008026	0.611176	0.386717
	C129	C	0.992118	0.610426	0.628781
	C130	C	0.008838	0.366804	0.630184
	C131	C	0.991663	0.366910	0.386585
	C132	C	0.879453	0.498224	0.128833
	C133	C	0.123226	0.480860	0.131498
	C134	C	0.120329	0.497474	0.887873
	C135	C	0.876943	0.481210	0.885427
	C136	C	0.121565	0.867773	0.515375
	C137	C	0.120853	0.109686	0.500361
	C138	C	0.877981	0.110475	0.516309
	C139	C	0.878450	0.867881	0.498559
	C140	C	0.507944	0.112255	0.884670
	C141	C	0.491208	0.111326	0.127979
	C142	C	0.507142	0.868877	0.127974
	C143	C	0.491086	0.868439	0.885934
	C144	C	0.379302	0.876280	0.685976
	C145	C	0.621207	0.101176	0.685798
	C146	C	0.620770	0.876366	0.327772
	C147	C	0.377092	0.101415	0.327921
	C148	C	0.677247	0.371348	0.894543
	C149	C	0.680309	0.613244	0.120179
	C150	C	0.318938	0.611712	0.894948
	C151	C	0.322368	0.368591	0.121181
	C152	C	0.887592	0.670007	0.383377
	C153	C	0.112849	0.669301	0.630927
	C154	C	0.887119	0.310042	0.628889
	C155	C	0.113228	0.310078	0.388568
	C156	C	0.887014	0.368337	0.685872
	C157	C	0.113238	0.610102	0.687493
	C158	C	0.886938	0.610525	0.327923
	C159	C	0.113597	0.368846	0.331462
	C160	C	0.376663	0.669348	0.894694
	C161	C	0.622563	0.670322	0.120137
	C162	C	0.620151	0.312775	0.894552
	C163	C	0.378769	0.309957	0.120033
	C164	C	0.678308	0.875976	0.385892
	C165	C	0.679253	0.100844	0.628514
	C166	C	0.321582	0.876193	0.628269
	C167	C	0.319620	0.101233	0.385469
	C168	C	0.879269	0.377255	0.185646
	C169	C	0.123137	0.601662	0.189403
	C170	C	0.119893	0.376172	0.831273
	C171	C	0.876897	0.601392	0.826572
	C172	C	0.179155	0.867139	0.394209
	C173	C	0.179417	0.109065	0.621835
	C174	C	0.818809	0.111371	0.395200
	C175	C	0.822048	0.867441	0.620354
	C176	C	0.386941	0.170082	0.883005
	C177	C	0.612029	0.169810	0.129869
	C178	C	0.386604	0.809556	0.128356
	C179	C	0.612411	0.810885	0.886039
	C180	C	0.386083	0.868293	0.185452
	C181	C	0.611312	0.113023	0.188839
	C182	C	0.386625	0.111191	0.826517
	C183	C	0.613185	0.870272	0.830616
	C184	C	0.876615	0.169185	0.395205
	C185	C	0.121820	0.166729	0.622171
	C186	C	0.122384	0.808673	0.394608
	C187	C	0.878555	0.809209	0.619851
	C188	C	0.178392	0.376866	0.887903
	C189	C	0.180934	0.601824	0.131618
	C190	C	0.820916	0.378153	0.128725
	C191	C	0.819521	0.601990	0.884550
	C192	C	0.401610	0.081962	0.605199
	C193	C	0.598864	0.895177	0.607201
	C194	C	0.596585	0.080703	0.410700
	C195	C	0.401644	0.896292	0.409751
	C196	C	0.597833	0.392621	0.101322
	C197	C	0.596266	0.588187	0.914459
	C198	C	0.403689	0.587018	0.100362
	C199	C	0.400803	0.393065	0.914355
	C200	C	0.092132	0.587059	0.412146
	C201	C	0.908136	0.586115	0.603366
	C202	C	0.093622	0.389866	0.607332
	C203	C	0.906767	0.390204	0.409155
	C204	C	0.903282	0.582810	0.105316
	C205	C	0.099753	0.396882	0.107870
	C206	C	0.096336	0.581441	0.911663
	C207	C	0.900926	0.397328	0.909972
	C208	C	0.097383	0.891891	0.599564
	C209	C	0.096345	0.086283	0.415733
	C210	C	0.902596	0.086438	0.600810
	C211	C	0.901842	0.892051	0.414290
	C212	C	0.592607	0.089185	0.909214
	C213	C	0.407171	0.087190	0.102978
	C214	C	0.590980	0.893476	0.103798
	C215	C	0.406317	0.891774	0.908834
	Zn216	Zn	0.499913	-0.010837	0.757616
	Zn217	Zn	0.499081	-0.010333	0.257345
	Zn218	Zn	0.749408	0.491329	0.008372
	Zn219	Zn	0.249948	0.489815	0.008415
	Zn220	Zn	-0.000292	0.739486	0.507245
	Zn221	Zn	-0.000340	0.238256	0.508772
	Zn222	Zn	-0.000000	0.488822	0.758125
	Zn223	Zn	-0.000174	0.489468	0.258607
	Zn224	Zn	0.499846	0.739947	0.007111
	Zn225	Zn	0.499595	0.240685	0.006715
	Zn226	Zn	0.749553	-0.011697	0.507523
	Zn227	Zn	0.249953	-0.011104	0.507429
	N228	N	0.414024	0.952746	0.686319
	N229	N	0.586340	0.024924	0.686805
	N230	N	0.585592	0.952555	0.327963
	N231	N	0.412523	0.025260	0.328029
	N232	N	0.677812	0.406055	0.971231
	N233	N	0.679487	0.577871	0.043754
	N234	N	0.319934	0.576456	0.971555
	N235	N	0.321625	0.404241	0.044643
	N236	N	0.963831	0.670495	0.419182
	N237	N	0.036250	0.669875	0.595170
	N238	N	0.963929	0.308996	0.595066
	N239	N	0.036136	0.308553	0.421802
	N240	N	0.963641	0.403076	0.686719
	N241	N	0.037311	0.574203	0.686198
	N242	N	0.963019	0.574491	0.329894
	N243	N	0.036959	0.403433	0.330244
	N244	N	0.413239	0.668916	0.970912
	N245	N	0.586409	0.669710	0.043738
	N246	N	0.586008	0.311603	0.971365
	N247	N	0.412589	0.309924	0.043127
	N248	N	0.678237	0.951916	0.421318
	N249	N	0.679779	0.024396	0.594372
	N250	N	0.321182	0.952451	0.593364
	N251	N	0.319659	0.025114	0.420427
	N252	N	0.915047	0.453123	0.185675
	N253	N	0.087947	0.525592	0.189621
	N254	N	0.084537	0.452127	0.831140
	N255	N	0.911757	0.525155	0.826842
	N256	N	0.178571	0.903245	0.470244
	N257	N	0.178806	0.074261	0.545142
	N258	N	0.819540	0.075523	0.471547
	N259	N	0.821597	0.903203	0.543969
	N260	N	0.463519	0.170970	0.918577
	N261	N	0.536402	0.168723	0.092445
	N262	N	0.462894	0.810037	0.093366
	N263	N	0.535556	0.809579	0.919561
	N264	N	0.461939	0.904523	0.185332
	N265	N	0.535249	0.077247	0.187604
	N266	N	0.462989	0.076083	0.827435
	N267	N	0.536540	0.905351	0.830317
	N268	N	0.912811	0.168416	0.471443
	N269	N	0.085959	0.167340	0.545676
	N270	N	0.087249	0.808782	0.471005
	N271	N	0.912889	0.809364	0.543141
	N272	N	0.178837	0.453339	0.922429
	N273	N	0.181195	0.525777	0.096540
	N274	N	0.821164	0.454517	0.094001
	N275	N	0.819438	0.526276	0.920550
	O276	O	0.427763	0.488675	0.394276
	H277	H	0.414410	0.509467	0.390570
	H278	H	0.442142	0.500710	0.401533
	O279	O	0.474260	0.542334	0.444059
	H280	H	0.479618	0.533881	0.454272
	H281	H	0.483178	0.545939	0.446116
	O282	O	0.883769	0.087454	0.842477
	H283	H	0.893394	0.094813	0.851885
	H284	H	0.877299	0.107194	0.834321
	O285	O	0.436211	0.588336	0.570665
	H286	H	0.448148	0.580761	0.574280
	H287	H	0.445468	0.600600	0.568219
	O288	O	1.210649	1.061165	1.143718
	H289	H	1.220947	1.080284	1.153770
	H290	H	1.222851	1.078281	1.165769
	O291	O	0.354765	1.320023	0.393084
	H292	H	0.333384	1.327001	0.387057
	H293	H	0.345072	1.314603	0.395690
	O294	O	0.487747	0.352501	0.416325
	H295	H	0.497439	0.340828	0.429832
	H296	H	0.474751	0.346812	0.415511
	O297	O	0.379059	0.361893	0.623420
	H298	H	0.365248	0.353401	0.613012
	H299	H	0.362480	0.367700	0.626080
	O300	O	0.412241	0.489004	0.360141
	H301	H	0.395432	0.492720	0.346688
	H302	H	0.418221	0.488947	0.362258
	O303	O	0.634741	0.387179	0.413693
	H304	H	0.641963	0.380860	0.423054
	H305	H	0.625801	0.392076	0.419159
	O306	O	0.488078	0.464849	0.433206
	H307	H	0.482322	0.460220	0.427597
	H308	H	0.480995	0.466805	0.436451
	O309	O	0.369263	0.477094	0.662104
	H310	H	0.358606	0.483563	0.661482
	H311	H	0.374954	0.493773	0.655321
	O312	O	-0.160506	-0.100444	0.123896
	H313	H	-0.168913	-0.108659	0.106626
	H314	H	-0.128316	-0.102342	0.117161
	O315	O	0.630824	0.343801	0.606979
	H316	H	0.606513	0.344247	0.611867
	H317	H	0.634992	0.332272	0.622039
	O318	O	-0.016416	0.992261	1.106797
	H319	H	-0.021754	0.982991	1.105238
	H320	H	-0.016274	0.991653	1.110181
	O321	O	0.610417	0.580127	0.448110
	H322	H	0.620266	0.592247	0.459463
	H323	H	0.608116	0.574085	0.437748
	O324	O	-0.142184	0.920231	0.129342
	H325	H	-0.139677	0.897343	0.113839
	H326	H	-0.155675	0.904733	0.130419
	O327	O	-0.074993	1.127188	0.106635
	H328	H	-0.095706	1.118336	0.111238
	H329	H	-0.074618	1.123774	0.075602
	O330	O	0.131996	-0.145610	0.947556
	H331	H	0.121966	-0.142916	0.957299
	H332	H	0.133156	-0.152846	0.958808
	O333	O	0.134552	-0.091643	1.037178
	H334	H	0.141696	-0.089505	1.055664
	H335	H	0.124166	-0.100564	1.043915
	O336	O	0.542743	0.543749	0.635436
	H337	H	0.547169	0.547673	0.635837
	H338	H	0.544127	0.530182	0.627881
	O339	O	0.865152	0.148435	-0.118716
	H340	H	0.865416	0.139998	-0.110301
	H341	H	0.888229	0.145944	-0.111252
	O342	O	0.188231	0.180934	0.132046
	H343	H	0.184563	0.189099	0.122996
	H344	H	0.164826	0.178620	0.142896
	O345	O	0.994991	-0.140961	0.890242
	H346	H	0.999256	-0.128210	0.886391
	H347	H	0.995577	-0.135527	0.895423
	O348	O	1.090956	0.965216	0.090367
	H349	H	1.092313	0.978230	0.104329
	H350	H	1.102306	0.974629	0.093464
	O351	O	0.509117	0.479770	0.608791
	H352	H	0.502065	0.486403	0.609040
	H353	H	0.501716	0.479716	0.614283
	O354	O	0.877178	-0.154416	1.062484
	H355	H	0.879118	-0.170275	1.048658
	H356	H	0.870247	-0.147370	1.055194
	O357	O	0.472965	0.562312	0.614289
	H358	H	0.474846	0.581033	0.608778
	H359	H	0.483254	0.562149	0.603240
	O360	O	0.825261	0.171237	-0.012810
	H361	H	0.810765	0.171195	-0.025257
	H362	H	0.818252	0.189088	-0.008305
	O363	O	-0.023122	0.829812	0.947005
	H364	H	-0.011465	0.826733	0.930176
	H365	H	-0.015517	0.849719	0.937623
	O366	O	0.687691	0.473943	0.433269
	H367	H	0.682604	0.463532	0.440199
	H368	H	0.696178	0.461128	0.420401
	O369	O	-0.321113	0.561615	-0.353879
	H370	H	-0.317937	0.564292	-0.365570
	H371	H	-0.317119	0.557332	-0.347952
	O372	O	0.409435	0.650214	0.419061
	H373	H	0.406005	0.641625	0.431572
	H374	H	0.430488	0.656500	0.413214
	O375	O	0.408095	0.492215	0.597937
	H376	H	0.404498	0.479415	0.611950
	H377	H	0.403674	0.505448	0.603362
	O378	O	0.830849	0.989168	-0.011428
	H379	H	0.820202	0.973933	-0.017900
	H380	H	0.826805	0.982839	-0.008551
	O381	O	1.044465	0.179131	-0.084707
	H382	H	1.061106	0.176025	-0.098179
	H383	H	1.052329	0.168780	-0.088362
	O384	O	1.030179	1.036470	-0.019737
	H385	H	1.041449	1.042317	-0.009476
	H386	H	1.031486	1.037077	-0.016113
	O387	O	0.021523	0.156527	-0.024878
	H388	H	0.027435	0.141334	-0.037953
	H389	H	0.012354	0.163159	-0.025792
	O390	O	0.073974	0.868378	0.054867
	H391	H	0.073866	0.871241	0.060308
	H392	H	0.082494	0.883596	0.062176
	O393	O	0.990662	1.001764	0.978156
	H394	H	0.997313	1.000936	0.982684
	H395	H	0.981432	0.987586	0.983322
	O396	O	0.557533	0.527473	0.532532
	H397	H	0.556364	0.516250	0.545474
	H398	H	0.550300	0.522907	0.537642
	O399	O	-0.024979	1.167784	1.150279
	H400	H	-0.043738	1.158542	1.154640
	H401	H	-0.039429	1.172325	1.163339
	O402	O	0.566631	0.602228	0.461129
	H403	H	0.571363	0.591125	0.447329
	H404	H	0.544675	0.596218	0.460560
	O405	O	0.996707	0.991804	-0.061524
	H406	H	1.004133	0.979467	-0.063475
	H407	H	0.988141	0.968247	-0.044706
	O408	O	1.052856	0.843681	0.020067
	H409	H	1.035600	0.846106	0.031539
	H410	H	1.056629	0.834860	0.013565
	O411	O	0.994434	-0.143546	0.817557
	H412	H	0.980189	-0.144969	0.804683
	H413	H	1.013625	-0.128682	0.818396
	O414	O	0.526431	0.434744	0.537435
	H415	H	0.523438	0.428862	0.540697
	H416	H	0.535183	0.430721	0.542546
	O417	O	0.345432	0.476188	0.460787
	H418	H	0.352342	0.485762	0.461069
	H419	H	0.342299	0.483050	0.438239
