data_Molecule from HDF5

_cell_length_a		16.531866
_cell_length_b		16.430674
_cell_length_c		16.431627
_cell_angle_alpha	89.916708
_cell_angle_beta	90.068181
_cell_angle_gamma	89.980127
_symmetry_space_group_name_H-M	'P 1'
_symmetry_Int_Tables_number		1

loop_
	_symmetry_equiv_pos_as_xyz
	x,y,z

loop_
	_atom_site_label
	_atom_site_type_symbol
	_atom_site_fract_x
	_atom_site_fract_y
	_atom_site_fract_z
	H0	H	0.412287	0.862628	0.728610
	H1	H	0.618469	0.180407	0.726893
	H2	H	0.620125	0.862622	0.289502
	H3	H	0.407740	0.178715	0.284287
	H4	H	0.733421	0.418786	0.848620
	H5	H	0.738987	0.629311	0.164823
	H6	H	0.296803	0.626291	0.848455
	H7	H	0.294520	0.416800	0.166452
	H8	H	0.857223	0.741917	0.403800
	H9	H	0.174555	0.740317	0.609419
	H10	H	0.859628	0.300114	0.612238
	H11	H	0.174531	0.301380	0.402414
	H12	H	0.858606	0.417371	0.727804
	H13	H	0.172606	0.628567	0.729664
	H14	H	0.856774	0.625717	0.288217
	H15	H	0.174344	0.418761	0.287378
	H16	H	0.413294	0.741527	0.849657
	H17	H	0.621616	0.742347	0.166394
	H18	H	0.614630	0.305168	0.848304
	H19	H	0.410349	0.301146	0.167624
	H20	H	0.737065	0.863306	0.403972
	H21	H	0.738695	0.178271	0.615082
	H22	H	0.294848	0.863234	0.613283
	H23	H	0.292060	0.178080	0.400211
	H24	H	0.909348	0.363438	0.229192
	H25	H	0.119134	0.679978	0.226695
	H26	H	0.119402	0.363000	0.786545
	H27	H	0.910119	0.680499	0.785420
	H28	H	0.239796	0.914141	0.351295
	H29	H	0.237476	0.128199	0.665942
	H30	H	0.792065	0.128630	0.351502
	H31	H	0.795608	0.915033	0.665985
	H32	H	0.358930	0.244809	0.901527
	H33	H	0.673357	0.243431	0.113564
	H34	H	0.360047	0.797644	0.116800
	H35	H	0.674189	0.800323	0.904286
	H36	H	0.360288	0.915069	0.232195
	H37	H	0.673455	0.127610	0.230918
	H38	H	0.360018	0.130823	0.782918
	H39	H	0.674395	0.916374	0.787642
	H40	H	0.909632	0.243264	0.349167
	H41	H	0.121570	0.243340	0.664853
	H42	H	0.121663	0.799918	0.349972
	H43	H	0.913032	0.800740	0.666974
	H44	H	0.239241	0.363962	0.899415
	H45	H	0.237252	0.678381	0.113146
	H46	H	0.794125	0.363035	0.111750
	H47	H	0.793050	0.680069	0.900792
	H48	H	0.427966	0.130656	0.586404
	H49	H	0.601245	0.909167	0.597675
	H50	H	0.606944	0.136937	0.415836
	H51	H	0.435332	0.910726	0.418753
	H52	H	0.604311	0.435571	0.120011
	H53	H	0.607838	0.608845	0.894194
	H54	H	0.427701	0.606979	0.120376
	H55	H	0.430946	0.427564	0.894756
	H56	H	0.127007	0.612723	0.422931
	H57	H	0.901538	0.610187	0.602819
	H58	H	0.129309	0.425985	0.592699
	H59	H	0.902160	0.425675	0.419420
	H60	H	0.125824	0.438798	0.592875
	H61	H	0.902026	0.617448	0.592792
	H62	H	0.127245	0.604776	0.414717
	H63	H	0.906662	0.435219	0.423831
	H64	H	0.426970	0.612344	0.122833
	H65	H	0.601096	0.607888	0.896853
	H66	H	0.603908	0.430922	0.121419
	H67	H	0.419706	0.430624	0.892844
	H68	H	0.598281	0.131591	0.421220
	H69	H	0.611040	0.907363	0.594520
	H70	H	0.418901	0.137905	0.599168
	H71	H	0.425610	0.911632	0.429118
	H72	H	0.917941	0.637821	0.097055
	H73	H	0.103784	0.407981	0.096569
	H74	H	0.101005	0.631065	0.922331
	H75	H	0.924535	0.408658	0.918136
	H76	H	0.105308	0.929319	0.622083
	H77	H	0.106706	0.107337	0.395042
	H78	H	0.926300	0.110508	0.621237
	H79	H	0.923743	0.933606	0.394350
	H80	H	0.629739	0.114388	0.917140
	H81	H	0.405741	0.106874	0.096385
	H82	H	0.626411	0.932307	0.091744
	H83	H	0.406480	0.939587	0.919257
	H84	H	0.628253	0.938024	0.102430
	H85	H	0.403721	0.109783	0.100258
	H86	H	0.628166	0.113585	0.921439
	H87	H	0.401862	0.930305	0.914776
	H88	H	0.928071	0.109873	0.619492
	H89	H	0.102516	0.110029	0.395434
	H90	H	0.107651	0.935414	0.620641
	H91	H	0.928585	0.934262	0.395947
	H92	H	0.110000	0.634882	0.921700
	H93	H	0.104393	0.408429	0.095701
	H94	H	0.929268	0.635556	0.103723
	H95	H	0.925609	0.409076	0.918371
	H96	H	0.435273	0.133062	0.601904
	H97	H	0.608246	0.905059	0.604513
	H98	H	0.608265	0.133733	0.426663
	H99	H	0.422351	0.905617	0.416509
	H100	H	0.608102	0.433629	0.122833
	H101	H	0.603507	0.614154	0.893834
	H102	H	0.422491	0.608427	0.122246
	H103	H	0.427153	0.438614	0.898126
	H104	H	0.131138	0.615489	0.412784
	H105	H	0.905877	0.605547	0.592645
	H106	H	0.131001	0.433136	0.603958
	H107	H	0.902676	0.434873	0.412742
	H108	H	0.928192	0.631487	0.090956
	H109	H	0.104846	0.407064	0.096161
	H110	H	0.104016	0.635369	0.914127
	H111	H	0.925179	0.408745	0.919248
	H112	H	0.101946	0.933559	0.618972
	H113	H	0.106504	0.112160	0.393092
	H114	H	0.929001	0.111274	0.621259
	H115	H	0.926935	0.930043	0.394458
	H116	H	0.626779	0.109947	0.918344
	H117	H	0.404105	0.111747	0.095198
	H118	H	0.631021	0.926730	0.100995
	H119	H	0.404743	0.929925	0.925223
	C120	C	0.394758	0.029639	0.629353
	C121	C	0.638360	1.012040	0.630733
	C122	C	0.637026	0.029648	0.388615
	C123	C	0.394465	1.013026	0.387324
	C124	C	0.636205	0.401513	0.016378
	C125	C	0.636698	0.642687	0.999696
	C126	C	0.394383	0.642371	0.017069
	C127	C	0.393535	0.399525	0.999538
	C128	C	0.023858	0.643352	0.385357
	C129	C	1.007488	0.642990	0.628209
	C130	C	0.024819	0.400339	0.628672
	C131	C	1.007838	0.400022	0.386093
	C132	C	0.892989	0.530199	0.129288
	C133	C	0.135784	0.512656	0.127656
	C134	C	0.136798	0.529494	0.886574
	C135	C	0.893769	0.513736	0.886270
	C136	C	0.137790	0.900142	0.516367
	C137	C	0.137619	0.142461	0.498852
	C138	C	0.894643	0.143127	0.516305
	C139	C	0.895032	0.900180	0.499435
	C140	C	0.524460	0.144538	0.886492
	C141	C	0.508140	0.142386	0.129940
	C142	C	0.524817	0.899546	0.131028
	C143	C	0.508740	0.900964	0.888097
	C144	C	0.392966	0.910519	0.689349
	C145	C	0.638228	0.132443	0.688259
	C146	C	0.638631	0.910463	0.328728
	C147	C	0.390441	0.131297	0.325106
	C148	C	0.694123	0.400073	0.896615
	C149	C	0.698049	0.646185	0.117928
	C150	C	0.336003	0.644483	0.896772
	C151	C	0.333666	0.397722	0.118921
	C152	C	0.904951	0.702495	0.384824
	C153	C	0.126750	0.701545	0.628950
	C154	C	0.906542	0.340322	0.630634
	C155	C	0.127056	0.341181	0.384403
	C156	C	0.905838	0.398853	0.687870
	C157	C	0.125733	0.645634	0.688566
	C158	C	0.904573	0.644358	0.327239
	C159	C	0.126891	0.399538	0.326978
	C160	C	0.393823	0.702215	0.897338
	C161	C	0.639648	0.702690	0.118614
	C162	C	0.635134	0.343483	0.896400
	C163	C	0.391569	0.340404	0.119540
	C164	C	0.697009	0.910785	0.385808
	C165	C	0.698132	0.131297	0.632820
	C166	C	0.334687	0.910798	0.631775
	C167	C	0.332774	0.131135	0.382723
	C168	C	0.891130	0.410887	0.188990
	C169	C	0.137473	0.632180	0.187236
	C170	C	0.138837	0.410633	0.826051
	C171	C	0.891736	0.632908	0.825750
	C172	C	0.198769	0.897018	0.397982
	C173	C	0.197619	0.145886	0.618149
	C174	C	0.833243	0.146343	0.398208
	C175	C	0.835775	0.897386	0.618856
	C176	C	0.406126	0.204903	0.883344
	C177	C	0.626183	0.203384	0.132479
	C178	C	0.407105	0.838342	0.134592
	C179	C	0.627070	0.840623	0.886356
	C180	C	0.406929	0.896790	0.191935
	C181	C	0.626284	0.145766	0.190942
	C182	C	0.406961	0.147988	0.824256
	C183	C	0.627119	0.898468	0.828121
	C184	C	0.891929	0.203346	0.397087
	C185	C	0.139855	0.203137	0.617708
	C186	C	0.140281	0.840056	0.397439
	C187	C	0.893888	0.840247	0.619010
	C188	C	0.198040	0.411122	0.882723
	C189	C	0.196440	0.631460	0.130816
	C190	C	0.833825	0.410831	0.130650
	C191	C	0.833539	0.632872	0.883207
	C192	C	0.420118	0.112492	0.603420
	C193	C	0.613780	0.928856	0.606068
	C194	C	0.611895	0.112632	0.414176
	C195	C	0.420408	0.930701	0.413765
	C196	C	0.612275	0.426344	0.099902
	C197	C	0.611322	0.617512	0.916531
	C198	C	0.418667	0.616758	0.100094
	C199	C	0.418757	0.424771	0.916898
	C200	C	0.106947	0.618330	0.409685
	C201	C	0.924658	0.618293	0.603165
	C202	C	0.107247	0.425403	0.603945
	C203	C	0.925341	0.424770	0.411405
	C204	C	0.917941	0.613318	0.104415
	C205	C	0.111237	0.429515	0.102987
	C206	C	0.112141	0.612207	0.912068
	C207	C	0.918130	0.430694	0.911318
	C208	C	0.112261	0.925629	0.599108
	C209	C	0.112627	0.117015	0.415987
	C210	C	0.920453	0.117771	0.599114
	C211	C	0.919265	0.925410	0.416480
	C212	C	0.606767	0.119611	0.911823
	C213	C	0.425893	0.116706	0.104652
	C214	C	0.606958	0.925128	0.105444
	C215	C	0.425965	0.926114	0.912616
	Zn216	Zn	0.515980	0.021547	0.758335
	Zn217	Zn	0.516417	0.021614	0.260042
	Zn218	Zn	0.765093	0.522088	0.007486
	Zn219	Zn	0.265953	0.521502	0.007571
	Zn220	Zn	0.016050	0.771947	0.507203
	Zn221	Zn	0.016717	0.270725	0.506961
	Zn222	Zn	0.015495	0.522047	0.757461
	Zn223	Zn	0.015096	0.521363	0.256990
	Zn224	Zn	0.516087	0.770788	0.009004
	Zn225	Zn	0.515532	0.272454	0.009439
	Zn226	Zn	0.766316	0.021236	0.508779
	Zn227	Zn	0.265655	0.021790	0.508437
	N228	N	0.429520	0.985636	0.688034
	N229	N	0.602028	0.057413	0.687143
	N230	N	0.602000	0.985503	0.330387
	N231	N	0.427900	0.056689	0.327629
	N232	N	0.694949	0.435215	0.972354
	N233	N	0.696260	0.609638	0.042742
	N234	N	0.336032	0.608303	0.972321
	N235	N	0.334620	0.433597	0.043344
	N236	N	0.980370	0.702244	0.420014
	N237	N	0.052148	0.699959	0.592161
	N238	N	0.981413	0.340851	0.594642
	N239	N	0.051950	0.341190	0.420173
	N240	N	0.980516	0.435462	0.686897
	N241	N	0.050414	0.610116	0.688491
	N242	N	0.979642	0.608491	0.327405
	N243	N	0.051695	0.435094	0.327655
	N244	N	0.429192	0.701222	0.973118
	N245	N	0.602039	0.700429	0.044056
	N246	N	0.599979	0.344103	0.972267
	N247	N	0.427738	0.341041	0.044301
	N248	N	0.696330	0.986153	0.422103
	N249	N	0.698515	0.055376	0.597673
	N250	N	0.335828	0.986098	0.595313
	N251	N	0.335056	0.056613	0.420593
	N252	N	0.927065	0.486160	0.188309
	N253	N	0.100319	0.557295	0.185321
	N254	N	0.101354	0.485296	0.828282
	N255	N	0.928511	0.557849	0.827418
	N256	N	0.197081	0.933811	0.472905
	N257	N	0.196270	0.108809	0.543222
	N258	N	0.834813	0.109680	0.473390
	N259	N	0.836278	0.933978	0.543610
	N260	N	0.480199	0.202981	0.921314
	N261	N	0.551749	0.201474	0.095516
	N262	N	0.481308	0.840062	0.097319
	N263	N	0.552263	0.841915	0.922791
	N264	N	0.481287	0.933854	0.190183
	N265	N	0.551699	0.108737	0.189734
	N266	N	0.481500	0.111004	0.826078
	N267	N	0.552415	0.935203	0.828953
	N268	N	0.929525	0.201225	0.471723
	N269	N	0.103533	0.201439	0.542462
	N270	N	0.102976	0.841813	0.472050
	N271	N	0.930329	0.841963	0.543938
	N272	N	0.197102	0.486075	0.919372
	N273	N	0.195720	0.556240	0.094462
	N274	N	0.834742	0.486233	0.094384
	N275	N	0.834638	0.557818	0.920090
	O276	O	0.631926	0.463941	0.299744
	H277	H	0.614207	0.480967	0.306248
	H278	H	0.620380	0.472586	0.310444
	O279	O	0.894982	0.070009	0.939935
	H280	H	0.882090	0.056372	0.941775
	H281	H	0.905815	0.067091	0.945695
	O282	O	0.442390	0.352556	0.621427
	H283	H	0.455876	0.349029	0.611209
	H284	H	0.447350	0.344386	0.614185
	O285	O	0.542172	0.571448	0.713915
	H286	H	0.544247	0.564397	0.711980
	H287	H	0.542732	0.574298	0.719634
	O288	O	1.004140	1.080713	-0.014797
	H289	H	0.988775	1.078851	-0.016877
	H290	H	1.030512	1.077364	-0.008483
	O291	O	0.459267	0.643627	0.575637
	H292	H	0.447813	0.650635	0.569037
	H293	H	0.456003	0.637622	0.598783
	O294	O	-0.189010	0.049020	0.799688
	H295	H	-0.183800	0.072983	0.798091
	H296	H	-0.207175	0.066874	0.776622
	O297	O	0.340419	0.710596	0.316010
	H298	H	0.352323	0.704810	0.323025
	H299	H	0.326797	0.721416	0.322404
	O300	O	0.987428	0.856522	0.983522
	H301	H	0.969551	0.862453	0.999585
	H302	H	0.987369	0.849630	0.971885
	O303	O	0.718599	0.532416	0.683830
	H304	H	0.723223	0.534101	0.685723
	H305	H	0.727926	0.520865	0.677847
	O306	O	0.512586	0.430946	0.474028
	H307	H	0.508475	0.437486	0.484473
	H308	H	0.515972	0.433153	0.475657
	O309	O	0.708644	0.313598	0.516886
	H310	H	0.689304	0.308894	0.511170
	H311	H	0.730619	0.304345	0.501101
	O312	O	-0.301125	0.721944	0.533430
	H313	H	-0.296715	0.714304	0.532181
	H314	H	-0.295343	0.745151	0.532720
	O315	O	0.794382	0.286428	0.750522
	H316	H	0.817252	0.286814	0.742930
	H317	H	0.793670	0.279028	0.772913
	O318	O	1.577747	-0.373727	-0.386111
	H319	H	1.600407	-0.377097	-0.378060
	H320	H	1.583091	-0.371363	-0.379664
	O321	O	-0.175614	-0.135061	0.197844
	H322	H	-0.181109	-0.113755	0.201174
	H323	H	-0.148340	-0.126277	0.200677
	O324	O	0.449248	0.449904	0.565564
	H325	H	0.453524	0.457887	0.564628
	H326	H	0.441041	0.443878	0.575981
	O327	O	0.483407	0.437208	0.409909
	H328	H	0.499995	0.421668	0.405128
	H329	H	0.481778	0.448697	0.404890
	O330	O	-0.008260	0.819014	0.214370
	H331	H	-0.010297	0.797953	0.224626
	H332	H	0.005276	0.834761	0.223618
	O333	O	0.420338	0.551410	0.387288
	H334	H	0.425658	0.579630	0.395072
	H335	H	0.411305	0.556364	0.374330
	O336	O	-0.830743	0.024764	1.047542
	H337	H	-0.841655	0.017240	1.048132
	H338	H	-0.837348	0.008124	1.035068
	O339	O	0.039159	0.870844	1.036142
	H340	H	0.032503	0.869353	1.030553
	H341	H	0.051880	0.866301	1.025902
	O342	O	0.208330	0.827214	0.812519
	H343	H	0.182280	0.816782	0.824753
	H344	H	0.223654	0.849581	0.801254
	O345	O	1.050351	1.191729	0.086094
	H346	H	1.049744	1.187765	0.077209
	H347	H	1.054304	1.188727	0.088465
	O348	O	0.491301	0.724992	0.324978
	H349	H	0.480902	0.723254	0.328612
	H350	H	0.488026	0.740110	0.310181
	O351	O	0.333518	0.358107	0.694758
	H352	H	0.359229	0.365178	0.693592
	H353	H	0.342242	0.342046	0.674945
	O354	O	-0.034319	1.026175	-0.155673
	H355	H	-0.046220	1.025427	-0.169588
	H356	H	-0.036630	1.046119	-0.149450
	O357	O	-0.322787	-0.540697	1.356758
	H358	H	-0.310205	-0.516961	1.359418
	H359	H	-0.335095	-0.537009	1.357986
	O360	O	0.713979	0.558320	0.416049
	H361	H	0.708757	0.564054	0.406490
	H362	H	0.713378	0.554152	0.414116
	O363	O	0.057910	0.111324	0.861075
	H364	H	0.070638	0.094227	0.874983
	H365	H	0.056283	0.116913	0.869149
	O366	O	-0.092898	0.092098	0.170245
	H367	H	-0.082367	0.118904	0.175734
	H368	H	-0.090555	0.091052	0.144831
	O369	O	1.179388	0.109244	0.901866
	H370	H	1.188046	0.099113	0.916173
	H371	H	1.170017	0.095541	0.906659
	O372	O	0.816655	0.210158	0.920789
	H373	H	0.821223	0.215015	0.942108
	H374	H	0.824422	0.210069	0.925421
	O375	O	0.441007	0.692490	0.523089
	H376	H	0.424793	0.701895	0.528773
	H377	H	0.443888	0.684000	0.538696
	O378	O	0.325961	0.460998	0.559777
	H379	H	0.310886	0.473712	0.570971
	H380	H	0.338652	0.439265	0.557794
	O381	O	0.407141	0.521304	0.400370
	H382	H	0.405104	0.531650	0.399294
	H383	H	0.407996	0.522196	0.412487
	O384	O	0.237947	0.805426	-0.018966
	H385	H	0.246066	0.805901	-0.034352
	H386	H	0.258361	0.791185	-0.020285
	O387	O	-0.047674	0.236387	1.070122
	H388	H	-0.049565	0.247503	1.091489
	H389	H	-0.044809	0.232415	1.052044
	O390	O	0.231656	-0.001637	-0.201017
	H391	H	0.254158	0.000921	-0.221581
	H392	H	0.225370	-0.003055	-0.191009
	O393	O	1.112798	1.171724	1.224525
	H394	H	1.153743	1.166505	1.230066
	H395	H	1.107135	1.201942	1.244619
	O396	O	0.729668	-0.393796	0.289802
	H397	H	0.708885	-0.375254	0.290335
	H398	H	0.745425	-0.383758	0.266214
	O399	O	0.412833	-0.676792	0.517862
	H400	H	0.409865	-0.681900	0.513001
	H401	H	0.414107	-0.675779	0.518540
	O402	O	0.829964	0.937890	1.136263
	H403	H	0.855475	0.959838	1.142887
	H404	H	0.812145	0.925786	1.144134
	O405	O	1.221218	1.024103	0.159765
	H406	H	1.230006	1.018409	0.158968
	H407	H	1.222063	1.018545	0.159928
	O408	O	0.936334	-0.072086	-0.075861
	H409	H	0.929484	-0.067663	-0.075834
	H410	H	0.937395	-0.091379	-0.066858
	O411	O	0.991468	1.218840	-0.198880
	H412	H	1.006177	1.199198	-0.203011
	H413	H	1.003256	1.233164	-0.208599
	O414	O	0.054236	-0.164970	-0.177002
	H415	H	0.063931	-0.173499	-0.175049
	H416	H	0.036516	-0.172261	-0.186891
	O417	O	0.594802	0.640590	0.650359
	H418	H	0.604564	0.632153	0.655941
	H419	H	0.612828	0.643109	0.625758
	O420	O	-0.200471	0.008863	0.010516
	H421	H	-0.199850	0.008163	-0.000325
	H422	H	-0.207944	0.007672	0.007064
	O423	O	0.170525	0.212988	0.201588
	H424	H	0.173748	0.203573	0.203823
	H425	H	0.180358	0.205345	0.173744
	O426	O	0.551448	0.650671	0.506729
	H427	H	0.544475	0.647424	0.492139
	H428	H	0.544369	0.659663	0.492342
	O429	O	0.316702	0.668735	0.560738
	H430	H	0.325565	0.656812	0.563015
	H431	H	0.314967	0.663194	0.557327
	O432	O	0.356696	0.367305	0.530800
	H433	H	0.342638	0.361268	0.524889
	H434	H	0.360252	0.377014	0.523549
	O435	O	0.529236	0.330012	0.309453
	H436	H	0.529709	0.313319	0.310512
	H437	H	0.550958	0.326998	0.301810
	O438	O	0.211132	-0.111371	0.134216
	H439	H	0.182649	-0.103617	0.121360
	H440	H	0.207588	-0.111535	0.118311
	O441	O	0.854456	-0.128083	0.026045
	H442	H	0.829276	-0.143930	0.042101
	H443	H	0.854573	-0.103864	0.031610
	O444	O	0.061092	0.946683	1.211041
	H445	H	0.066357	0.962061	1.210821
	H446	H	0.061610	0.954789	1.208868
	O447	O	0.198894	1.230546	0.036432
	H448	H	0.193153	1.232128	0.034347
	H449	H	0.221454	1.244851	0.022276
	O450	O	0.668476	0.370144	0.610315
	H451	H	0.679004	0.362241	0.612631
	H452	H	0.675394	0.376233	0.608121
	O453	O	0.512067	0.645229	0.670984
	H454	H	0.499968	0.644228	0.682579
	H455	H	0.522570	0.647746	0.693550
