data_Molecule from HDF5

_cell_length_a		16.306665
_cell_length_b		16.371681
_cell_length_c		16.278590
_cell_angle_alpha	90.040002
_cell_angle_beta	89.926443
_cell_angle_gamma	90.212486
_symmetry_space_group_name_H-M	'P 1'
_symmetry_Int_Tables_number		1

loop_
	_symmetry_equiv_pos_as_xyz
	x,y,z

loop_
	_atom_site_label
	_atom_site_type_symbol
	_atom_site_fract_x
	_atom_site_fract_y
	_atom_site_fract_z
	H0	H	0.402332	0.837348	0.711458
	H1	H	0.601906	0.163003	0.710654
	H2	H	0.600226	0.837887	0.280515
	H3	H	0.405501	0.164019	0.282658
	H4	H	0.713554	0.404651	0.831851
	H5	H	0.714382	0.598366	0.159530
	H6	H	0.285697	0.600542	0.832593
	H7	H	0.285119	0.402938	0.160784
	H8	H	0.836734	0.715139	0.396139
	H9	H	0.163517	0.715323	0.594122
	H10	H	0.838172	0.281778	0.596265
	H11	H	0.163475	0.285210	0.394955
	H12	H	0.836832	0.400540	0.710988
	H13	H	0.163109	0.600654	0.711101
	H14	H	0.835856	0.596700	0.283048
	H15	H	0.163329	0.403513	0.280327
	H16	H	0.402479	0.716062	0.832588
	H17	H	0.600778	0.716235	0.159259
	H18	H	0.600418	0.285432	0.833250
	H19	H	0.400646	0.285820	0.160322
	H20	H	0.715680	0.836842	0.397078
	H21	H	0.718105	0.162672	0.595008
	H22	H	0.284700	0.837667	0.596130
	H23	H	0.285726	0.162577	0.394647
	H24	H	0.900301	0.338330	0.210505
	H25	H	0.098692	0.663317	0.211285
	H26	H	0.098812	0.338655	0.779424
	H27	H	0.902375	0.663342	0.781118
	H28	H	0.215445	0.902263	0.331845
	H29	H	0.216522	0.099389	0.659438
	H30	H	0.788398	0.097232	0.331712
	H31	H	0.785557	0.900196	0.658705
	H32	H	0.337149	0.215390	0.896977
	H33	H	0.663735	0.218239	0.096553
	H34	H	0.337567	0.785230	0.096425
	H35	H	0.664227	0.786335	0.897147
	H36	H	0.338087	0.903165	0.211217
	H37	H	0.665182	0.099924	0.209829
	H38	H	0.338379	0.099107	0.780013
	H39	H	0.665301	0.903711	0.782082
	H40	H	0.902857	0.214196	0.332342
	H41	H	0.102532	0.217518	0.658654
	H42	H	0.100069	0.784724	0.332393
	H43	H	0.900443	0.783998	0.658984
	H44	H	0.215328	0.338066	0.895905
	H45	H	0.216016	0.663438	0.096313
	H46	H	0.783979	0.338453	0.095086
	H47	H	0.787666	0.664349	0.898393
	H48	H	0.411313	0.114232	0.586990
	H49	H	0.582967	0.889514	0.584420
	H50	H	0.599916	0.117605	0.400670
	H51	H	0.411495	0.887705	0.407992
	H52	H	0.583515	0.403922	0.111125
	H53	H	0.592386	0.586827	0.882053
	H54	H	0.411040	0.593920	0.111060
	H55	H	0.405170	0.411862	0.880967
	H56	H	0.115414	0.587042	0.398069
	H57	H	0.886896	0.590218	0.583117
	H58	H	0.115925	0.410363	0.589932
	H59	H	0.886373	0.413236	0.404910
	H60	H	0.115371	0.405928	0.585559
	H61	H	0.884237	0.590255	0.593250
	H62	H	0.117897	0.600115	0.401182
	H63	H	0.881680	0.402808	0.395739
	H64	H	0.406226	0.597333	0.113829
	H65	H	0.587191	0.601606	0.879237
	H66	H	0.600618	0.405278	0.116223
	H67	H	0.412165	0.409323	0.882895
	H68	H	0.592726	0.115287	0.401275
	H69	H	0.605519	0.883173	0.581659
	H70	H	0.408277	0.114627	0.586332
	H71	H	0.403110	0.884573	0.404326
	H72	H	0.903653	0.619523	0.096715
	H73	H	0.085564	0.387868	0.088524
	H74	H	0.086109	0.613101	0.907838
	H75	H	0.910232	0.385295	0.899378
	H76	H	0.089696	0.899268	0.612698
	H77	H	0.087223	0.088221	0.384082
	H78	H	0.918514	0.093041	0.609611
	H79	H	0.900824	0.906476	0.376955
	H80	H	0.616092	0.090654	0.904237
	H81	H	0.386722	0.091713	0.086887
	H82	H	0.615306	0.911836	0.085847
	H83	H	0.386659	0.909717	0.905928
	H84	H	0.618221	0.907975	0.092548
	H85	H	0.384840	0.092049	0.092530
	H86	H	0.618269	0.096565	0.900303
	H87	H	0.385085	0.908511	0.901051
	H88	H	0.905573	0.096349	0.614261
	H89	H	0.093192	0.101613	0.376913
	H90	H	0.101747	0.907888	0.614171
	H91	H	0.912313	0.913668	0.382294
	H92	H	0.101494	0.616867	0.907739
	H93	H	0.095512	0.386428	0.081427
	H94	H	0.914178	0.615263	0.089820
	H95	H	0.908640	0.387436	0.907881
	H96	H	0.409224	0.115517	0.589701
	H97	H	0.594559	0.880548	0.601739
	H98	H	0.597237	0.114650	0.407427
	H99	H	0.410879	0.884803	0.398980
	H100	H	0.592786	0.419284	0.109383
	H101	H	0.602352	0.597747	0.876140
	H102	H	0.405873	0.591764	0.112156
	H103	H	0.407003	0.404278	0.879435
	H104	H	0.112893	0.592147	0.411141
	H105	H	0.882377	0.598899	0.586717
	H106	H	0.113707	0.411949	0.584588
	H107	H	0.884445	0.399964	0.410038
	H108	H	0.902420	0.616714	0.083723
	H109	H	0.095406	0.383536	0.093769
	H110	H	0.093221	0.618533	0.893924
	H111	H	0.901523	0.383911	0.902847
	H112	H	0.088674	0.913712	0.608723
	H113	H	0.102152	0.088893	0.378886
	H114	H	0.908343	0.083600	0.609381
	H115	H	0.913769	0.899583	0.378304
	H116	H	0.616569	0.097417	0.907454
	H117	H	0.384604	0.096805	0.088804
	H118	H	0.617696	0.903617	0.085527
	H119	H	0.385219	0.904654	0.905294
	C120	C	0.379789	0.007950	0.617273
	C121	C	0.623875	0.991982	0.617873
	C122	C	0.624302	0.008161	0.374160
	C123	C	0.380282	0.992878	0.374496
	C124	C	0.621515	0.380252	0.004419
	C125	C	0.622505	0.622934	0.987441
	C126	C	0.379272	0.623031	0.004421
	C127	C	0.378778	0.379302	0.988976
	C128	C	0.007724	0.621517	0.374760
	C129	C	0.991880	0.622229	0.617032
	C130	C	0.008083	0.378893	0.616871
	C131	C	0.991868	0.377841	0.373743
	C132	C	0.877917	0.509267	0.117800
	C133	C	0.121194	0.493143	0.117294
	C134	C	0.122343	0.509034	0.873859
	C135	C	0.878992	0.492837	0.874614
	C136	C	0.122262	0.878565	0.504049
	C137	C	0.123644	0.122435	0.487615
	C138	C	0.881028	0.120270	0.503643
	C139	C	0.879959	0.878136	0.487157
	C140	C	0.509159	0.122882	0.874814
	C141	C	0.493190	0.122684	0.117958
	C142	C	0.509574	0.879203	0.117522
	C143	C	0.493373	0.879383	0.874981
	C144	C	0.381887	0.885727	0.673101
	C145	C	0.622094	0.114453	0.672821
	C146	C	0.620248	0.885974	0.319077
	C147	C	0.383806	0.114897	0.319344
	C148	C	0.676287	0.383421	0.881072
	C149	C	0.677154	0.619953	0.110578
	C150	C	0.324007	0.620694	0.881300
	C151	C	0.323057	0.382197	0.111787
	C152	C	0.885156	0.676663	0.376649
	C153	C	0.114778	0.677581	0.614782
	C154	C	0.886314	0.321157	0.616049
	C155	C	0.114606	0.323308	0.374904
	C156	C	0.885564	0.380125	0.672875
	C157	C	0.114645	0.620226	0.672578
	C158	C	0.884791	0.618199	0.320142
	C159	C	0.114412	0.381730	0.317733
	C160	C	0.382013	0.677948	0.881291
	C161	C	0.620169	0.677864	0.110601
	C162	C	0.619977	0.324293	0.881795
	C163	C	0.380371	0.323887	0.111487
	C164	C	0.677869	0.885499	0.376705
	C165	C	0.679978	0.114066	0.615106
	C166	C	0.323625	0.885967	0.615790
	C167	C	0.324368	0.114446	0.375455
	C168	C	0.880036	0.386767	0.172605
	C169	C	0.119155	0.615146	0.173272
	C170	C	0.119537	0.386956	0.817849
	C171	C	0.881741	0.614971	0.819051
	C172	C	0.177751	0.881519	0.380838
	C173	C	0.178970	0.120538	0.610429
	C174	C	0.825423	0.118062	0.380746
	C175	C	0.823815	0.879838	0.610096
	C176	C	0.386261	0.177755	0.876406
	C177	C	0.615405	0.179464	0.116500
	C178	C	0.386352	0.823638	0.116306
	C179	C	0.615830	0.824383	0.876921
	C180	C	0.386563	0.882184	0.173175
	C181	C	0.616332	0.120450	0.172420
	C182	C	0.386614	0.119721	0.818641
	C183	C	0.616261	0.882713	0.819754
	C184	C	0.882530	0.175957	0.380942
	C185	C	0.122193	0.178933	0.609987
	C186	C	0.120384	0.823319	0.380906
	C187	C	0.881013	0.822287	0.610165
	C188	C	0.177494	0.386809	0.875598
	C189	C	0.177237	0.615223	0.115682
	C190	C	0.821834	0.387235	0.115666
	C191	C	0.824904	0.615522	0.877490
	C192	C	0.402732	0.092958	0.594451
	C193	C	0.600989	0.906460	0.595769
	C194	C	0.602978	0.093847	0.396465
	C195	C	0.402042	0.907581	0.397209
	C196	C	0.598835	0.402800	0.090234
	C197	C	0.600376	0.601787	0.901450
	C198	C	0.401118	0.600775	0.090176
	C199	C	0.401327	0.401967	0.903165
	C200	C	0.093305	0.599436	0.397114
	C201	C	0.906525	0.599564	0.594533
	C202	C	0.093076	0.402522	0.593574
	C203	C	0.906269	0.399157	0.396615
	C204	C	0.900219	0.595019	0.096207
	C205	C	0.098706	0.407946	0.094482
	C206	C	0.100180	0.594066	0.896465
	C207	C	0.900573	0.407541	0.896800
	C208	C	0.100127	0.900630	0.589605
	C209	C	0.100933	0.099733	0.402200
	C210	C	0.903976	0.097644	0.589092
	C211	C	0.902329	0.900021	0.401491
	C212	C	0.594642	0.101222	0.897450
	C213	C	0.407735	0.100086	0.095825
	C214	C	0.595011	0.901252	0.094605
	C215	C	0.407819	0.901303	0.897529
	Zn216	Zn	0.501788	0.000449	0.746080
	Zn217	Zn	0.502383	0.000701	0.245757
	Zn218	Zn	0.750251	0.501292	-0.004286
	Zn219	Zn	0.250553	0.501392	-0.003856
	Zn220	Zn	0.000374	0.750029	0.495544
	Zn221	Zn	0.001060	0.249340	0.495887
	Zn222	Zn	-0.000304	0.500885	0.745296
	Zn223	Zn	-0.000639	0.500589	0.246170
	Zn224	Zn	0.500766	0.750897	-0.003845
	Zn225	Zn	0.500627	0.250999	-0.003255
	Zn226	Zn	0.752289	-0.000444	0.495788
	Zn227	Zn	0.250871	0.000288	0.495876
	N228	N	0.416134	0.962665	0.674278
	N229	N	0.587990	0.037537	0.674549
	N230	N	0.587655	0.963335	0.317330
	N231	N	0.417741	0.038139	0.318703
	N232	N	0.677470	0.417497	0.958516
	N233	N	0.678595	0.586272	0.033283
	N234	N	0.322327	0.587100	0.958689
	N235	N	0.321680	0.415911	0.034251
	N236	N	0.962738	0.678953	0.409686
	N237	N	0.037650	0.678981	0.580987
	N238	N	0.963639	0.320419	0.581847
	N239	N	0.037477	0.320734	0.408944
	N240	N	0.962327	0.415223	0.673463
	N241	N	0.037192	0.586487	0.674154
	N242	N	0.961973	0.584385	0.318935
	N243	N	0.036976	0.414724	0.316833
	N244	N	0.415490	0.679554	0.958854
	N245	N	0.586764	0.679875	0.032978
	N246	N	0.586426	0.322585	0.959403
	N247	N	0.414098	0.322132	0.034060
	N248	N	0.680216	0.962423	0.410535
	N249	N	0.680946	0.036895	0.581439
	N250	N	0.322443	0.962857	0.581672
	N251	N	0.321967	0.037275	0.409112
	N252	N	0.914216	0.463729	0.174203
	N253	N	0.084759	0.538310	0.174185
	N254	N	0.086109	0.463981	0.816361
	N255	N	0.914732	0.537852	0.817361
	N256	N	0.179057	0.915171	0.458371
	N257	N	0.180195	0.086224	0.533327
	N258	N	0.824392	0.084248	0.458152
	N259	N	0.823119	0.914083	0.533112
	N260	N	0.463425	0.179804	0.910432
	N261	N	0.537914	0.180951	0.083384
	N262	N	0.463732	0.821679	0.082363
	N263	N	0.538557	0.822043	0.910281
	N264	N	0.463886	0.916049	0.174016
	N265	N	0.539266	0.085973	0.173789
	N266	N	0.463929	0.086309	0.817302
	N267	N	0.539086	0.916451	0.818699
	N268	N	0.916488	0.177373	0.458143
	N269	N	0.088634	0.180266	0.532566
	N270	N	0.086485	0.821410	0.458246
	N271	N	0.915293	0.821092	0.532686
	N272	N	0.179303	0.463623	0.909770
	N273	N	0.178732	0.538362	0.081786
	N274	N	0.820587	0.464269	0.082153
	N275	N	0.822776	0.538482	0.911144
	O276	O	1.438433	0.471147	0.506696
	H277	H	1.437136	0.477673	0.510163
	H278	H	1.436332	0.469336	0.505819
	O279	O	-0.009491	0.060825	0.028602
	H280	H	-0.005992	0.055478	0.030683
	H281	H	-0.014085	0.064276	0.029433
	O282	O	0.070720	0.046443	0.946964
	H283	H	0.073705	0.049994	0.942363
	H284	H	0.079020	0.044224	0.947386
	O285	O	0.424622	0.479483	0.531002
	H286	H	0.413690	0.480496	0.529597
	H287	H	0.426974	0.478861	0.527241
	O288	O	0.384780	0.400431	0.567598
	H289	H	0.393375	0.412436	0.568130
	H290	H	0.373485	0.389085	0.565274
	O291	O	0.377248	0.454720	0.539368
	H292	H	0.377731	0.462200	0.542313
	H293	H	0.376874	0.451483	0.542374
	O294	O	0.072000	0.082121	-0.026664
	H295	H	0.070988	0.081293	-0.013078
	H296	H	0.082444	0.082185	-0.028964
	O297	O	0.458836	0.475859	0.494584
	H298	H	0.451793	0.466423	0.498952
	H299	H	0.456316	0.466605	0.499411
	O300	O	0.017677	1.020072	0.977667
	H301	H	0.015277	1.017552	0.977263
	H302	H	0.019611	1.023854	0.978917
	O303	O	0.409053	0.507451	0.531284
	H304	H	0.413111	0.510278	0.529767
	H305	H	0.403243	0.503910	0.523959
	O306	O	0.017959	0.069837	0.987026
	H307	H	0.017416	0.062882	0.991877
	H308	H	0.013666	0.071627	0.998546
	O309	O	1.026184	1.062327	0.948052
	H310	H	1.023592	1.057725	0.948522
	H311	H	1.018488	1.066763	0.930857
	O312	O	0.427308	0.381191	0.572473
	H313	H	0.415003	0.376872	0.582324
	H314	H	0.423158	0.373998	0.582396
	O315	O	0.410230	0.446575	0.509447
	H316	H	0.406465	0.442798	0.509465
	H317	H	0.421085	0.439825	0.510907
	O318	O	-0.002175	1.023983	-0.004407
	H319	H	0.003312	1.022149	0.000572
	H320	H	0.001834	1.030072	0.005947
	O321	O	1.007634	1.072987	-0.044615
	H322	H	1.005204	1.079852	-0.046991
	H323	H	1.002986	1.073414	-0.051621
