data_Molecule from HDF5

_cell_length_a		16.473565
_cell_length_b		16.267108
_cell_length_c		16.118248
_cell_angle_alpha	89.867975
_cell_angle_beta	90.247516
_cell_angle_gamma	89.926623
_symmetry_space_group_name_H-M	'P 1'
_symmetry_Int_Tables_number		1

loop_
	_symmetry_equiv_pos_as_xyz
	x,y,z

loop_
	_atom_site_label
	_atom_site_type_symbol
	_atom_site_fract_x
	_atom_site_fract_y
	_atom_site_fract_z
	H0	H	0.411328	0.833171	0.701735
	H1	H	0.601636	0.162850	0.704474
	H2	H	0.600286	0.833279	0.281604
	H3	H	0.408736	0.162880	0.278293
	H4	H	0.717148	0.397778	0.826955
	H5	H	0.719360	0.597875	0.155718
	H6	H	0.286653	0.599052	0.827850
	H7	H	0.288493	0.396575	0.156685
	H8	H	0.844255	0.716551	0.389881
	H9	H	0.166841	0.713728	0.593106
	H10	H	0.843226	0.280534	0.590641
	H11	H	0.166642	0.281948	0.392842
	H12	H	0.840656	0.400275	0.704269
	H13	H	0.165883	0.595380	0.709538
	H14	H	0.842667	0.596588	0.276134
	H15	H	0.167380	0.401751	0.277867
	H16	H	0.404117	0.712100	0.827526
	H17	H	0.600948	0.708922	0.157720
	H18	H	0.599478	0.284924	0.825730
	H19	H	0.407301	0.284405	0.157196
	H20	H	0.722979	0.836981	0.389411
	H21	H	0.722630	0.160951	0.594608
	H22	H	0.287890	0.836978	0.595103
	H23	H	0.288247	0.161723	0.389635
	H24	H	0.908301	0.333355	0.204226
	H25	H	0.099401	0.662689	0.202681
	H26	H	0.097587	0.332813	0.781519
	H27	H	0.904811	0.662063	0.777162
	H28	H	0.220622	0.897889	0.327786
	H29	H	0.221315	0.099929	0.655567
	H30	H	0.788642	0.100031	0.327952
	H31	H	0.789450	0.895701	0.655345
	H32	H	0.342546	0.214310	0.890597
	H33	H	0.665524	0.213785	0.091950
	H34	H	0.341520	0.781615	0.092656
	H35	H	0.664947	0.780208	0.894659
	H36	H	0.342138	0.899116	0.208287
	H37	H	0.667754	0.092533	0.204562
	H38	H	0.341392	0.094658	0.776461
	H39	H	0.667003	0.898800	0.778973
	H40	H	0.906834	0.211267	0.326450
	H41	H	0.103449	0.210932	0.656457
	H42	H	0.102380	0.786940	0.326097
	H43	H	0.908185	0.784659	0.656395
	H44	H	0.220236	0.335501	0.889965
	H45	H	0.220715	0.659277	0.094431
	H46	H	0.787450	0.334452	0.092796
	H47	H	0.784611	0.660464	0.887956
	H48	H	0.410090	0.115593	0.580499
	H49	H	0.590836	0.884965	0.584301
	H50	H	0.597436	0.112582	0.408753
	H51	H	0.409887	0.882039	0.402062
	H52	H	0.590903	0.401525	0.108642
	H53	H	0.601668	0.589365	0.871980
	H54	H	0.400022	0.585063	0.111623
	H55	H	0.413264	0.404729	0.874910
	H56	H	0.121341	0.597131	0.401585
	H57	H	0.891385	0.590141	0.585071
	H58	H	0.118110	0.404483	0.582926
	H59	H	0.890316	0.407756	0.396290
	H60	H	0.118507	0.407353	0.588122
	H61	H	0.888467	0.595824	0.584428
	H62	H	0.118348	0.587966	0.399608
	H63	H	0.888872	0.401560	0.396471
	H64	H	0.417864	0.582050	0.105087
	H65	H	0.591404	0.582373	0.877380
	H66	H	0.602630	0.402608	0.111801
	H67	H	0.405964	0.403574	0.872227
	H68	H	0.608553	0.118750	0.396262
	H69	H	0.603983	0.883077	0.575067
	H70	H	0.410411	0.116103	0.584432
	H71	H	0.410885	0.882543	0.400715
	H72	H	0.912171	0.611793	0.077417
	H73	H	0.095292	0.381230	0.084657
	H74	H	0.087184	0.612391	0.897376
	H75	H	0.903631	0.380974	0.902111
	H76	H	0.103350	0.903628	0.611489
	H77	H	0.104394	0.082691	0.374212
	H78	H	0.910439	0.089137	0.610865
	H79	H	0.914077	0.913572	0.376951
	H80	H	0.617452	0.081499	0.893029
	H81	H	0.387611	0.096999	0.082465
	H82	H	0.619012	0.903535	0.089522
	H83	H	0.387583	0.902174	0.894190
	H84	H	0.619593	0.898060	0.084912
	H85	H	0.391629	0.085998	0.079287
	H86	H	0.623564	0.101184	0.894897
	H87	H	0.389446	0.902448	0.900228
	H88	H	0.913263	0.086961	0.608921
	H89	H	0.087390	0.086820	0.377595
	H90	H	0.099182	0.912999	0.608162
	H91	H	0.916919	0.902950	0.374279
	H92	H	0.096065	0.610634	0.910643
	H93	H	0.097449	0.381820	0.082441
	H94	H	0.902166	0.616147	0.081859
	H95	H	0.908935	0.380204	0.895449
	H96	H	0.413483	0.114827	0.582441
	H97	H	0.604398	0.878477	0.591459
	H98	H	0.591361	0.115198	0.392114
	H99	H	0.412067	0.882497	0.401926
	H100	H	0.596620	0.411957	0.106732
	H101	H	0.590172	0.595385	0.874089
	H102	H	0.412898	0.598820	0.112284
	H103	H	0.408246	0.410850	0.875787
	H104	H	0.122235	0.593857	0.391710
	H105	H	0.890755	0.593538	0.579133
	H106	H	0.120014	0.401931	0.587535
	H107	H	0.890870	0.404152	0.402298
	H108	H	0.911510	0.614894	0.088021
	H109	H	0.098945	0.380004	0.085555
	H110	H	0.101983	0.616860	0.897695
	H111	H	0.911043	0.383098	0.902486
	H112	H	0.093101	0.904578	0.608645
	H113	H	0.098487	0.099055	0.370208
	H114	H	0.913807	0.091090	0.609138
	H115	H	0.906825	0.907138	0.371818
	H116	H	0.615496	0.091060	0.911436
	H117	H	0.388782	0.088714	0.090357
	H118	H	0.617276	0.904198	0.083140
	H119	H	0.389860	0.907786	0.897103
	C120	C	0.383639	0.007149	0.612204
	C121	C	0.627718	0.990293	0.613234
	C122	C	0.626840	0.007113	0.370687
	C123	C	0.382905	0.990399	0.371141
	C124	C	0.624622	0.376734	-0.000175
	C125	C	0.623827	0.617963	0.983461
	C126	C	0.381382	0.618361	0.000814
	C127	C	0.381264	0.376523	0.983353
	C128	C	0.013607	0.621255	0.368685
	C129	C	0.996596	0.621392	0.613808
	C130	C	0.012207	0.375643	0.614146
	C131	C	0.997022	0.376234	0.369901
	C132	C	0.881420	0.506076	0.112170
	C133	C	0.125489	0.488855	0.113059
	C134	C	0.123904	0.505851	0.872008
	C135	C	0.879786	0.489681	0.869763
	C136	C	0.126941	0.878062	0.500309
	C137	C	0.126001	0.119170	0.482838
	C138	C	0.883689	0.119026	0.500446
	C139	C	0.884129	0.877911	0.483066
	C140	C	0.511962	0.119831	0.869913
	C141	C	0.496118	0.118957	0.113396
	C142	C	0.511605	0.874514	0.114504
	C143	C	0.495864	0.875076	0.869601
	C144	C	0.388759	0.883046	0.666057
	C145	C	0.623979	0.113380	0.668298
	C146	C	0.622560	0.883108	0.317262
	C147	C	0.386691	0.113713	0.315411
	C148	C	0.679222	0.378189	0.876048
	C149	C	0.680803	0.617067	0.106836
	C150	C	0.325359	0.617970	0.876915
	C151	C	0.326692	0.377554	0.107447
	C152	C	0.892052	0.677538	0.370402
	C153	C	0.118283	0.675734	0.613154
	C154	C	0.891034	0.319195	0.610884
	C155	C	0.118689	0.320623	0.372078
	C156	C	0.889623	0.378579	0.667694
	C157	C	0.117916	0.616703	0.670807
	C158	C	0.891031	0.617872	0.313984
	C159	C	0.118989	0.379969	0.315129
	C160	C	0.383554	0.674260	0.876746
	C161	C	0.621757	0.672241	0.107914
	C162	C	0.620299	0.322481	0.875244
	C163	C	0.385485	0.321511	0.107718
	C164	C	0.683381	0.884805	0.370909
	C165	C	0.683618	0.112641	0.612988
	C166	C	0.327379	0.884946	0.612796
	C167	C	0.326520	0.113005	0.370391
	C168	C	0.886228	0.382529	0.167162
	C169	C	0.121145	0.613050	0.166707
	C170	C	0.119514	0.382220	0.817941
	C171	C	0.883512	0.612873	0.814365
	C172	C	0.182735	0.878487	0.376858
	C173	C	0.182649	0.119050	0.606487
	C174	C	0.827172	0.119166	0.376977
	C175	C	0.828010	0.877397	0.606403
	C176	C	0.390513	0.175452	0.870862
	C177	C	0.617619	0.174711	0.111655
	C178	C	0.389997	0.819945	0.112282
	C179	C	0.617163	0.819126	0.873716
	C180	C	0.390213	0.878071	0.170271
	C181	C	0.618654	0.114751	0.168051
	C182	C	0.390101	0.116272	0.813922
	C183	C	0.618206	0.877824	0.816037
	C184	C	0.886334	0.174262	0.376177
	C185	C	0.123937	0.174092	0.607037
	C186	C	0.124022	0.823065	0.376112
	C187	C	0.887094	0.821900	0.606902
	C188	C	0.180474	0.383612	0.871906
	C189	C	0.181564	0.611365	0.113103
	C190	C	0.826390	0.383093	0.111623
	C191	C	0.823461	0.611976	0.869210
	C192	C	0.405109	0.093259	0.589233
	C193	C	0.606238	0.904467	0.590301
	C194	C	0.605442	0.093173	0.392620
	C195	C	0.404543	0.904457	0.394715
	C196	C	0.603063	0.398753	0.086674
	C197	C	0.600976	0.595550	0.896856
	C198	C	0.403680	0.595394	0.087360
	C199	C	0.402806	0.399447	0.896659
	C200	C	0.098474	0.599467	0.391049
	C201	C	0.912004	0.599740	0.589785
	C202	C	0.096965	0.398127	0.592675
	C203	C	0.912177	0.398227	0.391804
	C204	C	0.902465	0.592189	0.089221
	C205	C	0.103753	0.403080	0.090780
	C206	C	0.101611	0.591402	0.895200
	C207	C	0.901570	0.403630	0.893147
	C208	C	0.105141	0.900662	0.587018
	C209	C	0.103301	0.096283	0.396330
	C210	C	0.906077	0.095885	0.587293
	C211	C	0.906187	0.901145	0.396570
	C212	C	0.596933	0.097618	0.892968
	C213	C	0.411315	0.096883	0.090649
	C214	C	0.596780	0.895785	0.092366
	C215	C	0.410983	0.897613	0.891103
	Zn216	Zn	0.504876	-0.001745	0.740281
	Zn217	Zn	0.504450	-0.002600	0.243223
	Zn218	Zn	0.752260	0.497897	-0.009014
	Zn219	Zn	0.253382	0.498067	-0.007463
	Zn220	Zn	0.005864	0.750521	0.490933
	Zn221	Zn	0.005110	0.246048	0.491734
	Zn222	Zn	0.002817	0.497787	0.743032
	Zn223	Zn	0.004137	0.498292	0.240189
	Zn224	Zn	0.502867	0.745505	-0.007438
	Zn225	Zn	0.503711	0.249375	-0.008513
	Zn226	Zn	0.755984	-0.001171	0.491618
	Zn227	Zn	0.254131	-0.000689	0.491893
	N228	N	0.423041	0.959981	0.665679
	N229	N	0.589911	0.036381	0.668661
	N230	N	0.587960	0.960066	0.317030
	N231	N	0.421106	0.036649	0.315795
	N232	N	0.681724	0.411248	0.954446
	N233	N	0.682063	0.583895	0.028280
	N234	N	0.323776	0.584198	0.955175
	N235	N	0.324149	0.411115	0.029118
	N236	N	0.969138	0.679621	0.403708
	N237	N	0.041972	0.678723	0.578493
	N238	N	0.968208	0.317168	0.578349
	N239	N	0.041967	0.318188	0.405399
	N240	N	0.965837	0.412952	0.669737
	N241	N	0.040989	0.583680	0.671367
	N242	N	0.967410	0.583666	0.312580
	N243	N	0.042285	0.413733	0.313556
	N244	N	0.417659	0.674678	0.954836
	N245	N	0.587026	0.672970	0.030222
	N246	N	0.586792	0.321732	0.953386
	N247	N	0.418749	0.320784	0.029403
	N248	N	0.686000	0.962769	0.403588
	N249	N	0.686209	0.034963	0.579627
	N250	N	0.324211	0.963142	0.579862
	N251	N	0.324230	0.035218	0.404294
	N252	N	0.919745	0.459935	0.167814
	N253	N	0.086794	0.535903	0.166845
	N254	N	0.084793	0.459216	0.817976
	N255	N	0.917871	0.535770	0.814587
	N256	N	0.184514	0.911984	0.455131
	N257	N	0.184051	0.085537	0.528198
	N258	N	0.825609	0.085657	0.455280
	N259	N	0.825972	0.911312	0.528113
	N260	N	0.467197	0.177763	0.904855
	N261	N	0.540514	0.177467	0.078365
	N262	N	0.466385	0.817820	0.078447
	N263	N	0.540168	0.817420	0.906183
	N264	N	0.466918	0.911488	0.171507
	N265	N	0.542211	0.080726	0.169001
	N266	N	0.466731	0.082261	0.813374
	N267	N	0.541663	0.911821	0.813031
	N268	N	0.920697	0.174355	0.454275
	N269	N	0.089138	0.173955	0.529282
	N270	N	0.090229	0.822414	0.454014
	N271	N	0.921107	0.821944	0.529131
	N272	N	0.183333	0.461638	0.904806
	N273	N	0.184350	0.533374	0.080460
	N274	N	0.823125	0.461057	0.078212
	N275	N	0.821271	0.534337	0.902884
	O276	O	1.091156	0.980285	-0.055717
	H277	H	1.090147	0.974573	-0.053636
	H278	H	1.102016	0.977346	-0.056947
	O279	O	0.074521	-0.065324	0.991738
	H280	H	0.074304	-0.063216	0.993948
	H281	H	0.076107	-0.079596	0.988413
	O282	O	-0.081600	-0.045745	0.082604
	H283	H	-0.077117	-0.047628	0.093456
	H284	H	-0.080850	-0.044916	0.081389
	O285	O	0.456861	0.542496	0.447246
	H286	H	0.461531	0.537859	0.449509
	H287	H	0.451840	0.538891	0.445339
	O288	O	0.045855	-0.058564	0.008697
	H289	H	0.043004	-0.061996	0.001323
	H290	H	0.035053	-0.062348	0.009816
	O291	O	-0.054086	0.975540	-0.095016
	H292	H	-0.060493	0.981821	-0.083939
	H293	H	-0.051532	0.964105	-0.093812
	O294	O	-0.129279	0.973127	0.032536
	H295	H	-0.145309	0.971334	0.026882
	H296	H	-0.123289	0.975273	0.021351
	O297	O	0.504744	0.585132	0.511161
	H298	H	0.504346	0.587462	0.513867
	H299	H	0.501889	0.600077	0.516227
	O300	O	0.600917	0.579681	0.515261
	H301	H	0.613382	0.579444	0.524094
	H302	H	0.595332	0.581791	0.511730
	O303	O	0.975853	0.011489	1.032197
	H304	H	0.990473	0.015829	1.026126
	H305	H	0.983067	0.019380	1.033653
	O306	O	-0.075360	1.030604	0.913550
	H307	H	-0.071518	1.036516	0.908697
	H308	H	-0.077661	1.038525	0.912391
	O309	O	0.114381	0.915585	0.959242
	H310	H	0.107316	0.916037	0.961275
	H311	H	0.112934	0.913259	0.957857
	O312	O	-0.017899	0.018405	1.091573
	H313	H	-0.021134	0.017794	1.095533
	H314	H	-0.017709	0.023838	1.084974
	O315	O	0.528054	0.571332	0.540711
	H316	H	0.532911	0.570224	0.543549
	H317	H	0.519350	0.579560	0.530583
	O318	O	-0.053280	-0.027201	1.054491
	H319	H	-0.054133	-0.022396	1.048432
	H320	H	-0.058455	-0.024771	1.061997
	O321	O	0.545384	0.591483	0.455030
	H322	H	0.539780	0.595789	0.450227
	H323	H	0.544592	0.587576	0.460299
	O324	O	1.026478	0.015065	0.928803
	H325	H	1.034472	0.021805	0.922976
	H326	H	1.018279	0.009773	0.922466
	O327	O	0.997185	1.025626	0.995136
	H328	H	0.995705	1.025176	0.994274
	H329	H	1.002913	1.026842	0.998423
	O330	O	0.541154	0.565866	0.468736
	H331	H	0.551441	0.567528	0.456615
	H332	H	0.535890	0.570498	0.467947
	O333	O	0.044692	0.077485	0.943090
	H334	H	0.051538	0.074122	0.956149
	H335	H	0.040549	0.073085	0.930959
	O336	O	1.100893	0.020801	1.008100
	H337	H	1.098284	0.009397	0.993791
	H338	H	1.096531	0.017797	1.015247
	O339	O	0.577700	0.548401	0.534814
	H340	H	0.574150	0.542928	0.536771
	H341	H	0.578570	0.544022	0.531273
	O342	O	0.013353	1.061887	-0.081804
	H343	H	0.017023	1.067184	-0.079129
	H344	H	0.011952	1.064615	-0.074119
	O345	O	0.573043	0.571142	0.565064
	H346	H	0.578899	0.574190	0.569789
	H347	H	0.577784	0.571712	0.567422
