data_Molecule from HDF5

_cell_length_a		16.350378
_cell_length_b		16.286963
_cell_length_c		16.284885
_cell_angle_alpha	90.261271
_cell_angle_beta	89.599472
_cell_angle_gamma	89.636328
_symmetry_space_group_name_H-M	'P 1'
_symmetry_Int_Tables_number		1

loop_
	_symmetry_equiv_pos_as_xyz
	x,y,z

loop_
	_atom_site_label
	_atom_site_type_symbol
	_atom_site_fract_x
	_atom_site_fract_y
	_atom_site_fract_z
	H0	H	0.393786	0.835550	0.717144
	H1	H	0.586894	0.162183	0.718685
	H2	H	0.592208	0.834899	0.288747
	H3	H	0.393566	0.162707	0.290235
	H4	H	0.706724	0.397330	0.839319
	H5	H	0.704166	0.595680	0.166909
	H6	H	0.277425	0.595888	0.839819
	H7	H	0.275531	0.399671	0.166572
	H8	H	0.827591	0.715090	0.404661
	H9	H	0.153211	0.713440	0.601468
	H10	H	0.826814	0.285903	0.601665
	H11	H	0.153460	0.282375	0.403490
	H12	H	0.827705	0.400718	0.719096
	H13	H	0.153171	0.596166	0.717820
	H14	H	0.826397	0.596698	0.290524
	H15	H	0.152986	0.397156	0.285673
	H16	H	0.394622	0.711250	0.839979
	H17	H	0.589129	0.712162	0.167219
	H18	H	0.592287	0.280889	0.840019
	H19	H	0.393538	0.285820	0.167806
	H20	H	0.709378	0.836271	0.402517
	H21	H	0.703243	0.163100	0.602243
	H22	H	0.276850	0.836091	0.602291
	H23	H	0.276055	0.162571	0.405493
	H24	H	0.893328	0.334031	0.217048
	H25	H	0.087831	0.661208	0.218874
	H26	H	0.091285	0.333922	0.786615
	H27	H	0.892056	0.661251	0.791533
	H28	H	0.209247	0.896328	0.340891
	H29	H	0.203426	0.099036	0.666664
	H30	H	0.776089	0.098377	0.339588
	H31	H	0.775207	0.902077	0.666528
	H32	H	0.328976	0.213731	0.907269
	H33	H	0.655518	0.212429	0.102123
	H34	H	0.328096	0.785366	0.103088
	H35	H	0.654392	0.780930	0.902929
	H36	H	0.329453	0.900442	0.220904
	H37	H	0.655650	0.094424	0.217300
	H38	H	0.328384	0.098522	0.790392
	H39	H	0.654677	0.897543	0.786493
	H40	H	0.893277	0.212214	0.339116
	H41	H	0.087051	0.213747	0.666233
	H42	H	0.091068	0.782219	0.339784
	H43	H	0.890918	0.786437	0.666457
	H44	H	0.208424	0.334061	0.900887
	H45	H	0.205202	0.660775	0.103802
	H46	H	0.775539	0.333983	0.102968
	H47	H	0.775378	0.660468	0.906538
	H48	H	0.401844	0.114649	0.599572
	H49	H	0.589588	0.884548	0.584992
	H50	H	0.577812	0.116080	0.403486
	H51	H	0.403891	0.886639	0.418574
	H52	H	0.578762	0.402401	0.118519
	H53	H	0.583126	0.585626	0.888196
	H54	H	0.397744	0.590770	0.118367
	H55	H	0.400424	0.409134	0.888398
	H56	H	0.105695	0.592221	0.410833
	H57	H	0.873367	0.593412	0.601949
	H58	H	0.101790	0.410819	0.585870
	H59	H	0.874276	0.402122	0.413461
	H60	H	0.107498	0.410357	0.603480
	H61	H	0.874152	0.595296	0.595275
	H62	H	0.104549	0.588026	0.413494
	H63	H	0.875646	0.408764	0.409792
	H64	H	0.396012	0.593912	0.121154
	H65	H	0.582119	0.592368	0.887280
	H66	H	0.587605	0.402052	0.121806
	H67	H	0.402762	0.401173	0.887096
	H68	H	0.581059	0.112507	0.418661
	H69	H	0.590129	0.879431	0.602289
	H70	H	0.393254	0.114655	0.592129
	H71	H	0.392368	0.881426	0.413159
	H72	H	0.892724	0.615495	0.099909
	H73	H	0.075177	0.382375	0.100702
	H74	H	0.090955	0.617550	0.905314
	H75	H	0.892903	0.376225	0.900264
	H76	H	0.084734	0.901437	0.621044
	H77	H	0.087711	0.089654	0.386050
	H78	H	0.898318	0.088995	0.618103
	H79	H	0.897848	0.911587	0.388097
	H80	H	0.605202	0.087128	0.912954
	H81	H	0.376702	0.098991	0.093105
	H82	H	0.607138	0.905719	0.095933
	H83	H	0.374584	0.905174	0.907707
	H84	H	0.608708	0.903124	0.097310
	H85	H	0.379718	0.085249	0.094653
	H86	H	0.608222	0.087171	0.906975
	H87	H	0.375591	0.903116	0.912266
	H88	H	0.897354	0.095958	0.619903
	H89	H	0.082050	0.086029	0.388798
	H90	H	0.086324	0.909734	0.619393
	H91	H	0.905536	0.905026	0.386942
	H92	H	0.074833	0.610973	0.907571
	H93	H	0.082429	0.385462	0.083923
	H94	H	0.900112	0.612903	0.097757
	H95	H	0.910882	0.383982	0.909220
	H96	H	0.391935	0.118828	0.602181
	H97	H	0.574967	0.885333	0.595460
	H98	H	0.593246	0.118333	0.408863
	H99	H	0.403762	0.882256	0.406002
	H100	H	0.584747	0.410290	0.118110
	H101	H	0.588325	0.590182	0.886817
	H102	H	0.394036	0.590483	0.120438
	H103	H	0.395173	0.404030	0.885915
	H104	H	0.105322	0.587345	0.407952
	H105	H	0.875602	0.589229	0.596771
	H106	H	0.108357	0.395119	0.593149
	H107	H	0.872352	0.402392	0.405659
	H108	H	0.893961	0.612594	0.092751
	H109	H	0.093102	0.377337	0.097132
	H110	H	0.086570	0.610757	0.920636
	H111	H	0.892359	0.381886	0.921281
	H112	H	0.078770	0.906877	0.617850
	H113	H	0.081423	0.093349	0.386535
	H114	H	0.891602	0.090942	0.620785
	H115	H	0.896231	0.902762	0.385317
	H116	H	0.608193	0.093100	0.910371
	H117	H	0.374236	0.092560	0.106104
	H118	H	0.607504	0.902837	0.093942
	H119	H	0.377012	0.907166	0.911111
	C120	C	0.368255	0.007759	0.626026
	C121	C	0.612273	0.990971	0.623633
	C122	C	0.613696	0.007426	0.381473
	C123	C	0.370381	0.990938	0.383089
	C124	C	0.613045	0.375706	0.011614
	C125	C	0.612620	0.618674	0.995115
	C126	C	0.368614	0.619790	0.012015
	C127	C	0.370248	0.376291	0.995036
	C128	C	-0.002076	0.618902	0.382459
	C129	C	0.982133	0.621003	0.626002
	C130	C	-0.001715	0.377056	0.624110
	C131	C	0.982009	0.375576	0.380512
	C132	C	0.867890	0.505801	0.125159
	C133	C	0.111725	0.489416	0.124037
	C134	C	0.113100	0.505344	0.881207
	C135	C	0.869445	0.488534	0.882292
	C136	C	0.113300	0.876092	0.511737
	C137	C	0.111581	0.119448	0.495036
	C138	C	0.868369	0.120592	0.511362
	C139	C	0.869771	0.878185	0.494702
	C140	C	0.499965	0.118859	0.882323
	C141	C	0.484502	0.119955	0.125973
	C142	C	0.500289	0.876197	0.125588
	C143	C	0.483672	0.876151	0.881468
	C144	C	0.372385	0.884414	0.679761
	C145	C	0.608007	0.113823	0.680033
	C146	C	0.612671	0.884124	0.325801
	C147	C	0.372906	0.113887	0.327937
	C148	C	0.668765	0.377142	0.888335
	C149	C	0.666787	0.616395	0.118073
	C150	C	0.314590	0.616762	0.888847
	C151	C	0.314151	0.379393	0.117917
	C152	C	0.875572	0.675672	0.384935
	C153	C	0.104478	0.675867	0.622643
	C154	C	0.875729	0.323148	0.622291
	C155	C	0.104772	0.320346	0.382888
	C156	C	0.876016	0.380476	0.680285
	C157	C	0.104546	0.617502	0.680237
	C158	C	0.875397	0.617263	0.327752
	C159	C	0.104588	0.377501	0.324510
	C160	C	0.373015	0.673950	0.888948
	C161	C	0.609243	0.673987	0.118315
	C162	C	0.611579	0.319710	0.888505
	C163	C	0.372907	0.323008	0.118669
	C164	C	0.670501	0.884718	0.382705
	C165	C	0.665915	0.114269	0.622505
	C166	C	0.314359	0.884881	0.622778
	C167	C	0.314484	0.113872	0.385180
	C168	C	0.871900	0.382517	0.179558
	C169	C	0.108366	0.612295	0.180378
	C170	C	0.111581	0.382811	0.824542
	C171	C	0.871711	0.612215	0.828713
	C172	C	0.170290	0.876731	0.389387
	C173	C	0.165808	0.118314	0.617726
	C174	C	0.813960	0.118232	0.388357
	C175	C	0.813220	0.881279	0.617544
	C176	C	0.377221	0.174895	0.886392
	C177	C	0.606964	0.174652	0.122799
	C178	C	0.377179	0.822402	0.123856
	C179	C	0.605952	0.820018	0.883159
	C180	C	0.377683	0.879655	0.182230
	C181	C	0.607141	0.115928	0.179900
	C182	C	0.377102	0.117689	0.828310
	C183	C	0.605950	0.877766	0.824947
	C184	C	0.872065	0.175029	0.388155
	C185	C	0.108242	0.175514	0.617590
	C186	C	0.111788	0.819875	0.388812
	C187	C	0.870653	0.823782	0.617678
	C188	C	0.169719	0.382807	0.881592
	C189	C	0.166930	0.612095	0.123110
	C190	C	0.813473	0.382756	0.122820
	C191	C	0.813623	0.611770	0.885640
	C192	C	0.389350	0.093808	0.604447
	C193	C	0.591114	0.905311	0.600922
	C194	C	0.590688	0.093351	0.403684
	C195	C	0.393234	0.905505	0.405887
	C196	C	0.590226	0.398140	0.097489
	C197	C	0.590894	0.596161	0.909294
	C198	C	0.389712	0.598144	0.097999
	C199	C	0.392915	0.398066	0.909233
	C200	C	0.083106	0.595936	0.404369
	C201	C	0.896527	0.599109	0.604248
	C202	C	0.083827	0.398869	0.600872
	C203	C	0.896295	0.397788	0.403021
	C204	C	0.889424	0.591579	0.103330
	C205	C	0.089907	0.403813	0.100615
	C206	C	0.090614	0.590908	0.904294
	C207	C	0.891988	0.402893	0.904011
	C208	C	0.089931	0.899217	0.597219
	C209	C	0.090103	0.096370	0.409250
	C210	C	0.889682	0.098547	0.597332
	C211	C	0.893032	0.899974	0.409041
	C212	C	0.585151	0.095751	0.903800
	C213	C	0.398894	0.098577	0.104258
	C214	C	0.585658	0.897511	0.102454
	C215	C	0.398049	0.898546	0.903854
	Zn216	Zn	0.491407	-0.001596	0.752907
	Zn217	Zn	0.492444	-0.001708	0.254582
	Zn218	Zn	0.740733	0.496651	0.003170
	Zn219	Zn	0.241302	0.497157	0.002890
	Zn220	Zn	-0.009819	0.748844	0.503092
	Zn221	Zn	-0.009622	0.248044	0.503064
	Zn222	Zn	-0.009257	0.497626	0.753922
	Zn223	Zn	-0.010317	0.497736	0.252618
	Zn224	Zn	0.491273	0.747529	0.003816
	Zn225	Zn	0.492097	0.247978	0.003549
	Zn226	Zn	0.740955	-0.000596	0.502551
	Zn227	Zn	0.240518	-0.001006	0.503543
	N228	N	0.404977	0.961792	0.682086
	N229	N	0.575389	0.036254	0.680710
	N230	N	0.577822	0.961243	0.325333
	N231	N	0.406859	0.036338	0.326452
	N232	N	0.669793	0.411230	0.965787
	N233	N	0.668535	0.582432	0.040690
	N234	N	0.311654	0.583988	0.966462
	N235	N	0.312356	0.411739	0.039996
	N236	N	0.952797	0.676865	0.418203
	N237	N	0.027219	0.678157	0.589682
	N238	N	0.952782	0.321122	0.587932
	N239	N	0.027636	0.319124	0.416911
	N240	N	0.953405	0.413301	0.681494
	N241	N	0.027388	0.584418	0.682545
	N242	N	0.952291	0.582520	0.326114
	N243	N	0.027185	0.411125	0.322877
	N244	N	0.405466	0.676218	0.966612
	N245	N	0.576301	0.675604	0.040637
	N246	N	0.577513	0.318672	0.966106
	N247	N	0.407118	0.320872	0.041262
	N248	N	0.671205	0.962361	0.416489
	N249	N	0.668769	0.036899	0.588166
	N250	N	0.311375	0.962779	0.590236
	N251	N	0.312819	0.036434	0.418563
	N252	N	0.904712	0.460003	0.181426
	N253	N	0.074848	0.534891	0.180961
	N254	N	0.077064	0.459959	0.824236
	N255	N	0.905724	0.534721	0.826418
	N256	N	0.171507	0.910781	0.466780
	N257	N	0.167990	0.084144	0.540159
	N258	N	0.811311	0.085342	0.466024
	N259	N	0.812517	0.914323	0.539982
	N260	N	0.454505	0.175844	0.919266
	N261	N	0.529612	0.177259	0.089999
	N262	N	0.454115	0.820272	0.089224
	N263	N	0.528930	0.818845	0.917546
	N264	N	0.455116	0.912440	0.183461
	N265	N	0.530115	0.082663	0.181763
	N266	N	0.454215	0.083402	0.825755
	N267	N	0.528679	0.911830	0.823660
	N268	N	0.905167	0.176674	0.465646
	N269	N	0.075026	0.176153	0.540383
	N270	N	0.077112	0.819038	0.466151
	N271	N	0.905121	0.821720	0.540396
	N272	N	0.170796	0.460078	0.916401
	N273	N	0.168950	0.534749	0.088747
	N274	N	0.810897	0.460326	0.089825
	N275	N	0.812173	0.533992	0.918345
	O276	O	0.515576	0.518056	0.505661
	H277	H	0.513522	0.515566	0.510987
	H278	H	0.512277	0.512818	0.500206
	O279	O	0.439024	0.479717	0.538899
	H280	H	0.435252	0.490286	0.536549
	H281	H	0.437655	0.482739	0.538089
	O282	O	0.485989	0.548402	0.484809
	H283	H	0.488374	0.550977	0.483890
	H284	H	0.493702	0.548265	0.482117
	O285	O	0.097245	0.940231	0.921859
	H286	H	0.100390	0.941576	0.923829
	H287	H	0.103093	0.933163	0.920981
	O288	O	1.057134	0.938160	-0.017945
	H289	H	1.048332	0.924647	-0.027087
	H290	H	1.062940	0.938763	-0.020691
	O291	O	0.081773	0.020588	1.014961
	H292	H	0.087473	0.016827	0.999242
	H293	H	0.083458	0.027814	1.015010
	O294	O	0.479581	0.560091	0.534458
	H295	H	0.482419	0.555419	0.533003
	H296	H	0.472178	0.562994	0.536781
	O297	O	0.502962	0.506076	0.495850
	H298	H	0.502516	0.504995	0.496155
	H299	H	0.505789	0.502101	0.508482
	O300	O	0.476916	0.552668	0.417248
	H301	H	0.473680	0.540259	0.420594
	H302	H	0.474492	0.550647	0.410206
	O303	O	0.518539	0.570948	0.444238
	H304	H	0.532621	0.567224	0.445316
	H305	H	0.513527	0.578182	0.434643
	O306	O	1.129405	-0.100526	0.982537
	H307	H	1.124973	-0.106337	0.986464
	H308	H	1.129594	-0.096605	0.985042
	O309	O	0.425550	0.555888	0.498206
	H310	H	0.428168	0.550657	0.482463
	H311	H	0.419153	0.564317	0.497344
	O312	O	0.406728	0.578370	0.457340
	H313	H	0.403288	0.576692	0.456819
	H314	H	0.409085	0.578667	0.440344
	O315	O	1.054775	-0.020330	1.000896
	H316	H	1.060890	-0.015850	0.997610
	H317	H	1.059414	-0.025698	0.995123
	O318	O	0.051518	-0.055373	-0.055422
	H319	H	0.049534	-0.053378	-0.053540
	H320	H	0.054724	-0.059163	-0.055164
	O321	O	0.518525	0.578007	0.453186
	H322	H	0.528811	0.575567	0.456768
	H323	H	0.512151	0.587351	0.445274
	O324	O	1.084436	-0.057264	0.000760
	H325	H	1.081497	-0.045735	0.009487
	H326	H	1.086507	-0.049216	-0.000440
	O327	O	1.119352	1.000718	0.001092
	H328	H	1.128584	1.005585	0.002282
	H329	H	1.123687	0.981735	0.004417
	O330	O	0.502067	0.482204	0.508405
	H331	H	0.498007	0.480180	0.503395
	H332	H	0.506370	0.496820	0.510218
	O333	O	0.480144	0.562402	0.557656
	H334	H	0.490925	0.565383	0.557718
	H335	H	0.477433	0.558336	0.572041
