data_Molecule from HDF5

_cell_length_a		16.332139
_cell_length_b		16.336479
_cell_length_c		16.329375
_cell_angle_alpha	90.095551
_cell_angle_beta	90.108889
_cell_angle_gamma	89.956247
_symmetry_space_group_name_H-M	'P 1'
_symmetry_Int_Tables_number		1

loop_
	_symmetry_equiv_pos_as_xyz
	x,y,z

loop_
	_atom_site_label
	_atom_site_type_symbol
	_atom_site_fract_x
	_atom_site_fract_y
	_atom_site_fract_z
	H0	H	0.402362	0.833747	0.714172
	H1	H	0.599249	0.160026	0.714692
	H2	H	0.598580	0.833600	0.284707
	H3	H	0.402994	0.160193	0.285531
	H4	H	0.714320	0.397213	0.835719
	H5	H	0.715316	0.595116	0.162725
	H6	H	0.286761	0.593132	0.835374
	H7	H	0.286605	0.399219	0.162814
	H8	H	0.837139	0.712073	0.399556
	H9	H	0.163882	0.712546	0.597583
	H10	H	0.836948	0.283804	0.596376
	H11	H	0.163248	0.281684	0.401221
	H12	H	0.837734	0.399757	0.712338
	H13	H	0.163710	0.596192	0.714692
	H14	H	0.837229	0.594610	0.284765
	H15	H	0.164447	0.399200	0.285520
	H16	H	0.401244	0.711333	0.835925
	H17	H	0.598717	0.711279	0.162763
	H18	H	0.597859	0.281713	0.836355
	H19	H	0.402326	0.282623	0.163016
	H20	H	0.716000	0.834274	0.399956
	H21	H	0.714485	0.160416	0.597150
	H22	H	0.286503	0.833018	0.597108
	H23	H	0.285654	0.159214	0.401713
	H24	H	0.902716	0.333695	0.212809
	H25	H	0.097168	0.660265	0.214311
	H26	H	0.096860	0.333822	0.784826
	H27	H	0.901913	0.660498	0.784959
	H28	H	0.215345	0.897150	0.336275
	H29	H	0.214848	0.094796	0.662546
	H30	H	0.786120	0.093861	0.336210
	H31	H	0.787228	0.899920	0.662586
	H32	H	0.336818	0.211459	0.901276
	H33	H	0.663484	0.212081	0.098527
	H34	H	0.337235	0.783503	0.096554
	H35	H	0.663925	0.782199	0.900790
	H36	H	0.337171	0.900162	0.212335
	H37	H	0.663934	0.095731	0.214616
	H38	H	0.337208	0.095026	0.785196
	H39	H	0.664221	0.898904	0.784707
	H40	H	0.902603	0.210356	0.335394
	H41	H	0.097441	0.210020	0.662948
	H42	H	0.097947	0.782666	0.335619
	H43	H	0.902068	0.782226	0.662552
	H44	H	0.215701	0.334152	0.899990
	H45	H	0.215478	0.660531	0.099350
	H46	H	0.785486	0.333815	0.097006
	H47	H	0.785717	0.660718	0.902309
	H48	H	0.410061	0.112039	0.594716
	H49	H	0.599185	0.880073	0.591326
	H50	H	0.597065	0.113198	0.410550
	H51	H	0.409074	0.879633	0.402295
	H52	H	0.597123	0.409758	0.114490
	H53	H	0.593188	0.590959	0.883876
	H54	H	0.405432	0.589744	0.115528
	H55	H	0.406484	0.403652	0.883532
	H56	H	0.118317	0.592123	0.402602
	H57	H	0.887289	0.590171	0.584619
	H58	H	0.117369	0.406289	0.597324
	H59	H	0.883671	0.398183	0.406913
	H60	H	0.119360	0.397161	0.593227
	H61	H	0.886323	0.583782	0.594863
	H62	H	0.116872	0.593019	0.409745
	H63	H	0.885889	0.406892	0.407019
	H64	H	0.408805	0.589623	0.115077
	H65	H	0.594114	0.588640	0.883188
	H66	H	0.588008	0.402340	0.113869
	H67	H	0.408679	0.403923	0.884151
	H68	H	0.595946	0.115002	0.401408
	H69	H	0.591451	0.880207	0.597380
	H70	H	0.407582	0.111240	0.589375
	H71	H	0.408084	0.881476	0.407389
	H72	H	0.914468	0.611293	0.094733
	H73	H	0.091057	0.382463	0.093691
	H74	H	0.099838	0.613293	0.911421
	H75	H	0.900041	0.380259	0.908411
	H76	H	0.111569	0.904795	0.619909
	H77	H	0.091417	0.090667	0.384019
	H78	H	0.910220	0.086108	0.612915
	H79	H	0.914962	0.904457	0.386159
	H80	H	0.613423	0.090823	0.917902
	H81	H	0.383238	0.099963	0.089280
	H82	H	0.621101	0.898505	0.101491
	H83	H	0.383266	0.901900	0.902210
	H84	H	0.615564	0.898220	0.083484
	H85	H	0.388440	0.083127	0.087047
	H86	H	0.614669	0.079383	0.901314
	H87	H	0.385399	0.902217	0.911152
	H88	H	0.910814	0.097746	0.616241
	H89	H	0.094964	0.091568	0.381677
	H90	H	0.085209	0.919360	0.607892
	H91	H	0.904861	0.897529	0.380954
	H92	H	0.094423	0.616034	0.899497
	H93	H	0.094874	0.382197	0.088152
	H94	H	0.904889	0.610963	0.084071
	H95	H	0.907439	0.379276	0.898381
	H96	H	0.405305	0.113204	0.593742
	H97	H	0.590679	0.883659	0.587840
	H98	H	0.588354	0.111094	0.406033
	H99	H	0.404190	0.879329	0.404619
	H100	H	0.598650	0.398741	0.118514
	H101	H	0.591863	0.589061	0.884015
	H102	H	0.407086	0.592989	0.115445
	H103	H	0.407863	0.402235	0.883513
	H104	H	0.114948	0.586811	0.406795
	H105	H	0.882496	0.595052	0.594452
	H106	H	0.114724	0.404643	0.588132
	H107	H	0.883455	0.403389	0.399368
	H108	H	0.901321	0.616284	0.097204
	H109	H	0.096693	0.379976	0.094091
	H110	H	0.087177	0.609662	0.909332
	H111	H	0.912238	0.383744	0.908713
	H112	H	0.084192	0.888220	0.616921
	H113	H	0.095030	0.088101	0.384132
	H114	H	0.900675	0.091509	0.617188
	H115	H	0.903205	0.910022	0.384239
	H116	H	0.620322	0.098596	0.900728
	H117	H	0.382209	0.088590	0.102592
	H118	H	0.613872	0.914503	0.093205
	H119	H	0.386428	0.909850	0.905744
	C120	C	0.379228	0.004652	0.620969
	C121	C	0.622447	0.988917	0.621028
	C122	C	0.622098	0.005264	0.377705
	C123	C	0.379011	0.988120	0.377305
	C124	C	0.622168	0.374967	0.007628
	C125	C	0.621988	0.618341	0.991415
	C126	C	0.378934	0.618494	0.007246
	C127	C	0.378983	0.374981	0.991489
	C128	C	0.008594	0.618636	0.377539
	C129	C	0.992805	0.618703	0.620598
	C130	C	0.009035	0.375215	0.620329
	C131	C	0.992441	0.375044	0.377093
	C132	C	0.878633	0.505079	0.120387
	C133	C	0.122553	0.489089	0.120895
	C134	C	0.122147	0.505298	0.877966
	C135	C	0.878282	0.488773	0.877219
	C136	C	0.122197	0.875077	0.507304
	C137	C	0.122132	0.118357	0.491157
	C138	C	0.878999	0.118983	0.507452
	C139	C	0.879161	0.875336	0.491139
	C140	C	0.508411	0.118234	0.878265
	C141	C	0.492659	0.118793	0.121297
	C142	C	0.508837	0.875721	0.120669
	C143	C	0.492840	0.875497	0.877624
	C144	C	0.381600	0.882219	0.676191
	C145	C	0.619437	0.111517	0.676367
	C146	C	0.619261	0.882381	0.322728
	C147	C	0.382179	0.111357	0.323067
	C148	C	0.676507	0.377342	0.884531
	C149	C	0.677392	0.615569	0.113983
	C150	C	0.323952	0.614808	0.884369
	C151	C	0.324073	0.378241	0.114193
	C152	C	0.885917	0.673834	0.379774
	C153	C	0.115199	0.674480	0.618524
	C154	C	0.885865	0.321547	0.616591
	C155	C	0.115058	0.320044	0.380358
	C156	C	0.886241	0.378790	0.674746
	C157	C	0.115154	0.616638	0.676436
	C158	C	0.885986	0.615676	0.322303
	C159	C	0.115496	0.378276	0.322997
	C160	C	0.381011	0.673267	0.884596
	C161	C	0.619319	0.673235	0.114220
	C162	C	0.619037	0.319492	0.885038
	C163	C	0.381729	0.320475	0.114361
	C164	C	0.677461	0.882554	0.380092
	C165	C	0.676602	0.111745	0.617930
	C166	C	0.324389	0.881822	0.617702
	C167	C	0.324044	0.111005	0.380757
	C168	C	0.882469	0.382115	0.174655
	C169	C	0.118576	0.612036	0.175952
	C170	C	0.118549	0.382564	0.822582
	C171	C	0.881320	0.611924	0.822962
	C172	C	0.177175	0.877237	0.384788
	C173	C	0.177018	0.115302	0.613760
	C174	C	0.823771	0.115423	0.384771
	C175	C	0.824623	0.878799	0.613914
	C176	C	0.385523	0.173569	0.880933
	C177	C	0.615161	0.173735	0.118734
	C178	C	0.386076	0.821163	0.117412
	C179	C	0.615169	0.819931	0.879867
	C180	C	0.386163	0.879018	0.175068
	C181	C	0.615369	0.116205	0.176611
	C182	C	0.385727	0.115936	0.822905
	C183	C	0.615384	0.878131	0.822459
	C184	C	0.881503	0.173199	0.384438
	C185	C	0.118899	0.172846	0.613958
	C186	C	0.118916	0.820182	0.384582
	C187	C	0.881614	0.820245	0.613790
	C188	C	0.177058	0.382608	0.880039
	C189	C	0.177128	0.611981	0.118778
	C190	C	0.824089	0.382179	0.117366
	C191	C	0.823314	0.611885	0.880712
	C192	C	0.401155	0.090228	0.598977
	C193	C	0.600233	0.903361	0.598791
	C194	C	0.600351	0.090947	0.399641
	C195	C	0.400658	0.902317	0.398564
	C196	C	0.600807	0.397061	0.093567
	C197	C	0.599480	0.596208	0.905843
	C198	C	0.400789	0.597140	0.093144
	C199	C	0.401238	0.396807	0.905752
	C200	C	0.094478	0.597017	0.399731
	C201	C	0.907418	0.596190	0.597933
	C202	C	0.095071	0.396443	0.599050
	C203	C	0.906531	0.396333	0.398239
	C204	C	0.900263	0.590735	0.098371
	C205	C	0.100671	0.403655	0.098591
	C206	C	0.100224	0.590933	0.900091
	C207	C	0.900186	0.403231	0.898733
	C208	C	0.100219	0.897582	0.592950
	C209	C	0.100324	0.096531	0.405304
	C210	C	0.900937	0.097948	0.593351
	C211	C	0.901154	0.897557	0.405723
	C212	C	0.593928	0.095999	0.900305
	C213	C	0.406711	0.096895	0.099275
	C214	C	0.594797	0.897364	0.099120
	C215	C	0.407385	0.897886	0.900039
	Zn216	Zn	0.500591	-0.003028	0.749295
	Zn217	Zn	0.501113	-0.003082	0.249406
	Zn218	Zn	0.750177	0.496392	-0.001296
	Zn219	Zn	0.251040	0.497112	-0.000433
	Zn220	Zn	0.000454	0.747177	0.499076
	Zn221	Zn	0.000675	0.247026	0.499150
	Zn222	Zn	0.000488	0.497244	0.748871
	Zn223	Zn	0.000570	0.497017	0.249012
	Zn224	Zn	0.500637	0.746847	-0.000558
	Zn225	Zn	0.500623	0.246980	-0.000249
	Zn226	Zn	0.750559	-0.003201	0.499481
	Zn227	Zn	0.250500	-0.003651	0.498981
	N228	N	0.415090	0.959389	0.678015
	N229	N	0.586495	0.033882	0.678437
	N230	N	0.585566	0.959553	0.321271
	N231	N	0.415645	0.033988	0.320851
	N232	N	0.678592	0.411207	0.961853
	N233	N	0.678850	0.582004	0.036638
	N234	N	0.322696	0.581501	0.961682
	N235	N	0.322373	0.411350	0.036700
	N236	N	0.963207	0.675702	0.413592
	N237	N	0.038153	0.675742	0.584295
	N238	N	0.963303	0.319246	0.583466
	N239	N	0.037618	0.317794	0.413123
	N240	N	0.963658	0.411740	0.676956
	N241	N	0.038008	0.582747	0.677643
	N242	N	0.963189	0.581980	0.321229
	N243	N	0.038243	0.411804	0.321013
	N244	N	0.414438	0.675799	0.962025
	N245	N	0.585635	0.675119	0.036952
	N246	N	0.585987	0.318207	0.962424
	N247	N	0.415099	0.318375	0.037043
	N248	N	0.679132	0.959710	0.413773
	N249	N	0.678416	0.034605	0.584308
	N250	N	0.322609	0.959101	0.584241
	N251	N	0.322043	0.033564	0.413601
	N252	N	0.915548	0.459640	0.176686
	N253	N	0.085427	0.534704	0.177391
	N254	N	0.084819	0.459789	0.821371
	N255	N	0.914497	0.534473	0.820420
	N256	N	0.179152	0.910830	0.462078
	N257	N	0.179161	0.082221	0.536311
	N258	N	0.821991	0.082652	0.462279
	N259	N	0.822937	0.912277	0.536627
	N260	N	0.462856	0.175191	0.914587
	N261	N	0.537872	0.175341	0.085100
	N262	N	0.463477	0.819071	0.084240
	N263	N	0.538061	0.818362	0.913573
	N264	N	0.463518	0.912265	0.177006
	N265	N	0.538106	0.082736	0.178241
	N266	N	0.462825	0.082098	0.821312
	N267	N	0.538201	0.911848	0.820901
	N268	N	0.914786	0.175765	0.461811
	N269	N	0.085332	0.174682	0.536702
	N270	N	0.085510	0.818822	0.461902
	N271	N	0.914672	0.818013	0.536524
	N272	N	0.179155	0.459753	0.913791
	N273	N	0.179451	0.534725	0.085091
	N274	N	0.821761	0.459423	0.084271
	N275	N	0.821474	0.534563	0.913886
	O276	O	0.065516	0.050821	1.037381
	H277	H	0.065144	0.048628	1.027522
	H278	H	0.070958	0.057729	1.041227
	O279	O	0.576280	0.519040	0.574592
	H280	H	0.578020	0.518173	0.574460
	H281	H	0.593039	0.515103	0.575017
	O282	O	0.534993	0.541765	0.575156
	H283	H	0.537331	0.542446	0.577230
	H284	H	0.538597	0.539440	0.573796
	O285	O	0.555783	0.537684	0.574098
	H286	H	0.545637	0.542276	0.574386
	H287	H	0.549771	0.544104	0.581344
	O288	O	0.065756	1.046004	0.032593
	H289	H	0.067293	1.052620	0.032276
	H290	H	0.061986	1.045473	0.039772
	O291	O	0.087144	1.042612	1.016443
	H292	H	0.093424	1.052198	1.017604
	H293	H	0.091827	1.038067	1.014804
	O294	O	0.599572	0.506138	0.572543
	H295	H	0.600313	0.508701	0.569764
	H296	H	0.599620	0.506431	0.578123
	O297	O	1.092596	0.031990	0.029230
	H298	H	1.089116	0.023927	0.029305
	H299	H	1.095434	0.030938	0.032667
