data_Molecule from HDF5

_cell_length_a		16.540741
_cell_length_b		16.288668
_cell_length_c		16.441572
_cell_angle_alpha	90.114044
_cell_angle_beta	89.993295
_cell_angle_gamma	90.258805
_symmetry_space_group_name_H-M	'P 1'
_symmetry_Int_Tables_number		1

loop_
	_symmetry_equiv_pos_as_xyz
	x,y,z

loop_
	_atom_site_label
	_atom_site_type_symbol
	_atom_site_fract_x
	_atom_site_fract_y
	_atom_site_fract_z
	H0	H	0.391471	0.838297	0.721904
	H1	H	0.601207	0.159321	0.719409
	H2	H	0.605130	0.840358	0.275311
	H3	H	0.390778	0.157188	0.279844
	H4	H	0.720858	0.389602	0.844026
	H5	H	0.723126	0.608200	0.157884
	H6	H	0.276665	0.604428	0.842580
	H7	H	0.274977	0.392942	0.158884
	H8	H	0.839042	0.717852	0.396004
	H9	H	0.154881	0.719354	0.606271
	H10	H	0.839412	0.275095	0.603943
	H11	H	0.157490	0.279061	0.398410
	H12	H	0.840345	0.387452	0.724409
	H13	H	0.155106	0.602198	0.722668
	H14	H	0.842133	0.606250	0.274742
	H15	H	0.156035	0.394168	0.279648
	H16	H	0.397050	0.715971	0.840394
	H17	H	0.605316	0.721683	0.158504
	H18	H	0.597736	0.281243	0.840892
	H19	H	0.393269	0.279412	0.160084
	H20	H	0.719925	0.840339	0.391021
	H21	H	0.720800	0.156198	0.609045
	H22	H	0.277312	0.837479	0.604895
	H23	H	0.276485	0.155839	0.394973
	H24	H	0.893472	0.338325	0.220801
	H25	H	0.104251	0.658561	0.222823
	H26	H	0.099440	0.337211	0.782752
	H27	H	0.891743	0.656702	0.778469
	H28	H	0.221516	0.886150	0.344753
	H29	H	0.219088	0.104114	0.658674
	H30	H	0.773910	0.106071	0.344029
	H31	H	0.770710	0.887054	0.657272
	H32	H	0.338377	0.215329	0.900085
	H33	H	0.654495	0.222169	0.107401
	H34	H	0.340821	0.775409	0.104610
	H35	H	0.656531	0.776565	0.892910
	H36	H	0.340587	0.890930	0.222355
	H37	H	0.653042	0.108623	0.226522
	H38	H	0.340047	0.102350	0.780310
	H39	H	0.654719	0.892365	0.776024
	H40	H	0.895770	0.215094	0.340691
	H41	H	0.099348	0.216089	0.660157
	H42	H	0.100533	0.775100	0.342998
	H43	H	0.890400	0.775273	0.660072
	H44	H	0.216899	0.338917	0.897167
	H45	H	0.221179	0.657655	0.109144
	H46	H	0.775694	0.339181	0.107924
	H47	H	0.775946	0.656616	0.893639
	H48	H	0.403528	0.114780	0.594853
	H49	H	0.584429	0.884630	0.588733
	H50	H	0.581426	0.109397	0.414819
	H51	H	0.407460	0.882544	0.411305
	H52	H	0.584941	0.412386	0.113264
	H53	H	0.585650	0.588428	0.888026
	H54	H	0.409630	0.579813	0.111245
	H55	H	0.401878	0.402824	0.884373
	H56	H	0.110281	0.595281	0.419195
	H57	H	0.885157	0.578963	0.596241
	H58	H	0.110462	0.409846	0.593475
	H59	H	0.884664	0.405309	0.408463
	H60	H	0.111045	0.406420	0.592427
	H61	H	0.882108	0.591511	0.592569
	H62	H	0.103692	0.576835	0.418167
	H63	H	0.886224	0.407085	0.412885
	H64	H	0.414227	0.588277	0.111938
	H65	H	0.591888	0.585834	0.886406
	H66	H	0.587185	0.409497	0.114709
	H67	H	0.402379	0.414713	0.887636
	H68	H	0.586704	0.111214	0.418361
	H69	H	0.582569	0.885159	0.587864
	H70	H	0.412488	0.111330	0.592019
	H71	H	0.411377	0.884014	0.411308
	H72	H	0.915543	0.609722	0.087979
	H73	H	0.089178	0.383907	0.090137
	H74	H	0.086203	0.611821	0.913641
	H75	H	0.906742	0.382739	0.910490
	H76	H	0.088276	0.905747	0.615673
	H77	H	0.093302	0.081759	0.386587
	H78	H	0.909711	0.086173	0.613559
	H79	H	0.910079	0.911536	0.390510
	H80	H	0.610893	0.088225	0.907543
	H81	H	0.386057	0.082100	0.092365
	H82	H	0.611145	0.914169	0.094712
	H83	H	0.386819	0.909535	0.910619
	H84	H	0.610959	0.905850	0.085053
	H85	H	0.381879	0.090812	0.095378
	H86	H	0.611867	0.091825	0.910862
	H87	H	0.385058	0.908321	0.909858
	H88	H	0.907604	0.085877	0.614254
	H89	H	0.083493	0.084535	0.389147
	H90	H	0.090359	0.914108	0.614124
	H91	H	0.909006	0.907890	0.388488
	H92	H	0.089107	0.613312	0.912510
	H93	H	0.085618	0.385142	0.090448
	H94	H	0.907393	0.611011	0.083742
	H95	H	0.911823	0.385296	0.912814
	H96	H	0.405260	0.111034	0.585265
	H97	H	0.584180	0.884516	0.586461
	H98	H	0.586234	0.112629	0.412041
	H99	H	0.408558	0.883980	0.414754
	H100	H	0.588384	0.413447	0.114331
	H101	H	0.587082	0.581851	0.889871
	H102	H	0.405162	0.587618	0.115664
	H103	H	0.411858	0.407893	0.888988
	H104	H	0.112580	0.584780	0.402138
	H105	H	0.887492	0.583175	0.583806
	H106	H	0.109312	0.408856	0.590011
	H107	H	0.885923	0.409903	0.408874
	H108	H	0.908852	0.613985	0.092117
	H109	H	0.087133	0.385604	0.087289
	H110	H	0.087110	0.612494	0.910212
	H111	H	0.907004	0.384815	0.916657
	H112	H	0.082903	0.911082	0.611980
	H113	H	0.089876	0.091672	0.384610
	H114	H	0.908203	0.083377	0.613276
	H115	H	0.905725	0.911287	0.389176
	H116	H	0.609805	0.088206	0.912476
	H117	H	0.385216	0.089944	0.086141
	H118	H	0.606194	0.917512	0.083712
	H119	H	0.386812	0.908011	0.911382
	C120	C	0.375535	0.006414	0.622391
	C121	C	0.617388	0.989695	0.621130
	C122	C	0.618394	0.006754	0.379852
	C123	C	0.376377	0.988566	0.379790
	C124	C	0.618567	0.378140	0.009535
	C125	C	0.621088	0.619807	0.992219
	C126	C	0.377484	0.618606	0.008664
	C127	C	0.374352	0.376540	0.992016
	C128	C	0.005440	0.618704	0.379906
	C129	C	0.989045	0.618124	0.623269
	C130	C	0.005690	0.374904	0.623080
	C131	C	0.990078	0.375946	0.378510
	C132	C	0.877347	0.506644	0.121697
	C133	C	0.119693	0.490314	0.122099
	C134	C	0.118032	0.506590	0.880667
	C135	C	0.876184	0.489377	0.880199
	C136	C	0.118929	0.875973	0.509513
	C137	C	0.119823	0.118676	0.491735
	C138	C	0.876256	0.118241	0.509075
	C139	C	0.874682	0.876037	0.493205
	C140	C	0.506220	0.120237	0.879570
	C141	C	0.488423	0.121248	0.123889
	C142	C	0.506142	0.877461	0.121230
	C143	C	0.490156	0.876456	0.877890
	C144	C	0.373744	0.886106	0.681735
	C145	C	0.620366	0.110286	0.681041
	C146	C	0.622492	0.888085	0.316441
	C147	C	0.373265	0.108751	0.319744
	C148	C	0.679220	0.373673	0.890713
	C149	C	0.682253	0.624902	0.110623
	C150	C	0.317422	0.621572	0.889593
	C151	C	0.315111	0.374762	0.111568
	C152	C	0.886937	0.678848	0.377167
	C153	C	0.107441	0.679348	0.625166
	C154	C	0.886931	0.314442	0.623584
	C155	C	0.109723	0.318226	0.378997
	C156	C	0.887578	0.370551	0.683656
	C157	C	0.107717	0.620936	0.682981
	C158	C	0.888332	0.623142	0.316850
	C159	C	0.109186	0.375173	0.319665
	C160	C	0.377417	0.677141	0.888472
	C161	C	0.623626	0.681598	0.110871
	C162	C	0.617899	0.319689	0.889253
	C163	C	0.374037	0.318268	0.111999
	C164	C	0.679610	0.887883	0.374348
	C165	C	0.679800	0.108837	0.625767
	C166	C	0.316404	0.885796	0.624069
	C167	C	0.316005	0.108123	0.377092
	C168	C	0.874809	0.386554	0.181713
	C169	C	0.122421	0.610438	0.182567
	C170	C	0.118787	0.385522	0.821850
	C171	C	0.873639	0.608904	0.818916
	C172	C	0.180079	0.870331	0.391428
	C173	C	0.178764	0.121474	0.611270
	C174	C	0.815110	0.122247	0.390947
	C175	C	0.812142	0.870637	0.610630
	C176	C	0.386330	0.177109	0.880153
	C177	C	0.606777	0.182573	0.126090
	C178	C	0.388298	0.815253	0.123822
	C179	C	0.608804	0.816468	0.875272
	C180	C	0.388164	0.872965	0.182288
	C181	C	0.606381	0.125613	0.185190
	C182	C	0.387187	0.120536	0.820844
	C183	C	0.608103	0.873970	0.816732
	C184	C	0.875793	0.176947	0.389167
	C185	C	0.119381	0.177480	0.611959
	C186	C	0.119934	0.814734	0.390635
	C187	C	0.871761	0.814707	0.611883
	C188	C	0.177154	0.386272	0.878658
	C189	C	0.180794	0.610100	0.125927
	C190	C	0.816244	0.386940	0.125407
	C191	C	0.815915	0.608924	0.876345
	C192	C	0.400121	0.090493	0.597776
	C193	C	0.591138	0.906484	0.595200
	C194	C	0.592308	0.089421	0.407295
	C195	C	0.401905	0.905349	0.405066
	C196	C	0.593900	0.404459	0.092435
	C197	C	0.595628	0.593107	0.909676
	C198	C	0.402403	0.592785	0.091405
	C199	C	0.398525	0.401330	0.908714
	C200	C	0.087472	0.593070	0.405813
	C201	C	0.906581	0.592066	0.598196
	C202	C	0.088496	0.400943	0.598929
	C203	C	0.907331	0.400511	0.402828
	C204	C	0.903220	0.589802	0.095562
	C205	C	0.094489	0.406629	0.096673
	C206	C	0.094210	0.590575	0.905034
	C207	C	0.901213	0.405963	0.905857
	C208	C	0.094081	0.902728	0.592252
	C209	C	0.095923	0.093293	0.408506
	C210	C	0.901193	0.092687	0.592066
	C211	C	0.900693	0.902607	0.411001
	C212	C	0.589134	0.096364	0.903359
	C213	C	0.405983	0.095213	0.098720
	C214	C	0.587948	0.904647	0.095332
	C215	C	0.407768	0.901314	0.903230
	Zn216	Zn	0.497499	-0.001485	0.749695
	Zn217	Zn	0.497341	-0.001696	0.251832
	Zn218	Zn	0.748609	0.497849	0.001509
	Zn219	Zn	0.247231	0.498760	0.000825
	Zn220	Zn	-0.003389	0.747951	0.501826
	Zn221	Zn	-0.001976	0.246856	0.500436
	Zn222	Zn	-0.002934	0.496808	0.752324
	Zn223	Zn	-0.001607	0.498521	0.249698
	Zn224	Zn	0.499147	0.747418	-0.000359
	Zn225	Zn	0.497479	0.249616	0.001222
	Zn226	Zn	0.746236	-0.002132	0.501314
	Zn227	Zn	0.248169	-0.002906	0.500843
	N228	N	0.409640	0.962386	0.680960
	N229	N	0.582324	0.035106	0.678483
	N230	N	0.585039	0.963094	0.319933
	N231	N	0.410314	0.033453	0.321216
	N232	N	0.679765	0.409116	0.966652
	N233	N	0.681030	0.587447	0.035576
	N234	N	0.317068	0.586294	0.965532
	N235	N	0.315124	0.410200	0.035802
	N236	N	0.960508	0.676014	0.415960
	N237	N	0.032512	0.677935	0.589161
	N238	N	0.961429	0.317276	0.586494
	N239	N	0.034636	0.318363	0.414590
	N240	N	0.962463	0.407544	0.683284
	N241	N	0.032943	0.583771	0.681974
	N242	N	0.962920	0.586425	0.318551
	N243	N	0.033730	0.410166	0.319011
	N244	N	0.413926	0.675504	0.963423
	N245	N	0.586402	0.678722	0.036190
	N246	N	0.581059	0.322143	0.964195
	N247	N	0.409928	0.319200	0.036677
	N248	N	0.677329	0.962705	0.413095
	N249	N	0.678268	0.032919	0.589291
	N250	N	0.317475	0.961656	0.587789
	N251	N	0.317748	0.032380	0.413700
	N252	N	0.912041	0.462088	0.179619
	N253	N	0.085176	0.534974	0.180215
	N254	N	0.082952	0.461333	0.823041
	N255	N	0.910299	0.533506	0.821099
	N256	N	0.179398	0.907781	0.466413
	N257	N	0.179488	0.085743	0.535415
	N258	N	0.815387	0.086483	0.466680
	N259	N	0.813822	0.908036	0.535874
	N260	N	0.461305	0.177084	0.915949
	N261	N	0.532416	0.180018	0.088788
	N262	N	0.462766	0.817608	0.086958
	N263	N	0.534299	0.817781	0.912457
	N264	N	0.462593	0.911055	0.180884
	N265	N	0.531703	0.088268	0.183932
	N266	N	0.462775	0.085871	0.820345
	N267	N	0.533430	0.910532	0.818295
	N268	N	0.913290	0.174486	0.463729
	N269	N	0.083509	0.175870	0.536716
	N270	N	0.082468	0.818337	0.465170
	N271	N	0.910122	0.818141	0.537866
	N272	N	0.176988	0.462605	0.914501
	N273	N	0.179540	0.534263	0.089275
	N274	N	0.817553	0.462639	0.088875
	N275	N	0.817228	0.533489	0.913624
	O276	O	0.555902	0.282914	0.284962
	H277	H	0.595606	0.297828	0.301875
	H278	H	0.556389	0.256846	0.257844
	O279	O	0.694731	0.320763	0.508749
	H280	H	0.700396	0.310340	0.508706
	H281	H	0.690837	0.328090	0.525089
	O282	O	0.477807	0.565747	0.597204
	H283	H	0.476669	0.564546	0.584888
	H284	H	0.488655	0.557281	0.605469
	O285	O	0.804149	1.002294	0.099603
	H286	H	0.790297	1.014272	0.086867
	H287	H	0.806201	1.008640	0.112204
	O288	O	0.373751	0.312995	0.692924
	H289	H	0.376574	0.295668	0.711356
	H290	H	0.353818	0.324851	0.704436
	O291	O	0.351669	0.641513	0.365573
	H292	H	0.359457	0.634508	0.364181
	H293	H	0.341174	0.642838	0.391857
	O294	O	1.115908	0.938993	1.046907
	H295	H	1.117032	0.938868	1.065973
	H296	H	1.110925	0.920679	1.050095
	O297	O	0.433106	0.409984	0.390056
	H298	H	0.435571	0.406927	0.400616
	H299	H	0.449891	0.396524	0.394594
	O300	O	0.401424	0.405588	0.409842
	H301	H	0.391165	0.380692	0.409776
	H302	H	0.400617	0.410838	0.379788
	O303	O	0.456701	0.685288	0.459597
	H304	H	0.455089	0.689085	0.437671
	H305	H	0.433614	0.667962	0.471159
	O306	O	0.083464	0.004467	0.824142
	H307	H	0.086997	0.001341	0.818665
	H308	H	0.088861	0.002434	0.854019
	O309	O	1.208962	-0.192835	-0.022684
	H310	H	1.223778	-0.214375	-0.037384
	H311	H	1.207378	-0.193053	-0.052796
	O312	O	0.707120	0.516449	0.695813
	H313	H	0.702941	0.530367	0.678427
	H314	H	0.728446	0.516801	0.716377
	O315	O	0.640813	0.473171	0.542664
	H316	H	0.624624	0.464182	0.534932
	H317	H	0.645188	0.465755	0.547237
	O318	O	0.086889	0.091968	-0.015449
	H319	H	0.084788	0.086670	-0.010584
	H320	H	0.100589	0.081929	-0.016447
	O321	O	0.667629	0.322961	0.355087
	H322	H	0.673496	0.315258	0.394117
	H323	H	0.680900	0.372435	0.349769
	O324	O	0.924435	0.182275	0.818003
	H325	H	0.932787	0.150902	0.815811
	H326	H	0.934812	0.177227	0.807653
	O327	O	0.673555	0.533621	0.487805
	H328	H	0.673005	0.554596	0.498120
	H329	H	0.676426	0.531109	0.508724
	O330	O	0.157583	1.013796	0.889568
	H331	H	0.160235	1.015788	0.902472
	H332	H	0.162942	1.014711	0.901841
	O333	O	0.100893	0.822152	0.097892
	H334	H	0.108241	0.825573	0.104449
	H335	H	0.119227	0.825423	0.085553
	O336	O	1.170072	1.128068	0.096693
	H337	H	1.161399	1.127988	0.118619
	H338	H	1.191995	1.146956	0.102013
	O339	O	0.008341	0.883814	1.036372
	H340	H	0.017859	0.891456	1.040207
	H341	H	0.010706	0.869988	1.047528
	O342	O	0.384945	0.491340	0.438492
	H343	H	0.382755	0.487364	0.437738
	H344	H	0.379747	0.476547	0.438623
	O345	O	0.137361	0.073464	1.197898
	H346	H	0.131440	0.061174	1.194386
	H347	H	0.154384	0.084580	1.226214
	O348	O	0.299103	0.300868	0.592519
	H349	H	0.293581	0.296334	0.597006
	H350	H	0.283023	0.305727	0.609075
	O351	O	0.866430	0.852221	0.081305
	H352	H	0.872370	0.875551	0.055363
	H353	H	0.879593	0.849847	0.092460
	O354	O	0.897795	0.833016	1.076301
	H355	H	0.880664	0.825614	1.065784
	H356	H	0.877691	0.854463	1.085648
	O357	O	-0.015520	-0.021865	0.113900
	H358	H	-0.036648	-0.022843	0.103641
	H359	H	-0.016266	-0.032368	0.127424
	O360	O	0.326764	0.572009	0.613493
	H361	H	0.332129	0.545973	0.605422
	H362	H	0.346813	0.570647	0.610819
	O363	O	1.047213	0.149087	0.152110
	H364	H	1.036649	0.141563	0.158238
	H365	H	1.040751	0.146638	0.148203
	O366	O	0.035650	0.186805	1.037334
	H367	H	0.020640	0.180077	1.038632
	H368	H	0.029974	0.190728	1.037895
	O369	O	0.800658	0.060033	0.805899
	H370	H	0.782820	0.055713	0.804597
	H371	H	0.818623	0.046719	0.807274
	O372	O	0.320309	0.485614	0.690076
	H373	H	0.323264	0.497948	0.682430
	H374	H	0.321956	0.489397	0.696008
	O375	O	0.182207	-0.098213	0.857231
	H376	H	0.181322	-0.080980	0.859631
	H377	H	0.160034	-0.112041	0.842012
	O378	O	0.325023	0.535832	0.451012
	H379	H	0.320326	0.547980	0.447133
	H380	H	0.339861	0.519504	0.469818
	O381	O	-0.110996	1.084945	0.131254
	H382	H	-0.123233	1.110674	0.138028
	H383	H	-0.098732	1.092704	0.119080
	O384	O	0.661493	0.665953	0.678353
	H385	H	0.644866	0.641819	0.684091
	H386	H	0.673182	0.679237	0.631137
	O387	O	0.509064	0.692758	0.701233
	H388	H	0.518019	0.695113	0.708623
	H389	H	0.522034	0.693551	0.702153
	O390	O	0.983361	0.986980	0.206554
	H391	H	0.971997	0.998779	0.197584
	H392	H	0.975903	0.977048	0.212524
	O393	O	0.783233	0.198714	0.984559
	H394	H	0.754036	0.222452	0.975449
	H395	H	0.810300	0.192387	0.955389
	O396	O	0.521370	0.639478	0.474070
	H397	H	0.509040	0.649296	0.474055
	H398	H	0.514780	0.617975	0.474775
	O399	O	0.679401	0.461192	0.311110
	H400	H	0.675871	0.480284	0.331941
	H401	H	0.695145	0.467277	0.290706
	O402	O	0.784479	0.791711	0.019235
	H403	H	0.800980	0.804907	0.016047
	H404	H	0.755764	0.758673	0.021101
	O405	O	0.139835	0.228317	0.345863
	H406	H	0.122200	0.234990	0.344418
	H407	H	0.133563	0.219759	0.326325
	O408	O	0.700173	0.689887	0.520384
	H409	H	0.701658	0.714094	0.507047
	H410	H	0.686263	0.704837	0.505920
	O411	O	0.902580	0.968270	0.947564
	H412	H	0.909229	0.972478	0.941551
	H413	H	0.908081	0.985082	0.959134
	O414	O	0.553608	0.322425	0.572817
	H415	H	0.545507	0.318874	0.573145
	H416	H	0.539847	0.332463	0.581858
	O417	O	-0.083498	0.861782	0.880051
	H418	H	-0.083377	0.857749	0.894153
	H419	H	-0.097508	0.855725	0.893093
	O420	O	-0.046402	1.000950	0.800860
	H421	H	-0.057928	1.014341	0.798828
	H422	H	-0.033443	0.998264	0.809878
	O423	O	0.125684	1.099526	-0.026710
	H424	H	0.138252	1.100536	-0.012945
	H425	H	0.124527	1.088030	-0.035076
	O426	O	0.325523	0.567825	0.294098
	H427	H	0.326990	0.573951	0.276260
	H428	H	0.324944	0.567125	0.282694
	O429	O	0.492283	0.693006	0.317695
	H430	H	0.485098	0.707525	0.291066
	H431	H	0.473991	0.682362	0.313178
	O432	O	0.501031	0.364708	0.688708
	H433	H	0.508823	0.369915	0.690715
	H434	H	0.502237	0.349787	0.689344
	O435	O	0.034910	0.176944	0.005542
	H436	H	0.049348	0.194401	-0.001411
	H437	H	0.054063	0.164870	0.000595
	O438	O	0.085183	0.787730	0.808238
	H439	H	0.075138	0.765183	0.786123
	H440	H	0.071052	0.790279	0.802954
	O441	O	0.496306	0.535382	0.312243
	H442	H	0.486897	0.528902	0.307398
	H443	H	0.506674	0.548769	0.321946
