data_Molecule from HDF5

_cell_length_a		16.391773
_cell_length_b		16.430785
_cell_length_c		16.441351
_cell_angle_alpha	90.107877
_cell_angle_beta	89.990950
_cell_angle_gamma	89.980302
_symmetry_space_group_name_H-M	'P 1'
_symmetry_Int_Tables_number		1

loop_
	_symmetry_equiv_pos_as_xyz
	x,y,z

loop_
	_atom_site_label
	_atom_site_type_symbol
	_atom_site_fract_x
	_atom_site_fract_y
	_atom_site_fract_z
	H0	H	0.399768	0.842825	0.717544
	H1	H	0.607908	0.160895	0.720527
	H2	H	0.606584	0.843078	0.277920
	H3	H	0.397426	0.161073	0.278951
	H4	H	0.720866	0.398201	0.840970
	H5	H	0.717037	0.606457	0.159668
	H6	H	0.279482	0.603942	0.840605
	H7	H	0.280359	0.398192	0.159789
	H8	H	0.840438	0.719588	0.402117
	H9	H	0.160802	0.720898	0.606747
	H10	H	0.841086	0.280239	0.604620
	H11	H	0.160651	0.284723	0.397257
	H12	H	0.839152	0.397867	0.719818
	H13	H	0.159641	0.603819	0.722388
	H14	H	0.840831	0.607461	0.282296
	H15	H	0.158933	0.398835	0.278734
	H16	H	0.396168	0.720642	0.839454
	H17	H	0.602042	0.723536	0.158326
	H18	H	0.605585	0.281260	0.840363
	H19	H	0.394913	0.280077	0.157995
	H20	H	0.722080	0.842241	0.395408
	H21	H	0.721882	0.161493	0.602887
	H22	H	0.283578	0.842471	0.601469
	H23	H	0.279957	0.160258	0.393553
	H24	H	0.895239	0.343969	0.220012
	H25	H	0.100141	0.663319	0.217527
	H26	H	0.104464	0.342967	0.779772
	H27	H	0.894724	0.660794	0.781006
	H28	H	0.219422	0.898725	0.339428
	H29	H	0.222218	0.104714	0.659000
	H30	H	0.781197	0.106468	0.341320
	H31	H	0.779223	0.897147	0.658685
	H32	H	0.341058	0.223872	0.892804
	H33	H	0.660233	0.221823	0.100371
	H34	H	0.340513	0.784946	0.101917
	H35	H	0.659215	0.780217	0.893468
	H36	H	0.343065	0.897681	0.220259
	H37	H	0.660709	0.107362	0.218273
	H38	H	0.341933	0.108018	0.776602
	H39	H	0.661481	0.898537	0.779657
	H40	H	0.898572	0.221978	0.340906
	H41	H	0.109348	0.225305	0.658574
	H42	H	0.104608	0.780877	0.341430
	H43	H	0.896833	0.782615	0.660721
	H44	H	0.220066	0.342242	0.896590
	H45	H	0.218064	0.661748	0.103430
	H46	H	0.780123	0.343630	0.102803
	H47	H	0.780858	0.662535	0.899039
	H48	H	0.409681	0.114891	0.585272
	H49	H	0.592510	0.887307	0.592701
	H50	H	0.586840	0.114155	0.407538
	H51	H	0.400713	0.884721	0.408371
	H52	H	0.589488	0.417656	0.110824
	H53	H	0.592338	0.594760	0.884650
	H54	H	0.410064	0.587411	0.110867
	H55	H	0.407179	0.420308	0.888449
	H56	H	0.113348	0.589313	0.413863
	H57	H	0.884932	0.594395	0.594691
	H58	H	0.111613	0.414105	0.586476
	H59	H	0.890177	0.418973	0.416716
	H60	H	0.112180	0.416915	0.592946
	H61	H	0.887780	0.594627	0.587717
	H62	H	0.114990	0.588310	0.405911
	H63	H	0.884184	0.414203	0.401745
	H64	H	0.414670	0.600314	0.112982
	H65	H	0.591267	0.586208	0.887162
	H66	H	0.583269	0.408273	0.111576
	H67	H	0.417400	0.411783	0.889070
	H68	H	0.593208	0.113707	0.414670
	H69	H	0.586649	0.890762	0.588243
	H70	H	0.412315	0.116373	0.591374
	H71	H	0.417713	0.886586	0.398631
	H72	H	0.901019	0.618689	0.087914
	H73	H	0.087340	0.388505	0.090536
	H74	H	0.087474	0.617462	0.902691
	H75	H	0.907529	0.387427	0.909270
	H76	H	0.090760	0.915436	0.611875
	H77	H	0.092736	0.092379	0.386852
	H78	H	0.909894	0.098153	0.615481
	H79	H	0.918755	0.916362	0.391841
	H80	H	0.615396	0.093129	0.904415
	H81	H	0.387943	0.087711	0.089639
	H82	H	0.615798	0.916073	0.093638
	H83	H	0.390414	0.919051	0.910673
	H84	H	0.617214	0.906170	0.085883
	H85	H	0.386433	0.091464	0.090187
	H86	H	0.613724	0.095615	0.913615
	H87	H	0.385190	0.913645	0.901211
	H88	H	0.907508	0.083940	0.612340
	H89	H	0.090123	0.092020	0.387647
	H90	H	0.090523	0.908436	0.614769
	H91	H	0.916156	0.905206	0.386898
	H92	H	0.080959	0.610033	0.916379
	H93	H	0.089729	0.389387	0.088969
	H94	H	0.906974	0.620558	0.100411
	H95	H	0.912775	0.389312	0.909914
	H96	H	0.416369	0.114606	0.586189
	H97	H	0.593874	0.889410	0.584789
	H98	H	0.595675	0.117486	0.406226
	H99	H	0.415951	0.893009	0.416938
	H100	H	0.593971	0.408320	0.115303
	H101	H	0.584534	0.591696	0.887909
	H102	H	0.401603	0.596865	0.116507
	H103	H	0.405930	0.407947	0.883887
	H104	H	0.116550	0.595785	0.410671
	H105	H	0.887577	0.588209	0.591651
	H106	H	0.114361	0.410202	0.591973
	H107	H	0.884439	0.402919	0.414691
	H108	H	0.914225	0.614290	0.090119
	H109	H	0.090328	0.387789	0.091363
	H110	H	0.096903	0.615612	0.916001
	H111	H	0.908975	0.389883	0.914658
	H112	H	0.096984	0.912298	0.615191
	H113	H	0.090989	0.094503	0.385703
	H114	H	0.921096	0.089921	0.610100
	H115	H	0.906793	0.914332	0.386309
	H116	H	0.611851	0.087056	0.911275
	H117	H	0.388163	0.090489	0.086761
	H118	H	0.611381	0.915938	0.082198
	H119	H	0.386743	0.907293	0.911215
	C120	C	0.381441	0.010291	0.619382
	C121	C	0.623079	0.994151	0.620618
	C122	C	0.623903	0.010017	0.377589
	C123	C	0.380011	0.993273	0.376953
	C124	C	0.621118	0.380335	0.007607
	C125	C	0.620090	0.623405	0.991414
	C126	C	0.377358	0.624778	0.008036
	C127	C	0.378320	0.380798	0.991672
	C128	C	0.009049	0.623037	0.380562
	C129	C	0.991874	0.623511	0.623810
	C130	C	0.007938	0.380633	0.622269
	C131	C	0.991853	0.381060	0.378948
	C132	C	0.876882	0.512264	0.123239
	C133	C	0.120102	0.493950	0.121743
	C134	C	0.120524	0.509494	0.879753
	C135	C	0.878085	0.493879	0.879835
	C136	C	0.123461	0.880067	0.508431
	C137	C	0.123972	0.124324	0.491761
	C138	C	0.880674	0.122861	0.508055
	C139	C	0.880850	0.880580	0.492920
	C140	C	0.508733	0.124361	0.876747
	C141	C	0.492648	0.122968	0.120385
	C142	C	0.509342	0.881845	0.118919
	C143	C	0.492533	0.880764	0.876524
	C144	C	0.380647	0.890539	0.677959
	C145	C	0.625885	0.113360	0.680610
	C146	C	0.625288	0.890489	0.318097
	C147	C	0.378762	0.113152	0.318412
	C148	C	0.680910	0.379312	0.888575
	C149	C	0.677784	0.624835	0.111839
	C150	C	0.318845	0.623775	0.888037
	C151	C	0.319356	0.379058	0.111598
	C152	C	0.888684	0.681514	0.381649
	C153	C	0.112533	0.681994	0.625870
	C154	C	0.888456	0.320027	0.623903
	C155	C	0.112281	0.323190	0.377973
	C156	C	0.887539	0.378718	0.680898
	C157	C	0.111888	0.623782	0.683302
	C158	C	0.888738	0.625182	0.322323
	C159	C	0.111418	0.380156	0.319050
	C160	C	0.376861	0.681746	0.887575
	C161	C	0.620555	0.683137	0.110993
	C162	C	0.623195	0.321020	0.888111
	C163	C	0.376320	0.320192	0.110513
	C164	C	0.682896	0.890251	0.376436
	C165	C	0.682608	0.113543	0.622025
	C166	C	0.322755	0.890225	0.620386
	C167	C	0.319951	0.112662	0.375293
	C168	C	0.876306	0.391662	0.180806
	C169	C	0.120235	0.614663	0.179567
	C170	C	0.122351	0.390265	0.820058
	C171	C	0.876405	0.613480	0.820823
	C172	C	0.180878	0.879357	0.387995
	C173	C	0.183264	0.124826	0.611177
	C174	C	0.821322	0.124639	0.388632
	C175	C	0.819682	0.878875	0.611556
	C176	C	0.389105	0.184059	0.874272
	C177	C	0.612354	0.182612	0.120427
	C178	C	0.388823	0.823710	0.120230
	C179	C	0.611919	0.820554	0.875051
	C180	C	0.389967	0.880031	0.179233
	C181	C	0.612587	0.125781	0.179248
	C182	C	0.389627	0.126349	0.816461
	C183	C	0.613115	0.879707	0.818729
	C184	C	0.879421	0.182350	0.388701
	C185	C	0.126881	0.184570	0.610972
	C186	C	0.123875	0.820466	0.388899
	C187	C	0.878497	0.821914	0.612705
	C188	C	0.180181	0.389991	0.878211
	C189	C	0.178386	0.614259	0.122227
	C190	C	0.819208	0.391455	0.122454
	C191	C	0.819516	0.614263	0.879263
	C192	C	0.405790	0.093682	0.594664
	C193	C	0.598043	0.910824	0.595753
	C194	C	0.599144	0.093387	0.402299
	C195	C	0.404459	0.909812	0.401022
	C196	C	0.596103	0.404504	0.091062
	C197	C	0.596180	0.598118	0.908195
	C198	C	0.401636	0.601470	0.091694
	C199	C	0.403017	0.406097	0.908565
	C200	C	0.093119	0.598272	0.403766
	C201	C	0.908518	0.599467	0.598680
	C202	C	0.091023	0.406273	0.597591
	C203	C	0.908100	0.405232	0.403775
	C204	C	0.900537	0.595865	0.099855
	C205	C	0.095893	0.410416	0.097539
	C206	C	0.095591	0.592997	0.904528
	C207	C	0.902488	0.410542	0.904397
	C208	C	0.099600	0.904834	0.592232
	C209	C	0.098637	0.099945	0.408527
	C210	C	0.905698	0.097756	0.591171
	C211	C	0.906501	0.905017	0.410070
	C212	C	0.592052	0.099295	0.902494
	C213	C	0.409200	0.097443	0.095930
	C214	C	0.592898	0.906044	0.094379
	C215	C	0.408983	0.906053	0.900832
	Zn216	Zn	0.501678	0.002774	0.748809
	Zn217	Zn	0.502186	0.001714	0.248788
	Zn218	Zn	0.749442	0.502854	0.000377
	Zn219	Zn	0.249303	0.502239	0.000888
	Zn220	Zn	0.001929	0.751376	0.501678
	Zn221	Zn	0.001149	0.252378	0.500608
	Zn222	Zn	-0.001494	0.501471	0.751180
	Zn223	Zn	-0.000782	0.502816	0.250808
	Zn224	Zn	0.499907	0.752682	-0.001824
	Zn225	Zn	0.499664	0.251264	-0.000975
	Zn226	Zn	0.751897	0.001774	0.499844
	Zn227	Zn	0.252124	0.001650	0.499093
	N228	N	0.416269	0.966151	0.677530
	N229	N	0.589519	0.038096	0.679692
	N230	N	0.589650	0.966131	0.318491
	N231	N	0.415277	0.037835	0.319201
	N232	N	0.679725	0.415483	0.963813
	N233	N	0.677896	0.588502	0.036544
	N234	N	0.318897	0.589222	0.964214
	N235	N	0.320183	0.415811	0.036531
	N236	N	0.964582	0.680164	0.417036
	N237	N	0.036904	0.682214	0.589817
	N238	N	0.964395	0.320805	0.588442
	N239	N	0.036852	0.323632	0.414556
	N240	N	0.962832	0.415375	0.680214
	N241	N	0.035867	0.588466	0.682360
	N242	N	0.964659	0.589653	0.321495
	N243	N	0.035421	0.415308	0.319726
	N244	N	0.412352	0.682532	0.963144
	N245	N	0.585556	0.682280	0.035092
	N246	N	0.586459	0.321813	0.963247
	N247	N	0.412138	0.321078	0.034932
	N248	N	0.682166	0.965766	0.412459
	N249	N	0.680968	0.038318	0.585371
	N250	N	0.322993	0.965805	0.584691
	N251	N	0.320598	0.037135	0.410952
	N252	N	0.911231	0.467657	0.181520
	N253	N	0.084615	0.538829	0.179202
	N254	N	0.086162	0.465800	0.820817
	N255	N	0.911989	0.537650	0.820910
	N256	N	0.180735	0.915527	0.463538
	N257	N	0.181416	0.088235	0.536056
	N258	N	0.821842	0.088576	0.463979
	N259	N	0.821328	0.914955	0.536262
	N260	N	0.464193	0.182874	0.911081
	N261	N	0.536608	0.181125	0.084775
	N262	N	0.463992	0.824832	0.083198
	N263	N	0.535858	0.821011	0.910275
	N264	N	0.465845	0.915439	0.178678
	N265	N	0.537126	0.089400	0.179275
	N266	N	0.465331	0.090189	0.817858
	N267	N	0.537793	0.916374	0.819440
	N268	N	0.915604	0.181238	0.463962
	N269	N	0.090597	0.184486	0.535451
	N270	N	0.089328	0.820569	0.464977
	N271	N	0.915940	0.822728	0.537857
	N272	N	0.178972	0.465377	0.914640
	N273	N	0.178875	0.538237	0.087328
	N274	N	0.818981	0.467438	0.087634
	N275	N	0.820455	0.538855	0.915060
	O276	O	0.498668	0.302317	0.554938
	H277	H	0.492247	0.301588	0.553820
	H278	H	0.502864	0.301826	0.573969
	O279	O	0.537988	0.544756	0.581379
	H280	H	0.542470	0.533838	0.577987
	H281	H	0.535914	0.556968	0.578394
	O282	O	0.503058	0.410777	0.299832
	H283	H	0.504924	0.423387	0.302250
	H284	H	0.504704	0.405499	0.291287
	O285	O	1.024352	1.069841	0.059036
	H286	H	1.013661	1.079953	0.066090
	H287	H	1.023546	1.060159	0.049263
	O288	O	0.597328	0.596399	0.705697
	H289	H	0.611260	0.616360	0.713916
	H290	H	0.621162	0.610689	0.701852
	O291	O	0.299093	0.643991	0.373651
	H292	H	0.277757	0.648672	0.359258
	H293	H	0.304541	0.621844	0.379419
	O294	O	1.044794	0.981019	1.171217
	H295	H	1.043035	0.972703	1.173806
	H296	H	1.044494	0.978937	1.165131
	O297	O	0.356518	0.344400	0.507847
	H298	H	0.363285	0.362503	0.518732
	H299	H	0.339027	0.312954	0.506564
	O300	O	0.306303	0.385614	0.498039
	H301	H	0.304751	0.381981	0.501082
	H302	H	0.316098	0.391825	0.503531
	O303	O	0.696653	0.307568	0.321173
	H304	H	0.711839	0.296131	0.319725
	H305	H	0.658361	0.298852	0.317427
	O306	O	-0.165198	-0.126083	1.021732
	H307	H	-0.164276	-0.133532	1.009545
	H308	H	-0.161015	-0.114518	1.012312
	O309	O	1.140399	0.138995	0.114408
	H310	H	1.138447	0.132761	0.119824
	H311	H	1.142091	0.139132	0.092151
	O312	O	0.638572	0.487768	0.495422
	H313	H	0.645028	0.474269	0.495145
	H314	H	0.642597	0.468851	0.485801
	O315	O	0.391821	0.509099	0.351204
	H316	H	0.395472	0.510811	0.356162
	H317	H	0.382494	0.507968	0.342394
	O318	O	0.205130	-0.196011	0.187473
	H319	H	0.197674	-0.211670	0.183590
	H320	H	0.196636	-0.194540	0.195048
	O321	O	0.426449	0.600787	0.605206
	H322	H	0.441025	0.614927	0.604668
	H323	H	0.417915	0.603179	0.600439
	O324	O	1.086633	0.029584	0.942051
	H325	H	1.082340	0.025701	0.956942
	H326	H	1.095535	0.016404	0.942227
	O327	O	0.607303	0.627894	0.664937
	H328	H	0.619221	0.641489	0.672905
	H329	H	0.608080	0.632800	0.642961
	O330	O	-0.120425	0.873480	0.970116
	H331	H	-0.118097	0.859705	0.975922
	H332	H	-0.123568	0.898372	0.954884
	O333	O	0.194572	0.900396	-0.142167
	H334	H	0.189721	0.898840	-0.131076
	H335	H	0.195112	0.917994	-0.155827
	O336	O	1.128832	1.164629	0.114388
	H337	H	1.138310	1.175975	0.102766
	H338	H	1.140999	1.150461	0.122532
	O339	O	0.013912	0.793802	0.889003
	H340	H	0.007966	0.789341	0.887609
	H341	H	0.033368	0.787714	0.898337
	O342	O	0.382646	0.318107	0.623879
	H343	H	0.383518	0.330247	0.633040
	H344	H	0.395099	0.317223	0.633618
	O345	O	-0.162600	0.003056	0.958407
	H346	H	-0.169723	0.008677	0.957587
	H347	H	-0.158661	0.020304	0.954829
	O348	O	0.431649	0.704262	0.462073
	H349	H	0.430154	0.698975	0.444203
	H350	H	0.423147	0.715386	0.461107
	O351	O	0.885374	1.041738	-0.000261
	H352	H	0.898780	1.046475	0.004704
	H353	H	0.893490	1.026712	-0.003993
	O354	O	0.668158	0.682164	1.320814
	H355	H	0.662829	0.671523	1.312920
	H356	H	0.658483	0.675955	1.330171
	O357	O	0.040739	-0.150454	0.104892
	H358	H	0.022351	-0.158777	0.121025
	H359	H	0.041553	-0.144408	0.104147
	O360	O	0.406338	0.480369	0.697921
	H361	H	0.398582	0.487780	0.709969
	H362	H	0.409135	0.497269	0.700880
	O363	O	0.984207	0.029661	-0.005216
	H364	H	1.003024	0.032353	-0.002704
	H365	H	1.000804	0.038778	-0.000214
	O366	O	-0.111645	0.155310	1.000275
	H367	H	-0.123556	0.145818	1.006396
	H368	H	-0.113189	0.160719	0.987608
	O369	O	0.828085	-0.140730	1.200313
	H370	H	0.829884	-0.153753	1.214139
	H371	H	0.815340	-0.145237	1.182499
	O372	O	0.369535	0.448741	0.409738
	H373	H	0.376307	0.460506	0.415871
	H374	H	0.369576	0.452058	0.412534
	O375	O	0.172752	-0.164526	0.792171
	H376	H	0.175735	-0.176546	0.791532
	H377	H	0.184546	-0.156811	0.788253
	O378	O	0.684350	0.489833	0.607073
	H379	H	0.696914	0.495904	0.621831
	H380	H	0.668017	0.482610	0.614294
	O381	O	-0.033385	1.149458	-0.092079
	H382	H	-0.038012	1.160406	-0.095945
	H383	H	-0.012478	1.144980	-0.090212
	O384	O	0.503180	0.631113	0.523283
	H385	H	0.499986	0.629666	0.514152
	H386	H	0.489273	0.622727	0.511670
	O387	O	0.620153	0.558650	0.342045
	H388	H	0.630964	0.554951	0.343955
	H389	H	0.626776	0.545016	0.335365
	O390	O	1.168593	0.947366	0.116100
	H391	H	1.160973	0.945451	0.107112
	H392	H	1.164042	0.942463	0.116316
	O393	O	0.910195	0.200199	0.892490
	H394	H	0.911667	0.207040	0.899343
	H395	H	0.898651	0.183741	0.879771
	O396	O	0.579737	0.579927	0.558994
	H397	H	0.583364	0.573967	0.554639
	H398	H	0.576700	0.584572	0.560368
	O399	O	0.331529	0.508708	0.516021
	H400	H	0.336529	0.506577	0.506168
	H401	H	0.331842	0.524102	0.517953
	O402	O	0.823244	0.998835	0.198055
	H403	H	0.826992	0.989308	0.206695
	H404	H	0.815523	0.982615	0.207209
	O405	O	-0.004840	-0.019747	0.096508
	H406	H	-0.000747	-0.011475	0.107614
	H407	H	-0.013208	-0.030380	0.088773
	O408	O	0.582119	0.502243	0.501952
	H409	H	0.563893	0.502606	0.501767
	H410	H	0.584665	0.506839	0.480703
	O411	O	0.890245	1.024773	0.827675
	H412	H	0.901609	1.013576	0.824076
	H413	H	0.886587	1.020550	0.811229
	O414	O	0.394189	0.474291	0.467417
	H415	H	0.394006	0.473186	0.467024
	H416	H	0.388636	0.466801	0.474732
	O417	O	0.153552	1.150638	0.950105
	H418	H	0.169672	1.156420	0.944103
	H419	H	0.151221	1.141002	0.937208
	O420	O	0.203168	0.870397	1.040683
	H421	H	0.202416	0.878767	1.054746
	H422	H	0.210115	0.867380	1.033797
	O423	O	0.078425	1.099312	-0.098868
	H424	H	0.072698	1.103449	-0.110060
	H425	H	0.060596	1.093992	-0.096976
	O426	O	0.671391	0.303144	0.511213
	H427	H	0.670694	0.292316	0.510995
	H428	H	0.665299	0.298990	0.499648
	O429	O	0.406626	0.638818	0.352654
	H430	H	0.401555	0.634222	0.352349
	H431	H	0.424151	0.628265	0.357038
	O432	O	0.639105	0.501472	0.543570
	H433	H	0.649221	0.483262	0.530414
	H434	H	0.635367	0.505377	0.551469
	O435	O	-0.126916	0.147913	-0.028996
	H436	H	-0.112487	0.143757	-0.016893
	H437	H	-0.109859	0.157902	-0.026060
	O438	O	-0.109077	0.983324	0.830856
	H439	H	-0.114294	0.996173	0.830278
	H440	H	-0.115740	0.976037	0.817468
	O441	O	0.613160	0.405237	0.394720
	H442	H	0.614390	0.398172	0.391321
	H443	H	0.622651	0.391948	0.395476
