data_Molecule from HDF5

_cell_length_a		16.287686
_cell_length_b		16.346604
_cell_length_c		16.346380
_cell_angle_alpha	90.054516
_cell_angle_beta	90.013406
_cell_angle_gamma	90.067469
_symmetry_space_group_name_H-M	'P 1'
_symmetry_Int_Tables_number		1

loop_
	_symmetry_equiv_pos_as_xyz
	x,y,z

loop_
	_atom_site_label
	_atom_site_type_symbol
	_atom_site_fract_x
	_atom_site_fract_y
	_atom_site_fract_z
	H0	H	0.405659	0.835155	0.716647
	H1	H	0.603220	0.161356	0.716813
	H2	H	0.602711	0.835160	0.288270
	H3	H	0.406001	0.161424	0.287032
	H4	H	0.717713	0.402018	0.838218
	H5	H	0.719510	0.596344	0.165567
	H6	H	0.290268	0.596335	0.838471
	H7	H	0.288929	0.399567	0.164951
	H8	H	0.839827	0.711882	0.404873
	H9	H	0.167902	0.712886	0.599419
	H10	H	0.840648	0.284412	0.600410
	H11	H	0.167402	0.283369	0.402782
	H12	H	0.841339	0.400557	0.716356
	H13	H	0.168529	0.596765	0.715633
	H14	H	0.840471	0.596438	0.287946
	H15	H	0.167668	0.399377	0.286355
	H16	H	0.406027	0.713404	0.839449
	H17	H	0.603900	0.713965	0.165220
	H18	H	0.602512	0.283857	0.839116
	H19	H	0.406910	0.284535	0.165804
	H20	H	0.718627	0.835414	0.404495
	H21	H	0.718830	0.161682	0.600759
	H22	H	0.290145	0.835507	0.599363
	H23	H	0.290198	0.162132	0.404434
	H24	H	0.904875	0.335625	0.217320
	H25	H	0.103853	0.661551	0.218120
	H26	H	0.102857	0.335879	0.786827
	H27	H	0.906654	0.661558	0.786878
	H28	H	0.218536	0.901513	0.338216
	H29	H	0.219835	0.097374	0.664872
	H30	H	0.790513	0.095668	0.339014
	H31	H	0.790288	0.900359	0.665466
	H32	H	0.340767	0.211587	0.905249
	H33	H	0.667545	0.214016	0.101698
	H34	H	0.341261	0.783824	0.100262
	H35	H	0.669061	0.784407	0.903302
	H36	H	0.340361	0.900656	0.216355
	H37	H	0.668278	0.096412	0.216191
	H38	H	0.340526	0.096493	0.788333
	H39	H	0.667862	0.900306	0.787090
	H40	H	0.905233	0.213773	0.339108
	H41	H	0.103838	0.213934	0.664820
	H42	H	0.102149	0.784259	0.338707
	H43	H	0.905645	0.783422	0.665332
	H44	H	0.217897	0.334920	0.904189
	H45	H	0.219703	0.661707	0.101182
	H46	H	0.790840	0.334970	0.099289
	H47	H	0.791333	0.662304	0.905248
	H48	H	0.407090	0.113769	0.589267
	H49	H	0.596111	0.882475	0.596121
	H50	H	0.592134	0.114141	0.406090
	H51	H	0.408113	0.880925	0.406133
	H52	H	0.605729	0.405345	0.120691
	H53	H	0.593088	0.595177	0.886842
	H54	H	0.420187	0.595470	0.115756
	H55	H	0.411048	0.410731	0.888278
	H56	H	0.118021	0.580833	0.407441
	H57	H	0.888800	0.584486	0.599633
	H58	H	0.119876	0.401670	0.586271
	H59	H	0.886116	0.398941	0.409044
	H60	H	0.118786	0.413557	0.596486
	H61	H	0.884971	0.597705	0.599367
	H62	H	0.124776	0.597489	0.401251
	H63	H	0.890721	0.408392	0.415042
	H64	H	0.405442	0.597171	0.121146
	H65	H	0.603450	0.593863	0.884456
	H66	H	0.594497	0.413156	0.114598
	H67	H	0.415828	0.401238	0.887139
	H68	H	0.599268	0.113213	0.414860
	H69	H	0.597558	0.882638	0.593677
	H70	H	0.409513	0.116499	0.601990
	H71	H	0.415816	0.884167	0.406643
	H72	H	0.912387	0.615867	0.101775
	H73	H	0.097999	0.381925	0.098623
	H74	H	0.088842	0.608326	0.919983
	H75	H	0.917885	0.387426	0.917217
	H76	H	0.097740	0.907559	0.617319
	H77	H	0.088211	0.097030	0.387118
	H78	H	0.903563	0.087910	0.618825
	H79	H	0.917389	0.903470	0.388096
	H80	H	0.627232	0.106401	0.902083
	H81	H	0.388768	0.084151	0.100229
	H82	H	0.623293	0.901805	0.099838
	H83	H	0.390156	0.913468	0.904806
	H84	H	0.619359	0.903436	0.090096
	H85	H	0.384725	0.098870	0.099382
	H86	H	0.616141	0.092088	0.926283
	H87	H	0.384893	0.897560	0.905187
	H88	H	0.919078	0.087622	0.613861
	H89	H	0.105575	0.095301	0.382739
	H90	H	0.095294	0.902911	0.617531
	H91	H	0.907562	0.900035	0.384171
	H92	H	0.112226	0.617345	0.912520
	H93	H	0.091723	0.384407	0.094183
	H94	H	0.916647	0.611701	0.092634
	H95	H	0.899168	0.379113	0.910530
	H96	H	0.419237	0.112122	0.594414
	H97	H	0.599102	0.882040	0.596066
	H98	H	0.603270	0.116689	0.405057
	H99	H	0.410231	0.883873	0.413922
	H100	H	0.592502	0.398425	0.118751
	H101	H	0.597658	0.586082	0.888878
	H102	H	0.410077	0.583205	0.115383
	H103	H	0.405594	0.402212	0.883927
	H104	H	0.118924	0.595730	0.419581
	H105	H	0.889920	0.591639	0.587957
	H106	H	0.124575	0.400018	0.601298
	H107	H	0.887693	0.409389	0.404049
	H108	H	0.906262	0.615327	0.092653
	H109	H	0.099195	0.384355	0.090588
	H110	H	0.092682	0.617441	0.895459
	H111	H	0.915787	0.380883	0.896975
	H112	H	0.100785	0.903626	0.618641
	H113	H	0.096926	0.081511	0.389528
	H114	H	0.912767	0.100821	0.619858
	H115	H	0.908759	0.910273	0.387533
	H116	H	0.618995	0.077017	0.899652
	H117	H	0.390903	0.092082	0.086983
	H118	H	0.619649	0.911014	0.096998
	H119	H	0.391566	0.905221	0.919046
	C120	C	0.383112	0.006355	0.623693
	C121	C	0.626191	0.990426	0.623927
	C122	C	0.626332	0.006716	0.380567
	C123	C	0.382888	0.990581	0.380480
	C124	C	0.626075	0.377337	0.010191
	C125	C	0.626742	0.620496	0.994193
	C126	C	0.383049	0.620006	0.009964
	C127	C	0.382339	0.376504	0.994169
	C128	C	0.012338	0.619790	0.380787
	C129	C	0.996143	0.619931	0.623624
	C130	C	0.012789	0.377041	0.623307
	C131	C	0.995856	0.376918	0.380400
	C132	C	0.883086	0.506424	0.123948
	C133	C	0.125820	0.490778	0.123789
	C134	C	0.126113	0.506697	0.880593
	C135	C	0.883095	0.490434	0.880216
	C136	C	0.126014	0.876774	0.509976
	C137	C	0.125924	0.119884	0.493920
	C138	C	0.882865	0.120389	0.510163
	C139	C	0.882891	0.876403	0.494131
	C140	C	0.512874	0.119984	0.880736
	C141	C	0.496265	0.119854	0.123701
	C142	C	0.512649	0.877151	0.123857
	C143	C	0.496813	0.876857	0.880827
	C144	C	0.385625	0.883920	0.678846
	C145	C	0.623474	0.112894	0.678800
	C146	C	0.623601	0.884045	0.325700
	C147	C	0.385152	0.113121	0.325312
	C148	C	0.680462	0.380757	0.887126
	C149	C	0.681575	0.617459	0.116967
	C150	C	0.327754	0.617257	0.887401
	C151	C	0.327206	0.379269	0.116642
	C152	C	0.889000	0.674601	0.383829
	C153	C	0.119295	0.674736	0.620116
	C154	C	0.889635	0.322544	0.620364
	C155	C	0.118918	0.321465	0.382247
	C156	C	0.889875	0.380206	0.678056
	C157	C	0.119554	0.617422	0.678002
	C158	C	0.889079	0.616997	0.326039
	C159	C	0.118871	0.378749	0.324366
	C160	C	0.385147	0.675415	0.887755
	C161	C	0.624109	0.675794	0.116713
	C162	C	0.623165	0.322326	0.887508
	C163	C	0.385634	0.321953	0.116932
	C164	C	0.681025	0.884143	0.383731
	C165	C	0.681277	0.112905	0.621220
	C166	C	0.328387	0.883811	0.620458
	C167	C	0.327904	0.113456	0.383712
	C168	C	0.885117	0.384030	0.178955
	C169	C	0.123967	0.613064	0.179732
	C170	C	0.123370	0.384179	0.825117
	C171	C	0.886178	0.613213	0.825550
	C172	C	0.180720	0.880408	0.387109
	C173	C	0.181495	0.117785	0.616422
	C174	C	0.828478	0.116607	0.387303
	C175	C	0.827943	0.879424	0.616898
	C176	C	0.389630	0.174314	0.883855
	C177	C	0.619124	0.175452	0.121744
	C178	C	0.389761	0.822156	0.120732
	C179	C	0.619888	0.821938	0.883010
	C180	C	0.389481	0.879941	0.178651
	C181	C	0.619363	0.117308	0.178814
	C182	C	0.389769	0.116928	0.825927
	C183	C	0.619255	0.879284	0.825106
	C184	C	0.885470	0.175250	0.387547
	C185	C	0.124058	0.175814	0.616201
	C186	C	0.123093	0.822169	0.387268
	C187	C	0.884961	0.821180	0.616730
	C188	C	0.180648	0.383822	0.883295
	C189	C	0.181738	0.612955	0.121729
	C190	C	0.828356	0.383688	0.120295
	C191	C	0.828839	0.613402	0.883883
	C192	C	0.405484	0.091972	0.601728
	C193	C	0.604045	0.904448	0.601619
	C194	C	0.604527	0.092517	0.402148
	C195	C	0.404841	0.905221	0.402382
	C196	C	0.603987	0.399207	0.095757
	C197	C	0.604394	0.598328	0.908745
	C198	C	0.405508	0.598225	0.095301
	C199	C	0.404252	0.398389	0.908514
	C200	C	0.098140	0.598013	0.402855
	C201	C	0.910092	0.597796	0.601957
	C202	C	0.098917	0.398709	0.601416
	C203	C	0.910428	0.399110	0.402658
	C204	C	0.905490	0.592205	0.102269
	C205	C	0.102818	0.405428	0.101144
	C206	C	0.104279	0.592202	0.902914
	C207	C	0.904750	0.404533	0.901695
	C208	C	0.104174	0.898224	0.595789
	C209	C	0.103545	0.097576	0.408565
	C210	C	0.905190	0.098593	0.595531
	C211	C	0.904833	0.898319	0.408865
	C212	C	0.598749	0.098294	0.902865
	C213	C	0.410494	0.097978	0.101942
	C214	C	0.598688	0.899022	0.102187
	C215	C	0.410915	0.898738	0.903316
	Zn216	Zn	0.504783	-0.001533	0.752456
	Zn217	Zn	0.504530	-0.001365	0.252217
	Zn218	Zn	0.755094	0.498526	0.002388
	Zn219	Zn	0.254383	0.498398	0.002250
	Zn220	Zn	0.004225	0.747934	0.502151
	Zn221	Zn	0.004573	0.248911	0.501753
	Zn222	Zn	0.005131	0.498795	0.751665
	Zn223	Zn	0.004299	0.498507	0.252750
	Zn224	Zn	0.504738	0.748695	0.001977
	Zn225	Zn	0.504433	0.248222	0.002322
	Zn226	Zn	0.754665	-0.001548	0.502326
	Zn227	Zn	0.254660	-0.001298	0.501957
	N228	N	0.419086	0.961249	0.680724
	N229	N	0.590137	0.035528	0.680612
	N230	N	0.590081	0.961364	0.323708
	N231	N	0.418646	0.035900	0.323269
	N232	N	0.682295	0.414281	0.964450
	N233	N	0.683506	0.584066	0.039846
	N234	N	0.326432	0.583321	0.964358
	N235	N	0.325404	0.412527	0.039489
	N236	N	0.966662	0.676462	0.417050
	N237	N	0.041586	0.676488	0.587108
	N238	N	0.967234	0.320473	0.587089
	N239	N	0.041740	0.320227	0.416402
	N240	N	0.967522	0.413420	0.679907
	N241	N	0.041969	0.584076	0.680219
	N242	N	0.966573	0.583631	0.324115
	N243	N	0.041445	0.412416	0.323029
	N244	N	0.419071	0.677001	0.964662
	N245	N	0.590811	0.677661	0.039277
	N246	N	0.590133	0.320010	0.964926
	N247	N	0.419081	0.319989	0.039709
	N248	N	0.682697	0.961308	0.417075
	N249	N	0.682832	0.035699	0.587561
	N250	N	0.326621	0.960826	0.586942
	N251	N	0.326485	0.036186	0.417260
	N252	N	0.918428	0.461452	0.181187
	N253	N	0.089925	0.535985	0.181146
	N254	N	0.090534	0.461611	0.823211
	N255	N	0.919149	0.535743	0.823241
	N256	N	0.182831	0.913492	0.464540
	N257	N	0.182811	0.083799	0.539454
	N258	N	0.826833	0.083065	0.464500
	N259	N	0.826334	0.913062	0.539759
	N260	N	0.467093	0.176378	0.917140
	N261	N	0.541701	0.177141	0.088251
	N262	N	0.467247	0.820315	0.087393
	N263	N	0.542415	0.820252	0.916955
	N264	N	0.467098	0.913314	0.180713
	N265	N	0.542176	0.083258	0.180104
	N266	N	0.467406	0.083578	0.824115
	N267	N	0.541995	0.912686	0.823820
	N268	N	0.918470	0.177620	0.464893
	N269	N	0.090231	0.177341	0.539038
	N270	N	0.089970	0.819881	0.464615
	N271	N	0.918521	0.819296	0.539590
	N272	N	0.182289	0.460951	0.917377
	N273	N	0.182799	0.536065	0.087648
	N274	N	0.826982	0.460895	0.087012
	N275	N	0.826718	0.535992	0.917046
	O276	O	0.035448	0.005006	1.012821
	H277	H	0.026387	0.005486	1.016278
	H278	H	0.030190	0.015705	1.015843
	O279	O	0.461360	0.488207	0.474751
	H280	H	0.451970	0.485823	0.467330
	H281	H	0.471554	0.485269	0.474803
	O282	O	0.481913	0.532868	0.442577
	H283	H	0.481521	0.536988	0.438036
	H284	H	0.478047	0.537375	0.450476
	O285	O	0.438629	0.514327	0.482157
	H286	H	0.428511	0.515663	0.486663
	H287	H	0.434239	0.511435	0.483109
	O288	O	0.046858	0.976056	0.016104
	H289	H	0.051150	0.971234	0.009141
	H290	H	0.046200	0.981444	0.017639
	O291	O	0.007133	0.986580	1.039358
	H292	H	0.015419	0.987601	1.039309
	H293	H	0.015617	0.979563	1.032047
	O294	O	0.512571	0.527336	0.466678
	H295	H	0.516679	0.527638	0.461122
	H296	H	0.518940	0.533714	0.469267
	O297	O	0.990641	0.007830	0.037557
	H298	H	0.979912	0.006006	0.043536
	H299	H	0.992680	0.002137	0.041335
