data_Molecule from HDF5

_cell_length_a		16.377447
_cell_length_b		16.346474
_cell_length_c		16.257327
_cell_angle_alpha	90.049547
_cell_angle_beta	89.905756
_cell_angle_gamma	90.170750
_symmetry_space_group_name_H-M	'P 1'
_symmetry_Int_Tables_number		1

loop_
	_symmetry_equiv_pos_as_xyz
	x,y,z

loop_
	_atom_site_label
	_atom_site_type_symbol
	_atom_site_fract_x
	_atom_site_fract_y
	_atom_site_fract_z
	H0	H	0.399694	0.843349	0.713444
	H1	H	0.594757	0.171406	0.712344
	H2	H	0.594623	0.843465	0.285831
	H3	H	0.401967	0.170332	0.285715
	H4	H	0.711435	0.408728	0.834858
	H5	H	0.712779	0.606250	0.161806
	H6	H	0.283670	0.604825	0.835241
	H7	H	0.281573	0.407924	0.162177
	H8	H	0.834803	0.721744	0.399593
	H9	H	0.159905	0.723034	0.596687
	H10	H	0.834351	0.291238	0.596685
	H11	H	0.159718	0.292612	0.398404
	H12	H	0.834178	0.407781	0.713873
	H13	H	0.160735	0.606143	0.712588
	H14	H	0.833977	0.603166	0.284734
	H15	H	0.160129	0.409207	0.283371
	H16	H	0.399708	0.720991	0.835340
	H17	H	0.595938	0.720947	0.162898
	H18	H	0.595101	0.293054	0.834907
	H19	H	0.398625	0.293000	0.163032
	H20	H	0.713514	0.844425	0.398626
	H21	H	0.713069	0.170277	0.597276
	H22	H	0.280929	0.844088	0.598841
	H23	H	0.282944	0.169716	0.399204
	H24	H	0.898759	0.343206	0.212067
	H25	H	0.094881	0.670053	0.212186
	H26	H	0.095168	0.343452	0.783879
	H27	H	0.902256	0.670907	0.785991
	H28	H	0.212247	0.910311	0.335031
	H29	H	0.212137	0.105943	0.662922
	H30	H	0.783323	0.105495	0.334897
	H31	H	0.782677	0.909323	0.662731
	H32	H	0.334128	0.221823	0.900829
	H33	H	0.659898	0.223050	0.096813
	H34	H	0.334977	0.791569	0.097771
	H35	H	0.660392	0.791720	0.899766
	H36	H	0.335044	0.908963	0.213386
	H37	H	0.661129	0.105345	0.213062
	H38	H	0.333902	0.103374	0.785623
	H39	H	0.660962	0.910167	0.784363
	H40	H	0.901202	0.219668	0.334017
	H41	H	0.096200	0.223065	0.662263
	H42	H	0.095299	0.794071	0.334616
	H43	H	0.897747	0.792299	0.662887
	H44	H	0.212092	0.343708	0.899593
	H45	H	0.212703	0.669641	0.097191
	H46	H	0.779982	0.344744	0.098624
	H47	H	0.782741	0.669948	0.898572
	H48	H	0.400839	0.125617	0.598618
	H49	H	0.589147	0.891935	0.592132
	H50	H	0.596189	0.122416	0.411591
	H51	H	0.405247	0.891160	0.405141
	H52	H	0.585830	0.418182	0.111722
	H53	H	0.588250	0.599115	0.883040
	H54	H	0.407274	0.590226	0.111262
	H55	H	0.405885	0.420143	0.884925
	H56	H	0.113783	0.605916	0.405116
	H57	H	0.882862	0.598033	0.590321
	H58	H	0.111726	0.417045	0.591009
	H59	H	0.879018	0.407894	0.401758
	H60	H	0.112831	0.413438	0.590931
	H61	H	0.881010	0.599838	0.592975
	H62	H	0.112530	0.599389	0.407883
	H63	H	0.882749	0.411811	0.410550
	H64	H	0.411150	0.605636	0.115830
	H65	H	0.590519	0.601429	0.882315
	H66	H	0.587726	0.408786	0.116938
	H67	H	0.409083	0.410173	0.882676
	H68	H	0.593420	0.124222	0.400138
	H69	H	0.591213	0.892556	0.589941
	H70	H	0.412177	0.120169	0.592473
	H71	H	0.404999	0.892173	0.408636
	H72	H	0.901189	0.624766	0.095565
	H73	H	0.089094	0.392246	0.087551
	H74	H	0.092850	0.623192	0.903652
	H75	H	0.903096	0.389698	0.900057
	H76	H	0.078281	0.909318	0.613591
	H77	H	0.094683	0.096933	0.382867
	H78	H	0.912643	0.099245	0.611933
	H79	H	0.903940	0.914566	0.382729
	H80	H	0.612995	0.101033	0.903149
	H81	H	0.384158	0.096319	0.088501
	H82	H	0.613996	0.911914	0.091772
	H83	H	0.383101	0.917132	0.904159
	H84	H	0.613305	0.913571	0.091833
	H85	H	0.380805	0.097886	0.098511
	H86	H	0.612910	0.102978	0.907515
	H87	H	0.380067	0.909700	0.903042
	H88	H	0.902345	0.105778	0.617616
	H89	H	0.087399	0.100629	0.384218
	H90	H	0.099805	0.908356	0.620135
	H91	H	0.905601	0.914831	0.383031
	H92	H	0.089508	0.622521	0.904672
	H93	H	0.093207	0.390215	0.091006
	H94	H	0.909861	0.621778	0.092905
	H95	H	0.908906	0.393498	0.907563
	H96	H	0.399965	0.121840	0.585634
	H97	H	0.591784	0.891045	0.592792
	H98	H	0.585459	0.120415	0.408020
	H99	H	0.401713	0.890291	0.406466
	H100	H	0.595549	0.416622	0.116277
	H101	H	0.591639	0.598668	0.882198
	H102	H	0.395529	0.600058	0.118544
	H103	H	0.399218	0.412692	0.880326
	H104	H	0.114104	0.600051	0.400455
	H105	H	0.881890	0.602211	0.590393
	H106	H	0.110478	0.415094	0.587779
	H107	H	0.882330	0.417484	0.402021
	H108	H	0.902647	0.621554	0.086458
	H109	H	0.087738	0.390709	0.092757
	H110	H	0.092145	0.621614	0.906957
	H111	H	0.898957	0.391302	0.909696
	H112	H	0.091274	0.927696	0.611818
	H113	H	0.093159	0.104779	0.380672
	H114	H	0.900971	0.093378	0.614134
	H115	H	0.905314	0.913666	0.382392
	H116	H	0.611874	0.098314	0.907001
	H117	H	0.380831	0.106252	0.091685
	H118	H	0.613771	0.912832	0.093710
	H119	H	0.383153	0.911916	0.910522
	C120	C	0.375767	0.014772	0.621048
	C121	C	0.619260	0.999597	0.620236
	C122	C	0.619606	0.014976	0.377800
	C123	C	0.376420	0.998825	0.377896
	C124	C	0.618507	0.385923	0.006935
	C125	C	0.619214	0.628691	0.990386
	C126	C	0.376349	0.627544	0.007326
	C127	C	0.375724	0.385582	0.990634
	C128	C	0.005312	0.628757	0.376548
	C129	C	0.989503	0.628865	0.620013
	C130	C	0.004825	0.385567	0.619458
	C131	C	0.989100	0.384681	0.376210
	C132	C	0.875408	0.514917	0.120253
	C133	C	0.118580	0.498572	0.119597
	C134	C	0.119498	0.514730	0.876445
	C135	C	0.875553	0.499076	0.876591
	C136	C	0.118608	0.886429	0.507038
	C137	C	0.120021	0.129460	0.490643
	C138	C	0.876934	0.127869	0.506638
	C139	C	0.876137	0.885865	0.491030
	C140	C	0.505182	0.129238	0.877183
	C141	C	0.489410	0.128670	0.121045
	C142	C	0.506013	0.884885	0.120849
	C143	C	0.489742	0.884809	0.877011
	C144	C	0.378530	0.892226	0.675971
	C145	C	0.616148	0.122528	0.674898
	C146	C	0.616079	0.892300	0.322894
	C147	C	0.380479	0.121571	0.323113
	C148	C	0.673373	0.388460	0.883727
	C149	C	0.674822	0.626652	0.113218
	C150	C	0.321879	0.625069	0.883781
	C151	C	0.319742	0.387582	0.113512
	C152	C	0.883302	0.683625	0.379109
	C153	C	0.111594	0.684679	0.617140
	C154	C	0.882728	0.329502	0.617478
	C155	C	0.111255	0.330329	0.378264
	C156	C	0.882675	0.387515	0.675614
	C157	C	0.112095	0.626489	0.674648
	C158	C	0.882940	0.624915	0.321929
	C159	C	0.111347	0.388261	0.320967
	C160	C	0.379566	0.682356	0.883759
	C161	C	0.616620	0.683464	0.113787
	C162	C	0.615613	0.331176	0.883667
	C163	C	0.378052	0.330605	0.113959
	C164	C	0.675106	0.892810	0.379037
	C165	C	0.674718	0.121986	0.617766
	C166	C	0.319562	0.892641	0.619082
	C167	C	0.321721	0.121469	0.379794
	C168	C	0.878090	0.392246	0.174748
	C169	C	0.116180	0.621237	0.174902
	C170	C	0.116134	0.392180	0.821648
	C171	C	0.880279	0.621867	0.822650
	C172	C	0.174044	0.889644	0.383867
	C173	C	0.174700	0.127064	0.614005
	C174	C	0.821507	0.125707	0.383603
	C175	C	0.820598	0.888473	0.613916
	C176	C	0.382529	0.183507	0.880216
	C177	C	0.611729	0.184472	0.117768
	C178	C	0.383622	0.829737	0.118306
	C179	C	0.611944	0.829839	0.879215
	C180	C	0.383410	0.888242	0.175447
	C181	C	0.612174	0.126190	0.175451
	C182	C	0.382667	0.124928	0.822914
	C183	C	0.612074	0.888614	0.821942
	C184	C	0.880121	0.182145	0.382974
	C185	C	0.117220	0.185192	0.613630
	C186	C	0.116077	0.832000	0.383616
	C187	C	0.878313	0.830953	0.614163
	C188	C	0.174276	0.392395	0.878928
	C189	C	0.174513	0.621104	0.117635
	C190	C	0.818785	0.393047	0.118676
	C191	C	0.821120	0.621506	0.878949
	C192	C	0.397746	0.100370	0.598681
	C193	C	0.597182	0.913997	0.598197
	C194	C	0.597953	0.100363	0.399933
	C195	C	0.397696	0.913392	0.400244
	C196	C	0.596280	0.408085	0.092907
	C197	C	0.596826	0.606328	0.904761
	C198	C	0.398215	0.605411	0.092914
	C199	C	0.398239	0.407653	0.904932
	C200	C	0.091199	0.607853	0.398090
	C201	C	0.904099	0.606480	0.597864
	C202	C	0.089737	0.408342	0.596561
	C203	C	0.903371	0.405973	0.398326
	C204	C	0.897833	0.600614	0.097888
	C205	C	0.096561	0.413166	0.097074
	C206	C	0.097833	0.600288	0.898607
	C207	C	0.897168	0.413432	0.899259
	C208	C	0.096218	0.908585	0.593090
	C209	C	0.098147	0.107256	0.404799
	C210	C	0.899084	0.105946	0.592339
	C211	C	0.898376	0.907755	0.404888
	C212	C	0.590508	0.107462	0.899535
	C213	C	0.404070	0.106622	0.099138
	C214	C	0.591736	0.906630	0.098897
	C215	C	0.404102	0.906366	0.899498
	Zn216	Zn	0.497503	0.007152	0.748882
	Zn217	Zn	0.498197	0.006561	0.249461
	Zn218	Zn	0.746795	0.507259	-0.001789
	Zn219	Zn	0.247720	0.507018	-0.001414
	Zn220	Zn	-0.002739	0.757652	0.498668
	Zn221	Zn	-0.002544	0.256677	0.497938
	Zn222	Zn	-0.002385	0.507179	0.748333
	Zn223	Zn	-0.002589	0.506442	0.248286
	Zn224	Zn	0.497565	0.756187	-0.000960
	Zn225	Zn	0.497070	0.257870	-0.001007
	Zn226	Zn	0.748026	0.007313	0.498716
	Zn227	Zn	0.247586	0.007431	0.499215
	N228	N	0.412590	0.969132	0.677280
	N229	N	0.582315	0.045395	0.676547
	N230	N	0.582126	0.969013	0.322303
	N231	N	0.413806	0.044364	0.321835
	N232	N	0.675075	0.421893	0.961410
	N233	N	0.676399	0.593193	0.035655
	N234	N	0.319896	0.591566	0.961266
	N235	N	0.318183	0.421047	0.035972
	N236	N	0.960454	0.686199	0.412343
	N237	N	0.034338	0.686069	0.583831
	N238	N	0.959426	0.328488	0.583201
	N239	N	0.034214	0.328091	0.411842
	N240	N	0.959545	0.421651	0.676987
	N241	N	0.035259	0.592409	0.676513
	N242	N	0.959928	0.591463	0.320456
	N243	N	0.034362	0.421621	0.319881
	N244	N	0.412699	0.684132	0.961421
	N245	N	0.582582	0.684828	0.036464
	N246	N	0.582111	0.329481	0.961271
	N247	N	0.412390	0.329472	0.036634
	N248	N	0.677455	0.970135	0.412583
	N249	N	0.676655	0.044611	0.584478
	N250	N	0.317793	0.970044	0.585727
	N251	N	0.318940	0.044222	0.413114
	N252	N	0.912605	0.469187	0.175909
	N253	N	0.082032	0.544278	0.176066
	N254	N	0.082671	0.469285	0.820038
	N255	N	0.913372	0.544686	0.821017
	N256	N	0.175506	0.923019	0.461729
	N257	N	0.176634	0.093295	0.536674
	N258	N	0.819549	0.092562	0.461285
	N259	N	0.819217	0.921945	0.536323
	N260	N	0.459798	0.186452	0.913105
	N261	N	0.534410	0.186382	0.084749
	N262	N	0.460900	0.827460	0.085151
	N263	N	0.534664	0.827435	0.912627
	N264	N	0.460600	0.921563	0.177307
	N265	N	0.535352	0.092136	0.177499
	N266	N	0.459863	0.091933	0.821135
	N267	N	0.535130	0.922021	0.820602
	N268	N	0.913687	0.183883	0.460453
	N269	N	0.084003	0.186888	0.535908
	N270	N	0.082427	0.830064	0.461017
	N271	N	0.911876	0.829053	0.536542
	N272	N	0.176458	0.469663	0.912312
	N273	N	0.176075	0.543886	0.083865
	N274	N	0.817249	0.470354	0.085225
	N275	N	0.818135	0.543962	0.911850
	O276	O	1.461376	-0.499311	0.603273
	H277	H	1.455295	-0.504399	0.605825
	H278	H	1.454106	-0.492164	0.619028
	O279	O	0.492162	0.460946	0.557617
	H280	H	0.484274	0.465480	0.562871
	H281	H	0.496424	0.470741	0.561863
	O282	O	0.454234	0.477495	0.616055
	H283	H	0.464256	0.462024	0.607098
	H284	H	0.452096	0.476034	0.620098
	O285	O	0.479548	0.440367	0.567618
	H286	H	0.479071	0.430694	0.562408
	H287	H	0.482215	0.442258	0.559891
