data_Molecule from HDF5

_cell_length_a		16.573340
_cell_length_b		16.522941
_cell_length_c		16.572272
_cell_angle_alpha	89.990496
_cell_angle_beta	89.937952
_cell_angle_gamma	89.859322
_symmetry_space_group_name_H-M	'P 1'
_symmetry_Int_Tables_number		1

loop_
	_symmetry_equiv_pos_as_xyz
	x,y,z

loop_
	_atom_site_label
	_atom_site_type_symbol
	_atom_site_fract_x
	_atom_site_fract_y
	_atom_site_fract_z
	H0	H	0.379952	0.856450	0.724486
	H1	H	0.594841	0.168482	0.723142
	H2	H	0.594580	0.856423	0.277115
	H3	H	0.384989	0.168460	0.279678
	H4	H	0.713125	0.403838	0.843590
	H5	H	0.707526	0.615478	0.155624
	H6	H	0.265306	0.621206	0.842663
	H7	H	0.266961	0.407042	0.154232
	H8	H	0.831075	0.734523	0.394339
	H9	H	0.145785	0.733889	0.603622
	H10	H	0.832356	0.289497	0.607967
	H11	H	0.146687	0.294381	0.397907
	H12	H	0.832621	0.405123	0.723883
	H13	H	0.144834	0.619007	0.721130
	H14	H	0.831884	0.617680	0.278259
	H15	H	0.146824	0.410910	0.281705
	H16	H	0.380959	0.736446	0.843136
	H17	H	0.590963	0.731533	0.155252
	H18	H	0.596185	0.289520	0.842459
	H19	H	0.386193	0.293241	0.155390
	H20	H	0.709266	0.856056	0.394893
	H21	H	0.710266	0.168850	0.606542
	H22	H	0.264842	0.855863	0.607719
	H23	H	0.267440	0.168611	0.395285
	H24	H	0.886572	0.355071	0.218501
	H25	H	0.090233	0.671948	0.216138
	H26	H	0.094222	0.356526	0.776690
	H27	H	0.881290	0.670265	0.777284
	H28	H	0.209012	0.908314	0.342695
	H29	H	0.208718	0.117431	0.656376
	H30	H	0.767677	0.117867	0.343098
	H31	H	0.766425	0.906972	0.656811
	H32	H	0.332074	0.233506	0.895808
	H33	H	0.645180	0.232367	0.102495
	H34	H	0.331185	0.793099	0.102041
	H35	H	0.644773	0.787760	0.890827
	H36	H	0.331199	0.908990	0.219017
	H37	H	0.644428	0.117051	0.219805
	H38	H	0.331543	0.117139	0.778763
	H39	H	0.644314	0.903847	0.775051
	H40	H	0.885057	0.232111	0.342374
	H41	H	0.092361	0.233771	0.656150
	H42	H	0.090420	0.795052	0.340966
	H43	H	0.882461	0.790734	0.656042
	H44	H	0.208683	0.355465	0.894698
	H45	H	0.207449	0.670804	0.100290
	H46	H	0.770902	0.354455	0.101512
	H47	H	0.764576	0.668662	0.892723
	H48	H	0.402827	0.124142	0.593490
	H49	H	0.575620	0.899811	0.591045
	H50	H	0.577131	0.126648	0.405275
	H51	H	0.404455	0.901102	0.411371
	H52	H	0.576510	0.433773	0.106350
	H53	H	0.575729	0.598290	0.886942
	H54	H	0.400676	0.605786	0.111333
	H55	H	0.399918	0.423976	0.885844
	H56	H	0.102534	0.602610	0.402645
	H57	H	0.876209	0.601347	0.591415
	H58	H	0.099741	0.420196	0.587141
	H59	H	0.875579	0.421725	0.407507
	H60	H	0.096430	0.426850	0.584003
	H61	H	0.877692	0.604312	0.585143
	H62	H	0.102230	0.609836	0.409688
	H63	H	0.876118	0.422527	0.410997
	H64	H	0.393584	0.599459	0.111272
	H65	H	0.576140	0.600575	0.886441
	H66	H	0.569515	0.413839	0.111039
	H67	H	0.399316	0.423525	0.886014
	H68	H	0.573475	0.123020	0.411977
	H69	H	0.571797	0.903330	0.585150
	H70	H	0.401295	0.120963	0.583842
	H71	H	0.394818	0.898796	0.414719
	H72	H	0.900611	0.626633	0.091696
	H73	H	0.079922	0.398318	0.093371
	H74	H	0.077189	0.625313	0.910286
	H75	H	0.897836	0.400280	0.911807
	H76	H	0.074654	0.920618	0.611444
	H77	H	0.075230	0.108731	0.385606
	H78	H	0.908397	0.104027	0.609239
	H79	H	0.904196	0.924276	0.389642
	H80	H	0.597501	0.094680	0.913871
	H81	H	0.374484	0.105570	0.090400
	H82	H	0.602117	0.920798	0.090767
	H83	H	0.377316	0.925746	0.908306
	H84	H	0.599972	0.921580	0.085884
	H85	H	0.376214	0.101994	0.086999
	H86	H	0.601719	0.098296	0.904847
	H87	H	0.377595	0.920993	0.913015
	H88	H	0.894056	0.105490	0.615632
	H89	H	0.085896	0.102727	0.384948
	H90	H	0.080156	0.923474	0.612964
	H91	H	0.895846	0.919059	0.385056
	H92	H	0.076882	0.625807	0.909422
	H93	H	0.075883	0.401315	0.088491
	H94	H	0.898473	0.624590	0.084833
	H95	H	0.906592	0.402507	0.908237
	H96	H	0.393404	0.125546	0.588782
	H97	H	0.579242	0.900821	0.584392
	H98	H	0.581131	0.125505	0.412325
	H99	H	0.397389	0.896270	0.405180
	H100	H	0.590253	0.419607	0.115521
	H101	H	0.578120	0.598856	0.886957
	H102	H	0.401899	0.597376	0.107367
	H103	H	0.399735	0.423870	0.886141
	H104	H	0.098832	0.600723	0.411503
	H105	H	0.879146	0.597814	0.586116
	H106	H	0.100390	0.426940	0.591161
	H107	H	0.876219	0.425468	0.407707
	H108	H	0.893330	0.627354	0.089891
	H109	H	0.082331	0.399281	0.087248
	H110	H	0.076383	0.625183	0.910062
	H111	H	0.904451	0.404412	0.917016
	H112	H	0.075275	0.926492	0.609998
	H113	H	0.076091	0.097240	0.389959
	H114	H	0.898048	0.091826	0.608807
	H115	H	0.894428	0.929584	0.388326
	H116	H	0.600772	0.104948	0.913626
	H117	H	0.374663	0.100909	0.091408
	H118	H	0.600179	0.925642	0.089152
	H119	H	0.379810	0.927522	0.914550
	C120	C	0.366616	0.020191	0.621668
	C121	C	0.608765	1.004308	0.620477
	C122	C	0.609760	0.021622	0.377823
	C123	C	0.367473	1.003018	0.378774
	C124	C	0.611004	0.389794	0.007541
	C125	C	0.608599	0.631756	0.990364
	C126	C	0.366002	0.634467	0.007021
	C127	C	0.367564	0.391879	0.989729
	C128	C	-0.002719	0.635549	0.376853
	C129	C	0.980904	0.633862	0.619674
	C130	C	-0.003647	0.391557	0.620892
	C131	C	0.980292	0.391982	0.377696
	C132	C	0.867179	0.521503	0.120257
	C133	C	0.110071	0.504242	0.120020
	C134	C	0.109470	0.521798	0.877391
	C135	C	0.868110	0.505029	0.878277
	C136	C	0.108981	0.891705	0.507749
	C137	C	0.110381	0.134252	0.491012
	C138	C	0.867577	0.133280	0.508073
	C139	C	0.866132	0.891215	0.491060
	C140	C	0.496779	0.132758	0.878313
	C141	C	0.479203	0.134334	0.120410
	C142	C	0.496977	0.890954	0.120315
	C143	C	0.480805	0.890822	0.877924
	C144	C	0.362885	0.902986	0.683485
	C145	C	0.612438	0.121743	0.682256
	C146	C	0.612284	0.903288	0.317957
	C147	C	0.366042	0.121634	0.319528
	C148	C	0.672196	0.386516	0.890178
	C149	C	0.667608	0.633764	0.108682
	C150	C	0.305405	0.638372	0.889658
	C151	C	0.307608	0.389328	0.107391
	C152	C	0.878714	0.694804	0.375626
	C153	C	0.098522	0.693954	0.621896
	C154	C	0.879254	0.330057	0.625285
	C155	C	0.099084	0.333827	0.378322
	C156	C	0.879341	0.387789	0.683026
	C157	C	0.098097	0.636940	0.680658
	C158	C	0.878977	0.636842	0.317779
	C159	C	0.099240	0.391663	0.320216
	C160	C	0.363413	0.695525	0.889803
	C161	C	0.609618	0.691306	0.108446
	C162	C	0.614121	0.329270	0.889786
	C163	C	0.366601	0.332536	0.107952
	C164	C	0.669730	0.903300	0.376066
	C165	C	0.669905	0.121958	0.624240
	C166	C	0.305422	0.902814	0.625403
	C167	C	0.307720	0.121434	0.376843
	C168	C	0.867148	0.402542	0.178972
	C169	C	0.109929	0.624066	0.177692
	C170	C	0.112180	0.403427	0.817258
	C171	C	0.863706	0.622747	0.817079
	C172	C	0.168967	0.889857	0.389679
	C173	C	0.169056	0.135696	0.609219
	C174	C	0.807715	0.135919	0.390321
	C175	C	0.806251	0.888879	0.609197
	C176	C	0.378805	0.193337	0.876829
	C177	C	0.597628	0.193079	0.121600
	C178	C	0.378527	0.832254	0.121258
	C179	C	0.597870	0.828640	0.874017
	C180	C	0.378505	0.889888	0.179487
	C181	C	0.597329	0.135700	0.179913
	C182	C	0.378700	0.135517	0.818811
	C183	C	0.597820	0.886425	0.816292
	C184	C	0.866075	0.192956	0.389855
	C185	C	0.111284	0.193685	0.609045
	C186	C	0.109960	0.833527	0.388693
	C187	C	0.864074	0.830927	0.609150
	C188	C	0.169263	0.403067	0.875667
	C189	C	0.167984	0.623645	0.119990
	C190	C	0.809532	0.402305	0.121119
	C191	C	0.805797	0.622158	0.874775
	C192	C	0.391979	0.102252	0.596057
	C193	C	0.582819	0.922594	0.594490
	C194	C	0.584456	0.103764	0.402750
	C195	C	0.391858	0.920366	0.403369
	C196	C	0.585898	0.415013	0.089674
	C197	C	0.583841	0.606459	0.908266
	C198	C	0.391398	0.608301	0.088759
	C199	C	0.392454	0.416750	0.907279
	C200	C	0.079635	0.611288	0.400962
	C201	C	0.898932	0.608415	0.594404
	C202	C	0.077600	0.417250	0.594823
	C203	C	0.897283	0.416298	0.401874
	C204	C	0.890581	0.604564	0.095850
	C205	C	0.086299	0.421296	0.096504
	C206	C	0.084132	0.603928	0.902525
	C207	C	0.895132	0.423644	0.904726
	C208	C	0.083896	0.916333	0.589824
	C209	C	0.086081	0.109682	0.408390
	C210	C	0.892891	0.107789	0.589942
	C211	C	0.891182	0.916621	0.408959
	C212	C	0.578759	0.106899	0.903454
	C213	C	0.396758	0.109895	0.096317
	C214	C	0.579287	0.915621	0.095635
	C215	C	0.399277	0.917133	0.904271
	Zn216	Zn	0.488452	0.012027	0.749478
	Zn217	Zn	0.488197	0.012369	0.249257
	Zn218	Zn	0.738698	0.511838	-0.001389
	Zn219	Zn	0.238022	0.513111	-0.001739
	Zn220	Zn	-0.011572	0.763326	0.499341
	Zn221	Zn	-0.012151	0.262618	0.499491
	Zn222	Zn	-0.011836	0.513100	0.749180
	Zn223	Zn	-0.011387	0.513035	0.248337
	Zn224	Zn	0.488333	0.761709	-0.001264
	Zn225	Zn	0.488887	0.262715	-0.001533
	Zn226	Zn	0.737615	0.013014	0.499911
	Zn227	Zn	0.238445	0.011816	0.499894
	N228	N	0.400224	0.977122	0.681306
	N229	N	0.575172	0.047535	0.679997
	N230	N	0.575560	0.977856	0.318838
	N231	N	0.402378	0.046867	0.320563
	N232	N	0.670535	0.423427	0.964503
	N233	N	0.667417	0.597763	0.034032
	N234	N	0.307035	0.600729	0.963572
	N235	N	0.308069	0.425371	0.032600
	N236	N	0.953408	0.694310	0.411530
	N237	N	0.024426	0.692318	0.584792
	N238	N	0.952758	0.332204	0.587142
	N239	N	0.023831	0.333560	0.412997
	N240	N	0.953222	0.425487	0.680505
	N241	N	0.023828	0.600451	0.679523
	N242	N	0.953654	0.600616	0.318251
	N243	N	0.024139	0.426990	0.319705
	N244	N	0.400368	0.693297	0.963685
	N245	N	0.573838	0.690457	0.033706
	N246	N	0.576694	0.331303	0.963720
	N247	N	0.403327	0.334111	0.033774
	N248	N	0.668195	0.977734	0.412763
	N249	N	0.667830	0.047953	0.586517
	N250	N	0.307625	0.976661	0.587618
	N251	N	0.308332	0.046678	0.412923
	N252	N	0.902046	0.477868	0.178814
	N253	N	0.074783	0.548788	0.177913
	N254	N	0.076084	0.478235	0.818017
	N255	N	0.901950	0.548823	0.819249
	N256	N	0.168549	0.925353	0.464617
	N257	N	0.168783	0.099583	0.534488
	N258	N	0.808282	0.099646	0.464840
	N259	N	0.807226	0.925460	0.534677
	N260	N	0.453425	0.191854	0.912936
	N261	N	0.523273	0.192405	0.085302
	N262	N	0.453197	0.832640	0.085332
	N263	N	0.523732	0.831070	0.911511
	N264	N	0.453368	0.925567	0.179185
	N265	N	0.522578	0.100043	0.179642
	N266	N	0.453098	0.098716	0.819572
	N267	N	0.524119	0.924271	0.818535
	N268	N	0.902386	0.191713	0.464213
	N269	N	0.075801	0.193189	0.534309
	N270	N	0.073702	0.834246	0.463263
	N271	N	0.900452	0.832043	0.534653
	N272	N	0.168002	0.477747	0.912216
	N273	N	0.168582	0.548226	0.085239
	N274	N	0.809156	0.477471	0.085529
	N275	N	0.808359	0.548061	0.912107
	O276	O	1.515691	0.723623	-0.283444
	H277	H	1.530810	0.717278	-0.284722
	H278	H	1.519888	0.736839	-0.259246
	O279	O	-0.071263	0.019253	1.192942
	H280	H	-0.082936	0.014125	1.197266
	H281	H	-0.075218	0.020524	1.197889
	O282	O	0.461812	0.304269	0.539262
	H283	H	0.484729	0.302866	0.556362
	H284	H	0.446801	0.308183	0.559677
	O285	O	0.201314	-0.016648	0.783410
	H286	H	0.219283	-0.019883	0.764152
	H287	H	0.208358	-0.018685	0.791566
	O288	O	0.836492	-0.117046	0.909909
	H289	H	0.814947	-0.114692	0.909942
	H290	H	0.834649	-0.130906	0.921360
	O291	O	0.332845	0.330466	1.355181
	H292	H	0.354467	0.338964	1.372133
	H293	H	0.346184	0.349737	1.364639
	O294	O	0.072755	0.229485	0.020246
	H295	H	0.072657	0.233991	0.014536
	H296	H	0.065917	0.240541	0.009459
	O297	O	0.672717	0.699358	0.310301
	H298	H	0.659417	0.683395	0.333834
	H299	H	0.650786	0.678720	0.319510
	O300	O	0.268734	0.484698	-0.278197
	H301	H	0.265906	0.472720	-0.266371
	H302	H	0.256171	0.476732	-0.264215
	O303	O	-0.217065	0.111549	-0.208548
	H304	H	-0.234820	0.090938	-0.220626
	H305	H	-0.217600	0.141691	-0.184719
	O306	O	1.116152	-0.168073	0.134806
	H307	H	1.099375	-0.162116	0.119795
	H308	H	1.110055	-0.147826	0.124625
	O309	O	0.709455	0.578294	0.433667
	H310	H	0.702665	0.570668	0.447090
	H311	H	0.707785	0.567132	0.429714
	O312	O	0.422723	0.400952	0.331663
	H313	H	0.446495	0.409859	0.327236
	H314	H	0.419072	0.404847	0.325727
	O315	O	0.620444	0.531188	0.701015
	H316	H	0.606163	0.520798	0.697316
	H317	H	0.630055	0.532757	0.699369
	O318	O	1.293455	0.709808	0.302115
	H319	H	1.292201	0.730705	0.280859
	H320	H	1.303971	0.699864	0.319016
	O321	O	0.615247	0.486003	0.682465
	H322	H	0.605449	0.470180	0.677818
	H323	H	0.631772	0.476738	0.691552
	O324	O	1.193339	0.163068	1.205475
	H325	H	1.212836	0.182935	1.228970
	H326	H	1.196662	0.156017	1.166710
	O327	O	0.987954	0.820670	0.993077
	H328	H	0.980702	0.820143	1.016265
	H329	H	0.977747	0.820091	0.987335
	O330	O	0.512969	0.517549	0.696327
	H331	H	0.495192	0.508517	0.696997
	H332	H	0.504195	0.514192	0.691888
	O333	O	0.571711	0.455514	0.506971
	H334	H	0.578156	0.445316	0.512507
	H335	H	0.563048	0.453978	0.509587
	O336	O	0.519885	0.297452	0.288365
	H337	H	0.528312	0.310759	0.282082
	H338	H	0.519865	0.280974	0.275360
	O339	O	0.681577	0.700545	0.689329
	H340	H	0.662336	0.674193	0.696905
	H341	H	0.693759	0.689619	0.671981
	O342	O	-0.047379	0.800296	0.214601
	H343	H	-0.062100	0.789432	0.226641
	H344	H	-0.047696	0.790461	0.217915
	O345	O	0.072904	0.028314	-0.045667
	H346	H	0.064088	0.032729	-0.045127
	H347	H	0.082911	0.023502	-0.038386
	O348	O	0.590306	0.296520	0.514578
	H349	H	0.607100	0.288927	0.503154
	H350	H	0.593317	0.299842	0.502346
	O351	O	0.176827	0.022594	0.982119
	H352	H	0.174466	0.024870	0.980562
	H353	H	0.182895	0.039039	0.979084
	O354	O	1.023417	0.231113	1.219729
	H355	H	1.056793	0.230143	1.225044
	H356	H	1.042365	0.251288	1.240744
	O357	O	0.684074	0.363317	0.649414
	H358	H	0.682701	0.367103	0.650215
	H359	H	0.675942	0.374275	0.626763
	O360	O	0.609653	0.378430	0.398718
	H361	H	0.603287	0.376352	0.380364
	H362	H	0.620605	0.372731	0.386400
	O363	O	0.784176	0.808382	0.199978
	H364	H	0.785842	0.787934	0.217781
	H365	H	0.769123	0.808944	0.196846
	O366	O	0.921866	0.161948	1.118891
	H367	H	0.923042	0.157059	1.096947
	H368	H	0.940288	0.168067	1.131254
	O369	O	-0.019768	0.080190	0.865687
	H370	H	-0.030190	0.069856	0.864378
	H371	H	-0.016300	0.061354	0.864577
	O372	O	0.177405	0.816863	0.981636
	H373	H	0.177548	0.807873	0.990672
	H374	H	0.181016	0.833802	0.999339
	O375	O	0.913088	-0.129895	-0.072141
	H376	H	0.910670	-0.129876	-0.067919
	H377	H	0.929047	-0.129629	-0.095014
	O378	O	0.484369	0.551584	0.490114
	H379	H	0.470296	0.554636	0.490217
	H380	H	0.472297	0.548103	0.491960
	O381	O	-0.140961	0.935593	-0.049202
	H382	H	-0.142288	0.911711	-0.057841
	H383	H	-0.141069	0.941515	-0.048759
	O384	O	0.400186	0.550444	0.455358
	H385	H	0.383729	0.545799	0.432639
	H386	H	0.396605	0.561265	0.459715
	O387	O	0.172509	0.824129	0.811153
	H388	H	0.190418	0.807320	0.842389
	H389	H	0.172060	0.849923	0.819342
	O390	O	0.674075	0.325288	0.332861
	H391	H	0.656867	0.332633	0.337701
	H392	H	0.695780	0.298191	0.301852
	O393	O	1.159854	0.177070	-0.186671
	H394	H	1.155257	0.170260	-0.186733
	H395	H	1.139006	0.170476	-0.189859
	O396	O	0.708509	0.730328	0.529370
	H397	H	0.707968	0.719587	0.544898
	H398	H	0.737089	0.750670	0.524181
	O399	O	0.323718	0.680562	0.617177
	H400	H	0.336883	0.690432	0.595927
	H401	H	0.321401	0.678992	0.610693
	O402	O	1.004421	0.218676	0.866421
	H403	H	0.991259	0.214889	0.839108
	H404	H	0.995098	0.212729	0.875571
	O405	O	0.709054	0.479330	0.298139
	H406	H	0.713534	0.460353	0.288915
	H407	H	0.715314	0.487185	0.288175
	O408	O	0.767286	0.992297	1.189907
	H409	H	0.762759	0.962179	1.192443
	H410	H	0.761048	0.996105	1.204147
	O411	O	1.205209	1.037654	0.155679
	H412	H	1.225057	1.043448	0.176571
	H413	H	1.189940	1.059498	0.142026
	O414	O	0.013449	-0.199163	-0.213147
	H415	H	0.050540	-0.189031	-0.206207
	H416	H	0.013668	-0.218716	-0.244173
	O417	O	0.267864	0.544984	0.274737
	H418	H	0.263292	0.559779	0.276225
	H419	H	0.248231	0.560901	0.257151
	O420	O	0.876440	0.211932	0.795781
	H421	H	0.883030	0.215404	0.797206
	H422	H	0.857084	0.226150	0.783293
	O423	O	1.076358	1.105848	-0.102153
	H424	H	1.063522	1.100647	-0.095942
	H425	H	1.083111	1.105226	-0.108721
	O426	O	0.285968	0.304393	0.706980
	H427	H	0.304924	0.309472	0.692564
	H428	H	0.272989	0.297313	0.702796
	O429	O	0.459795	0.727947	0.288930
	H430	H	0.460153	0.750806	0.270045
	H431	H	0.452303	0.715819	0.301465
	O432	O	0.902918	-0.015960	0.955214
	H433	H	0.900750	-0.021504	0.954013
	H434	H	0.897940	-0.019357	0.965894
	O435	O	0.536037	0.495447	0.432629
	H436	H	0.521782	0.501363	0.436783
	H437	H	0.530612	0.499579	0.429828
	O438	O	0.492042	0.547453	0.362807
	H439	H	0.489066	0.554918	0.375593
	H440	H	0.505710	0.536409	0.369919
	O441	O	0.781919	0.218583	0.204263
	H442	H	0.790819	0.209955	0.188003
	H443	H	0.808560	0.199145	0.184854
	O444	O	0.289931	0.428814	0.443609
	H445	H	0.284267	0.447322	0.471188
	H446	H	0.292249	0.433723	0.435305
	O447	O	0.494666	0.735301	0.513482
	H448	H	0.492066	0.737824	0.520639
	H449	H	0.504733	0.735559	0.529610
	O450	O	0.767935	0.058459	0.036388
	H451	H	0.771820	0.042285	0.020879
	H452	H	0.759603	0.047432	0.045200
	O453	O	0.270979	0.292663	0.531314
	H454	H	0.241791	0.266427	0.529156
	H455	H	0.288111	0.302819	0.525835
	O456	O	0.038147	0.990500	1.190422
	H457	H	0.033302	1.002295	1.198893
	H458	H	0.041879	0.988864	1.190750
	O459	O	0.475991	0.301774	0.692288
	H460	H	0.463662	0.310778	0.687000
	H461	H	0.476232	0.283649	0.706967
	O462	O	1.223317	0.798142	0.355633
	H463	H	1.230323	0.787388	0.345584
	H464	H	1.206469	0.828329	0.351844
	O465	O	0.480770	0.721882	0.517077
	H466	H	0.491641	0.726062	0.516855
	H467	H	0.483530	0.725365	0.528119
	O468	O	-0.183809	0.833899	-0.005064
	H469	H	-0.174606	0.826601	-0.012952
	H470	H	-0.184854	0.812332	-0.003154
	O471	O	0.280256	0.561252	0.575512
	H472	H	0.277350	0.574483	0.574888
	H473	H	0.274038	0.557185	0.584737
	O474	O	0.793933	1.218794	-0.032549
	H475	H	0.777737	1.221425	-0.023098
	H476	H	0.794619	1.222898	-0.028491
	O477	O	0.132283	0.107097	1.090265
	H478	H	0.139791	0.119341	1.084182
	H479	H	0.127092	0.103262	1.104322
