data_Molecule from HDF5

_cell_length_a		16.328361
_cell_length_b		16.339525
_cell_length_c		16.322936
_cell_angle_alpha	89.931458
_cell_angle_beta	89.984900
_cell_angle_gamma	89.981009
_symmetry_space_group_name_H-M	'P 1'
_symmetry_Int_Tables_number		1

loop_
	_symmetry_equiv_pos_as_xyz
	x,y,z

loop_
	_atom_site_label
	_atom_site_type_symbol
	_atom_site_fract_x
	_atom_site_fract_y
	_atom_site_fract_z
	H0	H	0.398802	0.844369	0.716296
	H1	H	0.596356	0.170415	0.715397
	H2	H	0.595913	0.843806	0.286742
	H3	H	0.399541	0.170862	0.286459
	H4	H	0.713843	0.408016	0.837892
	H5	H	0.712651	0.604190	0.163856
	H6	H	0.284225	0.604329	0.837099
	H7	H	0.283069	0.407913	0.164518
	H8	H	0.835247	0.722073	0.401695
	H9	H	0.161703	0.721171	0.597787
	H10	H	0.834594	0.292996	0.598986
	H11	H	0.161681	0.293400	0.402476
	H12	H	0.834626	0.408856	0.715829
	H13	H	0.161399	0.605790	0.715057
	H14	H	0.835362	0.605841	0.286022
	H15	H	0.161281	0.408971	0.285526
	H16	H	0.398636	0.722765	0.837126
	H17	H	0.595467	0.720372	0.164780
	H18	H	0.597366	0.292423	0.837412
	H19	H	0.400757	0.292318	0.164505
	H20	H	0.713387	0.844444	0.401524
	H21	H	0.712353	0.170024	0.599080
	H22	H	0.283903	0.843820	0.598758
	H23	H	0.282610	0.170136	0.402484
	H24	H	0.901239	0.344144	0.215634
	H25	H	0.096952	0.670341	0.214974
	H26	H	0.096546	0.343814	0.785541
	H27	H	0.900305	0.670373	0.786409
	H28	H	0.211906	0.910849	0.336906
	H29	H	0.212171	0.104726	0.664148
	H30	H	0.783974	0.105778	0.337013
	H31	H	0.783655	0.908834	0.663426
	H32	H	0.334931	0.222757	0.902785
	H33	H	0.662299	0.220389	0.097876
	H34	H	0.334531	0.791678	0.099734
	H35	H	0.660784	0.794098	0.903745
	H36	H	0.333836	0.910178	0.214641
	H37	H	0.661913	0.103542	0.213939
	H38	H	0.334398	0.106230	0.786174
	H39	H	0.660031	0.908594	0.785957
	H40	H	0.899368	0.223016	0.337468
	H41	H	0.095758	0.221075	0.664195
	H42	H	0.096099	0.793477	0.337080
	H43	H	0.899572	0.791838	0.663128
	H44	H	0.212992	0.343989	0.902797
	H45	H	0.213531	0.670141	0.099064
	H46	H	0.784674	0.343236	0.099356
	H47	H	0.784067	0.670161	0.902822
	H48	H	0.406536	0.122181	0.595022
	H49	H	0.599973	0.891440	0.584888
	H50	H	0.598071	0.127354	0.399860
	H51	H	0.411521	0.894228	0.410870
	H52	H	0.584867	0.419923	0.112766
	H53	H	0.593146	0.596457	0.885523
	H54	H	0.405829	0.604031	0.117445
	H55	H	0.404906	0.414250	0.885086
	H56	H	0.113091	0.601485	0.410390
	H57	H	0.881677	0.600398	0.597142
	H58	H	0.115096	0.416362	0.599002
	H59	H	0.883383	0.416106	0.406349
	H60	H	0.114809	0.408711	0.592691
	H61	H	0.881451	0.604123	0.591307
	H62	H	0.113678	0.597091	0.406033
	H63	H	0.881949	0.413839	0.407020
	H64	H	0.401698	0.597686	0.116650
	H65	H	0.586142	0.601777	0.885731
	H66	H	0.589257	0.404270	0.118871
	H67	H	0.404841	0.414868	0.885337
	H68	H	0.581708	0.121085	0.403437
	H69	H	0.593277	0.887211	0.606316
	H70	H	0.404639	0.122771	0.592197
	H71	H	0.398013	0.890992	0.412770
	H72	H	0.908158	0.624884	0.103232
	H73	H	0.089094	0.391622	0.096073
	H74	H	0.088312	0.621320	0.908301
	H75	H	0.910673	0.394370	0.913944
	H76	H	0.090014	0.910312	0.616879
	H77	H	0.093535	0.104547	0.382660
	H78	H	0.903512	0.103619	0.617425
	H79	H	0.903224	0.907202	0.381962
	H80	H	0.614604	0.100945	0.904708
	H81	H	0.381750	0.098826	0.097030
	H82	H	0.610182	0.917081	0.087416
	H83	H	0.382444	0.914594	0.910690
	H84	H	0.615493	0.917098	0.103899
	H85	H	0.381098	0.104639	0.094626
	H86	H	0.613112	0.102548	0.909946
	H87	H	0.381096	0.915759	0.906193
	H88	H	0.902297	0.098602	0.616637
	H89	H	0.093794	0.096107	0.385371
	H90	H	0.094238	0.914326	0.617317
	H91	H	0.898719	0.919494	0.384605
	H92	H	0.095123	0.623840	0.908669
	H93	H	0.090557	0.392338	0.090992
	H94	H	0.911087	0.618690	0.086257
	H95	H	0.898281	0.389428	0.908816
	H96	H	0.404110	0.123857	0.595010
	H97	H	0.578899	0.895906	0.591461
	H98	H	0.594137	0.121136	0.416987
	H99	H	0.404295	0.889210	0.400827
	H100	H	0.600916	0.416965	0.118460
	H101	H	0.594966	0.605012	0.883244
	H102	H	0.409187	0.597822	0.114951
	H103	H	0.405582	0.414574	0.885726
	H104	H	0.115496	0.602796	0.405210
	H105	H	0.883620	0.597757	0.591693
	H106	H	0.111158	0.417629	0.589850
	H107	H	0.882850	0.415524	0.408828
	H108	H	0.895101	0.625332	0.090680
	H109	H	0.094203	0.389929	0.094319
	H110	H	0.091336	0.624452	0.902810
	H111	H	0.909050	0.390433	0.900330
	H112	H	0.088709	0.915917	0.615764
	H113	H	0.086599	0.100972	0.385618
	H114	H	0.907574	0.100100	0.615476
	H115	H	0.911829	0.916975	0.386464
	H116	H	0.612716	0.096645	0.908371
	H117	H	0.384074	0.100182	0.091018
	H118	H	0.616303	0.902544	0.094478
	H119	H	0.379661	0.911689	0.907989
	C120	C	0.376341	0.015232	0.622419
	C121	C	0.619370	0.999038	0.622938
	C122	C	0.619612	0.015420	0.378759
	C123	C	0.376276	0.999242	0.379478
	C124	C	0.620002	0.385308	0.008844
	C125	C	0.619940	0.628836	0.992573
	C126	C	0.376846	0.628611	0.008411
	C127	C	0.376667	0.385559	0.993265
	C128	C	0.006740	0.629033	0.378653
	C129	C	0.989889	0.629076	0.621919
	C130	C	0.005898	0.385901	0.622432
	C131	C	0.990360	0.386263	0.378878
	C132	C	0.876842	0.514951	0.122219
	C133	C	0.120010	0.499156	0.122235
	C134	C	0.119902	0.515402	0.878643
	C135	C	0.877022	0.498934	0.879113
	C136	C	0.119354	0.885524	0.508859
	C137	C	0.119683	0.129016	0.492527
	C138	C	0.876358	0.128986	0.508415
	C139	C	0.876184	0.885828	0.491907
	C140	C	0.506011	0.129017	0.879335
	C141	C	0.490357	0.128801	0.121951
	C142	C	0.505719	0.884570	0.123107
	C143	C	0.488895	0.885953	0.879912
	C144	C	0.378939	0.892715	0.677763
	C145	C	0.617264	0.121451	0.678086
	C146	C	0.616684	0.892472	0.324213
	C147	C	0.378935	0.121843	0.324107
	C148	C	0.675179	0.387819	0.886114
	C149	C	0.674554	0.625302	0.115449
	C150	C	0.321382	0.625993	0.885911
	C151	C	0.321563	0.387921	0.115977
	C152	C	0.883842	0.684083	0.381003
	C153	C	0.112875	0.683619	0.618958
	C154	C	0.883388	0.330514	0.619978
	C155	C	0.112951	0.331191	0.381640
	C156	C	0.883125	0.388651	0.677448
	C157	C	0.112799	0.626108	0.676780
	C158	C	0.883781	0.626382	0.323819
	C159	C	0.112755	0.388468	0.323492
	C160	C	0.378560	0.684329	0.885883
	C161	C	0.616805	0.683205	0.115622
	C162	C	0.617492	0.330216	0.886203
	C163	C	0.379794	0.330341	0.115941
	C164	C	0.674639	0.892783	0.381771
	C165	C	0.674800	0.121338	0.620092
	C166	C	0.321681	0.892537	0.619642
	C167	C	0.320902	0.121789	0.381709
	C168	C	0.880016	0.392570	0.177620
	C169	C	0.117665	0.621797	0.177251
	C170	C	0.117157	0.392482	0.823796
	C171	C	0.879729	0.621706	0.824374
	C172	C	0.174201	0.889331	0.385667
	C173	C	0.174125	0.125376	0.615507
	C174	C	0.821184	0.126814	0.386033
	C175	C	0.821757	0.888207	0.615007
	C176	C	0.383221	0.184472	0.882172
	C177	C	0.613501	0.182905	0.118836
	C178	C	0.382986	0.830062	0.120060
	C179	C	0.611917	0.831489	0.882604
	C180	C	0.382577	0.888760	0.177174
	C181	C	0.613072	0.124920	0.176556
	C182	C	0.382892	0.126604	0.824473
	C183	C	0.611559	0.888658	0.824360
	C184	C	0.879068	0.184456	0.385874
	C185	C	0.116951	0.183618	0.615344
	C186	C	0.116693	0.831335	0.385665
	C187	C	0.879221	0.830162	0.614699
	C188	C	0.174708	0.392386	0.881999
	C189	C	0.175156	0.621654	0.119360
	C190	C	0.822524	0.392163	0.119636
	C191	C	0.821520	0.621435	0.881645
	C192	C	0.398520	0.100776	0.600334
	C193	C	0.597045	0.913573	0.600804
	C194	C	0.597720	0.101039	0.400449
	C195	C	0.398199	0.913621	0.401533
	C196	C	0.597949	0.407285	0.094553
	C197	C	0.598025	0.607427	0.906930
	C198	C	0.398935	0.606298	0.094267
	C199	C	0.398805	0.407825	0.907583
	C200	C	0.092075	0.606981	0.400625
	C201	C	0.904374	0.607262	0.599988
	C202	C	0.091696	0.407764	0.600162
	C203	C	0.904900	0.408521	0.400976
	C204	C	0.898569	0.600795	0.099996
	C205	C	0.097800	0.413271	0.100354
	C206	C	0.097973	0.600994	0.900294
	C207	C	0.899328	0.413435	0.901225
	C208	C	0.097476	0.907035	0.594407
	C209	C	0.097734	0.107109	0.406675
	C210	C	0.898104	0.107162	0.594417
	C211	C	0.898006	0.908045	0.406331
	C212	C	0.591388	0.106678	0.901052
	C213	C	0.404367	0.107524	0.100423
	C214	C	0.591868	0.905941	0.101670
	C215	C	0.403140	0.907638	0.901950
	Zn216	Zn	0.497139	0.007608	0.751212
	Zn217	Zn	0.497704	0.006926	0.250724
	Zn218	Zn	0.748274	0.506297	0.000486
	Zn219	Zn	0.248223	0.506809	0.000788
	Zn220	Zn	-0.001999	0.757247	0.499957
	Zn221	Zn	-0.001732	0.257546	0.500416
	Zn222	Zn	-0.002006	0.507300	0.750104
	Zn223	Zn	-0.001379	0.508056	0.250369
	Zn224	Zn	0.497894	0.757285	0.000432
	Zn225	Zn	0.498264	0.257303	0.000749
	Zn226	Zn	0.747854	0.007148	0.500732
	Zn227	Zn	0.247898	0.007346	0.500950
	N228	N	0.412132	0.970148	0.679616
	N229	N	0.583243	0.044440	0.679770
	N230	N	0.583103	0.969703	0.322221
	N231	N	0.412607	0.044581	0.322690
	N232	N	0.676922	0.421234	0.963377
	N233	N	0.676684	0.592169	0.038002
	N234	N	0.320361	0.591812	0.963057
	N235	N	0.319530	0.421531	0.038525
	N236	N	0.961035	0.685641	0.414720
	N237	N	0.035668	0.685533	0.585242
	N238	N	0.960711	0.329095	0.586178
	N239	N	0.035810	0.329933	0.415515
	N240	N	0.960366	0.422235	0.679084
	N241	N	0.035426	0.592678	0.678579
	N242	N	0.961127	0.593031	0.321934
	N243	N	0.035594	0.422253	0.321806
	N244	N	0.412345	0.685912	0.963230
	N245	N	0.583377	0.685429	0.038278
	N246	N	0.583997	0.328420	0.963645
	N247	N	0.413280	0.328824	0.038646
	N248	N	0.676517	0.970170	0.414966
	N249	N	0.676148	0.044206	0.586419
	N250	N	0.319959	0.969720	0.585914
	N251	N	0.319264	0.044770	0.415581
	N252	N	0.913143	0.469910	0.179041
	N253	N	0.084179	0.544551	0.178977
	N254	N	0.083888	0.469936	0.821502
	N255	N	0.913491	0.544682	0.822681
	N256	N	0.176202	0.922251	0.463235
	N257	N	0.176126	0.092309	0.537959
	N258	N	0.819528	0.093038	0.463251
	N259	N	0.819775	0.921987	0.537849
	N260	N	0.460646	0.186026	0.915520
	N261	N	0.536146	0.185282	0.085490
	N262	N	0.460637	0.827414	0.087257
	N263	N	0.534929	0.830008	0.916459
	N264	N	0.459929	0.922015	0.178955
	N265	N	0.535482	0.092064	0.178674
	N266	N	0.459982	0.092662	0.822807
	N267	N	0.533936	0.921840	0.822508
	N268	N	0.912704	0.186090	0.463158
	N269	N	0.083927	0.186041	0.537862
	N270	N	0.083410	0.828877	0.462941
	N271	N	0.912352	0.828426	0.537106
	N272	N	0.176687	0.469626	0.915294
	N273	N	0.176550	0.544430	0.085758
	N274	N	0.820334	0.469472	0.085986
	N275	N	0.819688	0.544047	0.914951
	O276	O	1.457920	-0.548176	0.518775
	H277	H	1.448959	-0.547927	0.517565
	H278	H	1.461177	-0.560886	0.521297
	O279	O	0.453987	0.445923	0.508244
	H280	H	0.452748	0.440389	0.502389
	H281	H	0.452813	0.449022	0.500313
	O282	O	0.438604	0.472150	0.512970
	H283	H	0.439863	0.477223	0.517759
	H284	H	0.435469	0.477874	0.511932
	O285	O	0.453809	0.485815	0.506877
	H286	H	0.449224	0.480629	0.507465
	H287	H	0.458424	0.483612	0.512106
