data_Molecule from HDF5

_cell_length_a		16.355365
_cell_length_b		16.330409
_cell_length_c		16.296060
_cell_angle_alpha	89.997809
_cell_angle_beta	89.956185
_cell_angle_gamma	90.033812
_symmetry_space_group_name_H-M	'P 1'
_symmetry_Int_Tables_number		1

loop_
	_symmetry_equiv_pos_as_xyz
	x,y,z

loop_
	_atom_site_label
	_atom_site_type_symbol
	_atom_site_fract_x
	_atom_site_fract_y
	_atom_site_fract_z
	H0	H	0.397862	0.843336	0.714930
	H1	H	0.592414	0.170596	0.713817
	H2	H	0.593053	0.842784	0.286887
	H3	H	0.398140	0.169254	0.286902
	H4	H	0.710783	0.408408	0.836008
	H5	H	0.711246	0.603934	0.163587
	H6	H	0.281545	0.606445	0.837285
	H7	H	0.282145	0.407914	0.164454
	H8	H	0.833544	0.721257	0.400672
	H9	H	0.158918	0.722119	0.598450
	H10	H	0.832455	0.291975	0.599202
	H11	H	0.158167	0.289651	0.401718
	H12	H	0.833234	0.409326	0.714664
	H13	H	0.159875	0.603336	0.713236
	H14	H	0.833967	0.604853	0.284616
	H15	H	0.159793	0.407517	0.285924
	H16	H	0.399633	0.720115	0.836613
	H17	H	0.594204	0.720075	0.164483
	H18	H	0.594717	0.291778	0.836166
	H19	H	0.399408	0.292423	0.164718
	H20	H	0.709746	0.843544	0.401539
	H21	H	0.710060	0.169447	0.599250
	H22	H	0.281178	0.843096	0.599406
	H23	H	0.281165	0.169601	0.402989
	H24	H	0.899353	0.342128	0.213924
	H25	H	0.094149	0.669699	0.214358
	H26	H	0.093641	0.341908	0.786626
	H27	H	0.899715	0.669517	0.785309
	H28	H	0.209586	0.909064	0.336871
	H29	H	0.209393	0.103586	0.664033
	H30	H	0.780318	0.105669	0.336987
	H31	H	0.780981	0.907467	0.663435
	H32	H	0.333199	0.221217	0.902383
	H33	H	0.660159	0.219784	0.098416
	H34	H	0.333259	0.791525	0.098613
	H35	H	0.659565	0.792732	0.903185
	H36	H	0.332039	0.908596	0.214353
	H37	H	0.659225	0.103765	0.215938
	H38	H	0.332670	0.104508	0.786287
	H39	H	0.659080	0.908986	0.786180
	H40	H	0.898058	0.220788	0.336858
	H41	H	0.091607	0.218643	0.664746
	H42	H	0.093958	0.791859	0.336809
	H43	H	0.897938	0.792112	0.663235
	H44	H	0.211480	0.342542	0.902670
	H45	H	0.211988	0.669516	0.099246
	H46	H	0.782725	0.342073	0.097819
	H47	H	0.783265	0.669902	0.902194
	H48	H	0.403269	0.120288	0.586230
	H49	H	0.583155	0.893768	0.591300
	H50	H	0.587954	0.123273	0.404695
	H51	H	0.411288	0.893254	0.409504
	H52	H	0.588364	0.416574	0.113848
	H53	H	0.591201	0.602422	0.882834
	H54	H	0.399531	0.603188	0.119414
	H55	H	0.403784	0.414907	0.885734
	H56	H	0.112536	0.601693	0.408380
	H57	H	0.879474	0.606577	0.590132
	H58	H	0.114001	0.409185	0.597519
	H59	H	0.880271	0.413869	0.404838
	H60	H	0.111531	0.409452	0.588311
	H61	H	0.883720	0.593722	0.589446
	H62	H	0.111069	0.597659	0.408224
	H63	H	0.880020	0.411242	0.407352
	H64	H	0.401668	0.593360	0.115176
	H65	H	0.592020	0.598087	0.884119
	H66	H	0.587100	0.409808	0.116206
	H67	H	0.405348	0.412639	0.885718
	H68	H	0.585580	0.121300	0.409599
	H69	H	0.593610	0.890827	0.589876
	H70	H	0.396052	0.125242	0.595225
	H71	H	0.395176	0.889904	0.415237
	H72	H	0.908488	0.621685	0.096664
	H73	H	0.090495	0.392237	0.088325
	H74	H	0.088147	0.621675	0.903984
	H75	H	0.893116	0.386750	0.905553
	H76	H	0.083213	0.915004	0.614617
	H77	H	0.089666	0.107229	0.381575
	H78	H	0.906197	0.103292	0.616346
	H79	H	0.896148	0.913444	0.382029
	H80	H	0.613356	0.109403	0.910258
	H81	H	0.379496	0.102422	0.095175
	H82	H	0.613967	0.915540	0.107025
	H83	H	0.380878	0.914796	0.907121
	H84	H	0.614306	0.900578	0.089136
	H85	H	0.381177	0.099984	0.090845
	H86	H	0.607552	0.092015	0.913643
	H87	H	0.379033	0.911548	0.906471
	H88	H	0.896600	0.101628	0.618927
	H89	H	0.096141	0.094057	0.383174
	H90	H	0.089234	0.908019	0.619111
	H91	H	0.904084	0.918025	0.385873
	H92	H	0.088647	0.620531	0.910383
	H93	H	0.093328	0.388508	0.095452
	H94	H	0.904313	0.619307	0.087272
	H95	H	0.909070	0.390276	0.899343
	H96	H	0.407108	0.121626	0.597757
	H97	H	0.588787	0.888226	0.599389
	H98	H	0.591052	0.122063	0.409067
	H99	H	0.399240	0.886649	0.398274
	H100	H	0.593701	0.412427	0.117486
	H101	H	0.587856	0.600174	0.884816
	H102	H	0.409403	0.601262	0.115378
	H103	H	0.402585	0.413241	0.884524
	H104	H	0.112723	0.599589	0.404570
	H105	H	0.877732	0.598608	0.601076
	H106	H	0.110463	0.416895	0.594085
	H107	H	0.881621	0.414647	0.408406
	H108	H	0.898352	0.623525	0.094685
	H109	H	0.085652	0.391400	0.095094
	H110	H	0.093842	0.622760	0.907193
	H111	H	0.905602	0.393742	0.915903
	H112	H	0.092750	0.916984	0.616921
	H113	H	0.081914	0.096029	0.387234
	H114	H	0.901796	0.094176	0.615393
	H115	H	0.904916	0.908381	0.382916
	H116	H	0.613832	0.097157	0.896952
	H117	H	0.381915	0.097546	0.095556
	H118	H	0.606713	0.922490	0.086381
	H119	H	0.380845	0.912478	0.909759
	C120	C	0.373667	0.014677	0.622291
	C121	C	0.617083	0.998606	0.622306
	C122	C	0.616469	0.014385	0.379482
	C123	C	0.373683	0.997735	0.379227
	C124	C	0.618187	0.384693	0.007853
	C125	C	0.618155	0.627877	0.992228
	C126	C	0.375200	0.627895	0.008572
	C127	C	0.375315	0.384847	0.992782
	C128	C	0.004581	0.627950	0.378474
	C129	C	0.988054	0.627892	0.621538
	C130	C	0.004188	0.384349	0.621695
	C131	C	0.988141	0.384666	0.379029
	C132	C	0.874891	0.513731	0.121717
	C133	C	0.118363	0.498172	0.121617
	C134	C	0.118297	0.513802	0.878712
	C135	C	0.875200	0.498295	0.878448
	C136	C	0.116797	0.885108	0.508712
	C137	C	0.116900	0.127075	0.492317
	C138	C	0.873537	0.128028	0.508580
	C139	C	0.873635	0.884768	0.491919
	C140	C	0.503840	0.127982	0.878815
	C141	C	0.488754	0.127647	0.122441
	C142	C	0.503927	0.884553	0.122559
	C143	C	0.487934	0.884962	0.879132
	C144	C	0.376727	0.891947	0.677361
	C145	C	0.613397	0.121313	0.676921
	C146	C	0.613873	0.891748	0.324184
	C147	C	0.376913	0.120803	0.324831
	C148	C	0.672976	0.387792	0.884730
	C149	C	0.673064	0.624863	0.115178
	C150	C	0.320135	0.625885	0.885724
	C151	C	0.320297	0.387300	0.115794
	C152	C	0.882093	0.682895	0.380812
	C153	C	0.110315	0.683748	0.619034
	C154	C	0.881205	0.329939	0.619368
	C155	C	0.110311	0.328960	0.381423
	C156	C	0.881622	0.388004	0.676901
	C157	C	0.110930	0.624594	0.675813
	C158	C	0.882271	0.625304	0.322836
	C159	C	0.110821	0.386888	0.323544
	C160	C	0.378651	0.682578	0.885455
	C161	C	0.614933	0.682244	0.115533
	C162	C	0.615526	0.329581	0.884838
	C163	C	0.378558	0.330171	0.115902
	C164	C	0.671637	0.891953	0.381247
	C165	C	0.672159	0.120906	0.620141
	C166	C	0.318772	0.891828	0.620011
	C167	C	0.318793	0.120630	0.382166
	C168	C	0.878193	0.390924	0.176427
	C169	C	0.115269	0.621104	0.176729
	C170	C	0.115208	0.390847	0.823805
	C171	C	0.878642	0.621008	0.823474
	C172	C	0.171857	0.887851	0.385694
	C173	C	0.171688	0.124879	0.615365
	C174	C	0.818784	0.125371	0.385662
	C175	C	0.818974	0.887341	0.614520
	C176	C	0.381521	0.183278	0.881628
	C177	C	0.611387	0.181819	0.118820
	C178	C	0.381656	0.829474	0.119623
	C179	C	0.610801	0.830332	0.882237
	C180	C	0.381223	0.887490	0.177274
	C181	C	0.610830	0.124595	0.177545
	C182	C	0.381353	0.125207	0.824054
	C183	C	0.610496	0.887867	0.824000
	C184	C	0.876950	0.182865	0.385494
	C185	C	0.113202	0.181715	0.615604
	C186	C	0.114320	0.830099	0.385468
	C187	C	0.876983	0.829991	0.614612
	C188	C	0.173638	0.391091	0.881389
	C189	C	0.173734	0.620943	0.119500
	C190	C	0.820213	0.390870	0.118876
	C191	C	0.820937	0.621172	0.881388
	C192	C	0.395685	0.100208	0.599845
	C193	C	0.595071	0.912866	0.600019
	C194	C	0.594655	0.099997	0.401516
	C195	C	0.395497	0.912242	0.401098
	C196	C	0.596263	0.406519	0.093650
	C197	C	0.596771	0.606459	0.906296
	C198	C	0.396852	0.605698	0.094490
	C199	C	0.397236	0.407288	0.907351
	C200	C	0.090105	0.606080	0.400579
	C201	C	0.902406	0.606119	0.599973
	C202	C	0.089839	0.405441	0.599734
	C203	C	0.902739	0.406774	0.400535
	C204	C	0.897124	0.599377	0.099441
	C205	C	0.096469	0.412650	0.099368
	C206	C	0.096706	0.599476	0.900773
	C207	C	0.896419	0.412463	0.900325
	C208	C	0.094817	0.906824	0.594697
	C209	C	0.095531	0.105480	0.406336
	C210	C	0.895148	0.106092	0.594587
	C211	C	0.895349	0.906576	0.405680
	C212	C	0.589489	0.106062	0.900595
	C213	C	0.402677	0.106191	0.100478
	C214	C	0.589566	0.906590	0.100632
	C215	C	0.402392	0.906605	0.901237
	Zn216	Zn	0.495371	0.006356	0.750587
	Zn217	Zn	0.495604	0.006282	0.251173
	Zn218	Zn	0.746617	0.506025	0.000298
	Zn219	Zn	0.247287	0.506340	0.000532
	Zn220	Zn	-0.004361	0.756701	0.499868
	Zn221	Zn	-0.004650	0.255673	0.500320
	Zn222	Zn	-0.003001	0.506125	0.750088
	Zn223	Zn	-0.003357	0.506146	0.249934
	Zn224	Zn	0.496132	0.756344	0.000724
	Zn225	Zn	0.496710	0.256533	0.000180
	Zn226	Zn	0.744956	0.006552	0.500259
	Zn227	Zn	0.245444	0.005779	0.500983
	N228	N	0.410172	0.969178	0.678839
	N229	N	0.579825	0.044073	0.678275
	N230	N	0.579818	0.968826	0.323367
	N231	N	0.410235	0.043613	0.322988
	N232	N	0.674705	0.421213	0.962339
	N233	N	0.675001	0.591485	0.037793
	N234	N	0.317843	0.592496	0.963223
	N235	N	0.318255	0.420721	0.038364
	N236	N	0.959165	0.684795	0.414481
	N237	N	0.032943	0.685661	0.585865
	N238	N	0.958547	0.327521	0.585879
	N239	N	0.033260	0.327323	0.414908
	N240	N	0.958820	0.421295	0.678280
	N241	N	0.033904	0.590608	0.677403
	N242	N	0.959363	0.591731	0.321400
	N243	N	0.033811	0.421160	0.322137
	N244	N	0.412224	0.683780	0.962767
	N245	N	0.581479	0.684401	0.037990
	N246	N	0.581977	0.327867	0.962259
	N247	N	0.411971	0.328526	0.038390
	N248	N	0.673670	0.969168	0.414884
	N249	N	0.674811	0.043418	0.587265
	N250	N	0.316772	0.969167	0.586530
	N251	N	0.316747	0.043142	0.415470
	N252	N	0.911543	0.468393	0.178350
	N253	N	0.081753	0.543850	0.178283
	N254	N	0.081849	0.468216	0.821906
	N255	N	0.911655	0.543690	0.821697
	N256	N	0.173578	0.921196	0.463181
	N257	N	0.174049	0.091673	0.537916
	N258	N	0.816509	0.092344	0.463372
	N259	N	0.816859	0.920643	0.537052
	N260	N	0.458833	0.185146	0.914894
	N261	N	0.534124	0.183708	0.085111
	N262	N	0.458858	0.827546	0.086350
	N263	N	0.533679	0.828495	0.915866
	N264	N	0.458429	0.921214	0.178949
	N265	N	0.533589	0.091632	0.179579
	N266	N	0.458406	0.091662	0.822397
	N267	N	0.533202	0.921022	0.821905
	N268	N	0.910229	0.184492	0.462939
	N269	N	0.079926	0.183355	0.538023
	N270	N	0.080690	0.828373	0.462981
	N271	N	0.910282	0.828353	0.537231
	N272	N	0.175823	0.468401	0.914885
	N273	N	0.175517	0.543653	0.085766
	N274	N	0.818266	0.468195	0.085609
	N275	N	0.818441	0.543800	0.914664
	O276	O	1.548209	-0.489282	0.487788
	H277	H	1.537821	-0.486963	0.492539
	H278	H	1.549235	-0.484189	0.494402
	O279	O	0.539113	0.487594	0.530199
	H280	H	0.539251	0.487523	0.518864
	H281	H	0.539020	0.486940	0.535454
	O282	O	0.520282	0.491855	0.539583
	H283	H	0.527041	0.484815	0.530010
	H284	H	0.526418	0.492252	0.538165
	O285	O	0.498963	0.512441	0.526974
	H286	H	0.491757	0.517899	0.537202
	H287	H	0.504390	0.506260	0.523360
