data_Molecule from HDF5

_cell_length_a		16.436881
_cell_length_b		16.348826
_cell_length_c		16.451033
_cell_angle_alpha	90.186898
_cell_angle_beta	90.002423
_cell_angle_gamma	89.919107
_symmetry_space_group_name_H-M	'P 1'
_symmetry_Int_Tables_number		1

loop_
	_symmetry_equiv_pos_as_xyz
	x,y,z

loop_
	_atom_site_label
	_atom_site_type_symbol
	_atom_site_fract_x
	_atom_site_fract_y
	_atom_site_fract_z
	H0	H	0.387613	0.857601	0.711725
	H1	H	0.597762	0.175717	0.715093
	H2	H	0.594626	0.857557	0.271018
	H3	H	0.382373	0.175877	0.269572
	H4	H	0.712823	0.411857	0.836690
	H5	H	0.710812	0.626264	0.153195
	H6	H	0.266527	0.625780	0.836350
	H7	H	0.268899	0.413524	0.151816
	H8	H	0.831650	0.737321	0.392008
	H9	H	0.149638	0.739911	0.600830
	H10	H	0.832875	0.296108	0.600644
	H11	H	0.147890	0.293019	0.386704
	H12	H	0.832730	0.413113	0.716103
	H13	H	0.149470	0.625134	0.717696
	H14	H	0.833702	0.626364	0.272781
	H15	H	0.148897	0.410175	0.271746
	H16	H	0.384835	0.738111	0.834403
	H17	H	0.594214	0.741775	0.151729
	H18	H	0.594951	0.297824	0.835412
	H19	H	0.381592	0.294245	0.150302
	H20	H	0.710138	0.856728	0.386861
	H21	H	0.711366	0.176225	0.596987
	H22	H	0.269961	0.858158	0.598140
	H23	H	0.267079	0.176183	0.386145
	H24	H	0.887685	0.359252	0.214725
	H25	H	0.097905	0.677189	0.217807
	H26	H	0.099848	0.360176	0.770108
	H27	H	0.884961	0.676645	0.773820
	H28	H	0.213516	0.908812	0.335716
	H29	H	0.214856	0.127225	0.650481
	H30	H	0.768033	0.123302	0.335152
	H31	H	0.768129	0.912115	0.650634
	H32	H	0.333035	0.241058	0.885536
	H33	H	0.648210	0.240067	0.097993
	H34	H	0.331732	0.796114	0.098590
	H35	H	0.647502	0.795267	0.886633
	H36	H	0.332807	0.910085	0.216178
	H37	H	0.647839	0.125514	0.215778
	H38	H	0.333746	0.127909	0.767083
	H39	H	0.647023	0.910155	0.770467
	H40	H	0.882475	0.241340	0.336769
	H41	H	0.095636	0.239206	0.652093
	H42	H	0.095138	0.795199	0.335723
	H43	H	0.887347	0.800427	0.653343
	H44	H	0.213980	0.359979	0.886858
	H45	H	0.213080	0.677242	0.101949
	H46	H	0.770271	0.358974	0.100545
	H47	H	0.769841	0.677045	0.891413
	H48	H	0.410501	0.126649	0.575334
	H49	H	0.577537	0.901992	0.586564
	H50	H	0.579630	0.129059	0.410973
	H51	H	0.394265	0.901893	0.403854
	H52	H	0.581538	0.427494	0.109084
	H53	H	0.584672	0.605869	0.880250
	H54	H	0.399145	0.608690	0.107353
	H55	H	0.396336	0.431083	0.879413
	H56	H	0.104367	0.604215	0.405833
	H57	H	0.875729	0.617512	0.579798
	H58	H	0.102331	0.434664	0.583783
	H59	H	0.876468	0.429419	0.401302
	H60	H	0.105985	0.427253	0.584872
	H61	H	0.882989	0.599029	0.579711
	H62	H	0.105133	0.607857	0.405336
	H63	H	0.878456	0.427081	0.409508
	H64	H	0.401734	0.604970	0.105232
	H65	H	0.578559	0.603297	0.882932
	H66	H	0.579583	0.433704	0.107424
	H67	H	0.405410	0.435240	0.884167
	H68	H	0.584217	0.133333	0.401416
	H69	H	0.575804	0.905423	0.577516
	H70	H	0.393993	0.132643	0.575672
	H71	H	0.406430	0.903665	0.396969
	H72	H	0.901645	0.633807	0.086967
	H73	H	0.081059	0.403626	0.085137
	H74	H	0.084024	0.633971	0.905325
	H75	H	0.901424	0.404323	0.905401
	H76	H	0.072066	0.925346	0.604992
	H77	H	0.077760	0.111839	0.379027
	H78	H	0.892410	0.108173	0.609506
	H79	H	0.901744	0.930524	0.381102
	H80	H	0.604800	0.107361	0.899356
	H81	H	0.378141	0.107218	0.077598
	H82	H	0.603508	0.933130	0.085514
	H83	H	0.376075	0.925166	0.904075
	H84	H	0.604159	0.925609	0.082017
	H85	H	0.378598	0.101857	0.082078
	H86	H	0.602610	0.109100	0.908813
	H87	H	0.378355	0.932322	0.906103
	H88	H	0.901448	0.097091	0.603424
	H89	H	0.084197	0.100171	0.381149
	H90	H	0.088207	0.924319	0.610915
	H91	H	0.903766	0.923612	0.378823
	H92	H	0.071217	0.630567	0.901631
	H93	H	0.076042	0.405654	0.083519
	H94	H	0.902093	0.631560	0.083307
	H95	H	0.901712	0.403719	0.905067
	H96	H	0.403766	0.134305	0.589937
	H97	H	0.584474	0.901966	0.579563
	H98	H	0.572903	0.128859	0.401427
	H99	H	0.405940	0.907569	0.410342
	H100	H	0.575772	0.428191	0.106066
	H101	H	0.578450	0.609940	0.880499
	H102	H	0.403718	0.608876	0.106166
	H103	H	0.405151	0.424952	0.880322
	H104	H	0.103841	0.606725	0.408489
	H105	H	0.874761	0.606655	0.596264
	H106	H	0.102909	0.428759	0.577667
	H107	H	0.880235	0.434918	0.406627
	H108	H	0.898322	0.633240	0.084348
	H109	H	0.080613	0.406562	0.080198
	H110	H	0.076111	0.627758	0.914532
	H111	H	0.902078	0.403362	0.905406
	H112	H	0.082262	0.938738	0.604213
	H113	H	0.071900	0.100928	0.384933
	H114	H	0.907228	0.111835	0.605636
	H115	H	0.896346	0.926388	0.378436
	H116	H	0.600556	0.100142	0.904970
	H117	H	0.375765	0.108335	0.083959
	H118	H	0.600937	0.932164	0.077722
	H119	H	0.375426	0.931211	0.898591
	C120	C	0.370222	0.025974	0.613179
	C121	C	0.612042	1.008274	0.613780
	C122	C	0.610904	0.025199	0.371445
	C123	C	0.368827	1.009038	0.371326
	C124	C	0.611696	0.397002	0.002922
	C125	C	0.612307	0.640418	0.985634
	C126	C	0.368490	0.640079	0.001755
	C127	C	0.368678	0.396876	0.985146
	C128	C	-0.000259	0.639195	0.374377
	C129	C	0.982478	0.640535	0.617795
	C130	C	-0.000735	0.397315	0.615573
	C131	C	0.982615	0.396336	0.372801
	C132	C	0.869316	0.527325	0.116604
	C133	C	0.112212	0.510283	0.116087
	C134	C	0.111616	0.526443	0.873283
	C135	C	0.869284	0.509264	0.873566
	C136	C	0.112805	0.895954	0.502132
	C137	C	0.111212	0.138230	0.485662
	C138	C	0.867786	0.139029	0.501913
	C139	C	0.869018	0.895889	0.484659
	C140	C	0.498734	0.139313	0.870648
	C141	C	0.481508	0.139475	0.114514
	C142	C	0.498321	0.897185	0.114128
	C143	C	0.480912	0.896497	0.870889
	C144	C	0.368659	0.905836	0.672510
	C145	C	0.615364	0.128130	0.674512
	C146	C	0.612849	0.905330	0.311045
	C147	C	0.365126	0.128470	0.310403
	C148	C	0.672253	0.394324	0.884039
	C149	C	0.671157	0.643698	0.105285
	C150	C	0.307204	0.642919	0.883518
	C151	C	0.308450	0.394474	0.104056
	C152	C	0.879809	0.698626	0.372758
	C153	C	0.101782	0.700608	0.619433
	C154	C	0.880260	0.336396	0.618698
	C155	C	0.100773	0.334178	0.369191
	C156	C	0.880332	0.394548	0.676287
	C157	C	0.101592	0.643241	0.677743
	C158	C	0.880774	0.643228	0.313536
	C159	C	0.101317	0.392589	0.311928
	C160	C	0.366559	0.698744	0.882258
	C161	C	0.613038	0.701419	0.104514
	C162	C	0.613622	0.337410	0.883206
	C163	C	0.364633	0.335108	0.103303
	C164	C	0.670460	0.904816	0.368688
	C165	C	0.671895	0.128106	0.615649
	C166	C	0.310298	0.906034	0.615681
	C167	C	0.307789	0.128633	0.368606
	C168	C	0.868258	0.407212	0.175884
	C169	C	0.115619	0.629499	0.177343
	C170	C	0.116537	0.407423	0.811315
	C171	C	0.867159	0.629047	0.813990
	C172	C	0.173408	0.891566	0.383312
	C173	C	0.173398	0.143292	0.603670
	C174	C	0.807833	0.141752	0.382976
	C175	C	0.808869	0.894308	0.603654
	C176	C	0.380425	0.200901	0.867468
	C177	C	0.600717	0.200033	0.117046
	C178	C	0.379212	0.836613	0.116464
	C179	C	0.599878	0.835509	0.868668
	C180	C	0.379638	0.893436	0.174993
	C181	C	0.600487	0.142828	0.175337
	C182	C	0.380972	0.144359	0.808379
	C183	C	0.599855	0.892610	0.810602
	C184	C	0.865080	0.200460	0.383730
	C185	C	0.114195	0.199452	0.604471
	C186	C	0.114512	0.834881	0.383374
	C187	C	0.868530	0.838916	0.605053
	C188	C	0.173747	0.407636	0.869254
	C189	C	0.172708	0.629681	0.119122
	C190	C	0.809913	0.407226	0.118656
	C191	C	0.809440	0.629071	0.872022
	C192	C	0.395694	0.109276	0.587718
	C193	C	0.586526	0.924900	0.588485
	C194	C	0.585864	0.108717	0.397198
	C195	C	0.394718	0.925981	0.396566
	C196	C	0.586023	0.422420	0.086011
	C197	C	0.587563	0.614113	0.902837
	C198	C	0.394194	0.614862	0.084704
	C199	C	0.394752	0.422837	0.902809
	C200	C	0.082594	0.613691	0.399343
	C201	C	0.899611	0.615213	0.592693
	C202	C	0.081889	0.422846	0.589622
	C203	C	0.899965	0.422759	0.398652
	C204	C	0.893632	0.611264	0.092037
	C205	C	0.086681	0.426963	0.090366
	C206	C	0.084783	0.609199	0.899548
	C207	C	0.894437	0.425557	0.898229
	C208	C	0.088037	0.921857	0.584989
	C209	C	0.085376	0.111960	0.403225
	C210	C	0.893073	0.113241	0.584540
	C211	C	0.893574	0.919883	0.401161
	C212	C	0.581313	0.113140	0.896880
	C213	C	0.399044	0.113557	0.088686
	C214	C	0.581182	0.922827	0.088920
	C215	C	0.398129	0.922367	0.895910
	Zn216	Zn	0.490635	0.017636	0.742228
	Zn217	Zn	0.489961	0.017614	0.242685
	Zn218	Zn	0.740672	0.518552	-0.004425
	Zn219	Zn	0.240238	0.518848	-0.005831
	Zn220	Zn	-0.009358	0.767798	0.494631
	Zn221	Zn	-0.009595	0.267515	0.494185
	Zn222	Zn	-0.008535	0.517613	0.745164
	Zn223	Zn	-0.008892	0.519010	0.245251
	Zn224	Zn	0.489307	0.768705	-0.007270
	Zn225	Zn	0.490464	0.267861	-0.007048
	Zn226	Zn	0.739960	0.016035	0.491844
	Zn227	Zn	0.240615	0.017858	0.493188
	N228	N	0.404876	0.981681	0.671370
	N229	N	0.579079	0.052441	0.673713
	N230	N	0.576864	0.981286	0.312367
	N231	N	0.402315	0.053162	0.311852
	N232	N	0.671245	0.430354	0.959576
	N233	N	0.670820	0.606504	0.030352
	N234	N	0.308715	0.607027	0.958955
	N235	N	0.310903	0.432140	0.029678
	N236	N	0.954810	0.696579	0.409633
	N237	N	0.026584	0.699132	0.582703
	N238	N	0.955174	0.337887	0.581560
	N239	N	0.025841	0.336323	0.406184
	N240	N	0.955389	0.431354	0.674605
	N241	N	0.026467	0.606694	0.676851
	N242	N	0.956267	0.606840	0.314455
	N243	N	0.026715	0.430683	0.314101
	N244	N	0.403902	0.697176	0.956901
	N245	N	0.577273	0.699696	0.028908
	N246	N	0.576787	0.338786	0.958296
	N247	N	0.401562	0.336520	0.028273
	N248	N	0.669686	0.980484	0.405269
	N249	N	0.670098	0.052678	0.578730
	N250	N	0.310919	0.981800	0.579696
	N251	N	0.309717	0.053265	0.405384
	N252	N	0.904377	0.483027	0.174841
	N253	N	0.078714	0.553991	0.175647
	N254	N	0.078873	0.482256	0.813649
	N255	N	0.903481	0.553132	0.814657
	N256	N	0.172202	0.928927	0.458309
	N257	N	0.171678	0.105885	0.528812
	N258	N	0.809451	0.104337	0.457505
	N259	N	0.809166	0.928967	0.527804
	N260	N	0.454768	0.197747	0.905620
	N261	N	0.525671	0.198303	0.080211
	N262	N	0.454059	0.838863	0.079301
	N263	N	0.524900	0.837705	0.905340
	N264	N	0.454707	0.930277	0.173636
	N265	N	0.525270	0.106245	0.174130
	N266	N	0.455600	0.106547	0.810477
	N267	N	0.524989	0.930017	0.811990
	N268	N	0.901670	0.198868	0.458823
	N269	N	0.076004	0.196258	0.530118
	N270	N	0.077536	0.837453	0.458275
	N271	N	0.905156	0.839628	0.529985
	N272	N	0.170826	0.482665	0.907088
	N273	N	0.170907	0.554385	0.081991
	N274	N	0.810431	0.483061	0.082641
	N275	N	0.810513	0.553491	0.908022
	O276	O	0.483552	0.621018	0.443039
	H277	H	0.501385	0.603371	0.433179
	H278	H	0.471020	0.616477	0.455944
	O279	O	0.508004	0.637520	0.520116
	H280	H	0.512685	0.618644	0.516417
	H281	H	0.488560	0.650165	0.511918
	O282	O	0.347876	0.679550	0.373032
	H283	H	0.349404	0.685124	0.388223
	H284	H	0.365696	0.684875	0.365831
	O285	O	1.662476	1.718247	0.532508
	H286	H	1.653462	1.734466	0.532513
	H287	H	1.665063	1.711228	0.518116
	O288	O	0.677812	0.324659	0.757535
	H289	H	0.677649	0.320692	0.778327
	H290	H	0.702687	0.335203	0.745320
	O291	O	0.689202	0.510667	0.300505
	H292	H	0.683540	0.467497	0.305129
	H293	H	0.712396	0.499605	0.275774
	O294	O	0.779414	1.035078	0.787876
	H295	H	0.767069	1.065754	0.778079
	H296	H	0.785912	1.059027	0.777546
	O297	O	0.466990	0.561045	0.291591
	H298	H	0.450779	0.577443	0.290650
	H299	H	0.489336	0.565296	0.295503
	O300	O	-0.702014	-0.670083	-0.443557
	H301	H	-0.707395	-0.656111	-0.437448
	H302	H	-0.688024	-0.666932	-0.447021
	O303	O	0.858413	0.046267	1.043448
	H304	H	0.846909	0.063833	1.032140
	H305	H	0.849768	0.062819	1.048470
	O306	O	0.179420	-0.182508	0.985999
	H307	H	0.153303	-0.175762	1.007615
	H308	H	0.197685	-0.198811	0.985493
	O309	O	1.037891	0.005403	-0.095716
	H310	H	1.052546	-0.013082	-0.095801
	H311	H	1.034640	-0.001270	-0.097161
	O312	O	0.390226	0.663816	0.608147
	H313	H	0.399533	0.659365	0.617397
	H314	H	0.393677	0.680028	0.610763
	O315	O	0.674551	0.333204	0.309885
	H316	H	0.678989	0.328655	0.360172
	H317	H	0.622658	0.323860	0.299812
	O318	O	0.778818	-0.796577	-0.025565
	H319	H	0.783406	-0.797292	-0.036906
	H320	H	0.770616	-0.777113	-0.018401
	O321	O	0.455759	0.447081	0.580434
	H322	H	0.471892	0.434088	0.579294
	H323	H	0.463557	0.460068	0.584356
	O324	O	1.059583	-0.151398	1.096297
	H325	H	1.056216	-0.145226	1.111690
	H326	H	1.067955	-0.134963	1.088033
	O327	O	-0.113968	1.110065	0.913282
	H328	H	-0.119161	1.117935	0.918708
	H329	H	-0.088687	1.119412	0.905161
	O330	O	-0.111589	0.856239	0.817492
	H331	H	-0.111549	0.858518	0.801902
	H332	H	-0.113132	0.872452	0.837736
	O333	O	0.545910	0.451938	-0.368140
	H334	H	0.540935	0.445583	-0.383928
	H335	H	0.552683	0.459107	-0.366202
	O336	O	0.868301	0.986426	-0.128053
	H337	H	0.873246	0.983972	-0.126095
	H338	H	0.864523	0.998679	-0.122910
	O339	O	0.180081	0.966183	1.038029
	H340	H	0.181815	0.961435	1.048158
	H341	H	0.174301	0.970013	1.051621
	O342	O	0.514271	0.310331	0.284650
	H343	H	0.487817	0.333799	0.288626
	H344	H	0.508138	0.282379	0.254277
	O345	O	0.126846	0.209091	1.131653
	H346	H	0.126906	0.199183	1.100079
	H347	H	0.117588	0.227137	1.132609
	O348	O	0.653409	0.450665	0.537002
	H349	H	0.652529	0.469961	0.538118
	H350	H	0.661655	0.451717	0.551729
	O351	O	0.497993	0.668693	0.388473
	H352	H	0.502462	0.662656	0.409686
	H353	H	0.502945	0.677494	0.378984
	O354	O	0.288188	0.502758	1.581720
	H355	H	0.275233	0.511074	1.577397
	H356	H	0.296609	0.514601	1.566698
	O357	O	-0.208920	-0.029031	0.061847
	H358	H	-0.204001	-0.008141	0.040188
	H359	H	-0.213393	-0.028549	0.074609
	O360	O	1.018014	0.213906	1.065826
	H361	H	1.015642	0.220289	1.046573
	H362	H	1.019105	0.210174	1.060394
	O363	O	1.204502	-0.000989	-0.222213
	H364	H	1.236934	-0.010469	-0.254964
	H365	H	1.185470	-0.040187	-0.210905
	O366	O	-0.040262	0.068254	1.076832
	H367	H	-0.039275	0.049718	1.079967
	H368	H	-0.033785	0.055829	1.064319
	O369	O	0.865532	0.107386	1.139754
	H370	H	0.878524	0.093400	1.125942
	H371	H	0.853824	0.115001	1.159613
	O372	O	0.697729	0.363329	0.523015
	H373	H	0.722045	0.355826	0.522325
	H374	H	0.699345	0.389964	0.540827
	O375	O	0.144895	0.048741	0.920636
	H376	H	0.141368	0.029876	0.936731
	H377	H	0.152268	0.031852	0.897248
	O378	O	0.606600	0.562397	0.477838
	H379	H	0.613787	0.564363	0.475607
	H380	H	0.605925	0.561616	0.488633
	O381	O	0.011703	1.079255	0.205405
	H382	H	0.010697	1.077703	0.211923
	H383	H	0.007687	1.095863	0.212607
	O384	O	0.588596	0.683784	0.701466
	H385	H	0.584250	0.685313	0.710822
	H386	H	0.585999	0.693416	0.702677
	O387	O	1.135997	0.182846	0.957457
	H388	H	1.140101	0.183846	0.945951
	H389	H	1.142894	0.169078	0.963107
	O390	O	1.014106	0.819000	-0.137690
	H391	H	1.000187	0.810504	-0.149490
	H392	H	0.997833	0.810543	-0.122123
	O393	O	1.174553	0.130277	1.185805
	H394	H	1.177596	0.146188	1.166494
	H395	H	1.156881	0.147119	1.183167
	O396	O	0.502629	0.429965	0.456970
	H397	H	0.489422	0.434097	0.447420
	H398	H	0.522084	0.431725	0.458884
	O399	O	0.656849	0.570795	0.686210
	H400	H	0.636620	0.592865	0.684635
	H401	H	0.675035	0.579101	0.705290
	O402	O	0.791191	0.846507	0.096849
	H403	H	0.781765	0.854463	0.069455
	H404	H	0.773273	0.836800	0.099447
	O405	O	-0.137267	-0.179072	0.020921
	H406	H	-0.123569	-0.170748	0.029844
	H407	H	-0.142399	-0.183584	0.017143
	O408	O	0.281910	0.568238	0.297363
	H409	H	0.264674	0.571855	0.294733
	H410	H	0.279751	0.593633	0.289253
	O411	O	1.176173	0.840128	0.821234
	H412	H	1.178168	0.827602	0.862532
	H413	H	1.140972	0.833366	0.818629
	O414	O	0.328089	0.514082	0.642756
	H415	H	0.333093	0.535572	0.638865
	H416	H	0.324113	0.497697	0.616468
	O417	O	-0.097379	0.891646	1.193119
	H418	H	-0.113396	0.904551	1.212904
	H419	H	-0.096323	0.874197	1.199705
	O420	O	0.426612	1.410552	1.365884
	H421	H	0.420544	1.409341	1.377243
	H422	H	0.420551	1.403682	1.374785
	O423	O	0.115870	0.956103	0.206116
	H424	H	0.118549	0.991216	0.197752
	H425	H	0.137348	0.954528	0.236527
	O426	O	1.024624	0.130108	-0.133098
	H427	H	1.023677	0.112630	-0.144865
	H428	H	1.033027	0.124696	-0.126793
	O429	O	0.521884	0.361284	0.511552
	H430	H	0.530146	0.359304	0.495423
	H431	H	0.528815	0.350972	0.527062
	O432	O	0.445557	0.310456	0.608907
	H433	H	0.439015	0.301283	0.613494
	H434	H	0.433044	0.300131	0.599126
	O435	O	-0.037249	0.217887	-0.201514
	H436	H	-0.015249	0.214910	-0.205834
	H437	H	-0.022456	0.225450	-0.208907
	O438	O	-0.650334	1.665225	0.470108
	H439	H	-0.629418	1.657451	0.484793
	H440	H	-0.669705	1.651776	0.460514
	O441	O	0.463184	0.476880	0.572688
	H442	H	0.474250	0.458794	0.563220
	H443	H	0.450176	0.479522	0.566998
