data_Molecule from HDF5

_cell_length_a		16.294873
_cell_length_b		16.291183
_cell_length_c		16.275673
_cell_angle_alpha	89.698796
_cell_angle_beta	90.310311
_cell_angle_gamma	90.565223
_symmetry_space_group_name_H-M	'P 1'
_symmetry_Int_Tables_number		1

loop_
	_symmetry_equiv_pos_as_xyz
	x,y,z

loop_
	_atom_site_label
	_atom_site_type_symbol
	_atom_site_fract_x
	_atom_site_fract_y
	_atom_site_fract_z
	H0	H	0.396039	0.835025	0.705895
	H1	H	0.598791	0.162079	0.704912
	H2	H	0.591272	0.834395	0.276548
	H3	H	0.396679	0.161367	0.271971
	H4	H	0.710790	0.402505	0.826118
	H5	H	0.716120	0.599423	0.153454
	H6	H	0.284406	0.598586	0.826437
	H7	H	0.282817	0.398656	0.152991
	H8	H	0.833196	0.712096	0.388140
	H9	H	0.158887	0.716231	0.590352
	H10	H	0.834765	0.279077	0.591849
	H11	H	0.159612	0.282374	0.390405
	H12	H	0.834621	0.396197	0.706120
	H13	H	0.159948	0.600499	0.706183
	H14	H	0.834101	0.595958	0.271976
	H15	H	0.160009	0.399187	0.274972
	H16	H	0.400273	0.713563	0.826435
	H17	H	0.599580	0.714184	0.153842
	H18	H	0.597023	0.285021	0.826829
	H19	H	0.398736	0.282492	0.153343
	H20	H	0.708865	0.834559	0.392041
	H21	H	0.715486	0.160342	0.590333
	H22	H	0.280010	0.835272	0.589745
	H23	H	0.280868	0.161564	0.387848
	H24	H	0.894464	0.336259	0.207084
	H25	H	0.099962	0.661421	0.206196
	H26	H	0.096067	0.335963	0.775468
	H27	H	0.899474	0.662447	0.773503
	H28	H	0.209513	0.900653	0.327046
	H29	H	0.214321	0.098154	0.653737
	H30	H	0.780809	0.097762	0.327792
	H31	H	0.780156	0.895010	0.653991
	H32	H	0.333918	0.215147	0.887881
	H33	H	0.660254	0.215928	0.090343
	H34	H	0.335018	0.781609	0.087785
	H35	H	0.662442	0.787448	0.893357
	H36	H	0.333112	0.898221	0.202638
	H37	H	0.660063	0.099100	0.205891
	H38	H	0.333209	0.097122	0.772845
	H39	H	0.660716	0.902827	0.776782
	H40	H	0.895916	0.215084	0.328424
	H41	H	0.098843	0.214060	0.653852
	H42	H	0.093486	0.785033	0.326955
	H43	H	0.897636	0.781178	0.653678
	H44	H	0.212901	0.336620	0.889975
	H45	H	0.215360	0.662457	0.088754
	H46	H	0.778656	0.337029	0.091425
	H47	H	0.785636	0.663290	0.890526
	H48	H	0.415488	0.113236	0.587183
	H49	H	0.591083	0.880904	0.585270
	H50	H	0.580171	0.110346	0.398936
	H51	H	0.403819	0.880814	0.388974
	H52	H	0.588494	0.410629	0.104470
	H53	H	0.595584	0.602541	0.870293
	H54	H	0.402836	0.593394	0.108619
	H55	H	0.413791	0.396598	0.873606
	H56	H	0.113435	0.591704	0.396330
	H57	H	0.879616	0.584402	0.588998
	H58	H	0.109740	0.409615	0.576162
	H59	H	0.882848	0.406231	0.402261
	H60	H	0.113685	0.412415	0.588913
	H61	H	0.877868	0.595915	0.581300
	H62	H	0.113030	0.594914	0.399892
	H63	H	0.881205	0.408918	0.394513
	H64	H	0.406466	0.585584	0.105611
	H65	H	0.597156	0.586797	0.873894
	H66	H	0.587513	0.405450	0.105996
	H67	H	0.390991	0.405489	0.869090
	H68	H	0.596537	0.113760	0.406771
	H69	H	0.585113	0.882180	0.586859
	H70	H	0.405579	0.110750	0.570448
	H71	H	0.406693	0.885519	0.402300
	H72	H	0.908726	0.614145	0.080786
	H73	H	0.091630	0.382720	0.083162
	H74	H	0.094401	0.615861	0.896846
	H75	H	0.906259	0.383443	0.898913
	H76	H	0.080064	0.920479	0.599644
	H77	H	0.090509	0.086172	0.376072
	H78	H	0.896397	0.084120	0.608526
	H79	H	0.890324	0.910449	0.372256
	H80	H	0.612401	0.095976	0.901273
	H81	H	0.380257	0.093203	0.080306
	H82	H	0.614742	0.904856	0.085959
	H83	H	0.378322	0.906995	0.889011
	H84	H	0.613331	0.908369	0.083802
	H85	H	0.381580	0.089787	0.079951
	H86	H	0.610958	0.089761	0.898395
	H87	H	0.380112	0.896034	0.900279
	H88	H	0.913723	0.082207	0.602672
	H89	H	0.083294	0.093020	0.376354
	H90	H	0.080275	0.889694	0.609382
	H91	H	0.911346	0.912042	0.378903
	H92	H	0.089412	0.615425	0.894713
	H93	H	0.087566	0.383413	0.085010
	H94	H	0.907130	0.615027	0.080746
	H95	H	0.900883	0.383686	0.900609
	H96	H	0.396399	0.118500	0.585598
	H97	H	0.587050	0.883820	0.580175
	H98	H	0.592983	0.118198	0.389101
	H99	H	0.393379	0.880519	0.398541
	H100	H	0.592727	0.407226	0.106656
	H101	H	0.582857	0.594436	0.876975
	H102	H	0.412039	0.592730	0.106176
	H103	H	0.408549	0.420479	0.878384
	H104	H	0.111448	0.590414	0.400422
	H105	H	0.883540	0.584399	0.575356
	H106	H	0.116026	0.399859	0.584098
	H107	H	0.879419	0.400908	0.396790
	H108	H	0.907650	0.615084	0.082411
	H109	H	0.088423	0.383201	0.080494
	H110	H	0.090184	0.614499	0.899618
	H111	H	0.902970	0.382597	0.895414
	H112	H	0.106649	0.908039	0.611170
	H113	H	0.092027	0.095253	0.371882
	H114	H	0.908180	0.099066	0.609330
	H115	H	0.903480	0.893559	0.371512
	H116	H	0.614341	0.094554	0.894515
	H117	H	0.380710	0.090509	0.083376
	H118	H	0.614688	0.908922	0.087291
	H119	H	0.385149	0.910549	0.902399
	C120	C	0.375622	0.006375	0.610872
	C121	C	0.618243	0.989954	0.612522
	C122	C	0.617119	0.006296	0.369559
	C123	C	0.373290	0.990327	0.367218
	C124	C	0.618704	0.378799	-0.001891
	C125	C	0.621040	0.622380	0.981755
	C126	C	0.378099	0.619722	-0.001476
	C127	C	0.375974	0.377786	0.981498
	C128	C	0.005110	0.620204	0.368497
	C129	C	0.987800	0.619360	0.611739
	C130	C	0.005596	0.376756	0.612218
	C131	C	0.988728	0.376854	0.369061
	C132	C	0.876482	0.507320	0.111251
	C133	C	0.119819	0.490680	0.112010
	C134	C	0.119537	0.507363	0.868257
	C135	C	0.875595	0.491076	0.868478
	C136	C	0.117494	0.877185	0.499183
	C137	C	0.118818	0.120562	0.482274
	C138	C	0.876209	0.118421	0.499079
	C139	C	0.873140	0.875476	0.482341
	C140	C	0.505039	0.121709	0.867551
	C141	C	0.488593	0.121108	0.111525
	C142	C	0.505929	0.877321	0.112648
	C143	C	0.489504	0.877845	0.869387
	C144	C	0.376566	0.883861	0.667295
	C145	C	0.618211	0.113000	0.667269
	C146	C	0.612829	0.883317	0.314215
	C147	C	0.376510	0.112938	0.310894
	C148	C	0.673622	0.381558	0.875106
	C149	C	0.677441	0.619799	0.104698
	C150	C	0.322209	0.618197	0.875442
	C151	C	0.320528	0.378476	0.104376
	C152	C	0.882149	0.674553	0.368427
	C153	C	0.110398	0.677108	0.610187
	C154	C	0.883493	0.318515	0.611043
	C155	C	0.111162	0.321054	0.370890
	C156	C	0.883304	0.376658	0.668108
	C157	C	0.110924	0.619584	0.667852
	C158	C	0.882576	0.616920	0.310685
	C159	C	0.111393	0.378842	0.313159
	C160	C	0.380208	0.675309	0.875257
	C161	C	0.619825	0.676905	0.104857
	C162	C	0.616882	0.323172	0.875402
	C163	C	0.378363	0.321073	0.104548
	C164	C	0.671182	0.883279	0.371681
	C165	C	0.676327	0.112151	0.610400
	C166	C	0.318889	0.883818	0.609374
	C167	C	0.318474	0.112711	0.368127
	C168	C	0.875643	0.384856	0.168281
	C169	C	0.119367	0.613057	0.167776
	C170	C	0.116774	0.384867	0.812986
	C171	C	0.879110	0.613746	0.811759
	C172	C	0.171752	0.880218	0.375790
	C173	C	0.175971	0.118672	0.605077
	C174	C	0.819301	0.117549	0.376610
	C175	C	0.818207	0.875695	0.605053
	C176	C	0.382407	0.176628	0.868496
	C177	C	0.611588	0.177145	0.110056
	C178	C	0.383467	0.820247	0.108645
	C179	C	0.613156	0.824740	0.872644
	C180	C	0.382358	0.878487	0.165536
	C181	C	0.611213	0.119715	0.168256
	C182	C	0.382253	0.118022	0.811216
	C183	C	0.612285	0.881834	0.814474
	C184	C	0.876754	0.175846	0.376939
	C185	C	0.118395	0.175905	0.605243
	C186	C	0.114679	0.822157	0.375964
	C187	C	0.876491	0.819078	0.604820
	C188	C	0.174783	0.385151	0.870125
	C189	C	0.176880	0.613434	0.109501
	C190	C	0.817949	0.385364	0.110944
	C191	C	0.822116	0.614186	0.869942
	C192	C	0.398924	0.092159	0.587728
	C193	C	0.594505	0.904390	0.590475
	C194	C	0.596034	0.091933	0.391657
	C195	C	0.394979	0.904529	0.389837
	C196	C	0.596273	0.401120	0.083514
	C197	C	0.598398	0.600945	0.895987
	C198	C	0.400591	0.597083	0.084376
	C199	C	0.398030	0.400790	0.895897
	C200	C	0.090447	0.598733	0.391852
	C201	C	0.902583	0.595313	0.588646
	C202	C	0.091116	0.400425	0.589603
	C203	C	0.903482	0.398845	0.391155
	C204	C	0.900865	0.592664	0.087869
	C205	C	0.095984	0.405245	0.089573
	C206	C	0.097872	0.593210	0.890586
	C207	C	0.897012	0.405329	0.891492
	C208	C	0.095397	0.899497	0.584691
	C209	C	0.095391	0.097933	0.397046
	C210	C	0.899381	0.095247	0.584863
	C211	C	0.895148	0.898743	0.396411
	C212	C	0.590528	0.099815	0.891127
	C213	C	0.402960	0.098052	0.088110
	C214	C	0.591950	0.900682	0.091849
	C215	C	0.403522	0.898463	0.890898
	Zn216	Zn	0.496795	-0.001146	0.740055
	Zn217	Zn	0.496046	-0.000937	0.239739
	Zn218	Zn	0.747869	0.499757	-0.010104
	Zn219	Zn	0.247993	0.499110	-0.009961
	Zn220	Zn	-0.004450	0.748182	0.490263
	Zn221	Zn	-0.002463	0.248240	0.491233
	Zn222	Zn	-0.002768	0.498162	0.740555
	Zn223	Zn	-0.002620	0.498089	0.240188
	Zn224	Zn	0.499003	0.749486	-0.009364
	Zn225	Zn	0.497401	0.250069	-0.010120
	Zn226	Zn	0.746621	-0.002582	0.491096
	Zn227	Zn	0.245879	-0.001057	0.489905
	N228	N	0.411402	0.961190	0.668018
	N229	N	0.582781	0.036089	0.668700
	N230	N	0.580080	0.960827	0.312677
	N231	N	0.409493	0.035680	0.309950
	N232	N	0.674885	0.415526	0.952427
	N233	N	0.678424	0.586490	0.027225
	N234	N	0.320780	0.584310	0.953147
	N235	N	0.318714	0.412736	0.026898
	N236	N	0.959082	0.676753	0.403583
	N237	N	0.033060	0.676917	0.575686
	N238	N	0.960688	0.318389	0.577300
	N239	N	0.033971	0.319459	0.404555
	N240	N	0.960324	0.412287	0.668916
	N241	N	0.033969	0.584139	0.668873
	N242	N	0.959870	0.583695	0.310597
	N243	N	0.034288	0.412737	0.311746
	N244	N	0.414409	0.676357	0.952623
	N245	N	0.585647	0.678915	0.027453
	N246	N	0.583616	0.321342	0.952810
	N247	N	0.411853	0.320190	0.027117
	N248	N	0.673700	0.960468	0.405492
	N249	N	0.676511	0.034761	0.577183
	N250	N	0.318369	0.961098	0.574850
	N251	N	0.316606	0.035362	0.402611
	N252	N	0.911501	0.461522	0.168344
	N253	N	0.084724	0.535705	0.169567
	N254	N	0.083274	0.462031	0.811771
	N255	N	0.911675	0.536017	0.810770
	N256	N	0.173700	0.913575	0.453226
	N257	N	0.176373	0.085084	0.527702
	N258	N	0.818968	0.082399	0.453742
	N259	N	0.816027	0.909994	0.527549
	N260	N	0.459946	0.179238	0.902709
	N261	N	0.534268	0.178205	0.075552
	N262	N	0.461379	0.819524	0.076429
	N263	N	0.535689	0.821951	0.905851
	N264	N	0.459576	0.913315	0.168044
	N265	N	0.533651	0.085558	0.169119
	N266	N	0.459568	0.084885	0.810443
	N267	N	0.534506	0.914228	0.812286
	N268	N	0.911246	0.176411	0.454158
	N269	N	0.084058	0.177628	0.527836
	N270	N	0.081621	0.820152	0.453599
	N271	N	0.909871	0.818950	0.527394
	N272	N	0.176676	0.462548	0.903628
	N273	N	0.177241	0.536237	0.075460
	N274	N	0.818321	0.462522	0.076154
	N275	N	0.819883	0.536970	0.904470
	O276	O	0.000013	-0.034624	0.101621
	H277	H	-0.017982	-0.047017	0.109597
	H278	H	-0.002725	-0.031009	0.098735
	O279	O	0.506863	0.609116	0.492679
	H280	H	0.514184	0.617935	0.489474
	H281	H	0.504763	0.599404	0.484159
	O282	O	0.513364	0.548635	0.512828
	H283	H	0.521382	0.549947	0.511966
	H284	H	0.520353	0.548782	0.514443
	O285	O	0.021966	1.022777	1.088479
	H286	H	0.018893	1.020777	1.091433
	H287	H	0.010705	1.012001	1.084141
	O288	O	0.495952	0.487989	0.488516
	H289	H	0.493662	0.493626	0.488357
	H290	H	0.493810	0.483591	0.483850
	O291	O	0.826189	0.788174	1.213648
	H292	H	0.828621	0.781993	1.214526
	H293	H	0.827021	0.791310	1.213495
	O294	O	0.953975	1.089101	1.001630
	H295	H	0.970263	1.085298	1.008163
	H296	H	0.946406	1.095423	0.993995
	O297	O	1.008451	-0.073169	1.002330
	H298	H	1.009656	-0.064251	1.004608
	H299	H	1.007109	-0.077252	1.003738
	O300	O	0.453585	0.501719	0.540681
	H301	H	0.454363	0.510312	0.534769
	H302	H	0.470642	0.511267	0.539300
	O303	O	1.025193	0.103535	0.068420
	H304	H	1.022214	0.105726	0.074628
	H305	H	1.032711	0.126151	0.069419
	O306	O	-0.060552	1.023468	0.969657
	H307	H	-0.057557	1.021126	0.966097
	H308	H	-0.061443	1.019064	0.974295
	O309	O	0.523933	0.599037	0.468191
	H310	H	0.534689	0.599391	0.477788
	H311	H	0.518155	0.590055	0.465011
	O312	O	1.424868	0.391535	1.469252
	H313	H	1.426112	0.386175	1.481166
	H314	H	1.418937	0.395775	1.480100
	O315	O	0.424526	0.507498	0.516613
	H316	H	0.412666	0.519580	0.506016
	H317	H	0.434148	0.510960	0.519387
	O318	O	0.460371	0.417282	0.470565
	H319	H	0.460381	0.424143	0.477884
	H320	H	0.449990	0.415379	0.463700
	O321	O	1.073825	1.065365	1.011660
	H322	H	1.081100	1.069520	1.018049
	H323	H	1.070421	1.059945	1.018162
	O324	O	0.531866	0.399557	0.581334
	H325	H	0.535364	0.396972	0.584027
	H326	H	0.526771	0.408665	0.574520
	O327	O	0.647765	0.518282	0.555586
	H328	H	0.664017	0.528106	0.561097
	H329	H	0.646726	0.507685	0.560572
	O330	O	0.943393	-0.005588	1.040552
	H331	H	0.941121	-0.010132	1.044082
	H332	H	0.943396	-0.003609	1.039377
	O333	O	0.903054	0.976295	0.016861
	H334	H	0.889359	0.973919	0.015439
	H335	H	0.905550	0.972361	0.024344
	O336	O	0.575713	0.427231	0.410302
	H337	H	0.582502	0.449777	0.403666
	H338	H	0.567646	0.425307	0.417300
	O339	O	0.387728	0.571348	0.346893
	H340	H	0.387985	0.558500	0.344858
	H341	H	0.385093	0.558421	0.352469
	O342	O	0.028027	1.008913	0.025140
	H343	H	0.018760	1.028539	0.017838
	H344	H	0.040170	0.999319	0.037263
	O345	O	0.003788	0.015912	0.008914
	H346	H	0.003029	0.025711	0.005555
	H347	H	0.004452	0.016499	0.009907
	O348	O	0.517946	0.474723	0.446136
	H349	H	0.500352	0.470562	0.434721
	H350	H	0.530201	0.478767	0.443015
	O351	O	0.355209	0.451429	0.491389
	H352	H	0.349097	0.456903	0.494434
	H353	H	0.355745	0.465162	0.497504
	O354	O	0.428766	0.551647	0.533532
	H355	H	0.419035	0.553829	0.532111
	H356	H	0.418510	0.553072	0.525695
	O357	O	0.434037	0.421480	0.576576
	H358	H	0.423310	0.426978	0.585120
	H359	H	0.418748	0.409087	0.579220
	O360	O	0.005778	0.102384	-0.028439
	H361	H	0.018906	0.100868	-0.026035
	H362	H	0.005313	0.101764	-0.029598
	O363	O	0.540256	0.509172	0.415869
	H364	H	0.539227	0.502069	0.410104
	H365	H	0.539676	0.505083	0.413865
	O366	O	-0.103231	0.011751	0.958616
	H367	H	-0.105955	0.021473	0.959848
	H368	H	-0.111829	0.014733	0.952649
	O369	O	0.556093	0.535848	0.560956
	H370	H	0.556844	0.524860	0.568163
	H371	H	0.546941	0.526394	0.558342
