data_Molecule from HDF5

_cell_length_a		16.302423
_cell_length_b		16.270888
_cell_length_c		16.361409
_cell_angle_alpha	89.899356
_cell_angle_beta	89.851144
_cell_angle_gamma	90.000276
_symmetry_space_group_name_H-M	'P 1'
_symmetry_Int_Tables_number		1

loop_
	_symmetry_equiv_pos_as_xyz
	x,y,z

loop_
	_atom_site_label
	_atom_site_type_symbol
	_atom_site_fract_x
	_atom_site_fract_y
	_atom_site_fract_z
	H0	H	0.401312	0.837200	0.709492
	H1	H	0.598841	0.165016	0.708801
	H2	H	0.599971	0.838032	0.278667
	H3	H	0.400224	0.164065	0.278945
	H4	H	0.715239	0.403731	0.830342
	H5	H	0.715081	0.600375	0.156301
	H6	H	0.284906	0.601340	0.831065
	H7	H	0.284657	0.402623	0.156474
	H8	H	0.835973	0.715713	0.395373
	H9	H	0.162862	0.716200	0.590626
	H10	H	0.835811	0.288440	0.591074
	H11	H	0.163005	0.286306	0.393981
	H12	H	0.836985	0.402009	0.709636
	H13	H	0.162205	0.602535	0.708958
	H14	H	0.837094	0.601415	0.277611
	H15	H	0.162811	0.401969	0.277125
	H16	H	0.401988	0.716413	0.830698
	H17	H	0.597157	0.715004	0.157387
	H18	H	0.598399	0.287142	0.830077
	H19	H	0.401601	0.287104	0.156426
	H20	H	0.713185	0.837252	0.396613
	H21	H	0.714123	0.165159	0.591620
	H22	H	0.285529	0.837089	0.594094
	H23	H	0.286437	0.164494	0.396367
	H24	H	0.900459	0.338684	0.208094
	H25	H	0.098995	0.665336	0.206622
	H26	H	0.099583	0.338032	0.778510
	H27	H	0.899267	0.664417	0.777268
	H28	H	0.217454	0.901781	0.331147
	H29	H	0.214987	0.100817	0.656717
	H30	H	0.784649	0.099505	0.330709
	H31	H	0.784829	0.902311	0.656583
	H32	H	0.335921	0.214581	0.897254
	H33	H	0.663859	0.215357	0.091823
	H34	H	0.336392	0.787735	0.093357
	H35	H	0.663562	0.788553	0.897394
	H36	H	0.337213	0.902723	0.210638
	H37	H	0.663419	0.100886	0.209029
	H38	H	0.336743	0.101033	0.778905
	H39	H	0.662753	0.902328	0.779093
	H40	H	0.900751	0.216594	0.329897
	H41	H	0.096987	0.215786	0.656758
	H42	H	0.098645	0.787124	0.329795
	H43	H	0.900846	0.785997	0.656249
	H44	H	0.214423	0.337316	0.895743
	H45	H	0.214553	0.665280	0.091011
	H46	H	0.786599	0.337301	0.090846
	H47	H	0.784503	0.664387	0.893822
	H48	H	0.406239	0.118421	0.591783
	H49	H	0.589858	0.886432	0.586425
	H50	H	0.591039	0.117514	0.400640
	H51	H	0.414154	0.886628	0.400491
	H52	H	0.595326	0.413204	0.108113
	H53	H	0.588944	0.588277	0.880729
	H54	H	0.400058	0.593048	0.110543
	H55	H	0.413995	0.411901	0.880592
	H56	H	0.113900	0.594781	0.406544
	H57	H	0.881399	0.593661	0.590758
	H58	H	0.114199	0.416243	0.588266
	H59	H	0.884817	0.412582	0.402017
	H60	H	0.118558	0.403318	0.590746
	H61	H	0.883163	0.597282	0.583590
	H62	H	0.114735	0.587591	0.395767
	H63	H	0.882088	0.408885	0.396681
	H64	H	0.409921	0.590761	0.107157
	H65	H	0.589658	0.602992	0.877755
	H66	H	0.588529	0.407143	0.108157
	H67	H	0.407678	0.401446	0.875741
	H68	H	0.591480	0.117380	0.402707
	H69	H	0.596414	0.884126	0.587156
	H70	H	0.410745	0.116203	0.586912
	H71	H	0.407876	0.885426	0.407543
	H72	H	0.910171	0.617895	0.087279
	H73	H	0.093025	0.386244	0.082648
	H74	H	0.090707	0.614841	0.906252
	H75	H	0.914504	0.384835	0.891956
	H76	H	0.093675	0.911995	0.607583
	H77	H	0.100314	0.094829	0.376548
	H78	H	0.909169	0.099748	0.609682
	H79	H	0.909719	0.916814	0.381550
	H80	H	0.612371	0.093783	0.912144
	H81	H	0.384558	0.091661	0.090080
	H82	H	0.616572	0.906838	0.085971
	H83	H	0.381776	0.910371	0.895021
	H84	H	0.615440	0.910624	0.086717
	H85	H	0.382993	0.096642	0.088547
	H86	H	0.615385	0.084625	0.894022
	H87	H	0.382002	0.902275	0.903669
	H88	H	0.900981	0.094819	0.610080
	H89	H	0.091481	0.088535	0.379874
	H90	H	0.088379	0.906823	0.608116
	H91	H	0.911500	0.900496	0.376896
	H92	H	0.099807	0.619962	0.899573
	H93	H	0.095615	0.383304	0.088338
	H94	H	0.906740	0.617673	0.082988
	H95	H	0.912926	0.389486	0.910731
	H96	H	0.404106	0.117145	0.585614
	H97	H	0.591980	0.883559	0.592290
	H98	H	0.592674	0.117251	0.400615
	H99	H	0.405346	0.882768	0.399255
	H100	H	0.596671	0.404924	0.110760
	H101	H	0.601558	0.594179	0.875798
	H102	H	0.407749	0.599927	0.110646
	H103	H	0.401271	0.412707	0.877808
	H104	H	0.118918	0.600166	0.395784
	H105	H	0.885237	0.589464	0.584994
	H106	H	0.114088	0.406478	0.578595
	H107	H	0.883982	0.406158	0.402527
	H108	H	0.905029	0.619378	0.086956
	H109	H	0.088770	0.385742	0.087456
	H110	H	0.088398	0.618345	0.894229
	H111	H	0.897796	0.381871	0.901171
	H112	H	0.094768	0.905661	0.610239
	H113	H	0.090067	0.099773	0.377966
	H114	H	0.909158	0.090200	0.606551
	H115	H	0.896924	0.908636	0.374948
	H116	H	0.620258	0.104421	0.896102
	H117	H	0.385306	0.092821	0.084666
	H118	H	0.617050	0.908668	0.089938
	H119	H	0.385684	0.913545	0.905786
	C120	C	0.378459	0.008963	0.616299
	C121	C	0.621382	0.993061	0.616123
	C122	C	0.620841	0.009412	0.372642
	C123	C	0.379805	0.992655	0.373436
	C124	C	0.622141	0.379532	0.001445
	C125	C	0.621444	0.623446	0.985710
	C126	C	0.377707	0.623249	0.002031
	C127	C	0.378454	0.379887	0.985377
	C128	C	0.008266	0.623072	0.371071
	C129	C	0.991266	0.622582	0.614663
	C130	C	0.008024	0.379592	0.615244
	C131	C	0.991583	0.380381	0.371537
	C132	C	0.878184	0.510314	0.114584
	C133	C	0.121335	0.493198	0.114412
	C134	C	0.121770	0.509590	0.871497
	C135	C	0.879150	0.493291	0.872421
	C136	C	0.121654	0.879339	0.501297
	C137	C	0.121822	0.122991	0.485647
	C138	C	0.877869	0.123417	0.501248
	C139	C	0.877861	0.879473	0.485415
	C140	C	0.508175	0.122830	0.872528
	C141	C	0.492028	0.122815	0.116198
	C142	C	0.508190	0.879996	0.116309
	C143	C	0.491236	0.880369	0.873093
	C144	C	0.380704	0.886048	0.671755
	C145	C	0.618790	0.116306	0.670615
	C146	C	0.619647	0.886677	0.316884
	C147	C	0.380424	0.115282	0.317061
	C148	C	0.677589	0.382212	0.878868
	C149	C	0.676831	0.620608	0.107894
	C150	C	0.323117	0.621092	0.879357
	C151	C	0.322656	0.382379	0.107875
	C152	C	0.884992	0.678271	0.374144
	C153	C	0.114006	0.678561	0.611611
	C154	C	0.884989	0.325315	0.612378
	C155	C	0.114387	0.325148	0.374030
	C156	C	0.885612	0.381710	0.671209
	C157	C	0.113664	0.621993	0.670431
	C158	C	0.885550	0.621939	0.315303
	C159	C	0.114128	0.382257	0.315674
	C160	C	0.381067	0.678546	0.879341
	C161	C	0.618257	0.677726	0.108363
	C162	C	0.619215	0.324693	0.878895
	C163	C	0.380704	0.324871	0.108087
	C164	C	0.675675	0.886256	0.375716
	C165	C	0.676221	0.116238	0.612565
	C166	C	0.323055	0.886118	0.614454
	C167	C	0.323706	0.115497	0.375424
	C168	C	0.880418	0.387159	0.169864
	C169	C	0.119474	0.616374	0.169201
	C170	C	0.120002	0.386809	0.816206
	C171	C	0.879849	0.615803	0.815984
	C172	C	0.178493	0.881465	0.379482
	C173	C	0.176656	0.120834	0.608082
	C174	C	0.822865	0.120386	0.379028
	C175	C	0.822526	0.881877	0.607905
	C176	C	0.384892	0.177452	0.875993
	C177	C	0.614856	0.178103	0.112862
	C178	C	0.385317	0.825379	0.114039
	C179	C	0.614499	0.825820	0.876406
	C180	C	0.385768	0.882609	0.172086
	C181	C	0.614767	0.120999	0.171070
	C182	C	0.385148	0.120642	0.817651
	C183	C	0.614205	0.882428	0.817839
	C184	C	0.880726	0.178275	0.378672
	C185	C	0.118103	0.178107	0.608140
	C186	C	0.119727	0.824384	0.378884
	C187	C	0.880114	0.823970	0.607753
	C188	C	0.177169	0.386443	0.874436
	C189	C	0.176512	0.616430	0.111391
	C190	C	0.823338	0.386742	0.111985
	C191	C	0.822916	0.615896	0.874131
	C192	C	0.400541	0.095038	0.594396
	C193	C	0.599381	0.906964	0.594931
	C194	C	0.598100	0.095291	0.394871
	C195	C	0.402466	0.907081	0.395853
	C196	C	0.599978	0.401792	0.086875
	C197	C	0.599846	0.601589	0.900135
	C198	C	0.399339	0.601051	0.087443
	C199	C	0.401028	0.402191	0.900013
	C200	C	0.093669	0.600726	0.392900
	C201	C	0.905606	0.599980	0.592963
	C202	C	0.093631	0.402044	0.592613
	C203	C	0.905721	0.402796	0.393844
	C204	C	0.900531	0.596085	0.092159
	C205	C	0.099063	0.407347	0.092679
	C206	C	0.099533	0.595333	0.893559
	C207	C	0.901792	0.407516	0.894774
	C208	C	0.098887	0.901523	0.586663
	C209	C	0.100190	0.100939	0.400263
	C210	C	0.899884	0.101352	0.586715
	C211	C	0.899712	0.902051	0.399839
	C212	C	0.593847	0.100816	0.894350
	C213	C	0.406321	0.100275	0.094325
	C214	C	0.594309	0.902290	0.094092
	C215	C	0.405434	0.902536	0.894819
	Zn216	Zn	0.499793	0.001410	0.744719
	Zn217	Zn	0.500488	0.001525	0.244614
	Zn218	Zn	0.750553	0.501561	-0.006777
	Zn219	Zn	0.249542	0.501412	-0.006466
	Zn220	Zn	-0.000483	0.750959	0.493069
	Zn221	Zn	-0.000225	0.252023	0.492989
	Zn222	Zn	-0.000014	0.501690	0.743419
	Zn223	Zn	-0.000277	0.501978	0.242373
	Zn224	Zn	0.499415	0.751908	-0.005464
	Zn225	Zn	0.500155	0.251033	-0.005883
	Zn226	Zn	0.748922	0.001327	0.493709
	Zn227	Zn	0.250789	0.000627	0.494126
	N228	N	0.414132	0.963696	0.673559
	N229	N	0.585248	0.038661	0.672875
	N230	N	0.586436	0.964371	0.314826
	N231	N	0.414636	0.038091	0.315792
	N232	N	0.679516	0.415688	0.955996
	N233	N	0.678782	0.587346	0.030633
	N234	N	0.321049	0.587365	0.956502
	N235	N	0.321270	0.415935	0.030536
	N236	N	0.962120	0.679054	0.408016
	N237	N	0.036908	0.678787	0.577587
	N238	N	0.962262	0.323761	0.578370
	N239	N	0.037226	0.323940	0.408119
	N240	N	0.963137	0.415018	0.672950
	N241	N	0.036475	0.587896	0.672441
	N242	N	0.962845	0.588163	0.313362
	N243	N	0.036595	0.415999	0.314156
	N244	N	0.414262	0.680166	0.956533
	N245	N	0.584788	0.679664	0.031366
	N246	N	0.585647	0.323059	0.956104
	N247	N	0.414822	0.323223	0.031244
	N248	N	0.676752	0.963633	0.409504
	N249	N	0.677907	0.038619	0.579713
	N250	N	0.321799	0.963476	0.580508
	N251	N	0.323218	0.038389	0.409847
	N252	N	0.913953	0.464629	0.171469
	N253	N	0.085755	0.538771	0.171137
	N254	N	0.086277	0.464330	0.814175
	N255	N	0.914172	0.538564	0.814859
	N256	N	0.179667	0.914894	0.456656
	N257	N	0.179007	0.087045	0.531109
	N258	N	0.820965	0.087078	0.456229
	N259	N	0.821044	0.915778	0.530772
	N260	N	0.462255	0.179016	0.909419
	N261	N	0.537533	0.179287	0.079314
	N262	N	0.462615	0.823610	0.080152
	N263	N	0.537071	0.824391	0.910041
	N264	N	0.463214	0.916063	0.173286
	N265	N	0.537331	0.087591	0.173307
	N266	N	0.462828	0.087463	0.815308
	N267	N	0.536677	0.915983	0.815936
	N268	N	0.914366	0.180247	0.455754
	N269	N	0.084787	0.179638	0.530917
	N270	N	0.084953	0.823123	0.455663
	N271	N	0.913917	0.822475	0.530603
	N272	N	0.178251	0.463670	0.908250
	N273	N	0.177890	0.538768	0.078293
	N274	N	0.821845	0.464406	0.078326
	N275	N	0.822905	0.538899	0.908858
	O276	O	2.058474	-0.010603	1.002562
	H277	H	2.067312	-0.012203	0.997585
	H278	H	2.061866	-0.007574	1.006918
	O279	O	-0.031495	0.047685	0.021878
	H280	H	-0.030773	0.048215	0.021577
	H281	H	-0.034883	0.049335	0.017876
	O282	O	-0.007228	-0.005638	0.922466
	H283	H	-0.005058	-0.004175	0.919423
	H284	H	-0.009354	0.002542	0.919884
	O285	O	0.449517	0.452788	0.448943
	H286	H	0.450370	0.457623	0.451494
	H287	H	0.441543	0.461430	0.455297
	O288	O	0.427142	0.492848	0.480442
	H289	H	0.433306	0.486761	0.477935
	H290	H	0.426730	0.491904	0.487004
	O291	O	0.056884	1.033052	0.945707
	H292	H	0.057104	1.030342	0.944322
	H293	H	0.048698	1.025126	0.949606
	O294	O	-0.083695	-0.011378	-0.046113
	H295	H	-0.090757	-0.012843	-0.058060
	H296	H	-0.079368	-0.008419	-0.044926
	O297	O	0.490580	0.457011	0.414381
	H298	H	0.486240	0.458195	0.410993
	H299	H	0.481605	0.460910	0.408575
	O300	O	-0.000799	1.002156	0.918513
	H301	H	-0.004920	1.007397	0.908950
	H302	H	0.004185	0.994621	0.926409
	O303	O	0.436343	0.528320	0.461419
	H304	H	0.431070	0.515334	0.463665
	H305	H	0.436070	0.530168	0.461446
	O306	O	0.012532	0.029144	1.012777
	H307	H	0.005778	0.033222	1.023263
	H308	H	0.014109	0.036804	1.015065
	O309	O	1.033338	1.038174	0.992732
	H310	H	1.033306	1.039884	0.991167
	H311	H	1.034446	1.040150	0.988383
	O312	O	0.424749	0.408294	0.429504
	H313	H	0.423310	0.416046	0.425976
	H314	H	0.422082	0.403720	0.426294
	O315	O	0.474205	0.408634	0.466794
	H316	H	0.480342	0.407418	0.451376
	H317	H	0.477722	0.397329	0.462615
	O318	O	-0.019561	1.036292	-0.058889
	H319	H	-0.022291	1.031579	-0.065591
	H320	H	-0.023293	1.036341	-0.062522
	O321	O	0.956006	1.017988	-0.010014
	H322	H	0.957709	1.018625	-0.009924
	H323	H	0.954410	1.019096	-0.003875
