data_Molecule from HDF5

_cell_length_a		16.610231
_cell_length_b		16.577396
_cell_length_c		16.485471
_cell_angle_alpha	90.101186
_cell_angle_beta	90.133115
_cell_angle_gamma	89.878353
_symmetry_space_group_name_H-M	'P 1'
_symmetry_Int_Tables_number		1

loop_
	_symmetry_equiv_pos_as_xyz
	x,y,z

loop_
	_atom_site_label
	_atom_site_type_symbol
	_atom_site_fract_x
	_atom_site_fract_y
	_atom_site_fract_z
	H0	H	0.380523	0.868791	0.721390
	H1	H	0.590555	0.181498	0.723886
	H2	H	0.589038	0.868934	0.279294
	H3	H	0.380025	0.182725	0.279625
	H4	H	0.706733	0.416533	0.842904
	H5	H	0.705177	0.627663	0.157593
	H6	H	0.260200	0.631245	0.845225
	H7	H	0.261338	0.416428	0.156914
	H8	H	0.830001	0.747378	0.394748
	H9	H	0.141955	0.742652	0.604769
	H10	H	0.829067	0.299134	0.608429
	H11	H	0.140716	0.299335	0.391860
	H12	H	0.828275	0.417275	0.722153
	H13	H	0.142368	0.623500	0.719775
	H14	H	0.827915	0.628318	0.280999
	H15	H	0.141284	0.417995	0.277952
	H16	H	0.376469	0.746764	0.844814
	H17	H	0.589707	0.744642	0.157239
	H18	H	0.589292	0.302947	0.841480
	H19	H	0.380387	0.304012	0.158018
	H20	H	0.708865	0.870483	0.393062
	H21	H	0.708488	0.180974	0.610294
	H22	H	0.263387	0.868894	0.605988
	H23	H	0.262081	0.182361	0.394210
	H24	H	0.878719	0.368858	0.223998
	H25	H	0.090829	0.679890	0.223446
	H26	H	0.093676	0.367648	0.776317
	H27	H	0.879632	0.679043	0.778491
	H28	H	0.207051	0.917547	0.343566
	H29	H	0.207227	0.131286	0.657085
	H30	H	0.759544	0.133911	0.347139
	H31	H	0.760892	0.917353	0.655906
	H32	H	0.327982	0.247390	0.893669
	H33	H	0.639106	0.247448	0.107104
	H34	H	0.328763	0.802382	0.105605
	H35	H	0.638132	0.798375	0.890081
	H36	H	0.328065	0.919646	0.221103
	H37	H	0.638550	0.131173	0.224397
	H38	H	0.327254	0.129484	0.778890
	H39	H	0.638886	0.916319	0.775717
	H40	H	0.878868	0.245966	0.344581
	H41	H	0.092692	0.247681	0.656532
	H42	H	0.091316	0.801575	0.344233
	H43	H	0.880031	0.803893	0.658293
	H44	H	0.211590	0.369645	0.890918
	H45	H	0.208537	0.678835	0.109250
	H46	H	0.760524	0.369451	0.108667
	H47	H	0.760865	0.678026	0.892671
	H48	H	0.391345	0.137165	0.585519
	H49	H	0.575381	0.915739	0.581698
	H50	H	0.568805	0.136001	0.410579
	H51	H	0.400009	0.916623	0.415471
	H52	H	0.575535	0.433426	0.113611
	H53	H	0.571770	0.613778	0.887025
	H54	H	0.398594	0.614984	0.112916
	H55	H	0.392691	0.435774	0.886647
	H56	H	0.097622	0.613271	0.410677
	H57	H	0.872431	0.614255	0.590629
	H58	H	0.094352	0.437749	0.587632
	H59	H	0.877132	0.434604	0.420629
	H60	H	0.095553	0.434104	0.588697
	H61	H	0.871833	0.616360	0.589626
	H62	H	0.097278	0.614939	0.412958
	H63	H	0.876066	0.442151	0.409267
	H64	H	0.394496	0.611922	0.113808
	H65	H	0.574765	0.611438	0.887466
	H66	H	0.575386	0.438733	0.111263
	H67	H	0.397340	0.442282	0.890577
	H68	H	0.572122	0.134491	0.419134
	H69	H	0.576208	0.912639	0.590582
	H70	H	0.394648	0.139305	0.593735
	H71	H	0.388774	0.912486	0.413535
	H72	H	0.895012	0.635988	0.088756
	H73	H	0.075292	0.412940	0.084484
	H74	H	0.071878	0.632992	0.915138
	H75	H	0.897115	0.412106	0.912204
	H76	H	0.077902	0.943228	0.611307
	H77	H	0.073583	0.110845	0.387844
	H78	H	0.892298	0.109972	0.614555
	H79	H	0.900514	0.944706	0.392826
	H80	H	0.592800	0.107172	0.915030
	H81	H	0.372843	0.110399	0.090338
	H82	H	0.595938	0.936125	0.090604
	H83	H	0.372224	0.936130	0.908861
	H84	H	0.596120	0.933722	0.088166
	H85	H	0.370107	0.118226	0.090156
	H86	H	0.597213	0.113460	0.905465
	H87	H	0.374355	0.933905	0.915047
	H88	H	0.902657	0.107480	0.609924
	H89	H	0.072653	0.111686	0.388800
	H90	H	0.067652	0.932673	0.611669
	H91	H	0.903716	0.930797	0.388875
	H92	H	0.074132	0.635416	0.912267
	H93	H	0.074923	0.412082	0.091406
	H94	H	0.894628	0.635656	0.089544
	H95	H	0.894888	0.411665	0.913127
	H96	H	0.400041	0.134673	0.586895
	H97	H	0.568006	0.916697	0.587343
	H98	H	0.577115	0.138508	0.412480
	H99	H	0.397143	0.912446	0.404353
	H100	H	0.570930	0.435326	0.110858
	H101	H	0.571640	0.610354	0.888726
	H102	H	0.398581	0.609781	0.111896
	H103	H	0.400980	0.434360	0.889978
	H104	H	0.096158	0.612513	0.412507
	H105	H	0.873041	0.614246	0.587939
	H106	H	0.093849	0.434372	0.584592
	H107	H	0.871054	0.429082	0.409352
	H108	H	0.895215	0.636136	0.089075
	H109	H	0.069418	0.413781	0.087514
	H110	H	0.069693	0.633641	0.910860
	H111	H	0.895718	0.410269	0.910823
	H112	H	0.081164	0.929921	0.616915
	H113	H	0.073245	0.112360	0.387950
	H114	H	0.900837	0.118176	0.614582
	H115	H	0.890117	0.935976	0.386711
	H116	H	0.595722	0.118472	0.916454
	H117	H	0.373832	0.115427	0.083588
	H118	H	0.594034	0.936979	0.087612
	H119	H	0.375500	0.939665	0.912652
	C120	C	0.363690	0.033475	0.621091
	C121	C	0.606375	1.017357	0.621440
	C122	C	0.605841	0.033501	0.380123
	C123	C	0.362507	1.017105	0.378450
	C124	C	0.606507	0.402190	0.008105
	C125	C	0.605330	0.644457	0.991374
	C126	C	0.363704	0.644800	0.009282
	C127	C	0.363954	0.404093	0.992360
	C128	C	-0.006245	0.646042	0.379399
	C129	C	0.976384	0.645044	0.621833
	C130	C	-0.007495	0.402056	0.621192
	C131	C	0.977175	0.401994	0.379018
	C132	C	0.862866	0.532666	0.121995
	C133	C	0.106111	0.515378	0.121898
	C134	C	0.106048	0.531328	0.879381
	C135	C	0.863281	0.514116	0.878861
	C136	C	0.107869	0.902610	0.509471
	C137	C	0.106836	0.145663	0.491553
	C138	C	0.864825	0.145199	0.509863
	C139	C	0.864969	0.904198	0.492821
	C140	C	0.492221	0.146012	0.879221
	C141	C	0.475362	0.146865	0.121618
	C142	C	0.492428	0.903621	0.120960
	C143	C	0.475763	0.902464	0.877983
	C144	C	0.362044	0.915620	0.681210
	C145	C	0.608641	0.134638	0.683183
	C146	C	0.608140	0.916233	0.318919
	C147	C	0.361033	0.135518	0.319142
	C148	C	0.666540	0.398846	0.889989
	C149	C	0.665468	0.646611	0.110122
	C150	C	0.301284	0.648726	0.891972
	C151	C	0.302479	0.399699	0.109975
	C152	C	0.876348	0.706650	0.376779
	C153	C	0.095099	0.702746	0.623242
	C154	C	0.875683	0.340386	0.625361
	C155	C	0.093918	0.340263	0.374582
	C156	C	0.875277	0.399169	0.682240
	C157	C	0.095162	0.643804	0.680398
	C158	C	0.875510	0.647500	0.320099
	C159	C	0.094343	0.399418	0.317987
	C160	C	0.359120	0.706161	0.891693
	C161	C	0.608006	0.704762	0.109908
	C162	C	0.607982	0.342094	0.889674
	C163	C	0.361703	0.343660	0.110657
	C164	C	0.667599	0.916977	0.375498
	C165	C	0.667691	0.134188	0.626757
	C166	C	0.303493	0.915935	0.624016
	C167	C	0.302500	0.135187	0.376310
	C168	C	0.860481	0.415627	0.183447
	C169	C	0.109143	0.632729	0.183486
	C170	C	0.111014	0.414713	0.816962
	C171	C	0.860823	0.631899	0.818291
	C172	C	0.167367	0.899438	0.391039
	C173	C	0.167408	0.148999	0.609766
	C174	C	0.801658	0.150472	0.393236
	C175	C	0.802527	0.899922	0.609598
	C176	C	0.374800	0.206910	0.875817
	C177	C	0.592557	0.207028	0.125121
	C178	C	0.375294	0.843014	0.123585
	C179	C	0.591904	0.839855	0.873129
	C180	C	0.374900	0.901509	0.180907
	C181	C	0.592085	0.149653	0.183582
	C182	C	0.374459	0.148136	0.818792
	C183	C	0.592126	0.898388	0.815849
	C184	C	0.860985	0.206207	0.392048
	C185	C	0.110424	0.207089	0.609315
	C186	C	0.110090	0.841442	0.391482
	C187	C	0.861565	0.843390	0.610695
	C188	C	0.169578	0.415599	0.874259
	C189	C	0.167655	0.632287	0.126518
	C190	C	0.801840	0.415702	0.126023
	C191	C	0.801975	0.631571	0.875052
	C192	C	0.388290	0.115555	0.595907
	C193	C	0.580606	0.936166	0.594317
	C194	C	0.580090	0.115154	0.406483
	C195	C	0.387776	0.935277	0.403810
	C196	C	0.581404	0.428411	0.090411
	C197	C	0.579993	0.619044	0.909201
	C198	C	0.389911	0.619407	0.091461
	C199	C	0.389635	0.430090	0.910483
	C200	C	0.075807	0.620715	0.404665
	C201	C	0.894017	0.621721	0.596806
	C202	C	0.073490	0.427870	0.594536
	C203	C	0.896034	0.427853	0.405499
	C204	C	0.887921	0.614491	0.096142
	C205	C	0.080557	0.434125	0.095402
	C206	C	0.079425	0.612824	0.905595
	C207	C	0.888620	0.432558	0.904905
	C208	C	0.082916	0.928250	0.591803
	C209	C	0.080718	0.119245	0.409576
	C210	C	0.891005	0.119230	0.591721
	C211	C	0.890861	0.929977	0.410816
	C212	C	0.573804	0.120472	0.904940
	C213	C	0.393615	0.121704	0.095519
	C214	C	0.574098	0.928586	0.095900
	C215	C	0.395053	0.928910	0.904717
	Zn216	Zn	0.484693	0.025130	0.750027
	Zn217	Zn	0.483809	0.025182	0.250113
	Zn218	Zn	0.734304	0.523375	-0.000289
	Zn219	Zn	0.235113	0.524143	0.001041
	Zn220	Zn	-0.014561	0.775175	0.500929
	Zn221	Zn	-0.014697	0.273136	0.500527
	Zn222	Zn	-0.015248	0.522737	0.750350
	Zn223	Zn	-0.015004	0.524349	0.250709
	Zn224	Zn	0.484573	0.773505	0.000106
	Zn225	Zn	0.483965	0.275153	-0.000481
	Zn226	Zn	0.735880	0.025341	0.501229
	Zn227	Zn	0.234550	0.024985	0.500178
	N228	N	0.398397	0.989891	0.679826
	N229	N	0.571116	0.060898	0.680238
	N230	N	0.570418	0.990000	0.321311
	N231	N	0.397566	0.061182	0.320391
	N232	N	0.666070	0.435247	0.964894
	N233	N	0.664165	0.610040	0.035314
	N234	N	0.304255	0.611134	0.966070
	N235	N	0.303867	0.436650	0.035473
	N236	N	0.950959	0.706078	0.412833
	N237	N	0.020047	0.704067	0.587944
	N238	N	0.949700	0.341874	0.588083
	N239	N	0.019977	0.341421	0.411589
	N240	N	0.948878	0.436687	0.679769
	N241	N	0.020308	0.608926	0.679708
	N242	N	0.949690	0.610747	0.321544
	N243	N	0.020685	0.437124	0.320497
	N244	N	0.397434	0.703842	0.965610
	N245	N	0.571457	0.703804	0.035203
	N246	N	0.571471	0.343945	0.964338
	N247	N	0.399407	0.346317	0.036530
	N248	N	0.666069	0.990978	0.412858
	N249	N	0.666300	0.060294	0.588941
	N250	N	0.304327	0.990168	0.587359
	N251	N	0.302985	0.060327	0.412211
	N252	N	0.897657	0.489427	0.181113
	N253	N	0.071495	0.559063	0.180890
	N254	N	0.071983	0.487724	0.820156
	N255	N	0.898046	0.557939	0.820356
	N256	N	0.166322	0.936567	0.465504
	N257	N	0.165142	0.111426	0.535448
	N258	N	0.803936	0.113233	0.467563
	N259	N	0.804492	0.937126	0.535273
	N260	N	0.449154	0.205919	0.912389
	N261	N	0.518794	0.205634	0.087434
	N262	N	0.449554	0.843908	0.087135
	N263	N	0.518479	0.842079	0.911145
	N264	N	0.448687	0.938480	0.179502
	N265	N	0.518110	0.112940	0.181354
	N266	N	0.448510	0.111017	0.820707
	N267	N	0.518966	0.936607	0.818763
	N268	N	0.899528	0.203038	0.465640
	N269	N	0.073542	0.205289	0.534697
	N270	N	0.073864	0.843078	0.466334
	N271	N	0.899720	0.845946	0.536835
	N272	N	0.166507	0.489175	0.912603
	N273	N	0.165952	0.558469	0.088834
	N274	N	0.803030	0.489562	0.088518
	N275	N	0.803184	0.557328	0.911985
	O276	O	1.039019	0.090880	-1.076072
	H277	H	1.022905	0.083032	-1.075866
	H278	H	1.032861	0.082112	-1.070713
	O279	O	0.043232	-0.010018	1.203570
	H280	H	0.035064	-0.027734	1.203498
	H281	H	0.044255	-0.003073	1.204019
	O282	O	0.210220	0.269227	0.243886
	H283	H	0.201762	0.255924	0.226480
	H284	H	0.202418	0.276648	0.226930
	O285	O	-0.231309	0.006332	1.222221
	H286	H	-0.248613	-0.015031	1.239234
	H287	H	-0.237952	-0.013388	1.209023
	O288	O	0.951523	-0.152678	0.973141
	H289	H	0.943913	-0.158590	0.960019
	H290	H	0.954190	-0.149152	0.952290
	O291	O	0.524486	0.464606	1.575295
	H292	H	0.530663	0.474974	1.573763
	H293	H	0.527197	0.464782	1.576448
	O294	O	0.190855	0.218665	0.023668
	H295	H	0.164157	0.214493	0.003955
	H296	H	0.210266	0.230371	0.012027
	O297	O	0.683770	0.721274	0.689885
	H298	H	0.668099	0.711885	0.686855
	H299	H	0.667775	0.717228	0.657672
	O300	O	-0.031852	0.007558	-0.222913
	H301	H	-0.047496	0.001193	-0.229561
	H302	H	-0.048691	-0.014658	-0.223097
	O303	O	-0.089497	0.073715	-0.215617
	H304	H	-0.105059	0.061306	-0.213071
	H305	H	-0.087929	0.065666	-0.208638
	O306	O	0.952901	0.165697	0.036091
	H307	H	0.962964	0.153184	0.024512
	H308	H	0.970102	0.160427	0.047788
	O309	O	0.471804	0.323704	0.369499
	H310	H	0.459757	0.333915	0.382489
	H311	H	0.484202	0.310592	0.381976
	O312	O	0.449803	0.524147	0.475012
	H313	H	0.434940	0.508569	0.494096
	H314	H	0.454008	0.516270	0.460710
	O315	O	0.303883	0.461737	0.656964
	H316	H	0.298036	0.489431	0.655976
	H317	H	0.299947	0.458508	0.669529
	O318	O	1.184879	0.824980	-0.198616
	H319	H	1.199496	0.834569	-0.218639
	H320	H	1.188841	0.836253	-0.173105
	O321	O	0.570511	0.534629	0.372203
	H322	H	0.570254	0.553373	0.373693
	H323	H	0.580226	0.536235	0.374553
	O324	O	0.756011	0.018086	0.983040
	H325	H	0.756065	0.030048	0.976662
	H326	H	0.756199	0.017312	0.988175
	O327	O	1.447509	1.307428	0.716473
	H328	H	1.435127	1.285762	0.736784
	H329	H	1.430147	1.311203	0.716715
	O330	O	0.320058	0.726846	0.613332
	H331	H	0.326674	0.719493	0.607156
	H332	H	0.334035	0.721826	0.608786
	O333	O	0.280161	0.732531	0.393120
	H334	H	0.257250	0.737474	0.387485
	H335	H	0.278172	0.734869	0.382752
	O336	O	0.697144	0.708708	0.512600
	H337	H	0.682150	0.698494	0.503240
	H338	H	0.716506	0.717499	0.510676
	O339	O	0.796488	0.212421	0.810065
	H340	H	0.825191	0.195361	0.804637
	H341	H	0.783132	0.226804	0.858127
	O342	O	-0.177652	0.828359	-0.167169
	H343	H	-0.188230	0.840225	-0.161025
	H344	H	-0.195958	0.824216	-0.182137
	O345	O	-0.034770	0.237188	-0.209709
	H346	H	-0.050498	0.207297	-0.202192
	H347	H	-0.035293	0.270657	-0.234557
	O348	O	-0.163601	0.149532	0.121707
	H349	H	-0.162155	0.141976	0.123975
	H350	H	-0.173432	0.145727	0.127774
	O351	O	-0.064550	-0.197074	1.056894
	H352	H	-0.051479	-0.193067	1.053006
	H353	H	-0.078001	-0.201026	1.039662
	O354	O	0.910208	0.103626	1.219847
	H355	H	0.891023	0.082224	1.230153
	H356	H	0.908359	0.101537	1.216118
	O357	O	0.345734	0.689470	0.314944
	H358	H	0.328696	0.698639	0.281993
	H359	H	0.336388	0.661789	0.312353
	O360	O	0.274484	0.363176	0.578636
	H361	H	0.259118	0.354535	0.583280
	H362	H	0.278000	0.345480	0.581862
	O363	O	1.154696	0.832448	0.176125
	H364	H	1.143497	0.834452	0.158388
	H365	H	1.128882	0.851028	0.169636
	O366	O	0.765866	0.244889	0.973861
	H367	H	0.769490	0.258169	0.992415
	H368	H	0.761439	0.270050	0.987988
	O369	O	0.207681	0.050629	1.222013
	H370	H	0.210403	0.066302	1.230780
	H371	H	0.222290	0.070407	1.235916
	O372	O	0.016728	0.924974	0.963939
	H373	H	0.014773	0.915680	0.953898
	H374	H	0.004022	0.926314	0.961757
	O375	O	0.851002	0.228364	0.133109
	H376	H	0.852543	0.216842	0.133668
	H377	H	0.861437	0.216133	0.133271
	O378	O	0.441175	0.396821	0.533351
	H379	H	0.443827	0.393526	0.541371
	H380	H	0.450379	0.398558	0.547801
	O381	O	-0.509964	0.471319	-0.644002
	H382	H	-0.504087	0.460499	-0.649333
	H383	H	-0.505926	0.467932	-0.626349
	O384	O	0.968039	0.836627	0.218942
	H385	H	0.959682	0.815675	0.227876
	H386	H	0.967119	0.842284	0.204272
	O387	O	0.437087	0.485526	1.563240
	H388	H	0.427372	0.486481	1.561353
	H389	H	0.453019	0.484286	1.547554
	O390	O	0.504541	0.704672	0.448477
	H391	H	0.493362	0.705159	0.450656
	H392	H	0.502355	0.695711	0.438471
	O393	O	0.894418	0.008914	0.061259
	H394	H	0.896143	0.010374	0.055362
	H395	H	0.905718	-0.007588	0.047185
	O396	O	0.306182	0.530626	0.296611
	H397	H	0.306363	0.511827	0.291945
	H398	H	0.307250	0.522261	0.292093
	O399	O	0.778642	0.817921	0.209676
	H400	H	0.807230	0.817991	0.199368
	H401	H	0.755713	0.798937	0.216838
	O402	O	1.209540	0.073665	0.936005
	H403	H	1.205568	0.071788	0.918789
	H404	H	1.210970	0.063907	0.954897
	O405	O	0.691843	0.487702	0.293803
	H406	H	0.696931	0.461170	0.288379
	H407	H	0.697156	0.478872	0.284067
	O408	O	1.057412	0.959076	1.000301
	H409	H	1.062444	0.960424	1.013140
	H410	H	1.054748	0.941424	0.988502
	O411	O	1.327799	0.553326	0.409986
	H412	H	1.323093	0.566984	0.407908
	H413	H	1.335052	0.553336	0.399971
	O414	O	-0.199211	-0.198902	0.000017
	H415	H	-0.200274	-0.206937	-0.001719
	H416	H	-0.208633	-0.211835	0.001979
	O417	O	0.486229	0.738008	0.310183
	H418	H	0.465845	0.746077	0.297017
	H419	H	0.465133	0.739084	0.302894
	O420	O	1.190865	-0.181762	0.971274
	H421	H	1.193993	-0.182566	0.968852
	H422	H	1.200868	-0.179835	0.965563
	O423	O	1.022072	0.799524	-0.224745
	H424	H	1.066166	0.803988	-0.218224
	H425	H	1.021034	0.768601	-0.255404
	O426	O	0.697280	0.513642	0.497033
	H427	H	0.693364	0.495317	0.493339
	H428	H	0.693936	0.505407	0.480852
	O429	O	0.622651	0.635522	0.397271
	H430	H	0.612340	0.633221	0.405958
	H431	H	0.620577	0.644273	0.405238
	O432	O	0.776463	-0.005825	0.835815
	H433	H	0.753830	-0.002710	0.838750
	H434	H	0.788711	0.022010	0.838983
	O435	O	0.574177	0.528127	0.631200
	H436	H	0.577673	0.525405	0.634829
	H437	H	0.576369	0.522178	0.614062
	O438	O	0.691099	0.320086	0.299638
	H439	H	0.697784	0.311283	0.302837
	H440	H	0.655082	0.316708	0.295698
	O441	O	1.200779	-0.006690	-0.213739
	H442	H	1.211811	-0.001020	-0.234598
	H443	H	1.192717	0.006405	-0.212089
	O444	O	0.305195	0.591311	0.633122
	H445	H	0.304485	0.599418	0.635708
	H446	H	0.308680	0.601432	0.626655
	O447	O	0.512508	0.737707	0.714150
	H448	H	0.513264	0.760527	0.727523
	H449	H	0.508870	0.741462	0.703497
	O450	O	1.599732	-0.659660	0.422890
	H451	H	1.605638	-0.672704	0.406030
	H452	H	1.600479	-0.672406	0.421489
	O453	O	0.474105	0.485710	0.705367
	H454	H	0.474370	0.514216	0.702578
	H455	H	0.483279	0.482135	0.700984
	O456	O	0.042970	1.238351	1.200655
	H457	H	0.052702	1.255809	1.210075
	H458	H	0.030890	1.225124	1.214606
	O459	O	0.680879	0.622399	0.576813
	H460	H	0.684382	0.618201	0.575960
	H461	H	0.686277	0.621503	0.588472
	O462	O	1.669336	0.372572	0.531292
	H463	H	1.669560	0.351615	0.534528
	H464	H	1.668843	0.374779	0.531244
	O465	O	0.177915	0.033101	1.092724
	H466	H	0.179634	0.038533	1.083661
	H467	H	0.173164	0.044055	1.109233
	O468	O	-0.037848	1.063187	-0.010964
	H469	H	-0.033694	1.047561	0.000726
	H470	H	-0.040811	1.050751	-0.003147
	O471	O	0.284812	0.457451	0.497248
	H472	H	0.275304	0.451983	0.500137
	H473	H	0.289921	0.465419	0.501265
	O474	O	1.054824	1.254191	-0.059271
	H475	H	1.035110	1.258274	-0.067714
	H476	H	1.047061	1.250207	-0.060583
	O477	O	0.444664	0.498429	1.608620
	H478	H	0.456074	0.477247	1.621517
	H479	H	0.451798	0.518676	1.600235
