data_Molecule from HDF5

_cell_length_a		16.532561
_cell_length_b		16.696554
_cell_length_c		16.582706
_cell_angle_alpha	90.050278
_cell_angle_beta	90.049388
_cell_angle_gamma	89.968436
_symmetry_space_group_name_H-M	'P 1'
_symmetry_Int_Tables_number		1

loop_
	_symmetry_equiv_pos_as_xyz
	x,y,z

loop_
	_atom_site_label
	_atom_site_type_symbol
	_atom_site_fract_x
	_atom_site_fract_y
	_atom_site_fract_z
	H0	H	0.399651	0.850356	0.704658
	H1	H	0.606199	0.162485	0.710306
	H2	H	0.604358	0.852425	0.267559
	H3	H	0.393628	0.162277	0.264818
	H4	H	0.720094	0.402700	0.830859
	H5	H	0.716748	0.605267	0.147114
	H6	H	0.282771	0.608574	0.830467
	H7	H	0.280895	0.403699	0.145553
	H8	H	0.843826	0.726418	0.383982
	H9	H	0.156855	0.727541	0.592996
	H10	H	0.844349	0.287003	0.591319
	H11	H	0.155775	0.283370	0.379699
	H12	H	0.844137	0.403301	0.707044
	H13	H	0.156653	0.611467	0.708865
	H14	H	0.843238	0.609563	0.268739
	H15	H	0.157834	0.402770	0.267149
	H16	H	0.399625	0.724888	0.830438
	H17	H	0.604374	0.724775	0.145169
	H18	H	0.605369	0.285223	0.831602
	H19	H	0.396028	0.286826	0.144562
	H20	H	0.719175	0.851079	0.385993
	H21	H	0.721934	0.162946	0.592588
	H22	H	0.282576	0.851507	0.588575
	H23	H	0.277632	0.162875	0.381914
	H24	H	0.895084	0.351208	0.210570
	H25	H	0.102505	0.662984	0.206265
	H26	H	0.106377	0.351840	0.765318
	H27	H	0.893176	0.659332	0.764480
	H28	H	0.220304	0.905072	0.330886
	H29	H	0.220220	0.112024	0.644702
	H30	H	0.779956	0.110768	0.330290
	H31	H	0.782754	0.904966	0.644087
	H32	H	0.343350	0.228001	0.882339
	H33	H	0.657558	0.227230	0.092242
	H34	H	0.344578	0.787174	0.091468
	H35	H	0.659538	0.789043	0.884548
	H36	H	0.344470	0.904251	0.207126
	H37	H	0.658701	0.109932	0.207008
	H38	H	0.343519	0.110672	0.767506
	H39	H	0.659471	0.905430	0.770090
	H40	H	0.892482	0.230405	0.332005
	H41	H	0.104897	0.228663	0.643771
	H42	H	0.105327	0.787289	0.331152
	H43	H	0.896128	0.786325	0.642979
	H44	H	0.224924	0.353327	0.880474
	H45	H	0.218739	0.663562	0.089304
	H46	H	0.779906	0.349551	0.092813
	H47	H	0.781674	0.661682	0.886420
	H48	H	0.408130	0.117728	0.570031
	H49	H	0.590522	0.896200	0.578461
	H50	H	0.591857	0.117263	0.405734
	H51	H	0.414508	0.898179	0.399033
	H52	H	0.591078	0.417808	0.099397
	H53	H	0.591449	0.596439	0.875838
	H54	H	0.410670	0.596391	0.099764
	H55	H	0.415204	0.419361	0.878485
	H56	H	0.112602	0.594749	0.399687
	H57	H	0.886315	0.595454	0.582177
	H58	H	0.113462	0.413698	0.573510
	H59	H	0.890481	0.423641	0.397180
	H60	H	0.110976	0.421968	0.571966
	H61	H	0.887604	0.602429	0.572576
	H62	H	0.114908	0.597097	0.393728
	H63	H	0.886315	0.415693	0.396851
	H64	H	0.413236	0.599011	0.100393
	H65	H	0.590636	0.600332	0.874334
	H66	H	0.587626	0.415853	0.098931
	H67	H	0.412902	0.415399	0.875978
	H68	H	0.594076	0.122371	0.393921
	H69	H	0.591717	0.897190	0.578146
	H70	H	0.403997	0.123417	0.584435
	H71	H	0.407809	0.896936	0.400999
	H72	H	0.915382	0.616955	0.083089
	H73	H	0.090871	0.395087	0.076474
	H74	H	0.090085	0.616501	0.903687
	H75	H	0.910767	0.392627	0.893939
	H76	H	0.089419	0.913995	0.600985
	H77	H	0.086908	0.098559	0.375598
	H78	H	0.908557	0.097845	0.600173
	H79	H	0.912231	0.915344	0.374973
	H80	H	0.608906	0.093136	0.905469
	H81	H	0.387278	0.097075	0.078074
	H82	H	0.617684	0.912509	0.086686
	H83	H	0.387918	0.916942	0.894716
	H84	H	0.613346	0.909976	0.070381
	H85	H	0.388454	0.097967	0.075143
	H86	H	0.613493	0.093205	0.893921
	H87	H	0.385907	0.912510	0.896145
	H88	H	0.913049	0.094590	0.597316
	H89	H	0.090852	0.095539	0.375347
	H90	H	0.092798	0.917694	0.601009
	H91	H	0.909598	0.916296	0.373754
	H92	H	0.095325	0.620687	0.894877
	H93	H	0.092213	0.394278	0.077384
	H94	H	0.911172	0.614088	0.071146
	H95	H	0.914584	0.395427	0.898049
	H96	H	0.418632	0.118604	0.581796
	H97	H	0.591075	0.896128	0.578655
	H98	H	0.582737	0.117236	0.396905
	H99	H	0.410316	0.895336	0.394095
	H100	H	0.590358	0.415006	0.101098
	H101	H	0.594988	0.598248	0.873938
	H102	H	0.409832	0.599661	0.102376
	H103	H	0.410300	0.419825	0.876355
	H104	H	0.114495	0.601540	0.398973
	H105	H	0.891402	0.591531	0.571913
	H106	H	0.113947	0.419019	0.579993
	H107	H	0.891377	0.418139	0.404538
	H108	H	0.903435	0.620027	0.079944
	H109	H	0.090519	0.394692	0.078111
	H110	H	0.084656	0.617694	0.894292
	H111	H	0.909094	0.393814	0.900166
	H112	H	0.087963	0.918324	0.598385
	H113	H	0.086861	0.094102	0.377195
	H114	H	0.914335	0.100658	0.599052
	H115	H	0.911082	0.918034	0.375165
	H116	H	0.614966	0.103358	0.901262
	H117	H	0.389216	0.094904	0.076488
	H118	H	0.611565	0.925485	0.077399
	H119	H	0.388845	0.915178	0.899584
	C120	C	0.379696	0.016302	0.609070
	C121	C	0.622830	0.999293	0.609988
	C122	C	0.621573	0.016027	0.367019
	C123	C	0.378378	0.999398	0.365666
	C124	C	0.621567	0.384740	-0.003679
	C125	C	0.622644	0.627624	0.979407
	C126	C	0.380446	0.628588	-0.003352
	C127	C	0.380004	0.386102	0.980010
	C128	C	0.009694	0.628447	0.366388
	C129	C	0.991958	0.628326	0.608295
	C130	C	0.009214	0.386844	0.607126
	C131	C	0.992431	0.385929	0.366518
	C132	C	0.878502	0.513965	0.110064
	C133	C	0.121958	0.498420	0.108540
	C134	C	0.122702	0.515774	0.865319
	C135	C	0.879012	0.496758	0.866072
	C136	C	0.121802	0.886013	0.496150
	C137	C	0.120901	0.128381	0.479401
	C138	C	0.878979	0.129268	0.495591
	C139	C	0.879517	0.885418	0.478077
	C140	C	0.508834	0.128372	0.867244
	C141	C	0.492326	0.127973	0.108637
	C142	C	0.510045	0.885277	0.109263
	C143	C	0.492398	0.885315	0.866607
	C144	C	0.379984	0.897861	0.666046
	C145	C	0.624464	0.116128	0.669776
	C146	C	0.623049	0.898867	0.307617
	C147	C	0.375783	0.116051	0.305489
	C148	C	0.680650	0.383825	0.878037
	C149	C	0.678840	0.625692	0.099047
	C150	C	0.322297	0.628002	0.877723
	C151	C	0.320350	0.384721	0.097923
	C152	C	0.891230	0.687174	0.365015
	C153	C	0.109752	0.687880	0.611222
	C154	C	0.891379	0.326846	0.609918
	C155	C	0.109349	0.324525	0.362549
	C156	C	0.891213	0.384683	0.667312
	C157	C	0.109491	0.630386	0.669020
	C158	C	0.890840	0.628820	0.307904
	C159	C	0.110377	0.383602	0.306476
	C160	C	0.380169	0.685728	0.877624
	C161	C	0.623049	0.685201	0.098183
	C162	C	0.623613	0.325482	0.878401
	C163	C	0.377541	0.326451	0.097625
	C164	C	0.680064	0.898275	0.366421
	C165	C	0.682056	0.116368	0.611309
	C166	C	0.322000	0.898293	0.608069
	C167	C	0.318072	0.116142	0.363638
	C168	C	0.876554	0.397644	0.170498
	C169	C	0.121837	0.616101	0.166845
	C170	C	0.125257	0.398828	0.805238
	C171	C	0.875978	0.613539	0.806234
	C172	C	0.180833	0.885663	0.377865
	C173	C	0.180456	0.130257	0.597279
	C174	C	0.819100	0.130259	0.377669
	C175	C	0.821498	0.885290	0.596759
	C176	C	0.390734	0.188167	0.864352
	C177	C	0.610881	0.186877	0.110273
	C178	C	0.391921	0.826538	0.110507
	C179	C	0.611842	0.828037	0.866079
	C180	C	0.391630	0.884637	0.167804
	C181	C	0.611410	0.128471	0.167130
	C182	C	0.390687	0.129936	0.807130
	C183	C	0.611752	0.885919	0.808914
	C184	C	0.875107	0.189522	0.378462
	C185	C	0.123432	0.188593	0.596808
	C186	C	0.123646	0.827476	0.378032
	C187	C	0.877936	0.826459	0.596137
	C188	C	0.184130	0.399616	0.862381
	C189	C	0.179707	0.616408	0.108883
	C190	C	0.819316	0.396656	0.111797
	C191	C	0.820217	0.614425	0.866316
	C192	C	0.403512	0.098522	0.585710
	C193	C	0.598192	0.917750	0.585468
	C194	C	0.596614	0.097887	0.391594
	C195	C	0.403736	0.917950	0.390769
	C196	C	0.596634	0.409234	0.078494
	C197	C	0.599238	0.604991	0.896249
	C198	C	0.404427	0.605124	0.079281
	C199	C	0.405518	0.411002	0.898129
	C200	C	0.092544	0.604552	0.390501
	C201	C	0.909738	0.603596	0.582676
	C202	C	0.091526	0.411435	0.582060
	C203	C	0.910738	0.411765	0.392168
	C204	C	0.902863	0.595697	0.085093
	C205	C	0.097926	0.416027	0.084253
	C206	C	0.097257	0.597042	0.890367
	C207	C	0.904271	0.415154	0.890295
	C208	C	0.097236	0.910011	0.578598
	C209	C	0.095422	0.103186	0.397392
	C210	C	0.904652	0.104479	0.577503
	C211	C	0.903951	0.909692	0.395948
	C212	C	0.590943	0.103536	0.892747
	C213	C	0.409758	0.103771	0.083768
	C214	C	0.592678	0.909192	0.085096
	C215	C	0.409417	0.908255	0.890090
	Zn216	Zn	0.500916	0.007125	0.738766
	Zn217	Zn	0.500417	0.007585	0.237348
	Zn218	Zn	0.750362	0.505305	-0.011739
	Zn219	Zn	0.251373	0.507406	-0.011995
	Zn220	Zn	0.001352	0.757216	0.487135
	Zn221	Zn	0.000357	0.257527	0.486771
	Zn222	Zn	0.000879	0.506561	0.736820
	Zn223	Zn	0.001073	0.506547	0.238072
	Zn224	Zn	0.502069	0.756939	-0.012129
	Zn225	Zn	0.500472	0.256602	-0.011932
	Zn226	Zn	0.751377	0.007459	0.487321
	Zn227	Zn	0.249910	0.007789	0.487534
	N228	N	0.414975	0.972437	0.667114
	N229	N	0.588658	0.042160	0.669318
	N230	N	0.587460	0.973180	0.307713
	N231	N	0.412666	0.042441	0.306685
	N232	N	0.679599	0.419963	0.952361
	N233	N	0.678886	0.590665	0.024092
	N234	N	0.322177	0.593287	0.952744
	N235	N	0.321409	0.420829	0.023633
	N236	N	0.966197	0.686924	0.400659
	N237	N	0.035351	0.686892	0.574346
	N238	N	0.965796	0.327979	0.573201
	N239	N	0.034864	0.325911	0.399075
	N240	N	0.965576	0.421074	0.665946
	N241	N	0.035018	0.594104	0.667579
	N242	N	0.965637	0.593019	0.308347
	N243	N	0.036699	0.421274	0.308854
	N244	N	0.415406	0.686470	0.952614
	N245	N	0.589218	0.686951	0.022509
	N246	N	0.587747	0.325846	0.952997
	N247	N	0.413696	0.326899	0.023082
	N248	N	0.679293	0.972258	0.402683
	N249	N	0.681480	0.042690	0.574918
	N250	N	0.321260	0.973100	0.573806
	N251	N	0.319584	0.042608	0.400442
	N252	N	0.912510	0.471745	0.169753
	N253	N	0.086845	0.541445	0.166906
	N254	N	0.087886	0.472207	0.806798
	N255	N	0.911871	0.539471	0.805918
	N256	N	0.179839	0.921426	0.452446
	N257	N	0.179200	0.093739	0.523023
	N258	N	0.821281	0.093462	0.451647
	N259	N	0.822008	0.921183	0.522309
	N260	N	0.465370	0.187514	0.900769
	N261	N	0.535612	0.187056	0.074973
	N262	N	0.466662	0.826663	0.074773
	N263	N	0.536551	0.827213	0.901086
	N264	N	0.466231	0.920461	0.167336
	N265	N	0.536561	0.092873	0.166508
	N266	N	0.465220	0.093508	0.808633
	N267	N	0.536520	0.920874	0.808810
	N268	N	0.911686	0.189018	0.452784
	N269	N	0.086947	0.187547	0.522306
	N270	N	0.087933	0.827408	0.452766
	N271	N	0.913058	0.826166	0.521231
	N272	N	0.182913	0.473413	0.898834
	N273	N	0.179967	0.542012	0.073541
	N274	N	0.820394	0.470131	0.075000
	N275	N	0.821903	0.540642	0.902888
	O276	O	-0.218043	1.067555	0.045104
	H277	H	-0.208684	1.033742	0.022648
	H278	H	-0.224464	1.096356	0.022866
	O279	O	0.701314	0.308852	0.286589
	H280	H	0.726058	0.285563	0.285985
	H281	H	0.695751	0.327483	0.298285
	O282	O	0.984049	0.186803	0.769146
	H283	H	0.998079	0.203033	0.761442
	H284	H	0.988407	0.184407	0.782212
	O285	O	0.677307	0.333811	0.675166
	H286	H	0.659144	0.341789	0.655309
	H287	H	0.662525	0.354399	0.662915
	O288	O	0.485000	0.275000	0.474879
	H289	H	0.485675	0.278243	0.490213
	H290	H	0.484602	0.277941	0.456779
	O291	O	-0.000893	-0.120150	0.187027
	H292	H	-0.009306	-0.128319	0.181005
	H293	H	-0.015604	-0.144219	0.194489
	O294	O	1.077825	0.022925	0.813739
	H295	H	1.072056	0.024216	0.798454
	H296	H	1.082276	0.017178	0.800407
	O297	O	0.209581	0.797203	0.780627
	H298	H	0.201149	0.827913	0.779518
	H299	H	0.240005	0.775009	0.747782
	O300	O	0.028908	0.210895	1.202685
	H301	H	0.033071	0.220800	1.223513
	H302	H	0.022290	0.201617	1.208686
	O303	O	0.667416	0.496842	0.273373
	H304	H	0.665876	0.485187	0.269423
	H305	H	0.691570	0.490033	0.269097
	O306	O	0.288104	0.293221	0.517130
	H307	H	0.285095	0.284679	0.511539
	H308	H	0.285327	0.290768	0.501611
	O309	O	0.534124	0.279913	0.266839
	H310	H	0.566029	0.277165	0.261218
	H311	H	0.535004	0.266061	0.245479
	O312	O	0.458131	0.542557	0.705935
	H313	H	0.468067	0.561060	0.704596
	H314	H	0.465975	0.536010	0.710511
	O315	O	1.221862	0.784210	0.949269
	H316	H	1.249490	0.751766	0.950285
	H317	H	1.219482	0.790421	0.910226
	O318	O	0.322431	0.555853	0.297956
	H319	H	0.318283	0.560409	0.288481
	H320	H	0.314263	0.567279	0.283370
	O321	O	-0.064246	0.875645	1.092096
	H322	H	-0.088985	0.875541	1.092420
	H323	H	-0.077803	0.863014	1.096597
	O324	O	0.790793	0.962958	0.199168
	H325	H	0.783382	0.981505	0.196011
	H326	H	0.785551	0.982371	0.186511
	O327	O	-0.209110	0.221075	0.776896
	H328	H	-0.235639	0.252198	0.751394
	H329	H	-0.171314	0.223411	0.774560
	O330	O	0.690133	0.701273	0.300292
	H331	H	0.680348	0.671473	0.318238
	H332	H	0.663150	0.694555	0.319459
	O333	O	0.695376	0.534889	0.512248
	H334	H	0.692607	0.537045	0.524040
	H335	H	0.702447	0.546338	0.527197
	O336	O	1.062214	0.113586	0.052393
	H337	H	1.040881	0.121159	0.055796
	H338	H	1.059831	0.106327	0.041226
	O339	O	0.716749	-0.274947	0.525958
	H340	H	0.724595	-0.273199	0.539798
	H341	H	0.726342	-0.262297	0.520346
	O342	O	-0.046532	0.224924	-0.010265
	H343	H	-0.047199	0.230162	0.011985
	H344	H	-0.073376	0.230487	-0.007564
	O345	O	0.234373	0.768146	1.227465
	H346	H	0.206960	0.787740	1.199732
	H347	H	0.237702	0.789631	1.230295
	O348	O	0.169699	0.064045	-0.134442
	H349	H	0.162848	0.066527	-0.118843
	H350	H	0.158938	0.072064	-0.142207
	O351	O	0.298553	0.301509	0.690553
	H352	H	0.288780	0.283533	0.684751
	H353	H	0.291389	0.327952	0.678570
	O354	O	-0.170441	0.172379	1.169877
	H355	H	-0.149203	0.151200	1.160162
	H356	H	-0.166822	0.153850	1.148228
	O357	O	0.278026	0.474344	0.433947
	H358	H	0.282921	0.486218	0.437183
	H359	H	0.265968	0.479075	0.414870
	O360	O	0.572787	0.653846	0.426854
	H361	H	0.576928	0.651061	0.420841
	H362	H	0.568385	0.635851	0.432344
	O363	O	-0.002155	-0.018833	0.028623
	H364	H	0.000112	-0.024056	0.028674
	H365	H	0.002081	-0.025082	0.031447
	O366	O	0.508472	0.729529	0.355946
	H367	H	0.504170	0.727775	0.360012
	H368	H	0.510883	0.727607	0.355419
	O369	O	1.224084	0.231569	0.019773
	H370	H	1.234311	0.242205	0.036531
	H371	H	1.236511	0.245055	0.031298
	O372	O	1.059104	0.860511	0.089211
	H373	H	1.068105	0.852746	0.071052
	H374	H	1.056961	0.856214	0.087084
	O375	O	0.794204	-0.204213	0.195363
	H376	H	0.788862	-0.150435	0.203828
	H377	H	0.760311	-0.231427	0.231199
	O378	O	0.439261	0.402129	0.509345
	H379	H	0.430484	0.408917	0.499047
	H380	H	0.438904	0.400621	0.507005
	O381	O	0.060073	0.983211	0.938355
	H382	H	0.071104	0.976125	0.938704
	H383	H	0.065023	0.979079	0.926289
	O384	O	1.218802	-0.034683	0.768857
	H385	H	1.220648	-0.019774	0.774379
	H386	H	1.234525	-0.031026	0.759223
	O387	O	0.796687	1.222097	-0.032929
	H388	H	0.789670	1.240903	-0.042920
	H389	H	0.797233	1.225979	-0.054242
	O390	O	0.530556	0.459820	0.470264
	H391	H	0.522168	0.472599	0.464206
	H392	H	0.524833	0.458882	0.467691
	O393	O	0.881974	0.871761	0.969342
	H394	H	0.890630	0.853998	0.981529
	H395	H	0.888040	0.862317	0.976175
	O396	O	0.207888	1.066417	1.199697
	H397	H	0.215358	1.065913	1.212292
	H398	H	0.206202	1.059579	1.194295
	O399	O	-0.189699	0.049729	0.799196
	H400	H	-0.185118	0.080089	0.800384
	H401	H	-0.207948	0.059946	0.777549
	O402	O	0.717021	0.541335	0.698866
	H403	H	0.710767	0.534345	0.703136
	H404	H	0.732086	0.550825	0.713060
	O405	O	1.197480	-0.105561	1.137480
	H406	H	1.204158	-0.095842	1.111538
	H407	H	1.168339	-0.094627	1.128574
	O408	O	0.135043	0.159251	-0.154809
	H409	H	0.125131	0.156133	-0.148961
	H410	H	0.124710	0.146790	-0.147042
	O411	O	0.473807	0.289186	0.703774
	H412	H	0.455315	0.287574	0.699748
	H413	H	0.458912	0.268649	0.722057
	O414	O	0.533919	0.727207	0.707851
	H415	H	0.555481	0.744261	0.721458
	H416	H	0.562125	0.734949	0.718911
	O417	O	0.315207	0.696549	0.665162
	H418	H	0.338365	0.689231	0.646790
	H419	H	0.321020	0.672496	0.645960
	O420	O	-0.203927	0.963869	0.882928
	H421	H	-0.214186	0.953826	0.888874
	H422	H	-0.209265	0.977184	0.866887
	O423	O	0.025872	-0.216378	0.774384
	H424	H	0.034375	-0.206540	0.774231
	H425	H	0.045417	-0.236790	0.756813
	O426	O	0.709680	0.358537	0.404936
	H427	H	0.737119	0.345615	0.396727
	H428	H	0.694198	0.370207	0.415152
	O429	O	0.813573	0.811620	0.793723
	H430	H	0.830727	0.826147	0.815004
	H431	H	0.837718	0.834329	0.805683
	O432	O	0.289678	0.716707	0.457421
	H433	H	0.283161	0.726907	0.449889
	H434	H	0.284863	0.718420	0.441020
	O435	O	-0.222178	0.780019	0.025952
	H436	H	-0.227682	0.774268	0.058958
	H437	H	-0.243702	0.758966	0.044380
	O438	O	-0.021679	0.009131	-0.155337
	H439	H	-0.019440	0.005500	-0.162524
	H440	H	-0.041706	0.008661	-0.150714
	O441	O	0.096405	0.149320	-0.037600
	H442	H	0.099029	0.151351	-0.030327
	H443	H	0.102088	0.146817	-0.030960
	O444	O	0.465018	0.699692	0.555616
	H445	H	0.469578	0.698604	0.567252
	H446	H	0.464874	0.704467	0.549654
	O447	O	0.223363	1.229024	1.206464
	H448	H	0.247703	1.230663	1.225305
	H449	H	0.204663	1.213801	1.207996
	O450	O	0.170449	0.995074	0.987929
	H451	H	0.164903	0.995387	1.001369
	H452	H	0.169758	1.006634	0.998158
	O453	O	0.707239	0.713081	0.695628
	H454	H	0.715023	0.687302	0.675021
	H455	H	0.742801	0.743098	0.727236
	O456	O	-0.025772	0.085532	1.100265
	H457	H	-0.006114	0.078120	1.097532
	H458	H	-0.011265	0.082574	1.104915
	O459	O	0.543455	0.477949	0.670258
	H460	H	0.542147	0.489110	0.674345
	H461	H	0.535876	0.467603	0.664889
	O462	O	0.617589	0.288502	0.526920
	H463	H	0.604119	0.292236	0.529672
	H464	H	0.620717	0.283098	0.526656
	O465	O	0.955332	-0.129714	0.043232
	H466	H	0.956788	-0.139175	0.047741
	H467	H	0.955949	-0.147947	0.030181
	O468	O	0.473502	0.449884	0.339091
	H469	H	0.476955	0.453925	0.331835
	H470	H	0.460083	0.452838	0.339827
	O471	O	0.711900	0.486729	0.503948
	H472	H	0.710300	0.464225	0.506227
	H473	H	0.701589	0.490062	0.503233
	O474	O	0.304927	0.395440	0.324169
	H475	H	0.313817	0.429679	0.334477
	H476	H	0.307574	0.400984	0.316508
	O477	O	0.285200	0.556054	1.570489
	H478	H	0.280568	0.535506	1.580658
	H479	H	0.279230	0.550961	1.571693
	O480	O	0.517405	0.546776	0.277244
	H481	H	0.531192	0.543193	0.286470
	H482	H	0.517487	0.522904	0.271038
	O483	O	0.294763	0.463977	0.697907
	H484	H	0.286741	0.465293	0.720312
	H485	H	0.306466	0.452598	0.707981
	O486	O	1.371503	-0.282171	1.277978
	H487	H	1.355910	-0.267300	1.270398
	H488	H	1.381131	-0.281447	1.264276
	O489	O	1.493059	0.575215	0.438966
	H490	H	1.469346	0.588915	0.440263
	H491	H	1.480679	0.576075	0.440762
