data_Molecule from HDF5

_cell_length_a		16.463115
_cell_length_b		16.536884
_cell_length_c		16.388012
_cell_angle_alpha	89.965011
_cell_angle_beta	89.902564
_cell_angle_gamma	89.893874
_symmetry_space_group_name_H-M	'P 1'
_symmetry_Int_Tables_number		1

loop_
	_symmetry_equiv_pos_as_xyz
	x,y,z

loop_
	_atom_site_label
	_atom_site_type_symbol
	_atom_site_fract_x
	_atom_site_fract_y
	_atom_site_fract_z
	H0	H	0.407235	0.857858	0.732014
	H1	H	0.620639	0.171510	0.732997
	H2	H	0.618969	0.856578	0.290079
	H3	H	0.408587	0.171296	0.285459
	H4	H	0.737006	0.406127	0.851162
	H5	H	0.732460	0.618079	0.166939
	H6	H	0.289914	0.622218	0.850625
	H7	H	0.290985	0.409374	0.166138
	H8	H	0.858282	0.739247	0.401268
	H9	H	0.171508	0.739629	0.618774
	H10	H	0.859981	0.288622	0.619194
	H11	H	0.172622	0.291837	0.399709
	H12	H	0.858336	0.407116	0.732933
	H13	H	0.170485	0.624034	0.734647
	H14	H	0.855695	0.619681	0.288345
	H15	H	0.173120	0.411914	0.287131
	H16	H	0.404952	0.738396	0.850061
	H17	H	0.620121	0.735829	0.165047
	H18	H	0.620922	0.289578	0.852145
	H19	H	0.404379	0.291432	0.166639
	H20	H	0.738593	0.859132	0.403484
	H21	H	0.738209	0.172354	0.617150
	H22	H	0.290396	0.858894	0.617170
	H23	H	0.292863	0.172086	0.401554
	H24	H	0.907639	0.357752	0.231529
	H25	H	0.117851	0.672342	0.229562
	H26	H	0.124038	0.359136	0.782339
	H27	H	0.906655	0.671799	0.785557
	H28	H	0.235468	0.911226	0.349866
	H29	H	0.236776	0.121724	0.666814
	H30	H	0.795628	0.119855	0.349604
	H31	H	0.792533	0.908641	0.667246
	H32	H	0.357954	0.239628	0.898465
	H33	H	0.670636	0.237323	0.116553
	H34	H	0.357198	0.793031	0.114793
	H35	H	0.671677	0.790373	0.900213
	H36	H	0.356906	0.909068	0.230420
	H37	H	0.674489	0.114739	0.224779
	H38	H	0.357849	0.121630	0.784214
	H39	H	0.672229	0.906885	0.784553
	H40	H	0.910338	0.236841	0.350355
	H41	H	0.121767	0.237776	0.666088
	H42	H	0.121142	0.794267	0.350162
	H43	H	0.906749	0.790857	0.666059
	H44	H	0.240560	0.359348	0.897841
	H45	H	0.237790	0.670020	0.116510
	H46	H	0.791135	0.357184	0.115861
	H47	H	0.790503	0.671589	0.902304
	H48	H	0.433282	0.123922	0.596997
	H49	H	0.601948	0.907538	0.587120
	H50	H	0.606306	0.129153	0.418272
	H51	H	0.424970	0.902986	0.419923
	H52	H	0.595983	0.425092	0.119811
	H53	H	0.599959	0.603172	0.893908
	H54	H	0.423116	0.604962	0.121938
	H55	H	0.427020	0.431237	0.896915
	H56	H	0.127124	0.603613	0.420008
	H57	H	0.900459	0.603696	0.603122
	H58	H	0.127856	0.424370	0.594721
	H59	H	0.901775	0.430295	0.414650
	H60	H	0.124048	0.429678	0.590873
	H61	H	0.902818	0.610924	0.590589
	H62	H	0.128594	0.605045	0.416557
	H63	H	0.900279	0.417803	0.422224
	H64	H	0.426660	0.600070	0.119402
	H65	H	0.603342	0.603121	0.893830
	H66	H	0.604903	0.420396	0.124539
	H67	H	0.432328	0.426582	0.898011
	H68	H	0.606046	0.129282	0.415847
	H69	H	0.610186	0.900957	0.597162
	H70	H	0.423939	0.124767	0.590114
	H71	H	0.425592	0.902478	0.420223
	H72	H	0.924108	0.627462	0.100641
	H73	H	0.099945	0.404674	0.094285
	H74	H	0.107276	0.625423	0.928090
	H75	H	0.922476	0.402852	0.922480
	H76	H	0.104944	0.925573	0.623900
	H77	H	0.101454	0.106562	0.395365
	H78	H	0.929594	0.107250	0.622171
	H79	H	0.926880	0.925861	0.394905
	H80	H	0.625638	0.107746	0.925876
	H81	H	0.404319	0.099563	0.090877
	H82	H	0.625723	0.928601	0.096342
	H83	H	0.402494	0.928842	0.917813
	H84	H	0.630580	0.922315	0.103837
	H85	H	0.399957	0.098057	0.103246
	H86	H	0.622733	0.096887	0.926904
	H87	H	0.401566	0.922827	0.920675
	H88	H	0.922742	0.102324	0.622675
	H89	H	0.107904	0.104799	0.393358
	H90	H	0.102717	0.931154	0.620063
	H91	H	0.926085	0.928917	0.396390
	H92	H	0.100616	0.627713	0.914668
	H93	H	0.105757	0.401792	0.096234
	H94	H	0.924043	0.626117	0.095515
	H95	H	0.926619	0.402411	0.918054
	H96	H	0.423621	0.129393	0.600796
	H97	H	0.596469	0.905080	0.600238
	H98	H	0.604279	0.127814	0.416884
	H99	H	0.425306	0.902790	0.420221
	H100	H	0.604775	0.431430	0.121087
	H101	H	0.601610	0.600478	0.895013
	H102	H	0.429426	0.605865	0.120241
	H103	H	0.426631	0.424409	0.894313
	H104	H	0.128022	0.607161	0.419510
	H105	H	0.906966	0.596220	0.592033
	H106	H	0.126297	0.430873	0.597627
	H107	H	0.906233	0.429347	0.428751
	H108	H	0.919437	0.627415	0.097631
	H109	H	0.100933	0.401839	0.100313
	H110	H	0.093454	0.620746	0.925747
	H111	H	0.928314	0.404816	0.923570
	H112	H	0.098447	0.925281	0.620959
	H113	H	0.103273	0.100219	0.396657
	H114	H	0.930542	0.098837	0.619948
	H115	H	0.928959	0.927587	0.396845
	H116	H	0.627111	0.100549	0.917177
	H117	H	0.398577	0.110138	0.097083
	H118	H	0.628844	0.918389	0.093721
	H119	H	0.404222	0.926710	0.924131
	C120	C	0.393137	0.022946	0.630026
	C121	C	0.636128	1.007523	0.629392
	C122	C	0.637151	0.024100	0.386551
	C123	C	0.393074	1.006587	0.386847
	C124	C	0.635377	0.392323	0.017725
	C125	C	0.634171	0.634810	0.999019
	C126	C	0.392201	0.636855	0.016477
	C127	C	0.394025	0.393987	1.000610
	C128	C	0.023316	0.637181	0.386822
	C129	C	1.007030	0.636979	0.629754
	C130	C	0.023296	0.394158	0.629296
	C131	C	1.007027	0.393886	0.387984
	C132	C	0.890353	0.523347	0.131278
	C133	C	0.134799	0.506210	0.129482
	C134	C	0.135456	0.522396	0.887480
	C135	C	0.892256	0.506606	0.887362
	C136	C	0.135708	0.894436	0.517385
	C137	C	0.136825	0.136866	0.499588
	C138	C	0.894918	0.135879	0.516838
	C139	C	0.893593	0.894003	0.500456
	C140	C	0.522011	0.135635	0.888541
	C141	C	0.505292	0.135197	0.129683
	C142	C	0.523590	0.891766	0.130236
	C143	C	0.506294	0.892439	0.886703
	C144	C	0.389224	0.905432	0.692049
	C145	C	0.639183	0.124811	0.692030
	C146	C	0.638187	0.904455	0.329096
	C147	C	0.390587	0.124224	0.325749
	C148	C	0.696593	0.388585	0.898711
	C149	C	0.693350	0.636731	0.118759
	C150	C	0.330213	0.640361	0.898023
	C151	C	0.331220	0.390705	0.118844
	C152	C	0.905076	0.698246	0.384079
	C153	C	0.124156	0.699038	0.635315
	C154	C	0.906506	0.330647	0.635330
	C155	C	0.125549	0.332988	0.383042
	C156	C	0.905502	0.389723	0.692016
	C157	C	0.123721	0.641192	0.693127
	C158	C	0.903690	0.638600	0.327953
	C159	C	0.125634	0.392541	0.326713
	C160	C	0.387862	0.698135	0.897776
	C161	C	0.637222	0.695407	0.117892
	C162	C	0.639131	0.330478	0.899212
	C163	C	0.387822	0.332171	0.119047
	C164	C	0.697880	0.905834	0.385360
	C165	C	0.697607	0.125199	0.634397
	C166	C	0.331079	0.905749	0.634445
	C167	C	0.332590	0.124513	0.383637
	C168	C	0.889068	0.404970	0.191673
	C169	C	0.136836	0.624750	0.189870
	C170	C	0.141096	0.406005	0.823711
	C171	C	0.889036	0.624654	0.826341
	C172	C	0.196000	0.892240	0.397665
	C173	C	0.196954	0.139473	0.619077
	C174	C	0.834846	0.138284	0.397552
	C175	C	0.832290	0.890426	0.619349
	C176	C	0.404722	0.198358	0.882487
	C177	C	0.623882	0.196004	0.133075
	C178	C	0.404570	0.832698	0.132600
	C179	C	0.624272	0.830546	0.882346
	C180	C	0.404562	0.890512	0.190296
	C181	C	0.625695	0.135237	0.187446
	C182	C	0.404753	0.139452	0.825567
	C183	C	0.624773	0.889059	0.825129
	C184	C	0.891982	0.196609	0.397976
	C185	C	0.139762	0.197379	0.618838
	C186	C	0.139046	0.834105	0.397787
	C187	C	0.889379	0.831864	0.618717
	C188	C	0.198921	0.405781	0.881567
	C189	C	0.196273	0.623756	0.133414
	C190	C	0.830604	0.404769	0.134098
	C191	C	0.830698	0.624415	0.884067
	C192	C	0.419487	0.104591	0.603527
	C193	C	0.610284	0.925862	0.602689
	C194	C	0.612494	0.107023	0.410218
	C195	C	0.418326	0.924072	0.412685
	C196	C	0.609399	0.418160	0.100303
	C197	C	0.608944	0.609612	0.915771
	C198	C	0.418489	0.610916	0.098917
	C199	C	0.420970	0.419853	0.918222
	C200	C	0.106323	0.612316	0.411493
	C201	C	0.924684	0.610883	0.602902
	C202	C	0.104765	0.420804	0.602215
	C203	C	0.924316	0.418510	0.414497
	C204	C	0.915230	0.605561	0.105295
	C205	C	0.109499	0.424133	0.104085
	C206	C	0.108118	0.603569	0.914989
	C207	C	0.918435	0.424806	0.913536
	C208	C	0.109501	0.919956	0.599900
	C209	C	0.111366	0.111364	0.416754
	C210	C	0.920369	0.110250	0.599978
	C211	C	0.919703	0.920001	0.417679
	C212	C	0.603916	0.109059	0.915554
	C213	C	0.422740	0.110013	0.104297
	C214	C	0.606692	0.916020	0.105110
	C215	C	0.424241	0.918461	0.913140
	Zn216	Zn	0.515203	0.014908	0.759038
	Zn217	Zn	0.515077	0.014155	0.258079
	Zn218	Zn	0.762723	0.514582	0.008038
	Zn219	Zn	0.264916	0.514128	0.007946
	Zn220	Zn	0.015711	0.765953	0.508906
	Zn221	Zn	0.016170	0.264685	0.508293
	Zn222	Zn	0.014464	0.515270	0.758525
	Zn223	Zn	0.013601	0.514697	0.258699
	Zn224	Zn	0.514251	0.763726	0.008007
	Zn225	Zn	0.513302	0.264466	0.009346
	Zn226	Zn	0.765806	0.015915	0.508938
	Zn227	Zn	0.264385	0.014932	0.508520
	N228	N	0.427212	0.979311	0.689546
	N229	N	0.601840	0.050670	0.689120
	N230	N	0.601287	0.979006	0.329506
	N231	N	0.427644	0.049751	0.327746
	N232	N	0.694611	0.426115	0.973543
	N233	N	0.691612	0.599782	0.043758
	N234	N	0.332764	0.602894	0.972952
	N235	N	0.334885	0.428452	0.044095
	N236	N	0.980445	0.697516	0.419955
	N237	N	0.050262	0.696159	0.596342
	N238	N	0.980627	0.333206	0.597051
	N239	N	0.050569	0.333511	0.420140
	N240	N	0.979097	0.428693	0.688401
	N241	N	0.049582	0.603488	0.689821
	N242	N	0.978252	0.601354	0.329395
	N243	N	0.050934	0.429767	0.329792
	N244	N	0.425411	0.696276	0.972581
	N245	N	0.601314	0.694422	0.042179
	N246	N	0.601952	0.332643	0.974227
	N247	N	0.426106	0.334234	0.044584
	N248	N	0.697560	0.981306	0.420238
	N249	N	0.695889	0.051258	0.596210
	N250	N	0.333168	0.979943	0.596818
	N251	N	0.334074	0.050158	0.420977
	N252	N	0.925104	0.479748	0.190259
	N253	N	0.099259	0.550734	0.187571
	N254	N	0.102082	0.479565	0.827389
	N255	N	0.926233	0.550179	0.827981
	N256	N	0.194359	0.928783	0.473000
	N257	N	0.195417	0.102570	0.543845
	N258	N	0.836551	0.101463	0.472668
	N259	N	0.834846	0.928340	0.544733
	N260	N	0.478871	0.195918	0.920990
	N261	N	0.547987	0.196446	0.098257
	N262	N	0.479600	0.833422	0.095910
	N263	N	0.549600	0.832549	0.919665
	N264	N	0.479713	0.926404	0.189158
	N265	N	0.550928	0.098141	0.185643
	N266	N	0.478560	0.100843	0.829472
	N267	N	0.550379	0.926944	0.827573
	N268	N	0.928370	0.195431	0.473403
	N269	N	0.103187	0.195831	0.543505
	N270	N	0.102584	0.834972	0.473208
	N271	N	0.926663	0.833793	0.543533
	N272	N	0.195642	0.479235	0.920398
	N273	N	0.195114	0.549209	0.096406
	N274	N	0.831184	0.479568	0.097289
	N275	N	0.832435	0.549717	0.920985
	O276	O	0.513240	0.339908	0.667890
	H277	H	0.518160	0.350146	0.685455
	H278	H	0.511098	0.345100	0.674962
	O279	O	0.988462	-0.015553	0.799374
	H280	H	0.983679	-0.032316	0.793257
	H281	H	1.006934	-0.012689	0.813654
	O282	O	0.728862	0.486617	0.295304
	H283	H	0.721951	0.499034	0.277390
	H284	H	0.747566	0.493189	0.285126
	O285	O	0.299402	0.304110	0.537736
	H286	H	0.287226	0.277399	0.538943
	H287	H	0.308914	0.307586	0.533679
	O288	O	1.075213	1.211446	0.207786
	H289	H	1.083991	1.203406	0.205559
	H290	H	1.081469	1.219191	0.225894
	O291	O	0.318850	0.501850	0.367561
	H292	H	0.325443	0.486988	0.376111
	H293	H	0.315912	0.496983	0.389544
	O294	O	-0.203462	0.037700	0.795779
	H295	H	-0.225024	0.054678	0.771400
	H296	H	-0.190102	0.037292	0.787624
	O297	O	0.725464	0.406843	0.612296
	H298	H	0.720198	0.417374	0.617100
	H299	H	0.707413	0.415779	0.617197
	O300	O	0.964584	1.110967	1.182958
	H301	H	0.977442	1.111616	1.151821
	H302	H	0.964572	1.111638	1.187706
	O303	O	0.308945	0.519118	0.507637
	H304	H	0.309323	0.524156	0.504303
	H305	H	0.315469	0.523203	0.525416
	O306	O	0.562886	0.292145	0.537221
	H307	H	0.578201	0.295819	0.522644
	H308	H	0.558338	0.280118	0.565571
	O309	O	0.551489	0.694465	0.451323
	H310	H	0.555394	0.692507	0.452747
	H311	H	0.534676	0.698204	0.467103
	O312	O	-0.527608	0.310690	0.356694
	H313	H	-0.510271	0.287247	0.335029
	H314	H	-0.505263	0.323845	0.372376
	O315	O	0.807748	0.228222	0.988091
	H316	H	0.805643	0.222207	0.996355
	H317	H	0.785426	0.240679	0.980455
	O318	O	1.320033	-0.378568	-0.689840
	H319	H	1.317115	-0.413472	-0.665069
	H320	H	1.295476	-0.377729	-0.719382
	O321	O	0.134013	-0.100727	0.181124
	H322	H	0.137150	-0.073760	0.164800
	H323	H	0.128721	-0.103812	0.165508
	O324	O	0.706835	0.321198	0.381623
	H325	H	0.711563	0.340001	0.384764
	H326	H	0.713518	0.323734	0.397095
	O327	O	0.611392	0.711427	0.309385
	H328	H	0.608075	0.704876	0.327297
	H329	H	0.602149	0.719160	0.320120
	O330	O	-0.189977	0.848882	0.005493
	H331	H	-0.202103	0.854777	0.030511
	H332	H	-0.200270	0.864236	-0.004630
	O333	O	0.315856	0.716692	0.407862
	H334	H	0.311669	0.693918	0.381574
	H335	H	0.325258	0.731580	0.394935
	O336	O	-0.973202	0.113530	1.010575
	H337	H	-0.970829	0.103172	1.012839
	H338	H	-0.956175	0.109593	1.005104
	O339	O	0.219652	1.081772	0.888985
	H340	H	0.214824	1.094605	0.898362
	H341	H	0.225689	1.085114	0.891476
	O342	O	-0.014860	0.906147	1.087129
	H343	H	-0.008955	0.895417	1.102665
	H344	H	-0.020593	0.901571	1.106047
	O345	O	1.216755	1.151708	0.073028
	H346	H	1.200382	1.149726	0.059862
	H347	H	1.224376	1.178403	0.065723
	O348	O	0.725845	0.647433	0.529809
	H349	H	0.726996	0.667539	0.515471
	H350	H	0.740694	0.629607	0.515519
	O351	O	0.536695	0.510814	0.466505
	H352	H	0.524295	0.498666	0.465015
	H353	H	0.529626	0.510261	0.468353
	O354	O	0.055254	1.054957	-0.094777
	H355	H	0.038109	1.074061	-0.094658
	H356	H	0.047990	1.046213	-0.078977
	O357	O	-0.509256	-0.442455	1.627664
	H358	H	-0.510386	-0.418550	1.627105
	H359	H	-0.524653	-0.449892	1.622918
	O360	O	0.374324	0.592588	0.648024
	H361	H	0.372557	0.587264	0.630814
	H362	H	0.368573	0.588983	0.647813
	O363	O	-0.204378	0.147433	1.243392
	H364	H	-0.200198	0.154891	1.262721
	H365	H	-0.185117	0.152236	1.242639
	O366	O	-0.012155	0.229078	-0.198006
	H367	H	0.001005	0.238387	-0.207062
	H368	H	-0.034616	0.233233	-0.197716
	O369	O	0.834925	0.042386	1.049151
	H370	H	0.842272	0.028100	1.050775
	H371	H	0.834083	0.034300	1.058496
	O372	O	0.833339	0.198015	0.825403
	H373	H	0.817083	0.219419	0.849231
	H374	H	0.850628	0.177872	0.817476
	O375	O	0.723832	0.588534	0.713882
	H376	H	0.733286	0.592372	0.725486
	H377	H	0.736208	0.613050	0.707280
	O378	O	0.308318	0.494119	0.714356
	H379	H	0.286150	0.492008	0.718668
	H380	H	0.304224	0.492437	0.705517
	O381	O	0.402788	0.730097	0.383914
	H382	H	0.377444	0.745954	0.365810
	H383	H	0.390183	0.728887	0.362181
	O384	O	0.230388	1.028081	-0.068624
	H385	H	0.248500	1.026895	-0.080648
	H386	H	0.228271	1.043548	-0.055888
	O387	O	0.025262	0.151779	1.006230
	H388	H	0.003903	0.154306	1.012157
	H389	H	0.015442	0.137447	0.993338
	O390	O	0.180676	-0.196890	0.014777
	H391	H	0.172035	-0.199100	-0.010278
	H392	H	0.195344	-0.220183	0.017297
	O393	O	1.016526	0.813168	0.808618
	H394	H	0.993632	0.815018	0.831462
	H395	H	1.026566	0.789361	0.788967
	O396	O	1.201008	-0.176335	-0.125307
	H397	H	1.185522	-0.182444	-0.137850
	H398	H	1.204170	-0.144181	-0.133897
	O399	O	0.347266	-0.664946	0.689768
	H400	H	0.373226	-0.670053	0.684754
	H401	H	0.335343	-0.647870	0.680791
	O402	O	0.682603	1.548585	0.509734
	H403	H	0.669371	1.550627	0.513446
	H404	H	0.686595	1.526076	0.524774
	O405	O	0.819537	0.819864	0.203407
	H406	H	0.795925	0.810549	0.218605
	H407	H	0.834686	0.824254	0.184048
	O408	O	0.799431	-0.032378	0.110233
	H409	H	0.798919	-0.031878	0.110640
	H410	H	0.798746	-0.033956	0.105331
	O411	O	1.122971	1.069860	-0.135743
	H412	H	1.124752	1.090663	-0.134204
	H413	H	1.094627	1.071313	-0.129008
	O414	O	-0.013771	-0.199196	0.101095
	H415	H	-0.021936	-0.217364	0.114178
	H416	H	-0.027556	-0.172793	0.104426
	O417	O	0.509877	0.406879	0.303742
	H418	H	0.513913	0.377778	0.294846
	H419	H	0.512357	0.409034	0.305368
	O420	O	-0.073671	-0.005492	-0.062520
	H421	H	-0.074809	-0.016907	-0.073100
	H422	H	-0.073978	-0.011199	-0.055212
	O423	O	0.151006	0.116010	0.192631
	H424	H	0.151490	0.120907	0.163510
	H425	H	0.153411	0.083758	0.195175
	O426	O	0.537100	0.728415	0.717808
	H427	H	0.523243	0.729828	0.729838
	H428	H	0.548993	0.738745	0.726559
	O429	O	0.468565	0.726487	0.550640
	H430	H	0.454230	0.736482	0.556408
	H431	H	0.447219	0.723361	0.550393
	O432	O	0.525908	0.412010	0.405750
	H433	H	0.543381	0.406580	0.379628
	H434	H	0.530636	0.401826	0.412626
	O435	O	0.565932	0.436059	0.713766
	H436	H	0.550381	0.453302	0.695875
	H437	H	0.591534	0.449689	0.724417
	O438	O	0.150438	0.050222	0.209328
	H439	H	0.167008	0.048065	0.216950
	H440	H	0.138121	0.031052	0.194348
	O441	O	1.021195	-0.068509	-0.062544
	H442	H	1.032442	-0.063870	-0.039138
	H443	H	1.000418	-0.076642	-0.043928
	O444	O	0.107835	0.870279	1.152737
	H445	H	0.113066	0.864605	1.150619
	H446	H	0.103082	0.859001	1.127958
	O447	O	0.508725	1.521793	0.339410
	H448	H	0.504769	1.517783	0.340594
	H449	H	0.502111	1.518435	0.333864
	O450	O	0.727880	0.381820	0.566590
	H451	H	0.745917	0.382487	0.569525
	H452	H	0.741373	0.372374	0.571723
	O453	O	0.696194	0.697509	0.631985
	H454	H	0.666927	0.708835	0.616309
	H455	H	0.688679	0.703369	0.617158
