data_Molecule from HDF5

_cell_length_a		16.246424
_cell_length_b		16.344322
_cell_length_c		16.228061
_cell_angle_alpha	89.791837
_cell_angle_beta	90.021151
_cell_angle_gamma	90.002608
_symmetry_space_group_name_H-M	'P 1'
_symmetry_Int_Tables_number		1

loop_
	_symmetry_equiv_pos_as_xyz
	x,y,z

loop_
	_atom_site_label
	_atom_site_type_symbol
	_atom_site_fract_x
	_atom_site_fract_y
	_atom_site_fract_z
	H0	H	0.404690	0.840528	0.714573
	H1	H	0.602887	0.167513	0.710643
	H2	H	0.602888	0.840449	0.282995
	H3	H	0.405505	0.165930	0.280285
	H4	H	0.720176	0.404732	0.832538
	H5	H	0.720038	0.600625	0.160621
	H6	H	0.292118	0.602334	0.832305
	H7	H	0.290473	0.404542	0.160031
	H8	H	0.842025	0.718644	0.396772
	H9	H	0.168926	0.717842	0.595315
	H10	H	0.841787	0.287900	0.596946
	H11	H	0.167788	0.286888	0.396002
	H12	H	0.841382	0.403839	0.711722
	H13	H	0.170240	0.600585	0.708201
	H14	H	0.841124	0.601706	0.282346
	H15	H	0.169825	0.405830	0.283117
	H16	H	0.406118	0.718569	0.833284
	H17	H	0.604811	0.716240	0.160721
	H18	H	0.605715	0.288596	0.833577
	H19	H	0.405396	0.288253	0.160751
	H20	H	0.718835	0.839791	0.399426
	H21	H	0.721681	0.166125	0.597250
	H22	H	0.290585	0.839407	0.595636
	H23	H	0.289385	0.166369	0.396218
	H24	H	0.906655	0.340546	0.212907
	H25	H	0.104610	0.667115	0.211202
	H26	H	0.104098	0.340643	0.782143
	H27	H	0.907262	0.666909	0.780276
	H28	H	0.219253	0.904341	0.332745
	H29	H	0.219236	0.100664	0.661624
	H30	H	0.791356	0.101375	0.332144
	H31	H	0.790062	0.903280	0.661235
	H32	H	0.342728	0.221741	0.895217
	H33	H	0.669032	0.218563	0.097712
	H34	H	0.342340	0.786912	0.096769
	H35	H	0.669530	0.789246	0.897269
	H36	H	0.340893	0.905268	0.209889
	H37	H	0.669674	0.100238	0.209970
	H38	H	0.340988	0.102979	0.782056
	H39	H	0.669505	0.906141	0.782496
	H40	H	0.904364	0.219849	0.332917
	H41	H	0.104992	0.218783	0.660818
	H42	H	0.104224	0.788781	0.332527
	H43	H	0.905117	0.786080	0.660211
	H44	H	0.220950	0.340508	0.898616
	H45	H	0.221209	0.667208	0.095497
	H46	H	0.791271	0.340325	0.096066
	H47	H	0.790529	0.666610	0.896200
	H48	H	0.408741	0.121444	0.594038
	H49	H	0.593502	0.891786	0.582817
	H50	H	0.600693	0.118593	0.408698
	H51	H	0.413303	0.887398	0.403268
	H52	H	0.590982	0.407360	0.112072
	H53	H	0.590649	0.603929	0.880044
	H54	H	0.411027	0.598269	0.115038
	H55	H	0.417980	0.414096	0.882824
	H56	H	0.124016	0.599642	0.399017
	H57	H	0.887139	0.601516	0.586344
	H58	H	0.124696	0.400870	0.589631
	H59	H	0.887589	0.410084	0.402755
	H60	H	0.118771	0.411889	0.581701
	H61	H	0.891554	0.591773	0.583682
	H62	H	0.122395	0.600140	0.407541
	H63	H	0.888836	0.409210	0.406903
	H64	H	0.412455	0.592379	0.112935
	H65	H	0.608250	0.600409	0.875020
	H66	H	0.604301	0.404556	0.117480
	H67	H	0.414777	0.407911	0.878734
	H68	H	0.601860	0.122203	0.398309
	H69	H	0.605444	0.885392	0.589046
	H70	H	0.418110	0.117242	0.589592
	H71	H	0.411345	0.887783	0.405011
	H72	H	0.911486	0.620606	0.090810
	H73	H	0.100503	0.389146	0.085528
	H74	H	0.095871	0.619384	0.899475
	H75	H	0.915000	0.390190	0.910228
	H76	H	0.093776	0.913163	0.611022
	H77	H	0.096760	0.101978	0.378998
	H78	H	0.915362	0.106289	0.615829
	H79	H	0.906705	0.917441	0.380806
	H80	H	0.620432	0.093605	0.905464
	H81	H	0.385805	0.105287	0.089011
	H82	H	0.622134	0.912982	0.093535
	H83	H	0.390717	0.906347	0.914988
	H84	H	0.624614	0.905484	0.091399
	H85	H	0.392247	0.093929	0.079996
	H86	H	0.622214	0.096954	0.902033
	H87	H	0.391463	0.920316	0.903591
	H88	H	0.902029	0.090105	0.615351
	H89	H	0.101873	0.091893	0.379896
	H90	H	0.096233	0.903704	0.614926
	H91	H	0.920661	0.909995	0.382458
	H92	H	0.099534	0.618838	0.906462
	H93	H	0.101477	0.386060	0.093478
	H94	H	0.914798	0.618502	0.089100
	H95	H	0.908132	0.385566	0.902947
	H96	H	0.409228	0.117822	0.583182
	H97	H	0.592944	0.887294	0.597037
	H98	H	0.591897	0.117987	0.401384
	H99	H	0.410506	0.886570	0.402635
	H100	H	0.601609	0.418012	0.111933
	H101	H	0.597086	0.587166	0.882602
	H102	H	0.417033	0.597629	0.113657
	H103	H	0.411298	0.414330	0.880030
	H104	H	0.120659	0.592716	0.403321
	H105	H	0.887465	0.593068	0.594403
	H106	H	0.122772	0.414325	0.596164
	H107	H	0.889363	0.413344	0.404990
	H108	H	0.911007	0.618898	0.087176
	H109	H	0.094257	0.389411	0.091361
	H110	H	0.102738	0.621252	0.899275
	H111	H	0.918285	0.388256	0.900026
	H112	H	0.103570	0.911166	0.614672
	H113	H	0.091312	0.093016	0.383486
	H114	H	0.921181	0.088017	0.608265
	H115	H	0.907809	0.902820	0.376300
	H116	H	0.621302	0.097618	0.906684
	H117	H	0.388050	0.091157	0.095531
	H118	H	0.620553	0.910039	0.085113
	H119	H	0.385170	0.904773	0.898143
	C120	C	0.382915	0.011386	0.618661
	C121	C	0.626825	0.995458	0.618776
	C122	C	0.626720	0.011762	0.375087
	C123	C	0.382781	0.994893	0.374432
	C124	C	0.627755	0.381464	0.005451
	C125	C	0.627434	0.625053	0.987871
	C126	C	0.384423	0.624987	0.005251
	C127	C	0.385000	0.382586	0.988486
	C128	C	0.013905	0.625790	0.374631
	C129	C	0.996848	0.624019	0.616907
	C130	C	0.013953	0.380656	0.618593
	C131	C	0.996745	0.382191	0.375642
	C132	C	0.883881	0.511635	0.118265
	C133	C	0.127461	0.495918	0.118555
	C134	C	0.128306	0.512233	0.873994
	C135	C	0.884799	0.495609	0.874549
	C136	C	0.126289	0.881540	0.505145
	C137	C	0.126217	0.124484	0.489097
	C138	C	0.883661	0.124515	0.504778
	C139	C	0.883298	0.881370	0.488278
	C140	C	0.513522	0.125439	0.875589
	C141	C	0.496772	0.125116	0.117894
	C142	C	0.514074	0.880953	0.118438
	C143	C	0.497382	0.882105	0.876121
	C144	C	0.384945	0.888727	0.675130
	C145	C	0.624301	0.118253	0.673771
	C146	C	0.623535	0.888965	0.320857
	C147	C	0.385139	0.117531	0.318606
	C148	C	0.682680	0.384383	0.881850
	C149	C	0.682197	0.621364	0.111687
	C150	C	0.329457	0.622773	0.881772
	C151	C	0.328939	0.384211	0.111562
	C152	C	0.890901	0.681021	0.376402
	C153	C	0.120156	0.679935	0.615387
	C154	C	0.890694	0.325379	0.617430
	C155	C	0.119487	0.326023	0.376623
	C156	C	0.890542	0.383578	0.674036
	C157	C	0.120825	0.621333	0.671221
	C158	C	0.890401	0.622739	0.319693
	C159	C	0.120351	0.385093	0.320637
	C160	C	0.386289	0.680646	0.882047
	C161	C	0.625143	0.679117	0.111530
	C162	C	0.626057	0.326289	0.882343
	C163	C	0.385996	0.326401	0.111664
	C164	C	0.681336	0.888727	0.378680
	C165	C	0.682921	0.117730	0.616965
	C166	C	0.328035	0.888377	0.616599
	C167	C	0.327176	0.117426	0.376182
	C168	C	0.886163	0.389285	0.174572
	C169	C	0.125062	0.618387	0.173498
	C170	C	0.125061	0.389243	0.819878
	C171	C	0.886779	0.618106	0.818226
	C172	C	0.181525	0.883955	0.381744
	C173	C	0.181544	0.121703	0.612347
	C174	C	0.828393	0.122458	0.381342
	C175	C	0.828222	0.883259	0.612099
	C176	C	0.391189	0.182825	0.875925
	C177	C	0.620149	0.180154	0.116874
	C178	C	0.391072	0.825262	0.116697
	C179	C	0.620632	0.827106	0.877405
	C180	C	0.390223	0.884174	0.172906
	C181	C	0.620449	0.121457	0.172908
	C182	C	0.390345	0.123839	0.819531
	C183	C	0.620339	0.884949	0.819844
	C184	C	0.884539	0.181257	0.381776
	C185	C	0.124778	0.180292	0.611887
	C186	C	0.124208	0.826601	0.381749
	C187	C	0.885148	0.825005	0.611640
	C188	C	0.183228	0.389349	0.877419
	C189	C	0.182979	0.618354	0.115843
	C190	C	0.829048	0.389130	0.116155
	C191	C	0.829097	0.618099	0.876076
	C192	C	0.405527	0.096713	0.595788
	C193	C	0.604033	0.910211	0.596320
	C194	C	0.604648	0.097448	0.396563
	C195	C	0.405168	0.909308	0.397050
	C196	C	0.605501	0.403373	0.091517
	C197	C	0.605196	0.603508	0.901580
	C198	C	0.406830	0.602572	0.091693
	C199	C	0.407978	0.405321	0.902638
	C200	C	0.100146	0.603823	0.396858
	C201	C	0.910923	0.601901	0.594695
	C202	C	0.099902	0.402750	0.595886
	C203	C	0.910851	0.404542	0.398308
	C204	C	0.906128	0.597381	0.095724
	C205	C	0.105271	0.410137	0.096617
	C206	C	0.105981	0.597643	0.895556
	C207	C	0.907356	0.410210	0.897597
	C208	C	0.104196	0.903123	0.591302
	C209	C	0.103302	0.102094	0.403005
	C210	C	0.906308	0.101596	0.590835
	C211	C	0.905292	0.903509	0.402210
	C212	C	0.599202	0.102789	0.898092
	C213	C	0.410916	0.103156	0.095005
	C214	C	0.600186	0.902959	0.096483
	C215	C	0.411190	0.904141	0.899060
	Zn216	Zn	0.504975	0.003766	0.747048
	Zn217	Zn	0.504800	0.003522	0.245772
	Zn218	Zn	0.755456	0.503659	-0.003752
	Zn219	Zn	0.256560	0.503833	-0.003227
	Zn220	Zn	0.005210	0.753245	0.496527
	Zn221	Zn	0.004276	0.253052	0.497000
	Zn222	Zn	0.005901	0.503255	0.745301
	Zn223	Zn	0.005574	0.503704	0.247308
	Zn224	Zn	0.506153	0.752651	-0.003125
	Zn225	Zn	0.506153	0.254002	-0.002961
	Zn226	Zn	0.755379	0.003501	0.496863
	Zn227	Zn	0.254412	0.002825	0.496864
	N228	N	0.418216	0.966061	0.676812
	N229	N	0.589920	0.041209	0.674848
	N230	N	0.590226	0.966369	0.318540
	N231	N	0.418996	0.040445	0.317357
	N232	N	0.684141	0.417824	0.959479
	N233	N	0.683826	0.588351	0.033796
	N234	N	0.328314	0.588877	0.959532
	N235	N	0.328235	0.418478	0.034085
	N236	N	0.968733	0.682900	0.409680
	N237	N	0.042163	0.681804	0.582303
	N238	N	0.968327	0.323451	0.583596
	N239	N	0.041733	0.324052	0.410168
	N240	N	0.968305	0.417066	0.675121
	N241	N	0.043212	0.587397	0.672588
	N242	N	0.968073	0.589151	0.318375
	N243	N	0.042960	0.419474	0.320016
	N244	N	0.419774	0.682008	0.959988
	N245	N	0.591704	0.681287	0.033687
	N246	N	0.592807	0.324329	0.960215
	N247	N	0.420381	0.325494	0.034010
	N248	N	0.683394	0.966125	0.411661
	N249	N	0.684401	0.040537	0.583462
	N250	N	0.326731	0.965585	0.582177
	N251	N	0.325570	0.040009	0.410109
	N252	N	0.919602	0.466557	0.175875
	N253	N	0.091116	0.541219	0.174993
	N254	N	0.091845	0.466619	0.817484
	N255	N	0.920870	0.541062	0.817389
	N256	N	0.182869	0.917635	0.459297
	N257	N	0.182444	0.087831	0.534977
	N258	N	0.827796	0.087863	0.458740
	N259	N	0.826695	0.917470	0.534446
	N260	N	0.468700	0.183801	0.910194
	N261	N	0.542268	0.182557	0.083455
	N262	N	0.469004	0.823138	0.083649
	N263	N	0.543148	0.825208	0.911481
	N264	N	0.467636	0.918225	0.174129
	N265	N	0.542742	0.088023	0.173883
	N266	N	0.467336	0.088831	0.819244
	N267	N	0.542460	0.918468	0.818831
	N268	N	0.918163	0.182594	0.459632
	N269	N	0.091235	0.182338	0.533891
	N270	N	0.090838	0.824824	0.459528
	N271	N	0.918686	0.823611	0.533843
	N272	N	0.185100	0.466639	0.910604
	N273	N	0.184523	0.541141	0.082340
	N274	N	0.827527	0.466358	0.082016
	N275	N	0.827420	0.540827	0.910095
	O276	O	-0.007361	0.018630	-0.075024
	H277	H	-0.002004	0.015656	-0.082269
	H278	H	-0.015446	0.026308	-0.086440
	O279	O	0.529296	0.481312	0.480867
	H280	H	0.523176	0.481096	0.473374
	H281	H	0.528416	0.487031	0.468856
	O282	O	0.482605	0.428478	0.494715
	H283	H	0.487848	0.434624	0.490053
	H284	H	0.485615	0.424627	0.496906
	O285	O	1.012614	-0.051351	1.009850
	H286	H	1.003335	-0.047829	1.018365
	H287	H	1.006701	-0.047034	1.010159
	O288	O	1.005693	0.039655	-0.019847
	H289	H	1.012629	0.024925	-0.013640
	H290	H	1.005001	0.038348	-0.016263
	O291	O	0.518322	0.527371	0.450819
	H292	H	0.511604	0.525414	0.454177
	H293	H	0.530476	0.524530	0.447201
	O294	O	1.036677	0.019266	0.957008
	H295	H	1.035568	0.017941	0.950926
	H296	H	1.033995	0.021147	0.956525
	O297	O	-0.041961	0.082441	-0.083349
	H298	H	-0.035212	0.082732	-0.077836
	H299	H	-0.049460	0.083651	-0.083019
	O300	O	0.534668	0.441654	0.459623
	H301	H	0.530602	0.446734	0.450323
	H302	H	0.534788	0.438469	0.461910
	O303	O	0.443263	0.475329	0.500450
	H304	H	0.440709	0.482711	0.498379
	H305	H	0.441889	0.469535	0.500872
	O306	O	1.059139	0.035543	-0.059293
	H307	H	1.065304	0.028189	-0.059785
	H308	H	1.062053	0.023936	-0.052929
	O309	O	-0.019496	0.087833	1.076134
	H310	H	-0.022923	0.100642	1.077802
	H311	H	-0.012958	0.104612	1.067578
	O312	O	1.033291	1.034036	0.913446
	H313	H	1.034980	1.040752	0.902295
	H314	H	1.031119	1.029236	0.913513
	O315	O	0.566831	0.554824	0.455145
	H316	H	0.559742	0.551243	0.457939
	H317	H	0.563064	0.557635	0.462378
	O318	O	0.524531	0.518470	0.501115
	H319	H	0.520476	0.507196	0.501936
	H320	H	0.525812	0.515171	0.509604
	O321	O	-0.058063	1.025066	1.061378
	H322	H	-0.060554	1.017579	1.051435
	H323	H	-0.051810	1.028184	1.058223
	O324	O	0.553133	0.575895	0.476919
	H325	H	0.545115	0.575017	0.474375
	H326	H	0.557837	0.574659	0.468035
	O327	O	0.463779	0.499456	0.588062
	H328	H	0.471439	0.487157	0.593073
	H329	H	0.458159	0.500435	0.586492
	O330	O	0.486402	0.544899	0.487404
	H331	H	0.487039	0.547512	0.493336
	H332	H	0.482606	0.543185	0.480797
	O333	O	0.567417	0.553407	0.542269
	H334	H	0.575811	0.558490	0.544165
	H335	H	0.569360	0.559861	0.538917
	O336	O	0.478015	0.426239	0.514058
	H337	H	0.472373	0.429386	0.512288
	H338	H	0.483193	0.423657	0.516855
	O339	O	1.017055	1.068564	0.067916
	H340	H	1.018122	1.072809	0.070657
	H341	H	1.017788	1.066860	0.073078
	O342	O	0.484896	0.500050	0.568699
	H343	H	0.490136	0.501304	0.563301
	H344	H	0.487734	0.507728	0.568555
	O345	O	0.487580	0.485276	0.520427
	H346	H	0.487794	0.486145	0.524644
	H347	H	0.483700	0.487472	0.522874
	O348	O	-0.003606	-0.007791	0.031068
	H349	H	-0.001456	-0.012681	0.030904
	H350	H	-0.009730	-0.007296	0.035761
	O351	O	-0.066694	0.967940	1.097701
	H352	H	-0.057145	0.972597	1.096481
	H353	H	-0.070459	0.974551	1.100340
	O354	O	0.442270	0.461857	0.465630
	H355	H	0.442670	0.466839	0.473709
	H356	H	0.444942	0.458883	0.464384
	O357	O	0.004948	1.014124	0.976639
	H358	H	0.003153	1.022014	0.978795
	H359	H	0.006185	1.004918	0.969977
