data_Molecule from HDF5

_cell_length_a		16.334435
_cell_length_b		16.337118
_cell_length_c		16.331131
_cell_angle_alpha	90.030254
_cell_angle_beta	90.099344
_cell_angle_gamma	89.953087
_symmetry_space_group_name_H-M	'P 1'
_symmetry_Int_Tables_number		1

loop_
	_symmetry_equiv_pos_as_xyz
	x,y,z

loop_
	_atom_site_label
	_atom_site_type_symbol
	_atom_site_fract_x
	_atom_site_fract_y
	_atom_site_fract_z
	H0	H	0.401911	0.836862	0.713393
	H1	H	0.598931	0.163181	0.715375
	H2	H	0.597713	0.836935	0.285209
	H3	H	0.401617	0.163766	0.285459
	H4	H	0.713841	0.402041	0.836316
	H5	H	0.714082	0.597167	0.163044
	H6	H	0.284961	0.598266	0.837352
	H7	H	0.285717	0.401767	0.163555
	H8	H	0.837348	0.714083	0.402379
	H9	H	0.162876	0.714124	0.598996
	H10	H	0.836658	0.285183	0.597828
	H11	H	0.163914	0.286189	0.403195
	H12	H	0.836108	0.402156	0.713619
	H13	H	0.163295	0.596214	0.713753
	H14	H	0.836803	0.598276	0.285740
	H15	H	0.163401	0.401873	0.285421
	H16	H	0.401430	0.714132	0.836726
	H17	H	0.598146	0.714026	0.163020
	H18	H	0.599226	0.284557	0.837461
	H19	H	0.402953	0.285621	0.163444
	H20	H	0.713673	0.836566	0.402495
	H21	H	0.715084	0.162968	0.598706
	H22	H	0.286241	0.837040	0.596804
	H23	H	0.285393	0.163224	0.401636
	H24	H	0.902865	0.336515	0.214090
	H25	H	0.097936	0.663421	0.214831
	H26	H	0.096962	0.336922	0.785995
	H27	H	0.902285	0.663714	0.786202
	H28	H	0.213114	0.902748	0.336591
	H29	H	0.215481	0.097629	0.663023
	H30	H	0.786506	0.097873	0.336991
	H31	H	0.785596	0.902276	0.663233
	H32	H	0.336448	0.215331	0.900088
	H33	H	0.662819	0.213876	0.097962
	H34	H	0.336286	0.786062	0.097238
	H35	H	0.662865	0.785105	0.901565
	H36	H	0.336776	0.902414	0.214475
	H37	H	0.662889	0.097584	0.214664
	H38	H	0.336951	0.097869	0.784620
	H39	H	0.663463	0.902231	0.785687
	H40	H	0.902101	0.214562	0.337075
	H41	H	0.098173	0.213282	0.664216
	H42	H	0.098452	0.784303	0.337454
	H43	H	0.903110	0.786562	0.663886
	H44	H	0.213548	0.336137	0.902498
	H45	H	0.214197	0.663598	0.098247
	H46	H	0.785687	0.336440	0.097147
	H47	H	0.785854	0.663471	0.902414
	H48	H	0.407464	0.116958	0.597813
	H49	H	0.601712	0.879209	0.601380
	H50	H	0.598504	0.115250	0.412469
	H51	H	0.405829	0.883165	0.403361
	H52	H	0.606761	0.408970	0.119016
	H53	H	0.594196	0.598114	0.881960
	H54	H	0.407589	0.592154	0.115667
	H55	H	0.409209	0.400880	0.883616
	H56	H	0.114360	0.591991	0.412327
	H57	H	0.889555	0.589729	0.579796
	H58	H	0.111169	0.412861	0.585710
	H59	H	0.884096	0.406149	0.405823
	H60	H	0.117264	0.411180	0.603693
	H61	H	0.882932	0.583983	0.605765
	H62	H	0.115771	0.588931	0.404111
	H63	H	0.884534	0.405968	0.407427
	H64	H	0.407430	0.595173	0.116317
	H65	H	0.596533	0.590472	0.883941
	H66	H	0.585408	0.416943	0.110271
	H67	H	0.400201	0.407241	0.882697
	H68	H	0.595247	0.119092	0.399261
	H69	H	0.581954	0.887007	0.596027
	H70	H	0.410533	0.114236	0.590017
	H71	H	0.408496	0.885118	0.406137
	H72	H	0.912847	0.615405	0.099752
	H73	H	0.094335	0.385745	0.087535
	H74	H	0.095048	0.619548	0.897430
	H75	H	0.905071	0.383836	0.908454
	H76	H	0.088860	0.908181	0.614240
	H77	H	0.095479	0.098090	0.382178
	H78	H	0.904246	0.092763	0.617065
	H79	H	0.904654	0.905988	0.382926
	H80	H	0.614776	0.090172	0.906950
	H81	H	0.383107	0.095678	0.094515
	H82	H	0.618413	0.903865	0.100049
	H83	H	0.382751	0.904495	0.901604
	H84	H	0.615424	0.901221	0.087558
	H85	H	0.384408	0.093506	0.089573
	H86	H	0.616361	0.094428	0.905880
	H87	H	0.384201	0.903338	0.909594
	H88	H	0.908766	0.090888	0.614663
	H89	H	0.095925	0.089654	0.384835
	H90	H	0.095148	0.901495	0.618429
	H91	H	0.906417	0.907260	0.384628
	H92	H	0.083836	0.612306	0.908815
	H93	H	0.098360	0.382079	0.096219
	H94	H	0.908833	0.612427	0.084603
	H95	H	0.906768	0.383936	0.905368
	H96	H	0.402407	0.116841	0.590849
	H97	H	0.597758	0.887254	0.581213
	H98	H	0.585149	0.113068	0.407755
	H99	H	0.404693	0.883488	0.407301
	H100	H	0.587817	0.394197	0.117493
	H101	H	0.589106	0.593098	0.885436
	H102	H	0.404865	0.593756	0.117380
	H103	H	0.409551	0.411547	0.886811
	H104	H	0.118135	0.596900	0.405773
	H105	H	0.877687	0.609258	0.595872
	H106	H	0.118415	0.396211	0.592027
	H107	H	0.884621	0.407206	0.406484
	H108	H	0.897891	0.618427	0.094649
	H109	H	0.088551	0.385208	0.095948
	H110	H	0.100500	0.615680	0.913657
	H111	H	0.908712	0.385445	0.907827
	H112	H	0.098087	0.910861	0.616085
	H113	H	0.088250	0.094023	0.385170
	H114	H	0.908821	0.095623	0.617193
	H115	H	0.906868	0.905128	0.383457
	H116	H	0.614257	0.093654	0.910130
	H117	H	0.384333	0.090275	0.094301
	H118	H	0.614144	0.913646	0.092418
	H119	H	0.384814	0.911213	0.905960
	C120	C	0.378829	0.008307	0.620806
	C121	C	0.622037	0.991929	0.621563
	C122	C	0.621060	0.008169	0.378295
	C123	C	0.378295	0.991961	0.377758
	C124	C	0.622260	0.378046	0.008205
	C125	C	0.621111	0.621393	0.991699
	C126	C	0.378511	0.621649	0.008428
	C127	C	0.378409	0.378190	0.992271
	C128	C	0.008495	0.621510	0.378587
	C129	C	0.991273	0.622145	0.622148
	C130	C	0.007895	0.378168	0.622100
	C131	C	0.992423	0.378406	0.378601
	C132	C	0.878332	0.508010	0.121303
	C133	C	0.121936	0.492287	0.121737
	C134	C	0.121402	0.507952	0.878666
	C135	C	0.878148	0.491861	0.878520
	C136	C	0.121885	0.878519	0.508472
	C137	C	0.122005	0.122109	0.491848
	C138	C	0.878621	0.121704	0.508459
	C139	C	0.878430	0.878441	0.491827
	C140	C	0.507635	0.121704	0.878245
	C141	C	0.491551	0.121584	0.121402
	C142	C	0.508116	0.878140	0.121652
	C143	C	0.491964	0.878165	0.877881
	C144	C	0.381674	0.885571	0.675313
	C145	C	0.619659	0.114367	0.677193
	C146	C	0.618510	0.885419	0.323295
	C147	C	0.380989	0.114873	0.323041
	C148	C	0.676620	0.381050	0.885353
	C149	C	0.676113	0.618032	0.114541
	C150	C	0.323032	0.618957	0.885889
	C151	C	0.323701	0.380820	0.114711
	C152	C	0.885985	0.676703	0.381181
	C153	C	0.114385	0.676189	0.619437
	C154	C	0.885045	0.323609	0.618489
	C155	C	0.115187	0.323807	0.381877
	C156	C	0.884941	0.381433	0.676137
	C157	C	0.114573	0.617714	0.676291
	C158	C	0.885785	0.618993	0.323557
	C159	C	0.114969	0.381139	0.323480
	C160	C	0.381048	0.676335	0.885452
	C161	C	0.618554	0.676022	0.114555
	C162	C	0.619149	0.323216	0.885664
	C163	C	0.381642	0.323137	0.114985
	C164	C	0.675994	0.885310	0.381657
	C165	C	0.677177	0.114599	0.619140
	C166	C	0.324263	0.885539	0.617200
	C167	C	0.323234	0.114647	0.380747
	C168	C	0.881714	0.385061	0.176095
	C169	C	0.118488	0.614842	0.176807
	C170	C	0.118099	0.385370	0.823697
	C171	C	0.881511	0.614945	0.824038
	C172	C	0.175936	0.881610	0.385239
	C173	C	0.177073	0.118608	0.614754
	C174	C	0.823690	0.119032	0.385795
	C175	C	0.823814	0.881639	0.614818
	C176	C	0.385024	0.176660	0.880285
	C177	C	0.614407	0.176065	0.118984
	C178	C	0.385147	0.823715	0.118191
	C179	C	0.614501	0.823278	0.880959
	C180	C	0.385118	0.881640	0.175959
	C181	C	0.614206	0.118665	0.176882
	C182	C	0.385391	0.118794	0.822522
	C183	C	0.614502	0.881109	0.823265
	C184	C	0.881516	0.176687	0.385844
	C185	C	0.119220	0.176185	0.615218
	C186	C	0.119014	0.822931	0.385807
	C187	C	0.882034	0.824173	0.615000
	C188	C	0.175348	0.385017	0.882137
	C189	C	0.176536	0.614834	0.119087
	C190	C	0.823436	0.385025	0.118484
	C191	C	0.823484	0.614797	0.881466
	C192	C	0.400564	0.094135	0.599291
	C193	C	0.600192	0.906517	0.599521
	C194	C	0.599299	0.093882	0.400122
	C195	C	0.400148	0.905980	0.399228
	C196	C	0.599999	0.400114	0.093638
	C197	C	0.599525	0.599989	0.905855
	C198	C	0.400509	0.599829	0.094419
	C199	C	0.400102	0.400115	0.906462
	C200	C	0.093982	0.599222	0.400865
	C201	C	0.905525	0.600744	0.600224
	C202	C	0.093423	0.400142	0.600189
	C203	C	0.906533	0.399935	0.400257
	C204	C	0.900087	0.593194	0.099365
	C205	C	0.100194	0.406506	0.099676
	C206	C	0.099679	0.593827	0.900353
	C207	C	0.900281	0.406590	0.900693
	C208	C	0.100350	0.900325	0.594098
	C209	C	0.099849	0.100423	0.406129
	C210	C	0.900684	0.099583	0.594307
	C211	C	0.899733	0.899826	0.405963
	C212	C	0.593169	0.099477	0.901036
	C213	C	0.405982	0.099577	0.099188
	C214	C	0.593751	0.899846	0.099932
	C215	C	0.405937	0.899785	0.899441
	Zn216	Zn	0.499918	0.000107	0.749610
	Zn217	Zn	0.499755	0.000039	0.249382
	Zn218	Zn	0.749624	0.500010	-0.000268
	Zn219	Zn	0.250325	0.500119	0.000263
	Zn220	Zn	0.000268	0.749892	0.500264
	Zn221	Zn	0.000403	0.250012	0.500650
	Zn222	Zn	-0.000663	0.500065	0.750112
	Zn223	Zn	-0.000167	0.500077	0.250099
	Zn224	Zn	0.500029	0.749876	-0.000092
	Zn225	Zn	0.499870	0.249989	0.000012
	Zn226	Zn	0.750080	0.000147	0.499695
	Zn227	Zn	0.250086	0.000242	0.499781
	N228	N	0.414987	0.962850	0.677580
	N229	N	0.585895	0.037263	0.678599
	N230	N	0.585140	0.962671	0.321350
	N231	N	0.414634	0.037558	0.321265
	N232	N	0.678380	0.414674	0.962473
	N233	N	0.677713	0.584805	0.037188
	N234	N	0.321494	0.585652	0.963274
	N235	N	0.321562	0.414076	0.037471
	N236	N	0.963097	0.678222	0.414948
	N237	N	0.036904	0.678976	0.586458
	N238	N	0.962440	0.321645	0.585472
	N239	N	0.037996	0.322057	0.415470
	N240	N	0.962310	0.414909	0.678268
	N241	N	0.037062	0.584795	0.678086
	N242	N	0.962937	0.585203	0.322053
	N243	N	0.037554	0.414413	0.321350
	N244	N	0.414956	0.678067	0.962637
	N245	N	0.585097	0.678166	0.037255
	N246	N	0.585963	0.321097	0.963011
	N247	N	0.415193	0.321604	0.037730
	N248	N	0.677832	0.962717	0.415033
	N249	N	0.678854	0.037536	0.585292
	N250	N	0.322427	0.962965	0.584053
	N251	N	0.321346	0.037271	0.413997
	N252	N	0.915250	0.462245	0.177900
	N253	N	0.085137	0.537526	0.178509
	N254	N	0.085163	0.462751	0.821615
	N255	N	0.914878	0.537656	0.822195
	N256	N	0.177888	0.915412	0.462445
	N257	N	0.178836	0.085713	0.537159
	N258	N	0.822127	0.085401	0.462948
	N259	N	0.821495	0.914622	0.537385
	N260	N	0.462214	0.178514	0.914372
	N261	N	0.537287	0.177931	0.085196
	N262	N	0.462439	0.821706	0.084933
	N263	N	0.537126	0.821355	0.914211
	N264	N	0.462540	0.914724	0.178121
	N265	N	0.536867	0.085229	0.178195
	N266	N	0.462616	0.085246	0.821311
	N267	N	0.537269	0.914501	0.821307
	N268	N	0.914869	0.178498	0.463301
	N269	N	0.085595	0.178313	0.537938
	N270	N	0.085991	0.821039	0.463167
	N271	N	0.915130	0.821978	0.537531
	N272	N	0.177494	0.462352	0.915620
	N273	N	0.178650	0.537594	0.085662
	N274	N	0.821110	0.462367	0.085288
	N275	N	0.821256	0.537413	0.914613
