data_Molecule from HDF5

_cell_length_a		16.370770
_cell_length_b		16.513886
_cell_length_c		16.401655
_cell_angle_alpha	89.884874
_cell_angle_beta	90.021896
_cell_angle_gamma	89.967323
_symmetry_space_group_name_H-M	'P 1'
_symmetry_Int_Tables_number		1

loop_
	_symmetry_equiv_pos_as_xyz
	x,y,z

loop_
	_atom_site_label
	_atom_site_type_symbol
	_atom_site_fract_x
	_atom_site_fract_y
	_atom_site_fract_z
	H0	H	0.390422	0.846689	0.717560
	H1	H	0.594951	0.164124	0.711936
	H2	H	0.599537	0.846231	0.273756
	H3	H	0.389611	0.162065	0.274029
	H4	H	0.711946	0.405305	0.836778
	H5	H	0.713455	0.608214	0.156970
	H6	H	0.275446	0.607643	0.837174
	H7	H	0.275735	0.402300	0.156122
	H8	H	0.835097	0.726650	0.390516
	H9	H	0.154055	0.724340	0.598934
	H10	H	0.835138	0.285251	0.601480
	H11	H	0.151846	0.283668	0.390047
	H12	H	0.834571	0.403937	0.714933
	H13	H	0.154449	0.606525	0.713491
	H14	H	0.834701	0.610657	0.275197
	H15	H	0.152222	0.402036	0.276230
	H16	H	0.389499	0.726204	0.838365
	H17	H	0.600622	0.726932	0.155124
	H18	H	0.596812	0.287995	0.836256
	H19	H	0.389797	0.284046	0.153903
	H20	H	0.714984	0.846380	0.390933
	H21	H	0.712344	0.163016	0.596062
	H22	H	0.274304	0.845302	0.598559
	H23	H	0.272961	0.162829	0.391069
	H24	H	0.890002	0.347319	0.217811
	H25	H	0.099059	0.663899	0.217592
	H26	H	0.098055	0.348374	0.776451
	H27	H	0.891459	0.665144	0.776308
	H28	H	0.214272	0.900670	0.335560
	H29	H	0.211556	0.105270	0.655759
	H30	H	0.775914	0.106895	0.334495
	H31	H	0.776901	0.903725	0.656011
	H32	H	0.333577	0.222907	0.894037
	H33	H	0.653398	0.225707	0.100151
	H34	H	0.336000	0.782361	0.103907
	H35	H	0.653492	0.784913	0.892526
	H36	H	0.335200	0.899802	0.216846
	H37	H	0.653683	0.108017	0.215427
	H38	H	0.332749	0.103948	0.780469
	H39	H	0.655245	0.903130	0.777917
	H40	H	0.887907	0.227822	0.336830
	H41	H	0.097790	0.223928	0.655304
	H42	H	0.100480	0.783313	0.336964
	H43	H	0.891150	0.785770	0.655874
	H44	H	0.212243	0.346847	0.895614
	H45	H	0.216976	0.663230	0.102426
	H46	H	0.773850	0.346798	0.100566
	H47	H	0.775471	0.665789	0.895100
	H48	H	0.400648	0.120868	0.594196
	H49	H	0.589029	0.888860	0.587188
	H50	H	0.589293	0.118587	0.407258
	H51	H	0.403034	0.893257	0.411315
	H52	H	0.587574	0.413123	0.112557
	H53	H	0.581879	0.586603	0.887116
	H54	H	0.407617	0.598819	0.111598
	H55	H	0.402411	0.413546	0.881156
	H56	H	0.103451	0.589672	0.412884
	H57	H	0.880553	0.595502	0.584374
	H58	H	0.107761	0.420273	0.589505
	H59	H	0.881258	0.417863	0.410360
	H60	H	0.112151	0.408917	0.590862
	H61	H	0.878949	0.595178	0.586828
	H62	H	0.109558	0.592368	0.398341
	H63	H	0.879895	0.418462	0.406755
	H64	H	0.401517	0.592793	0.111642
	H65	H	0.575728	0.601701	0.884086
	H66	H	0.582291	0.418208	0.109384
	H67	H	0.402551	0.415331	0.880904
	H68	H	0.581565	0.117960	0.400177
	H69	H	0.583405	0.889767	0.591400
	H70	H	0.409253	0.115405	0.584962
	H71	H	0.402832	0.890412	0.403988
	H72	H	0.902327	0.618792	0.086682
	H73	H	0.079168	0.395236	0.083658
	H74	H	0.078225	0.618282	0.904899
	H75	H	0.902032	0.394188	0.911254
	H76	H	0.075758	0.917327	0.606058
	H77	H	0.081777	0.093570	0.383147
	H78	H	0.911429	0.101711	0.608385
	H79	H	0.902030	0.918418	0.382159
	H80	H	0.607938	0.095378	0.905413
	H81	H	0.381690	0.090068	0.084734
	H82	H	0.606572	0.912717	0.079003
	H83	H	0.378908	0.913942	0.901839
	H84	H	0.605202	0.921542	0.084718
	H85	H	0.378859	0.097103	0.087745
	H86	H	0.609650	0.097764	0.901113
	H87	H	0.380606	0.911571	0.910933
	H88	H	0.895239	0.098080	0.612097
	H89	H	0.081336	0.098176	0.381338
	H90	H	0.083744	0.907300	0.611437
	H91	H	0.910615	0.914635	0.383489
	H92	H	0.086617	0.617831	0.911859
	H93	H	0.089092	0.392127	0.084573
	H94	H	0.905825	0.617980	0.087189
	H95	H	0.899196	0.390998	0.901550
	H96	H	0.395995	0.118286	0.581295
	H97	H	0.583385	0.891816	0.584443
	H98	H	0.580224	0.113990	0.409239
	H99	H	0.409913	0.893214	0.406703
	H100	H	0.580244	0.410895	0.110956
	H101	H	0.591537	0.598218	0.880102
	H102	H	0.408622	0.591202	0.107867
	H103	H	0.403511	0.414212	0.881817
	H104	H	0.110502	0.603797	0.409098
	H105	H	0.879806	0.597489	0.584928
	H106	H	0.107351	0.411945	0.579772
	H107	H	0.879232	0.414664	0.408509
	H108	H	0.904696	0.617449	0.083440
	H109	H	0.082356	0.391890	0.092846
	H110	H	0.087860	0.622106	0.901883
	H111	H	0.908975	0.393894	0.903683
	H112	H	0.089531	0.919078	0.608787
	H113	H	0.085341	0.096003	0.380716
	H114	H	0.905557	0.086294	0.605439
	H115	H	0.903675	0.909600	0.380693
	H116	H	0.609773	0.099891	0.905984
	H117	H	0.381081	0.096405	0.079763
	H118	H	0.609837	0.913485	0.088759
	H119	H	0.382590	0.920746	0.908150
	C120	C	0.371406	0.012981	0.618009
	C121	C	0.615757	0.995555	0.617316
	C122	C	0.616146	0.012888	0.373168
	C123	C	0.372938	0.996350	0.374958
	C124	C	0.614893	0.384165	0.005161
	C125	C	0.615597	0.626960	0.988590
	C126	C	0.373540	0.626275	0.005412
	C127	C	0.372251	0.383448	0.987024
	C128	C	0.002714	0.627597	0.374697
	C129	C	0.985763	0.626405	0.616332
	C130	C	0.003389	0.383207	0.618413
	C131	C	0.984940	0.384982	0.376088
	C132	C	0.872194	0.513730	0.118301
	C133	C	0.115891	0.497450	0.118744
	C134	C	0.115418	0.514593	0.875314
	C135	C	0.872323	0.497993	0.874439
	C136	C	0.115194	0.883028	0.503560
	C137	C	0.114641	0.126512	0.487040
	C138	C	0.872266	0.126938	0.503320
	C139	C	0.873605	0.883198	0.487490
	C140	C	0.502818	0.127522	0.874120
	C141	C	0.485910	0.126257	0.116256
	C142	C	0.502648	0.883455	0.117186
	C143	C	0.486080	0.883954	0.875251
	C144	C	0.371100	0.893695	0.677266
	C145	C	0.615426	0.115821	0.674093
	C146	C	0.618113	0.893880	0.313632
	C147	C	0.370943	0.115083	0.314564
	C148	C	0.673213	0.385068	0.884690
	C149	C	0.674554	0.627545	0.108793
	C150	C	0.314513	0.627272	0.885106
	C151	C	0.314468	0.382792	0.107753
	C152	C	0.882724	0.686828	0.372409
	C153	C	0.106325	0.684515	0.617451
	C154	C	0.883153	0.324829	0.619953
	C155	C	0.104166	0.324209	0.372545
	C156	C	0.882815	0.383622	0.676624
	C157	C	0.106661	0.626147	0.674364
	C158	C	0.882412	0.629155	0.315103
	C159	C	0.104725	0.383012	0.315862
	C160	C	0.371103	0.686260	0.885888
	C161	C	0.618234	0.686527	0.108053
	C162	C	0.615979	0.326841	0.884490
	C163	C	0.371131	0.324193	0.106731
	C164	C	0.675276	0.893631	0.372214
	C165	C	0.673377	0.115454	0.616124
	C166	C	0.313299	0.893267	0.618407
	C167	C	0.312725	0.115344	0.372408
	C168	C	0.871185	0.394602	0.177913
	C169	C	0.117842	0.616390	0.178120
	C170	C	0.116699	0.395456	0.816413
	C171	C	0.871933	0.617783	0.816097
	C172	C	0.174665	0.881973	0.383592
	C173	C	0.172858	0.125399	0.607588
	C174	C	0.814191	0.126943	0.382991
	C175	C	0.815300	0.883422	0.607928
	C176	C	0.381804	0.184096	0.874713
	C177	C	0.605555	0.185865	0.118598
	C178	C	0.383526	0.822469	0.121243
	C179	C	0.605916	0.824699	0.873468
	C180	C	0.383068	0.880972	0.177551
	C181	C	0.605787	0.127333	0.175966
	C182	C	0.381304	0.125131	0.818078
	C183	C	0.606918	0.883695	0.816732
	C184	C	0.870157	0.186937	0.384032
	C185	C	0.116158	0.184264	0.607334
	C186	C	0.117769	0.823646	0.384017
	C187	C	0.872057	0.824813	0.607705
	C188	C	0.173528	0.394860	0.875500
	C189	C	0.176602	0.615850	0.120815
	C190	C	0.813565	0.394433	0.119509
	C191	C	0.814134	0.617819	0.874800
	C192	C	0.395114	0.096408	0.593849
	C193	C	0.592082	0.911974	0.594328
	C194	C	0.590946	0.095204	0.398179
	C195	C	0.398031	0.913822	0.400190
	C196	C	0.590608	0.407300	0.089189
	C197	C	0.590504	0.602540	0.905236
	C198	C	0.398544	0.601614	0.088746
	C199	C	0.395997	0.407614	0.903179
	C200	C	0.086065	0.602574	0.399407
	C201	C	0.901789	0.602877	0.592322
	C202	C	0.087301	0.406929	0.593941
	C203	C	0.901890	0.409983	0.401182
	C204	C	0.897087	0.596686	0.093132
	C205	C	0.090777	0.414550	0.094215
	C206	C	0.091083	0.597733	0.899357
	C207	C	0.896490	0.414744	0.898502
	C208	C	0.090287	0.907552	0.587045
	C209	C	0.089905	0.102798	0.403341
	C210	C	0.897106	0.102563	0.586863
	C211	C	0.898214	0.907173	0.403881
	C212	C	0.587415	0.104348	0.897399
	C213	C	0.402265	0.101534	0.091271
	C214	C	0.585611	0.908657	0.091447
	C215	C	0.402350	0.908359	0.899809
	Zn216	Zn	0.494329	0.005265	0.746576
	Zn217	Zn	0.493896	0.004626	0.244828
	Zn218	Zn	0.743373	0.505554	-0.003247
	Zn219	Zn	0.244475	0.505559	-0.003037
	Zn220	Zn	-0.005607	0.754779	0.495875
	Zn221	Zn	-0.006316	0.255816	0.496002
	Zn222	Zn	-0.005659	0.506207	0.745291
	Zn223	Zn	-0.006258	0.505779	0.247149
	Zn224	Zn	0.494459	0.755290	-0.003193
	Zn225	Zn	0.493826	0.255750	-0.004483
	Zn226	Zn	0.744728	0.004058	0.494903
	Zn227	Zn	0.242795	0.004261	0.495033
	N228	N	0.406567	0.969090	0.677049
	N229	N	0.580492	0.040236	0.675317
	N230	N	0.581882	0.968930	0.314127
	N231	N	0.407425	0.040269	0.315861
	N232	N	0.672599	0.419876	0.960747
	N233	N	0.672993	0.591104	0.033461
	N234	N	0.315828	0.590776	0.960348
	N235	N	0.315117	0.419359	0.032478
	N236	N	0.958436	0.686006	0.408519
	N237	N	0.030299	0.684712	0.581975
	N238	N	0.959294	0.324157	0.584745
	N239	N	0.028767	0.325453	0.409244
	N240	N	0.958639	0.419049	0.675995
	N241	N	0.030764	0.590738	0.673760
	N242	N	0.958048	0.592978	0.316032
	N243	N	0.029748	0.420206	0.317976
	N244	N	0.407053	0.685747	0.961713
	N245	N	0.582421	0.686300	0.032296
	N246	N	0.580786	0.325938	0.960550
	N247	N	0.406257	0.324575	0.030819
	N248	N	0.674330	0.968438	0.408563
	N249	N	0.673885	0.039573	0.581854
	N250	N	0.313360	0.968544	0.582464
	N251	N	0.313874	0.040572	0.409290
	N252	N	0.906885	0.470077	0.177149
	N253	N	0.080806	0.541737	0.176997
	N254	N	0.081303	0.470846	0.816063
	N255	N	0.907269	0.542150	0.815651
	N256	N	0.173227	0.918156	0.458969
	N257	N	0.172063	0.090188	0.531796
	N258	N	0.815605	0.090148	0.458185
	N259	N	0.816129	0.919145	0.532144
	N260	N	0.458574	0.185766	0.908415
	N261	N	0.529875	0.185348	0.082354
	N262	N	0.458873	0.824041	0.084276
	N263	N	0.529957	0.824822	0.908966
	N264	N	0.457926	0.918311	0.175203
	N265	N	0.530375	0.090927	0.174451
	N266	N	0.457715	0.090800	0.817452
	N267	N	0.531177	0.919889	0.817647
	N268	N	0.905436	0.187034	0.460043
	N269	N	0.080928	0.185323	0.531223
	N270	N	0.081439	0.824257	0.459577
	N271	N	0.907359	0.824424	0.531760
	N272	N	0.172643	0.469837	0.911681
	N273	N	0.175646	0.540748	0.084988
	N274	N	0.813984	0.469517	0.083435
	N275	N	0.814452	0.542517	0.910517
	O276	O	0.566596	0.547797	0.548757
	H277	H	0.564990	0.544393	0.553282
	H278	H	0.562194	0.561559	0.560185
	O279	O	0.553483	0.482840	0.380107
	H280	H	0.563948	0.474011	0.399181
	H281	H	0.557083	0.494233	0.363518
	O282	O	0.321749	0.584323	0.508856
	H283	H	0.330383	0.581736	0.511086
	H284	H	0.322584	0.585474	0.502743
	O285	O	1.383915	1.393785	0.318009
	H286	H	1.400269	1.384876	0.315217
	H287	H	1.381431	1.387216	0.307450
	O288	O	0.615216	0.687034	0.439779
	H289	H	0.610403	0.690849	0.439820
	H290	H	0.630033	0.673482	0.456996
	O291	O	0.518533	0.501801	0.508032
	H292	H	0.509351	0.504084	0.513718
	H293	H	0.519381	0.505318	0.521482
	O294	O	0.907903	0.904646	1.029963
	H295	H	0.910429	0.920668	1.028763
	H296	H	0.899972	0.909273	1.035211
	O297	O	0.422381	0.352434	0.700439
	H298	H	0.415877	0.342263	0.718211
	H299	H	0.386098	0.345954	0.686648
	O300	O	-0.091006	-0.091344	-0.050723
	H301	H	-0.087280	-0.095174	-0.047115
	H302	H	-0.087331	-0.090292	-0.046839
	O303	O	0.718507	0.274508	0.728014
	H304	H	0.698622	0.265434	0.712208
	H305	H	0.730442	0.300446	0.719376
	O306	O	-0.107139	-0.003438	1.177061
	H307	H	-0.112755	-0.027220	1.174968
	H308	H	-0.110202	-0.009688	1.182850
	O309	O	1.032263	0.123959	-0.128007
	H310	H	1.025808	0.132178	-0.140042
	H311	H	1.027370	0.118933	-0.116225
	O312	O	0.514419	0.622226	0.613684
	H313	H	0.510827	0.617859	0.608857
	H314	H	0.511068	0.619860	0.620515
	O315	O	0.308703	0.512819	0.292953
	H316	H	0.301550	0.520240	0.280176
	H317	H	0.309717	0.532146	0.280219
	O318	O	0.344746	-0.574882	0.507073
	H319	H	0.347874	-0.595397	0.489350
	H320	H	0.324392	-0.578783	0.523437
	O321	O	0.487343	0.354479	0.524039
	H322	H	0.476522	0.341563	0.514539
	H323	H	0.479935	0.335232	0.527452
	O324	O	0.825249	-0.187684	1.055941
	H325	H	0.838932	-0.187601	1.069652
	H326	H	0.817348	-0.207438	1.058002
	O327	O	0.164468	0.958757	0.842869
	H328	H	0.186353	0.961769	0.821144
	H329	H	0.158260	0.933318	0.843230
	O330	O	0.066763	0.997008	0.947082
	H331	H	0.050901	1.002180	0.956942
	H332	H	0.058744	1.005410	0.936697
	O333	O	0.571034	0.437544	-0.702648
	H334	H	0.570259	0.424987	-0.707832
	H335	H	0.580777	0.442194	-0.682559
	O336	O	1.017950	1.161333	0.032763
	H337	H	1.021201	1.160190	0.031641
	H338	H	1.000454	1.166822	0.032723
	O339	O	-0.097835	1.046603	0.990907
	H340	H	-0.102203	1.040251	1.004561
	H341	H	-0.102129	1.051135	0.987155
	O342	O	0.424134	0.514313	0.602581
	H343	H	0.409281	0.490769	0.606626
	H344	H	0.433450	0.513140	0.591904
	O345	O	-0.002018	-0.093043	1.107115
	H346	H	0.004394	-0.090906	1.107504
	H347	H	-0.007667	-0.109333	1.098252
	O348	O	0.361358	0.693284	0.310819
	H349	H	0.370426	0.708032	0.323338
	H350	H	0.382660	0.697959	0.323327
	O351	O	1.130233	1.193395	-0.042871
	H352	H	1.126649	1.195629	-0.049532
	H353	H	1.132583	1.192805	-0.046588
	O354	O	0.468619	0.622946	1.652367
	H355	H	0.462565	0.611294	1.645543
	H356	H	0.466002	0.620797	1.653333
	O357	O	0.015092	-0.130546	0.111937
	H358	H	0.016381	-0.137036	0.111546
	H359	H	0.033915	-0.129912	0.106039
	O360	O	0.781043	0.041335	0.845471
	H361	H	0.763527	0.027689	0.833574
	H362	H	0.775446	0.023812	0.853432
	O363	O	0.951150	0.001909	-0.159845
	H364	H	0.961580	0.002975	-0.153965
	H365	H	0.936548	-0.000774	-0.152033
	O366	O	-0.035504	0.159717	1.162967
	H367	H	-0.053104	0.143642	1.148229
	H368	H	-0.048128	0.179203	1.159793
	O369	O	1.146064	-0.071015	0.960400
	H370	H	1.156977	-0.075811	0.970452
	H371	H	1.150603	-0.068438	0.983571
	O372	O	0.619654	0.399859	0.414419
	H373	H	0.613220	0.398903	0.410424
	H374	H	0.615461	0.407888	0.422088
	O375	O	-0.011088	0.004053	1.144942
	H376	H	-0.009206	0.004582	1.151902
	H377	H	0.002959	0.003540	1.132595
	O378	O	0.556507	0.444238	0.474539
	H379	H	0.557993	0.444782	0.477075
	H380	H	0.572689	0.441131	0.468248
	O381	O	0.186064	1.070131	0.192763
	H382	H	0.180183	1.085996	0.197504
	H383	H	0.192413	1.081857	0.203834
	O384	O	0.711161	0.718486	0.574703
	H385	H	0.729058	0.740991	0.577594
	H386	H	0.701948	0.706519	0.591156
	O387	O	0.657283	0.528477	0.650505
	H388	H	0.654874	0.534063	0.652005
	H389	H	0.654072	0.523957	0.656596
	O390	O	1.046370	0.830301	-0.123242
	H391	H	1.051934	0.824339	-0.098976
	H392	H	1.060117	0.821271	-0.129698
	O393	O	0.983832	-0.139186	1.144107
	H394	H	1.007808	-0.119403	1.148913
	H395	H	0.993093	-0.120488	1.153908
	O396	O	0.597080	0.404246	0.490208
	H397	H	0.599470	0.426513	0.488605
	H398	H	0.591772	0.400946	0.476673
	O399	O	0.546451	0.537543	0.365152
	H400	H	0.554670	0.525242	0.362742
	H401	H	0.534979	0.538196	0.357489
	O402	O	0.875367	0.984828	-0.036273
	H403	H	0.858043	0.983850	-0.038157
	H404	H	0.882126	0.986269	-0.039022
	O405	O	0.083918	-0.160555	-0.203697
	H406	H	0.091144	-0.160738	-0.208548
	H407	H	0.082226	-0.151908	-0.200035
	O408	O	0.690247	0.423430	0.424289
	H409	H	0.683929	0.419122	0.423438
	H410	H	0.693485	0.448446	0.412849
	O411	O	1.162666	1.145621	1.151403
	H412	H	1.166076	1.147007	1.143759
	H413	H	1.128451	1.151163	1.159564
	O414	O	0.533704	0.597230	0.529382
	H415	H	0.524081	0.585515	0.525299
	H416	H	0.531934	0.610221	0.536821
	O417	O	-0.128043	1.132883	0.846386
	H418	H	-0.152492	1.143595	0.832340
	H419	H	-0.126172	1.095127	0.839101
	O420	O	0.313370	1.591769	1.530958
	H421	H	0.320167	1.571646	1.526962
	H422	H	0.335344	1.598153	1.510724
	O423	O	-0.207180	1.217027	-0.027662
	H424	H	-0.229228	1.234083	-0.046151
	H425	H	-0.198872	1.219515	-0.057891
	O426	O	1.183585	-0.061246	-0.015406
	H427	H	1.176103	-0.046938	-0.007241
	H428	H	1.188343	-0.063523	-0.024731
	O429	O	0.569523	0.337054	0.601959
	H430	H	0.560255	0.339904	0.597641
	H431	H	0.551688	0.329521	0.613631
	O432	O	0.399551	0.669245	0.502279
	H433	H	0.408177	0.656548	0.505045
	H434	H	0.389164	0.677794	0.506295
	O435	O	0.058025	0.166612	-0.125451
	H436	H	0.037961	0.168180	-0.141263
	H437	H	0.044495	0.174862	-0.134702
	O438	O	-0.726296	1.283463	0.658743
	H439	H	-0.741775	1.281819	0.653166
	H440	H	-0.742665	1.275859	0.640407
	O441	O	0.297812	0.335106	0.497488
	H442	H	0.292550	0.341044	0.471861
	H443	H	0.298556	0.341176	0.490681
