data_Molecule from HDF5

_cell_length_a		16.526832
_cell_length_b		16.506700
_cell_length_c		16.355368
_cell_angle_alpha	90.031337
_cell_angle_beta	89.847808
_cell_angle_gamma	90.104390
_symmetry_space_group_name_H-M	'P 1'
_symmetry_Int_Tables_number		1

loop_
	_symmetry_equiv_pos_as_xyz
	x,y,z

loop_
	_atom_site_label
	_atom_site_type_symbol
	_atom_site_fract_x
	_atom_site_fract_y
	_atom_site_fract_z
	H0	H	0.403529	0.854275	0.727014
	H1	H	0.613896	0.170240	0.728773
	H2	H	0.616042	0.856195	0.282507
	H3	H	0.404067	0.169593	0.284993
	H4	H	0.730518	0.405847	0.849021
	H5	H	0.731087	0.623304	0.163845
	H6	H	0.286195	0.616119	0.848051
	H7	H	0.285300	0.406251	0.165245
	H8	H	0.851043	0.737861	0.398650
	H9	H	0.163779	0.734938	0.613228
	H10	H	0.850497	0.286862	0.617860
	H11	H	0.162950	0.292292	0.401375
	H12	H	0.848394	0.407178	0.730434
	H13	H	0.164388	0.614356	0.726373
	H14	H	0.849107	0.619579	0.284360
	H15	H	0.163582	0.408680	0.286607
	H16	H	0.398826	0.735044	0.848880
	H17	H	0.613257	0.737158	0.164131
	H18	H	0.614538	0.290479	0.848348
	H19	H	0.401822	0.290827	0.164607
	H20	H	0.732228	0.856419	0.397806
	H21	H	0.732067	0.169230	0.615377
	H22	H	0.283876	0.856066	0.613855
	H23	H	0.283832	0.167735	0.397826
	H24	H	0.899381	0.355103	0.229657
	H25	H	0.109994	0.671070	0.226516
	H26	H	0.109963	0.354562	0.786122
	H27	H	0.900905	0.669775	0.785258
	H28	H	0.229407	0.906810	0.348901
	H29	H	0.229981	0.119633	0.665060
	H30	H	0.785143	0.121316	0.349188
	H31	H	0.784414	0.906315	0.664285
	H32	H	0.349878	0.231966	0.903250
	H33	H	0.663819	0.237633	0.113961
	H34	H	0.349822	0.791973	0.112280
	H35	H	0.661051	0.784932	0.895482
	H36	H	0.351482	0.907470	0.229121
	H37	H	0.665498	0.120287	0.228866
	H38	H	0.348821	0.113614	0.788371
	H39	H	0.664833	0.906695	0.784413
	H40	H	0.901594	0.235284	0.348646
	H41	H	0.113324	0.234390	0.665700
	H42	H	0.115079	0.790037	0.349521
	H43	H	0.900818	0.792137	0.665821
	H44	H	0.226605	0.354404	0.901631
	H45	H	0.227439	0.669653	0.111265
	H46	H	0.780622	0.356673	0.117675
	H47	H	0.780504	0.666777	0.896355
	H48	H	0.420971	0.122912	0.592506
	H49	H	0.590368	0.902002	0.594138
	H50	H	0.598633	0.126532	0.412921
	H51	H	0.420494	0.901276	0.420693
	H52	H	0.592672	0.426034	0.118417
	H53	H	0.599754	0.594886	0.894237
	H54	H	0.410048	0.598511	0.121642
	H55	H	0.413351	0.434733	0.895230
	H56	H	0.118982	0.602923	0.417656
	H57	H	0.892182	0.605625	0.599246
	H58	H	0.116034	0.424432	0.593494
	H59	H	0.895336	0.428202	0.420734
	H60	H	0.118094	0.424982	0.598508
	H61	H	0.894034	0.604660	0.592704
	H62	H	0.117807	0.601812	0.420406
	H63	H	0.891395	0.421875	0.415580
	H64	H	0.423290	0.595723	0.117083
	H65	H	0.587657	0.594703	0.898171
	H66	H	0.592489	0.423715	0.119377
	H67	H	0.428357	0.417156	0.894771
	H68	H	0.592301	0.122553	0.420198
	H69	H	0.600069	0.901969	0.588250
	H70	H	0.414923	0.126316	0.593867
	H71	H	0.418229	0.900655	0.420615
	H72	H	0.918868	0.623010	0.094021
	H73	H	0.091979	0.399797	0.097206
	H74	H	0.093477	0.624121	0.917845
	H75	H	0.918978	0.401133	0.923614
	H76	H	0.095782	0.931022	0.618508
	H77	H	0.096131	0.105998	0.392732
	H78	H	0.919368	0.102519	0.621519
	H79	H	0.921404	0.924549	0.394044
	H80	H	0.624498	0.107019	0.911054
	H81	H	0.395599	0.100405	0.097439
	H82	H	0.620093	0.926522	0.095665
	H83	H	0.397917	0.925018	0.926681
	H84	H	0.620716	0.920648	0.091372
	H85	H	0.395395	0.102306	0.095924
	H86	H	0.618865	0.106424	0.924661
	H87	H	0.394615	0.929626	0.909601
	H88	H	0.918272	0.096208	0.619189
	H89	H	0.100682	0.101472	0.393026
	H90	H	0.090106	0.922468	0.619825
	H91	H	0.919527	0.926195	0.393486
	H92	H	0.100317	0.624657	0.922125
	H93	H	0.098751	0.399241	0.093400
	H94	H	0.916558	0.624490	0.093221
	H95	H	0.917510	0.400078	0.919624
	H96	H	0.420416	0.125476	0.598654
	H97	H	0.599342	0.898378	0.598909
	H98	H	0.602085	0.124301	0.422682
	H99	H	0.420226	0.900243	0.418439
	H100	H	0.594512	0.425768	0.120069
	H101	H	0.592702	0.604875	0.892313
	H102	H	0.419363	0.608445	0.122288
	H103	H	0.407425	0.414409	0.885891
	H104	H	0.117221	0.600359	0.417367
	H105	H	0.894106	0.599719	0.597265
	H106	H	0.119613	0.419979	0.595811
	H107	H	0.893929	0.420278	0.424253
	H108	H	0.917774	0.624011	0.095754
	H109	H	0.097760	0.397848	0.100844
	H110	H	0.099999	0.627564	0.914331
	H111	H	0.921123	0.401577	0.919947
	H112	H	0.100342	0.922437	0.622944
	H113	H	0.094542	0.100014	0.394409
	H114	H	0.923743	0.099358	0.617833
	H115	H	0.921553	0.927101	0.394303
	H116	H	0.618543	0.094608	0.916635
	H117	H	0.397192	0.100596	0.094516
	H118	H	0.617527	0.926553	0.088693
	H119	H	0.390903	0.913248	0.915286
	C120	C	0.385802	0.021083	0.628132
	C121	C	0.629794	1.004234	0.628030
	C122	C	0.631010	0.021409	0.384446
	C123	C	0.387146	1.004064	0.385895
	C124	C	0.626800	0.392127	0.014809
	C125	C	0.627529	0.633821	0.998459
	C126	C	0.385442	0.632980	0.015230
	C127	C	0.384787	0.390110	0.997330
	C128	C	0.014579	0.634784	0.385362
	C129	C	0.997805	0.634565	0.628650
	C130	C	0.014137	0.390244	0.629519
	C131	C	0.997351	0.391769	0.386798
	C132	C	0.883902	0.520812	0.129008
	C133	C	0.128143	0.503466	0.128590
	C134	C	0.128485	0.520769	0.885855
	C135	C	0.885787	0.504063	0.886758
	C136	C	0.128484	0.892179	0.515851
	C137	C	0.129455	0.134797	0.498344
	C138	C	0.887170	0.133434	0.515219
	C139	C	0.887282	0.892732	0.498473
	C140	C	0.516224	0.133611	0.885481
	C141	C	0.499664	0.134217	0.128312
	C142	C	0.516144	0.891509	0.126463
	C143	C	0.498113	0.889941	0.883980
	C144	C	0.384240	0.902112	0.687683
	C145	C	0.632750	0.122386	0.689609
	C146	C	0.634217	0.903537	0.322648
	C147	C	0.385180	0.122084	0.324776
	C148	C	0.689563	0.388147	0.896396
	C149	C	0.689975	0.639734	0.116544
	C150	C	0.325481	0.635077	0.895911
	C151	C	0.325397	0.388073	0.117402
	C152	C	0.897520	0.696913	0.381250
	C153	C	0.116567	0.694456	0.631453
	C154	C	0.896881	0.328308	0.634300
	C155	C	0.115889	0.332288	0.383822
	C156	C	0.895896	0.388312	0.690349
	C157	C	0.116898	0.634755	0.687640
	C158	C	0.896815	0.638060	0.324222
	C159	C	0.115876	0.390293	0.326424
	C160	C	0.381908	0.694039	0.896299
	C161	C	0.631433	0.696553	0.116735
	C162	C	0.631818	0.330575	0.895941
	C163	C	0.383209	0.330515	0.117145
	C164	C	0.692232	0.903684	0.380034
	C165	C	0.691526	0.121827	0.632674
	C166	C	0.324636	0.902875	0.631353
	C167	C	0.325150	0.121218	0.380788
	C168	C	0.880965	0.402827	0.190323
	C169	C	0.128535	0.623173	0.187058
	C170	C	0.129001	0.401764	0.826231
	C171	C	0.882887	0.622217	0.825213
	C172	C	0.189481	0.888820	0.396610
	C173	C	0.189985	0.137514	0.617465
	C174	C	0.825736	0.137979	0.396592
	C175	C	0.825129	0.888837	0.617209
	C176	C	0.397080	0.192340	0.884391
	C177	C	0.617114	0.196424	0.131531
	C178	C	0.397511	0.831570	0.130373
	C179	C	0.615235	0.827527	0.879230
	C180	C	0.398516	0.888958	0.188615
	C181	C	0.618170	0.137718	0.188635
	C182	C	0.396633	0.133457	0.827466
	C183	C	0.616877	0.887720	0.823423
	C184	C	0.884126	0.194703	0.396198
	C185	C	0.131933	0.194736	0.617825
	C186	C	0.132380	0.830676	0.397138
	C187	C	0.883068	0.831842	0.617650
	C188	C	0.187253	0.401842	0.883466
	C189	C	0.187515	0.622450	0.130137
	C190	C	0.821685	0.403687	0.134116
	C191	C	0.822890	0.620799	0.880790
	C192	C	0.411314	0.103431	0.602324
	C193	C	0.603935	0.922294	0.601578
	C194	C	0.604974	0.103098	0.411037
	C195	C	0.412507	0.922100	0.412233
	C196	C	0.600669	0.417874	0.097629
	C197	C	0.600990	0.606341	0.916300
	C198	C	0.410637	0.608101	0.098504
	C199	C	0.409272	0.415011	0.913761
	C200	C	0.096505	0.609126	0.411191
	C201	C	0.915051	0.610299	0.603736
	C202	C	0.096339	0.415729	0.603480
	C203	C	0.914902	0.416436	0.412715
	C204	C	0.910216	0.602651	0.102141
	C205	C	0.103276	0.420565	0.104133
	C206	C	0.104689	0.604050	0.910833
	C207	C	0.911699	0.422343	0.913664
	C208	C	0.102762	0.918013	0.598648
	C209	C	0.104193	0.109719	0.415088
	C210	C	0.913118	0.106824	0.598014
	C211	C	0.913395	0.918642	0.415619
	C212	C	0.598978	0.109499	0.910207
	C213	C	0.417521	0.108368	0.103107
	C214	C	0.598015	0.917075	0.099444
	C215	C	0.415943	0.915331	0.909767
	Zn216	Zn	0.507801	0.012849	0.756110
	Zn217	Zn	0.508952	0.012261	0.256499
	Zn218	Zn	0.755764	0.512102	0.007548
	Zn219	Zn	0.256759	0.511555	0.006916
	Zn220	Zn	0.007299	0.763548	0.507039
	Zn221	Zn	0.006805	0.261948	0.507282
	Zn222	Zn	0.006365	0.512344	0.757866
	Zn223	Zn	0.005628	0.512389	0.257045
	Zn224	Zn	0.505952	0.761651	0.006457
	Zn225	Zn	0.507250	0.263016	0.006724
	Zn226	Zn	0.758611	0.013167	0.506263
	Zn227	Zn	0.257167	0.012886	0.506668
	N228	N	0.421647	0.976525	0.685685
	N229	N	0.595107	0.048140	0.686881
	N230	N	0.596979	0.977834	0.325063
	N231	N	0.423087	0.048218	0.327899
	N232	N	0.686487	0.425707	0.971295
	N233	N	0.687826	0.601484	0.041868
	N234	N	0.327463	0.597898	0.970934
	N235	N	0.326202	0.424437	0.041814
	N236	N	0.972002	0.695232	0.418372
	N237	N	0.041444	0.694756	0.595849
	N238	N	0.971520	0.329468	0.597256
	N239	N	0.041122	0.332987	0.420754
	N240	N	0.969774	0.426365	0.687296
	N241	N	0.042035	0.598413	0.686227
	N242	N	0.970605	0.600089	0.326714
	N243	N	0.041129	0.426520	0.327887
	N244	N	0.418792	0.692570	0.971546
	N245	N	0.593505	0.693092	0.042087
	N246	N	0.593738	0.332829	0.970709
	N247	N	0.419293	0.331639	0.041375
	N248	N	0.690338	0.978051	0.417740
	N249	N	0.689968	0.047208	0.595263
	N250	N	0.325556	0.978048	0.595159
	N251	N	0.326232	0.046783	0.418179
	N252	N	0.918681	0.477060	0.187632
	N253	N	0.092574	0.548025	0.186606
	N254	N	0.093093	0.476736	0.827383
	N255	N	0.921341	0.548545	0.828723
	N256	N	0.186950	0.926760	0.471324
	N257	N	0.188728	0.101050	0.541932
	N258	N	0.827563	0.100603	0.471663
	N259	N	0.827471	0.925877	0.542019
	N260	N	0.472558	0.192796	0.919433
	N261	N	0.542387	0.194476	0.094869
	N262	N	0.471723	0.833112	0.092499
	N263	N	0.540410	0.828538	0.915984
	N264	N	0.473413	0.925250	0.186550
	N265	N	0.544154	0.099750	0.186841
	N266	N	0.471783	0.097953	0.827875
	N267	N	0.542986	0.925525	0.826210
	N268	N	0.921553	0.191880	0.471015
	N269	N	0.095039	0.193152	0.542691
	N270	N	0.095167	0.832676	0.472218
	N271	N	0.920841	0.833907	0.542613
	N272	N	0.186777	0.476924	0.919843
	N273	N	0.187586	0.547019	0.094826
	N274	N	0.823387	0.478223	0.096915
	N275	N	0.824885	0.546706	0.918725
	O276	O	0.555818	0.454487	0.715763
	H277	H	0.552814	0.436568	0.715047
	H278	H	0.542847	0.444495	0.716592
	O279	O	0.803257	-0.013855	1.216329
	H280	H	0.796699	0.007201	1.210714
	H281	H	0.783027	-0.002001	1.229879
	O282	O	0.704130	0.536335	0.704798
	H283	H	0.689827	0.522891	0.718187
	H284	H	0.714485	0.534610	0.695715
	O285	O	0.623178	0.565874	0.377727
	H286	H	0.614942	0.569656	0.374744
	H287	H	0.642703	0.556067	0.371809
	O288	O	0.949224	1.051434	0.144860
	H289	H	0.961451	1.040726	0.130244
	H290	H	0.939019	1.062202	0.143918
	O291	O	0.483163	0.420090	0.302626
	H292	H	0.489708	0.423853	0.282918
	H293	H	0.455817	0.437197	0.297388
	O294	O	-0.162059	0.055285	1.041545
	H295	H	-0.158371	0.060675	1.033793
	H296	H	-0.160026	0.033335	1.046402
	O297	O	0.717374	0.564786	0.498478
	H298	H	0.736257	0.563650	0.501543
	H299	H	0.723562	0.547626	0.505889
	O300	O	0.731140	0.765605	0.760360
	H301	H	0.726657	0.740957	0.750265
	H302	H	0.713940	0.768579	0.756407
	O303	O	0.318246	0.703667	0.315988
	H304	H	0.330882	0.699195	0.324228
	H305	H	0.313932	0.716390	0.324668
	O306	O	0.440935	0.569414	0.717410
	H307	H	0.451488	0.577517	0.717493
	H308	H	0.450238	0.574039	0.718103
	O309	O	0.364453	0.338893	0.376579
	H310	H	0.361058	0.333915	0.369686
	H311	H	0.376064	0.362045	0.375378
	O312	O	0.166106	1.136502	0.995975
	H313	H	0.172851	1.127963	0.993236
	H314	H	0.162740	1.135743	0.994614
	O315	O	0.714938	0.461157	0.297584
	H316	H	0.736372	0.464344	0.300089
	H317	H	0.708849	0.483735	0.288363
	O318	O	1.052733	-0.029078	-0.194798
	H319	H	1.038165	-0.030963	-0.199252
	H320	H	1.045927	-0.043069	-0.200767
	O321	O	0.112998	0.034990	0.196930
	H322	H	0.110678	0.020875	0.191383
	H323	H	0.093296	0.037243	0.203835
	O324	O	0.704791	0.712727	0.576802
	H325	H	0.714751	0.697362	0.572168
	H326	H	0.708575	0.713456	0.566008
	O327	O	0.362684	0.318060	0.641689
	H328	H	0.364541	0.334021	0.626367
	H329	H	0.342414	0.313744	0.642991
	O330	O	0.173930	1.122937	-0.006812
	H331	H	0.169180	1.126614	-0.004996
	H332	H	0.175770	1.125987	-0.000347
	O333	O	0.700855	0.315408	0.426173
	H334	H	0.711173	0.302364	0.438529
	H335	H	0.695656	0.331220	0.417890
	O336	O	-0.419761	-0.338706	0.505624
	H337	H	-0.417936	-0.343752	0.523168
	H338	H	-0.417307	-0.347318	0.510362
	O339	O	-0.117057	1.030964	0.797572
	H340	H	-0.135260	1.035731	0.780687
	H341	H	-0.119770	1.028600	0.813124
	O342	O	-0.006704	0.809440	1.214565
	H343	H	0.006345	0.809191	1.194115
	H344	H	-0.009735	0.792706	1.233911
	O345	O	1.119631	1.057844	0.158172
	H346	H	1.112480	1.054489	0.149167
	H347	H	1.113411	1.040840	0.151185
	O348	O	0.532873	0.566383	0.408533
	H349	H	0.516113	0.550370	0.401774
	H350	H	0.526263	0.568617	0.394657
	O351	O	0.578298	0.481512	0.547081
	H352	H	0.577778	0.470551	0.546506
	H353	H	0.574628	0.465375	0.548513
	O354	O	-0.217901	0.866677	0.033673
	H355	H	-0.221036	0.866715	0.049743
	H356	H	-0.225464	0.852098	0.047662
	O357	O	0.208009	0.211625	1.142176
	H358	H	0.212637	0.222075	1.154058
	H359	H	0.201565	0.192414	1.135558
	O360	O	0.396314	0.611963	0.441044
	H361	H	0.386258	0.623502	0.425936
	H362	H	0.408550	0.621796	0.442011
	O363	O	-0.001195	-0.191919	1.005745
	H364	H	-0.018400	-0.198073	0.981115
	H365	H	0.010142	-0.186095	1.002414
	O366	O	0.064337	-0.199554	-0.017281
	H367	H	0.048605	-0.201715	-0.012202
	H368	H	0.053101	-0.195844	-0.016751
	O369	O	0.529171	0.621635	0.617952
	H370	H	0.530915	0.641063	0.623231
	H371	H	0.511825	0.611295	0.614550
	O372	O	1.199678	-0.177839	0.819548
	H373	H	1.184275	-0.175798	0.848713
	H374	H	1.195750	-0.176985	0.808931
	O375	O	0.368079	0.653592	0.502858
	H376	H	0.355446	0.660906	0.502406
	H377	H	0.377474	0.654661	0.504040
	O378	O	0.300275	0.477202	0.486536
	H379	H	0.300622	0.471073	0.483401
	H380	H	0.305648	0.473812	0.480225
	O381	O	0.324885	0.328920	0.474570
	H382	H	0.321035	0.319970	0.485730
	H383	H	0.313959	0.325386	0.472842
	O384	O	0.291053	0.607713	0.364877
	H385	H	0.274090	0.601385	0.354578
	H386	H	0.288436	0.616488	0.379284
	O387	O	0.044750	0.130640	0.832376
	H388	H	0.046106	0.121367	0.837341
	H389	H	0.030988	0.119049	0.826486
	O390	O	0.032828	0.215800	0.170229
	H391	H	0.026434	0.206160	0.169807
	H392	H	0.032192	0.232186	0.178645
	O393	O	1.073339	1.174902	1.034686
	H394	H	1.061355	1.179422	1.051729
	H395	H	1.070135	1.191113	1.030253
	O396	O	0.836234	-0.161808	0.165356
	H397	H	0.875597	-0.156910	0.166711
	H398	H	0.830882	-0.122193	0.183606
	O399	O	0.943111	0.213385	0.805983
	H400	H	0.949747	0.230165	0.806110
	H401	H	0.949550	0.184024	0.798653
	O402	O	0.804794	0.871255	0.927957
	H403	H	0.803443	0.864718	0.963916
	H404	H	0.788704	0.852119	0.928697
	O405	O	1.121013	1.056782	-0.006135
	H406	H	1.128995	1.077348	-0.014069
	H407	H	1.117595	1.067470	-0.005524
	O408	O	1.110245	-0.118522	0.134247
	H409	H	1.109050	-0.115239	0.121737
	H410	H	1.098463	-0.116700	0.124737
	O411	O	1.139231	0.923025	-0.203213
	H412	H	1.151259	0.923417	-0.223025
	H413	H	1.123759	0.900421	-0.204633
	O414	O	0.190547	-0.061771	0.082828
	H415	H	0.194165	-0.053518	0.064187
	H416	H	0.184525	-0.071710	0.089706
	O417	O	0.479630	0.292233	0.724941
	H418	H	0.457090	0.280005	0.732596
	H419	H	0.459591	0.277978	0.732936
	O420	O	-0.198675	0.217423	-0.002756
	H421	H	-0.224699	0.237002	-0.008872
	H422	H	-0.188867	0.207686	-0.029665
	O423	O	0.536401	0.363786	0.494664
	H424	H	0.510995	0.361305	0.483176
	H425	H	0.516275	0.363987	0.527473
	O426	O	0.477596	0.334195	0.481743
	H427	H	0.466981	0.327191	0.462246
	H428	H	0.473029	0.335626	0.468582
	O429	O	0.484374	0.718723	0.299446
	H430	H	0.479936	0.738717	0.290364
	H431	H	0.482551	0.726251	0.313092
	O432	O	0.642036	0.542229	0.466201
	H433	H	0.642462	0.535653	0.488412
	H434	H	0.641867	0.531657	0.478435
	O435	O	0.311102	0.610795	0.668258
	H436	H	0.325332	0.607234	0.674391
	H437	H	0.305597	0.614039	0.660949
	O438	O	-0.184589	0.150838	-0.178127
	H439	H	-0.162667	0.154909	-0.195087
	H440	H	-0.186369	0.113262	-0.183500
	O441	O	0.983984	0.061889	0.027581
	H442	H	0.983960	0.066129	0.011030
	H443	H	0.984475	0.071274	0.025358
	O444	O	-0.005589	0.862582	0.817788
	H445	H	-0.003506	0.836741	0.817126
	H446	H	0.011220	0.859855	0.815298
	O447	O	0.595504	0.306057	0.307508
	H448	H	0.605154	0.310659	0.304440
	H449	H	0.605286	0.312299	0.287186
	O450	O	0.314092	0.441855	0.678001
	H451	H	0.325550	0.445896	0.675454
	H452	H	0.320037	0.456531	0.665366
	O453	O	0.563051	0.721439	0.566207
	H454	H	0.584712	0.713167	0.559116
	H455	H	0.563732	0.736039	0.572875
