data_Molecule from HDF5

_cell_length_a		16.353799
_cell_length_b		16.263415
_cell_length_c		16.271285
_cell_angle_alpha	90.234621
_cell_angle_beta	89.889966
_cell_angle_gamma	89.940726
_symmetry_space_group_name_H-M	'P 1'
_symmetry_Int_Tables_number		1

loop_
	_symmetry_equiv_pos_as_xyz
	x,y,z

loop_
	_atom_site_label
	_atom_site_type_symbol
	_atom_site_fract_x
	_atom_site_fract_y
	_atom_site_fract_z
	H0	H	0.397358	0.833730	0.715522
	H1	H	0.592475	0.162389	0.718843
	H2	H	0.593655	0.834638	0.288061
	H3	H	0.395059	0.161818	0.289201
	H4	H	0.711286	0.397446	0.839141
	H5	H	0.711366	0.600502	0.165287
	H6	H	0.280427	0.597303	0.838539
	H7	H	0.280011	0.401876	0.165911
	H8	H	0.832448	0.713223	0.404879
	H9	H	0.158226	0.714399	0.602517
	H10	H	0.832224	0.282641	0.602920
	H11	H	0.158684	0.283335	0.403881
	H12	H	0.832195	0.401407	0.717723
	H13	H	0.157916	0.599154	0.718625
	H14	H	0.832913	0.598033	0.287586
	H15	H	0.158340	0.398573	0.287543
	H16	H	0.397517	0.712307	0.838037
	H17	H	0.592432	0.713540	0.166478
	H18	H	0.594077	0.281552	0.839426
	H19	H	0.395002	0.285354	0.166969
	H20	H	0.711395	0.835439	0.401494
	H21	H	0.709906	0.162339	0.603694
	H22	H	0.279453	0.834939	0.602510
	H23	H	0.279265	0.161544	0.404464
	H24	H	0.896601	0.334011	0.216369
	H25	H	0.093100	0.662381	0.217344
	H26	H	0.094042	0.335210	0.786542
	H27	H	0.897035	0.663181	0.789621
	H28	H	0.210534	0.898539	0.340367
	H29	H	0.209605	0.099153	0.666871
	H30	H	0.779783	0.097348	0.339788
	H31	H	0.779397	0.899808	0.666812
	H32	H	0.331775	0.212527	0.905413
	H33	H	0.657356	0.214706	0.102994
	H34	H	0.331531	0.783833	0.101266
	H35	H	0.657699	0.782999	0.903809
	H36	H	0.332290	0.899221	0.218968
	H37	H	0.657867	0.098279	0.218937
	H38	H	0.331810	0.096219	0.789126
	H39	H	0.657413	0.897065	0.785898
	H40	H	0.897765	0.211091	0.338334
	H41	H	0.092345	0.213670	0.666924
	H42	H	0.093463	0.784297	0.339573
	H43	H	0.897505	0.785695	0.666830
	H44	H	0.210583	0.335072	0.901029
	H45	H	0.209660	0.662056	0.101534
	H46	H	0.777609	0.335569	0.103411
	H47	H	0.778916	0.661760	0.902775
	H48	H	0.405143	0.113960	0.596858
	H49	H	0.587150	0.884826	0.587211
	H50	H	0.599925	0.119264	0.407949
	H51	H	0.401423	0.880213	0.405121
	H52	H	0.582720	0.408201	0.116702
	H53	H	0.594952	0.586913	0.885207
	H54	H	0.406288	0.589434	0.116603
	H55	H	0.401812	0.405232	0.886210
	H56	H	0.112841	0.591262	0.403112
	H57	H	0.884601	0.592515	0.581347
	H58	H	0.109478	0.413476	0.597108
	H59	H	0.878230	0.400737	0.410533
	H60	H	0.113283	0.400545	0.598841
	H61	H	0.880986	0.579536	0.605341
	H62	H	0.111739	0.597307	0.413895
	H63	H	0.881230	0.407431	0.412358
	H64	H	0.401633	0.596420	0.119677
	H65	H	0.582051	0.584191	0.889749
	H66	H	0.587935	0.404342	0.119973
	H67	H	0.403034	0.404113	0.887079
	H68	H	0.577356	0.114586	0.403088
	H69	H	0.594710	0.878954	0.596531
	H70	H	0.399877	0.113842	0.593423
	H71	H	0.409209	0.884901	0.412961
	H72	H	0.903477	0.612256	0.093064
	H73	H	0.088164	0.382336	0.092092
	H74	H	0.084930	0.615007	0.907887
	H75	H	0.905797	0.384484	0.913273
	H76	H	0.086931	0.901749	0.621430
	H77	H	0.083496	0.101275	0.385270
	H78	H	0.890575	0.089242	0.621980
	H79	H	0.900681	0.904592	0.386832
	H80	H	0.614184	0.100230	0.908065
	H81	H	0.382364	0.087977	0.090224
	H82	H	0.610317	0.898527	0.088417
	H83	H	0.373403	0.894288	0.902845
	H84	H	0.607088	0.915213	0.092734
	H85	H	0.378088	0.086330	0.104164
	H86	H	0.607016	0.087902	0.921482
	H87	H	0.382106	0.903750	0.921828
	H88	H	0.908702	0.082833	0.614482
	H89	H	0.100043	0.088029	0.384126
	H90	H	0.092260	0.909600	0.620715
	H91	H	0.902233	0.907559	0.386833
	H92	H	0.087984	0.613139	0.914480
	H93	H	0.090377	0.381250	0.095185
	H94	H	0.901133	0.615010	0.096436
	H95	H	0.899797	0.382065	0.911718
	H96	H	0.399943	0.115585	0.599519
	H97	H	0.582046	0.883306	0.599601
	H98	H	0.585985	0.110082	0.424499
	H99	H	0.397971	0.882331	0.416063
	H100	H	0.589217	0.411093	0.117638
	H101	H	0.585091	0.597776	0.885225
	H102	H	0.397753	0.588546	0.118511
	H103	H	0.401930	0.403397	0.885266
	H104	H	0.108819	0.585204	0.412801
	H105	H	0.873434	0.605593	0.602887
	H106	H	0.108938	0.405161	0.586754
	H107	H	0.878860	0.406416	0.405838
	H108	H	0.906015	0.614038	0.097921
	H109	H	0.086337	0.382488	0.096178
	H110	H	0.091926	0.616879	0.909021
	H111	H	0.904264	0.382562	0.906753
	H112	H	0.083396	0.909051	0.617671
	H113	H	0.081561	0.081295	0.391291
	H114	H	0.906333	0.102214	0.621122
	H115	H	0.904377	0.905090	0.387328
	H116	H	0.610145	0.082204	0.902905
	H117	H	0.376925	0.099635	0.097463
	H118	H	0.613127	0.903809	0.104913
	H119	H	0.380180	0.916106	0.903092
	C120	C	0.373206	0.006292	0.624627
	C121	C	0.616351	0.990332	0.624365
	C122	C	0.616678	0.006883	0.381693
	C123	C	0.373988	0.990366	0.382668
	C124	C	0.616444	0.376981	0.010839
	C125	C	0.616455	0.619695	0.994362
	C126	C	0.373265	0.620284	0.010233
	C127	C	0.373270	0.376834	0.994422
	C128	C	0.003629	0.619989	0.381380
	C129	C	0.987083	0.621302	0.625141
	C130	C	0.003298	0.377518	0.623555
	C131	C	0.987136	0.376021	0.380578
	C132	C	0.873389	0.506153	0.124744
	C133	C	0.117337	0.489973	0.124148
	C134	C	0.117047	0.507176	0.880507
	C135	C	0.874145	0.490990	0.881695
	C136	C	0.116841	0.877214	0.512024
	C137	C	0.116829	0.119856	0.494881
	C138	C	0.873169	0.120113	0.511021
	C139	C	0.873260	0.876972	0.494850
	C140	C	0.502946	0.118948	0.882251
	C141	C	0.486612	0.120716	0.125950
	C142	C	0.502705	0.876810	0.124428
	C143	C	0.486452	0.875949	0.880593
	C144	C	0.376401	0.882862	0.678474
	C145	C	0.613411	0.113615	0.680595
	C146	C	0.614120	0.883641	0.325944
	C147	C	0.375333	0.113147	0.327349
	C148	C	0.672774	0.377609	0.887849
	C149	C	0.672702	0.619612	0.116738
	C150	C	0.318303	0.617890	0.887246
	C151	C	0.317333	0.380071	0.117086
	C152	C	0.881273	0.675466	0.384379
	C153	C	0.109553	0.676636	0.622911
	C154	C	0.880676	0.321566	0.622367
	C155	C	0.109682	0.320657	0.383072
	C156	C	0.880775	0.380175	0.679666
	C157	C	0.109465	0.619109	0.680624
	C158	C	0.881182	0.618051	0.326170
	C159	C	0.109624	0.378258	0.325442
	C160	C	0.376284	0.675106	0.887097
	C161	C	0.614036	0.676108	0.117385
	C162	C	0.614603	0.320028	0.888073
	C163	C	0.375039	0.322655	0.117682
	C164	C	0.672114	0.883778	0.383048
	C165	C	0.671813	0.113506	0.623375
	C166	C	0.317473	0.883561	0.622524
	C167	C	0.317679	0.112968	0.384676
	C168	C	0.875490	0.383102	0.179524
	C169	C	0.114176	0.613179	0.179799
	C170	C	0.114623	0.384022	0.824480
	C171	C	0.876671	0.614039	0.826825
	C172	C	0.172436	0.878631	0.389007
	C173	C	0.171445	0.118659	0.618085
	C174	C	0.817936	0.117640	0.388438
	C175	C	0.817301	0.879242	0.617805
	C176	C	0.380381	0.174289	0.885079
	C177	C	0.609042	0.176354	0.123580
	C178	C	0.380417	0.821456	0.121856
	C179	C	0.609220	0.820969	0.883086
	C180	C	0.380619	0.879002	0.180340
	C181	C	0.609274	0.118515	0.181063
	C182	C	0.380308	0.116918	0.827065
	C183	C	0.608924	0.877839	0.824492
	C184	C	0.876630	0.173996	0.387724
	C185	C	0.113347	0.175703	0.618127
	C186	C	0.114262	0.821760	0.388709
	C187	C	0.876239	0.822828	0.618091
	C188	C	0.172409	0.383984	0.881523
	C189	C	0.171636	0.613228	0.121845
	C190	C	0.816443	0.384133	0.123157
	C191	C	0.818017	0.613415	0.883314
	C192	C	0.395308	0.092258	0.603029
	C193	C	0.594420	0.904671	0.601302
	C194	C	0.594297	0.092483	0.404861
	C195	C	0.396440	0.904632	0.404923
	C196	C	0.593411	0.400821	0.095921
	C197	C	0.593767	0.596504	0.908754
	C198	C	0.395328	0.597874	0.095974
	C199	C	0.395761	0.398025	0.908436
	C200	C	0.089174	0.597677	0.403490
	C201	C	0.901774	0.598965	0.602913
	C202	C	0.088285	0.399635	0.600870
	C203	C	0.901580	0.398403	0.403082
	C204	C	0.896679	0.591792	0.102485
	C205	C	0.094882	0.404156	0.101223
	C206	C	0.094822	0.592966	0.903674
	C207	C	0.896738	0.405094	0.904171
	C208	C	0.094200	0.900103	0.597900
	C209	C	0.094868	0.097067	0.409088
	C210	C	0.895432	0.097939	0.597173
	C211	C	0.895646	0.899224	0.409212
	C212	C	0.588369	0.096715	0.904072
	C213	C	0.401362	0.097932	0.104043
	C214	C	0.588228	0.899348	0.101910
	C215	C	0.400831	0.898214	0.902713
	Zn216	Zn	0.494575	-0.001748	0.753059
	Zn217	Zn	0.495075	-0.001133	0.253793
	Zn218	Zn	0.745161	0.498750	0.002347
	Zn219	Zn	0.245007	0.498578	0.001629
	Zn220	Zn	-0.004567	0.749207	0.503475
	Zn221	Zn	-0.005000	0.248008	0.502309
	Zn222	Zn	-0.004637	0.499185	0.752969
	Zn223	Zn	-0.004937	0.497878	0.252688
	Zn224	Zn	0.495490	0.747982	0.002307
	Zn225	Zn	0.494686	0.248144	0.003434
	Zn226	Zn	0.745145	-0.001198	0.503014
	Zn227	Zn	0.245043	-0.001509	0.503919
	N228	N	0.410355	0.960138	0.680036
	N229	N	0.579765	0.036074	0.681422
	N230	N	0.580353	0.961018	0.325182
	N231	N	0.409952	0.036089	0.326145
	N232	N	0.674258	0.412267	0.965209
	N233	N	0.674068	0.585205	0.039527
	N234	N	0.316243	0.584472	0.964720
	N235	N	0.316045	0.412982	0.039429
	N236	N	0.958468	0.676676	0.418043
	N237	N	0.032577	0.678101	0.589102
	N238	N	0.957679	0.319808	0.588182
	N239	N	0.032421	0.319130	0.416575
	N240	N	0.957676	0.414443	0.680410
	N241	N	0.032285	0.585500	0.682182
	N242	N	0.958311	0.584228	0.324155
	N243	N	0.032391	0.411989	0.323727
	N244	N	0.409757	0.676619	0.964718
	N245	N	0.579572	0.676098	0.040174
	N246	N	0.580480	0.319478	0.965437
	N247	N	0.409131	0.320447	0.040411
	N248	N	0.674015	0.961525	0.416899
	N249	N	0.673506	0.036032	0.588903
	N250	N	0.315584	0.961303	0.589724
	N251	N	0.316987	0.035572	0.418665
	N252	N	0.910343	0.460048	0.180370
	N253	N	0.080806	0.535423	0.181201
	N254	N	0.080749	0.461351	0.823967
	N255	N	0.910958	0.536743	0.825884
	N256	N	0.174022	0.912374	0.466615
	N257	N	0.173856	0.084877	0.540376
	N258	N	0.815747	0.085001	0.466256
	N259	N	0.815419	0.912320	0.540106
	N260	N	0.457624	0.175658	0.918578
	N261	N	0.531743	0.178232	0.090399
	N262	N	0.457628	0.820124	0.087733
	N263	N	0.532267	0.819773	0.917157
	N264	N	0.457572	0.912606	0.181989
	N265	N	0.532052	0.084824	0.182786
	N266	N	0.457407	0.083166	0.825373
	N267	N	0.531475	0.911245	0.822853
	N268	N	0.910334	0.175536	0.465170
	N269	N	0.080042	0.176706	0.540592
	N270	N	0.080425	0.820843	0.466187
	N271	N	0.910142	0.821276	0.540782
	N272	N	0.173992	0.461577	0.915811
	N273	N	0.173543	0.535762	0.087998
	N274	N	0.815257	0.461615	0.089692
	N275	N	0.816503	0.535940	0.916822
	O276	O	0.421905	0.477310	0.511669
	H277	H	0.422634	0.487129	0.512763
	H278	H	0.428390	0.471116	0.507997
	O279	O	0.571279	0.437581	0.438526
	H280	H	0.587814	0.434077	0.432966
	H281	H	0.572228	0.442063	0.434918
	O282	O	0.453926	0.483073	0.467865
	H283	H	0.456686	0.481733	0.467993
	H284	H	0.452165	0.478136	0.472800
	O285	O	-0.074626	1.009653	0.956762
	H286	H	-0.081032	1.012607	0.950707
	H287	H	-0.079047	1.012205	0.959148
	O288	O	0.922131	1.046904	-0.020191
	H289	H	0.916294	1.048250	-0.023821
	H290	H	0.925599	1.044027	-0.029220
	O291	O	-0.006355	0.038705	0.957402
	H292	H	-0.001584	0.030646	0.961547
	H293	H	-0.001150	0.038395	0.958252
	O294	O	0.507968	0.547072	0.512456
	H295	H	0.517782	0.537816	0.517722
	H296	H	0.511361	0.551430	0.513949
	O297	O	0.555373	0.508425	0.518725
	H298	H	0.560985	0.510443	0.512475
	H299	H	0.559400	0.511447	0.520172
	O300	O	0.561290	0.529754	0.476266
	H301	H	0.555369	0.530143	0.478901
	H302	H	0.561394	0.529196	0.479022
	O303	O	0.512112	0.438196	0.494408
	H304	H	0.506954	0.427711	0.502776
	H305	H	0.498621	0.437403	0.482238
	O306	O	0.969539	-0.015873	1.007915
	H307	H	0.970800	-0.017675	1.005465
	H308	H	0.965163	-0.012417	1.015276
	O309	O	0.516280	0.522404	0.471595
	H310	H	0.514188	0.524670	0.467776
	H311	H	0.513357	0.529746	0.473245
	O312	O	0.455239	0.479201	0.464687
	H313	H	0.451672	0.476918	0.466292
	H314	H	0.460287	0.483907	0.453883
	O315	O	0.916087	0.077069	0.981136
	H316	H	0.916017	0.082313	0.984029
	H317	H	0.921680	0.082785	0.973842
	O318	O	0.005826	0.024146	0.000551
	H319	H	0.002743	0.018070	0.002567
	H320	H	-0.002493	0.031098	0.006349
	O321	O	0.474353	0.538320	0.505264
	H322	H	0.474067	0.532794	0.503349
	H323	H	0.472949	0.545270	0.508761
	O324	O	0.979913	0.005326	0.051191
	H325	H	0.990344	0.012450	0.053698
	H326	H	0.981884	0.000183	0.052231
	O327	O	0.965386	1.006489	0.002584
	H328	H	0.960855	1.001573	0.000869
	H329	H	0.961105	1.006042	-0.000828
	O330	O	0.538951	0.467165	0.496542
	H331	H	0.526675	0.467382	0.498893
	H332	H	0.540595	0.467622	0.495980
	O333	O	0.565873	0.479634	0.511094
	H334	H	0.573438	0.483593	0.513193
	H335	H	0.557802	0.477768	0.505565
