data_Molecule from HDF5

_cell_length_a		16.484986
_cell_length_b		16.560774
_cell_length_c		16.474417
_cell_angle_alpha	90.028662
_cell_angle_beta	90.089709
_cell_angle_gamma	89.800237
_symmetry_space_group_name_H-M	'P 1'
_symmetry_Int_Tables_number		1

loop_
	_symmetry_equiv_pos_as_xyz
	x,y,z

loop_
	_atom_site_label
	_atom_site_type_symbol
	_atom_site_fract_x
	_atom_site_fract_y
	_atom_site_fract_z
	H0	H	0.382462	0.855394	0.705601
	H1	H	0.590051	0.167710	0.707769
	H2	H	0.592607	0.855547	0.262782
	H3	H	0.379392	0.169555	0.262351
	H4	H	0.708317	0.406932	0.828840
	H5	H	0.710374	0.618734	0.142045
	H6	H	0.266250	0.616962	0.827383
	H7	H	0.266847	0.408454	0.143062
	H8	H	0.829504	0.738050	0.374481
	H9	H	0.141422	0.735115	0.591974
	H10	H	0.828318	0.292504	0.589238
	H11	H	0.142826	0.287814	0.378375
	H12	H	0.829006	0.407427	0.706717
	H13	H	0.142693	0.617148	0.705992
	H14	H	0.828899	0.619623	0.260462
	H15	H	0.144489	0.406261	0.263972
	H16	H	0.382290	0.733258	0.827633
	H17	H	0.592532	0.733336	0.143586
	H18	H	0.594160	0.288527	0.829716
	H19	H	0.380821	0.290124	0.141923
	H20	H	0.708771	0.855761	0.378922
	H21	H	0.704311	0.169967	0.589685
	H22	H	0.264575	0.856148	0.590162
	H23	H	0.262476	0.169439	0.378496
	H24	H	0.879649	0.356879	0.208411
	H25	H	0.094088	0.666498	0.209430
	H26	H	0.090843	0.354529	0.764306
	H27	H	0.878620	0.669096	0.761851
	H28	H	0.209470	0.905160	0.330114
	H29	H	0.209063	0.120830	0.641540
	H30	H	0.763489	0.117878	0.328367
	H31	H	0.765153	0.907941	0.643650
	H32	H	0.330103	0.237381	0.875159
	H33	H	0.642409	0.234526	0.092618
	H34	H	0.329477	0.791211	0.089868
	H35	H	0.642555	0.786459	0.876403
	H36	H	0.329256	0.907250	0.206620
	H37	H	0.642500	0.118433	0.208304
	H38	H	0.328375	0.116797	0.763890
	H39	H	0.644200	0.904361	0.762806
	H40	H	0.878123	0.235634	0.329217
	H41	H	0.091999	0.234771	0.642135
	H42	H	0.093557	0.788072	0.329964
	H43	H	0.879574	0.790728	0.642537
	H44	H	0.209658	0.355700	0.878831
	H45	H	0.207810	0.669139	0.090820
	H46	H	0.763452	0.356676	0.092454
	H47	H	0.761011	0.668063	0.876189
	H48	H	0.398038	0.124912	0.575491
	H49	H	0.574790	0.900450	0.571882
	H50	H	0.575449	0.124206	0.397795
	H51	H	0.395550	0.901850	0.398394
	H52	H	0.575366	0.423762	0.098912
	H53	H	0.575634	0.598086	0.873822
	H54	H	0.399935	0.599591	0.096290
	H55	H	0.394225	0.426452	0.872360
	H56	H	0.098025	0.601222	0.394603
	H57	H	0.874391	0.601809	0.567467
	H58	H	0.102643	0.420592	0.584074
	H59	H	0.874707	0.426727	0.396839
	H60	H	0.099213	0.413721	0.568029
	H61	H	0.873590	0.596643	0.573711
	H62	H	0.096577	0.602256	0.401218
	H63	H	0.873336	0.423689	0.394807
	H64	H	0.399110	0.605619	0.099611
	H65	H	0.570987	0.599892	0.875066
	H66	H	0.573598	0.426701	0.096278
	H67	H	0.402686	0.425864	0.875074
	H68	H	0.575189	0.125200	0.394029
	H69	H	0.577866	0.898906	0.573856
	H70	H	0.397161	0.124264	0.573683
	H71	H	0.398134	0.900866	0.394821
	H72	H	0.902636	0.622113	0.069482
	H73	H	0.076720	0.400021	0.073129
	H74	H	0.073801	0.624779	0.894125
	H75	H	0.896808	0.401299	0.899206
	H76	H	0.068803	0.919016	0.597605
	H77	H	0.070944	0.100164	0.373750
	H78	H	0.898969	0.101896	0.597977
	H79	H	0.899497	0.921908	0.373273
	H80	H	0.598346	0.103424	0.899167
	H81	H	0.374014	0.098968	0.074456
	H82	H	0.599159	0.922647	0.075095
	H83	H	0.374647	0.919840	0.900019
	H84	H	0.598813	0.921901	0.072605
	H85	H	0.373422	0.103253	0.071604
	H86	H	0.596503	0.097049	0.899022
	H87	H	0.376382	0.927383	0.897172
	H88	H	0.893994	0.105656	0.599585
	H89	H	0.073003	0.100758	0.372409
	H90	H	0.079734	0.923367	0.600194
	H91	H	0.894028	0.924031	0.372118
	H92	H	0.075082	0.623382	0.897204
	H93	H	0.077666	0.399605	0.073996
	H94	H	0.897588	0.623236	0.069612
	H95	H	0.896713	0.399203	0.893128
	H96	H	0.395333	0.125268	0.575051
	H97	H	0.574020	0.899091	0.575473
	H98	H	0.572008	0.123721	0.395999
	H99	H	0.400161	0.902794	0.397942
	H100	H	0.571413	0.423152	0.097066
	H101	H	0.573947	0.602950	0.872242
	H102	H	0.393941	0.601285	0.099322
	H103	H	0.399508	0.419588	0.870618
	H104	H	0.095255	0.596138	0.398487
	H105	H	0.871360	0.604410	0.574565
	H106	H	0.095463	0.430903	0.571128
	H107	H	0.875586	0.423251	0.398497
	H108	H	0.900397	0.623472	0.073909
	H109	H	0.076384	0.399688	0.074126
	H110	H	0.077279	0.625114	0.895254
	H111	H	0.901274	0.403053	0.895666
	H112	H	0.071214	0.930207	0.594723
	H113	H	0.072499	0.098758	0.374161
	H114	H	0.893031	0.099637	0.598438
	H115	H	0.897941	0.927965	0.374978
	H116	H	0.599342	0.100000	0.893706
	H117	H	0.375142	0.099168	0.069388
	H118	H	0.598928	0.924792	0.073231
	H119	H	0.373241	0.921611	0.892406
	C120	C	0.364788	0.021094	0.606777
	C121	C	0.606809	1.003545	0.606479
	C122	C	0.607639	0.020943	0.363367
	C123	C	0.364551	1.005051	0.364105
	C124	C	0.607478	0.390936	-0.005779
	C125	C	0.607845	0.633807	0.976896
	C126	C	0.365119	0.634530	-0.006035
	C127	C	0.365589	0.391239	0.976338
	C128	C	-0.006255	0.634079	0.363081
	C129	C	0.976583	0.633313	0.605291
	C130	C	-0.005233	0.390517	0.606512
	C131	C	0.978084	0.390918	0.363772
	C132	C	0.866407	0.520370	0.105063
	C133	C	0.109114	0.503295	0.106709
	C134	C	0.108076	0.520704	0.863271
	C135	C	0.864324	0.504084	0.862746
	C136	C	0.107130	0.890816	0.494322
	C137	C	0.105694	0.132978	0.477012
	C138	C	0.863191	0.134611	0.494421
	C139	C	0.864225	0.891632	0.477270
	C140	C	0.494532	0.133371	0.863794
	C141	C	0.477471	0.133329	0.106058
	C142	C	0.494869	0.891255	0.106052
	C143	C	0.478479	0.889879	0.863460
	C144	C	0.363071	0.902764	0.666347
	C145	C	0.608390	0.121385	0.667121
	C146	C	0.611066	0.903013	0.302614
	C147	C	0.360917	0.122298	0.302387
	C148	C	0.668427	0.388065	0.876280
	C149	C	0.669914	0.637289	0.095037
	C150	C	0.305560	0.636192	0.875033
	C151	C	0.305819	0.389236	0.095356
	C152	C	0.876780	0.697107	0.357298
	C153	C	0.094436	0.694625	0.609726
	C154	C	0.875730	0.331950	0.608065
	C155	C	0.096005	0.328850	0.360794
	C156	C	0.876235	0.388905	0.666627
	C157	C	0.095131	0.635407	0.666091
	C158	C	0.876553	0.637927	0.300373
	C159	C	0.096914	0.387776	0.304035
	C160	C	0.363412	0.693746	0.875043
	C161	C	0.611201	0.694225	0.095614
	C162	C	0.611769	0.329045	0.876661
	C163	C	0.362261	0.330342	0.094731
	C164	C	0.668945	0.903028	0.360675
	C165	C	0.664950	0.122273	0.608168
	C166	C	0.304591	0.903211	0.608842
	C167	C	0.302915	0.122535	0.360450
	C168	C	0.862526	0.403313	0.167183
	C169	C	0.111780	0.620526	0.168109
	C170	C	0.110106	0.402390	0.803326
	C171	C	0.860581	0.621802	0.801686
	C172	C	0.168875	0.886982	0.376777
	C173	C	0.168104	0.137730	0.594544
	C174	C	0.802999	0.136678	0.375744
	C175	C	0.804629	0.889312	0.595935
	C176	C	0.377000	0.195571	0.859019
	C177	C	0.595044	0.194316	0.110504
	C178	C	0.376460	0.831338	0.108466
	C179	C	0.595905	0.827640	0.859097
	C180	C	0.376444	0.888983	0.166316
	C181	C	0.595246	0.136257	0.167966
	C182	C	0.375910	0.135777	0.803230
	C183	C	0.596607	0.886507	0.802405
	C184	C	0.860280	0.194882	0.376195
	C185	C	0.109521	0.194471	0.594782
	C186	C	0.111390	0.828804	0.376925
	C187	C	0.861337	0.830652	0.595115
	C188	C	0.168899	0.402693	0.860917
	C189	C	0.168484	0.621449	0.109078
	C190	C	0.804387	0.403472	0.109652
	C191	C	0.802140	0.621321	0.859117
	C192	C	0.389641	0.103301	0.581899
	C193	C	0.582496	0.921068	0.581033
	C194	C	0.581842	0.102853	0.388819
	C195	C	0.390315	0.923192	0.389781
	C196	C	0.581017	0.417082	0.076222
	C197	C	0.581154	0.607967	0.895118
	C198	C	0.390407	0.609462	0.076682
	C199	C	0.391383	0.416620	0.894073
	C200	C	0.075545	0.607575	0.390223
	C201	C	0.894499	0.608169	0.579294
	C202	C	0.077547	0.414793	0.581734
	C203	C	0.896082	0.417034	0.389374
	C204	C	0.892716	0.601678	0.078569
	C205	C	0.083980	0.421117	0.080990
	C206	C	0.082843	0.603069	0.888334
	C207	C	0.890739	0.422536	0.888518
	C208	C	0.080918	0.916863	0.576233
	C209	C	0.079673	0.107097	0.394900
	C210	C	0.888384	0.109556	0.577147
	C211	C	0.889869	0.917255	0.394886
	C212	C	0.576543	0.107554	0.889779
	C213	C	0.395460	0.107691	0.079520
	C214	C	0.577362	0.916024	0.080799
	C215	C	0.395944	0.915651	0.889318
	Zn216	Zn	0.486796	0.011452	0.735888
	Zn217	Zn	0.485586	0.012261	0.235116
	Zn218	Zn	0.735749	0.512140	-0.014634
	Zn219	Zn	0.237643	0.512260	-0.015046
	Zn220	Zn	-0.015098	0.762584	0.485269
	Zn221	Zn	-0.014662	0.262176	0.484980
	Zn222	Zn	-0.014373	0.512773	0.734031
	Zn223	Zn	-0.012937	0.511611	0.235016
	Zn224	Zn	0.487170	0.762445	-0.014675
	Zn225	Zn	0.486180	0.262452	-0.014889
	Zn226	Zn	0.735814	0.012477	0.485886
	Zn227	Zn	0.235185	0.013115	0.485216
	N228	N	0.399432	0.977245	0.665529
	N229	N	0.572862	0.046633	0.666071
	N230	N	0.573753	0.977273	0.303994
	N231	N	0.398513	0.048247	0.304621
	N232	N	0.666026	0.425500	0.950548
	N233	N	0.668137	0.600687	0.020251
	N234	N	0.306271	0.600255	0.950143
	N235	N	0.307636	0.426140	0.020619
	N236	N	0.950810	0.694855	0.395642
	N237	N	0.019863	0.693311	0.572575
	N238	N	0.950365	0.332823	0.571435
	N239	N	0.020989	0.330611	0.397093
	N240	N	0.951412	0.424516	0.665872
	N241	N	0.020942	0.598036	0.663490
	N242	N	0.950704	0.599653	0.303648
	N243	N	0.022746	0.425644	0.305778
	N244	N	0.399406	0.693086	0.950325
	N245	N	0.573367	0.692179	0.021199
	N246	N	0.574646	0.330720	0.951284
	N247	N	0.398695	0.331448	0.019730
	N248	N	0.666958	0.977410	0.397697
	N249	N	0.664097	0.047862	0.571299
	N250	N	0.305048	0.978095	0.572907
	N251	N	0.305044	0.048616	0.398116
	N252	N	0.900769	0.476794	0.164171
	N253	N	0.075548	0.545980	0.166649
	N254	N	0.072938	0.476744	0.804612
	N255	N	0.898435	0.547920	0.803706
	N256	N	0.166409	0.924808	0.450794
	N257	N	0.165768	0.100004	0.520404
	N258	N	0.804600	0.099881	0.450505
	N259	N	0.806223	0.926480	0.521565
	N260	N	0.451739	0.194275	0.896017
	N261	N	0.520805	0.192579	0.072621
	N262	N	0.451156	0.832637	0.071669
	N263	N	0.521556	0.829970	0.896594
	N264	N	0.451115	0.925503	0.164972
	N265	N	0.520961	0.098948	0.165306
	N266	N	0.450074	0.097724	0.805909
	N267	N	0.522411	0.924682	0.805250
	N268	N	0.896670	0.193905	0.451142
	N269	N	0.071165	0.191544	0.520693
	N270	N	0.073790	0.830877	0.451169
	N271	N	0.897654	0.832100	0.520107
	N272	N	0.167966	0.477532	0.897089
	N273	N	0.167087	0.547323	0.071668
	N274	N	0.806787	0.477135	0.071456
	N275	N	0.804271	0.547166	0.896489
	O276	O	0.298439	0.324225	0.674010
	H277	H	0.289244	0.318336	0.626930
	H278	H	0.327133	0.309775	0.688930
	O279	O	0.543664	0.335384	0.316240
	H280	H	0.547167	0.315527	0.306826
	H281	H	0.538178	0.349903	0.316009
	O282	O	0.775172	1.223578	-0.036446
	H283	H	0.768686	1.195545	-0.030639
	H284	H	0.749739	1.240992	-0.047130
	O285	O	0.462393	0.347082	0.468306
	H286	H	0.486363	0.353897	0.463966
	H287	H	0.453157	0.342518	0.476389
	O288	O	-0.052987	0.085672	0.153034
	H289	H	-0.062296	0.084756	0.157552
	H290	H	-0.043125	0.088116	0.142297
	O291	O	1.203568	1.227256	0.013179
	H292	H	1.198541	1.205065	0.000184
	H293	H	1.228654	1.255851	0.008349
	O294	O	-0.231022	1.049932	0.040479
	H295	H	-0.226021	1.027501	0.031826
	H296	H	-0.238362	1.034851	0.076007
	O297	O	0.787600	0.204729	0.787662
	H298	H	0.791550	0.205836	0.802456
	H299	H	0.816502	0.221240	0.781197
	O300	O	0.692130	0.726536	0.503175
	H301	H	0.681582	0.714743	0.490886
	H302	H	0.717013	0.748281	0.499655
	O303	O	0.316328	0.261973	0.275018
	H304	H	0.310957	0.277823	0.265285
	H305	H	0.328540	0.262094	0.270842
	O306	O	0.188522	0.835570	0.962936
	H307	H	0.196234	0.826701	0.976431
	H308	H	0.196732	0.827075	0.947882
	O309	O	0.446923	0.656348	0.287252
	H310	H	0.438650	0.662822	0.287002
	H311	H	0.440396	0.670125	0.278153
	O312	O	0.478404	0.711884	0.638597
	H313	H	0.473171	0.689663	0.637300
	H314	H	0.455421	0.719895	0.625432
	O315	O	0.007170	-0.203755	0.780076
	H316	H	0.025173	-0.219958	0.756576
	H317	H	0.034508	-0.198483	0.785003
	O318	O	-0.032378	0.796318	0.193487
	H319	H	-0.028231	0.780942	0.207294
	H320	H	-0.025315	0.810128	0.201412
	O321	O	0.629219	0.467448	0.444510
	H322	H	0.640050	0.456973	0.429699
	H323	H	0.635997	0.452273	0.475672
	O324	O	0.299776	0.568826	0.526884
	H325	H	0.304097	0.569462	0.528556
	H326	H	0.294117	0.552331	0.525187
	O327	O	1.161968	0.028868	1.197144
	H328	H	1.172428	0.045490	1.198282
	H329	H	1.174913	0.042065	1.192003
	O330	O	0.965512	0.213151	0.005981
	H331	H	0.947820	0.227600	0.010974
	H332	H	0.955860	0.200124	0.000199
	O333	O	0.767975	0.987122	1.198974
	H334	H	0.773908	0.958270	1.201883
	H335	H	0.746791	0.972488	1.222215
	O336	O	1.097077	0.134547	0.800239
	H337	H	1.084900	0.125097	0.800309
	H338	H	1.084726	0.129121	0.807367
	O339	O	0.517586	0.537675	0.540699
	H340	H	0.534849	0.546408	0.546054
	H341	H	0.500727	0.536521	0.526221
	O342	O	0.577686	0.543556	0.317858
	H343	H	0.581824	0.560072	0.326309
	H344	H	0.578210	0.549610	0.312489
	O345	O	0.124289	0.125287	-0.072792
	H346	H	0.124523	0.114603	-0.061226
	H347	H	0.125790	0.117908	-0.069006
	O348	O	0.917560	0.011804	0.985698
	H349	H	0.913082	-0.006563	0.987875
	H350	H	0.908947	0.022727	0.987828
	O351	O	1.491974	0.541950	0.443085
	H352	H	1.506497	0.548360	0.434459
	H353	H	1.499919	0.528174	0.451801
	O354	O	0.680614	0.465561	0.496053
	H355	H	0.683270	0.446419	0.500500
	H356	H	0.680279	0.472771	0.518421
	O357	O	0.767776	0.790699	1.011755
	H358	H	0.739422	0.754674	1.011880
	H359	H	0.793061	0.787880	0.984454
	O360	O	0.278294	0.466537	0.441424
	H361	H	0.281443	0.465100	0.434471
	H362	H	0.278590	0.471743	0.434185
	O363	O	0.559903	0.467440	0.692673
	H364	H	0.561798	0.481470	0.689483
	H365	H	0.555195	0.472569	0.698533
	O366	O	1.288974	-0.295210	1.287059
	H367	H	1.277620	-0.266028	1.260405
	H368	H	1.295371	-0.296464	1.314010
	O369	O	0.701894	0.519781	0.677352
	H370	H	0.727163	0.532053	0.701271
	H371	H	0.692208	0.543088	0.671322
	O372	O	0.267847	0.486008	0.704603
	H373	H	0.252165	0.468814	0.709119
	H374	H	0.254964	0.455876	0.715584
	O375	O	-0.195287	0.832432	1.167830
	H376	H	-0.167391	0.833869	1.154514
	H377	H	-0.189477	0.816583	1.140298
	O378	O	0.275107	0.724383	0.455568
	H379	H	0.270878	0.715479	0.453472
	H380	H	0.254401	0.739625	0.457402
	O381	O	0.837384	-0.045672	-0.111328
	H382	H	0.830105	-0.053798	-0.112547
	H383	H	0.832911	-0.056357	-0.109107
	O384	O	0.081957	0.048841	0.951015
	H385	H	0.076972	0.049951	0.923032
	H386	H	0.079757	0.032617	0.956285
	O387	O	-0.008589	0.817285	0.997987
	H388	H	-0.008417	0.818048	1.003052
	H389	H	0.005723	0.818155	0.981508
	O390	O	0.182762	-0.181751	0.788657
	H391	H	0.185624	-0.141641	0.787535
	H392	H	0.202693	-0.201389	0.784741
	O393	O	0.980753	1.003899	-0.034910
	H394	H	0.968288	1.006886	-0.044638
	H395	H	0.974735	1.005229	-0.032583
	O396	O	0.645967	0.465052	0.285767
	H397	H	0.634687	0.452034	0.282346
	H398	H	0.653305	0.463539	0.299198
	O399	O	0.667916	0.697852	0.672506
	H400	H	0.679146	0.703651	0.628938
	H401	H	0.620984	0.700035	0.677555
	O402	O	-0.188326	0.192864	1.166024
	H403	H	-0.168808	0.180183	1.163547
	H404	H	-0.181713	0.179768	1.141067
	O405	O	0.008110	0.223946	0.194682
	H406	H	0.010298	0.221136	0.187077
	H407	H	0.009273	0.239757	0.211916
	O408	O	1.191874	0.990422	0.772380
	H409	H	1.213210	0.997270	0.748489
	H410	H	1.175111	0.998739	0.773639
	O411	O	0.604589	0.309680	0.607199
	H412	H	0.608483	0.308678	0.627100
	H413	H	0.598857	0.317854	0.599849
	O414	O	0.434783	0.541410	0.688051
	H415	H	0.424343	0.536182	0.670662
	H416	H	0.408112	0.525849	0.692375
	O417	O	0.949922	0.225484	0.777004
	H418	H	0.960091	0.252945	0.754403
	H419	H	0.971899	0.219685	0.802122
	O420	O	0.663733	0.334409	0.277141
	H421	H	0.645658	0.331885	0.268512
	H422	H	0.685650	0.321227	0.246798
	O423	O	0.014322	0.963077	0.194130
	H424	H	0.020179	0.976617	0.196811
	H425	H	0.023292	0.957047	0.188352
	O426	O	0.966676	0.987478	0.764246
	H427	H	0.935621	0.989347	0.762342
	H428	H	0.956477	0.973148	0.757793
	O429	O	0.278556	0.538473	0.275372
	H430	H	0.268688	0.537318	0.267284
	H431	H	0.275103	0.571067	0.264776
	O432	O	0.928302	-0.189671	0.944601
	H433	H	0.928934	-0.174081	0.941729
	H434	H	0.941855	-0.194919	0.940917
	O435	O	0.128121	0.102055	0.021988
	H436	H	0.115143	0.108539	0.009793
	H437	H	0.113267	0.099297	0.005189
	O438	O	1.286409	-0.669493	0.511864
	H439	H	1.291358	-0.674873	0.489336
	H440	H	1.297130	-0.670320	0.500031
	O441	O	0.462770	0.302522	0.695449
	H442	H	0.463092	0.292902	0.719222
	H443	H	0.473740	0.310430	0.696688
	O444	O	0.170272	0.862297	1.168511
	H445	H	0.140767	0.876252	1.150348
	H446	H	0.178576	0.893781	1.163341
	O447	O	0.318676	0.696361	0.647893
	H448	H	0.327569	0.678898	0.631790
	H449	H	0.332637	0.687136	0.645673
	O450	O	0.678225	0.295888	0.467980
	H451	H	0.670862	0.291543	0.465893
	H452	H	0.700469	0.281428	0.446306
	O453	O	0.603850	0.685144	0.369290
	H454	H	0.586109	0.684818	0.375070
	H455	H	0.613535	0.661619	0.363171
	O456	O	1.200655	-0.032172	0.056860
	H457	H	1.195460	-0.035464	0.053696
	H458	H	1.197552	-0.029999	0.063507
	O459	O	0.402347	0.491799	0.292385
	H460	H	0.431372	0.504940	0.300721
	H461	H	0.397814	0.495421	0.288474
	O462	O	0.491721	0.717545	0.516589
	H463	H	0.483622	0.716364	0.507499
	H464	H	0.478572	0.702366	0.511460
	O465	O	0.776799	0.036466	-0.227424
	H466	H	0.767092	0.071722	-0.231636
	H467	H	0.758443	0.027614	-0.220346
