data_Molecule from HDF5

_cell_length_a		16.336261
_cell_length_b		16.316823
_cell_length_c		16.234392
_cell_angle_alpha	89.845926
_cell_angle_beta	90.374641
_cell_angle_gamma	89.801194
_symmetry_space_group_name_H-M	'P 1'
_symmetry_Int_Tables_number		1

loop_
	_symmetry_equiv_pos_as_xyz
	x,y,z

loop_
	_atom_site_label
	_atom_site_type_symbol
	_atom_site_fract_x
	_atom_site_fract_y
	_atom_site_fract_z
	H0	H	0.400346	0.833663	0.716619
	H1	H	0.593390	0.161144	0.715888
	H2	H	0.593940	0.833611	0.288316
	H3	H	0.395135	0.161011	0.286977
	H4	H	0.710218	0.398969	0.838065
	H5	H	0.711203	0.595364	0.165574
	H6	H	0.279776	0.598958	0.838804
	H7	H	0.283577	0.398727	0.165818
	H8	H	0.833633	0.713453	0.401348
	H9	H	0.158567	0.711701	0.604298
	H10	H	0.832302	0.282617	0.600824
	H11	H	0.157996	0.280618	0.404970
	H12	H	0.831869	0.399955	0.715147
	H13	H	0.158393	0.593801	0.718302
	H14	H	0.833113	0.595560	0.286723
	H15	H	0.159786	0.397874	0.290236
	H16	H	0.396082	0.713735	0.838767
	H17	H	0.595044	0.710521	0.166926
	H18	H	0.594135	0.283989	0.837699
	H19	H	0.398614	0.283033	0.165048
	H20	H	0.710915	0.833803	0.404526
	H21	H	0.711759	0.160020	0.602619
	H22	H	0.282509	0.833427	0.601745
	H23	H	0.276930	0.159079	0.400976
	H24	H	0.899532	0.333811	0.216481
	H25	H	0.092725	0.661233	0.216699
	H26	H	0.093790	0.334277	0.789646
	H27	H	0.895950	0.660730	0.786305
	H28	H	0.210045	0.895902	0.338785
	H29	H	0.211406	0.094823	0.666145
	H30	H	0.778662	0.096472	0.339074
	H31	H	0.783897	0.898906	0.667140
	H32	H	0.333959	0.215866	0.899541
	H33	H	0.658997	0.212430	0.102286
	H34	H	0.333139	0.783393	0.100255
	H35	H	0.658506	0.782603	0.905779
	H36	H	0.331935	0.900119	0.215150
	H37	H	0.657844	0.096931	0.219986
	H38	H	0.333191	0.098096	0.784994
	H39	H	0.660264	0.901238	0.791721
	H40	H	0.893289	0.213343	0.338614
	H41	H	0.093365	0.209061	0.667305
	H42	H	0.092460	0.782926	0.338523
	H43	H	0.898828	0.782766	0.666418
	H44	H	0.212945	0.335594	0.902848
	H45	H	0.210770	0.661687	0.102823
	H46	H	0.782363	0.334568	0.100523
	H47	H	0.780148	0.661008	0.901969
	H48	H	0.408465	0.110708	0.590722
	H49	H	0.591733	0.880987	0.593495
	H50	H	0.587317	0.111388	0.414477
	H51	H	0.405202	0.882497	0.408301
	H52	H	0.586368	0.407165	0.116325
	H53	H	0.582736	0.595324	0.885053
	H54	H	0.402371	0.590081	0.119162
	H55	H	0.412090	0.409522	0.888356
	H56	H	0.112256	0.593068	0.413165
	H57	H	0.882166	0.579792	0.594649
	H58	H	0.112612	0.393547	0.591362
	H59	H	0.878462	0.399221	0.409999
	H60	H	0.108623	0.409954	0.591830
	H61	H	0.875149	0.596709	0.602309
	H62	H	0.111269	0.587057	0.412235
	H63	H	0.882791	0.408617	0.414921
	H64	H	0.404975	0.590485	0.118093
	H65	H	0.593431	0.593058	0.882962
	H66	H	0.589486	0.400038	0.120760
	H67	H	0.402139	0.399233	0.882511
	H68	H	0.590651	0.113595	0.409282
	H69	H	0.592998	0.879513	0.599804
	H70	H	0.395872	0.113576	0.589163
	H71	H	0.402279	0.881428	0.411719
	H72	H	0.912047	0.610144	0.090788
	H73	H	0.092637	0.383384	0.089272
	H74	H	0.092721	0.614215	0.915771
	H75	H	0.908644	0.382842	0.906349
	H76	H	0.082880	0.898119	0.618662
	H77	H	0.091418	0.090599	0.384076
	H78	H	0.899956	0.090565	0.620168
	H79	H	0.897974	0.905562	0.384033
	H80	H	0.609363	0.083276	0.909068
	H81	H	0.379168	0.095262	0.091796
	H82	H	0.611522	0.907888	0.097885
	H83	H	0.376967	0.893985	0.909730
	H84	H	0.613437	0.901270	0.098941
	H85	H	0.380573	0.089617	0.092246
	H86	H	0.614924	0.095767	0.904081
	H87	H	0.384082	0.911844	0.918123
	H88	H	0.903840	0.087081	0.618340
	H89	H	0.085010	0.083949	0.388242
	H90	H	0.097841	0.900354	0.623353
	H91	H	0.903698	0.907971	0.387121
	H92	H	0.089031	0.616593	0.903639
	H93	H	0.096819	0.379039	0.100024
	H94	H	0.893657	0.614723	0.088192
	H95	H	0.900582	0.383034	0.916558
	H96	H	0.401191	0.115579	0.600175
	H97	H	0.587720	0.881797	0.598603
	H98	H	0.584545	0.112674	0.408955
	H99	H	0.401589	0.879693	0.407524
	H100	H	0.594614	0.406901	0.119206
	H101	H	0.586998	0.585812	0.887682
	H102	H	0.403806	0.592927	0.120522
	H103	H	0.396834	0.413277	0.885589
	H104	H	0.112596	0.591106	0.407407
	H105	H	0.881032	0.596521	0.583940
	H106	H	0.114147	0.402103	0.605879
	H107	H	0.879126	0.408755	0.403344
	H108	H	0.902397	0.617235	0.105660
	H109	H	0.084698	0.382661	0.098541
	H110	H	0.081186	0.611115	0.911935
	H111	H	0.896492	0.378399	0.905126
	H112	H	0.089420	0.912130	0.616644
	H113	H	0.082096	0.093934	0.386261
	H114	H	0.904763	0.092396	0.619141
	H115	H	0.903588	0.901613	0.385354
	H116	H	0.610983	0.094515	0.917981
	H117	H	0.379436	0.092750	0.096932
	H118	H	0.611046	0.903339	0.092657
	H119	H	0.378685	0.911018	0.897746
	C120	C	0.374636	0.005328	0.622938
	C121	C	0.618294	0.988879	0.625064
	C122	C	0.616616	0.005113	0.381645
	C123	C	0.373181	0.988905	0.380125
	C124	C	0.618032	0.375967	0.010311
	C125	C	0.617116	0.619360	0.993550
	C126	C	0.374293	0.620148	0.010908
	C127	C	0.375538	0.377738	0.993660
	C128	C	0.004519	0.619200	0.381357
	C129	C	0.987274	0.618794	0.623797
	C130	C	0.003791	0.374606	0.624281
	C131	C	0.987612	0.375662	0.381127
	C132	C	0.874857	0.505724	0.123722
	C133	C	0.119047	0.489613	0.125004
	C134	C	0.117308	0.506415	0.881165
	C135	C	0.873356	0.489269	0.879955
	C136	C	0.117730	0.874725	0.511270
	C137	C	0.115593	0.117355	0.494686
	C138	C	0.872941	0.119124	0.511037
	C139	C	0.874512	0.876044	0.494058
	C140	C	0.504223	0.120334	0.880288
	C141	C	0.487557	0.120131	0.123482
	C142	C	0.503830	0.876336	0.124007
	C143	C	0.487575	0.876570	0.880874
	C144	C	0.379005	0.882390	0.678811
	C145	C	0.614824	0.112125	0.678959
	C146	C	0.614079	0.882301	0.326519
	C147	C	0.374745	0.111995	0.324870
	C148	C	0.672159	0.378740	0.886848
	C149	C	0.673123	0.616188	0.116957
	C150	C	0.317716	0.619009	0.887968
	C151	C	0.321206	0.378971	0.116734
	C152	C	0.882043	0.674870	0.381772
	C153	C	0.109677	0.673859	0.623869
	C154	C	0.880921	0.320331	0.621329
	C155	C	0.109740	0.319082	0.384149
	C156	C	0.880698	0.378877	0.677979
	C157	C	0.109832	0.614814	0.680129
	C158	C	0.881965	0.616528	0.324653
	C159	C	0.110511	0.377345	0.327178
	C160	C	0.375967	0.675747	0.887655
	C161	C	0.615177	0.673330	0.117573
	C162	C	0.614822	0.321282	0.886823
	C163	C	0.378418	0.321432	0.116367
	C164	C	0.671835	0.882062	0.384548
	C165	C	0.673723	0.111343	0.622743
	C166	C	0.320391	0.882295	0.621806
	C167	C	0.316316	0.111070	0.381648
	C168	C	0.878862	0.382640	0.178358
	C169	C	0.114670	0.612363	0.179544
	C170	C	0.114791	0.383397	0.826701
	C171	C	0.875583	0.612122	0.824498
	C172	C	0.171889	0.876659	0.387765
	C173	C	0.172278	0.114659	0.617459
	C174	C	0.816882	0.117062	0.387802
	C175	C	0.820860	0.877957	0.617887
	C176	C	0.382269	0.176874	0.880349
	C177	C	0.610280	0.174736	0.122525
	C178	C	0.381428	0.821345	0.121192
	C179	C	0.610262	0.821215	0.884969
	C180	C	0.380956	0.879339	0.177943
	C181	C	0.609667	0.117091	0.180744
	C182	C	0.381890	0.118492	0.823423
	C183	C	0.611064	0.880109	0.828241
	C184	C	0.873690	0.175150	0.387800
	C185	C	0.113814	0.171722	0.618089
	C186	C	0.113810	0.820167	0.387654
	C187	C	0.878382	0.820614	0.617525
	C188	C	0.173980	0.383999	0.882974
	C189	C	0.173138	0.612492	0.122853
	C190	C	0.820202	0.383091	0.121002
	C191	C	0.817801	0.612229	0.881928
	C192	C	0.395595	0.091050	0.600069
	C193	C	0.597074	0.902995	0.603548
	C194	C	0.594120	0.090347	0.404214
	C195	C	0.396188	0.903413	0.402646
	C196	C	0.596481	0.398100	0.096513
	C197	C	0.594322	0.597755	0.907591
	C198	C	0.396989	0.597627	0.097008
	C199	C	0.397378	0.400731	0.907547
	C200	C	0.089937	0.596880	0.404228
	C201	C	0.901623	0.597369	0.600372
	C202	C	0.089578	0.395614	0.602719
	C203	C	0.902272	0.398775	0.403097
	C204	C	0.896402	0.591933	0.101395
	C205	C	0.097667	0.403794	0.102432
	C206	C	0.094488	0.591755	0.903751
	C207	C	0.895414	0.403572	0.902624
	C208	C	0.096378	0.897021	0.597387
	C209	C	0.092773	0.095882	0.408288
	C210	C	0.895972	0.096724	0.596945
	C211	C	0.895539	0.898420	0.408067
	C212	C	0.589640	0.097671	0.903558
	C213	C	0.401831	0.098960	0.100377
	C214	C	0.589671	0.897809	0.102651
	C215	C	0.402052	0.898953	0.902174
	Zn216	Zn	0.495902	-0.002040	0.752316
	Zn217	Zn	0.495093	-0.002591	0.252397
	Zn218	Zn	0.745554	0.497912	0.001697
	Zn219	Zn	0.246643	0.498547	0.002410
	Zn220	Zn	-0.004002	0.747820	0.502599
	Zn221	Zn	-0.004893	0.246427	0.502381
	Zn222	Zn	-0.005124	0.497269	0.752224
	Zn223	Zn	-0.003274	0.497313	0.252718
	Zn224	Zn	0.495741	0.747833	0.002798
	Zn225	Zn	0.496539	0.248815	0.001690
	Zn226	Zn	0.746167	-0.003212	0.503172
	Zn227	Zn	0.244992	-0.003958	0.501767
	N228	N	0.412065	0.960006	0.679692
	N229	N	0.581058	0.035218	0.680393
	N230	N	0.580459	0.959664	0.324552
	N231	N	0.409549	0.035137	0.323842
	N232	N	0.674463	0.412040	0.964651
	N233	N	0.674423	0.583355	0.038981
	N234	N	0.316760	0.585074	0.965686
	N235	N	0.319485	0.413613	0.039322
	N236	N	0.959032	0.676554	0.416351
	N237	N	0.032593	0.676159	0.589331
	N238	N	0.958340	0.317587	0.588526
	N239	N	0.032220	0.317760	0.416849
	N240	N	0.958109	0.411867	0.679987
	N241	N	0.032601	0.581286	0.680185
	N242	N	0.959004	0.582302	0.324397
	N243	N	0.033578	0.411766	0.325101
	N244	N	0.410261	0.676708	0.965239
	N245	N	0.580978	0.675394	0.039845
	N246	N	0.582117	0.319489	0.964648
	N247	N	0.411352	0.320464	0.038665
	N248	N	0.673775	0.959482	0.417929
	N249	N	0.675851	0.033618	0.589729
	N250	N	0.317761	0.959453	0.587634
	N251	N	0.315149	0.033483	0.415112
	N252	N	0.911907	0.460194	0.180080
	N253	N	0.081769	0.534946	0.180906
	N254	N	0.080134	0.460431	0.825391
	N255	N	0.909186	0.534772	0.823223
	N256	N	0.174467	0.909754	0.465668
	N257	N	0.173299	0.081381	0.539632
	N258	N	0.816324	0.082921	0.465274
	N259	N	0.818402	0.911853	0.540369
	N260	N	0.459378	0.178015	0.915030
	N261	N	0.533395	0.176526	0.087648
	N262	N	0.458875	0.819250	0.088463
	N263	N	0.532478	0.818956	0.916912
	N264	N	0.458122	0.912880	0.179838
	N265	N	0.532252	0.083843	0.181458
	N266	N	0.458767	0.083929	0.823337
	N267	N	0.533790	0.913738	0.825609
	N268	N	0.907908	0.176455	0.465525
	N269	N	0.079270	0.173356	0.540538
	N270	N	0.080926	0.818735	0.465373
	N271	N	0.910907	0.819210	0.539516
	N272	N	0.175626	0.461419	0.916226
	N273	N	0.176192	0.534796	0.089821
	N274	N	0.817800	0.460788	0.087752
	N275	N	0.816334	0.534746	0.915772
	O276	O	0.474316	0.478639	0.464792
	H277	H	0.473567	0.486747	0.454655
	H278	H	0.472924	0.473417	0.462669
	O279	O	0.527168	0.497253	0.512942
	H280	H	0.525582	0.484807	0.516531
	H281	H	0.527609	0.500139	0.521517
	O282	O	0.489133	0.479578	0.515157
	H283	H	0.487828	0.475257	0.514588
	H284	H	0.491210	0.484893	0.518048
	O285	O	-0.012769	0.959003	1.049837
	H286	H	-0.010699	0.958131	1.048842
	H287	H	-0.008172	0.957137	1.036627
	O288	O	0.962854	1.042134	0.008658
	H289	H	0.960179	1.041287	0.013450
	H290	H	0.963266	1.048587	0.012852
	O291	O	0.002584	0.053221	1.015639
	H292	H	-0.003766	0.055590	1.024723
	H293	H	-0.000577	0.053534	1.009447
	O294	O	0.476138	0.510689	0.506955
	H295	H	0.479260	0.515141	0.497157
	H296	H	0.469088	0.519389	0.505408
	O297	O	0.517726	0.494101	0.550632
	H298	H	0.519761	0.492382	0.554583
	H299	H	0.525973	0.496010	0.547130
	O300	O	0.477133	0.475839	0.454280
	H301	H	0.472585	0.482443	0.461797
	H302	H	0.476240	0.490593	0.454099
	O303	O	0.493180	0.462204	0.442013
	H304	H	0.490031	0.464863	0.434518
	H305	H	0.502423	0.453092	0.445444
	O306	O	0.975690	0.043722	1.006119
	H307	H	0.970832	0.043787	1.006230
	H308	H	0.982063	0.046048	1.009838
	O309	O	0.374592	0.570156	0.476292
	H310	H	0.379214	0.569253	0.464972
	H311	H	0.376676	0.574410	0.474706
	O312	O	0.521999	0.547568	0.455030
	H313	H	0.524173	0.544809	0.452235
	H314	H	0.522960	0.537408	0.455513
	O315	O	1.018151	-0.018355	1.034755
	H316	H	1.010168	-0.015006	1.036398
	H317	H	1.018940	-0.020918	1.036218
	O318	O	-0.050395	0.011600	-0.062272
	H319	H	-0.058695	0.022922	-0.060142
	H320	H	-0.046243	0.010366	-0.074852
	O321	O	0.504546	0.491801	0.452429
	H322	H	0.508770	0.494853	0.444372
	H323	H	0.502264	0.489540	0.459340
	O324	O	0.968126	0.018624	0.025407
	H325	H	0.970279	0.016073	0.022308
	H326	H	0.961180	0.018159	0.018189
	O327	O	1.037523	1.042622	0.006840
	H328	H	1.038109	1.039066	0.014790
	H329	H	1.046412	1.053371	0.005443
	O330	O	0.426250	0.553849	0.490012
	H331	H	0.424920	0.542786	0.489460
	H332	H	0.422200	0.555278	0.490122
	O333	O	0.515094	0.531116	0.484241
	H334	H	0.509799	0.521358	0.489640
	H335	H	0.520020	0.540935	0.483728
