data_Molecule from HDF5

_cell_length_a		16.508745
_cell_length_b		16.267460
_cell_length_c		16.364471
_cell_angle_alpha	89.946157
_cell_angle_beta	90.289602
_cell_angle_gamma	90.023932
_symmetry_space_group_name_H-M	'P 1'
_symmetry_Int_Tables_number		1

loop_
	_symmetry_equiv_pos_as_xyz
	x,y,z

loop_
	_atom_site_label
	_atom_site_type_symbol
	_atom_site_fract_x
	_atom_site_fract_y
	_atom_site_fract_z
	H0	H	0.387805	0.848879	0.714170
	H1	H	0.593309	0.171930	0.717427
	H2	H	0.592542	0.851011	0.278159
	H3	H	0.384770	0.171881	0.277705
	H4	H	0.708005	0.404245	0.839419
	H5	H	0.708198	0.616809	0.158120
	H6	H	0.262923	0.619885	0.840174
	H7	H	0.266011	0.403617	0.156840
	H8	H	0.829067	0.729792	0.397450
	H9	H	0.147893	0.730542	0.604952
	H10	H	0.830735	0.288233	0.603327
	H11	H	0.146972	0.290001	0.394697
	H12	H	0.829113	0.405701	0.718156
	H13	H	0.146423	0.615105	0.722380
	H14	H	0.829000	0.615184	0.278326
	H15	H	0.144093	0.402186	0.274144
	H16	H	0.384591	0.729495	0.836986
	H17	H	0.589297	0.729044	0.159478
	H18	H	0.588801	0.292621	0.837130
	H19	H	0.383941	0.289721	0.156668
	H20	H	0.708856	0.850918	0.392447
	H21	H	0.710046	0.171451	0.602703
	H22	H	0.268989	0.850760	0.602172
	H23	H	0.263682	0.168459	0.386464
	H24	H	0.882810	0.350449	0.219559
	H25	H	0.090403	0.672136	0.217676
	H26	H	0.091399	0.350187	0.780217
	H27	H	0.883707	0.671586	0.779330
	H28	H	0.209573	0.902932	0.337817
	H29	H	0.213781	0.117518	0.655770
	H30	H	0.766283	0.119441	0.339654
	H31	H	0.768762	0.905693	0.656562
	H32	H	0.328634	0.231059	0.891267
	H33	H	0.646048	0.233364	0.102187
	H34	H	0.328244	0.792559	0.099378
	H35	H	0.648009	0.792662	0.897690
	H36	H	0.330623	0.903893	0.219893
	H37	H	0.645510	0.119173	0.220391
	H38	H	0.330121	0.115136	0.773605
	H39	H	0.648135	0.907777	0.780527
	H40	H	0.884725	0.232297	0.339068
	H41	H	0.094597	0.230015	0.658442
	H42	H	0.091403	0.789528	0.338538
	H43	H	0.891384	0.796510	0.660715
	H44	H	0.210721	0.352990	0.890837
	H45	H	0.207960	0.671391	0.105363
	H46	H	0.765183	0.351074	0.105278
	H47	H	0.767471	0.671209	0.894626
	H48	H	0.399393	0.123966	0.579083
	H49	H	0.573202	0.900063	0.582321
	H50	H	0.571005	0.123061	0.409926
	H51	H	0.401285	0.895907	0.407729
	H52	H	0.577081	0.427189	0.110381
	H53	H	0.582997	0.599526	0.882699
	H54	H	0.399386	0.603662	0.112135
	H55	H	0.402150	0.420439	0.884530
	H56	H	0.102018	0.600675	0.406514
	H57	H	0.875977	0.603047	0.587552
	H58	H	0.100286	0.422423	0.587513
	H59	H	0.874877	0.415261	0.413078
	H60	H	0.100398	0.424450	0.592351
	H61	H	0.875202	0.600749	0.590908
	H62	H	0.101450	0.602446	0.409736
	H63	H	0.879927	0.427326	0.415485
	H64	H	0.393209	0.602550	0.114082
	H65	H	0.575508	0.597108	0.886411
	H66	H	0.573613	0.420429	0.111153
	H67	H	0.391129	0.422751	0.881988
	H68	H	0.583418	0.125721	0.416293
	H69	H	0.590068	0.894984	0.583338
	H70	H	0.399320	0.125825	0.586208
	H71	H	0.400563	0.897702	0.409582
	H72	H	0.891559	0.625278	0.084078
	H73	H	0.072076	0.398124	0.087250
	H74	H	0.079337	0.625319	0.914595
	H75	H	0.894557	0.395035	0.908806
	H76	H	0.091600	0.920718	0.615650
	H77	H	0.073076	0.096342	0.387305
	H78	H	0.900010	0.103463	0.613031
	H79	H	0.899182	0.922262	0.384270
	H80	H	0.602428	0.101543	0.902705
	H81	H	0.375584	0.101673	0.083900
	H82	H	0.600923	0.921237	0.086846
	H83	H	0.374583	0.923735	0.902867
	H84	H	0.600345	0.923206	0.087196
	H85	H	0.377244	0.095482	0.083877
	H86	H	0.601080	0.105930	0.910963
	H87	H	0.372790	0.918860	0.901349
	H88	H	0.895536	0.094662	0.612166
	H89	H	0.076432	0.104194	0.383216
	H90	H	0.079336	0.931476	0.608057
	H91	H	0.898491	0.919923	0.382761
	H92	H	0.074619	0.626088	0.906726
	H93	H	0.077361	0.398649	0.082550
	H94	H	0.896505	0.627953	0.094452
	H95	H	0.897996	0.396384	0.908980
	H96	H	0.405429	0.122956	0.583574
	H97	H	0.580257	0.893151	0.597200
	H98	H	0.581488	0.129206	0.402520
	H99	H	0.398437	0.896091	0.408304
	H100	H	0.580821	0.421349	0.113073
	H101	H	0.576067	0.605268	0.883213
	H102	H	0.397054	0.597652	0.111248
	H103	H	0.397602	0.430414	0.887210
	H104	H	0.101391	0.598749	0.409046
	H105	H	0.873794	0.604231	0.591099
	H106	H	0.102459	0.419339	0.591210
	H107	H	0.874946	0.425365	0.403540
	H108	H	0.903186	0.623953	0.085991
	H109	H	0.078236	0.394942	0.088708
	H110	H	0.070555	0.622431	0.914114
	H111	H	0.895737	0.396641	0.912024
	H112	H	0.074880	0.915121	0.611758
	H113	H	0.081891	0.096328	0.384721
	H114	H	0.904748	0.096380	0.608834
	H115	H	0.896828	0.922207	0.383327
	H116	H	0.598488	0.096964	0.910227
	H117	H	0.374831	0.097923	0.089392
	H118	H	0.600602	0.921828	0.088882
	H119	H	0.374870	0.919183	0.906729
	C120	C	0.369729	0.018367	0.616003
	C121	C	0.611909	1.002673	0.619384
	C122	C	0.610303	0.020097	0.376938
	C123	C	0.367366	1.002143	0.375475
	C124	C	0.608295	0.390248	0.006408
	C125	C	0.608665	0.632016	0.990333
	C126	C	0.364854	0.633606	0.006651
	C127	C	0.365624	0.390754	0.989585
	C128	C	-0.003426	0.632852	0.377004
	C129	C	0.980050	0.633429	0.622044
	C130	C	-0.003523	0.389068	0.621355
	C131	C	0.979969	0.389172	0.377509
	C132	C	0.865567	0.519623	0.120219
	C133	C	0.107932	0.502961	0.119406
	C134	C	0.107693	0.519279	0.879037
	C135	C	0.865090	0.502043	0.877810
	C136	C	0.111648	0.889226	0.506073
	C137	C	0.110595	0.131719	0.489847
	C138	C	0.868075	0.132011	0.506617
	C139	C	0.868083	0.890236	0.489393
	C140	C	0.496157	0.133110	0.874922
	C141	C	0.479804	0.132358	0.118490
	C142	C	0.496049	0.889888	0.119133
	C143	C	0.479641	0.889039	0.874598
	C144	C	0.368975	0.897585	0.675043
	C145	C	0.612532	0.123515	0.678216
	C146	C	0.611582	0.899251	0.317537
	C147	C	0.365724	0.123161	0.316119
	C148	C	0.667951	0.386964	0.886897
	C149	C	0.667774	0.634338	0.110542
	C150	C	0.304254	0.636633	0.887256
	C151	C	0.306207	0.386511	0.109241
	C152	C	0.877017	0.691400	0.377108
	C153	C	0.099975	0.691545	0.623753
	C154	C	0.877784	0.328444	0.621951
	C155	C	0.098977	0.328996	0.375282
	C156	C	0.877048	0.386831	0.679289
	C157	C	0.098955	0.634147	0.682347
	C158	C	0.876846	0.634132	0.318062
	C159	C	0.097571	0.385109	0.315537
	C160	C	0.364643	0.691442	0.885740
	C161	C	0.608414	0.690297	0.111042
	C162	C	0.608351	0.331363	0.885728
	C163	C	0.364894	0.329768	0.109188
	C164	C	0.669483	0.899238	0.374540
	C165	C	0.670642	0.123411	0.621056
	C166	C	0.309766	0.898257	0.619152
	C167	C	0.305712	0.121569	0.370597
	C168	C	0.864018	0.398578	0.179933
	C169	C	0.109250	0.623684	0.178952
	C170	C	0.109811	0.398657	0.819336
	C171	C	0.864604	0.623142	0.818631
	C172	C	0.169829	0.885667	0.385952
	C173	C	0.172725	0.135004	0.608683
	C174	C	0.807042	0.136358	0.387133
	C175	C	0.809383	0.888340	0.609423
	C176	C	0.376304	0.191518	0.872763
	C177	C	0.598443	0.193638	0.120896
	C178	C	0.376283	0.831256	0.119078
	C179	C	0.599810	0.831102	0.877201
	C180	C	0.377332	0.887236	0.178738
	C181	C	0.598349	0.136605	0.179683
	C182	C	0.377242	0.134158	0.813894
	C183	C	0.600032	0.888180	0.818461
	C184	C	0.865869	0.192684	0.386963
	C185	C	0.113267	0.190868	0.610224
	C186	C	0.111321	0.828566	0.386390
	C187	C	0.870290	0.833922	0.611452
	C188	C	0.169500	0.400188	0.874460
	C189	C	0.168146	0.623088	0.123097
	C190	C	0.805536	0.398867	0.123173
	C191	C	0.806805	0.623163	0.876047
	C192	C	0.394456	0.102457	0.590216
	C193	C	0.588082	0.918062	0.594715
	C194	C	0.585854	0.104126	0.402132
	C195	C	0.392706	0.918559	0.401153
	C196	C	0.584105	0.415673	0.089799
	C197	C	0.585061	0.607577	0.906013
	C198	C	0.389522	0.608620	0.090565
	C199	C	0.389871	0.417030	0.906124
	C200	C	0.079921	0.607743	0.401386
	C201	C	0.896647	0.609541	0.597064
	C202	C	0.079459	0.414563	0.597206
	C203	C	0.898028	0.415174	0.403295
	C204	C	0.889863	0.603620	0.095233
	C205	C	0.083054	0.419053	0.093594
	C206	C	0.082085	0.602932	0.904640
	C207	C	0.889188	0.417796	0.902714
	C208	C	0.088539	0.914975	0.590089
	C209	C	0.084746	0.106363	0.406600
	C210	C	0.892952	0.105839	0.589573
	C211	C	0.891431	0.914479	0.405303
	C212	C	0.579034	0.108617	0.900678
	C213	C	0.397407	0.106012	0.093063
	C214	C	0.579001	0.914909	0.094790
	C215	C	0.395925	0.913338	0.896994
	Zn216	Zn	0.489359	0.010696	0.745863
	Zn217	Zn	0.488835	0.011192	0.248580
	Zn218	Zn	0.737329	0.511257	-0.000943
	Zn219	Zn	0.236726	0.511800	-0.000969
	Zn220	Zn	-0.010669	0.761571	0.499515
	Zn221	Zn	-0.010398	0.260147	0.499255
	Zn222	Zn	-0.012827	0.510825	0.750270
	Zn223	Zn	-0.012356	0.510700	0.248307
	Zn224	Zn	0.487621	0.760973	-0.002237
	Zn225	Zn	0.486479	0.261623	-0.002930
	Zn226	Zn	0.739315	0.011527	0.497245
	Zn227	Zn	0.239798	0.011054	0.496422
	N228	N	0.405571	0.973469	0.673112
	N229	N	0.577214	0.047256	0.677554
	N230	N	0.575563	0.975251	0.318842
	N231	N	0.403456	0.047900	0.319068
	N232	N	0.668183	0.422952	0.962943
	N233	N	0.667961	0.598780	0.034439
	N234	N	0.304279	0.601369	0.963635
	N235	N	0.306766	0.423816	0.033795
	N236	N	0.952551	0.690679	0.413055
	N237	N	0.025069	0.690923	0.586732
	N238	N	0.953282	0.329483	0.586975
	N239	N	0.024994	0.331273	0.413263
	N240	N	0.951921	0.423719	0.679193
	N241	N	0.023403	0.598771	0.681452
	N242	N	0.952437	0.598722	0.317774
	N243	N	0.022572	0.421449	0.316454
	N244	N	0.401694	0.689670	0.961052
	N245	N	0.572354	0.688920	0.035149
	N246	N	0.572197	0.333040	0.961096
	N247	N	0.401069	0.332346	0.033835
	N248	N	0.668821	0.975573	0.410759
	N249	N	0.670256	0.047060	0.585053
	N250	N	0.310228	0.974482	0.582878
	N251	N	0.306382	0.045327	0.406712
	N252	N	0.900555	0.474488	0.178423
	N253	N	0.072597	0.547845	0.176900
	N254	N	0.072143	0.473850	0.821835
	N255	N	0.900123	0.546737	0.819741
	N256	N	0.170128	0.922596	0.461454
	N257	N	0.171494	0.099290	0.532561
	N258	N	0.808294	0.099249	0.462483
	N259	N	0.807752	0.922573	0.532601
	N260	N	0.451184	0.191249	0.909563
	N261	N	0.523658	0.191038	0.083463
	N262	N	0.450906	0.833139	0.082465
	N263	N	0.523825	0.831238	0.911234
	N264	N	0.452909	0.922940	0.179035
	N265	N	0.523560	0.099523	0.178611
	N266	N	0.452762	0.098441	0.815072
	N267	N	0.524380	0.923329	0.816685
	N268	N	0.903124	0.190108	0.462176
	N269	N	0.075376	0.188860	0.535397
	N270	N	0.076176	0.830432	0.462397
	N271	N	0.906269	0.835204	0.535938
	N272	N	0.168199	0.476224	0.910920
	N273	N	0.167686	0.546864	0.086921
	N274	N	0.806465	0.474991	0.086543
	N275	N	0.806899	0.546921	0.912019
	O276	O	0.617982	0.493670	0.520920
	H277	H	0.621789	0.486808	0.538459
	H278	H	0.604269	0.492030	0.520126
	O279	O	1.118483	-0.035614	-0.039251
	H280	H	1.122437	-0.020660	-0.019674
	H281	H	1.121179	-0.036464	-0.054225
	O282	O	0.629177	0.596834	0.531925
	H283	H	0.635801	0.601703	0.543130
	H284	H	0.623562	0.604688	0.522834
	O285	O	1.018290	-0.123994	-0.039805
	H286	H	1.004705	-0.149617	-0.036153
	H287	H	1.033060	-0.125801	-0.066602
	O288	O	0.105507	-0.092441	1.016936
	H289	H	0.101609	-0.101786	1.011243
	H290	H	0.086541	-0.074485	1.010089
	O291	O	0.644172	0.412536	0.461186
	H292	H	0.642455	0.419197	0.462483
	H293	H	0.651121	0.402015	0.463358
	O294	O	0.372879	0.415605	0.404907
	H295	H	0.355815	0.421506	0.386407
	H296	H	0.372109	0.403558	0.417192
	O297	O	0.869448	1.065925	0.847225
	H298	H	0.878322	1.079559	0.857531
	H299	H	0.853479	1.072324	0.827924
	O300	O	0.118991	0.053646	-0.133965
	H301	H	0.096804	0.047658	-0.126856
	H302	H	0.130145	0.052374	-0.133145
	O303	O	0.551523	0.485719	0.583479
	H304	H	0.561390	0.504056	0.572717
	H305	H	0.547402	0.467729	0.598577
	O306	O	1.133798	0.189649	0.113715
	H307	H	1.105134	0.190144	0.122302
	H308	H	1.136343	0.148038	0.122902
	O309	O	0.533375	0.696316	0.494170
	H310	H	0.527574	0.694261	0.491187
	H311	H	0.530255	0.707126	0.489970
	O312	O	0.657602	1.335806	-0.658599
	H313	H	0.659734	1.351219	-0.646124
	H314	H	0.641892	1.330275	-0.656629
	O315	O	0.318631	0.516016	0.651534
	H316	H	0.321272	0.509270	0.659555
	H317	H	0.316438	0.516141	0.659116
	O318	O	0.410115	0.536423	0.701296
	H319	H	0.428549	0.536784	0.697557
	H320	H	0.398891	0.541901	0.705145
	O321	O	0.863954	-0.135057	1.177599
	H322	H	0.895511	-0.138375	1.173697
	H323	H	0.869916	-0.144178	1.175832
	O324	O	0.182959	0.048935	1.160116
	H325	H	0.183259	0.041249	1.169947
	H326	H	0.161303	0.033404	1.166972
	O327	O	1.180276	1.187878	1.011130
	H328	H	1.170036	1.172487	1.047251
	H329	H	1.210080	1.210849	1.016305
	O330	O	0.594717	0.700003	0.600697
	H331	H	0.589638	0.703988	0.591007
	H332	H	0.581676	0.686929	0.592737
	O333	O	0.845907	1.079362	1.025823
	H334	H	0.847005	1.076203	1.013622
	H335	H	0.845587	1.068924	1.044631
	O336	O	0.573417	0.701628	0.687133
	H337	H	0.582807	0.710504	0.681537
	H338	H	0.571494	0.721610	0.702290
	O339	O	1.411734	-0.473582	1.301900
	H340	H	1.413044	-0.477621	1.281090
	H341	H	1.417088	-0.460259	1.302024
	O342	O	-0.073642	1.210092	0.855963
	H343	H	-0.067460	1.205602	0.868856
	H344	H	-0.073213	1.230004	0.844768
	O345	O	-0.144107	1.158996	0.886936
	H346	H	-0.135771	1.157129	0.898369
	H347	H	-0.157638	1.161509	0.895004
	O348	O	0.812118	0.172209	0.808889
	H349	H	0.807242	0.188268	0.852899
	H350	H	0.840893	0.185291	0.792122
	O351	O	0.044587	-0.151848	-0.142568
	H352	H	0.042716	-0.151966	-0.139786
	H353	H	0.032213	-0.163884	-0.147110
	O354	O	0.915817	0.918273	-0.155174
	H355	H	0.903220	0.918261	-0.147472
	H356	H	0.908058	0.940997	-0.160931
	O357	O	-0.188974	1.007237	0.204919
	H358	H	-0.190620	0.973361	0.199266
	H359	H	-0.204705	1.001948	0.218617
	O360	O	0.958009	0.201857	0.990145
	H361	H	0.967339	0.191832	0.991938
	H362	H	0.966999	0.205102	0.978152
	O363	O	-0.026103	-0.004061	0.055899
	H364	H	-0.028624	0.007772	0.061889
	H365	H	-0.016286	0.003870	0.051135
	O366	O	-0.082681	0.947222	0.116690
	H367	H	-0.084542	0.956100	0.110389
	H368	H	-0.092320	0.950859	0.122644
	O369	O	0.539606	0.423590	0.321992
	H370	H	0.528645	0.438973	0.322770
	H371	H	0.550968	0.405152	0.311680
	O372	O	0.381778	0.631079	0.508643
	H373	H	0.382330	0.617200	0.522095
	H374	H	0.367937	0.640417	0.518547
	O375	O	0.268939	0.592729	0.445961
	H376	H	0.272954	0.599055	0.466069
	H377	H	0.248976	0.583642	0.420020
	O378	O	0.432700	0.395471	0.603350
	H379	H	0.428009	0.386232	0.591708
	H380	H	0.437117	0.390597	0.600285
	O381	O	0.315126	0.453620	0.404105
	H382	H	0.307283	0.457439	0.393449
	H383	H	0.307134	0.455350	0.388331
	O384	O	0.087408	0.871026	0.914252
	H385	H	0.087049	0.867931	0.905516
	H386	H	0.080806	0.877222	0.923026
	O387	O	1.626978	0.429821	-0.376432
	H388	H	1.624047	0.434415	-0.363414
	H389	H	1.627686	0.428112	-0.376647
	O390	O	0.601112	0.520206	0.665427
	H391	H	0.605309	0.520617	0.674851
	H392	H	0.600376	0.517068	0.646288
	O393	O	0.866264	-0.100070	0.923520
	H394	H	0.873530	-0.094926	0.933952
	H395	H	0.852148	-0.080190	0.931937
	O396	O	0.556097	0.560672	0.428946
	H397	H	0.558585	0.553528	0.429434
	H398	H	0.561101	0.561860	0.434803
	O399	O	0.318511	0.681360	0.336542
	H400	H	0.322581	0.687505	0.357998
	H401	H	0.347964	0.688921	0.344549
	O402	O	0.996353	0.169571	1.192581
	H403	H	0.975734	0.161860	1.180186
	H404	H	0.996372	0.191232	1.198907
	O405	O	0.346120	-0.626583	0.669818
	H406	H	0.375339	-0.631757	0.679653
	H407	H	0.335477	-0.605196	0.656976
	O408	O	1.074719	0.887847	1.044482
	H409	H	1.075589	0.896020	1.037296
	H410	H	1.095756	0.891310	1.039019
	O411	O	0.476718	0.310519	0.389689
	H412	H	0.492230	0.315924	0.393085
	H413	H	0.470317	0.306594	0.376099
	O414	O	0.078975	-0.061011	1.016339
	H415	H	0.060688	-0.054450	1.008114
	H416	H	0.096365	-0.069230	1.005622
	O417	O	0.324877	0.304575	0.530818
	H418	H	0.328987	0.297222	0.546787
	H419	H	0.317401	0.287174	0.531460
	O420	O	0.544102	1.611835	-0.641320
	H421	H	0.546650	1.598221	-0.632653
	H422	H	0.545370	1.592293	-0.629809
	O423	O	0.955763	0.127537	0.016924
	H424	H	0.973190	0.140217	0.004332
	H425	H	0.948745	0.135268	0.006592
	O426	O	-0.154490	-0.175333	1.148484
	H427	H	-0.142895	-0.175925	1.145833
	H428	H	-0.140779	-0.193076	1.174867
	O429	O	0.542348	0.594030	0.439384
	H430	H	0.538290	0.597451	0.438129
	H431	H	0.541645	0.594493	0.449568
