data_Molecule from HDF5

_cell_length_a		16.373254
_cell_length_b		16.383138
_cell_length_c		16.409038
_cell_angle_alpha	89.930871
_cell_angle_beta	90.084887
_cell_angle_gamma	89.993037
_symmetry_space_group_name_H-M	'P 1'
_symmetry_Int_Tables_number		1

loop_
	_symmetry_equiv_pos_as_xyz
	x,y,z

loop_
	_atom_site_label
	_atom_site_type_symbol
	_atom_site_fract_x
	_atom_site_fract_y
	_atom_site_fract_z
	H0	H	0.391417	0.852246	0.718809
	H1	H	0.597125	0.173537	0.719117
	H2	H	0.594381	0.852420	0.280573
	H3	H	0.388386	0.173503	0.281464
	H4	H	0.711020	0.409808	0.840881
	H5	H	0.711799	0.619431	0.159783
	H6	H	0.269587	0.618099	0.840331
	H7	H	0.273170	0.412713	0.160443
	H8	H	0.831081	0.734523	0.395090
	H9	H	0.150614	0.730989	0.604816
	H10	H	0.829666	0.291590	0.604172
	H11	H	0.150001	0.295131	0.398635
	H12	H	0.829780	0.407085	0.721457
	H13	H	0.149082	0.615848	0.721931
	H14	H	0.831610	0.621857	0.277646
	H15	H	0.148948	0.409904	0.281536
	H16	H	0.386303	0.735171	0.840446
	H17	H	0.595405	0.734530	0.159594
	H18	H	0.594098	0.295297	0.840077
	H19	H	0.387180	0.295573	0.160503
	H20	H	0.709517	0.851322	0.397814
	H21	H	0.712581	0.172382	0.603784
	H22	H	0.274652	0.851444	0.602834
	H23	H	0.272707	0.173051	0.398837
	H24	H	0.885093	0.354167	0.221701
	H25	H	0.093016	0.673885	0.220625
	H26	H	0.092158	0.351542	0.783246
	H27	H	0.884221	0.672062	0.778080
	H28	H	0.209995	0.908815	0.339576
	H29	H	0.208363	0.112847	0.661011
	H30	H	0.770547	0.114608	0.340923
	H31	H	0.770609	0.906757	0.661010
	H32	H	0.330297	0.229778	0.899620
	H33	H	0.652498	0.232530	0.101728
	H34	H	0.331513	0.793121	0.104936
	H35	H	0.651305	0.794637	0.896371
	H36	H	0.331035	0.910473	0.219433
	H37	H	0.652457	0.116777	0.219718
	H38	H	0.332229	0.116965	0.780989
	H39	H	0.653148	0.912211	0.782899
	H40	H	0.884584	0.233441	0.341312
	H41	H	0.093168	0.229939	0.661281
	H42	H	0.093517	0.793162	0.340334
	H43	H	0.887884	0.792115	0.660536
	H44	H	0.208628	0.352634	0.898858
	H45	H	0.210176	0.674229	0.104780
	H46	H	0.770598	0.353810	0.103176
	H47	H	0.771111	0.674397	0.896452
	H48	H	0.397867	0.126975	0.588936
	H49	H	0.584176	0.896890	0.593624
	H50	H	0.591416	0.129539	0.409439
	H51	H	0.399296	0.898373	0.410564
	H52	H	0.584474	0.421811	0.115670
	H53	H	0.578618	0.597677	0.890348
	H54	H	0.404835	0.608225	0.113521
	H55	H	0.394115	0.421017	0.883955
	H56	H	0.107271	0.606790	0.405570
	H57	H	0.873773	0.605803	0.594263
	H58	H	0.098176	0.428525	0.585549
	H59	H	0.874142	0.422356	0.408622
	H60	H	0.105898	0.424848	0.601893
	H61	H	0.877642	0.604022	0.582853
	H62	H	0.101277	0.603880	0.419151
	H63	H	0.875452	0.420912	0.413395
	H64	H	0.396078	0.605025	0.114841
	H65	H	0.574436	0.608806	0.887436
	H66	H	0.580488	0.430862	0.111450
	H67	H	0.399391	0.426605	0.887139
	H68	H	0.572840	0.126038	0.402053
	H69	H	0.576447	0.899450	0.594093
	H70	H	0.398459	0.129089	0.593538
	H71	H	0.400069	0.897355	0.407182
	H72	H	0.903581	0.627077	0.093675
	H73	H	0.079412	0.399958	0.092337
	H74	H	0.085233	0.627339	0.913386
	H75	H	0.894735	0.398933	0.914676
	H76	H	0.084729	0.921415	0.614722
	H77	H	0.083717	0.102344	0.385746
	H78	H	0.900210	0.096366	0.612685
	H79	H	0.899884	0.922282	0.387373
	H80	H	0.609841	0.108970	0.904056
	H81	H	0.377064	0.106357	0.090367
	H82	H	0.602653	0.924186	0.082066
	H83	H	0.378777	0.925752	0.911918
	H84	H	0.603531	0.932094	0.093191
	H85	H	0.378385	0.104398	0.090970
	H86	H	0.606371	0.110049	0.914689
	H87	H	0.378275	0.926751	0.908314
	H88	H	0.907069	0.102496	0.612421
	H89	H	0.080040	0.103318	0.386972
	H90	H	0.081325	0.921579	0.613295
	H91	H	0.901175	0.925845	0.389091
	H92	H	0.078257	0.627929	0.904272
	H93	H	0.080749	0.400671	0.090127
	H94	H	0.904569	0.624978	0.085504
	H95	H	0.899719	0.397704	0.905623
	H96	H	0.402013	0.126675	0.591374
	H97	H	0.580542	0.900927	0.587356
	H98	H	0.577494	0.121105	0.421553
	H99	H	0.402977	0.898696	0.409536
	H100	H	0.574475	0.422345	0.112470
	H101	H	0.585794	0.605712	0.884666
	H102	H	0.402296	0.598968	0.110412
	H103	H	0.402609	0.418659	0.885415
	H104	H	0.101196	0.593200	0.409039
	H105	H	0.877997	0.594669	0.590774
	H106	H	0.105559	0.411579	0.588901
	H107	H	0.875853	0.426206	0.411466
	H108	H	0.896710	0.627846	0.088785
	H109	H	0.081934	0.399433	0.092269
	H110	H	0.074490	0.623924	0.914193
	H111	H	0.904232	0.401454	0.913543
	H112	H	0.082422	0.918237	0.615232
	H113	H	0.081823	0.105316	0.385248
	H114	H	0.898200	0.104321	0.616140
	H115	H	0.903925	0.922671	0.388533
	H116	H	0.605040	0.099955	0.909162
	H117	H	0.377407	0.105317	0.092805
	H118	H	0.607108	0.918641	0.093736
	H119	H	0.377009	0.923590	0.909707
	C120	C	0.369917	0.021079	0.622035
	C121	C	0.612660	1.004848	0.621960
	C122	C	0.612097	0.020198	0.379543
	C123	C	0.369383	1.004170	0.378349
	C124	C	0.611720	0.393372	0.008265
	C125	C	0.612175	0.636082	0.992227
	C126	C	0.369028	0.635775	0.007904
	C127	C	0.368305	0.391648	0.991489
	C128	C	-0.001656	0.634537	0.379022
	C129	C	0.982200	0.632680	0.621551
	C130	C	-0.002157	0.389804	0.623089
	C131	C	0.981248	0.392287	0.380105
	C132	C	0.868884	0.521654	0.121898
	C133	C	0.111915	0.505705	0.122634
	C134	C	0.110540	0.520942	0.879786
	C135	C	0.867689	0.504796	0.878843
	C136	C	0.113267	0.889684	0.508516
	C137	C	0.112130	0.133546	0.492072
	C138	C	0.869368	0.132952	0.508643
	C139	C	0.869586	0.890811	0.493092
	C140	C	0.500705	0.136333	0.878586
	C141	C	0.483813	0.135743	0.121863
	C142	C	0.499007	0.893010	0.120947
	C143	C	0.483816	0.893909	0.879539
	C144	C	0.370995	0.900632	0.680305
	C145	C	0.615130	0.125411	0.679939
	C146	C	0.613436	0.900208	0.319856
	C147	C	0.369193	0.125227	0.320709
	C148	C	0.671004	0.391631	0.888431
	C149	C	0.671790	0.637524	0.112073
	C150	C	0.309449	0.636881	0.887987
	C151	C	0.311277	0.392398	0.112269
	C152	C	0.878943	0.695301	0.376571
	C153	C	0.102194	0.691750	0.623560
	C154	C	0.877434	0.331087	0.623546
	C155	C	0.101717	0.334092	0.379501
	C156	C	0.877550	0.388515	0.681866
	C157	C	0.101626	0.634339	0.681894
	C158	C	0.879110	0.638937	0.318210
	C159	C	0.101274	0.390970	0.320978
	C160	C	0.367465	0.694939	0.888009
	C161	C	0.613869	0.695105	0.112042
	C162	C	0.613050	0.334217	0.888105
	C163	C	0.368530	0.334417	0.112294
	C164	C	0.670398	0.899623	0.378497
	C165	C	0.672686	0.124678	0.622459
	C166	C	0.313287	0.899951	0.621998
	C167	C	0.311561	0.125064	0.378962
	C168	C	0.866636	0.401760	0.181529
	C169	C	0.112187	0.626135	0.181202
	C170	C	0.111301	0.400010	0.822112
	C171	C	0.866315	0.624760	0.818704
	C172	C	0.171384	0.889348	0.388138
	C173	C	0.169490	0.132660	0.612994
	C174	C	0.810095	0.134102	0.388705
	C175	C	0.810526	0.888874	0.613113
	C176	C	0.379131	0.192278	0.879332
	C177	C	0.604398	0.193840	0.121904
	C178	C	0.379082	0.833377	0.122880
	C179	C	0.603895	0.834367	0.878111
	C180	C	0.378928	0.891593	0.180014
	C181	C	0.604567	0.136007	0.180235
	C182	C	0.380004	0.135797	0.820593
	C183	C	0.604832	0.893295	0.821935
	C184	C	0.866620	0.193284	0.389029
	C185	C	0.112026	0.190939	0.613037
	C186	C	0.113177	0.832000	0.388144
	C187	C	0.868590	0.831470	0.612902
	C188	C	0.169352	0.400377	0.879688
	C189	C	0.170320	0.626103	0.123425
	C190	C	0.809615	0.401756	0.122592
	C191	C	0.809778	0.625845	0.877392
	C192	C	0.392787	0.105487	0.598218
	C193	C	0.587568	0.921012	0.598422
	C194	C	0.587564	0.103880	0.404003
	C195	C	0.393641	0.920188	0.402093
	C196	C	0.586855	0.417849	0.091433
	C197	C	0.586908	0.611236	0.909073
	C198	C	0.393815	0.611169	0.091257
	C199	C	0.391864	0.415331	0.907178
	C200	C	0.081585	0.608708	0.404017
	C201	C	0.898183	0.608229	0.596523
	C202	C	0.081448	0.414523	0.598980
	C203	C	0.897272	0.416309	0.404120
	C204	C	0.894283	0.605070	0.096869
	C205	C	0.087621	0.421874	0.098615
	C206	C	0.086184	0.604615	0.903615
	C207	C	0.892366	0.421090	0.904070
	C208	C	0.089784	0.913415	0.592651
	C209	C	0.088780	0.110489	0.407827
	C210	C	0.894733	0.108244	0.592053
	C211	C	0.894483	0.916331	0.409957
	C212	C	0.585133	0.113250	0.902370
	C213	C	0.399488	0.112107	0.098102
	C214	C	0.582681	0.917866	0.096469
	C215	C	0.400023	0.918257	0.903205
	Zn216	Zn	0.492431	0.014136	0.750599
	Zn217	Zn	0.491852	0.013279	0.250300
	Zn218	Zn	0.739985	0.514565	0.000170
	Zn219	Zn	0.240340	0.513700	0.000349
	Zn220	Zn	-0.009272	0.761958	0.500367
	Zn221	Zn	-0.009882	0.262130	0.500713
	Zn222	Zn	-0.010665	0.512012	0.750721
	Zn223	Zn	-0.010283	0.513691	0.251037
	Zn224	Zn	0.491208	0.764655	-0.000217
	Zn225	Zn	0.490985	0.264491	0.000352
	Zn226	Zn	0.740591	0.011592	0.500761
	Zn227	Zn	0.241024	0.012011	0.500301
	N228	N	0.405331	0.977152	0.680609
	N229	N	0.578320	0.050017	0.679706
	N230	N	0.577807	0.976267	0.320528
	N231	N	0.404307	0.049044	0.319992
	N232	N	0.670422	0.427565	0.963895
	N233	N	0.670706	0.601306	0.036519
	N234	N	0.310164	0.600927	0.963684
	N235	N	0.311134	0.427387	0.036098
	N236	N	0.954190	0.692622	0.413738
	N237	N	0.026837	0.690782	0.586653
	N238	N	0.953079	0.331800	0.587712
	N239	N	0.025937	0.334331	0.415086
	N240	N	0.953425	0.424378	0.681558
	N241	N	0.025726	0.598492	0.680704
	N242	N	0.954135	0.601555	0.319789
	N243	N	0.025221	0.426625	0.321261
	N244	N	0.403859	0.694247	0.963500
	N245	N	0.577640	0.694281	0.036551
	N246	N	0.576655	0.335216	0.963570
	N247	N	0.402994	0.333620	0.035948
	N248	N	0.669747	0.975145	0.414711
	N249	N	0.671322	0.048631	0.587348
	N250	N	0.312426	0.975919	0.586510
	N251	N	0.311671	0.048755	0.414055
	N252	N	0.902390	0.477526	0.181512
	N253	N	0.076435	0.550200	0.180726
	N254	N	0.075608	0.475941	0.821808
	N255	N	0.901309	0.548293	0.819071
	N256	N	0.171485	0.924539	0.464161
	N257	N	0.169768	0.097728	0.536900
	N258	N	0.811733	0.097395	0.463918
	N259	N	0.810902	0.925003	0.537444
	N260	N	0.455165	0.192597	0.914687
	N261	N	0.528341	0.193670	0.086423
	N262	N	0.454790	0.834234	0.086829
	N263	N	0.527887	0.834827	0.913617
	N264	N	0.454493	0.927902	0.178977
	N265	N	0.528448	0.100583	0.180305
	N266	N	0.456654	0.101932	0.819797
	N267	N	0.529341	0.929689	0.822673
	N268	N	0.902890	0.192681	0.464740
	N269	N	0.076907	0.191630	0.536715
	N270	N	0.077855	0.832035	0.464027
	N271	N	0.904584	0.832511	0.537345
	N272	N	0.169253	0.476572	0.914648
	N273	N	0.170366	0.550258	0.087909
	N274	N	0.811123	0.477425	0.086351
	N275	N	0.810359	0.550308	0.913759
	O276	O	0.619168	0.437330	0.339315
	H277	H	0.623487	0.422467	0.346728
	H278	H	0.603118	0.417803	0.354195
	O279	O	1.108975	-0.047381	-0.096984
	H280	H	1.112700	-0.053620	-0.105025
	H281	H	1.108083	-0.051776	-0.107804
	O282	O	0.451800	0.469587	0.337259
	H283	H	0.461325	0.470153	0.327196
	H284	H	0.457472	0.467077	0.361309
	O285	O	1.186256	0.141350	0.072356
	H286	H	1.187447	0.141570	0.086891
	H287	H	1.207295	0.148218	0.080963
	O288	O	0.078046	0.033854	1.081435
	H289	H	0.081443	0.023110	1.091365
	H290	H	0.082831	0.046703	1.070819
	O291	O	0.302485	0.381983	0.592989
	H292	H	0.292121	0.386136	0.604707
	H293	H	0.295346	0.383210	0.586133
	O294	O	0.463782	0.604629	0.460852
	H295	H	0.472187	0.604820	0.464127
	H296	H	0.470713	0.597539	0.453272
	O297	O	0.916390	0.933261	0.901161
	H298	H	0.915425	0.936125	0.919036
	H299	H	0.928955	0.923168	0.896614
	O300	O	-0.018428	-0.155813	-0.154919
	H301	H	-0.030750	-0.151292	-0.147509
	H302	H	-0.029040	-0.158615	-0.157560
	O303	O	0.403021	0.703344	0.585883
	H304	H	0.412654	0.705346	0.577774
	H305	H	0.392355	0.706596	0.591624
	O306	O	1.041947	-0.108846	-0.058650
	H307	H	1.068241	-0.121825	-0.064243
	H308	H	1.043985	-0.109810	-0.057761
	O309	O	0.506976	0.565524	0.602911
	H310	H	0.504300	0.556911	0.613819
	H311	H	0.503735	0.558059	0.606666
	O312	O	0.545565	1.653176	-0.567918
	H313	H	0.555573	1.660050	-0.571283
	H314	H	0.571167	1.646682	-0.568481
	O315	O	0.294482	0.559263	0.398090
	H316	H	0.291518	0.553170	0.377375
	H317	H	0.299986	0.581509	0.398903
	O318	O	0.303823	0.630905	0.319019
	H319	H	0.299067	0.641321	0.328114
	H320	H	0.311719	0.641788	0.320182
	O321	O	1.011731	0.073796	1.090227
	H322	H	1.004015	0.077718	1.072495
	H323	H	1.032447	0.065512	1.088218
	O324	O	0.118079	0.199382	1.098634
	H325	H	0.089898	0.207328	1.101841
	H326	H	0.122722	0.210389	1.108217
	O327	O	0.655553	0.711184	0.500239
	H328	H	0.658729	0.713423	0.497880
	H329	H	0.673592	0.700387	0.500264
	O330	O	0.478178	0.338746	0.487788
	H331	H	0.480188	0.344691	0.479158
	H332	H	0.488003	0.344881	0.491476
	O333	O	1.027734	0.984760	0.904752
	H334	H	1.029222	0.991482	0.921738
	H335	H	1.037922	0.980378	0.902186
	O336	O	0.579113	0.679139	0.683562
	H337	H	0.570859	0.681160	0.674460
	H338	H	0.567396	0.681794	0.679682
	O339	O	1.586144	-0.505890	1.485360
	H340	H	1.572426	-0.498505	1.488452
	H341	H	1.597302	-0.519711	1.501152
	O342	O	0.001399	0.844781	0.951185
	H343	H	0.001795	0.840428	0.965142
	H344	H	0.001619	0.857599	0.946045
	O345	O	-0.153840	1.157475	0.889858
	H346	H	-0.168077	1.156987	0.883645
	H347	H	-0.148581	1.145334	0.891226
	O348	O	0.793320	-0.102565	1.102055
	H349	H	0.792105	-0.081927	1.116807
	H350	H	0.788302	-0.098837	1.100313
	O351	O	-0.017950	0.011746	-0.097806
	H352	H	-0.023699	0.021485	-0.098486
	H353	H	-0.009005	0.014521	-0.106861
	O354	O	0.964120	0.958845	-0.051944
	H355	H	0.957429	0.964361	-0.046261
	H356	H	0.963111	0.946895	-0.050697
	O357	O	0.157208	1.046324	0.016593
	H358	H	0.156390	1.059113	0.004389
	H359	H	0.161523	1.044475	0.016045
	O360	O	0.898883	0.072084	0.892338
	H361	H	0.917145	0.073374	0.898199
	H362	H	0.916842	0.067395	0.902115
	O363	O	0.025969	-0.082012	0.161025
	H364	H	0.039828	-0.083043	0.166832
	H365	H	0.020864	-0.082912	0.150225
	O366	O	-0.130740	0.957458	-0.023571
	H367	H	-0.129688	0.968403	-0.028180
	H368	H	-0.144861	0.952425	-0.022113
	O369	O	0.483551	0.306100	0.628335
	H370	H	0.484032	0.289638	0.646212
	H371	H	0.486828	0.308526	0.620886
	O372	O	0.454705	0.491298	0.331256
	H373	H	0.464486	0.507810	0.332132
	H374	H	0.461047	0.485642	0.333565
	O375	O	0.699357	0.439917	0.298756
	H376	H	0.704001	0.425959	0.294592
	H377	H	0.719984	0.422012	0.295065
	O378	O	0.694101	0.551106	0.706337
	H379	H	0.691638	0.572100	0.718105
	H380	H	0.699598	0.551680	0.724632
	O381	O	0.483928	0.355221	0.583151
	H382	H	0.474681	0.349108	0.595982
	H383	H	0.505395	0.362081	0.599123
	O384	O	-0.043915	1.189795	1.134904
	H385	H	-0.056586	1.175705	1.135853
	H386	H	-0.041227	1.203702	1.151092
	O387	O	1.463323	0.479060	-0.338134
	H388	H	1.466234	0.492663	-0.329605
	H389	H	1.442812	0.458504	-0.350345
	O390	O	0.687457	0.563644	0.469813
	H391	H	0.672041	0.558585	0.475822
	H392	H	0.700011	0.556399	0.476294
	O393	O	1.063610	-0.067745	0.843894
	H394	H	1.057331	-0.076783	0.838887
	H395	H	1.070387	-0.058205	0.848737
	O396	O	0.232315	0.731766	0.747767
	H397	H	0.242274	0.730855	0.759965
	H398	H	0.215534	0.721966	0.736098
	O399	O	0.418060	0.394248	0.618630
	H400	H	0.405275	0.387897	0.610428
	H401	H	0.413061	0.413863	0.610030
	O402	O	0.885681	0.181768	1.011774
	H403	H	0.878634	0.182202	1.010288
	H404	H	0.899782	0.176870	1.008549
	O405	O	0.487106	-0.558856	0.701571
	H406	H	0.471989	-0.559587	0.705555
	H407	H	0.483289	-0.573950	0.703207
	O408	O	0.988965	1.159459	0.832519
	H409	H	0.985348	1.161200	0.831086
	H410	H	0.975360	1.168263	0.827659
	O411	O	0.431235	0.489670	0.307194
	H412	H	0.435020	0.507296	0.305799
	H413	H	0.446802	0.489847	0.306667
	O414	O	-0.171107	-0.019395	1.142180
	H415	H	-0.161596	-0.023741	1.146196
	H416	H	-0.163006	-0.010230	1.142099
	O417	O	0.324159	0.504547	0.547085
	H418	H	0.318589	0.498323	0.538653
	H419	H	0.315703	0.506992	0.539056
	O420	O	0.601898	1.352845	-0.632367
	H421	H	0.590315	1.359035	-0.623409
	H422	H	0.591071	1.344334	-0.646140
	O423	O	0.989962	-0.052088	0.166249
	H424	H	0.976657	-0.057633	0.169335
	H425	H	0.991724	-0.053323	0.173314
	O426	O	0.091512	0.123827	1.186577
	H427	H	0.096702	0.124655	1.203307
	H428	H	0.112742	0.132886	1.195034
	O429	O	0.301516	0.634159	0.474853
	H430	H	0.308912	0.641192	0.477345
	H431	H	0.302111	0.645821	0.472841
