data_Molecule from HDF5

_cell_length_a		16.537540
_cell_length_b		16.604017
_cell_length_c		16.548309
_cell_angle_alpha	90.007890
_cell_angle_beta	89.930707
_cell_angle_gamma	90.108913
_symmetry_space_group_name_H-M	'P 1'
_symmetry_Int_Tables_number		1

loop_
	_symmetry_equiv_pos_as_xyz
	x,y,z

loop_
	_atom_site_label
	_atom_site_type_symbol
	_atom_site_fract_x
	_atom_site_fract_y
	_atom_site_fract_z
	H0	H	0.384202	0.852701	0.713644
	H1	H	0.587342	0.169401	0.715190
	H2	H	0.594961	0.856538	0.272681
	H3	H	0.378967	0.165270	0.272701
	H4	H	0.704815	0.408375	0.839170
	H5	H	0.710274	0.618837	0.151837
	H6	H	0.265575	0.616400	0.840360
	H7	H	0.266190	0.408225	0.154015
	H8	H	0.828459	0.731316	0.392515
	H9	H	0.143375	0.732291	0.598816
	H10	H	0.830736	0.290124	0.601125
	H11	H	0.142517	0.291951	0.391026
	H12	H	0.831406	0.406567	0.717740
	H13	H	0.144841	0.615123	0.714491
	H14	H	0.828541	0.615637	0.275964
	H15	H	0.141756	0.408608	0.274447
	H16	H	0.382164	0.732210	0.839779
	H17	H	0.596118	0.735533	0.150954
	H18	H	0.591048	0.289632	0.841044
	H19	H	0.379041	0.288849	0.152473
	H20	H	0.707580	0.854909	0.392169
	H21	H	0.705713	0.168818	0.600378
	H22	H	0.266490	0.853572	0.598569
	H23	H	0.262993	0.165844	0.389421
	H24	H	0.877877	0.356434	0.219645
	H25	H	0.092575	0.668021	0.218846
	H26	H	0.094323	0.356445	0.773795
	H27	H	0.884630	0.667569	0.776549
	H28	H	0.210691	0.901901	0.341202
	H29	H	0.204219	0.113229	0.653310
	H30	H	0.762907	0.118134	0.339532
	H31	H	0.767686	0.908862	0.654925
	H32	H	0.329548	0.232600	0.891917
	H33	H	0.639977	0.237885	0.107325
	H34	H	0.329506	0.788932	0.103315
	H35	H	0.642126	0.789813	0.890688
	H36	H	0.331463	0.902661	0.221550
	H37	H	0.640235	0.121966	0.223147
	H38	H	0.327996	0.113680	0.778312
	H39	H	0.642999	0.907916	0.776599
	H40	H	0.879057	0.233999	0.339125
	H41	H	0.090912	0.231768	0.651693
	H42	H	0.092848	0.788131	0.339883
	H43	H	0.880800	0.789906	0.652466
	H44	H	0.211613	0.357812	0.889011
	H45	H	0.209272	0.667600	0.103530
	H46	H	0.763575	0.355138	0.101998
	H47	H	0.765369	0.666325	0.890285
	H48	H	0.388921	0.125371	0.586070
	H49	H	0.580774	0.895842	0.591915
	H50	H	0.567339	0.120820	0.406925
	H51	H	0.402663	0.901971	0.413423
	H52	H	0.571243	0.417147	0.110087
	H53	H	0.572072	0.602600	0.885045
	H54	H	0.391833	0.598666	0.110635
	H55	H	0.406003	0.417707	0.885081
	H56	H	0.097688	0.601785	0.409170
	H57	H	0.874068	0.594872	0.590859
	H58	H	0.102554	0.416721	0.585002
	H59	H	0.874324	0.423880	0.409559
	H60	H	0.098988	0.423054	0.581652
	H61	H	0.871146	0.606434	0.587797
	H62	H	0.097433	0.597735	0.407216
	H63	H	0.873197	0.423636	0.406750
	H64	H	0.402506	0.595261	0.105273
	H65	H	0.578100	0.602194	0.883043
	H66	H	0.581742	0.424171	0.110599
	H67	H	0.390887	0.419022	0.880920
	H68	H	0.573100	0.119379	0.416175
	H69	H	0.571713	0.899523	0.589833
	H70	H	0.395088	0.125829	0.594029
	H71	H	0.393942	0.898918	0.411347
	H72	H	0.896438	0.622539	0.082116
	H73	H	0.071763	0.399614	0.091166
	H74	H	0.075270	0.622875	0.907432
	H75	H	0.895594	0.398339	0.905938
	H76	H	0.075657	0.923090	0.607640
	H77	H	0.073856	0.097754	0.384171
	H78	H	0.895847	0.097261	0.606809
	H79	H	0.895440	0.922546	0.383866
	H80	H	0.601197	0.105273	0.903190
	H81	H	0.373708	0.096127	0.090046
	H82	H	0.592461	0.932736	0.078782
	H83	H	0.373274	0.921111	0.908415
	H84	H	0.599667	0.925263	0.093075
	H85	H	0.374038	0.104267	0.082818
	H86	H	0.596831	0.102602	0.914010
	H87	H	0.372099	0.921537	0.903552
	H88	H	0.900687	0.102718	0.606619
	H89	H	0.073764	0.101323	0.383209
	H90	H	0.072453	0.922801	0.605910
	H91	H	0.897312	0.922671	0.384790
	H92	H	0.077214	0.622948	0.907951
	H93	H	0.070686	0.404060	0.079569
	H94	H	0.897688	0.623210	0.085989
	H95	H	0.897797	0.398291	0.905696
	H96	H	0.398127	0.121536	0.585100
	H97	H	0.578980	0.899504	0.582430
	H98	H	0.577815	0.124722	0.407252
	H99	H	0.400692	0.899232	0.404639
	H100	H	0.570626	0.429956	0.106465
	H101	H	0.574924	0.597001	0.885155
	H102	H	0.401475	0.606560	0.110212
	H103	H	0.398397	0.431438	0.887631
	H104	H	0.098612	0.601130	0.405059
	H105	H	0.877121	0.599141	0.579606
	H106	H	0.100729	0.423516	0.589537
	H107	H	0.873213	0.421468	0.408767
	H108	H	0.899761	0.621602	0.083178
	H109	H	0.082167	0.399328	0.083870
	H110	H	0.075952	0.624010	0.906536
	H111	H	0.896809	0.398310	0.907538
	H112	H	0.073973	0.919870	0.607565
	H113	H	0.076534	0.099715	0.382769
	H114	H	0.894122	0.104094	0.609358
	H115	H	0.896533	0.921019	0.383903
	H116	H	0.597238	0.094766	0.905197
	H117	H	0.377821	0.094590	0.080307
	H118	H	0.598514	0.915946	0.078080
	H119	H	0.372047	0.916973	0.905252
	C120	C	0.363694	0.019639	0.618273
	C121	C	0.607772	1.002672	0.618796
	C122	C	0.607138	0.019463	0.376062
	C123	C	0.365219	1.002479	0.376003
	C124	C	0.606876	0.390561	0.005703
	C125	C	0.608391	0.633189	0.987570
	C126	C	0.365879	0.632550	0.005209
	C127	C	0.365320	0.390635	0.988128
	C128	C	-0.005716	0.632702	0.374743
	C129	C	0.978132	0.632372	0.617224
	C130	C	-0.003423	0.389489	0.617618
	C131	C	0.976714	0.390763	0.375037
	C132	C	0.864477	0.519664	0.117025
	C133	C	0.107329	0.504074	0.117829
	C134	C	0.109336	0.520664	0.874543
	C135	C	0.865414	0.501895	0.874274
	C136	C	0.107106	0.889189	0.504073
	C137	C	0.106964	0.131585	0.486877
	C138	C	0.864306	0.133641	0.503887
	C139	C	0.864392	0.890026	0.487777
	C140	C	0.494372	0.132353	0.875842
	C141	C	0.477625	0.132564	0.118386
	C142	C	0.494096	0.890903	0.116947
	C143	C	0.476845	0.888976	0.874155
	C144	C	0.364582	0.900364	0.674967
	C145	C	0.607553	0.121749	0.676560
	C146	C	0.611811	0.902909	0.313896
	C147	C	0.361187	0.118903	0.313785
	C148	C	0.665805	0.389013	0.886827
	C149	C	0.670075	0.636578	0.104493
	C150	C	0.305770	0.634874	0.887177
	C151	C	0.305338	0.388829	0.106436
	C152	C	0.875735	0.691993	0.373519
	C153	C	0.096523	0.692194	0.617854
	C154	C	0.878010	0.330202	0.619795
	C155	C	0.095352	0.331590	0.372409
	C156	C	0.878520	0.387768	0.677854
	C157	C	0.097325	0.633851	0.675111
	C158	C	0.875586	0.634292	0.315736
	C159	C	0.095061	0.389560	0.314782
	C160	C	0.363831	0.692265	0.887020
	C161	C	0.613137	0.694825	0.104311
	C162	C	0.608808	0.330423	0.887578
	C163	C	0.361730	0.329759	0.105693
	C164	C	0.668088	0.902303	0.373222
	C165	C	0.666330	0.121450	0.619466
	C166	C	0.305953	0.900747	0.617796
	C167	C	0.303705	0.119216	0.371898
	C168	C	0.860704	0.402886	0.178691
	C169	C	0.110116	0.621152	0.178482
	C170	C	0.112766	0.403434	0.813764
	C171	C	0.864694	0.620041	0.815142
	C172	C	0.169376	0.885248	0.387428
	C173	C	0.165549	0.132658	0.605654
	C174	C	0.803626	0.135905	0.386231
	C175	C	0.806364	0.889445	0.606772
	C176	C	0.376283	0.192208	0.873813
	C177	C	0.593639	0.196157	0.124028
	C178	C	0.376892	0.829191	0.121027
	C179	C	0.595110	0.830118	0.872566
	C180	C	0.377495	0.885885	0.179659
	C181	C	0.593742	0.138400	0.181800
	C182	C	0.375586	0.133226	0.817307
	C183	C	0.595447	0.888311	0.815267
	C184	C	0.861272	0.193909	0.386298
	C185	C	0.109069	0.191424	0.604870
	C186	C	0.110976	0.828297	0.386971
	C187	C	0.862783	0.830413	0.605770
	C188	C	0.170581	0.403998	0.871456
	C189	C	0.168476	0.621048	0.121087
	C190	C	0.803703	0.402253	0.120123
	C191	C	0.805767	0.619513	0.872113
	C192	C	0.387495	0.102618	0.595134
	C193	C	0.584082	0.920017	0.595035
	C194	C	0.580527	0.100539	0.402564
	C195	C	0.391556	0.921141	0.402345
	C196	C	0.581810	0.416202	0.087695
	C197	C	0.582414	0.607701	0.905706
	C198	C	0.391270	0.607374	0.087323
	C199	C	0.391011	0.415585	0.906000
	C200	C	0.076324	0.607496	0.399763
	C201	C	0.895511	0.607407	0.592946
	C202	C	0.079269	0.414167	0.592375
	C203	C	0.894875	0.415624	0.400890
	C204	C	0.890432	0.601206	0.091148
	C205	C	0.081811	0.422115	0.092206
	C206	C	0.083515	0.602082	0.900024
	C207	C	0.889772	0.419597	0.899191
	C208	C	0.081293	0.914535	0.585979
	C209	C	0.081842	0.106810	0.404735
	C210	C	0.889678	0.108647	0.586091
	C211	C	0.889348	0.914728	0.405657
	C212	C	0.576897	0.107870	0.900598
	C213	C	0.396227	0.105717	0.091854
	C214	C	0.575750	0.917316	0.090793
	C215	C	0.393878	0.912956	0.898707
	Zn216	Zn	0.485252	0.011522	0.746918
	Zn217	Zn	0.486169	0.010665	0.246544
	Zn218	Zn	0.736142	0.511253	-0.003807
	Zn219	Zn	0.237041	0.511887	-0.002859
	Zn220	Zn	-0.013910	0.760954	0.495882
	Zn221	Zn	-0.013412	0.261538	0.495428
	Zn222	Zn	-0.011828	0.511453	0.745981
	Zn223	Zn	-0.014729	0.511978	0.246211
	Zn224	Zn	0.486539	0.761292	-0.003109
	Zn225	Zn	0.485637	0.261012	-0.002999
	Zn226	Zn	0.735898	0.011776	0.496622
	Zn227	Zn	0.235614	0.010490	0.495725
	N228	N	0.399820	0.975320	0.675524
	N229	N	0.572226	0.046807	0.676704
	N230	N	0.574658	0.976854	0.315458
	N231	N	0.398737	0.045158	0.316033
	N232	N	0.664964	0.425390	0.961195
	N233	N	0.667310	0.598988	0.030715
	N234	N	0.306783	0.598774	0.961817
	N235	N	0.307615	0.426094	0.032379
	N236	N	0.950576	0.691297	0.409379
	N237	N	0.021220	0.691630	0.582736
	N238	N	0.952622	0.330848	0.583340
	N239	N	0.020946	0.332230	0.409140
	N240	N	0.953372	0.423762	0.676563
	N241	N	0.022706	0.597720	0.675092
	N242	N	0.950404	0.598650	0.316087
	N243	N	0.020247	0.425216	0.315873
	N244	N	0.400204	0.691253	0.961564
	N245	N	0.575130	0.692803	0.030531
	N246	N	0.573284	0.330788	0.962708
	N247	N	0.398254	0.330741	0.031148
	N248	N	0.665259	0.975978	0.411092
	N249	N	0.666743	0.046436	0.584522
	N250	N	0.304961	0.976023	0.583682
	N251	N	0.306130	0.045690	0.409705
	N252	N	0.897877	0.476947	0.176902
	N253	N	0.072748	0.547247	0.176576
	N254	N	0.075261	0.476972	0.815558
	N255	N	0.901112	0.545745	0.816378
	N256	N	0.166901	0.922732	0.461436
	N257	N	0.164505	0.096167	0.531180
	N258	N	0.805285	0.099141	0.460639
	N259	N	0.807175	0.925945	0.532352
	N260	N	0.451202	0.191710	0.909534
	N261	N	0.520359	0.192780	0.085374
	N262	N	0.450641	0.832005	0.082748
	N263	N	0.520205	0.830403	0.908461
	N264	N	0.451466	0.923352	0.177411
	N265	N	0.520393	0.099433	0.178381
	N266	N	0.450125	0.096755	0.818262
	N267	N	0.520579	0.924040	0.816001
	N268	N	0.898223	0.192564	0.460502
	N269	N	0.073324	0.190905	0.530059
	N270	N	0.072689	0.830901	0.460374
	N271	N	0.898053	0.830413	0.530693
	N272	N	0.168485	0.477754	0.908660
	N273	N	0.166728	0.547176	0.083851
	N274	N	0.805950	0.475814	0.082540
	N275	N	0.805935	0.544889	0.908033
	O276	O	0.932681	0.222766	-1.069062
	H277	H	0.933799	0.223114	-1.091042
	H278	H	0.922761	0.232716	-1.054801
	O279	O	0.137753	0.072034	0.970780
	H280	H	0.144040	0.071851	0.964582
	H281	H	0.117588	0.072221	0.958958
	O282	O	0.199951	0.791735	-0.037878
	H283	H	0.221224	0.781511	-0.045370
	H284	H	0.206859	0.795558	-0.030758
	O285	O	0.191684	0.153014	1.111025
	H286	H	0.192384	0.134720	1.091665
	H287	H	0.198545	0.162997	1.106876
	O288	O	1.079049	0.048121	0.927992
	H289	H	1.071687	0.045288	0.924760
	H290	H	1.065107	0.042199	0.920803
	O291	O	0.701618	0.294291	1.467401
	H292	H	0.698182	0.306323	1.438306
	H293	H	0.727412	0.272930	1.466770
	O294	O	0.245985	0.276110	-0.181130
	H295	H	0.266782	0.277393	-0.164906
	H296	H	0.238273	0.279002	-0.154190
	O297	O	0.694881	0.716055	0.698993
	H298	H	0.662596	0.699965	0.706607
	H299	H	0.722920	0.744914	0.730153
	O300	O	-0.039082	0.022845	-0.219187
	H301	H	-0.058126	0.046751	-0.223260
	H302	H	-0.044369	0.019050	-0.205285
	O303	O	0.200422	-0.032649	-0.224638
	H304	H	0.187890	-0.052789	-0.220167
	H305	H	0.218335	-0.023598	-0.250020
	O306	O	0.765591	0.153646	0.023304
	H307	H	0.758837	0.151626	0.026326
	H308	H	0.766342	0.145222	0.027689
	O309	O	0.315593	0.518319	0.297921
	H310	H	0.318420	0.502240	0.302650
	H311	H	0.327244	0.507791	0.302756
	O312	O	0.453130	0.721984	0.678404
	H313	H	0.444958	0.733997	0.679089
	H314	H	0.455481	0.723756	0.674728
	O315	O	0.516802	0.564702	0.528163
	H316	H	0.531651	0.571458	0.534529
	H317	H	0.515884	0.569721	0.544500
	O318	O	0.993887	0.837740	-0.218604
	H319	H	0.996404	0.833343	-0.236804
	H320	H	0.995785	0.850884	-0.223067
	O321	O	0.656840	0.475595	0.437645
	H322	H	0.649006	0.490168	0.425537
	H323	H	0.667847	0.481973	0.421344
	O324	O	1.024749	-0.075551	1.000371
	H325	H	1.034579	-0.080757	1.007021
	H326	H	1.035434	-0.071710	1.012617
	O327	O	1.276655	1.301744	0.590746
	H328	H	1.259612	1.281022	0.619216
	H329	H	1.294100	1.293645	0.610240
	O330	O	0.212804	0.740958	0.229819
	H331	H	0.205300	0.729134	0.236583
	H332	H	0.225924	0.729101	0.252850
	O333	O	-0.091635	0.958754	0.166982
	H334	H	-0.088592	0.952420	0.165795
	H335	H	-0.079761	0.952806	0.159396
	O336	O	0.702912	0.731246	0.527894
	H337	H	0.718158	0.747141	0.541261
	H338	H	0.709089	0.739405	0.561795
	O339	O	0.859461	-0.137654	0.991184
	H340	H	0.865431	-0.131495	1.011140
	H341	H	0.875100	-0.150128	0.993116
	O342	O	-0.228443	0.969702	-0.061011
	H343	H	-0.224121	0.954602	-0.068009
	H344	H	-0.229204	0.982145	-0.093488
	O345	O	0.147264	0.164619	-0.200784
	H346	H	0.124763	0.168345	-0.187666
	H347	H	0.126288	0.142713	-0.187159
	O348	O	0.184084	-0.013199	0.116044
	H349	H	0.173558	-0.000539	0.116820
	H350	H	0.200094	-0.005091	0.126004
	O351	O	-0.218289	0.212388	0.791435
	H352	H	-0.243979	0.246881	0.762879
	H353	H	-0.214907	0.218861	0.830805
	O354	O	1.124829	-0.006386	1.084449
	H355	H	1.140328	-0.000104	1.082293
	H356	H	1.123366	0.003549	1.084879
	O357	O	0.360025	0.465273	0.692724
	H358	H	0.347901	0.462820	0.709708
	H359	H	0.378246	0.469231	0.685518
	O360	O	0.593336	0.383897	0.526673
	H361	H	0.590115	0.399125	0.513805
	H362	H	0.593178	0.384901	0.520542
	O363	O	0.761984	1.043296	-0.223604
	H364	H	0.756131	1.072570	-0.234479
	H365	H	0.745917	1.062149	-0.240004
	O366	O	1.018879	0.222848	1.202468
	H367	H	1.010843	0.247583	1.217119
	H368	H	1.004720	0.226985	1.188337
	O369	O	0.382322	0.424149	1.307028
	H370	H	0.387163	0.433928	1.319746
	H371	H	0.399492	0.439949	1.309569
	O372	O	0.203470	1.231791	1.216501
	H373	H	0.167555	1.232942	1.221384
	H374	H	0.216411	1.239962	1.204728
	O375	O	0.785309	-0.041202	0.172565
	H376	H	0.772966	-0.038870	0.171344
	H377	H	0.781656	-0.034564	0.175141
	O378	O	0.461000	0.307440	0.706893
	H379	H	0.475099	0.310472	0.699335
	H380	H	0.473302	0.302363	0.710180
	O381	O	-0.659008	0.528877	-0.542807
	H382	H	-0.658344	0.510726	-0.540550
	H383	H	-0.651074	0.527461	-0.536671
	O384	O	1.030234	0.961002	0.130199
	H385	H	1.031840	0.974400	0.124984
	H386	H	1.032379	0.964872	0.125237
	O387	O	0.698881	0.545191	1.707550
	H388	H	0.712338	0.545518	1.710418
	H389	H	0.706584	0.560023	1.710674
	O390	O	0.520149	0.306511	0.289547
	H391	H	0.508210	0.282479	0.276077
	H392	H	0.504030	0.313565	0.301638
	O393	O	1.077000	0.170389	-0.015234
	H394	H	1.072011	0.176186	0.001283
	H395	H	1.084297	0.176086	-0.023319
	O396	O	0.622337	0.645385	0.305129
	H397	H	0.619905	0.665414	0.309406
	H398	H	0.636431	0.662854	0.315278
	O399	O	0.397627	0.578829	0.416695
	H400	H	0.410538	0.590159	0.412578
	H401	H	0.403430	0.567613	0.411084
	O402	O	0.803587	-0.180734	0.813319
	H403	H	0.809069	-0.182373	0.856502
	H404	H	0.834892	-0.157344	0.811428
	O405	O	0.386334	0.723942	0.284685
	H406	H	0.366131	0.711874	0.284944
	H407	H	0.384851	0.736201	0.282859
	O408	O	0.776833	0.804055	1.209497
	H409	H	0.795951	0.810584	1.203928
	H410	H	0.785741	0.823418	1.200125
	O411	O	1.629293	0.582817	0.489421
	H412	H	1.637563	0.593145	0.482594
	H413	H	1.632872	0.608927	0.497637
	O414	O	0.065854	-0.148721	0.033505
	H415	H	0.064410	-0.150876	0.023325
	H416	H	0.067476	-0.160601	0.035875
	O417	O	0.435433	0.569857	0.494962
	H418	H	0.446160	0.560227	0.507213
	H419	H	0.439951	0.566402	0.481976
	O420	O	0.921014	0.080599	1.143351
	H421	H	0.912668	0.083464	1.147780
	H422	H	0.926746	0.075386	1.138560
	O423	O	0.804152	0.822046	0.014428
	H424	H	0.817493	0.806700	0.031787
	H425	H	0.800874	0.821733	0.029394
	O426	O	0.351531	0.578714	0.463048
	H427	H	0.344857	0.579703	0.459476
	H428	H	0.344481	0.572250	0.455517
	O429	O	0.519645	0.500008	0.714302
	H430	H	0.525686	0.503391	0.719673
	H431	H	0.516849	0.507528	0.702894
	O432	O	0.912974	0.173132	1.122896
	H433	H	0.908914	0.166184	1.122814
	H434	H	0.913151	0.161733	1.123793
	O435	O	0.190611	0.804346	0.794621
	H436	H	0.171028	0.814962	0.802345
	H437	H	0.199189	0.795303	0.796088
	O438	O	0.666942	0.335070	0.314688
	H439	H	0.624539	0.321326	0.306351
	H440	H	0.670845	0.369062	0.323628
	O441	O	0.937925	0.028343	-0.085172
	H442	H	0.927486	0.036603	-0.073770
	H443	H	0.955690	0.025446	-0.089949
	O444	O	0.578065	0.633968	0.387235
	H445	H	0.576124	0.653497	0.371725
	H446	H	0.570668	0.647553	0.398123
	O447	O	0.528224	0.540706	0.624950
	H448	H	0.530283	0.530061	0.614083
	H449	H	0.510847	0.549909	0.621527
	O450	O	1.388227	-0.452193	0.653012
	H451	H	1.389338	-0.453762	0.647838
	H452	H	1.397710	-0.439737	0.664492
	O453	O	0.409802	0.670598	0.511897
	H454	H	0.404671	0.661124	0.518791
	H455	H	0.407952	0.663875	0.507352
	O456	O	-0.154496	1.132680	1.062293
	H457	H	-0.175754	1.121675	1.068244
	H458	H	-0.161257	1.143686	1.073389
	O459	O	0.345304	0.312881	0.501957
	H460	H	0.324494	0.302414	0.514019
	H461	H	0.347413	0.312774	0.504280
	O462	O	1.293541	0.621563	0.684836
	H463	H	1.292358	0.601517	0.693333
	H464	H	1.290456	0.598888	0.670513
	O465	O	0.397694	0.308162	1.383328
	H466	H	0.396290	0.328317	1.397535
	H467	H	0.372864	0.295408	1.389342
	O468	O	0.013861	1.176203	-0.202402
	H469	H	0.013982	1.183156	-0.229815
	H470	H	-0.024204	1.169207	-0.199941
	O471	O	0.627938	0.523529	0.275847
	H472	H	0.627783	0.517850	0.273791
	H473	H	0.635314	0.542013	0.265131
	O474	O	0.953209	0.852157	0.178923
	H475	H	0.958310	0.865134	0.180829
	H476	H	0.970729	0.843530	0.189656
	O477	O	0.674975	0.322539	1.686305
	H478	H	0.650156	0.339638	1.672122
	H479	H	0.667148	0.341627	1.657602
