data_Molecule from HDF5

_cell_length_a		16.301346
_cell_length_b		16.178274
_cell_length_c		16.389944
_cell_angle_alpha	89.869674
_cell_angle_beta	89.979539
_cell_angle_gamma	89.574364
_symmetry_space_group_name_H-M	'P 1'
_symmetry_Int_Tables_number		1

loop_
	_symmetry_equiv_pos_as_xyz
	x,y,z

loop_
	_atom_site_label
	_atom_site_type_symbol
	_atom_site_fract_x
	_atom_site_fract_y
	_atom_site_fract_z
	H0	H	0.396449	0.839811	0.706069
	H1	H	0.596861	0.165966	0.704126
	H2	H	0.599174	0.838656	0.272857
	H3	H	0.395801	0.165936	0.272732
	H4	H	0.715478	0.401503	0.826878
	H5	H	0.714125	0.602764	0.150348
	H6	H	0.280908	0.603791	0.827189
	H7	H	0.281650	0.402146	0.151289
	H8	H	0.834376	0.716810	0.389615
	H9	H	0.161294	0.714122	0.585665
	H10	H	0.833595	0.289474	0.587130
	H11	H	0.160026	0.284774	0.390334
	H12	H	0.835864	0.399631	0.707191
	H13	H	0.159782	0.601841	0.704582
	H14	H	0.835491	0.603781	0.271953
	H15	H	0.160069	0.398089	0.271559
	H16	H	0.398949	0.718179	0.826223
	H17	H	0.595924	0.717845	0.151023
	H18	H	0.597271	0.287531	0.826048
	H19	H	0.400750	0.287575	0.152153
	H20	H	0.713628	0.838437	0.389268
	H21	H	0.710775	0.165947	0.587932
	H22	H	0.284775	0.837298	0.587327
	H23	H	0.280354	0.166135	0.388350
	H24	H	0.898466	0.338386	0.204619
	H25	H	0.097370	0.665690	0.204400
	H26	H	0.099599	0.337470	0.774429
	H27	H	0.897366	0.665255	0.772736
	H28	H	0.216158	0.899613	0.327310
	H29	H	0.211716	0.099740	0.651189
	H30	H	0.780017	0.103848	0.326844
	H31	H	0.782177	0.903237	0.650842
	H32	H	0.334464	0.218725	0.891136
	H33	H	0.662339	0.213643	0.084934
	H34	H	0.333158	0.790514	0.086511
	H35	H	0.660217	0.787053	0.889679
	H36	H	0.335301	0.901342	0.206067
	H37	H	0.659371	0.103526	0.206200
	H38	H	0.334298	0.103693	0.774042
	H39	H	0.659503	0.902060	0.772543
	H40	H	0.896535	0.220198	0.327055
	H41	H	0.093746	0.214599	0.651780
	H42	H	0.096959	0.786562	0.325612
	H43	H	0.899654	0.787338	0.651480
	H44	H	0.215555	0.338819	0.889833
	H45	H	0.209459	0.667475	0.086188
	H46	H	0.784211	0.338163	0.087795
	H47	H	0.781653	0.665992	0.887958
	H48	H	0.405364	0.117531	0.575918
	H49	H	0.593769	0.885494	0.575967
	H50	H	0.582977	0.119534	0.389672
	H51	H	0.405006	0.884251	0.394527
	H52	H	0.599145	0.411882	0.105411
	H53	H	0.588425	0.592204	0.875072
	H54	H	0.409088	0.593910	0.101962
	H55	H	0.400676	0.419209	0.875237
	H56	H	0.114146	0.593093	0.393930
	H57	H	0.883855	0.589021	0.579675
	H58	H	0.110422	0.411261	0.573323
	H59	H	0.881699	0.410516	0.396324
	H60	H	0.113182	0.415441	0.587941
	H61	H	0.879527	0.595247	0.587736
	H62	H	0.113980	0.593581	0.396034
	H63	H	0.882455	0.414174	0.396877
	H64	H	0.403381	0.601639	0.105833
	H65	H	0.589300	0.598444	0.872217
	H66	H	0.586297	0.413784	0.101193
	H67	H	0.415171	0.412356	0.877724
	H68	H	0.585174	0.115945	0.402926
	H69	H	0.591228	0.883556	0.587504
	H70	H	0.397921	0.121302	0.580699
	H71	H	0.410284	0.886779	0.396087
	H72	H	0.899615	0.622602	0.084944
	H73	H	0.098187	0.383089	0.082183
	H74	H	0.093405	0.617104	0.903890
	H75	H	0.900141	0.380870	0.891711
	H76	H	0.098539	0.901023	0.608088
	H77	H	0.100412	0.096578	0.369349
	H78	H	0.902831	0.093308	0.603872
	H79	H	0.901053	0.907845	0.371776
	H80	H	0.611628	0.091183	0.899961
	H81	H	0.380218	0.098290	0.082060
	H82	H	0.611317	0.911840	0.078952
	H83	H	0.383775	0.924760	0.890176
	H84	H	0.614467	0.911277	0.085036
	H85	H	0.382993	0.094941	0.078617
	H86	H	0.615109	0.090018	0.888514
	H87	H	0.375116	0.902104	0.886948
	H88	H	0.903827	0.094741	0.604180
	H89	H	0.087415	0.081502	0.377861
	H90	H	0.093826	0.918441	0.601234
	H91	H	0.903904	0.914721	0.374510
	H92	H	0.094483	0.622969	0.887415
	H93	H	0.085121	0.385852	0.086747
	H94	H	0.912901	0.617027	0.083689
	H95	H	0.916284	0.386169	0.893166
	H96	H	0.405933	0.119610	0.584789
	H97	H	0.582669	0.887635	0.580025
	H98	H	0.595497	0.121450	0.395205
	H99	H	0.405618	0.886647	0.400166
	H100	H	0.589969	0.401783	0.105644
	H101	H	0.594009	0.593661	0.872354
	H102	H	0.399056	0.591879	0.105568
	H103	H	0.402903	0.403716	0.870420
	H104	H	0.113091	0.591365	0.395494
	H105	H	0.881071	0.598735	0.578172
	H106	H	0.116161	0.400975	0.583370
	H107	H	0.882000	0.412740	0.393346
	H108	H	0.904369	0.616925	0.073102
	H109	H	0.088338	0.388635	0.074124
	H110	H	0.079447	0.616470	0.893887
	H111	H	0.905039	0.387421	0.906352
	H112	H	0.081445	0.904420	0.601835
	H113	H	0.079682	0.102010	0.373560
	H114	H	0.902208	0.095805	0.604507
	H115	H	0.908167	0.908120	0.373179
	H116	H	0.615796	0.100701	0.893387
	H117	H	0.381976	0.092702	0.083655
	H118	H	0.614597	0.906538	0.080375
	H119	H	0.383047	0.908730	0.908483
	C120	C	0.375245	0.011019	0.609751
	C121	C	0.617607	0.993935	0.609760
	C122	C	0.618500	0.011030	0.366727
	C123	C	0.375939	0.993701	0.367330
	C124	C	0.620988	0.379995	-0.003106
	C125	C	0.619277	0.624222	0.980437
	C126	C	0.375129	0.624961	-0.002847
	C127	C	0.376983	0.381633	0.981241
	C128	C	0.006138	0.623191	0.366234
	C129	C	0.989080	0.623134	0.610336
	C130	C	0.005551	0.380488	0.610519
	C131	C	0.989454	0.381315	0.366527
	C132	C	0.876906	0.510551	0.109711
	C133	C	0.119080	0.494123	0.110000
	C134	C	0.119894	0.510743	0.866235
	C135	C	0.876977	0.493053	0.867330
	C136	C	0.120020	0.879051	0.496723
	C137	C	0.117844	0.122254	0.480679
	C138	C	0.873798	0.124953	0.497245
	C139	C	0.875815	0.880836	0.480262
	C140	C	0.506280	0.124474	0.865877
	C141	C	0.489677	0.123706	0.109826
	C142	C	0.505632	0.881156	0.110323
	C143	C	0.487959	0.881376	0.866415
	C144	C	0.376983	0.888168	0.666880
	C145	C	0.615785	0.117198	0.665407
	C146	C	0.618425	0.887698	0.310995
	C147	C	0.376285	0.117007	0.311243
	C148	C	0.677005	0.381647	0.875184
	C149	C	0.675370	0.622787	0.102054
	C150	C	0.319212	0.623704	0.875420
	C151	C	0.320842	0.382752	0.103246
	C152	C	0.883372	0.679308	0.368915
	C153	C	0.111952	0.677569	0.607182
	C154	C	0.882807	0.326031	0.608433
	C155	C	0.111579	0.323586	0.369419
	C156	C	0.883923	0.381031	0.667895
	C157	C	0.111371	0.621343	0.666125
	C158	C	0.883957	0.623243	0.310097
	C159	C	0.111354	0.379881	0.310260
	C160	C	0.377679	0.680613	0.874902
	C161	C	0.616584	0.679867	0.102429
	C162	C	0.618176	0.324979	0.874687
	C163	C	0.379977	0.325705	0.103550
	C164	C	0.675134	0.887353	0.369046
	C165	C	0.672973	0.117069	0.607882
	C166	C	0.321494	0.886970	0.607900
	C167	C	0.318787	0.116940	0.368718
	C168	C	0.878766	0.387399	0.166001
	C169	C	0.116914	0.617221	0.165552
	C170	C	0.119456	0.386763	0.811568
	C171	C	0.877562	0.616662	0.811070
	C172	C	0.176843	0.880110	0.375236
	C173	C	0.173120	0.119975	0.602940
	C174	C	0.818117	0.123815	0.375446
	C175	C	0.820192	0.882581	0.602450
	C176	C	0.383216	0.180686	0.869847
	C177	C	0.613013	0.177286	0.106593
	C178	C	0.382514	0.827195	0.107414
	C179	C	0.611397	0.825161	0.869004
	C180	C	0.383634	0.882313	0.167006
	C181	C	0.611564	0.122314	0.166524
	C182	C	0.383103	0.123647	0.811492
	C183	C	0.610863	0.882225	0.810699
	C184	C	0.876184	0.181435	0.375420
	C185	C	0.114933	0.177379	0.603059
	C186	C	0.117661	0.823806	0.374533
	C187	C	0.878686	0.825233	0.602743
	C188	C	0.177214	0.387508	0.868900
	C189	C	0.172811	0.617974	0.106953
	C190	C	0.822005	0.387178	0.107868
	C191	C	0.820248	0.616788	0.868409
	C192	C	0.396637	0.097318	0.587147
	C193	C	0.595652	0.907809	0.587569
	C194	C	0.594923	0.096739	0.389251
	C195	C	0.399957	0.907840	0.390256
	C196	C	0.598394	0.402552	0.082046
	C197	C	0.597142	0.601236	0.895188
	C198	C	0.397271	0.602289	0.082266
	C199	C	0.399626	0.404968	0.896357
	C200	C	0.091664	0.599504	0.388709
	C201	C	0.903510	0.600847	0.588249
	C202	C	0.091076	0.402683	0.588184
	C203	C	0.904100	0.405373	0.388986
	C204	C	0.899157	0.596612	0.087044
	C205	C	0.096971	0.408104	0.087486
	C206	C	0.096081	0.596510	0.888301
	C207	C	0.900431	0.407170	0.890108
	C208	C	0.097745	0.901384	0.581764
	C209	C	0.095517	0.099831	0.395569
	C210	C	0.896399	0.101509	0.582305
	C211	C	0.898004	0.903468	0.395247
	C212	C	0.591981	0.100882	0.887454
	C213	C	0.403923	0.101680	0.087813
	C214	C	0.591216	0.903352	0.088144
	C215	C	0.402795	0.904788	0.888712
	Zn216	Zn	0.496657	0.002855	0.737607
	Zn217	Zn	0.497033	0.002626	0.238844
	Zn218	Zn	0.748980	0.502523	-0.011642
	Zn219	Zn	0.246710	0.502849	-0.010823
	Zn220	Zn	-0.002669	0.750880	0.488166
	Zn221	Zn	-0.003060	0.252693	0.489117
	Zn222	Zn	-0.002401	0.501166	0.739053
	Zn223	Zn	-0.001811	0.502601	0.237867
	Zn224	Zn	0.496962	0.753411	-0.011259
	Zn225	Zn	0.498755	0.252203	-0.011301
	Zn226	Zn	0.745591	0.002180	0.488531
	Zn227	Zn	0.247711	0.001652	0.488656
	N228	N	0.409942	0.966200	0.668034
	N229	N	0.582223	0.039491	0.666823
	N230	N	0.583699	0.965517	0.309585
	N231	N	0.410978	0.039273	0.310093
	N232	N	0.678716	0.415231	0.952148
	N233	N	0.677183	0.589106	0.025116
	N234	N	0.317565	0.589735	0.952386
	N235	N	0.318728	0.416659	0.026214
	N236	N	0.960479	0.679432	0.402980
	N237	N	0.034963	0.678567	0.573029
	N238	N	0.959401	0.325679	0.573280
	N239	N	0.034619	0.324081	0.403688
	N240	N	0.961247	0.414318	0.669126
	N241	N	0.033876	0.588241	0.668430
	N242	N	0.961470	0.589220	0.308336
	N243	N	0.034273	0.414999	0.308499
	N244	N	0.411592	0.681632	0.951602
	N245	N	0.582597	0.681080	0.025609
	N246	N	0.584191	0.323753	0.951436
	N247	N	0.414037	0.324774	0.026641
	N248	N	0.675286	0.964977	0.402864
	N249	N	0.674034	0.039554	0.573843
	N250	N	0.320388	0.964395	0.572973
	N251	N	0.318583	0.039153	0.402940
	N252	N	0.912155	0.465218	0.167167
	N253	N	0.084188	0.539223	0.167442
	N254	N	0.084704	0.464463	0.809630
	N255	N	0.912308	0.538936	0.810454
	N256	N	0.178585	0.913595	0.452170
	N257	N	0.175199	0.086622	0.525785
	N258	N	0.816604	0.089393	0.452310
	N259	N	0.818210	0.916613	0.525397
	N260	N	0.460701	0.181314	0.902947
	N261	N	0.536163	0.178155	0.071932
	N262	N	0.459390	0.826419	0.072699
	N263	N	0.534217	0.824420	0.902896
	N264	N	0.461117	0.915370	0.168870
	N265	N	0.533933	0.089768	0.168727
	N266	N	0.460706	0.089724	0.808760
	N267	N	0.533282	0.916249	0.808743
	N268	N	0.910006	0.182274	0.452202
	N269	N	0.081346	0.178945	0.526030
	N270	N	0.083053	0.823012	0.451015
	N271	N	0.912423	0.824027	0.525816
	N272	N	0.177426	0.465365	0.902247
	N273	N	0.174301	0.540307	0.073090
	N274	N	0.820716	0.464817	0.073611
	N275	N	0.819725	0.538998	0.902685
	O276	O	-0.041827	0.086067	-0.004426
	H277	H	-0.043675	0.092121	-0.003552
	H278	H	-0.036500	0.081276	-0.001389
	O279	O	0.910375	-0.032933	0.992341
	H280	H	0.906991	-0.030463	0.998189
	H281	H	0.908362	-0.034628	0.996521
	O282	O	0.446569	0.553079	0.394142
	H283	H	0.442277	0.556752	0.396903
	H284	H	0.445473	0.569869	0.392574
	O285	O	-0.004550	0.955663	1.015023
	H286	H	-0.000661	0.954948	1.005201
	H287	H	0.005682	0.953996	1.014435
	O288	O	0.458064	0.444034	0.560035
	H289	H	0.451840	0.427903	0.566189
	H290	H	0.445962	0.458827	0.556262
	O291	O	0.445133	0.483798	1.450606
	H292	H	0.447477	0.486010	1.457746
	H293	H	0.436067	0.492841	1.442958
	O294	O	0.954957	0.994891	1.019868
	H295	H	0.946699	0.991829	1.023114
	H296	H	0.959491	0.984974	1.017946
	O297	O	1.003176	0.033361	0.971695
	H298	H	1.004880	0.043639	0.973718
	H299	H	1.006811	0.032011	0.974631
	O300	O	0.455135	0.575536	0.487665
	H301	H	0.469321	0.572356	0.496834
	H302	H	0.448854	0.567205	0.480426
	O303	O	0.982168	0.059486	0.033945
	H304	H	0.984533	0.066567	0.034253
	H305	H	0.982938	0.051206	0.037284
	O306	O	-0.390025	1.484382	0.474628
	H307	H	-0.401430	1.485171	0.475358
	H308	H	-0.389274	1.491700	0.481208
	O309	O	0.409333	0.497508	0.560142
	H310	H	0.407153	0.495149	0.561349
	H311	H	0.411938	0.499991	0.548646
	O312	O	1.592108	0.381723	1.461484
	H313	H	1.595190	0.374036	1.458548
	H314	H	1.583839	0.388794	1.453659
	O315	O	0.419993	0.432812	0.441664
	H316	H	0.422352	0.441348	0.450580
	H317	H	0.425505	0.435292	0.433247
	O318	O	0.564216	0.491070	0.428868
	H319	H	0.557378	0.487061	0.426645
	H320	H	0.561146	0.487363	0.426645
	O321	O	1.022336	0.969169	0.995762
	H322	H	1.014861	0.956791	0.994058
	H323	H	1.013120	0.966028	1.002996
	O324	O	0.541794	0.551876	0.532521
	H325	H	0.551755	0.551449	0.533220
	H326	H	0.549766	0.548236	0.536173
	O327	O	0.527172	0.452821	0.406982
	H328	H	0.523949	0.453926	0.412603
	H329	H	0.530351	0.447195	0.411759
	O330	O	0.979922	-0.105244	1.085463
	H331	H	0.981836	-0.097723	1.082039
	H332	H	0.967275	-0.098475	1.080348
	O333	O	0.994433	0.954589	0.036363
	H334	H	0.988534	0.948416	0.038432
	H335	H	1.001593	0.954375	0.042768
	O336	O	0.471286	0.490410	0.514542
	H337	H	0.471279	0.487982	0.515935
	H338	H	0.469838	0.485239	0.521899
	O339	O	0.546923	0.588189	0.572575
	H340	H	0.551135	0.585007	0.572559
	H341	H	0.556751	0.574622	0.585757
	O342	O	0.064657	0.926890	0.000741
	H343	H	0.072569	0.933727	0.004423
	H344	H	0.064256	0.926534	0.004482
	O345	O	-0.032578	-0.030454	0.118784
	H346	H	-0.029582	-0.030600	0.118019
	H347	H	-0.024713	-0.037023	0.122598
	O348	O	0.542864	0.503225	0.497331
	H349	H	0.531171	0.505728	0.500216
	H350	H	0.547116	0.507188	0.500261
	O351	O	0.467518	0.616154	0.579216
	H352	H	0.466804	0.628870	0.579640
	H353	H	0.480515	0.620772	0.578368
	O354	O	0.433949	0.587290	0.433709
	H355	H	0.437766	0.595544	0.436926
	H356	H	0.440533	0.586901	0.427537
	O357	O	0.505608	0.517945	0.559581
	H358	H	0.515147	0.513609	0.550869
	H359	H	0.508655	0.510596	0.558164
	O360	O	0.034321	0.055348	-0.003173
	H361	H	0.034011	0.050800	-0.002600
	H362	H	0.032209	0.057743	-0.010964
	O363	O	0.457038	0.472206	0.497026
	H364	H	0.453276	0.466936	0.503952
	H365	H	0.451758	0.468222	0.513437
	O366	O	-0.018682	0.026913	1.003986
	H367	H	-0.021494	0.025950	1.002031
	H368	H	-0.019147	0.034013	0.998848
	O369	O	0.614705	0.473583	0.486704
	H370	H	0.615777	0.477659	0.481854
	H371	H	0.620856	0.457328	0.474553
