data_Molecule from HDF5

_cell_length_a		16.516285
_cell_length_b		16.561990
_cell_length_c		16.458307
_cell_angle_alpha	89.994488
_cell_angle_beta	89.950229
_cell_angle_gamma	90.023602
_symmetry_space_group_name_H-M	'P 1'
_symmetry_Int_Tables_number		1

loop_
	_symmetry_equiv_pos_as_xyz
	x,y,z

loop_
	_atom_site_label
	_atom_site_type_symbol
	_atom_site_fract_x
	_atom_site_fract_y
	_atom_site_fract_z
	H0	H	0.372724	0.831957	0.700148
	H1	H	0.582928	0.145733	0.694921
	H2	H	0.587550	0.830240	0.251799
	H3	H	0.375433	0.143842	0.255034
	H4	H	0.700351	0.384025	0.818523
	H5	H	0.702977	0.598107	0.133422
	H6	H	0.255386	0.596453	0.819889
	H7	H	0.257896	0.384146	0.134035
	H8	H	0.822018	0.711533	0.369029
	H9	H	0.136722	0.710856	0.582653
	H10	H	0.821722	0.268155	0.581326
	H11	H	0.135582	0.267316	0.370185
	H12	H	0.821574	0.384933	0.697038
	H13	H	0.135683	0.594175	0.700025
	H14	H	0.820498	0.594635	0.254863
	H15	H	0.136899	0.386630	0.256543
	H16	H	0.368324	0.715046	0.821277
	H17	H	0.587980	0.714401	0.132302
	H18	H	0.583606	0.267826	0.817921
	H19	H	0.374052	0.267348	0.133832
	H20	H	0.704421	0.830537	0.366985
	H21	H	0.699488	0.145306	0.579269
	H22	H	0.254271	0.832838	0.586378
	H23	H	0.256355	0.143033	0.368576
	H24	H	0.880108	0.330946	0.193568
	H25	H	0.084676	0.648643	0.196948
	H26	H	0.079985	0.330115	0.759047
	H27	H	0.871580	0.645536	0.753286
	H28	H	0.199961	0.885488	0.317245
	H29	H	0.201019	0.093106	0.633857
	H30	H	0.763766	0.087677	0.316577
	H31	H	0.761980	0.887228	0.636428
	H32	H	0.321393	0.208623	0.871532
	H33	H	0.637172	0.206234	0.077183
	H34	H	0.323071	0.763491	0.086502
	H35	H	0.636291	0.765751	0.869973
	H36	H	0.323544	0.879295	0.202195
	H37	H	0.638357	0.087438	0.192814
	H38	H	0.322212	0.092599	0.755075
	H39	H	0.638260	0.884989	0.756879
	H40	H	0.877707	0.206722	0.317631
	H41	H	0.084672	0.209427	0.634400
	H42	H	0.083656	0.769070	0.316450
	H43	H	0.875844	0.768676	0.635046
	H44	H	0.196824	0.330400	0.874332
	H45	H	0.203021	0.646802	0.082772
	H46	H	0.762564	0.330822	0.077502
	H47	H	0.755884	0.645782	0.870246
	H48	H	0.385011	0.101513	0.564530
	H49	H	0.572538	0.873521	0.570709
	H50	H	0.564298	0.096058	0.386958
	H51	H	0.394809	0.875922	0.387616
	H52	H	0.562451	0.392820	0.088714
	H53	H	0.561703	0.574859	0.867127
	H54	H	0.391926	0.577324	0.088206
	H55	H	0.392929	0.405856	0.866979
	H56	H	0.089841	0.577497	0.389273
	H57	H	0.867588	0.573894	0.568248
	H58	H	0.091384	0.398973	0.563879
	H59	H	0.867303	0.399295	0.391493
	H60	H	0.091216	0.401457	0.567023
	H61	H	0.866518	0.583035	0.565031
	H62	H	0.091032	0.577246	0.383844
	H63	H	0.865772	0.402668	0.382087
	H64	H	0.390560	0.573613	0.087248
	H65	H	0.566225	0.578628	0.864748
	H66	H	0.575457	0.394202	0.093706
	H67	H	0.393793	0.389879	0.861527
	H68	H	0.574434	0.097408	0.391684
	H69	H	0.565866	0.876232	0.567311
	H70	H	0.393890	0.099424	0.569921
	H71	H	0.391798	0.877939	0.393349
	H72	H	0.893006	0.600236	0.061740
	H73	H	0.071931	0.376421	0.066853
	H74	H	0.069261	0.603260	0.884199
	H75	H	0.888259	0.376659	0.884585
	H76	H	0.069711	0.900743	0.589208
	H77	H	0.072073	0.079268	0.361809
	H78	H	0.887120	0.087744	0.593877
	H79	H	0.891957	0.897162	0.362739
	H80	H	0.591500	0.081243	0.892641
	H81	H	0.364569	0.078057	0.070852
	H82	H	0.588842	0.903254	0.062924
	H83	H	0.367045	0.903146	0.883544
	H84	H	0.591075	0.900580	0.064273
	H85	H	0.365287	0.081882	0.064083
	H86	H	0.591020	0.073720	0.883528
	H87	H	0.366432	0.894861	0.889459
	H88	H	0.881902	0.073894	0.591132
	H89	H	0.066926	0.074085	0.365577
	H90	H	0.064803	0.902617	0.586299
	H91	H	0.887544	0.898831	0.362887
	H92	H	0.062839	0.599098	0.888324
	H93	H	0.066444	0.378847	0.068964
	H94	H	0.885951	0.602557	0.062812
	H95	H	0.890386	0.377506	0.887009
	H96	H	0.393214	0.096432	0.559821
	H97	H	0.572260	0.874869	0.562578
	H98	H	0.572635	0.100123	0.380657
	H99	H	0.388358	0.874450	0.388871
	H100	H	0.569435	0.405160	0.087196
	H101	H	0.567456	0.572780	0.866928
	H102	H	0.394735	0.574572	0.086760
	H103	H	0.379869	0.398630	0.859511
	H104	H	0.092780	0.582122	0.386960
	H105	H	0.870162	0.576196	0.558340
	H106	H	0.092588	0.397340	0.567400
	H107	H	0.864253	0.393215	0.384463
	H108	H	0.890771	0.603414	0.068505
	H109	H	0.068605	0.379639	0.062953
	H110	H	0.070410	0.600930	0.892555
	H111	H	0.887080	0.376964	0.888163
	H112	H	0.064976	0.897022	0.588659
	H113	H	0.064482	0.081285	0.363911
	H114	H	0.896181	0.077430	0.587376
	H115	H	0.891032	0.901379	0.364488
	H116	H	0.595522	0.084924	0.882011
	H117	H	0.367715	0.075123	0.064389
	H118	H	0.589270	0.900321	0.060954
	H119	H	0.370920	0.903503	0.893012
	C120	C	0.357614	-0.003791	0.598347
	C121	C	0.601178	0.979110	0.597374
	C122	C	0.602462	-0.005469	0.353994
	C123	C	0.359218	0.979254	0.356318
	C124	C	0.600360	0.366792	-0.015063
	C125	C	0.599577	0.609726	0.968944
	C126	C	0.358033	0.609837	-0.015321
	C127	C	0.357246	0.366776	0.967308
	C128	C	-0.013059	0.610940	0.354437
	C129	C	0.971475	0.610242	0.597520
	C130	C	-0.012356	0.367187	0.598287
	C131	C	0.970395	0.367866	0.354767
	C132	C	0.858948	0.497888	0.096332
	C133	C	0.101817	0.481916	0.098668
	C134	C	0.098835	0.496935	0.856520
	C135	C	0.855766	0.480488	0.853863
	C136	C	0.099665	0.867797	0.483890
	C137	C	0.100554	0.109989	0.467906
	C138	C	0.857979	0.109759	0.485438
	C139	C	0.858332	0.867426	0.468273
	C140	C	0.488001	0.110667	0.854162
	C141	C	0.470466	0.109057	0.097597
	C142	C	0.486772	0.867311	0.096996
	C143	C	0.471851	0.867765	0.855949
	C144	C	0.354679	0.878972	0.659800
	C145	C	0.601965	0.098272	0.655619
	C146	C	0.605292	0.877108	0.292608
	C147	C	0.356647	0.096677	0.294977
	C148	C	0.660058	0.365290	0.865859
	C149	C	0.662458	0.615132	0.086079
	C150	C	0.295922	0.614193	0.866978
	C151	C	0.297740	0.365354	0.086532
	C152	C	0.869043	0.671414	0.351630
	C153	C	0.089409	0.670817	0.601125
	C154	C	0.869292	0.307500	0.600265
	C155	C	0.088811	0.308314	0.352728
	C156	C	0.869022	0.365808	0.657654
	C157	C	0.088976	0.613028	0.659408
	C158	C	0.868249	0.612996	0.294625
	C159	C	0.089489	0.367538	0.296050
	C160	C	0.352582	0.672864	0.867589
	C161	C	0.604721	0.672879	0.085806
	C162	C	0.602150	0.307504	0.865805
	C163	C	0.355430	0.307303	0.086470
	C164	C	0.663239	0.877078	0.350311
	C165	C	0.659963	0.098009	0.597953
	C166	C	0.295542	0.879429	0.603167
	C167	C	0.297575	0.096428	0.351714
	C168	C	0.859890	0.378452	0.154449
	C169	C	0.103483	0.600662	0.157807
	C170	C	0.098972	0.377798	0.798322
	C171	C	0.853706	0.598549	0.793764
	C172	C	0.159984	0.866187	0.364760
	C173	C	0.160698	0.111478	0.586641
	C174	C	0.801554	0.108421	0.364939
	C175	C	0.800647	0.867512	0.588442
	C176	C	0.369017	0.169249	0.852956
	C177	C	0.589850	0.166782	0.097268
	C178	C	0.369645	0.804976	0.102361
	C179	C	0.589542	0.806624	0.852632
	C180	C	0.369824	0.862411	0.160308
	C181	C	0.590420	0.107967	0.154482
	C182	C	0.369454	0.111429	0.794927
	C183	C	0.590659	0.865996	0.796329
	C184	C	0.858456	0.167326	0.365275
	C185	C	0.103093	0.169597	0.586833
	C186	C	0.102128	0.808305	0.364345
	C187	C	0.857466	0.808742	0.587607
	C188	C	0.157420	0.378053	0.855567
	C189	C	0.162367	0.599875	0.100802
	C190	C	0.801599	0.378299	0.096918
	C191	C	0.795862	0.598672	0.851755
	C192	C	0.383320	0.078027	0.572138
	C193	C	0.577036	0.896399	0.573687
	C194	C	0.577522	0.076620	0.379385
	C195	C	0.384448	0.897484	0.382497
	C196	C	0.576211	0.390831	0.068226
	C197	C	0.572742	0.582943	0.887546
	C198	C	0.385020	0.582873	0.066203
	C199	C	0.381837	0.391176	0.884390
	C200	C	0.069553	0.586149	0.379515
	C201	C	0.889496	0.584910	0.571300
	C202	C	0.070368	0.392051	0.573226
	C203	C	0.887409	0.391825	0.378888
	C204	C	0.882774	0.580528	0.071614
	C205	C	0.076371	0.399837	0.073592
	C206	C	0.074651	0.579541	0.881209
	C207	C	0.881119	0.398304	0.879270
	C208	C	0.074087	0.892910	0.566406
	C209	C	0.075258	0.085262	0.385333
	C210	C	0.881589	0.086510	0.569082
	C211	C	0.882945	0.891939	0.385031
	C212	C	0.571075	0.086820	0.878912
	C213	C	0.387331	0.085315	0.073486
	C214	C	0.568341	0.893680	0.070348
	C215	C	0.389472	0.893180	0.881471
	Zn216	Zn	0.479817	-0.011921	0.726419
	Zn217	Zn	0.479848	-0.013439	0.226220
	Zn218	Zn	0.728116	0.489077	-0.023193
	Zn219	Zn	0.229584	0.489358	-0.023872
	Zn220	Zn	-0.020449	0.739056	0.475782
	Zn221	Zn	-0.020884	0.238738	0.476610
	Zn222	Zn	-0.021340	0.489073	0.726786
	Zn223	Zn	-0.020946	0.490835	0.226175
	Zn224	Zn	0.478869	0.738573	-0.023578
	Zn225	Zn	0.478779	0.238497	-0.023861
	Zn226	Zn	0.730176	-0.012863	0.475993
	Zn227	Zn	0.229099	-0.012100	0.476339
	N228	N	0.392779	0.952693	0.656702
	N229	N	0.566096	0.023371	0.655463
	N230	N	0.567940	0.951200	0.294829
	N231	N	0.394557	0.022941	0.298027
	N232	N	0.659064	0.401618	0.940915
	N233	N	0.659057	0.576143	0.012497
	N234	N	0.299296	0.575471	0.940696
	N235	N	0.298462	0.401302	0.011390
	N236	N	0.944079	0.670471	0.387976
	N237	N	0.015163	0.669412	0.563586
	N238	N	0.944170	0.308244	0.564104
	N239	N	0.013663	0.308163	0.388458
	N240	N	0.943746	0.402156	0.656734
	N241	N	0.014451	0.576444	0.657641
	N242	N	0.942575	0.576241	0.296289
	N243	N	0.014772	0.404036	0.297074
	N244	N	0.390606	0.670197	0.941821
	N245	N	0.566207	0.669673	0.012077
	N246	N	0.565555	0.308385	0.940909
	N247	N	0.391564	0.307851	0.011243
	N248	N	0.661636	0.951004	0.387947
	N249	N	0.659528	0.023098	0.562365
	N250	N	0.297300	0.953398	0.565564
	N251	N	0.299025	0.022356	0.389272
	N252	N	0.894498	0.453931	0.154424
	N253	N	0.066563	0.526306	0.156778
	N254	N	0.063508	0.452860	0.798556
	N255	N	0.890234	0.524072	0.795122
	N256	N	0.158621	0.902140	0.439955
	N257	N	0.159429	0.075182	0.511589
	N258	N	0.800937	0.073714	0.440712
	N259	N	0.800946	0.902841	0.513040
	N260	N	0.444024	0.169087	0.888832
	N261	N	0.514072	0.167917	0.063018
	N262	N	0.443298	0.807968	0.063712
	N263	N	0.514535	0.807430	0.888736
	N264	N	0.443442	0.900629	0.156910
	N265	N	0.514993	0.072958	0.154879
	N266	N	0.444433	0.075702	0.795686
	N267	N	0.516215	0.903084	0.797976
	N268	N	0.892567	0.168558	0.441398
	N269	N	0.066401	0.168911	0.512020
	N270	N	0.065491	0.809054	0.439518
	N271	N	0.892437	0.808366	0.511729
	N272	N	0.157588	0.453205	0.891015
	N273	N	0.161499	0.524990	0.064877
	N274	N	0.800607	0.453627	0.061971
	N275	N	0.796871	0.524017	0.888270
	O276	O	0.679442	0.689766	0.623463
	H277	H	0.674234	0.692876	0.613423
	H278	H	0.673418	0.671939	0.627287
	O279	O	0.442861	0.573407	0.691231
	H280	H	0.432874	0.580051	0.691108
	H281	H	0.446029	0.582792	0.688582
	O282	O	1.009634	0.859890	0.062603
	H283	H	1.015766	0.849043	0.053104
	H284	H	1.021139	0.878454	0.071482
	O285	O	0.807180	0.245897	0.753263
	H286	H	0.794720	0.262948	0.737936
	H287	H	0.816757	0.243368	0.740202
	O288	O	-0.027032	0.203636	0.005552
	H289	H	-0.020713	0.199448	-0.005320
	H290	H	-0.013995	0.207836	0.001523
	O291	O	1.565442	1.603452	0.324864
	H292	H	1.565891	1.592451	0.334652
	H293	H	1.574515	1.599397	0.318209
	O294	O	0.199255	0.912873	0.048280
	H295	H	0.184586	0.926263	0.081013
	H296	H	0.212126	0.916899	0.055429
	O297	O	0.689922	0.277702	0.263347
	H298	H	0.662869	0.275422	0.275595
	H299	H	0.720337	0.243512	0.232935
	O300	O	0.085290	1.128537	0.809056
	H301	H	0.091468	1.110565	0.815283
	H302	H	0.074161	1.132358	0.819205
	O303	O	0.352891	0.664006	0.284298
	H304	H	0.353202	0.630892	0.279609
	H305	H	0.384016	0.670091	0.278797
	O306	O	-0.016268	0.810069	1.029556
	H307	H	-0.012999	0.800445	1.017296
	H308	H	-0.009899	0.812394	1.024940
	O309	O	0.268534	0.517365	0.267964
	H310	H	0.243216	0.515183	0.246223
	H311	H	0.288948	0.517253	0.268587
	O312	O	0.685997	0.281427	0.429260
	H313	H	0.689005	0.272259	0.413538
	H314	H	0.699099	0.269777	0.418684
	O315	O	-0.206251	0.173500	1.158250
	H316	H	-0.190184	0.160685	1.131903
	H317	H	-0.186140	0.153645	1.143205
	O318	O	-0.218731	0.930310	0.065050
	H319	H	-0.219935	0.930836	0.044892
	H320	H	-0.220686	0.950876	0.060836
	O321	O	0.444798	0.472840	0.629708
	H322	H	0.420420	0.474891	0.628504
	H323	H	0.430494	0.478276	0.639356
	O324	O	0.476273	0.395051	0.574159
	H325	H	0.476119	0.398282	0.573384
	H326	H	0.471336	0.395744	0.577633
	O327	O	0.943154	0.081561	1.122219
	H328	H	0.963307	0.083434	1.123340
	H329	H	0.944629	0.097666	1.117188
	O330	O	1.074833	0.187816	0.178481
	H331	H	1.091343	0.208390	0.202794
	H332	H	1.071693	0.186987	0.161295
	O333	O	0.378937	0.601461	1.570768
	H334	H	0.373065	0.578261	1.568084
	H335	H	0.384676	0.609039	1.580810
	O336	O	1.182904	0.031599	1.127513
	H337	H	1.171676	0.043278	1.143306
	H338	H	1.185725	0.035574	1.140469
	O339	O	0.862357	0.795744	0.858780
	H340	H	0.873342	0.800238	0.868728
	H341	H	0.858750	0.787623	0.838110
	O342	O	0.503291	0.291718	0.477217
	H343	H	0.519771	0.281429	0.471523
	H344	H	0.499298	0.299382	0.473394
	O345	O	-0.229825	-0.016359	-0.182876
	H346	H	-0.229099	-0.022279	-0.193220
	H347	H	-0.227606	-0.033904	-0.188937
	O348	O	0.906645	-0.212033	1.183944
	H349	H	0.892089	-0.224958	1.202236
	H350	H	0.878990	-0.209237	1.179782
	O351	O	1.166700	0.866908	0.784763
	H352	H	1.174787	0.861928	0.801694
	H353	H	1.157307	0.899641	0.793638
	O354	O	0.313926	0.607875	0.595827
	H355	H	0.303736	0.631655	0.595299
	H356	H	0.327786	0.606371	0.606681
	O357	O	1.285617	1.286862	0.675170
	H358	H	1.273604	1.291569	0.664779
	H359	H	1.313517	1.298526	0.679020
	O360	O	0.265984	0.706567	0.394429
	H361	H	0.259480	0.732501	0.389312
	H362	H	0.272422	0.699588	0.375294
	O363	O	0.933053	0.087823	0.937187
	H364	H	0.929020	0.081301	0.927171
	H365	H	0.923750	0.083399	0.938683
	O366	O	1.429543	-0.563990	1.517057
	H367	H	1.426841	-0.570219	1.523232
	H368	H	1.425779	-0.549881	1.508595
	O369	O	0.290580	0.551476	0.493792
	H370	H	0.287756	0.558890	0.509077
	H371	H	0.285745	0.571162	0.487357
	O372	O	0.508620	0.612092	0.273326
	H373	H	0.520489	0.604008	0.283616
	H374	H	0.526543	0.610222	0.271285
	O375	O	-0.030306	0.833170	0.817957
	H376	H	-0.017587	0.820393	0.826955
	H377	H	-0.021591	0.819769	0.795870
	O378	O	0.264506	0.272814	0.500327
	H379	H	0.245772	0.254597	0.504729
	H380	H	0.268273	0.278571	0.503793
	O381	O	0.998647	-0.020189	-0.115763
	H382	H	1.007488	-0.009116	-0.105019
	H383	H	0.998139	-0.038579	-0.120647
	O384	O	0.191717	0.028444	0.952225
	H385	H	0.204307	0.033198	0.957087
	H386	H	0.187236	0.016504	0.970389
	O387	O	-0.350137	1.268329	0.703176
	H388	H	-0.356139	1.284269	0.696818
	H389	H	-0.351730	1.274937	0.694517
	O390	O	-0.067292	-0.028445	1.054573
	H391	H	-0.072936	-0.029629	1.053736
	H392	H	-0.060920	-0.025129	1.062125
	O393	O	1.122773	0.991627	-0.236373
	H394	H	1.140948	0.999386	-0.236615
	H395	H	1.103957	0.989167	-0.236679
	O396	O	0.502766	0.270763	0.495211
	H397	H	0.487090	0.275623	0.505609
	H398	H	0.492301	0.265479	0.503906
	O399	O	0.997529	1.054424	1.100123
	H400	H	1.008976	1.052915	1.091906
	H401	H	0.980401	1.045782	1.101773
	O402	O	0.003133	-0.099416	1.118369
	H403	H	0.015495	-0.106228	1.122585
	H404	H	0.000258	-0.111430	1.117865
	O405	O	-0.179754	0.142199	-0.098131
	H406	H	-0.186637	0.149214	-0.116491
	H407	H	-0.176057	0.132878	-0.112624
	O408	O	0.701700	1.453285	1.249871
	H409	H	0.705808	1.427454	1.255861
	H410	H	0.730905	1.436857	1.225709
	O411	O	0.509312	0.480942	0.700205
	H412	H	0.517144	0.482463	0.697299
	H413	H	0.494403	0.480623	0.687426
	O414	O	0.563833	0.638851	0.565163
	H415	H	0.557955	0.657552	0.584973
	H416	H	0.559930	0.628720	0.554697
	O417	O	0.652891	0.670114	0.501892
	H418	H	0.647409	0.660880	0.512338
	H419	H	0.681754	0.690610	0.496084
	O420	O	0.512775	0.266684	0.258592
	H421	H	0.513074	0.264806	0.262867
	H422	H	0.515347	0.253214	0.241790
	O423	O	0.410759	1.420964	0.266086
	H424	H	0.426283	1.431444	0.265250
	H425	H	0.417618	1.420983	0.271385
	O426	O	0.779671	0.790373	1.058768
	H427	H	0.776968	0.794070	1.047346
	H428	H	0.766463	0.783191	1.050834
	O429	O	0.578916	0.511615	0.384291
	H430	H	0.582785	0.521523	0.381119
	H431	H	0.581167	0.510285	0.370482
	O432	O	1.069224	0.152928	0.906743
	H433	H	1.080145	0.152268	0.903337
	H434	H	1.066341	0.137854	0.892043
	O435	O	-0.023981	-0.075469	-0.183257
	H436	H	0.001677	-0.075414	-0.180538
	H437	H	-0.002507	-0.084917	-0.182974
	O438	O	1.363095	-0.367896	0.603096
	H439	H	1.368631	-0.358314	0.589158
	H440	H	1.356943	-0.370610	0.618485
	O441	O	0.695426	0.517110	0.689267
	H442	H	0.720270	0.519313	0.715528
	H443	H	0.682466	0.505729	0.680512
	O444	O	0.294579	1.334217	0.342599
	H445	H	0.304450	1.357862	0.356777
	H446	H	0.301761	1.328540	0.363170
	O447	O	1.134196	0.786921	-0.088954
	H448	H	1.139716	0.793377	-0.067610
	H449	H	1.126911	0.807156	-0.072005
	O450	O	0.526272	0.478868	0.424559
	H451	H	0.528935	0.466578	0.413545
	H452	H	0.541295	0.469539	0.432250
	O453	O	0.696958	0.442448	0.533148
	H454	H	0.698035	0.443440	0.511994
	H455	H	0.696062	0.437015	0.548806
	O456	O	1.188943	0.194595	0.077785
	H457	H	1.213116	0.214192	0.072429
	H458	H	1.201881	0.200356	0.092284
	O459	O	0.369551	0.565394	0.499655
	H460	H	0.370562	0.576109	0.495980
	H461	H	0.372155	0.574467	0.504469
	O462	O	0.529311	0.552671	0.421304
	H463	H	0.541133	0.546608	0.423634
	H464	H	0.525114	0.551687	0.427322
	O465	O	0.779053	0.023233	-0.105839
	H466	H	0.789117	0.023763	-0.123535
	H467	H	0.775321	0.036959	-0.118106
