data_Molecule from HDF5

_cell_length_a		16.392417
_cell_length_b		16.330013
_cell_length_c		16.235812
_cell_angle_alpha	89.936944
_cell_angle_beta	90.006970
_cell_angle_gamma	89.825951
_symmetry_space_group_name_H-M	'P 1'
_symmetry_Int_Tables_number		1

loop_
	_symmetry_equiv_pos_as_xyz
	x,y,z

loop_
	_atom_site_label
	_atom_site_type_symbol
	_atom_site_fract_x
	_atom_site_fract_y
	_atom_site_fract_z
	H0	H	0.407261	0.840305	0.719786
	H1	H	0.600221	0.168450	0.719140
	H2	H	0.601085	0.840163	0.292994
	H3	H	0.406188	0.167940	0.291469
	H4	H	0.718217	0.405503	0.841357
	H5	H	0.716685	0.601781	0.169829
	H6	H	0.289233	0.602677	0.841333
	H7	H	0.288539	0.404804	0.169035
	H8	H	0.841482	0.719838	0.406978
	H9	H	0.166852	0.719665	0.605432
	H10	H	0.841680	0.288562	0.606954
	H11	H	0.165528	0.286941	0.406887
	H12	H	0.841411	0.406926	0.720963
	H13	H	0.167442	0.600104	0.720188
	H14	H	0.840925	0.602967	0.291623
	H15	H	0.167203	0.405514	0.291391
	H16	H	0.405712	0.718322	0.840782
	H17	H	0.600704	0.716870	0.169973
	H18	H	0.600923	0.291152	0.840576
	H19	H	0.405784	0.289996	0.169611
	H20	H	0.718998	0.841127	0.407213
	H21	H	0.719619	0.166820	0.605506
	H22	H	0.289630	0.840447	0.605056
	H23	H	0.286318	0.166609	0.404544
	H24	H	0.906618	0.341043	0.220584
	H25	H	0.099120	0.668275	0.219223
	H26	H	0.102025	0.340435	0.792526
	H27	H	0.906607	0.667965	0.791684
	H28	H	0.219452	0.903663	0.342152
	H29	H	0.218301	0.102723	0.670106
	H30	H	0.788562	0.102642	0.341436
	H31	H	0.789411	0.904865	0.669544
	H32	H	0.341083	0.220695	0.906755
	H33	H	0.666787	0.219401	0.105094
	H34	H	0.341548	0.787572	0.106451
	H35	H	0.666422	0.789272	0.907489
	H36	H	0.340454	0.907423	0.220666
	H37	H	0.666840	0.101991	0.220588
	H38	H	0.340873	0.102669	0.791028
	H39	H	0.667065	0.907512	0.792467
	H40	H	0.903641	0.219555	0.342547
	H41	H	0.101434	0.217266	0.670003
	H42	H	0.101810	0.789692	0.341430
	H43	H	0.907483	0.791281	0.670159
	H44	H	0.219892	0.341712	0.905809
	H45	H	0.218922	0.667605	0.105795
	H46	H	0.788060	0.341548	0.106594
	H47	H	0.788955	0.668000	0.907170
	H48	H	0.405142	0.119500	0.595480
	H49	H	0.602153	0.887066	0.597249
	H50	H	0.595402	0.119481	0.414369
	H51	H	0.417336	0.886938	0.401545
	H52	H	0.590701	0.407846	0.121543
	H53	H	0.604105	0.590343	0.888394
	H54	H	0.419086	0.597061	0.119105
	H55	H	0.411682	0.421440	0.892503
	H56	H	0.121634	0.598930	0.405872
	H57	H	0.888412	0.602432	0.598003
	H58	H	0.119107	0.410018	0.598116
	H59	H	0.887728	0.413891	0.407861
	H60	H	0.119759	0.409705	0.599773
	H61	H	0.890900	0.595397	0.596158
	H62	H	0.119488	0.603070	0.418960
	H63	H	0.887748	0.405979	0.415766
	H64	H	0.406422	0.602955	0.124855
	H65	H	0.588537	0.595194	0.891362
	H66	H	0.603064	0.408865	0.123756
	H67	H	0.418386	0.406827	0.889796
	H68	H	0.596243	0.118966	0.415237
	H69	H	0.597543	0.886957	0.604447
	H70	H	0.409292	0.120954	0.602291
	H71	H	0.417046	0.893478	0.423994
	H72	H	0.912636	0.618897	0.097439
	H73	H	0.106116	0.385730	0.099326
	H74	H	0.099939	0.621376	0.911358
	H75	H	0.918323	0.391248	0.913210
	H76	H	0.092226	0.916706	0.618745
	H77	H	0.096104	0.090538	0.391474
	H78	H	0.903883	0.103934	0.626497
	H79	H	0.913002	0.917395	0.390318
	H80	H	0.619439	0.101603	0.915708
	H81	H	0.387652	0.101293	0.099050
	H82	H	0.617928	0.913496	0.097052
	H83	H	0.385908	0.907788	0.907762
	H84	H	0.620062	0.909933	0.103217
	H85	H	0.391097	0.098022	0.094461
	H86	H	0.616984	0.093655	0.914208
	H87	H	0.388739	0.907565	0.917045
	H88	H	0.906013	0.085326	0.620727
	H89	H	0.090761	0.097412	0.390676
	H90	H	0.094921	0.903581	0.623470
	H91	H	0.914371	0.905563	0.388218
	H92	H	0.092387	0.619511	0.911522
	H93	H	0.091816	0.388670	0.105681
	H94	H	0.906308	0.620626	0.095362
	H95	H	0.905413	0.388924	0.920740
	H96	H	0.412979	0.118571	0.595503
	H97	H	0.594011	0.890683	0.596952
	H98	H	0.595859	0.119584	0.413893
	H99	H	0.397789	0.885389	0.414081
	H100	H	0.596545	0.419218	0.119591
	H101	H	0.599576	0.606111	0.885157
	H102	H	0.406589	0.588634	0.120104
	H103	H	0.402660	0.409133	0.885674
	H104	H	0.116279	0.589895	0.414610
	H105	H	0.887732	0.596782	0.603386
	H106	H	0.119628	0.408384	0.598625
	H107	H	0.891117	0.415961	0.418410
	H108	H	0.908124	0.621560	0.101859
	H109	H	0.093982	0.392183	0.090176
	H110	H	0.096192	0.618701	0.917992
	H111	H	0.906353	0.385439	0.905547
	H112	H	0.105192	0.913198	0.623802
	H113	H	0.099806	0.098216	0.388149
	H114	H	0.921074	0.098014	0.619574
	H115	H	0.903554	0.910605	0.387254
	H116	H	0.620341	0.098562	0.907843
	H117	H	0.388891	0.094858	0.100412
	H118	H	0.619299	0.906188	0.097571
	H119	H	0.389301	0.916110	0.912376
	C120	C	0.381843	0.011814	0.626695
	C121	C	0.625806	0.996176	0.627914
	C122	C	0.624810	0.011832	0.385248
	C123	C	0.381757	0.996278	0.383980
	C124	C	0.625147	0.383205	0.013351
	C125	C	0.625166	0.625266	0.997238
	C126	C	0.382080	0.625460	0.013274
	C127	C	0.382414	0.383508	0.997370
	C128	C	0.011835	0.625779	0.384639
	C129	C	0.996215	0.626142	0.627920
	C130	C	0.011988	0.381605	0.627792
	C131	C	0.995924	0.382294	0.384578
	C132	C	0.881614	0.512383	0.127132
	C133	C	0.125326	0.496754	0.127052
	C134	C	0.125289	0.512423	0.884756
	C135	C	0.881886	0.496486	0.884243
	C136	C	0.125228	0.882681	0.513607
	C137	C	0.124376	0.124178	0.498263
	C138	C	0.881313	0.125057	0.513918
	C139	C	0.882436	0.883070	0.497263
	C140	C	0.511563	0.126642	0.883882
	C141	C	0.496185	0.126379	0.127423
	C142	C	0.511755	0.881864	0.128072
	C143	C	0.495723	0.882639	0.884186
	C144	C	0.386057	0.889105	0.682146
	C145	C	0.621560	0.119520	0.681647
	C146	C	0.622207	0.889200	0.330243
	C147	C	0.384684	0.119003	0.328797
	C148	C	0.680499	0.384990	0.890185
	C149	C	0.679369	0.622572	0.120611
	C150	C	0.326700	0.623685	0.890180
	C151	C	0.326948	0.384830	0.120343
	C152	C	0.889637	0.681396	0.386840
	C153	C	0.118528	0.681318	0.625665
	C154	C	0.890101	0.326749	0.626495
	C155	C	0.117465	0.325771	0.386384
	C156	C	0.890000	0.385544	0.683277
	C157	C	0.118887	0.622136	0.682712
	C158	C	0.889553	0.623383	0.329417
	C159	C	0.118211	0.384763	0.329211
	C160	C	0.384611	0.680911	0.889948
	C161	C	0.621292	0.679337	0.120796
	C162	C	0.622313	0.328204	0.889770
	C163	C	0.385184	0.327839	0.120557
	C164	C	0.680823	0.889591	0.386868
	C165	C	0.681164	0.118473	0.625662
	C166	C	0.327521	0.889123	0.625192
	C167	C	0.325343	0.118344	0.385128
	C168	C	0.885039	0.389800	0.182971
	C169	C	0.121390	0.619469	0.181819
	C170	C	0.122713	0.389493	0.829680
	C171	C	0.885034	0.619306	0.829176
	C172	C	0.180817	0.883889	0.390547
	C173	C	0.179935	0.122464	0.621126
	C174	C	0.826224	0.123402	0.390609
	C175	C	0.827677	0.885282	0.620794
	C176	C	0.389427	0.182174	0.886328
	C177	C	0.618253	0.181640	0.125538
	C178	C	0.389603	0.826682	0.126239
	C179	C	0.617941	0.827378	0.886794
	C180	C	0.389091	0.886066	0.182941
	C181	C	0.618354	0.122953	0.182689
	C182	C	0.389362	0.123844	0.828716
	C183	C	0.618272	0.886115	0.829867
	C184	C	0.883651	0.181114	0.391019
	C185	C	0.121949	0.179548	0.621225
	C186	C	0.122300	0.827475	0.390173
	C187	C	0.886293	0.828820	0.621184
	C188	C	0.181343	0.390055	0.886153
	C189	C	0.180544	0.619193	0.125349
	C190	C	0.826376	0.389964	0.126174
	C191	C	0.826518	0.619166	0.886490
	C192	C	0.402868	0.097605	0.604318
	C193	C	0.604356	0.910338	0.606077
	C194	C	0.602332	0.097309	0.407808
	C195	C	0.404158	0.910889	0.406539
	C196	C	0.603117	0.405335	0.099407
	C197	C	0.603699	0.603457	0.910664
	C198	C	0.404327	0.602846	0.099227
	C199	C	0.404533	0.405759	0.911534
	C200	C	0.096975	0.603839	0.406741
	C201	C	0.911134	0.604640	0.605704
	C202	C	0.097447	0.403118	0.605377
	C203	C	0.910852	0.405207	0.407408
	C204	C	0.902749	0.598052	0.104809
	C205	C	0.103861	0.411108	0.104870
	C206	C	0.102660	0.597912	0.907051
	C207	C	0.903677	0.410816	0.906523
	C208	C	0.103662	0.904629	0.599649
	C209	C	0.102152	0.101785	0.412325
	C210	C	0.903683	0.102371	0.599970
	C211	C	0.904083	0.904805	0.410942
	C212	C	0.596820	0.104431	0.906086
	C213	C	0.411196	0.104507	0.104671
	C214	C	0.597066	0.903583	0.105808
	C215	C	0.410244	0.904115	0.905922
	Zn216	Zn	0.503509	0.004317	0.755431
	Zn217	Zn	0.504319	0.004393	0.256047
	Zn218	Zn	0.752940	0.504073	0.005471
	Zn219	Zn	0.253611	0.504606	0.005726
	Zn220	Zn	0.003950	0.754687	0.505718
	Zn221	Zn	0.002925	0.252686	0.506245
	Zn222	Zn	0.004134	0.503879	0.756038
	Zn223	Zn	0.003428	0.504467	0.255626
	Zn224	Zn	0.503793	0.753215	0.005407
	Zn225	Zn	0.504307	0.255564	0.005557
	Zn226	Zn	0.753875	0.003819	0.505592
	Zn227	Zn	0.253163	0.003491	0.505321
	N228	N	0.419075	0.966397	0.683317
	N229	N	0.587810	0.042424	0.683193
	N230	N	0.588027	0.966215	0.329212
	N231	N	0.418980	0.042137	0.327849
	N232	N	0.682312	0.418379	0.968027
	N233	N	0.681691	0.589633	0.042670
	N234	N	0.324984	0.589963	0.967808
	N235	N	0.325180	0.418789	0.042831
	N236	N	0.966525	0.683053	0.420583
	N237	N	0.041294	0.684058	0.592439
	N238	N	0.966894	0.324476	0.592609
	N239	N	0.040479	0.324245	0.420068
	N240	N	0.966961	0.418727	0.684508
	N241	N	0.041980	0.588722	0.684192
	N242	N	0.966533	0.589599	0.327820
	N243	N	0.041487	0.419255	0.327982
	N244	N	0.418212	0.682231	0.967658
	N245	N	0.588208	0.681072	0.042893
	N246	N	0.588673	0.326939	0.967393
	N247	N	0.418880	0.326845	0.043090
	N248	N	0.682448	0.966906	0.420410
	N249	N	0.683542	0.040787	0.592780
	N250	N	0.324981	0.966279	0.591288
	N251	N	0.323577	0.040974	0.418857
	N252	N	0.918786	0.466761	0.183627
	N253	N	0.087737	0.542564	0.182933
	N254	N	0.088640	0.466562	0.828506
	N255	N	0.918875	0.542124	0.827793
	N256	N	0.182916	0.917135	0.468281
	N257	N	0.181548	0.088821	0.543389
	N258	N	0.824626	0.089539	0.468154
	N259	N	0.825267	0.918188	0.542852
	N260	N	0.466437	0.183868	0.919995
	N261	N	0.541211	0.183970	0.091731
	N262	N	0.466658	0.824020	0.092788
	N263	N	0.540719	0.825145	0.919955
	N264	N	0.466101	0.919636	0.184258
	N265	N	0.541497	0.089539	0.184023
	N266	N	0.466181	0.089731	0.827463
	N267	N	0.541288	0.919859	0.828188
	N268	N	0.917136	0.182197	0.468811
	N269	N	0.087932	0.180610	0.543808
	N270	N	0.088605	0.826392	0.467743
	N271	N	0.919786	0.827257	0.543506
	N272	N	0.183065	0.467390	0.919694
	N273	N	0.183123	0.541634	0.092254
	N274	N	0.824125	0.467141	0.092126
	N275	N	0.824734	0.541807	0.920187
	O276	O	0.499269	0.539767	0.477329
	H277	H	0.506567	0.532178	0.469835
	H278	H	0.491813	0.535468	0.480981
	O279	O	0.077939	0.074556	-0.013400
	H280	H	0.086027	0.076211	-0.013772
	H281	H	0.071218	0.070431	-0.024422
	O282	O	0.473416	0.497763	0.450261
	H283	H	0.471158	0.505340	0.459610
	H284	H	0.471165	0.506273	0.445163
	O285	O	0.474173	0.489894	0.457989
	H286	H	0.472800	0.491061	0.460426
	H287	H	0.462767	0.494653	0.452705
	O288	O	1.062554	0.058345	-0.085508
	H289	H	1.061734	0.065547	-0.087201
	H290	H	1.056444	0.051847	-0.081987
	O291	O	-0.446348	0.497338	-0.543642
	H292	H	-0.446094	0.484253	-0.545937
	H293	H	-0.442047	0.498477	-0.562201
	O294	O	0.520052	0.476515	0.455057
	H295	H	0.524717	0.478048	0.448450
	H296	H	0.518343	0.473386	0.464081
	O297	O	0.080626	1.035084	-0.028354
	H298	H	0.089470	1.037443	-0.023273
	H299	H	0.081789	1.039986	-0.024337
	O300	O	1.049243	0.073732	0.960212
	H301	H	1.058629	0.077223	0.964548
	H302	H	1.046288	0.074220	0.959281
	O303	O	0.488415	0.475945	0.479141
	H304	H	0.486822	0.476555	0.476114
	H305	H	0.485872	0.473854	0.475382
	O306	O	0.063197	1.026572	0.938362
	H307	H	0.064534	1.026222	0.935519
	H308	H	0.068436	1.019732	0.928880
	O309	O	0.462155	0.498833	0.530167
	H310	H	0.463333	0.501672	0.529896
	H311	H	0.472647	0.503989	0.544459
