data_Molecule from HDF5

_cell_length_a		16.155680
_cell_length_b		16.447571
_cell_length_c		16.268193
_cell_angle_alpha	89.982539
_cell_angle_beta	90.162293
_cell_angle_gamma	89.862633
_symmetry_space_group_name_H-M	'P 1'
_symmetry_Int_Tables_number		1

loop_
	_symmetry_equiv_pos_as_xyz
	x,y,z

loop_
	_atom_site_label
	_atom_site_type_symbol
	_atom_site_fract_x
	_atom_site_fract_y
	_atom_site_fract_z
	H0	H	0.395907	0.844946	0.716987
	H1	H	0.599962	0.166293	0.716044
	H2	H	0.599283	0.843546	0.279397
	H3	H	0.393842	0.166167	0.277937
	H4	H	0.712606	0.407979	0.834817
	H5	H	0.709771	0.602844	0.163403
	H6	H	0.281251	0.603372	0.835041
	H7	H	0.287112	0.409105	0.163039
	H8	H	0.834106	0.721795	0.398595
	H9	H	0.160554	0.722356	0.604099
	H10	H	0.834244	0.288039	0.602478
	H11	H	0.160587	0.287845	0.399362
	H12	H	0.833087	0.407292	0.713141
	H13	H	0.162293	0.601743	0.714787
	H14	H	0.833285	0.605410	0.284251
	H15	H	0.161528	0.404427	0.285408
	H16	H	0.394458	0.721772	0.834550
	H17	H	0.600772	0.724589	0.159444
	H18	H	0.601088	0.288203	0.835187
	H19	H	0.392313	0.284314	0.157614
	H20	H	0.715574	0.843964	0.397806
	H21	H	0.713141	0.168132	0.596738
	H22	H	0.282529	0.843003	0.597171
	H23	H	0.279509	0.166324	0.397435
	H24	H	0.898342	0.342858	0.216059
	H25	H	0.099919	0.665592	0.219307
	H26	H	0.099548	0.343061	0.783454
	H27	H	0.894697	0.665483	0.780814
	H28	H	0.211053	0.905128	0.334508
	H29	H	0.213584	0.103370	0.661351
	H30	H	0.784199	0.103723	0.334217
	H31	H	0.783320	0.909338	0.662777
	H32	H	0.334487	0.223734	0.893094
	H33	H	0.660758	0.222203	0.099591
	H34	H	0.334709	0.789778	0.097177
	H35	H	0.660947	0.788024	0.894271
	H36	H	0.333526	0.905262	0.211202
	H37	H	0.661787	0.104363	0.212048
	H38	H	0.333248	0.104863	0.781895
	H39	H	0.661934	0.906798	0.783424
	H40	H	0.892898	0.225587	0.337952
	H41	H	0.100607	0.221855	0.661258
	H42	H	0.100806	0.784450	0.337978
	H43	H	0.894502	0.788124	0.661966
	H44	H	0.214147	0.343207	0.901363
	H45	H	0.213954	0.667131	0.099738
	H46	H	0.780867	0.343576	0.099578
	H47	H	0.782278	0.667577	0.901530
	H48	H	0.410609	0.118249	0.588594
	H49	H	0.589638	0.892429	0.587722
	H50	H	0.591784	0.121515	0.399467
	H51	H	0.411800	0.891323	0.400003
	H52	H	0.586714	0.413719	0.112945
	H53	H	0.587650	0.595746	0.883199
	H54	H	0.409726	0.598695	0.113324
	H55	H	0.408582	0.412726	0.881328
	H56	H	0.113092	0.592965	0.409264
	H57	H	0.879738	0.592790	0.599439
	H58	H	0.114592	0.413865	0.592366
	H59	H	0.885887	0.424490	0.414058
	H60	H	0.115207	0.409536	0.593765
	H61	H	0.879069	0.605842	0.590140
	H62	H	0.114761	0.598989	0.408656
	H63	H	0.877997	0.413628	0.397816
	H64	H	0.408310	0.602279	0.113723
	H65	H	0.587324	0.602075	0.881580
	H66	H	0.586968	0.410374	0.114047
	H67	H	0.404248	0.413123	0.881345
	H68	H	0.583497	0.117812	0.403681
	H69	H	0.592671	0.889831	0.590079
	H70	H	0.402786	0.118850	0.585741
	H71	H	0.405656	0.892637	0.409921
	H72	H	0.906547	0.618985	0.090039
	H73	H	0.096127	0.388852	0.093134
	H74	H	0.085557	0.617644	0.912073
	H75	H	0.895044	0.385796	0.903718
	H76	H	0.086166	0.915252	0.613333
	H77	H	0.086970	0.098475	0.382740
	H78	H	0.905902	0.104712	0.616732
	H79	H	0.905574	0.910282	0.382896
	H80	H	0.613468	0.098128	0.912482
	H81	H	0.380186	0.096153	0.088934
	H82	H	0.613586	0.912828	0.082092
	H83	H	0.377600	0.909565	0.901098
	H84	H	0.613673	0.919012	0.090722
	H85	H	0.380816	0.099728	0.084191
	H86	H	0.613841	0.093068	0.903339
	H87	H	0.382372	0.910451	0.912182
	H88	H	0.901158	0.093038	0.615085
	H89	H	0.087225	0.096751	0.383227
	H90	H	0.088776	0.908102	0.615121
	H91	H	0.907874	0.915486	0.384726
	H92	H	0.094003	0.620828	0.907899
	H93	H	0.089345	0.389920	0.098679
	H94	H	0.902776	0.620150	0.093345
	H95	H	0.914154	0.390930	0.898925
	H96	H	0.404152	0.121861	0.592961
	H97	H	0.589032	0.891482	0.591572
	H98	H	0.591867	0.119287	0.408734
	H99	H	0.400270	0.888584	0.400054
	H100	H	0.589642	0.413309	0.113936
	H101	H	0.593816	0.598775	0.880606
	H102	H	0.405852	0.599750	0.114464
	H103	H	0.406164	0.416076	0.883012
	H104	H	0.113164	0.596829	0.413914
	H105	H	0.884261	0.592407	0.583733
	H106	H	0.114379	0.409853	0.589551
	H107	H	0.879421	0.405307	0.416016
	H108	H	0.907285	0.619173	0.094802
	H109	H	0.088857	0.391983	0.088888
	H110	H	0.086147	0.619399	0.902476
	H111	H	0.907691	0.394134	0.917341
	H112	H	0.093342	0.913976	0.615442
	H113	H	0.086106	0.097761	0.383648
	H114	H	0.912335	0.095997	0.612239
	H115	H	0.911546	0.910614	0.384039
	H116	H	0.616234	0.103213	0.903418
	H117	H	0.382519	0.094396	0.084444
	H118	H	0.617056	0.908558	0.090830
	H119	H	0.382675	0.919966	0.904842
	C120	C	0.376137	0.013158	0.619144
	C121	C	0.620339	0.997701	0.619927
	C122	C	0.619393	0.013120	0.374733
	C123	C	0.375226	0.997286	0.373969
	C124	C	0.618672	0.383530	0.006233
	C125	C	0.619112	0.627898	0.989716
	C126	C	0.376611	0.628321	0.006155
	C127	C	0.376642	0.384359	0.989227
	C128	C	0.005619	0.625779	0.379834
	C129	C	0.989381	0.625902	0.621332
	C130	C	0.006491	0.382461	0.621285
	C131	C	0.988947	0.383946	0.379333
	C132	C	0.876027	0.512891	0.121917
	C133	C	0.120825	0.496949	0.122890
	C134	C	0.119145	0.512889	0.878373
	C135	C	0.875773	0.497063	0.877413
	C136	C	0.119285	0.882535	0.507139
	C137	C	0.117958	0.126560	0.490272
	C138	C	0.875798	0.127837	0.507538
	C139	C	0.876996	0.883981	0.491075
	C140	C	0.506148	0.127255	0.875904
	C141	C	0.488981	0.126217	0.116912
	C142	C	0.506535	0.884043	0.117466
	C143	C	0.489138	0.884067	0.875791
	C144	C	0.377145	0.892415	0.676990
	C145	C	0.619586	0.118571	0.677110
	C146	C	0.619168	0.892029	0.317930
	C147	C	0.374985	0.117998	0.316955
	C148	C	0.675075	0.386670	0.883699
	C149	C	0.673640	0.624539	0.113432
	C150	C	0.319156	0.624649	0.883751
	C151	C	0.322680	0.387281	0.112961
	C152	C	0.882784	0.682972	0.379420
	C153	C	0.112096	0.682880	0.622186
	C154	C	0.883063	0.326812	0.621151
	C155	C	0.111687	0.326591	0.379969
	C156	C	0.882505	0.385839	0.676424
	C157	C	0.112891	0.622903	0.677155
	C158	C	0.882498	0.624995	0.322578
	C159	C	0.112277	0.384516	0.323268
	C160	C	0.375751	0.683284	0.883365
	C161	C	0.619212	0.685047	0.111419
	C162	C	0.619290	0.327125	0.883985
	C163	C	0.375359	0.325450	0.110412
	C164	C	0.676820	0.892033	0.377003
	C165	C	0.676080	0.119330	0.617952
	C166	C	0.320464	0.891578	0.617604
	C167	C	0.317943	0.118062	0.376319
	C168	C	0.877728	0.391264	0.177832
	C169	C	0.119685	0.617529	0.180272
	C170	C	0.118805	0.391404	0.822147
	C171	C	0.875846	0.617782	0.820251
	C172	C	0.174000	0.884874	0.383984
	C173	C	0.175064	0.123829	0.612916
	C174	C	0.820150	0.125592	0.383960
	C175	C	0.820592	0.887430	0.613660
	C176	C	0.383279	0.184685	0.874768
	C177	C	0.612043	0.183053	0.117898
	C178	C	0.383439	0.827851	0.116789
	C179	C	0.612114	0.827098	0.875627
	C180	C	0.382839	0.885629	0.173211
	C181	C	0.612378	0.124700	0.174205
	C182	C	0.382686	0.125569	0.819483
	C183	C	0.612660	0.886326	0.820446
	C184	C	0.874769	0.185738	0.385699
	C185	C	0.118617	0.182698	0.612830
	C186	C	0.119258	0.824364	0.385795
	C187	C	0.875854	0.827163	0.613235
	C188	C	0.175641	0.391251	0.880910
	C189	C	0.176426	0.618366	0.120709
	C190	C	0.819471	0.391532	0.119876
	C191	C	0.819870	0.618837	0.880304
	C192	C	0.399257	0.097665	0.595879
	C193	C	0.597094	0.913313	0.596683
	C194	C	0.596081	0.097594	0.397344
	C195	C	0.398853	0.912739	0.396722
	C196	C	0.594804	0.406041	0.091477
	C197	C	0.596276	0.605467	0.904210
	C198	C	0.400696	0.606411	0.091562
	C199	C	0.399633	0.407245	0.904137
	C200	C	0.091467	0.602877	0.403648
	C201	C	0.903205	0.603838	0.597834
	C202	C	0.092483	0.404648	0.598562
	C203	C	0.903244	0.407656	0.402427
	C204	C	0.898911	0.597439	0.099329
	C205	C	0.097988	0.412234	0.100277
	C206	C	0.095388	0.597397	0.900888
	C207	C	0.898941	0.411997	0.900142
	C208	C	0.096182	0.905692	0.592554
	C209	C	0.093919	0.104234	0.405207
	C210	C	0.899406	0.104704	0.592471
	C211	C	0.901117	0.905900	0.405988
	C212	C	0.592105	0.104721	0.899363
	C213	C	0.403365	0.103484	0.092819
	C214	C	0.592349	0.906691	0.094753
	C215	C	0.403092	0.906872	0.899116
	Zn216	Zn	0.498053	0.005813	0.748742
	Zn217	Zn	0.497558	0.005215	0.244785
	Zn218	Zn	0.747085	0.505553	-0.000567
	Zn219	Zn	0.249227	0.505420	-0.000720
	Zn220	Zn	-0.002274	0.754037	0.500203
	Zn221	Zn	-0.003138	0.255490	0.499764
	Zn222	Zn	-0.002199	0.504033	0.748621
	Zn223	Zn	-0.002433	0.504798	0.251447
	Zn224	Zn	0.498138	0.756822	-0.003389
	Zn225	Zn	0.497109	0.254964	-0.002990
	Zn226	Zn	0.748861	0.005981	0.497574
	Zn227	Zn	0.246562	0.004623	0.497626
	N228	N	0.411060	0.968986	0.677935
	N229	N	0.585528	0.041968	0.678472
	N230	N	0.584204	0.968274	0.316638
	N231	N	0.409839	0.041729	0.315580
	N232	N	0.674910	0.420985	0.960785
	N233	N	0.673859	0.589649	0.036622
	N234	N	0.319484	0.591172	0.961310
	N235	N	0.323598	0.423592	0.036848
	N236	N	0.960452	0.683822	0.414124
	N237	N	0.034056	0.684787	0.588225
	N238	N	0.961191	0.324349	0.587748
	N239	N	0.033961	0.326198	0.414120
	N240	N	0.960103	0.419804	0.676566
	N241	N	0.035563	0.588341	0.676716
	N242	N	0.959824	0.589826	0.322913
	N243	N	0.035057	0.419697	0.323002
	N244	N	0.410595	0.685831	0.960496
	N245	N	0.585996	0.687186	0.033532
	N246	N	0.584889	0.325126	0.961199
	N247	N	0.408419	0.323560	0.032612
	N248	N	0.677304	0.968448	0.411377
	N249	N	0.676662	0.043179	0.583087
	N250	N	0.319583	0.967667	0.582442
	N251	N	0.317987	0.041839	0.411074
	N252	N	0.912210	0.467706	0.179147
	N253	N	0.085724	0.540966	0.181600
	N254	N	0.083981	0.467816	0.820764
	N255	N	0.909796	0.540929	0.818414
	N256	N	0.174085	0.920317	0.460562
	N257	N	0.175000	0.089605	0.535756
	N258	N	0.820705	0.090281	0.460540
	N259	N	0.821065	0.921830	0.536745
	N260	N	0.461136	0.185988	0.908964
	N261	N	0.534339	0.184232	0.083098
	N262	N	0.461199	0.826880	0.082806
	N263	N	0.534058	0.825612	0.909159
	N264	N	0.460431	0.919861	0.173897
	N265	N	0.534893	0.090173	0.173746
	N266	N	0.460052	0.090662	0.819907
	N267	N	0.535030	0.920924	0.820321
	N268	N	0.908199	0.187431	0.463549
	N269	N	0.083478	0.184185	0.535824
	N270	N	0.086140	0.822806	0.463585
	N271	N	0.910348	0.824779	0.536008
	N272	N	0.176181	0.467756	0.915108
	N273	N	0.177378	0.542284	0.085859
	N274	N	0.818049	0.468203	0.086126
	N275	N	0.819796	0.542599	0.915049
	O276	O	1.003633	0.058473	0.980721
	H277	H	1.004232	0.081189	0.977889
	H278	H	1.002503	0.063446	0.980767
	O279	O	0.451737	0.549031	0.531129
	H280	H	0.442920	0.546728	0.534518
	H281	H	0.446727	0.549839	0.522163
	O282	O	0.461296	0.491224	0.533850
	H283	H	0.467024	0.505218	0.517739
	H284	H	0.452937	0.495020	0.531993
	O285	O	0.549590	0.608381	0.506806
	H286	H	0.539531	0.603273	0.496151
	H287	H	0.557610	0.610967	0.505592
	O288	O	0.647550	0.628109	0.519225
	H289	H	0.654729	0.631646	0.534765
	H290	H	0.650196	0.620391	0.534470
	O291	O	0.034307	0.011474	1.069005
	H292	H	0.032903	0.024014	1.070101
	H293	H	0.027595	0.021257	1.074825
	O294	O	0.891754	0.897225	0.084618
	H295	H	0.892291	0.890324	0.096654
	H296	H	0.888579	0.891895	0.092970
	O297	O	0.944394	1.045061	-0.148518
	H298	H	0.936270	1.045693	-0.157942
	H299	H	0.952330	1.030853	-0.152212
	O300	O	0.556755	0.484735	0.408232
	H301	H	0.564118	0.500479	0.411509
	H302	H	0.555044	0.486532	0.410896
	O303	O	0.556186	0.418312	0.377887
	H304	H	0.547514	0.419312	0.390394
	H305	H	0.555541	0.418411	0.371213
	O306	O	0.441314	0.525335	0.573064
	H307	H	0.445831	0.540689	0.565563
	H308	H	0.445340	0.525033	0.565822
	O309	O	0.444991	0.630773	0.399116
	H310	H	0.441187	0.617850	0.395945
	H311	H	0.434370	0.621663	0.407186
	O312	O	1.028471	1.109300	0.948412
	H313	H	1.025436	1.113403	0.938898
	H314	H	1.023916	1.108106	0.944119
	O315	O	0.506916	0.399322	0.503126
	H316	H	0.499194	0.395188	0.508818
	H317	H	0.518898	0.403698	0.507963
	O318	O	0.435224	0.482087	0.469285
	H319	H	0.439115	0.485225	0.460087
	H320	H	0.441897	0.484358	0.473208
	O321	O	0.416035	0.432059	0.502055
	H322	H	0.415466	0.413655	0.493848
	H323	H	0.421412	0.439494	0.500125
	O324	O	-0.136866	0.957468	1.177683
	H325	H	-0.133142	0.947450	1.175555
	H326	H	-0.145811	0.953671	1.182810
	O327	O	-0.064031	0.956417	1.033456
	H328	H	-0.064795	0.957144	1.037708
	H329	H	-0.065252	0.939091	1.030185
	O330	O	-0.037918	0.012314	0.085073
	H331	H	-0.038086	0.018592	0.077879
	H332	H	-0.033667	0.012714	0.091770
	O333	O	0.533928	0.513271	0.563139
	H334	H	0.530807	0.517675	0.563030
	H335	H	0.537145	0.514218	0.565995
	O336	O	0.007279	-0.074591	-0.117049
	H337	H	0.008426	-0.085546	-0.135612
	H338	H	0.018016	-0.077889	-0.126650
	O339	O	-0.071037	-0.021715	0.012376
	H340	H	-0.070403	-0.025864	0.009252
	H341	H	-0.072650	-0.035976	0.011672
	O342	O	0.402894	0.545985	0.503369
	H343	H	0.398768	0.539721	0.504634
	H344	H	0.405186	0.550811	0.496001
	O345	O	-0.029039	0.873837	0.958113
	H346	H	-0.030346	0.873174	0.969658
	H347	H	-0.028346	0.867435	0.961934
	O348	O	0.575115	0.536389	0.452549
	H349	H	0.582172	0.533284	0.470086
	H350	H	0.569918	0.529629	0.454171
	O351	O	0.473419	0.513216	0.367607
	H352	H	0.469700	0.495443	0.382430
	H353	H	0.467469	0.511397	0.359474
	O354	O	0.089769	0.981076	0.005256
	H355	H	0.099485	0.982530	-0.010218
	H356	H	0.091841	0.973916	-0.000502
	O357	O	0.498132	0.461099	0.582509
	H358	H	0.499678	0.459220	0.589850
	H359	H	0.489726	0.471248	0.581292
	O360	O	1.010229	-0.058188	1.033427
	H361	H	1.008091	-0.050886	1.031434
	H362	H	1.015902	-0.057429	1.040209
	O363	O	0.480329	0.432670	0.461763
	H364	H	0.495988	0.441646	0.467452
	H365	H	0.484477	0.428425	0.453066
	O366	O	0.440976	0.620178	0.567322
	H367	H	0.431059	0.634949	0.569434
	H368	H	0.451346	0.614817	0.555709
	O369	O	1.095198	0.000788	-0.006180
	H370	H	1.089261	0.020350	-0.007999
	H371	H	1.101927	0.007048	-0.003486
	O372	O	0.537927	0.544292	0.642112
	H373	H	0.523229	0.537318	0.636891
	H374	H	0.530813	0.555430	0.637545
	O375	O	0.951491	0.151915	0.971582
	H376	H	0.935825	0.165900	0.972980
	H377	H	0.944910	0.136609	0.968521
	O378	O	0.106284	0.932074	0.043389
	H379	H	0.098378	0.926932	0.048774
	H380	H	0.121430	0.933634	0.050618
	O381	O	0.530801	0.493928	0.353929
	H382	H	0.532218	0.496333	0.347925
	H383	H	0.539744	0.502151	0.343599
	O384	O	1.019504	1.108565	-0.037773
	H385	H	1.021316	1.112224	-0.038508
	H386	H	1.016245	1.115987	-0.038892
	O387	O	1.103240	0.015831	1.032779
	H388	H	1.113115	0.017935	1.043434
	H389	H	1.096098	0.025671	1.034304
	O390	O	1.063976	1.011070	-0.143694
	H391	H	1.050480	1.028835	-0.135572
	H392	H	1.069094	0.996345	-0.145359
	O393	O	0.563174	0.322988	0.473093
	H394	H	0.565937	0.305927	0.479284
	H395	H	0.562589	0.315053	0.479563
