data_Molecule from HDF5

_cell_length_a		16.331265
_cell_length_b		16.347831
_cell_length_c		16.318337
_cell_angle_alpha	89.974842
_cell_angle_beta	89.923777
_cell_angle_gamma	89.976423
_symmetry_space_group_name_H-M	'P 1'
_symmetry_Int_Tables_number		1

loop_
	_symmetry_equiv_pos_as_xyz
	x,y,z

loop_
	_atom_site_label
	_atom_site_type_symbol
	_atom_site_fract_x
	_atom_site_fract_y
	_atom_site_fract_z
	H0	H	0.401672	0.836301	0.714018
	H1	H	0.598047	0.163226	0.714712
	H2	H	0.598194	0.837454	0.285392
	H3	H	0.402795	0.163924	0.286226
	H4	H	0.714330	0.402744	0.836837
	H5	H	0.714084	0.597526	0.163314
	H6	H	0.285715	0.598067	0.836670
	H7	H	0.286398	0.402426	0.164153
	H8	H	0.836927	0.714424	0.401523
	H9	H	0.163277	0.713687	0.597710
	H10	H	0.836605	0.285713	0.597765
	H11	H	0.163710	0.286034	0.402742
	H12	H	0.836564	0.401843	0.714601
	H13	H	0.163343	0.597476	0.713668
	H14	H	0.836274	0.597113	0.286341
	H15	H	0.163949	0.401974	0.285389
	H16	H	0.402248	0.714430	0.836857
	H17	H	0.597749	0.713532	0.163536
	H18	H	0.597644	0.286286	0.836565
	H19	H	0.402634	0.286154	0.164042
	H20	H	0.714488	0.837063	0.401693
	H21	H	0.715140	0.162937	0.598712
	H22	H	0.286468	0.836464	0.597137
	H23	H	0.286040	0.163516	0.402662
	H24	H	0.901841	0.337010	0.214822
	H25	H	0.097682	0.663163	0.213405
	H26	H	0.097890	0.337156	0.785734
	H27	H	0.901907	0.663230	0.785478
	H28	H	0.214170	0.902679	0.336037
	H29	H	0.213839	0.098331	0.663771
	H30	H	0.786965	0.097567	0.336282
	H31	H	0.785133	0.901562	0.663145
	H32	H	0.337054	0.214003	0.902136
	H33	H	0.663429	0.213477	0.097848
	H34	H	0.336819	0.785586	0.099034
	H35	H	0.663519	0.785737	0.901934
	H36	H	0.336157	0.903055	0.213824
	H37	H	0.663188	0.096913	0.213129
	H38	H	0.335665	0.096243	0.787714
	H39	H	0.663326	0.901667	0.784891
	H40	H	0.901000	0.216690	0.336823
	H41	H	0.098399	0.215782	0.663012
	H42	H	0.098020	0.786035	0.336484
	H43	H	0.901479	0.785060	0.662783
	H44	H	0.213855	0.336964	0.902871
	H45	H	0.214327	0.662560	0.097683
	H46	H	0.785648	0.336858	0.098372
	H47	H	0.784785	0.663041	0.901669
	H48	H	0.399574	0.116009	0.587992
	H49	H	0.592969	0.884356	0.594613
	H50	H	0.591777	0.118066	0.398344
	H51	H	0.409242	0.884463	0.403934
	H52	H	0.590302	0.406294	0.115639
	H53	H	0.585745	0.595264	0.885874
	H54	H	0.412863	0.600221	0.116585
	H55	H	0.408850	0.405254	0.884586
	H56	H	0.115403	0.591725	0.407565
	H57	H	0.881944	0.595470	0.596440
	H58	H	0.115251	0.405392	0.589119
	H59	H	0.882884	0.406871	0.402013
	H60	H	0.114458	0.411355	0.594716
	H61	H	0.884310	0.594966	0.588479
	H62	H	0.115821	0.592108	0.403506
	H63	H	0.884246	0.403311	0.409542
	H64	H	0.397682	0.594196	0.119135
	H65	H	0.598323	0.598428	0.880573
	H66	H	0.594633	0.403438	0.117915
	H67	H	0.404199	0.406280	0.884083
	H68	H	0.588476	0.113548	0.410734
	H69	H	0.592448	0.884655	0.592928
	H70	H	0.404981	0.118481	0.601797
	H71	H	0.406171	0.885671	0.410351
	H72	H	0.902330	0.616119	0.090251
	H73	H	0.096516	0.384248	0.089115
	H74	H	0.100591	0.617931	0.908350
	H75	H	0.920008	0.388841	0.910698
	H76	H	0.094722	0.901608	0.617174
	H77	H	0.084924	0.094288	0.386283
	H78	H	0.907826	0.098007	0.617028
	H79	H	0.916682	0.906434	0.386347
	H80	H	0.618440	0.090304	0.895774
	H81	H	0.381323	0.088715	0.106300
	H82	H	0.610388	0.915992	0.085416
	H83	H	0.383132	0.907425	0.901266
	H84	H	0.619479	0.908783	0.105034
	H85	H	0.380273	0.107570	0.090910
	H86	H	0.617997	0.103940	0.909902
	H87	H	0.382734	0.900405	0.908640
	H88	H	0.903333	0.090678	0.616501
	H89	H	0.097541	0.099924	0.381420
	H90	H	0.097005	0.909744	0.616216
	H91	H	0.902817	0.899946	0.380695
	H92	H	0.091946	0.617955	0.898608
	H93	H	0.095035	0.382561	0.097127
	H94	H	0.905004	0.617287	0.098064
	H95	H	0.896065	0.384168	0.917223
	H96	H	0.413549	0.112566	0.591069
	H97	H	0.594192	0.884362	0.592969
	H98	H	0.601310	0.117605	0.408328
	H99	H	0.402348	0.882919	0.405009
	H100	H	0.595303	0.408904	0.116371
	H101	H	0.595896	0.585647	0.885280
	H102	H	0.409757	0.584740	0.112873
	H103	H	0.407188	0.409352	0.885142
	H104	H	0.116246	0.595430	0.406119
	H105	H	0.885731	0.588702	0.593944
	H106	H	0.117498	0.403751	0.596618
	H107	H	0.886207	0.411138	0.408046
	H108	H	0.910455	0.614007	0.092389
	H109	H	0.088594	0.385338	0.092655
	H110	H	0.088567	0.613402	0.910803
	H111	H	0.904454	0.379727	0.893515
	H112	H	0.089041	0.907360	0.614417
	H113	H	0.096555	0.085731	0.385028
	H114	H	0.911122	0.091296	0.613493
	H115	H	0.903003	0.916025	0.385321
	H116	H	0.612173	0.085441	0.913465
	H117	H	0.388884	0.085975	0.083323
	H118	H	0.617768	0.894468	0.087211
	H119	H	0.386822	0.909549	0.910307
	C120	C	0.377971	0.007715	0.621686
	C121	C	0.621438	0.992108	0.621629
	C122	C	0.621724	0.008466	0.378276
	C123	C	0.377916	0.992132	0.378200
	C124	C	0.621394	0.378438	0.008667
	C125	C	0.621387	0.621130	0.991825
	C126	C	0.378185	0.621723	0.008291
	C127	C	0.378541	0.378361	0.992569
	C128	C	0.007875	0.621321	0.377828
	C129	C	0.991929	0.621169	0.621175
	C130	C	0.007921	0.378550	0.621693
	C131	C	0.992051	0.378528	0.377757
	C132	C	0.878060	0.508143	0.121760
	C133	C	0.121073	0.491673	0.121202
	C134	C	0.121829	0.508521	0.878103
	C135	C	0.878119	0.492123	0.878493
	C136	C	0.121683	0.878190	0.508026
	C137	C	0.121395	0.121647	0.492004
	C138	C	0.878612	0.122164	0.507991
	C139	C	0.878958	0.878928	0.491847
	C140	C	0.508061	0.121277	0.878682
	C141	C	0.491715	0.121654	0.121367
	C142	C	0.507809	0.878296	0.121407
	C143	C	0.491924	0.877871	0.878377
	C144	C	0.380925	0.885220	0.676505
	C145	C	0.618815	0.114571	0.676814
	C146	C	0.618799	0.885853	0.323350
	C147	C	0.381706	0.115078	0.323896
	C148	C	0.676343	0.381374	0.885368
	C149	C	0.676240	0.618186	0.114764
	C150	C	0.323541	0.618776	0.885623
	C151	C	0.323986	0.381395	0.115305
	C152	C	0.885475	0.676236	0.380917
	C153	C	0.114481	0.676139	0.618399
	C154	C	0.885140	0.323955	0.618457
	C155	C	0.114864	0.323515	0.381137
	C156	C	0.885081	0.381291	0.676573
	C157	C	0.114535	0.618235	0.675913
	C158	C	0.885152	0.617908	0.323649
	C159	C	0.114945	0.380998	0.322925
	C160	C	0.381484	0.676626	0.885662
	C161	C	0.618509	0.675761	0.114839
	C162	C	0.618359	0.323836	0.885423
	C163	C	0.381801	0.323677	0.115223
	C164	C	0.676706	0.885759	0.380988
	C165	C	0.676745	0.114520	0.619084
	C166	C	0.323846	0.885251	0.618251
	C167	C	0.323456	0.114973	0.381465
	C168	C	0.881094	0.385541	0.176647
	C169	C	0.118849	0.614595	0.176031
	C170	C	0.118417	0.385632	0.823935
	C171	C	0.881239	0.614673	0.823480
	C172	C	0.176436	0.881598	0.384978
	C173	C	0.176131	0.118950	0.615069
	C174	C	0.824024	0.119040	0.385232
	C175	C	0.823896	0.881728	0.614587
	C176	C	0.385493	0.176281	0.881710
	C177	C	0.614560	0.175888	0.118550
	C178	C	0.385333	0.823412	0.119218
	C179	C	0.614853	0.823193	0.881154
	C180	C	0.385114	0.881641	0.176499
	C181	C	0.614329	0.118171	0.176098
	C182	C	0.385034	0.117895	0.824554
	C183	C	0.614736	0.880857	0.823227
	C184	C	0.881172	0.177457	0.385317
	C185	C	0.118851	0.177267	0.614665
	C186	C	0.119179	0.823393	0.385166
	C187	C	0.881269	0.823458	0.614395
	C188	C	0.176227	0.385676	0.881659
	C189	C	0.176500	0.614188	0.118634
	C190	C	0.823701	0.385321	0.118626
	C191	C	0.823303	0.614604	0.881277
	C192	C	0.399721	0.093715	0.600077
	C193	C	0.599576	0.906424	0.600007
	C194	C	0.600271	0.094153	0.399741
	C195	C	0.399523	0.906493	0.399975
	C196	C	0.599900	0.400000	0.094316
	C197	C	0.599766	0.599411	0.906174
	C198	C	0.400226	0.599648	0.094297
	C199	C	0.400334	0.400528	0.906454
	C200	C	0.093734	0.599492	0.399442
	C201	C	0.906079	0.599407	0.599353
	C202	C	0.093697	0.400348	0.599985
	C203	C	0.906523	0.400535	0.399907
	C204	C	0.899567	0.593904	0.100023
	C205	C	0.099645	0.406194	0.099637
	C206	C	0.100003	0.594256	0.899599
	C207	C	0.900350	0.406407	0.900646
	C208	C	0.100006	0.899873	0.593784
	C209	C	0.099527	0.099720	0.406487
	C210	C	0.900883	0.099963	0.593578
	C211	C	0.901107	0.901174	0.406225
	C212	C	0.594034	0.099481	0.899916
	C213	C	0.405749	0.100285	0.099751
	C214	C	0.593729	0.900016	0.099073
	C215	C	0.406278	0.899398	0.900251
	Zn216	Zn	0.499811	-0.000242	0.749800
	Zn217	Zn	0.500043	0.000154	0.249566
	Zn218	Zn	0.749841	0.499775	0.000065
	Zn219	Zn	0.249600	0.499813	0.000418
	Zn220	Zn	0.000173	0.749999	0.499813
	Zn221	Zn	0.000365	0.250403	0.500096
	Zn222	Zn	-0.000214	0.499934	0.750221
	Zn223	Zn	0.000290	0.500005	0.249527
	Zn224	Zn	0.500301	0.749485	0.000605
	Zn225	Zn	0.500286	0.249897	0.000400
	Zn226	Zn	0.750182	0.000492	0.499901
	Zn227	Zn	0.249649	0.000032	0.500259
	N228	N	0.414181	0.962477	0.678265
	N229	N	0.585101	0.037502	0.678357
	N230	N	0.585434	0.962965	0.321418
	N231	N	0.414644	0.037686	0.321576
	N232	N	0.678383	0.414567	0.962732
	N233	N	0.678226	0.584932	0.037277
	N234	N	0.321444	0.585273	0.962926
	N235	N	0.321909	0.414795	0.038000
	N236	N	0.962879	0.678391	0.414022
	N237	N	0.037242	0.677974	0.585131
	N238	N	0.962544	0.322103	0.585301
	N239	N	0.037558	0.321918	0.414637
	N240	N	0.962356	0.414650	0.678589
	N241	N	0.037313	0.584743	0.677853
	N242	N	0.962416	0.584586	0.321669
	N243	N	0.037692	0.414380	0.320763
	N244	N	0.414623	0.678397	0.963032
	N245	N	0.585300	0.677739	0.037576
	N246	N	0.584838	0.322060	0.962839
	N247	N	0.415174	0.322089	0.037909
	N248	N	0.678710	0.962990	0.414245
	N249	N	0.678564	0.037335	0.585664
	N250	N	0.322171	0.962301	0.584805
	N251	N	0.321150	0.037707	0.414703
	N252	N	0.914310	0.462656	0.178499
	N253	N	0.085073	0.537679	0.177613
	N254	N	0.085265	0.462919	0.821595
	N255	N	0.914770	0.537449	0.821866
	N256	N	0.178186	0.914857	0.462308
	N257	N	0.177682	0.085036	0.537878
	N258	N	0.822364	0.085440	0.462408
	N259	N	0.822254	0.915511	0.537372
	N260	N	0.462926	0.178477	0.914578
	N261	N	0.537330	0.177989	0.085112
	N262	N	0.462711	0.821166	0.085940
	N263	N	0.537714	0.821504	0.914906
	N264	N	0.462269	0.915132	0.177762
	N265	N	0.537066	0.084939	0.177608
	N266	N	0.462247	0.084166	0.822716
	N267	N	0.537491	0.914238	0.821162
	N268	N	0.914621	0.179335	0.462749
	N269	N	0.085501	0.178989	0.537510
	N270	N	0.085771	0.821457	0.462465
	N271	N	0.914980	0.821959	0.537229
	N272	N	0.178251	0.462923	0.914649
	N273	N	0.178042	0.537053	0.085201
	N274	N	0.821657	0.462621	0.085275
	N275	N	0.821317	0.537440	0.914517
