data_Molecule from HDF5

_cell_length_a		16.336167
_cell_length_b		16.400509
_cell_length_c		16.324121
_cell_angle_alpha	89.992983
_cell_angle_beta	90.244804
_cell_angle_gamma	90.010019
_symmetry_space_group_name_H-M	'P 1'
_symmetry_Int_Tables_number		1

loop_
	_symmetry_equiv_pos_as_xyz
	x,y,z

loop_
	_atom_site_label
	_atom_site_type_symbol
	_atom_site_fract_x
	_atom_site_fract_y
	_atom_site_fract_z
	H0	H	0.388385	0.823342	0.734989
	H1	H	0.593376	0.145420	0.736780
	H2	H	0.593471	0.823911	0.298175
	H3	H	0.386710	0.144770	0.298131
	H4	H	0.705867	0.382703	0.855585
	H5	H	0.708969	0.587769	0.177835
	H6	H	0.268790	0.587867	0.855953
	H7	H	0.270286	0.381453	0.178496
	H8	H	0.829581	0.707358	0.411060
	H9	H	0.150135	0.704297	0.622155
	H10	H	0.827321	0.266918	0.618695
	H11	H	0.149425	0.266841	0.414750
	H12	H	0.826671	0.382981	0.734291
	H13	H	0.149536	0.587706	0.736651
	H14	H	0.828950	0.590387	0.295552
	H15	H	0.149473	0.381716	0.299162
	H16	H	0.383491	0.704203	0.857133
	H17	H	0.593975	0.704396	0.177653
	H18	H	0.590502	0.267250	0.855645
	H19	H	0.385467	0.263966	0.177814
	H20	H	0.708456	0.824484	0.415448
	H21	H	0.706915	0.146341	0.619926
	H22	H	0.272228	0.823110	0.618549
	H23	H	0.272417	0.146158	0.415617
	H24	H	0.885881	0.324811	0.237786
	H25	H	0.093506	0.645295	0.238599
	H26	H	0.086620	0.324421	0.802477
	H27	H	0.884398	0.646558	0.798205
	H28	H	0.205905	0.882353	0.355755
	H29	H	0.205859	0.083736	0.679650
	H30	H	0.768368	0.089542	0.356376
	H31	H	0.772023	0.884575	0.680009
	H32	H	0.327668	0.202403	0.914864
	H33	H	0.650507	0.203021	0.120993
	H34	H	0.327099	0.766448	0.118576
	H35	H	0.648746	0.763353	0.912830
	H36	H	0.327294	0.881226	0.234980
	H37	H	0.650301	0.086696	0.236819
	H38	H	0.327525	0.084437	0.800692
	H39	H	0.652251	0.885015	0.802571
	H40	H	0.886251	0.203619	0.355703
	H41	H	0.089547	0.201362	0.679766
	H42	H	0.092403	0.765372	0.357391
	H43	H	0.887062	0.767003	0.679040
	H44	H	0.205074	0.324663	0.917126
	H45	H	0.209976	0.645401	0.122622
	H46	H	0.770565	0.324059	0.120302
	H47	H	0.769022	0.646146	0.914703
	H48	H	0.403978	0.098212	0.610178
	H49	H	0.583204	0.870485	0.607866
	H50	H	0.574376	0.096028	0.430829
	H51	H	0.390741	0.867520	0.425802
	H52	H	0.587532	0.396767	0.133026
	H53	H	0.578374	0.575601	0.902860
	H54	H	0.396913	0.566576	0.130070
	H55	H	0.391134	0.397960	0.902337
	H56	H	0.102664	0.571796	0.425741
	H57	H	0.874683	0.573583	0.609283
	H58	H	0.101699	0.392982	0.604660
	H59	H	0.874358	0.397887	0.424417
	H60	H	0.103184	0.398757	0.612321
	H61	H	0.873283	0.579771	0.608157
	H62	H	0.104557	0.579049	0.428531
	H63	H	0.873783	0.391505	0.427855
	H64	H	0.407544	0.575617	0.129408
	H65	H	0.577982	0.573542	0.903468
	H66	H	0.574220	0.398299	0.128900
	H67	H	0.403453	0.396614	0.905784
	H68	H	0.582171	0.099744	0.429082
	H69	H	0.582170	0.869430	0.612098
	H70	H	0.396259	0.097640	0.603810
	H71	H	0.401826	0.870409	0.420749
	H72	H	0.895887	0.599317	0.106927
	H73	H	0.077503	0.373245	0.104563
	H74	H	0.077378	0.600830	0.922923
	H75	H	0.896846	0.371411	0.926804
	H76	H	0.073364	0.894404	0.630334
	H77	H	0.084451	0.069610	0.403535
	H78	H	0.906066	0.073264	0.628770
	H79	H	0.900528	0.897464	0.405664
	H80	H	0.604400	0.073661	0.923053
	H81	H	0.373434	0.083132	0.102649
	H82	H	0.604498	0.888716	0.108312
	H83	H	0.370954	0.891381	0.917133
	H84	H	0.600628	0.895581	0.101809
	H85	H	0.378523	0.068481	0.102014
	H86	H	0.605595	0.080785	0.927635
	H87	H	0.374921	0.887011	0.932635
	H88	H	0.899525	0.084805	0.634200
	H89	H	0.071381	0.079134	0.403940
	H90	H	0.083784	0.889141	0.635473
	H91	H	0.900188	0.895213	0.403696
	H92	H	0.077531	0.598913	0.930872
	H93	H	0.083724	0.370895	0.107844
	H94	H	0.901673	0.598535	0.109368
	H95	H	0.896379	0.371640	0.924062
	H96	H	0.395101	0.100551	0.613295
	H97	H	0.578758	0.870935	0.609261
	H98	H	0.576799	0.098169	0.422659
	H99	H	0.400287	0.872250	0.432526
	H100	H	0.577932	0.385577	0.134524
	H101	H	0.576278	0.574988	0.903053
	H102	H	0.395408	0.580271	0.134559
	H103	H	0.396780	0.386687	0.900430
	H104	H	0.100482	0.574012	0.433550
	H105	H	0.875152	0.576132	0.603254
	H106	H	0.105199	0.389559	0.613126
	H107	H	0.876150	0.397321	0.430911
	H108	H	0.900822	0.596578	0.103746
	H109	H	0.077479	0.371524	0.111730
	H110	H	0.083848	0.602199	0.927406
	H111	H	0.898442	0.371470	0.924877
	H112	H	0.084411	0.901105	0.631458
	H113	H	0.085153	0.085132	0.398237
	H114	H	0.892042	0.072373	0.632361
	H115	H	0.898415	0.897254	0.404464
	H116	H	0.602577	0.073873	0.931212
	H117	H	0.372288	0.074493	0.115045
	H118	H	0.603377	0.898260	0.111457
	H119	H	0.377609	0.902640	0.927428
	C120	C	0.368408	-0.007617	0.638940
	C121	C	0.611865	0.976642	0.640198
	C122	C	0.610154	-0.007353	0.396221
	C123	C	0.366968	0.976167	0.395181
	C124	C	0.610172	0.363308	0.025572
	C125	C	0.609906	0.605993	1.008906
	C126	C	0.367341	0.605750	0.025430
	C127	C	0.367027	0.362826	1.009119
	C128	C	-0.002874	0.607090	0.396497
	C129	C	0.980615	0.607063	0.638974
	C130	C	-0.003398	0.363776	0.639282
	C131	C	0.980494	0.364134	0.396266
	C132	C	0.867816	0.492830	0.138677
	C133	C	0.111108	0.477125	0.139687
	C134	C	0.109091	0.494259	0.896910
	C135	C	0.865825	0.477340	0.894562
	C136	C	0.110753	0.863517	0.526040
	C137	C	0.110641	0.107039	0.508792
	C138	C	0.867360	0.107843	0.525589
	C139	C	0.868626	0.865173	0.510442
	C140	C	0.497911	0.106304	0.895949
	C141	C	0.480843	0.106202	0.138522
	C142	C	0.496491	0.863484	0.137871
	C143	C	0.480926	0.862650	0.895371
	C144	C	0.368842	0.871475	0.696005
	C145	C	0.611758	0.097412	0.697596
	C146	C	0.611709	0.871955	0.337818
	C147	C	0.367039	0.096656	0.337152
	C148	C	0.667353	0.363228	0.904005
	C149	C	0.669651	0.607056	0.129727
	C150	C	0.307831	0.607114	0.904551
	C151	C	0.309147	0.362408	0.130236
	C152	C	0.877282	0.667323	0.393263
	C153	C	0.101566	0.665578	0.640891
	C154	C	0.875354	0.306050	0.638319
	C155	C	0.101311	0.305945	0.395701
	C156	C	0.875169	0.363809	0.695901
	C157	C	0.101513	0.607278	0.697763
	C158	C	0.877007	0.608913	0.335939
	C159	C	0.101220	0.363078	0.338051
	C160	C	0.365256	0.664882	0.904949
	C161	C	0.612392	0.665141	0.129612
	C162	C	0.610124	0.305460	0.904209
	C163	C	0.366480	0.304085	0.129987
	C164	C	0.669054	0.872351	0.396135
	C165	C	0.668704	0.097824	0.639394
	C166	C	0.310924	0.871458	0.638330
	C167	C	0.310008	0.097344	0.395544
	C168	C	0.867082	0.372493	0.197657
	C169	C	0.112537	0.597383	0.199019
	C170	C	0.107504	0.372895	0.840340
	C171	C	0.865763	0.598412	0.837357
	C172	C	0.167873	0.863172	0.404482
	C173	C	0.167364	0.104836	0.631126
	C174	C	0.808061	0.108251	0.404538
	C175	C	0.811025	0.865304	0.631660
	C176	C	0.376183	0.163432	0.895678
	C177	C	0.601969	0.164426	0.140091
	C178	C	0.375390	0.805254	0.138024
	C179	C	0.601310	0.803822	0.894721
	C180	C	0.375526	0.862510	0.195969
	C181	C	0.602032	0.106194	0.197532
	C182	C	0.376112	0.105112	0.838653
	C183	C	0.602780	0.863982	0.839368
	C184	C	0.866496	0.165344	0.404185
	C185	C	0.109481	0.162922	0.631078
	C186	C	0.111247	0.804882	0.405310
	C187	C	0.867811	0.806388	0.631068
	C188	C	0.166241	0.372834	0.897304
	C189	C	0.170166	0.597568	0.141153
	C190	C	0.809593	0.372187	0.139319
	C191	C	0.808341	0.598222	0.895441
	C192	C	0.391760	0.076800	0.615817
	C193	C	0.588344	0.892247	0.616504
	C194	C	0.584993	0.076394	0.420479
	C195	C	0.390647	0.891944	0.419351
	C196	C	0.586768	0.386720	0.109898
	C197	C	0.584900	0.581818	0.925058
	C198	C	0.392646	0.581192	0.109433
	C199	C	0.390431	0.386741	0.924673
	C200	C	0.080797	0.582064	0.421888
	C201	C	0.896191	0.583324	0.614139
	C202	C	0.081328	0.386930	0.616554
	C203	C	0.896577	0.388527	0.420559
	C204	C	0.892363	0.576410	0.113828
	C205	C	0.086612	0.393574	0.115231
	C206	C	0.086167	0.578656	0.920289
	C207	C	0.890222	0.393461	0.918393
	C208	C	0.087267	0.887797	0.610459
	C209	C	0.087228	0.084557	0.423951
	C210	C	0.892165	0.083809	0.609889
	C211	C	0.892879	0.889682	0.426440
	C212	C	0.582374	0.082980	0.920131
	C213	C	0.396658	0.082285	0.113733
	C214	C	0.580803	0.887255	0.114074
	C215	C	0.396357	0.886777	0.918828
	Zn216	Zn	0.489631	-0.015458	0.767481
	Zn217	Zn	0.489029	-0.016189	0.266803
	Zn218	Zn	0.738099	0.484508	0.017091
	Zn219	Zn	0.238838	0.485342	0.018091
	Zn220	Zn	-0.010568	0.735798	0.518100
	Zn221	Zn	-0.011267	0.235908	0.517112
	Zn222	Zn	-0.012130	0.486109	0.766912
	Zn223	Zn	-0.010803	0.485248	0.268036
	Zn224	Zn	0.488295	0.734078	0.017597
	Zn225	Zn	0.489121	0.235233	0.017496
	Zn226	Zn	0.739017	-0.014288	0.517425
	Zn227	Zn	0.239139	-0.015611	0.517274
	N228	N	0.403810	0.947785	0.696420
	N229	N	0.576979	0.020987	0.698052
	N230	N	0.575756	0.947920	0.337719
	N231	N	0.401791	0.020279	0.336847
	N232	N	0.667766	0.398196	0.980449
	N233	N	0.668345	0.571086	0.053764
	N234	N	0.309092	0.571093	0.980636
	N235	N	0.309301	0.398316	0.053974
	N236	N	0.952956	0.666277	0.430212
	N237	N	0.025253	0.665538	0.604976
	N238	N	0.951750	0.305944	0.603627
	N239	N	0.025260	0.306488	0.431279
	N240	N	0.951570	0.399084	0.696712
	N241	N	0.025247	0.571701	0.696750
	N242	N	0.952655	0.572171	0.337790
	N243	N	0.025076	0.398717	0.338397
	N244	N	0.401576	0.664110	0.981062
	N245	N	0.575829	0.664621	0.053619
	N246	N	0.575360	0.305224	0.980787
	N247	N	0.401601	0.304248	0.053669
	N248	N	0.668194	0.948318	0.431607
	N249	N	0.668874	0.021613	0.604401
	N250	N	0.310509	0.947788	0.603485
	N251	N	0.309758	0.021172	0.430782
	N252	N	0.902291	0.448559	0.197533
	N253	N	0.076154	0.521686	0.198041
	N254	N	0.072927	0.449326	0.839755
	N255	N	0.900738	0.522199	0.836715
	N256	N	0.167443	0.899102	0.480606
	N257	N	0.168385	0.071012	0.554107
	N258	N	0.808267	0.073413	0.481126
	N259	N	0.811440	0.901226	0.555557
	N260	N	0.453002	0.164604	0.930430
	N261	N	0.525731	0.164549	0.104169
	N262	N	0.451673	0.805735	0.102705
	N263	N	0.524519	0.802857	0.928881
	N264	N	0.451815	0.898066	0.195997
	N265	N	0.525686	0.070733	0.196877
	N266	N	0.452732	0.070486	0.838622
	N267	N	0.526745	0.899905	0.839855
	N268	N	0.902538	0.165144	0.480415
	N269	N	0.075052	0.164601	0.554005
	N270	N	0.076497	0.804983	0.481880
	N271	N	0.902686	0.806130	0.554662
	N272	N	0.167326	0.449259	0.931844
	N273	N	0.169293	0.521864	0.105070
	N274	N	0.809686	0.448149	0.103577
	N275	N	0.808108	0.521834	0.930165
	O276	O	0.328848	0.614991	0.422553
	H277	H	0.322422	0.590975	0.408132
	H278	H	0.350880	0.623838	0.428138
	O279	O	0.612182	0.486490	0.633671
	H280	H	0.604549	0.492739	0.633921
	H281	H	0.631575	0.498878	0.643368
	O282	O	1.059367	0.096037	1.176073
	H283	H	1.044440	0.093418	1.169569
	H284	H	1.061138	0.106195	1.186057
	O285	O	0.471537	0.474653	0.590199
	H286	H	0.467215	0.468874	0.595214
	H287	H	0.449826	0.476438	0.579086
	O288	O	0.901446	1.091862	1.167678
	H289	H	0.908714	1.088944	1.162690
	H290	H	0.894489	1.088946	1.175751
	O291	O	0.507758	1.647240	0.549633
	H292	H	0.506002	1.648686	0.537074
	H293	H	0.508724	1.643011	0.550886
	O294	O	0.304471	0.280384	0.584021
	H295	H	0.306560	0.294189	0.608887
	H296	H	0.279454	0.260392	0.597224
	O297	O	0.404517	0.339153	0.690415
	H298	H	0.393567	0.323821	0.696051
	H299	H	0.399945	0.351817	0.694346
	O300	O	0.542234	0.461774	0.628930
	H301	H	0.531718	0.475891	0.619672
	H302	H	0.548371	0.461555	0.628949
	O303	O	0.686810	0.568406	0.627768
	H304	H	0.694587	0.574194	0.601204
	H305	H	0.708858	0.550100	0.638883
	O306	O	1.052172	1.127359	0.929882
	H307	H	1.035413	1.107485	0.937074
	H308	H	1.045873	1.120337	0.943168
	O309	O	0.659897	0.420585	0.360696
	H310	H	0.664079	0.420657	0.364545
	H311	H	0.669273	0.419248	0.365573
	O312	O	-0.188324	-0.089967	0.144078
	H313	H	-0.193418	-0.103211	0.144356
	H314	H	-0.203401	-0.097642	0.162798
	O315	O	0.475574	0.506979	0.381921
	H316	H	0.475784	0.487766	0.375507
	H317	H	0.471971	0.500536	0.378308
	O318	O	-0.005570	1.040413	1.002792
	H319	H	-0.012696	1.042891	0.992796
	H320	H	0.010972	1.034963	0.992924
	O321	O	0.537680	0.303025	0.411648
	H322	H	0.547123	0.305577	0.413701
	H323	H	0.551339	0.289942	0.416479
	O324	O	0.295808	0.643603	-0.476572
	H325	H	0.285697	0.649992	-0.487151
	H326	H	0.307800	0.649302	-0.487913
	O327	O	0.121988	1.061804	0.152503
	H328	H	0.115952	1.079046	0.151258
	H329	H	0.139375	1.064996	0.171310
	O330	O	0.153776	0.102887	0.948884
	H331	H	0.149112	0.108426	0.962141
	H332	H	0.164762	0.085529	0.946292
	O333	O	-0.043002	-0.064411	1.175665
	H334	H	-0.045296	-0.068277	1.191747
	H335	H	-0.024977	-0.059198	1.169989
	O336	O	0.556462	0.657690	0.418282
	H337	H	0.570958	0.658299	0.419899
	H338	H	0.549094	0.658325	0.408246
	O339	O	0.864512	-0.148771	0.064168
	H340	H	0.871166	-0.145321	0.062501
	H341	H	0.863609	-0.142338	0.049417
	O342	O	-0.093836	0.109318	-0.089992
	H343	H	-0.085232	0.104975	-0.105534
	H344	H	-0.085492	0.114574	-0.089594
	O345	O	0.976495	0.122395	0.979399
	H346	H	0.960017	0.105021	0.974920
	H347	H	0.980246	0.121514	0.984993
	O348	O	0.831366	0.921721	0.057634
	H349	H	0.837831	0.944210	0.063270
	H350	H	0.823413	0.929469	0.057017
	O351	O	0.548682	0.420798	0.335995
	H352	H	0.532612	0.409476	0.333306
	H353	H	0.549821	0.423341	0.351663
	O354	O	0.911318	-0.179686	1.080395
	H355	H	0.923054	-0.188527	1.082270
	H356	H	0.912999	-0.189550	1.084823
	O357	O	0.537175	0.336147	0.592109
	H358	H	0.525913	0.330231	0.594495
	H359	H	0.529816	0.334816	0.606080
	O360	O	1.029901	-0.002366	-0.076309
	H361	H	1.042709	0.007428	-0.071510
	H362	H	1.023543	-0.001660	-0.063200
	O363	O	-0.019700	0.918196	0.867701
	H364	H	-0.008843	0.919511	0.861502
	H365	H	-0.026360	0.920143	0.866622
	O366	O	0.630039	0.474617	0.360072
	H367	H	0.616307	0.469761	0.353246
	H368	H	0.629074	0.482726	0.359327
	O369	O	-0.623741	0.393260	-0.495866
	H370	H	-0.631309	0.372760	-0.474838
	H371	H	-0.630574	0.411428	-0.480542
	O372	O	0.478031	0.626568	0.675988
	H373	H	0.497218	0.627993	0.682303
	H374	H	0.490241	0.636628	0.667594
	O375	O	0.547976	0.642515	0.686547
	H376	H	0.565603	0.641964	0.679515
	H377	H	0.540849	0.651540	0.676879
	O378	O	1.342912	1.379414	-0.314800
	H379	H	1.362783	1.390338	-0.303858
	H380	H	1.340648	1.399691	-0.321815
	O381	O	1.053805	-0.113693	0.102679
	H382	H	1.054392	-0.110060	0.122445
	H383	H	1.059990	-0.111674	0.103920
	O384	O	0.999825	0.809840	-0.053130
	H385	H	1.005511	0.820205	-0.047599
	H386	H	0.977728	0.810956	-0.053642
	O387	O	-0.058653	0.097601	-0.049920
	H388	H	-0.063564	0.098558	-0.051487
	H389	H	-0.065615	0.089095	-0.045160
	O390	O	0.553132	1.361344	-0.418658
	H391	H	0.531467	1.340298	-0.407731
	H392	H	0.553316	1.375812	-0.413099
	O393	O	1.060181	0.892573	1.038829
	H394	H	1.053302	0.893264	1.040151
	H395	H	1.060164	0.889586	1.034828
	O396	O	-0.064448	-0.068408	-0.014041
	H397	H	-0.067794	-0.078846	-0.010553
	H398	H	-0.070683	-0.068824	-0.012088
	O399	O	0.084675	0.998547	0.892519
	H400	H	0.081447	0.984042	0.888777
	H401	H	0.073468	1.001103	0.904835
	O402	O	0.606584	0.517026	0.523211
	H403	H	0.598250	0.518976	0.539106
	H404	H	0.613803	0.512762	0.521483
	O405	O	1.163005	1.025635	0.079004
	H406	H	1.167473	1.021878	0.062859
	H407	H	1.148443	1.034597	0.073600
	O408	O	1.392035	1.500418	-0.647205
	H409	H	1.402743	1.496903	-0.640151
	H410	H	1.387315	1.488279	-0.654702
	O411	O	0.876851	0.026472	0.906326
	H412	H	0.858664	0.046873	0.905501
	H413	H	0.881623	0.013398	0.898035
	O414	O	0.377129	0.590014	0.484742
	H415	H	0.357679	0.593057	0.481882
	H416	H	0.385073	0.598995	0.500540
	O417	O	0.411109	0.393743	0.382207
	H418	H	0.399842	0.386472	0.389833
	H419	H	0.405091	0.385782	0.377778
