data_Molecule from HDF5

_cell_length_a		16.495087
_cell_length_b		16.480311
_cell_length_c		16.432193
_cell_angle_alpha	90.096895
_cell_angle_beta	89.938004
_cell_angle_gamma	90.167214
_symmetry_space_group_name_H-M	'P 1'
_symmetry_Int_Tables_number		1

loop_
	_symmetry_equiv_pos_as_xyz
	x,y,z

loop_
	_atom_site_label
	_atom_site_type_symbol
	_atom_site_fract_x
	_atom_site_fract_y
	_atom_site_fract_z
	H0	H	0.405340	0.854881	0.729029
	H1	H	0.619028	0.169177	0.727025
	H2	H	0.620165	0.853849	0.281717
	H3	H	0.407600	0.168620	0.282369
	H4	H	0.734207	0.406391	0.846771
	H5	H	0.739041	0.622294	0.161824
	H6	H	0.291733	0.617640	0.846597
	H7	H	0.289033	0.402703	0.161076
	H8	H	0.857182	0.733186	0.396764
	H9	H	0.171171	0.734860	0.611903
	H10	H	0.857022	0.288357	0.609875
	H11	H	0.170877	0.287430	0.395961
	H12	H	0.856808	0.404271	0.725909
	H13	H	0.172421	0.616683	0.725995
	H14	H	0.858235	0.619534	0.279470
	H15	H	0.170536	0.402547	0.278870
	H16	H	0.404868	0.736801	0.848743
	H17	H	0.620734	0.734019	0.163551
	H18	H	0.619964	0.289352	0.848135
	H19	H	0.406206	0.289395	0.162764
	H20	H	0.736310	0.853874	0.397038
	H21	H	0.736780	0.168688	0.611434
	H22	H	0.290116	0.854032	0.611587
	H23	H	0.290164	0.168119	0.397095
	H24	H	0.906543	0.353795	0.226315
	H25	H	0.123544	0.666779	0.229394
	H26	H	0.119542	0.352400	0.781670
	H27	H	0.908915	0.668195	0.782104
	H28	H	0.236551	0.903771	0.346079
	H29	H	0.235584	0.117896	0.662809
	H30	H	0.791051	0.117962	0.347043
	H31	H	0.792624	0.905556	0.662424
	H32	H	0.355659	0.234698	0.898118
	H33	H	0.672304	0.233247	0.109917
	H34	H	0.358085	0.785557	0.116254
	H35	H	0.671237	0.791497	0.899753
	H36	H	0.356984	0.904003	0.229415
	H37	H	0.672472	0.117651	0.225866
	H38	H	0.355707	0.118702	0.782948
	H39	H	0.670756	0.907177	0.783460
	H40	H	0.906076	0.235532	0.347673
	H41	H	0.121539	0.234813	0.662502
	H42	H	0.119974	0.788298	0.346151
	H43	H	0.907741	0.789391	0.661953
	H44	H	0.238018	0.353512	0.894942
	H45	H	0.239698	0.666682	0.113276
	H46	H	0.789485	0.354978	0.111611
	H47	H	0.791225	0.668686	0.897057
	H48	H	0.424782	0.120674	0.584761
	H49	H	0.598726	0.902331	0.588746
	H50	H	0.597950	0.120720	0.419557
	H51	H	0.427445	0.897907	0.411057
	H52	H	0.602456	0.425591	0.117305
	H53	H	0.602172	0.597740	0.894209
	H54	H	0.423702	0.596145	0.116998
	H55	H	0.425496	0.425445	0.893563
	H56	H	0.122983	0.591725	0.415669
	H57	H	0.901912	0.601616	0.592376
	H58	H	0.127869	0.418485	0.589793
	H59	H	0.902930	0.428030	0.411410
	H60	H	0.124191	0.426623	0.590590
	H61	H	0.902775	0.597737	0.592413
	H62	H	0.128773	0.602271	0.412560
	H63	H	0.899762	0.416126	0.414700
	H64	H	0.429012	0.596762	0.114565
	H65	H	0.600613	0.601504	0.893898
	H66	H	0.600642	0.423995	0.117989
	H67	H	0.428214	0.421219	0.892618
	H68	H	0.608666	0.123014	0.420880
	H69	H	0.608014	0.897273	0.592770
	H70	H	0.416661	0.127516	0.596787
	H71	H	0.431367	0.903645	0.421867
	H72	H	0.923753	0.625720	0.095085
	H73	H	0.099453	0.399696	0.090656
	H74	H	0.104562	0.621339	0.920637
	H75	H	0.926119	0.397218	0.910945
	H76	H	0.099716	0.920493	0.616478
	H77	H	0.103442	0.091136	0.395115
	H78	H	0.927444	0.102438	0.617776
	H79	H	0.931373	0.917728	0.392039
	H80	H	0.626483	0.103130	0.916416
	H81	H	0.402314	0.100695	0.092233
	H82	H	0.625750	0.925249	0.097604
	H83	H	0.401278	0.923059	0.920541
	H84	H	0.627202	0.919026	0.092633
	H85	H	0.401910	0.098776	0.095677
	H86	H	0.623824	0.100921	0.917903
	H87	H	0.402183	0.925473	0.918741
	H88	H	0.923235	0.097379	0.617113
	H89	H	0.094479	0.101652	0.393736
	H90	H	0.103865	0.923387	0.617305
	H91	H	0.919177	0.917530	0.387652
	H92	H	0.106015	0.624427	0.913056
	H93	H	0.100629	0.400443	0.088451
	H94	H	0.931590	0.622621	0.093323
	H95	H	0.926286	0.401472	0.920389
	H96	H	0.431527	0.123028	0.599359
	H97	H	0.598636	0.897946	0.599163
	H98	H	0.603493	0.125630	0.411391
	H99	H	0.419599	0.898136	0.421796
	H100	H	0.603290	0.423571	0.118521
	H101	H	0.604125	0.600990	0.891941
	H102	H	0.426503	0.600979	0.117211
	H103	H	0.423780	0.421091	0.891045
	H104	H	0.124197	0.601006	0.424728
	H105	H	0.901245	0.599490	0.595532
	H106	H	0.128046	0.423050	0.597807
	H107	H	0.905406	0.423955	0.423049
	H108	H	0.925465	0.621817	0.087456
	H109	H	0.102237	0.399309	0.090286
	H110	H	0.098883	0.620930	0.914314
	H111	H	0.917460	0.397096	0.916659
	H112	H	0.100432	0.925496	0.614656
	H113	H	0.107233	0.103014	0.388828
	H114	H	0.928889	0.097230	0.614366
	H115	H	0.924269	0.928256	0.393217
	H116	H	0.625620	0.100080	0.915028
	H117	H	0.400461	0.102365	0.095446
	H118	H	0.623582	0.925769	0.089882
	H119	H	0.400958	0.923413	0.917095
	C120	C	0.391189	0.019923	0.626889
	C121	C	0.634803	1.003377	0.626138
	C122	C	0.636269	0.019549	0.383205
	C123	C	0.392588	1.003318	0.384068
	C124	C	0.634333	0.391489	0.013452
	C125	C	0.635747	0.633722	0.997022
	C126	C	0.392852	0.631995	0.012504
	C127	C	0.392026	0.389465	0.996198
	C128	C	0.022057	0.631645	0.383609
	C129	C	1.006150	0.632245	0.626231
	C130	C	0.022719	0.389670	0.625380
	C131	C	1.005873	0.389209	0.382538
	C132	C	0.892684	0.519985	0.125580
	C133	C	0.135270	0.502866	0.124677
	C134	C	0.135750	0.518420	0.882666
	C135	C	0.891616	0.502656	0.882775
	C136	C	0.134717	0.889792	0.512155
	C137	C	0.135375	0.132515	0.496567
	C138	C	0.893235	0.132045	0.512351
	C139	C	0.892294	0.889024	0.495431
	C140	C	0.521363	0.133986	0.883691
	C141	C	0.505743	0.133706	0.126963
	C142	C	0.522331	0.889790	0.127210
	C143	C	0.505061	0.891070	0.884733
	C144	C	0.387810	0.901820	0.688148
	C145	C	0.637224	0.121968	0.686505
	C146	C	0.638255	0.901199	0.322126
	C147	C	0.389427	0.121264	0.322543
	C148	C	0.694268	0.388756	0.894536
	C149	C	0.697996	0.638660	0.114741
	C150	C	0.331371	0.635799	0.894440
	C151	C	0.329964	0.385378	0.114178
	C152	C	0.904207	0.692749	0.379610
	C153	C	0.124223	0.693843	0.629448
	C154	C	0.904296	0.328731	0.628042
	C155	C	0.123872	0.327994	0.378304
	C156	C	0.904061	0.386639	0.685529
	C157	C	0.124654	0.635074	0.686606
	C158	C	0.904772	0.635802	0.321072
	C159	C	0.123487	0.385364	0.319951
	C160	C	0.387962	0.695029	0.895442
	C161	C	0.638617	0.694427	0.115778
	C162	C	0.637237	0.330252	0.895162
	C163	C	0.388462	0.329027	0.115018
	C164	C	0.696380	0.901055	0.379468
	C165	C	0.696003	0.121465	0.629107
	C166	C	0.330296	0.901540	0.629830
	C167	C	0.330856	0.120979	0.379719
	C168	C	0.888782	0.401463	0.186123
	C169	C	0.140314	0.620118	0.187765
	C170	C	0.137917	0.399862	0.821699
	C171	C	0.890225	0.620961	0.822065
	C172	C	0.195827	0.886319	0.393501
	C173	C	0.196095	0.136015	0.614992
	C174	C	0.831588	0.135852	0.394288
	C175	C	0.832346	0.886991	0.614675
	C176	C	0.403167	0.194460	0.880610
	C177	C	0.624746	0.193652	0.128515
	C178	C	0.404989	0.826896	0.132895
	C179	C	0.623357	0.830735	0.881192
	C180	C	0.404219	0.886079	0.189106
	C181	C	0.624659	0.135992	0.186424
	C182	C	0.403154	0.136779	0.822699
	C183	C	0.623257	0.888644	0.823404
	C184	C	0.889064	0.194230	0.394446
	C185	C	0.138928	0.194245	0.614921
	C186	C	0.138095	0.828484	0.393598
	C187	C	0.889792	0.829207	0.614523
	C188	C	0.197017	0.400392	0.878210
	C189	C	0.198436	0.619989	0.130028
	C190	C	0.830345	0.401928	0.129186
	C191	C	0.831871	0.621247	0.879725
	C192	C	0.417037	0.102242	0.601081
	C193	C	0.609043	0.920639	0.600678
	C194	C	0.610824	0.101637	0.409726
	C195	C	0.418588	0.921173	0.410673
	C196	C	0.609228	0.417057	0.096390
	C197	C	0.609558	0.607686	0.914747
	C198	C	0.418836	0.605593	0.094773
	C199	C	0.418298	0.415311	0.913763
	C200	C	0.103909	0.605622	0.410025
	C201	C	0.923558	0.606800	0.600750
	C202	C	0.105089	0.415260	0.600121
	C203	C	0.924233	0.415200	0.408809
	C204	C	0.919388	0.601954	0.099461
	C205	C	0.108404	0.421306	0.097729
	C206	C	0.110477	0.600771	0.908685
	C207	C	0.916273	0.420080	0.908412
	C208	C	0.108844	0.915660	0.594465
	C209	C	0.109157	0.106161	0.414041
	C210	C	0.919009	0.106403	0.594772
	C211	C	0.917562	0.913981	0.412690
	C212	C	0.603768	0.108616	0.909215
	C213	C	0.423274	0.108118	0.101794
	C214	C	0.603925	0.915928	0.100930
	C215	C	0.423033	0.916607	0.911193
	Zn216	Zn	0.513010	0.012018	0.755453
	Zn217	Zn	0.514310	0.011619	0.255314
	Zn218	Zn	0.763573	0.512014	0.005246
	Zn219	Zn	0.263996	0.510131	0.004200
	Zn220	Zn	0.013815	0.760844	0.504062
	Zn221	Zn	0.014408	0.260964	0.504473
	Zn222	Zn	0.014236	0.510101	0.754659
	Zn223	Zn	0.013945	0.511118	0.253907
	Zn224	Zn	0.514037	0.761577	0.005790
	Zn225	Zn	0.513459	0.262152	0.005276
	Zn226	Zn	0.764518	0.010704	0.504546
	Zn227	Zn	0.263388	0.010914	0.504511
	N228	N	0.424683	0.976677	0.686728
	N229	N	0.599859	0.047494	0.684669
	N230	N	0.601446	0.975940	0.324351
	N231	N	0.427173	0.047070	0.325191
	N232	N	0.692395	0.426442	0.969117
	N233	N	0.696699	0.601818	0.039659
	N234	N	0.334126	0.597350	0.968608
	N235	N	0.331999	0.422118	0.039195
	N236	N	0.978202	0.690269	0.417941
	N237	N	0.049371	0.692490	0.592727
	N238	N	0.979058	0.330621	0.591173
	N239	N	0.049893	0.330109	0.416545
	N240	N	0.978724	0.423738	0.684121
	N241	N	0.050110	0.597671	0.684835
	N242	N	0.979051	0.598482	0.323463
	N243	N	0.049157	0.422708	0.322313
	N244	N	0.425386	0.692853	0.969979
	N245	N	0.600533	0.691400	0.041494
	N246	N	0.600532	0.332059	0.970125
	N247	N	0.426315	0.331358	0.040539
	N248	N	0.695343	0.975733	0.416580
	N249	N	0.694479	0.046541	0.592014
	N250	N	0.332028	0.976089	0.592694
	N251	N	0.332727	0.046421	0.417098
	N252	N	0.926627	0.475742	0.184144
	N253	N	0.101671	0.546220	0.184503
	N254	N	0.100808	0.474369	0.824090
	N255	N	0.926597	0.546149	0.823903
	N256	N	0.193968	0.923586	0.468328
	N257	N	0.193970	0.098433	0.540266
	N258	N	0.834310	0.097682	0.468492
	N259	N	0.833668	0.923306	0.539526
	N260	N	0.477655	0.192860	0.917835
	N261	N	0.549582	0.192694	0.092508
	N262	N	0.479247	0.829053	0.095122
	N263	N	0.548646	0.831786	0.918293
	N264	N	0.478162	0.924588	0.185941
	N265	N	0.549539	0.099629	0.185842
	N266	N	0.477655	0.099699	0.824553
	N267	N	0.548508	0.925177	0.825159
	N268	N	0.926939	0.191792	0.468707
	N269	N	0.101994	0.192296	0.540080
	N270	N	0.100794	0.830374	0.468341
	N271	N	0.926546	0.830344	0.539419
	N272	N	0.195805	0.475153	0.915486
	N273	N	0.195537	0.545997	0.091798
	N274	N	0.832404	0.476846	0.092380
	N275	N	0.832496	0.546524	0.916780
	O276	O	0.687461	0.694475	0.693635
	H277	H	0.680253	0.676564	0.687184
	H278	H	0.676538	0.691088	0.693096
	O279	O	0.810835	-0.196894	1.026874
	H280	H	0.805183	-0.211432	1.014625
	H281	H	0.826252	-0.207650	1.009464
	O282	O	0.543001	0.293704	0.283102
	H283	H	0.530969	0.296267	0.307332
	H284	H	0.545893	0.256827	0.250168
	O285	O	0.537830	0.553463	0.495927
	H286	H	0.526717	0.557059	0.491179
	H287	H	0.542083	0.568457	0.491858
	O288	O	1.229451	1.034856	0.209208
	H289	H	1.246250	1.027756	0.239982
	H290	H	1.215881	1.011302	0.197184
	O291	O	0.718128	0.312062	0.490554
	H292	H	0.733420	0.299078	0.496133
	H293	H	0.712682	0.337948	0.494842
	O294	O	0.037328	-0.005174	1.216404
	H295	H	0.030219	0.014474	1.211819
	H296	H	0.040187	-0.025101	1.212999
	O297	O	0.303358	0.719772	0.484345
	H298	H	0.317271	0.723748	0.460361
	H299	H	0.285963	0.729794	0.483566
	O300	O	1.234104	0.956300	1.053790
	H301	H	1.229598	0.941254	1.047222
	H302	H	1.233654	0.971750	1.053676
	O303	O	0.430956	0.322882	0.431197
	H304	H	0.435159	0.323444	0.438290
	H305	H	0.418952	0.313769	0.449153
	O306	O	0.498117	0.301803	0.641026
	H307	H	0.497144	0.308144	0.650726
	H308	H	0.485046	0.285930	0.635571
	O309	O	0.425423	0.422026	0.302592
	H310	H	0.431520	0.422051	0.307098
	H311	H	0.431163	0.419349	0.309187
	O312	O	-0.001816	1.050172	1.202853
	H313	H	-0.007400	1.047036	1.193428
	H314	H	0.013576	1.042424	1.206512
	O315	O	0.697695	0.336079	0.327865
	H316	H	0.665466	0.333062	0.335436
	H317	H	0.697251	0.339645	0.350117
	O318	O	1.017165	-0.198017	-0.157908
	H319	H	1.038124	-0.199952	-0.163883
	H320	H	1.021612	-0.210740	-0.165724
	O321	O	-0.140094	-0.052380	-0.167600
	H322	H	-0.136367	-0.059761	-0.165379
	H323	H	-0.135298	-0.047120	-0.174468
	O324	O	0.627395	0.367706	0.563775
	H325	H	0.622019	0.391794	0.553892
	H326	H	0.616631	0.356983	0.577330
	O327	O	0.307500	0.307265	0.530102
	H328	H	0.306988	0.322537	0.520500
	H329	H	0.282492	0.292584	0.529030
	O330	O	-0.127335	1.127925	0.075179
	H331	H	-0.123868	1.139863	0.077718
	H332	H	-0.137308	1.106187	0.072434
	O333	O	0.641167	0.448737	0.576107
	H334	H	0.648578	0.471997	0.587681
	H335	H	0.645202	0.458755	0.585452
	O336	O	-0.883683	-0.054772	1.025151
	H337	H	-0.892872	-0.062990	1.034124
	H338	H	-0.888531	-0.039963	1.031646
	O339	O	0.035877	1.221510	1.213123
	H340	H	0.022776	1.228521	1.206444
	H341	H	0.047499	1.233086	1.223886
	O342	O	-0.093400	0.888755	0.969686
	H343	H	-0.093111	0.876558	0.983792
	H344	H	-0.070390	0.886619	0.961605
	O345	O	1.168252	0.797710	-0.074210
	H346	H	1.184723	0.778608	-0.095549
	H347	H	1.167439	0.787923	-0.076627
	O348	O	0.435496	0.562244	0.480313
	H349	H	0.444508	0.570650	0.474210
	H350	H	0.449677	0.577425	0.481336
	O351	O	0.399140	0.546212	0.592816
	H352	H	0.409229	0.530786	0.606858
	H353	H	0.394827	0.545965	0.590787
	O354	O	-0.105478	1.020151	-0.005995
	H355	H	-0.106067	1.023646	-0.016043
	H356	H	-0.108536	1.004808	-0.013801
	O357	O	-0.162876	-0.171424	1.188152
	H358	H	-0.171758	-0.133718	1.189150
	H359	H	-0.167257	-0.180536	1.143961
	O360	O	0.380599	0.706158	0.406038
	H361	H	0.421770	0.709829	0.390744
	H362	H	0.381858	0.679537	0.405830
	O363	O	0.116630	-0.155234	1.021751
	H364	H	0.106336	-0.130150	1.045924
	H365	H	0.145075	-0.159767	1.012197
	O366	O	0.220956	0.046602	-0.109360
	H367	H	0.211183	0.067601	-0.114045
	H368	H	0.227759	0.057885	-0.097566
	O369	O	0.576877	0.567207	0.299609
	H370	H	0.570618	0.564103	0.295449
	H371	H	0.599749	0.563472	0.309565
	O372	O	1.043967	0.053413	0.819430
	H373	H	1.048351	0.057253	0.823719
	H374	H	1.036977	0.055821	0.813077
	O375	O	0.326643	0.384122	0.696108
	H376	H	0.317152	0.407860	0.699768
	H377	H	0.312337	0.375346	0.673051
	O378	O	0.712670	0.647684	0.471999
	H379	H	0.705148	0.659223	0.467677
	H380	H	0.712877	0.644216	0.461084
	O381	O	0.317111	0.474096	0.665034
	H382	H	0.308877	0.492127	0.646053
	H383	H	0.326730	0.480830	0.673755
	O384	O	0.307762	0.526444	0.299566
	H385	H	0.302761	0.513649	0.292710
	H386	H	0.312014	0.514390	0.295089
	O387	O	0.226280	0.226373	1.027436
	H388	H	0.210547	0.226950	1.051880
	H389	H	0.251750	0.257290	1.030251
	O390	O	0.062494	0.222000	-0.042531
	H391	H	0.071516	0.228456	-0.021643
	H392	H	0.041389	0.217026	-0.048403
	O393	O	1.198616	1.197010	1.191183
	H394	H	1.168999	1.182710	1.200059
	H395	H	1.210532	1.167964	1.178923
	O396	O	0.516860	-0.272670	0.411526
	H397	H	0.510684	-0.269323	0.417539
	H398	H	0.491666	-0.266712	0.400194
	O399	O	0.487205	-0.394346	0.367985
	H400	H	0.485786	-0.399221	0.383590
	H401	H	0.492914	-0.412783	0.359988
	O402	O	0.820964	1.206703	0.814854
	H403	H	0.804999	1.211186	0.813513
	H404	H	0.842437	1.195206	0.816863
	O405	O	0.906929	1.048153	-0.192847
	H406	H	0.914643	1.072999	-0.187190
	H407	H	0.912445	1.043567	-0.198478
	O408	O	0.960621	-0.145565	-0.014369
	H409	H	0.967975	-0.140081	-0.025523
	H410	H	0.981118	-0.139209	-0.015577
	O411	O	0.890640	1.225629	-0.113681
	H412	H	0.868669	1.214966	-0.126874
	H413	H	0.871861	1.255574	-0.139794
	O414	O	-0.193396	-0.011983	0.209637
	H415	H	-0.198581	-0.003725	0.235148
	H416	H	-0.182261	-0.004019	0.203415
	O417	O	0.505328	0.488861	0.649830
	H418	H	0.509638	0.487662	0.650439
	H419	H	0.528307	0.505384	0.657322
	O420	O	-0.005619	-0.163413	0.213445
	H421	H	-0.018016	-0.176758	0.239747
	H422	H	-0.042329	-0.160573	0.196135
	O423	O	0.473295	0.667743	0.684836
	H424	H	0.466460	0.656993	0.682357
	H425	H	0.469629	0.677657	0.676436
	O426	O	0.715532	0.534310	0.719557
	H427	H	0.726367	0.538495	0.719087
	H428	H	0.719614	0.525269	0.734063
	O429	O	0.618550	0.345944	0.662900
	H430	H	0.607344	0.347654	0.672127
	H431	H	0.612767	0.343626	0.646043
	O432	O	0.727576	0.489770	0.294772
	H433	H	0.724471	0.470260	0.303523
	H434	H	0.752467	0.484322	0.268261
	O435	O	0.486358	0.625923	0.394353
	H436	H	0.503825	0.595107	0.388907
	H437	H	0.485683	0.647414	0.366502
	O438	O	0.125789	-0.007137	-0.210724
	H439	H	0.121191	0.011689	-0.203413
	H440	H	0.154427	-0.016031	-0.238309
	O441	O	0.969067	0.087179	-0.115180
	H442	H	0.983069	0.071115	-0.094219
	H443	H	0.967451	0.092791	-0.120465
	O444	O	0.195458	0.825515	0.824535
	H445	H	0.191304	0.832051	0.827643
	H446	H	0.210377	0.856992	0.831238
	O447	O	-0.098522	1.188724	0.017261
	H448	H	-0.109719	1.191970	0.024008
	H449	H	-0.104709	1.167723	0.019770
	O450	O	0.623640	0.659820	0.568266
	H451	H	0.641906	0.661899	0.567308
	H452	H	0.629009	0.675247	0.582752
	O453	O	0.437849	0.656917	0.632695
	H454	H	0.431199	0.677678	0.639475
	H455	H	0.436476	0.650084	0.622009
