data_Molecule from HDF5

_cell_length_a		16.426698
_cell_length_b		16.440864
_cell_length_c		16.294113
_cell_angle_alpha	90.060848
_cell_angle_beta	89.932053
_cell_angle_gamma	89.641540
_symmetry_space_group_name_H-M	'P 1'
_symmetry_Int_Tables_number		1

loop_
	_symmetry_equiv_pos_as_xyz
	x,y,z

loop_
	_atom_site_label
	_atom_site_type_symbol
	_atom_site_fract_x
	_atom_site_fract_y
	_atom_site_fract_z
	H0	H	0.396830	0.836551	0.715195
	H1	H	0.598557	0.156599	0.716420
	H2	H	0.599135	0.835969	0.279533
	H3	H	0.391385	0.156510	0.277709
	H4	H	0.719484	0.390153	0.838221
	H5	H	0.714806	0.598329	0.159186
	H6	H	0.275786	0.600663	0.837907
	H7	H	0.277481	0.392632	0.159794
	H8	H	0.837712	0.716284	0.395404
	H9	H	0.155560	0.715337	0.603891
	H10	H	0.835284	0.278322	0.601654
	H11	H	0.156199	0.274022	0.394711
	H12	H	0.836477	0.394353	0.718354
	H13	H	0.156764	0.596082	0.716951
	H14	H	0.835984	0.596895	0.281660
	H15	H	0.156890	0.390903	0.279596
	H16	H	0.392295	0.715979	0.837629
	H17	H	0.598807	0.715290	0.159159
	H18	H	0.602603	0.274671	0.837781
	H19	H	0.391596	0.275327	0.158215
	H20	H	0.718110	0.837445	0.393829
	H21	H	0.715557	0.156663	0.601759
	H22	H	0.278766	0.836940	0.601916
	H23	H	0.273299	0.154900	0.392246
	H24	H	0.894832	0.335129	0.217906
	H25	H	0.096649	0.656148	0.216938
	H26	H	0.102125	0.336337	0.778273
	H27	H	0.893432	0.654799	0.780494
	H28	H	0.218368	0.890454	0.337635
	H29	H	0.214338	0.097485	0.659925
	H30	H	0.778785	0.099808	0.336762
	H31	H	0.779820	0.896303	0.659993
	H32	H	0.337758	0.218840	0.892806
	H33	H	0.656165	0.216278	0.102176
	H34	H	0.337615	0.776970	0.103525
	H35	H	0.655872	0.776101	0.894321
	H36	H	0.337871	0.892789	0.220008
	H37	H	0.657240	0.099304	0.216742
	H38	H	0.336785	0.098956	0.780601
	H39	H	0.658306	0.896227	0.781908
	H40	H	0.893028	0.215485	0.337652
	H41	H	0.097602	0.213260	0.660413
	H42	H	0.100509	0.776456	0.337426
	H43	H	0.895613	0.779633	0.660133
	H44	H	0.221171	0.337737	0.891504
	H45	H	0.214818	0.655854	0.103180
	H46	H	0.775512	0.336987	0.104698
	H47	H	0.776030	0.654919	0.895636
	H48	H	0.400322	0.110702	0.582590
	H49	H	0.583274	0.885723	0.584970
	H50	H	0.591810	0.111342	0.408551
	H51	H	0.406269	0.882246	0.405311
	H52	H	0.592080	0.409011	0.113807
	H53	H	0.583445	0.586902	0.884531
	H54	H	0.406717	0.579715	0.109951
	H55	H	0.409308	0.410299	0.885944
	H56	H	0.112110	0.584071	0.402115
	H57	H	0.884093	0.581183	0.591671
	H58	H	0.105455	0.405293	0.579364
	H59	H	0.884184	0.406306	0.409793
	H60	H	0.109759	0.410387	0.593839
	H61	H	0.880156	0.592275	0.592069
	H62	H	0.111852	0.590617	0.411405
	H63	H	0.882739	0.406136	0.406487
	H64	H	0.410858	0.592308	0.112512
	H65	H	0.588335	0.588186	0.881783
	H66	H	0.581594	0.412339	0.108083
	H67	H	0.409824	0.407528	0.885637
	H68	H	0.585514	0.111393	0.403135
	H69	H	0.595606	0.882416	0.583899
	H70	H	0.403271	0.113029	0.594988
	H71	H	0.413658	0.886261	0.408504
	H72	H	0.904950	0.610358	0.090662
	H73	H	0.085240	0.384621	0.083256
	H74	H	0.084395	0.608740	0.907180
	H75	H	0.912785	0.383199	0.909247
	H76	H	0.093185	0.907134	0.614284
	H77	H	0.085806	0.085648	0.384109
	H78	H	0.910870	0.076818	0.608279
	H79	H	0.910038	0.903480	0.383787
	H80	H	0.610712	0.085699	0.907018
	H81	H	0.384005	0.089401	0.081901
	H82	H	0.610228	0.906559	0.088682
	H83	H	0.379871	0.901621	0.903766
	H84	H	0.610663	0.902340	0.087519
	H85	H	0.385837	0.082170	0.086698
	H86	H	0.611376	0.088156	0.907084
	H87	H	0.383153	0.905250	0.911914
	H88	H	0.911658	0.096429	0.613537
	H89	H	0.086211	0.084873	0.383943
	H90	H	0.083756	0.908304	0.610229
	H91	H	0.905083	0.904515	0.382351
	H92	H	0.086965	0.608225	0.911856
	H93	H	0.093382	0.380674	0.087031
	H94	H	0.907516	0.608265	0.088458
	H95	H	0.904928	0.383399	0.914463
	H96	H	0.411717	0.108160	0.586958
	H97	H	0.588957	0.881199	0.595088
	H98	H	0.584814	0.108253	0.410901
	H99	H	0.406846	0.884762	0.413746
	H100	H	0.583138	0.400733	0.112463
	H101	H	0.588065	0.582880	0.884635
	H102	H	0.398517	0.588769	0.115875
	H103	H	0.407316	0.409317	0.885193
	H104	H	0.108178	0.580011	0.412291
	H105	H	0.885200	0.588906	0.581898
	H106	H	0.113081	0.395572	0.589187
	H107	H	0.882498	0.403363	0.409417
	H108	H	0.904010	0.607776	0.087822
	H109	H	0.085498	0.382057	0.092342
	H110	H	0.089630	0.610354	0.907274
	H111	H	0.905357	0.379670	0.905863
	H112	H	0.087518	0.899492	0.613683
	H113	H	0.085002	0.084927	0.384507
	H114	H	0.894002	0.085685	0.616497
	H115	H	0.908182	0.908753	0.384366
	H116	H	0.610592	0.086913	0.908950
	H117	H	0.382665	0.089092	0.090661
	H118	H	0.609290	0.905736	0.084814
	H119	H	0.382927	0.910468	0.903734
	C120	C	0.375292	0.005131	0.619321
	C121	C	0.618631	0.988644	0.618970
	C122	C	0.618849	0.004755	0.376129
	C123	C	0.375437	0.988938	0.376509
	C124	C	0.618437	0.374785	0.006178
	C125	C	0.617252	0.616927	0.990071
	C126	C	0.374200	0.618394	0.006741
	C127	C	0.376224	0.376110	0.990833
	C128	C	0.005172	0.616556	0.377606
	C129	C	0.988434	0.617535	0.620223
	C130	C	0.004168	0.373692	0.620026
	C131	C	0.988375	0.373210	0.376869
	C132	C	0.874836	0.503426	0.120849
	C133	C	0.118141	0.487552	0.119693
	C134	C	0.119034	0.503898	0.876851
	C135	C	0.875653	0.487272	0.878052
	C136	C	0.119384	0.873474	0.506891
	C137	C	0.116922	0.116582	0.490381
	C138	C	0.874767	0.117773	0.506449
	C139	C	0.876727	0.875353	0.489829
	C140	C	0.505679	0.119039	0.876179
	C141	C	0.488964	0.118223	0.118737
	C142	C	0.504981	0.874614	0.119388
	C143	C	0.487952	0.874674	0.875948
	C144	C	0.376830	0.884700	0.676704
	C145	C	0.617495	0.108895	0.677242
	C146	C	0.618888	0.884381	0.318233
	C147	C	0.372939	0.108468	0.317026
	C148	C	0.678858	0.372211	0.885882
	C149	C	0.675446	0.617490	0.111075
	C150	C	0.315706	0.619255	0.885744
	C151	C	0.317004	0.374185	0.111424
	C152	C	0.885270	0.676321	0.376274
	C153	C	0.108045	0.675731	0.622237
	C154	C	0.883562	0.316851	0.621313
	C155	C	0.108262	0.313417	0.375583
	C156	C	0.884099	0.374646	0.679146
	C157	C	0.108597	0.616321	0.678405
	C158	C	0.884307	0.616645	0.320139
	C159	C	0.108718	0.371699	0.318256
	C160	C	0.373670	0.676497	0.885620
	C161	C	0.617947	0.675833	0.110908
	C162	C	0.620651	0.315034	0.885582
	C163	C	0.373960	0.315797	0.110695
	C164	C	0.678086	0.885007	0.375001
	C165	C	0.675977	0.108906	0.620055
	C166	C	0.317855	0.884873	0.620487
	C167	C	0.314250	0.107672	0.374250
	C168	C	0.875060	0.383395	0.178990
	C169	C	0.117070	0.607929	0.178628
	C170	C	0.120810	0.384098	0.817714
	C171	C	0.874341	0.607096	0.819647
	C172	C	0.178405	0.871850	0.385793
	C173	C	0.175214	0.116836	0.611563
	C174	C	0.817210	0.118742	0.385226
	C175	C	0.819062	0.876401	0.611603
	C176	C	0.385512	0.178673	0.874832
	C177	C	0.608581	0.177095	0.121007
	C178	C	0.385168	0.816356	0.121805
	C179	C	0.608333	0.815877	0.875434
	C180	C	0.385536	0.873967	0.179864
	C181	C	0.609197	0.118223	0.177558
	C182	C	0.384927	0.119136	0.818710
	C183	C	0.609495	0.875586	0.819564
	C184	C	0.874207	0.176278	0.385782
	C185	C	0.117020	0.174202	0.611896
	C186	C	0.119991	0.814834	0.385812
	C187	C	0.876795	0.818661	0.611747
	C188	C	0.180142	0.384830	0.874185
	C189	C	0.175826	0.607839	0.121828
	C190	C	0.815700	0.384202	0.122713
	C191	C	0.815982	0.607093	0.876748
	C192	C	0.398385	0.088858	0.595142
	C193	C	0.595838	0.904774	0.594717
	C194	C	0.594331	0.088450	0.400576
	C195	C	0.401257	0.905852	0.401905
	C196	C	0.592930	0.399927	0.089705
	C197	C	0.593460	0.592751	0.905517
	C198	C	0.398412	0.593995	0.090978
	C199	C	0.401436	0.401695	0.907321
	C200	C	0.088853	0.592186	0.401686
	C201	C	0.904697	0.594029	0.595573
	C202	C	0.087574	0.396929	0.594955
	C203	C	0.904813	0.398047	0.401257
	C204	C	0.898629	0.587130	0.096226
	C205	C	0.094876	0.404167	0.094730
	C206	C	0.094144	0.587272	0.901647
	C207	C	0.900523	0.403716	0.902721
	C208	C	0.095373	0.898051	0.590971
	C209	C	0.092666	0.092232	0.406083
	C210	C	0.898480	0.093373	0.591048
	C211	C	0.900729	0.898903	0.405276
	C212	C	0.589149	0.094225	0.900754
	C213	C	0.405725	0.094007	0.093579
	C214	C	0.588346	0.898034	0.094250
	C215	C	0.403856	0.898769	0.899665
	Zn216	Zn	0.496804	-0.002914	0.747911
	Zn217	Zn	0.496868	-0.002803	0.247220
	Zn218	Zn	0.746579	0.495604	-0.001206
	Zn219	Zn	0.246816	0.496346	-0.001052
	Zn220	Zn	-0.002817	0.746072	0.498648
	Zn221	Zn	-0.004193	0.245124	0.498498
	Zn222	Zn	-0.003455	0.495582	0.748458
	Zn223	Zn	-0.002810	0.495006	0.248652
	Zn224	Zn	0.496263	0.745935	-0.002199
	Zn225	Zn	0.497152	0.246963	-0.002045
	Zn226	Zn	0.747758	-0.003282	0.497993
	Zn227	Zn	0.246326	-0.004343	0.498233
	N228	N	0.411601	0.960446	0.676276
	N229	N	0.582374	0.033207	0.676437
	N230	N	0.583037	0.959947	0.318651
	N231	N	0.410337	0.033463	0.318324
	N232	N	0.677551	0.408787	0.961679
	N233	N	0.675018	0.581428	0.034851
	N234	N	0.315702	0.583899	0.962185
	N235	N	0.318075	0.410740	0.035586
	N236	N	0.961435	0.676443	0.411091
	N237	N	0.032307	0.676563	0.586841
	N238	N	0.959161	0.316011	0.585244
	N239	N	0.032380	0.314275	0.411374
	N240	N	0.960132	0.408970	0.678603
	N241	N	0.033109	0.580735	0.677145
	N242	N	0.959766	0.580002	0.320891
	N243	N	0.033311	0.408329	0.319220
	N244	N	0.409307	0.676063	0.961840
	N245	N	0.582303	0.675236	0.034671
	N246	N	0.583879	0.316545	0.961345
	N247	N	0.410276	0.317074	0.034730
	N248	N	0.678213	0.961053	0.410216
	N249	N	0.676799	0.033126	0.584551
	N250	N	0.316611	0.960868	0.585450
	N251	N	0.315570	0.032147	0.410269
	N252	N	0.910880	0.458805	0.177961
	N253	N	0.082136	0.532224	0.177611
	N254	N	0.083470	0.459136	0.819172
	N255	N	0.910754	0.531561	0.820321
	N256	N	0.178307	0.907511	0.462131
	N257	N	0.175244	0.081693	0.534910
	N258	N	0.817459	0.083031	0.461398
	N259	N	0.818750	0.910999	0.534685
	N260	N	0.461811	0.179026	0.909526
	N261	N	0.532883	0.177108	0.085107
	N262	N	0.460456	0.816576	0.085002
	N263	N	0.531682	0.814974	0.909574
	N264	N	0.461073	0.909541	0.178409
	N265	N	0.533784	0.082373	0.176335
	N266	N	0.460600	0.083056	0.819358
	N267	N	0.533645	0.911206	0.819506
	N268	N	0.909035	0.175987	0.462397
	N269	N	0.081503	0.174137	0.535485
	N270	N	0.084143	0.815673	0.462038
	N271	N	0.911642	0.817933	0.535004
	N272	N	0.179332	0.460439	0.910000
	N273	N	0.176459	0.532213	0.085755
	N274	N	0.815470	0.460000	0.087219
	N275	N	0.816677	0.531365	0.912280
	O276	O	0.561500	0.378444	0.475329
	H277	H	0.558659	0.383992	0.467033
	H278	H	0.554869	0.377794	0.460878
	O279	O	0.650416	0.633614	0.552883
	H280	H	0.658933	0.635563	0.556522
	H281	H	0.649396	0.628479	0.567831
	O282	O	0.646827	0.369572	0.309262
	H283	H	0.650883	0.370906	0.323455
	H284	H	0.646542	0.374130	0.296623
	O285	O	0.876084	0.160819	-0.145260
	H286	H	0.881710	0.153308	-0.138165
	H287	H	0.885563	0.160272	-0.143359
	O288	O	-0.030098	0.178545	0.804631
	H289	H	-0.023328	0.201976	0.786886
	H290	H	-0.021727	0.185193	0.827508
	O291	O	0.423468	0.485711	0.611439
	H292	H	0.422424	0.465384	0.613086
	H293	H	0.427099	0.484173	0.598246
	O294	O	0.312715	0.657487	0.470409
	H295	H	0.299100	0.672421	0.467972
	H296	H	0.318579	0.649135	0.464373
	O297	O	1.039678	1.051027	0.926450
	H298	H	1.042415	1.067015	0.931192
	H299	H	1.028108	1.051364	0.911492
	O300	O	0.159142	-0.112248	-0.029920
	H301	H	0.164979	-0.137569	-0.034937
	H302	H	0.158354	-0.092534	-0.053602
	O303	O	0.370213	0.613696	0.472025
	H304	H	0.379299	0.610467	0.476938
	H305	H	0.377813	0.605858	0.452156
	O306	O	0.840237	-0.015090	-0.144148
	H307	H	0.837903	-0.016130	-0.154573
	H308	H	0.856484	0.000294	-0.132503
	O309	O	0.642862	0.538632	0.402206
	H310	H	0.636923	0.534532	0.422048
	H311	H	0.648916	0.528509	0.417078
	O312	O	0.998424	1.030872	-0.088675
	H313	H	0.999661	1.047747	-0.095462
	H314	H	1.005103	1.034000	-0.091627
	O315	O	0.640869	0.516611	0.676455
	H316	H	0.634696	0.517380	0.685734
	H317	H	0.635983	0.503304	0.673609
	O318	O	0.661595	0.541834	0.628571
	H319	H	0.648608	0.540823	0.633456
	H320	H	0.654282	0.550948	0.638392
	O321	O	0.935383	-0.055586	1.109112
	H322	H	0.930763	-0.062254	1.100144
	H323	H	0.925641	-0.052045	1.088162
	O324	O	0.182598	0.161773	1.122992
	H325	H	0.188437	0.140950	1.122524
	H326	H	0.171043	0.155309	1.117620
	O327	O	0.578481	0.464956	0.524136
	H328	H	0.573837	0.455795	0.520875
	H329	H	0.582936	0.475594	0.524605
	O330	O	0.402959	0.505970	0.584036
	H331	H	0.389118	0.502825	0.583004
	H332	H	0.404262	0.497711	0.595757
	O333	O	0.982946	1.185391	0.953972
	H334	H	0.995669	1.183518	0.953886
	H335	H	0.974358	1.187218	0.974214
	O336	O	0.486941	0.369154	0.340527
	H337	H	0.487113	0.358953	0.340406
	H338	H	0.476227	0.377741	0.338702
	O339	O	0.958875	0.159861	0.954291
	H340	H	0.960787	0.163862	0.975387
	H341	H	0.948914	0.150501	0.948040
	O342	O	0.135099	0.823561	0.829601
	H343	H	0.125863	0.803273	0.842910
	H344	H	0.124630	0.816185	0.808909
	O345	O	0.099601	0.848727	0.977285
	H346	H	0.097399	0.843827	0.980275
	H347	H	0.091962	0.837795	0.973061
	O348	O	0.468130	0.574434	0.640412
	H349	H	0.468392	0.559048	0.637318
	H350	H	0.462807	0.578276	0.647384
	O351	O	0.033209	0.085559	0.119780
	H352	H	0.030701	0.081067	0.129990
	H353	H	0.038934	0.090833	0.129113
	O354	O	1.178198	1.026428	0.176915
	H355	H	1.210093	1.014585	0.186749
	H356	H	1.185336	1.021860	0.162298
	O357	O	-0.039948	1.041819	0.178394
	H358	H	-0.041347	1.037386	0.178049
	H359	H	-0.044282	1.037484	0.188359
	O360	O	0.526990	0.569054	0.398081
	H361	H	0.524819	0.573324	0.385548
	H362	H	0.533366	0.563785	0.408563
	O363	O	0.642748	0.556256	0.361639
	H364	H	0.650617	0.548536	0.366370
	H365	H	0.643169	0.560470	0.373800
	O366	O	0.467589	0.625960	0.603646
	H367	H	0.481895	0.628303	0.603683
	H368	H	0.472139	0.628951	0.616817
	O369	O	0.366436	0.382565	0.658520
	H370	H	0.363379	0.379518	0.662068
	H371	H	0.362769	0.385450	0.652894
	O372	O	0.534575	0.641707	0.436879
	H373	H	0.533762	0.640980	0.443782
	H374	H	0.539725	0.640141	0.434042
	O375	O	0.487040	0.318228	0.474828
	H376	H	0.475025	0.313310	0.476113
	H377	H	0.489268	0.322562	0.470240
	O378	O	0.328620	0.565184	0.334431
	H379	H	0.328850	0.573112	0.336863
	H380	H	0.326134	0.577408	0.329375
	O381	O	0.406082	0.482016	0.375714
	H382	H	0.414901	0.482966	0.371115
	H383	H	0.413577	0.500850	0.374753
	O384	O	-0.082864	1.106740	0.921405
	H385	H	-0.083606	1.106562	0.907069
	H386	H	-0.080188	1.119453	0.913225
	O387	O	1.047233	0.881832	-0.162734
	H388	H	1.043291	0.899354	-0.176049
	H389	H	1.041942	0.854472	-0.162431
	O390	O	0.346134	0.389899	0.491866
	H391	H	0.335601	0.392876	0.483458
	H392	H	0.351561	0.389612	0.492063
	O393	O	1.020557	-0.140535	1.167689
	H394	H	1.028211	-0.148787	1.178447
	H395	H	1.018356	-0.135183	1.154747
	O396	O	-0.153639	0.964089	1.073320
	H397	H	-0.150433	0.936988	1.065564
	H398	H	-0.150408	0.964501	1.076358
	O399	O	0.546721	0.505648	0.478991
	H400	H	0.540861	0.512103	0.467926
	H401	H	0.551144	0.514580	0.477086
	O402	O	0.908568	-0.126898	1.020645
	H403	H	0.892759	-0.140273	1.035274
	H404	H	0.900079	-0.129181	1.016109
	O405	O	-0.006824	-0.048471	-0.095982
	H406	H	-0.012677	-0.044847	-0.095028
	H407	H	-0.010900	-0.040416	-0.089849
	O408	O	0.816932	0.923344	1.025937
	H409	H	0.812429	0.921741	1.029448
	H410	H	0.818219	0.921338	1.036272
	O411	O	1.135507	1.170655	0.102801
	H412	H	1.159608	1.174855	0.116091
	H413	H	1.137370	1.158178	0.105069
	O414	O	-0.044050	-0.194202	0.981886
	H415	H	-0.044394	-0.181825	0.993818
	H416	H	-0.057178	-0.200928	0.984868
	O417	O	0.577148	0.324546	0.453537
	H418	H	0.571886	0.313495	0.434157
	H419	H	0.594133	0.322397	0.451413
	O420	O	0.386618	1.370129	-0.317528
	H421	H	0.396078	1.358628	-0.327828
	H422	H	0.385619	1.356815	-0.322591
	O423	O	0.836220	-0.095834	0.093265
	H424	H	0.840208	-0.089327	0.105920
	H425	H	0.826964	-0.081532	0.100712
	O426	O	0.048177	-0.079590	1.124708
	H427	H	0.051071	-0.076648	1.116096
	H428	H	0.049586	-0.072502	1.119311
	O429	O	0.506069	0.680513	0.569028
	H430	H	0.503217	0.670213	0.584953
	H431	H	0.511207	0.680829	0.573202
