data_Molecule from HDF5

_cell_length_a		16.389540
_cell_length_b		16.278056
_cell_length_c		16.242665
_cell_angle_alpha	90.215160
_cell_angle_beta	90.000470
_cell_angle_gamma	89.560141
_symmetry_space_group_name_H-M	'P 1'
_symmetry_Int_Tables_number		1

loop_
	_symmetry_equiv_pos_as_xyz
	x,y,z

loop_
	_atom_site_label
	_atom_site_type_symbol
	_atom_site_fract_x
	_atom_site_fract_y
	_atom_site_fract_z
	H0	H	0.400759	0.847095	0.723525
	H1	H	0.596984	0.173688	0.726465
	H2	H	0.595982	0.846605	0.294847
	H3	H	0.395663	0.174065	0.295384
	H4	H	0.713341	0.410267	0.846503
	H5	H	0.713643	0.614605	0.171450
	H6	H	0.281706	0.611534	0.845597
	H7	H	0.280493	0.412664	0.172117
	H8	H	0.835299	0.729942	0.407975
	H9	H	0.159135	0.723984	0.606560
	H10	H	0.834517	0.295973	0.607648
	H11	H	0.157670	0.291828	0.405108
	H12	H	0.833750	0.413558	0.722663
	H13	H	0.158364	0.608847	0.723096
	H14	H	0.834253	0.611854	0.292507
	H15	H	0.158607	0.409478	0.291023
	H16	H	0.399290	0.726977	0.846404
	H17	H	0.593244	0.724697	0.174204
	H18	H	0.599306	0.292875	0.847326
	H19	H	0.398101	0.298575	0.173578
	H20	H	0.715416	0.847939	0.406884
	H21	H	0.714085	0.173141	0.611499
	H22	H	0.283069	0.847331	0.607385
	H23	H	0.277373	0.172372	0.407680
	H24	H	0.897250	0.348618	0.223537
	H25	H	0.093897	0.674419	0.223539
	H26	H	0.096470	0.347770	0.792263
	H27	H	0.897378	0.675926	0.794906
	H28	H	0.214305	0.909054	0.345372
	H29	H	0.212819	0.112314	0.671250
	H30	H	0.777740	0.112459	0.345388
	H31	H	0.782262	0.910781	0.671229
	H32	H	0.335251	0.229292	0.910026
	H33	H	0.659086	0.228791	0.112773
	H34	H	0.335029	0.796704	0.111481
	H35	H	0.659256	0.793627	0.910979
	H36	H	0.334706	0.913184	0.224952
	H37	H	0.659113	0.110583	0.227854
	H38	H	0.335699	0.113949	0.791989
	H39	H	0.659341	0.910090	0.794713
	H40	H	0.895012	0.226196	0.343956
	H41	H	0.095448	0.227371	0.670761
	H42	H	0.097260	0.795031	0.344275
	H43	H	0.900819	0.799073	0.672497
	H44	H	0.216907	0.350012	0.904570
	H45	H	0.210141	0.674390	0.108183
	H46	H	0.780373	0.350178	0.109636
	H47	H	0.778000	0.674175	0.908128
	H48	H	0.403380	0.127965	0.602408
	H49	H	0.581310	0.900918	0.590641
	H50	H	0.590613	0.124521	0.425294
	H51	H	0.409849	0.896124	0.416783
	H52	H	0.588112	0.419389	0.124765
	H53	H	0.596906	0.600697	0.891517
	H54	H	0.400267	0.607998	0.128122
	H55	H	0.419020	0.424072	0.898640
	H56	H	0.111770	0.606075	0.422006
	H57	H	0.880838	0.604472	0.600952
	H58	H	0.110198	0.414064	0.591521
	H59	H	0.881189	0.416067	0.414632
	H60	H	0.108370	0.427209	0.599267
	H61	H	0.879721	0.607689	0.603903
	H62	H	0.109909	0.595909	0.414448
	H63	H	0.882976	0.422108	0.418835
	H64	H	0.399978	0.602065	0.125579
	H65	H	0.581823	0.595102	0.897318
	H66	H	0.590878	0.419561	0.125837
	H67	H	0.404861	0.408258	0.889315
	H68	H	0.591452	0.128394	0.414008
	H69	H	0.605134	0.891944	0.596565
	H70	H	0.406272	0.125642	0.599988
	H71	H	0.401831	0.895445	0.420294
	H72	H	0.902444	0.627449	0.097640
	H73	H	0.091017	0.393352	0.102404
	H74	H	0.086804	0.627818	0.911954
	H75	H	0.910065	0.397839	0.915454
	H76	H	0.096727	0.910997	0.628340
	H77	H	0.091261	0.101796	0.391122
	H78	H	0.905517	0.106680	0.624108
	H79	H	0.904113	0.926110	0.393203
	H80	H	0.611189	0.099675	0.918778
	H81	H	0.385391	0.106055	0.092550
	H82	H	0.607406	0.918969	0.089823
	H83	H	0.382826	0.921973	0.916596
	H84	H	0.612470	0.928267	0.111283
	H85	H	0.383757	0.096691	0.107790
	H86	H	0.612837	0.102730	0.918145
	H87	H	0.380565	0.918601	0.914367
	H88	H	0.902799	0.102420	0.623291
	H89	H	0.087978	0.098085	0.393368
	H90	H	0.094670	0.926643	0.623216
	H91	H	0.910663	0.918749	0.393050
	H92	H	0.086380	0.626144	0.919201
	H93	H	0.085366	0.397186	0.097696
	H94	H	0.902410	0.628637	0.103607
	H95	H	0.902274	0.397352	0.920828
	H96	H	0.401748	0.126117	0.598743
	H97	H	0.586847	0.892517	0.615458
	H98	H	0.580713	0.124216	0.417879
	H99	H	0.403860	0.892213	0.411560
	H100	H	0.588868	0.422515	0.125453
	H101	H	0.583930	0.611159	0.891959
	H102	H	0.405220	0.605439	0.125540
	H103	H	0.396402	0.429894	0.893569
	H104	H	0.114686	0.606615	0.409057
	H105	H	0.879619	0.608675	0.599657
	H106	H	0.114672	0.415333	0.606294
	H107	H	0.880756	0.422532	0.411670
	H108	H	0.907042	0.627116	0.100133
	H109	H	0.092423	0.395452	0.094896
	H110	H	0.092731	0.628734	0.916114
	H111	H	0.901486	0.393582	0.911292
	H112	H	0.082078	0.916514	0.622636
	H113	H	0.086019	0.103666	0.392133
	H114	H	0.907324	0.102026	0.621928
	H115	H	0.901819	0.917130	0.389939
	H116	H	0.611061	0.101903	0.921812
	H117	H	0.378768	0.114157	0.107261
	H118	H	0.616971	0.905458	0.106432
	H119	H	0.381678	0.919126	0.919169
	C120	C	0.375787	0.018644	0.629917
	C121	C	0.619672	1.002570	0.631166
	C122	C	0.617942	0.018502	0.388362
	C123	C	0.375039	1.002127	0.387372
	C124	C	0.619336	0.389803	0.018167
	C125	C	0.616885	0.632244	1.001350
	C126	C	0.373908	0.634381	0.018229
	C127	C	0.376743	0.391456	1.001368
	C128	C	0.005115	0.633115	0.386034
	C129	C	0.987750	0.634069	0.629970
	C130	C	0.004218	0.389890	0.628746
	C131	C	0.988331	0.389345	0.385108
	C132	C	0.875107	0.520209	0.129814
	C133	C	0.117470	0.502995	0.128355
	C134	C	0.118758	0.519954	0.885964
	C135	C	0.874778	0.503583	0.886788
	C136	C	0.119734	0.888551	0.516681
	C137	C	0.117824	0.131704	0.499542
	C138	C	0.874865	0.133020	0.515650
	C139	C	0.877075	0.891015	0.499866
	C140	C	0.505358	0.132699	0.888638
	C141	C	0.489352	0.134162	0.132605
	C142	C	0.505155	0.889725	0.131619
	C143	C	0.488897	0.889122	0.888078
	C144	C	0.379488	0.895862	0.685491
	C145	C	0.617317	0.124892	0.688196
	C146	C	0.616503	0.895621	0.332327
	C147	C	0.375536	0.124786	0.332426
	C148	C	0.675268	0.390402	0.895332
	C149	C	0.674421	0.632987	0.123251
	C150	C	0.319653	0.631873	0.894598
	C151	C	0.319405	0.392878	0.123594
	C152	C	0.883443	0.690437	0.387979
	C153	C	0.110174	0.687392	0.627215
	C154	C	0.882644	0.334325	0.627159
	C155	C	0.109592	0.331075	0.385849
	C156	C	0.882432	0.392484	0.684904
	C157	C	0.109817	0.630146	0.685259
	C158	C	0.882977	0.632041	0.330510
	C159	C	0.110026	0.389270	0.328811
	C160	C	0.377584	0.689496	0.895025
	C161	C	0.614481	0.687901	0.124721
	C162	C	0.618554	0.332111	0.895791
	C163	C	0.377947	0.336084	0.124424
	C164	C	0.675688	0.896285	0.388367
	C165	C	0.675436	0.124662	0.630905
	C166	C	0.321033	0.896150	0.627996
	C167	C	0.316879	0.124133	0.388338
	C168	C	0.877164	0.397625	0.185649
	C169	C	0.114567	0.625575	0.185239
	C170	C	0.117183	0.397032	0.829807
	C171	C	0.876318	0.626786	0.832027
	C172	C	0.175968	0.889329	0.394143
	C173	C	0.174147	0.131691	0.622398
	C174	C	0.816738	0.132320	0.393859
	C175	C	0.820936	0.891894	0.622759
	C176	C	0.383730	0.190719	0.889868
	C177	C	0.610633	0.190309	0.132428
	C178	C	0.383196	0.835155	0.130121
	C179	C	0.610572	0.831916	0.890351
	C180	C	0.383156	0.892770	0.187033
	C181	C	0.610651	0.131214	0.189308
	C182	C	0.383913	0.133172	0.831301
	C183	C	0.610909	0.889919	0.832799
	C184	C	0.875336	0.188671	0.392920
	C185	C	0.115598	0.188701	0.622281
	C186	C	0.117849	0.832500	0.393582
	C187	C	0.879576	0.835971	0.623259
	C188	C	0.177054	0.398009	0.885541
	C189	C	0.172239	0.625679	0.127722
	C190	C	0.818995	0.398406	0.128992
	C191	C	0.816994	0.625808	0.888097
	C192	C	0.397447	0.104363	0.607316
	C193	C	0.597443	0.917033	0.607607
	C194	C	0.594566	0.103553	0.412114
	C195	C	0.398381	0.916793	0.409671
	C196	C	0.596270	0.413610	0.103329
	C197	C	0.594089	0.609121	0.915711
	C198	C	0.395509	0.611891	0.104215
	C199	C	0.400056	0.414171	0.915976
	C200	C	0.090016	0.609641	0.408569
	C201	C	0.902304	0.613054	0.607998
	C202	C	0.089106	0.412275	0.605840
	C203	C	0.903777	0.413276	0.408240
	C204	C	0.897386	0.605495	0.107037
	C205	C	0.095953	0.417428	0.105064
	C206	C	0.095491	0.605499	0.909163
	C207	C	0.897963	0.418396	0.909194
	C208	C	0.097615	0.911402	0.602523
	C209	C	0.095121	0.107985	0.414131
	C210	C	0.898406	0.110244	0.600857
	C211	C	0.899057	0.913968	0.414158
	C212	C	0.589578	0.108452	0.912534
	C213	C	0.404611	0.112201	0.109278
	C214	C	0.590304	0.911334	0.109259
	C215	C	0.403678	0.913038	0.910192
	Zn216	Zn	0.497553	0.011042	0.759128
	Zn217	Zn	0.496478	0.010553	0.260036
	Zn218	Zn	0.746138	0.512338	0.009169
	Zn219	Zn	0.246619	0.511640	0.008123
	Zn220	Zn	-0.002968	0.762306	0.507842
	Zn221	Zn	-0.003832	0.261063	0.506811
	Zn222	Zn	-0.004059	0.511823	0.758039
	Zn223	Zn	-0.003039	0.511001	0.257181
	Zn224	Zn	0.496608	0.761361	0.010621
	Zn225	Zn	0.497717	0.262404	0.010491
	Zn226	Zn	0.747804	0.010830	0.508873
	Zn227	Zn	0.246681	0.010468	0.508562
	N228	N	0.412706	0.973262	0.687109
	N229	N	0.583394	0.047811	0.688369
	N230	N	0.581237	0.972538	0.332207
	N231	N	0.411110	0.047977	0.331746
	N232	N	0.675993	0.425483	0.972471
	N233	N	0.675798	0.599000	0.045648
	N234	N	0.317098	0.598605	0.972198
	N235	N	0.318682	0.426745	0.046077
	N236	N	0.960368	0.691239	0.421633
	N237	N	0.033197	0.689987	0.593612
	N238	N	0.959490	0.332584	0.593149
	N239	N	0.032856	0.330599	0.419901
	N240	N	0.959118	0.426258	0.686025
	N241	N	0.032684	0.597760	0.687198
	N242	N	0.959723	0.596960	0.329134
	N243	N	0.033698	0.424710	0.328208
	N244	N	0.410510	0.691134	0.972818
	N245	N	0.579353	0.687575	0.047865
	N246	N	0.584538	0.331509	0.973113
	N247	N	0.412898	0.335004	0.047441
	N248	N	0.676816	0.973732	0.422547
	N249	N	0.676934	0.047591	0.596137
	N250	N	0.318721	0.973592	0.594507
	N251	N	0.316401	0.046863	0.421929
	N252	N	0.911409	0.474373	0.186345
	N253	N	0.081094	0.548372	0.185552
	N254	N	0.081827	0.474013	0.829524
	N255	N	0.911254	0.549768	0.830797
	N256	N	0.177163	0.923628	0.471635
	N257	N	0.175529	0.096864	0.545223
	N258	N	0.816099	0.098567	0.471348
	N259	N	0.819178	0.925295	0.545108
	N260	N	0.460319	0.190518	0.924717
	N261	N	0.534050	0.192405	0.098144
	N262	N	0.460131	0.833092	0.096203
	N263	N	0.533457	0.831164	0.923774
	N264	N	0.459847	0.926148	0.187887
	N265	N	0.534219	0.097190	0.189812
	N266	N	0.460302	0.097990	0.830119
	N267	N	0.534198	0.924841	0.831321
	N268	N	0.910553	0.189387	0.469692
	N269	N	0.081494	0.189029	0.544902
	N270	N	0.083729	0.831732	0.470942
	N271	N	0.913758	0.835152	0.545898
	N272	N	0.178102	0.475421	0.919570
	N273	N	0.174244	0.548361	0.093166
	N274	N	0.817561	0.475730	0.095141
	N275	N	0.815669	0.548363	0.921443
	O276	O	1.103967	0.089501	1.153508
	H277	H	1.106788	0.086462	1.148297
	H278	H	1.102439	0.083319	1.156432
	O279	O	0.068943	0.969934	-0.153644
	H280	H	0.075345	0.962964	-0.147151
	H281	H	0.075214	0.967274	-0.159260
	O282	O	0.512289	0.424827	0.626382
	H283	H	0.503633	0.417514	0.627407
	H284	H	0.516277	0.416506	0.615070
	O285	O	0.567962	0.499800	0.551555
	H286	H	0.563447	0.490524	0.545063
	H287	H	0.575269	0.494151	0.553781
	O288	O	0.534977	0.566216	0.636249
	H289	H	0.534176	0.567425	0.627179
	H290	H	0.531435	0.550931	0.639425
	O291	O	-0.051531	-0.012351	1.139251
	H292	H	-0.041730	-0.026997	1.136326
	H293	H	-0.030542	-0.000911	1.134001
	O294	O	1.110359	0.866816	-0.169408
	H295	H	1.121646	0.868837	-0.173660
	H296	H	1.100390	0.871849	-0.177736
	O297	O	1.112711	0.916521	0.011758
	H298	H	1.123385	0.906189	0.016336
	H299	H	1.112668	0.920089	0.008876
	O300	O	0.426035	0.531143	0.542187
	H301	H	0.433997	0.536536	0.538639
	H302	H	0.427993	0.534146	0.534759
	O303	O	0.514411	0.382341	0.463771
	H304	H	0.520048	0.385446	0.462277
	H305	H	0.511825	0.367396	0.463380
	O306	O	0.496136	0.518028	0.461853
	H307	H	0.487359	0.518139	0.469675
	H308	H	0.500342	0.512824	0.456303
	O309	O	0.570361	0.490323	0.505875
	H310	H	0.576943	0.503976	0.508758
	H311	H	0.555444	0.486227	0.504076
	O312	O	0.916866	1.163109	0.932139
	H313	H	0.915564	1.175339	0.939860
	H314	H	0.913650	1.157205	0.934782
	O315	O	0.545322	0.488946	0.353920
	H316	H	0.549287	0.486775	0.343365
	H317	H	0.553944	0.468868	0.364730
	O318	O	0.440701	0.490260	0.498830
	H319	H	0.437375	0.493273	0.488105
	H320	H	0.438842	0.490281	0.501839
	O321	O	0.583256	0.530671	0.514235
	H322	H	0.588562	0.533103	0.522726
	H323	H	0.584111	0.524795	0.508851
	O324	O	-0.082184	1.046577	1.098185
	H325	H	-0.077663	1.045677	1.097889
	H326	H	-0.083331	1.043861	1.095548
	O327	O	0.163817	0.967330	0.919994
	H328	H	0.163780	0.950429	0.928684
	H329	H	0.165562	0.961257	0.907970
	O330	O	-0.115965	-0.086938	0.082886
	H331	H	-0.104229	-0.087029	0.077341
	H332	H	-0.122762	-0.070875	0.088107
	O333	O	0.458470	0.477905	0.516119
	H334	H	0.451046	0.476677	0.509025
	H335	H	0.454736	0.484539	0.515571
	O336	O	0.075421	0.008803	-0.013294
	H337	H	0.071793	0.025428	-0.019489
	H338	H	0.082388	-0.008872	-0.023620
	O339	O	-0.117192	-0.117132	0.004132
	H340	H	-0.121210	-0.129807	0.012870
	H341	H	-0.121648	-0.110623	-0.005908
	O342	O	0.560026	0.520601	0.486315
	H343	H	0.557613	0.536855	0.489656
	H344	H	0.572853	0.515788	0.477894
	O345	O	-0.051341	1.002676	1.020216
	H346	H	-0.050478	0.994919	1.013026
	H347	H	-0.039524	1.008718	1.012692
	O348	O	1.018944	0.102328	0.059076
	H349	H	1.024094	0.098031	0.062204
	H350	H	1.025669	0.099022	0.057437
	O351	O	0.454092	0.555721	0.509430
	H352	H	0.455469	0.565479	0.508087
	H353	H	0.456480	0.556899	0.516306
	O354	O	-0.097947	1.151428	-0.064030
	H355	H	-0.092131	1.161914	-0.064438
	H356	H	-0.103787	1.149490	-0.049198
	O357	O	1.014461	0.111891	0.024848
	H358	H	1.014948	0.109520	0.023659
	H359	H	1.022243	0.116416	0.029330
	O360	O	0.954785	0.103386	0.890295
	H361	H	0.960392	0.111975	0.888908
	H362	H	0.940597	0.102567	0.882822
	O363	O	0.607797	0.434150	0.430600
	H364	H	0.619720	0.431734	0.431988
	H365	H	0.605490	0.446037	0.415438
	O366	O	0.456551	0.421946	0.492495
	H367	H	0.457773	0.407143	0.495500
	H368	H	0.450674	0.418504	0.507626
	O369	O	0.888813	0.021316	-0.051037
	H370	H	0.905842	0.027364	-0.058912
	H371	H	0.878684	0.023064	-0.048427
	O372	O	0.496606	0.546876	0.589209
	H373	H	0.499971	0.552707	0.588689
	H374	H	0.497947	0.537466	0.584126
	O375	O	1.097761	0.013658	1.101703
	H376	H	1.088453	0.010526	1.102534
	H377	H	1.093925	-0.001960	1.094414
	O378	O	0.100011	0.981623	0.053215
	H379	H	0.096014	0.976746	0.045510
	H380	H	0.100030	0.978612	0.046502
	O381	O	0.386101	0.457462	0.500102
	H382	H	0.388204	0.461377	0.500137
	H383	H	0.376715	0.443569	0.505042
	O384	O	0.938546	0.982420	-0.112312
	H385	H	0.931090	0.991859	-0.122145
	H386	H	0.931760	0.986922	-0.113445
	O387	O	0.398423	-0.512936	0.639224
	H388	H	0.401101	-0.508871	0.644459
	H389	H	0.396314	-0.516498	0.642064
	O390	O	1.021249	0.916153	-0.062658
	H391	H	1.028737	0.919840	-0.065870
	H392	H	1.009167	0.917030	-0.059066
	O393	O	0.556405	0.649674	0.541351
	H394	H	0.560475	0.652316	0.546502
	H395	H	0.562703	0.646575	0.553155
