data_Molecule from HDF5

_cell_length_a		16.379976
_cell_length_b		16.174376
_cell_length_c		16.302468
_cell_angle_alpha	89.892175
_cell_angle_beta	89.952407
_cell_angle_gamma	89.908708
_symmetry_space_group_name_H-M	'P 1'
_symmetry_Int_Tables_number		1

loop_
	_symmetry_equiv_pos_as_xyz
	x,y,z

loop_
	_atom_site_label
	_atom_site_type_symbol
	_atom_site_fract_x
	_atom_site_fract_y
	_atom_site_fract_z
	H0	H	0.398028	0.836096	0.706413
	H1	H	0.594942	0.164853	0.703206
	H2	H	0.596007	0.836597	0.275487
	H3	H	0.397130	0.165563	0.275963
	H4	H	0.715155	0.397537	0.827615
	H5	H	0.715706	0.601416	0.151668
	H6	H	0.281049	0.603861	0.826541
	H7	H	0.279357	0.398340	0.151415
	H8	H	0.832620	0.713069	0.389027
	H9	H	0.159476	0.713470	0.585456
	H10	H	0.833636	0.287081	0.585730
	H11	H	0.158978	0.281888	0.387933
	H12	H	0.837919	0.395566	0.708228
	H13	H	0.159849	0.599631	0.703417
	H14	H	0.834837	0.598582	0.271483
	H15	H	0.159456	0.398831	0.271392
	H16	H	0.399822	0.716570	0.826287
	H17	H	0.595830	0.713820	0.153612
	H18	H	0.596716	0.285266	0.826842
	H19	H	0.399850	0.286976	0.154389
	H20	H	0.710923	0.835805	0.391031
	H21	H	0.712311	0.163246	0.590200
	H22	H	0.281626	0.835439	0.592247
	H23	H	0.279053	0.163377	0.389444
	H24	H	0.899075	0.335610	0.203029
	H25	H	0.096522	0.664449	0.203261
	H26	H	0.099603	0.335376	0.774161
	H27	H	0.899530	0.663345	0.772897
	H28	H	0.214717	0.896728	0.327564
	H29	H	0.212375	0.099907	0.652450
	H30	H	0.780132	0.099948	0.327208
	H31	H	0.780399	0.897413	0.652061
	H32	H	0.334584	0.216480	0.892160
	H33	H	0.660813	0.214070	0.088377
	H34	H	0.334406	0.786145	0.088527
	H35	H	0.660825	0.787403	0.892578
	H36	H	0.334741	0.901269	0.206356
	H37	H	0.658791	0.101794	0.207812
	H38	H	0.334359	0.101552	0.774058
	H39	H	0.659100	0.900594	0.773850
	H40	H	0.897205	0.214019	0.325962
	H41	H	0.093658	0.213342	0.652706
	H42	H	0.092039	0.787387	0.324660
	H43	H	0.898778	0.784524	0.652969
	H44	H	0.215925	0.336823	0.888271
	H45	H	0.211778	0.665850	0.087220
	H46	H	0.781783	0.336543	0.090282
	H47	H	0.783110	0.663499	0.887895
	H48	H	0.391155	0.121315	0.586751
	H49	H	0.582357	0.884934	0.580891
	H50	H	0.592797	0.118621	0.398433
	H51	H	0.402967	0.882176	0.394980
	H52	H	0.591895	0.408375	0.105742
	H53	H	0.589935	0.584809	0.876672
	H54	H	0.403105	0.592688	0.105762
	H55	H	0.397702	0.416112	0.873577
	H56	H	0.111432	0.592712	0.396767
	H57	H	0.880075	0.598034	0.580370
	H58	H	0.114226	0.400023	0.579708
	H59	H	0.881258	0.406126	0.394841
	H60	H	0.110648	0.408635	0.574681
	H61	H	0.885168	0.584626	0.574905
	H62	H	0.111369	0.591074	0.394156
	H63	H	0.882195	0.407927	0.395017
	H64	H	0.405254	0.589820	0.104819
	H65	H	0.585210	0.599510	0.873746
	H66	H	0.591434	0.409437	0.105995
	H67	H	0.416152	0.414062	0.879166
	H68	H	0.587181	0.118489	0.395382
	H69	H	0.596104	0.881908	0.578252
	H70	H	0.413868	0.115671	0.588909
	H71	H	0.410995	0.885392	0.397705
	H72	H	0.901192	0.617631	0.077579
	H73	H	0.087207	0.383659	0.084150
	H74	H	0.098050	0.618822	0.897560
	H75	H	0.902110	0.381861	0.897319
	H76	H	0.090875	0.898320	0.608295
	H77	H	0.091434	0.084343	0.374922
	H78	H	0.908032	0.083264	0.601812
	H79	H	0.907224	0.901429	0.372548
	H80	H	0.613650	0.096987	0.896907
	H81	H	0.381522	0.097073	0.078608
	H82	H	0.617219	0.898712	0.088857
	H83	H	0.378710	0.898457	0.898241
	H84	H	0.609903	0.907375	0.072540
	H85	H	0.384342	0.088211	0.082326
	H86	H	0.611096	0.090378	0.897937
	H87	H	0.386360	0.913479	0.906720
	H88	H	0.907686	0.100947	0.607448
	H89	H	0.083459	0.088646	0.375790
	H90	H	0.094948	0.911148	0.606031
	H91	H	0.894680	0.905833	0.370995
	H92	H	0.088365	0.618208	0.888033
	H93	H	0.087652	0.386540	0.074785
	H94	H	0.906326	0.618259	0.085241
	H95	H	0.908076	0.381518	0.894041
	H96	H	0.403631	0.112648	0.568076
	H97	H	0.590940	0.880067	0.591400
	H98	H	0.587642	0.115508	0.401080
	H99	H	0.403677	0.884788	0.403420
	H100	H	0.591155	0.409172	0.105230
	H101	H	0.599435	0.595022	0.870413
	H102	H	0.405903	0.593655	0.104705
	H103	H	0.406133	0.399418	0.871496
	H104	H	0.112311	0.593640	0.394173
	H105	H	0.881046	0.585760	0.589438
	H106	H	0.113972	0.408801	0.584944
	H107	H	0.881627	0.407401	0.393531
	H108	H	0.909884	0.614432	0.077287
	H109	H	0.095571	0.383075	0.079328
	H110	H	0.084976	0.613057	0.900771
	H111	H	0.907656	0.383780	0.900839
	H112	H	0.082414	0.907388	0.602017
	H113	H	0.090270	0.093706	0.372040
	H114	H	0.892360	0.090721	0.608462
	H115	H	0.903944	0.914293	0.375579
	H116	H	0.613603	0.092963	0.891673
	H117	H	0.379746	0.095031	0.087300
	H118	H	0.611697	0.918127	0.089385
	H119	H	0.380508	0.914793	0.889040
	C120	C	0.374966	0.008227	0.611382
	C121	C	0.618250	0.991372	0.611562
	C122	C	0.617906	0.008829	0.369148
	C123	C	0.375177	0.992216	0.368717
	C124	C	0.620505	0.378603	-0.001744
	C125	C	0.620060	0.622068	0.981489
	C126	C	0.376255	0.622180	-0.002308
	C127	C	0.376717	0.379793	0.982164
	C128	C	0.004473	0.621365	0.366204
	C129	C	0.989130	0.619932	0.610168
	C130	C	0.006092	0.376828	0.609857
	C131	C	0.988892	0.377132	0.365636
	C132	C	0.876912	0.508389	0.109438
	C133	C	0.119107	0.492671	0.109240
	C134	C	0.120394	0.508407	0.866763
	C135	C	0.877375	0.490845	0.867610
	C136	C	0.118386	0.876649	0.497787
	C137	C	0.117544	0.119363	0.481339
	C138	C	0.874406	0.120694	0.498109
	C139	C	0.874272	0.877529	0.480970
	C140	C	0.505468	0.122936	0.867302
	C141	C	0.489014	0.122437	0.112012
	C142	C	0.505778	0.878418	0.112878
	C143	C	0.489207	0.879665	0.868763
	C144	C	0.377552	0.884933	0.668169
	C145	C	0.614970	0.115429	0.665629
	C146	C	0.615715	0.885411	0.313609
	C147	C	0.376322	0.115799	0.312990
	C148	C	0.676373	0.379156	0.875969
	C149	C	0.676516	0.620584	0.103438
	C150	C	0.319937	0.622729	0.875191
	C151	C	0.318789	0.379450	0.103564
	C152	C	0.881767	0.676183	0.368253
	C153	C	0.110981	0.675907	0.606555
	C154	C	0.883232	0.323151	0.607157
	C155	C	0.110744	0.320639	0.367567
	C156	C	0.885432	0.377126	0.668119
	C157	C	0.111328	0.619016	0.665174
	C158	C	0.882807	0.619245	0.310017
	C159	C	0.110914	0.378593	0.309541
	C160	C	0.379002	0.678649	0.874911
	C161	C	0.617195	0.676877	0.104319
	C162	C	0.617447	0.323048	0.875695
	C163	C	0.378670	0.323863	0.105019
	C164	C	0.673200	0.885194	0.370882
	C165	C	0.673671	0.114699	0.609545
	C166	C	0.319946	0.884497	0.611178
	C167	C	0.318061	0.114973	0.370062
	C168	C	0.878927	0.384718	0.165223
	C169	C	0.116770	0.615768	0.165299
	C170	C	0.119151	0.384594	0.811790
	C171	C	0.879477	0.614347	0.811108
	C172	C	0.175139	0.877920	0.375665
	C173	C	0.173584	0.119084	0.603709
	C174	C	0.818525	0.119424	0.375625
	C175	C	0.819272	0.878504	0.603688
	C176	C	0.383060	0.178649	0.870890
	C177	C	0.611703	0.177248	0.109683
	C178	C	0.383287	0.822928	0.110169
	C179	C	0.611889	0.824898	0.871565
	C180	C	0.383281	0.880624	0.168385
	C181	C	0.610859	0.121177	0.168735
	C182	C	0.383077	0.121779	0.811932
	C183	C	0.610892	0.880978	0.812355
	C184	C	0.876823	0.176173	0.375100
	C185	C	0.114911	0.175878	0.603891
	C186	C	0.114298	0.823378	0.374263
	C187	C	0.877692	0.821928	0.603871
	C188	C	0.177540	0.385679	0.868120
	C189	C	0.174196	0.616449	0.107673
	C190	C	0.820801	0.385108	0.109075
	C191	C	0.821225	0.614260	0.868002
	C192	C	0.396611	0.094243	0.588022
	C193	C	0.596407	0.904753	0.589877
	C194	C	0.595613	0.095240	0.391680
	C195	C	0.398920	0.906263	0.391846
	C196	C	0.598001	0.402207	0.083646
	C197	C	0.597969	0.599612	0.895819
	C198	C	0.398215	0.598702	0.082906
	C199	C	0.399881	0.403010	0.896861
	C200	C	0.089525	0.599103	0.388619
	C201	C	0.904048	0.596208	0.588089
	C202	C	0.091110	0.399420	0.586548
	C203	C	0.903747	0.400170	0.387876
	C204	C	0.899220	0.594486	0.086658
	C205	C	0.096656	0.406640	0.086218
	C206	C	0.097203	0.594558	0.888960
	C207	C	0.899439	0.404790	0.890596
	C208	C	0.096081	0.899093	0.583408
	C209	C	0.094989	0.095902	0.396171
	C210	C	0.896359	0.098256	0.583831
	C211	C	0.895533	0.900575	0.395280
	C212	C	0.590703	0.100006	0.888958
	C213	C	0.404037	0.099868	0.089462
	C214	C	0.590709	0.901325	0.090308
	C215	C	0.403867	0.902278	0.891362
	Zn216	Zn	0.496385	0.000589	0.738935
	Zn217	Zn	0.497078	0.001024	0.240708
	Zn218	Zn	0.748787	0.499802	-0.011117
	Zn219	Zn	0.247675	0.500998	-0.011424
	Zn220	Zn	-0.004946	0.748733	0.488584
	Zn221	Zn	-0.003605	0.248491	0.488939
	Zn222	Zn	-0.000958	0.498591	0.738808
	Zn223	Zn	-0.002447	0.499961	0.237274
	Zn224	Zn	0.497816	0.750151	-0.010050
	Zn225	Zn	0.498269	0.251036	-0.009548
	Zn226	Zn	0.746136	-0.000627	0.490021
	Zn227	Zn	0.247000	-0.001728	0.490390
	N228	N	0.411047	0.962850	0.668431
	N229	N	0.581048	0.037708	0.666757
	N230	N	0.581811	0.963325	0.312596
	N231	N	0.411287	0.038367	0.312217
	N232	N	0.678172	0.413176	0.953280
	N233	N	0.678451	0.587250	0.025895
	N234	N	0.318006	0.588292	0.952383
	N235	N	0.317607	0.413492	0.026263
	N236	N	0.958361	0.677634	0.402425
	N237	N	0.033945	0.676441	0.573197
	N238	N	0.959448	0.322915	0.571724
	N239	N	0.033959	0.319384	0.401618
	N240	N	0.962853	0.410032	0.669928
	N241	N	0.034476	0.584818	0.667414
	N242	N	0.960167	0.585979	0.308325
	N243	N	0.034003	0.412933	0.308133
	N244	N	0.413334	0.678627	0.951934
	N245	N	0.582811	0.677714	0.027374
	N246	N	0.583472	0.322668	0.952713
	N247	N	0.414105	0.323973	0.028365
	N248	N	0.674484	0.962957	0.404823
	N249	N	0.675937	0.036507	0.576685
	N250	N	0.318333	0.962032	0.576409
	N251	N	0.317162	0.036977	0.403766
	N252	N	0.913272	0.462245	0.165505
	N253	N	0.083587	0.537771	0.166565
	N254	N	0.084637	0.462202	0.810648
	N255	N	0.913511	0.536556	0.810493
	N256	N	0.177785	0.910132	0.453688
	N257	N	0.175204	0.084638	0.526664
	N258	N	0.816734	0.085674	0.453229
	N259	N	0.816967	0.912392	0.526269
	N260	N	0.460182	0.179742	0.904381
	N261	N	0.535192	0.178122	0.074997
	N262	N	0.460297	0.821515	0.076386
	N263	N	0.535036	0.823908	0.905870
	N264	N	0.460400	0.914154	0.170258
	N265	N	0.533537	0.087916	0.170340
	N266	N	0.460162	0.087916	0.809677
	N267	N	0.533659	0.914281	0.810621
	N268	N	0.910815	0.176973	0.452164
	N269	N	0.080770	0.176208	0.526718
	N270	N	0.079763	0.822263	0.451181
	N271	N	0.911170	0.821269	0.526580
	N272	N	0.178408	0.463652	0.901493
	N273	N	0.175985	0.538646	0.073750
	N274	N	0.819580	0.462878	0.074900
	N275	N	0.819885	0.536535	0.902447
	O276	O	-0.066276	-0.026246	-0.099161
	H277	H	-0.077561	-0.030518	-0.096946
	H278	H	-0.064326	-0.023549	-0.104452
	O279	O	1.028958	0.035972	1.006237
	H280	H	1.030004	0.034651	1.008431
	H281	H	1.037132	0.027575	0.998844
	O282	O	0.474934	0.521767	0.509757
	H283	H	0.484247	0.521967	0.512938
	H284	H	0.482028	0.516685	0.498643
	O285	O	-0.041362	1.068420	0.991358
	H286	H	-0.033375	1.070268	0.983602
	H287	H	-0.044291	1.067101	1.008566
	O288	O	0.478284	0.492188	0.467005
	H289	H	0.479518	0.497912	0.463319
	H290	H	0.478935	0.503132	0.460544
	O291	O	0.404638	0.509891	1.430007
	H292	H	0.401499	0.501525	1.430803
	H293	H	0.407897	0.516570	1.435170
	O294	O	1.024767	0.966170	1.023244
	H295	H	1.016918	0.972108	1.017604
	H296	H	1.014084	0.975744	1.025074
	O297	O	1.031010	0.070291	0.966826
	H298	H	1.030468	0.087330	0.967452
	H299	H	1.031451	0.063431	0.983420
	O300	O	0.512894	0.345438	0.509321
	H301	H	0.500529	0.335623	0.504865
	H302	H	0.508671	0.342480	0.514221
	O303	O	1.067087	-0.019189	0.067195
	H304	H	1.067202	-0.014622	0.074743
	H305	H	1.075834	-0.008920	0.058205
	O306	O	-0.572735	1.498802	0.487422
	H307	H	-0.582034	1.501586	0.474774
	H308	H	-0.555936	1.490547	0.483043
	O309	O	0.452393	0.567175	0.385814
	H310	H	0.444736	0.567358	0.383026
	H311	H	0.446090	0.567315	0.381693
	O312	O	1.598631	0.466948	1.524176
	H313	H	1.603749	0.463881	1.525894
	H314	H	1.600775	0.471382	1.540195
	O315	O	0.436708	0.600359	0.532166
	H316	H	0.429697	0.596392	0.528779
	H317	H	0.445061	0.598269	0.515240
	O318	O	0.428984	0.439187	0.445638
	H319	H	0.425514	0.443875	0.461746
	H320	H	0.424816	0.441231	0.440627
	O321	O	1.009735	0.980332	0.917619
	H322	H	1.013572	0.976209	0.921077
	H323	H	1.007747	0.977559	0.912273
	O324	O	0.475070	0.396543	0.535616
	H325	H	0.470875	0.391937	0.547792
	H326	H	0.487499	0.394315	0.534029
	O327	O	0.464645	0.448298	0.423821
	H328	H	0.467296	0.428463	0.424501
	H329	H	0.463728	0.446571	0.426051
	O330	O	0.973353	-0.006405	1.070742
	H331	H	0.970786	-0.003517	1.079251
	H332	H	0.981833	-0.010659	1.061879
	O333	O	0.874402	1.017677	0.000115
	H334	H	0.869122	1.023619	0.003755
	H335	H	0.877414	1.009324	0.018332
	O336	O	0.573326	0.561315	0.508849
	H337	H	0.563254	0.565582	0.507821
	H338	H	0.572504	0.564258	0.502487
	O339	O	0.449561	0.416556	0.593329
	H340	H	0.453838	0.412277	0.591917
	H341	H	0.450399	0.423613	0.600946
	O342	O	0.056344	0.981881	0.017000
	H343	H	0.051951	0.971371	0.011865
	H344	H	0.060005	0.978748	0.013664
	O345	O	-0.011399	0.005563	0.043000
	H346	H	-0.007300	0.005445	0.041078
	H347	H	-0.012276	0.006781	0.042407
	O348	O	0.559944	0.561358	0.587222
	H349	H	0.550183	0.568411	0.580403
	H350	H	0.552613	0.570961	0.596809
	O351	O	0.496366	0.584983	0.477651
	H352	H	0.495332	0.578488	0.465423
	H353	H	0.494982	0.571073	0.490877
	O354	O	0.570923	0.593737	0.454544
	H355	H	0.560192	0.591777	0.458710
	H356	H	0.563379	0.587161	0.445477
	O357	O	0.373535	0.560653	0.389784
	H358	H	0.376136	0.569993	0.372278
	H359	H	0.357829	0.564416	0.393876
	O360	O	0.034597	0.014483	0.043432
	H361	H	0.035927	0.016430	0.042432
	H362	H	0.035018	0.006259	0.034082
	O363	O	0.504311	0.589804	0.495151
	H364	H	0.511837	0.579129	0.513297
	H365	H	0.510780	0.599926	0.487282
	O366	O	0.135404	0.069721	1.071719
	H367	H	0.139930	0.078173	1.072450
	H368	H	0.131695	0.064822	1.065116
	O369	O	0.591099	0.542292	0.615445
	H370	H	0.597270	0.555274	0.630045
	H371	H	0.587807	0.555412	0.614986
