data_Molecule from HDF5

_cell_length_a		16.196736
_cell_length_b		16.416940
_cell_length_c		16.231449
_cell_angle_alpha	89.470324
_cell_angle_beta	90.310669
_cell_angle_gamma	89.671289
_symmetry_space_group_name_H-M	'P 1'
_symmetry_Int_Tables_number		1

loop_
	_symmetry_equiv_pos_as_xyz
	x,y,z

loop_
	_atom_site_label
	_atom_site_type_symbol
	_atom_site_fract_x
	_atom_site_fract_y
	_atom_site_fract_z
	H0	H	0.402582	0.842404	0.707412
	H1	H	0.600150	0.166405	0.705927
	H2	H	0.601049	0.841449	0.275525
	H3	H	0.397651	0.165554	0.270627
	H4	H	0.711048	0.407614	0.825140
	H5	H	0.713132	0.599024	0.154252
	H6	H	0.280512	0.605430	0.825894
	H7	H	0.286486	0.404791	0.154929
	H8	H	0.835564	0.723210	0.386254
	H9	H	0.162618	0.716638	0.591655
	H10	H	0.835239	0.286711	0.591334
	H11	H	0.161215	0.286271	0.389142
	H12	H	0.833040	0.405706	0.703093
	H13	H	0.162503	0.598976	0.704540
	H14	H	0.834236	0.604665	0.274048
	H15	H	0.162352	0.404517	0.277022
	H16	H	0.393933	0.723891	0.826477
	H17	H	0.601224	0.718880	0.153184
	H18	H	0.598083	0.288868	0.826497
	H19	H	0.395608	0.284068	0.151561
	H20	H	0.715493	0.841606	0.394535
	H21	H	0.715735	0.166561	0.589265
	H22	H	0.286793	0.841627	0.590975
	H23	H	0.282263	0.165784	0.387803
	H24	H	0.899399	0.342034	0.207777
	H25	H	0.097539	0.665690	0.206280
	H26	H	0.097817	0.340687	0.776958
	H27	H	0.895993	0.665637	0.771063
	H28	H	0.213398	0.907567	0.325094
	H29	H	0.213902	0.097655	0.654775
	H30	H	0.783556	0.105117	0.326742
	H31	H	0.788995	0.906778	0.655217
	H32	H	0.334623	0.222277	0.886078
	H33	H	0.660920	0.220014	0.091282
	H34	H	0.335324	0.786640	0.093052
	H35	H	0.661398	0.787748	0.890638
	H36	H	0.335067	0.904152	0.205852
	H37	H	0.662932	0.100271	0.203611
	H38	H	0.335029	0.105723	0.772227
	H39	H	0.664564	0.907948	0.780689
	H40	H	0.896571	0.221965	0.326858
	H41	H	0.101515	0.217477	0.654116
	H42	H	0.102084	0.786715	0.326626
	H43	H	0.900762	0.786018	0.652765
	H44	H	0.214748	0.341429	0.893366
	H45	H	0.214223	0.665729	0.089566
	H46	H	0.784940	0.340518	0.090091
	H47	H	0.780138	0.665807	0.888953
	H48	H	0.406481	0.116193	0.571322
	H49	H	0.588442	0.888659	0.592708
	H50	H	0.595591	0.120467	0.392735
	H51	H	0.411911	0.888246	0.393277
	H52	H	0.581714	0.410154	0.103438
	H53	H	0.589262	0.603538	0.870853
	H54	H	0.404884	0.603738	0.108745
	H55	H	0.404908	0.416018	0.874108
	H56	H	0.112546	0.590202	0.401212
	H57	H	0.881143	0.604171	0.576250
	H58	H	0.116364	0.406678	0.583343
	H59	H	0.877474	0.403495	0.394603
	H60	H	0.113296	0.410566	0.581482
	H61	H	0.885281	0.590890	0.574291
	H62	H	0.117408	0.595793	0.392381
	H63	H	0.885086	0.412371	0.410326
	H64	H	0.402139	0.588770	0.104864
	H65	H	0.592082	0.594637	0.873475
	H66	H	0.593502	0.402646	0.109749
	H67	H	0.408841	0.413645	0.874821
	H68	H	0.586152	0.118095	0.392855
	H69	H	0.591948	0.892637	0.576998
	H70	H	0.399263	0.122666	0.585518
	H71	H	0.410837	0.891466	0.403611
	H72	H	0.909050	0.615074	0.076876
	H73	H	0.097473	0.388809	0.079692
	H74	H	0.086454	0.615985	0.898775
	H75	H	0.903962	0.387830	0.896294
	H76	H	0.095180	0.904171	0.607997
	H77	H	0.086212	0.090641	0.376647
	H78	H	0.904535	0.091170	0.606626
	H79	H	0.913114	0.911684	0.375181
	H80	H	0.614368	0.093355	0.897156
	H81	H	0.377596	0.100596	0.087175
	H82	H	0.612832	0.918960	0.084654
	H83	H	0.382529	0.916350	0.898735
	H84	H	0.619131	0.903134	0.089269
	H85	H	0.383713	0.100445	0.070427
	H86	H	0.617155	0.101744	0.895824
	H87	H	0.380331	0.912526	0.894718
	H88	H	0.915580	0.095035	0.604663
	H89	H	0.085328	0.104868	0.372904
	H90	H	0.094901	0.912343	0.605625
	H91	H	0.904874	0.909075	0.371483
	H92	H	0.091405	0.618114	0.897212
	H93	H	0.093878	0.386162	0.091145
	H94	H	0.898908	0.619778	0.079221
	H95	H	0.905764	0.388541	0.895803
	H96	H	0.415637	0.118600	0.585363
	H97	H	0.603822	0.886174	0.587397
	H98	H	0.591220	0.118192	0.401080
	H99	H	0.401818	0.887296	0.398350
	H100	H	0.595281	0.416828	0.105358
	H101	H	0.582798	0.596933	0.875903
	H102	H	0.416402	0.595237	0.102088
	H103	H	0.405327	0.411876	0.872654
	H104	H	0.115314	0.601488	0.402725
	H105	H	0.880060	0.595620	0.586420
	H106	H	0.116018	0.410115	0.585984
	H107	H	0.883046	0.421491	0.394157
	H108	H	0.907895	0.620268	0.086718
	H109	H	0.085801	0.390869	0.083824
	H110	H	0.087596	0.619380	0.894103
	H111	H	0.904336	0.388372	0.897836
	H112	H	0.088078	0.907906	0.604336
	H113	H	0.098174	0.097768	0.371349
	H114	H	0.907278	0.102572	0.609480
	H115	H	0.906254	0.917830	0.374543
	H116	H	0.613780	0.098770	0.903930
	H117	H	0.384584	0.085358	0.079876
	H118	H	0.614012	0.906943	0.072834
	H119	H	0.381479	0.910591	0.900110
	C120	C	0.378653	0.012483	0.611226
	C121	C	0.622817	0.996495	0.613317
	C122	C	0.621025	0.011786	0.368104
	C123	C	0.377815	0.995759	0.367377
	C124	C	0.619222	0.382031	-0.001852
	C125	C	0.619021	0.625482	0.981618
	C126	C	0.376288	0.626750	-0.002326
	C127	C	0.377329	0.383500	0.981692
	C128	C	0.006840	0.626008	0.368313
	C129	C	0.990417	0.624246	0.609574
	C130	C	0.006569	0.381033	0.612318
	C131	C	0.989960	0.383178	0.370168
	C132	C	0.876603	0.511626	0.111381
	C133	C	0.121080	0.495657	0.112981
	C134	C	0.118892	0.511285	0.868484
	C135	C	0.874652	0.495191	0.866471
	C136	C	0.121871	0.880835	0.497871
	C137	C	0.120407	0.125042	0.482124
	C138	C	0.878488	0.126311	0.498855
	C139	C	0.879657	0.883245	0.481827
	C140	C	0.507023	0.127109	0.868036
	C141	C	0.490089	0.124425	0.109528
	C142	C	0.507228	0.880931	0.111849
	C143	C	0.490369	0.884496	0.870027
	C144	C	0.381861	0.890584	0.668547
	C145	C	0.620519	0.117904	0.668267
	C146	C	0.620404	0.889997	0.313582
	C147	C	0.378348	0.117460	0.309596
	C148	C	0.673873	0.386152	0.874520
	C149	C	0.675497	0.620847	0.105058
	C150	C	0.318825	0.625674	0.874880
	C151	C	0.322823	0.384705	0.105244
	C152	C	0.884343	0.683970	0.367274
	C153	C	0.113903	0.678417	0.609963
	C154	C	0.883872	0.324907	0.610812
	C155	C	0.112588	0.325568	0.370303
	C156	C	0.882622	0.384171	0.666256
	C157	C	0.113662	0.620044	0.666337
	C158	C	0.883552	0.624926	0.311611
	C159	C	0.113208	0.384571	0.314672
	C160	C	0.375072	0.684788	0.875104
	C161	C	0.619720	0.680344	0.104521
	C162	C	0.617757	0.327151	0.875146
	C163	C	0.377265	0.324542	0.103669
	C164	C	0.677767	0.890095	0.372576
	C165	C	0.677704	0.118267	0.609958
	C166	C	0.324062	0.890267	0.610780
	C167	C	0.320685	0.117464	0.367729
	C168	C	0.878797	0.390005	0.168879
	C169	C	0.118132	0.617446	0.167906
	C170	C	0.117702	0.389279	0.814552
	C171	C	0.875565	0.617119	0.809350
	C172	C	0.176335	0.885554	0.374257
	C173	C	0.176202	0.119781	0.605567
	C174	C	0.821512	0.125302	0.375842
	C175	C	0.825766	0.885671	0.605647
	C176	C	0.383787	0.183857	0.867132
	C177	C	0.612502	0.181082	0.110157
	C178	C	0.384186	0.825319	0.111546
	C179	C	0.613146	0.827119	0.871463
	C180	C	0.383979	0.883566	0.167931
	C181	C	0.613736	0.121343	0.165688
	C182	C	0.383939	0.125671	0.810720
	C183	C	0.614603	0.886773	0.816623
	C184	C	0.877841	0.183164	0.375846
	C185	C	0.120129	0.179285	0.605207
	C186	C	0.120901	0.825659	0.374981
	C187	C	0.881564	0.825964	0.604607
	C188	C	0.176008	0.389619	0.872272
	C189	C	0.176320	0.617387	0.110250
	C190	C	0.821796	0.389432	0.110246
	C191	C	0.818416	0.617526	0.868217
	C192	C	0.400611	0.097201	0.587521
	C193	C	0.601036	0.911418	0.591937
	C194	C	0.597904	0.096949	0.389354
	C195	C	0.401367	0.911092	0.391459
	C196	C	0.596779	0.403471	0.083862
	C197	C	0.595211	0.604425	0.895858
	C198	C	0.400598	0.602928	0.082998
	C199	C	0.399888	0.407013	0.896051
	C200	C	0.092825	0.602707	0.391797
	C201	C	0.904410	0.603295	0.585829
	C202	C	0.092822	0.402906	0.590388
	C203	C	0.904089	0.405942	0.393000
	C204	C	0.898762	0.596476	0.087857
	C205	C	0.099009	0.410497	0.091195
	C206	C	0.095378	0.596043	0.890371
	C207	C	0.897907	0.410358	0.889817
	C208	C	0.099494	0.901873	0.583728
	C209	C	0.096842	0.103929	0.395816
	C210	C	0.902149	0.103024	0.584626
	C211	C	0.901808	0.906195	0.395875
	C212	C	0.592962	0.104422	0.891919
	C213	C	0.404060	0.101995	0.086125
	C214	C	0.593063	0.903048	0.089014
	C215	C	0.403893	0.906810	0.891457
	Zn216	Zn	0.499662	0.004873	0.741245
	Zn217	Zn	0.498716	0.003356	0.238288
	Zn218	Zn	0.747434	0.503518	-0.009632
	Zn219	Zn	0.248900	0.504100	-0.009592
	Zn220	Zn	-0.000137	0.753315	0.489438
	Zn221	Zn	-0.001082	0.253979	0.490623
	Zn222	Zn	-0.002620	0.503302	0.738577
	Zn223	Zn	-0.002002	0.503564	0.240970
	Zn224	Zn	0.497754	0.754428	-0.010460
	Zn225	Zn	0.497535	0.254125	-0.010547
	Zn226	Zn	0.750998	0.005085	0.490669
	Zn227	Zn	0.249347	0.003424	0.489726
	N228	N	0.414966	0.967585	0.669053
	N229	N	0.587439	0.041167	0.670626
	N230	N	0.586022	0.966729	0.310597
	N231	N	0.412991	0.040584	0.309157
	N232	N	0.675085	0.419555	0.951909
	N233	N	0.675268	0.587492	0.027686
	N234	N	0.319653	0.590126	0.952016
	N235	N	0.322904	0.420978	0.028349
	N236	N	0.962158	0.684724	0.401766
	N237	N	0.036139	0.681316	0.575614
	N238	N	0.962131	0.322687	0.578066
	N239	N	0.035150	0.324796	0.404241
	N240	N	0.959973	0.418102	0.667332
	N241	N	0.035875	0.586842	0.666077
	N242	N	0.960880	0.589683	0.311904
	N243	N	0.035895	0.419830	0.314556
	N244	N	0.409929	0.685675	0.952594
	N245	N	0.585227	0.683253	0.026772
	N246	N	0.584384	0.324531	0.952860
	N247	N	0.410555	0.323986	0.026072
	N248	N	0.678323	0.966944	0.405774
	N249	N	0.679324	0.041735	0.576389
	N250	N	0.321948	0.966901	0.575820
	N251	N	0.320458	0.041049	0.403000
	N252	N	0.912061	0.466930	0.169651
	N253	N	0.085073	0.540525	0.170132
	N254	N	0.082907	0.465829	0.812182
	N255	N	0.909847	0.540234	0.808287
	N256	N	0.177376	0.918827	0.451665
	N257	N	0.176282	0.086879	0.527920
	N258	N	0.821565	0.090675	0.453362
	N259	N	0.824491	0.920556	0.528297
	N260	N	0.461452	0.184992	0.901877
	N261	N	0.534685	0.182736	0.075868
	N262	N	0.461812	0.823523	0.077400
	N263	N	0.534899	0.825659	0.904055
	N264	N	0.461451	0.917522	0.168274
	N265	N	0.536482	0.086735	0.165345
	N266	N	0.461487	0.091053	0.811087
	N267	N	0.537226	0.921655	0.815555
	N268	N	0.912465	0.184019	0.453458
	N269	N	0.086398	0.182742	0.527168
	N270	N	0.087897	0.822499	0.452825
	N271	N	0.914316	0.824563	0.526626
	N272	N	0.176800	0.466508	0.905247
	N273	N	0.178412	0.540480	0.077266
	N274	N	0.820395	0.466024	0.075184
	N275	N	0.817689	0.540838	0.903061
	O276	O	-0.078788	-0.028075	-0.090679
	H277	H	-0.083671	-0.025151	-0.091729
	H278	H	-0.079904	-0.027949	-0.090276
	O279	O	0.990286	-0.006405	0.956229
	H280	H	0.992464	0.009451	0.950075
	H281	H	1.003047	-0.010763	0.944919
	O282	O	0.484685	0.350145	0.590576
	H283	H	0.478859	0.356085	0.589998
	H284	H	0.481097	0.337576	0.601311
	O285	O	-0.003261	0.997193	1.047081
	H286	H	-0.001993	0.998196	1.042270
	H287	H	-0.009807	0.999498	1.060228
	O288	O	0.534847	0.465253	0.452150
	H289	H	0.532137	0.456647	0.463709
	H290	H	0.525662	0.469809	0.436664
	O291	O	0.459860	0.533814	1.357445
	H292	H	0.463527	0.528759	1.367310
	H293	H	0.459009	0.549436	1.343341
	O294	O	1.040266	0.964566	1.033496
	H295	H	1.026900	0.963501	1.042730
	H296	H	1.038661	0.959707	1.041618
	O297	O	0.977727	-0.083422	1.045372
	H298	H	0.970304	-0.088589	1.041568
	H299	H	0.979052	-0.074777	1.048096
	O300	O	0.485612	0.483701	0.507595
	H301	H	0.488307	0.485846	0.501872
	H302	H	0.487125	0.490041	0.509658
	O303	O	0.897566	-0.036201	0.070655
	H304	H	0.889007	-0.032619	0.074001
	H305	H	0.897432	-0.030387	0.073797
	O306	O	-0.294613	1.263415	0.696769
	H307	H	-0.297337	1.266840	0.696355
	H308	H	-0.288665	1.266781	0.703514
	O309	O	0.558181	0.545387	0.512351
	H310	H	0.557961	0.539897	0.513676
	H311	H	0.549647	0.551263	0.522600
	O312	O	1.485052	0.528569	1.516408
	H313	H	1.487846	0.533626	1.518819
	H314	H	1.486386	0.522257	1.511842
	O315	O	0.471032	0.476958	0.509639
	H316	H	0.475666	0.475838	0.513023
	H317	H	0.469793	0.472055	0.515338
	O318	O	0.396515	0.564097	0.383273
	H319	H	0.401555	0.567499	0.370360
	H320	H	0.413870	0.551373	0.391549
	O321	O	0.925152	0.966848	1.019652
	H322	H	0.929407	0.968924	1.015156
	H323	H	0.911794	0.969350	1.014754
	O324	O	0.370251	0.496371	0.528476
	H325	H	0.358678	0.499276	0.532207
	H326	H	0.366202	0.504854	0.520580
	O327	O	0.587337	0.473839	0.539421
	H328	H	0.598914	0.466466	0.541983
	H329	H	0.583784	0.476939	0.548521
	O330	O	1.030015	0.007702	0.974510
	H331	H	1.015617	0.010886	0.984375
	H332	H	1.036075	0.002526	0.975667
	O333	O	0.979953	1.028908	-0.024142
	H334	H	0.984825	1.023538	-0.030731
	H335	H	0.979958	1.028720	-0.024115
	O336	O	0.562083	0.575824	0.436445
	H337	H	0.565258	0.576707	0.440306
	H338	H	0.558245	0.570669	0.450349
	O339	O	0.433070	0.589473	0.522915
	H340	H	0.423001	0.602412	0.523225
	H341	H	0.421676	0.594527	0.508363
	O342	O	-0.004256	1.055564	-0.007976
	H343	H	-0.005607	1.063036	-0.003676
	H344	H	-0.005764	1.053539	-0.011822
	O345	O	0.043078	-0.032103	0.008884
	H346	H	0.035912	-0.035347	0.009067
	H347	H	0.052111	-0.042757	0.001875
	O348	O	0.480391	0.509923	0.586248
	H349	H	0.486665	0.516755	0.579341
	H350	H	0.477710	0.521838	0.585786
	O351	O	0.466901	0.532199	0.460644
	H352	H	0.457448	0.532444	0.460729
	H353	H	0.471032	0.538477	0.461920
	O354	O	0.443216	0.454303	0.362793
	H355	H	0.440255	0.450431	0.373473
	H356	H	0.449501	0.441016	0.363154
	O357	O	0.443715	0.531082	0.573607
	H358	H	0.441298	0.534246	0.560454
	H359	H	0.432873	0.540067	0.572618
	O360	O	-0.046883	-0.025586	-0.062845
	H361	H	-0.052641	-0.025189	-0.061902
	H362	H	-0.053325	-0.027399	-0.073582
	O363	O	0.520692	0.458668	0.450121
	H364	H	0.522504	0.453670	0.435128
	H365	H	0.515658	0.455694	0.435218
	O366	O	-0.028912	-0.001352	1.004821
	H367	H	-0.021173	-0.001777	1.003862
	H368	H	-0.038286	-0.001400	0.995598
	O369	O	0.550619	0.597131	0.432473
	H370	H	0.557531	0.593746	0.424947
	H371	H	0.544192	0.601467	0.432886
