data_Molecule from HDF5

_cell_length_a		16.511292
_cell_length_b		16.561975
_cell_length_c		16.450728
_cell_angle_alpha	89.704874
_cell_angle_beta	89.939505
_cell_angle_gamma	89.997998
_symmetry_space_group_name_H-M	'P 1'
_symmetry_Int_Tables_number		1

loop_
	_symmetry_equiv_pos_as_xyz
	x,y,z

loop_
	_atom_site_label
	_atom_site_type_symbol
	_atom_site_fract_x
	_atom_site_fract_y
	_atom_site_fract_z
	H0	H	0.382217	0.851514	0.712174
	H1	H	0.590176	0.167158	0.706144
	H2	H	0.597472	0.852968	0.261926
	H3	H	0.385391	0.165819	0.267331
	H4	H	0.709593	0.404599	0.831610
	H5	H	0.710352	0.617029	0.145125
	H6	H	0.266368	0.615885	0.829051
	H7	H	0.269924	0.409695	0.147759
	H8	H	0.830690	0.735525	0.378988
	H9	H	0.143010	0.731261	0.596462
	H10	H	0.830062	0.284966	0.594607
	H11	H	0.144187	0.290790	0.386070
	H12	H	0.829285	0.401188	0.711620
	H13	H	0.144687	0.610932	0.708058
	H14	H	0.829168	0.617708	0.265109
	H15	H	0.144848	0.408937	0.270595
	H16	H	0.381632	0.732938	0.829537
	H17	H	0.594590	0.732298	0.145262
	H18	H	0.590803	0.291405	0.829697
	H19	H	0.382583	0.289349	0.146059
	H20	H	0.711875	0.852106	0.379698
	H21	H	0.706628	0.166575	0.589618
	H22	H	0.264846	0.851733	0.596842
	H23	H	0.267872	0.164142	0.382959
	H24	H	0.885402	0.352185	0.207882
	H25	H	0.091734	0.667997	0.208705
	H26	H	0.087090	0.349688	0.773742
	H27	H	0.880261	0.664828	0.764039
	H28	H	0.209748	0.902008	0.330412
	H29	H	0.209175	0.113018	0.644071
	H30	H	0.767554	0.113363	0.329123
	H31	H	0.765103	0.903817	0.645855
	H32	H	0.329427	0.228162	0.886099
	H33	H	0.643820	0.232672	0.094726
	H34	H	0.329562	0.788772	0.092763
	H35	H	0.642742	0.783989	0.878225
	H36	H	0.329254	0.906525	0.206574
	H37	H	0.645166	0.112822	0.207469
	H38	H	0.328691	0.111239	0.770802
	H39	H	0.644415	0.903451	0.765039
	H40	H	0.881211	0.231580	0.330180
	H41	H	0.092019	0.228673	0.645401
	H42	H	0.093102	0.785770	0.331906
	H43	H	0.881043	0.787668	0.646435
	H44	H	0.205726	0.352052	0.888491
	H45	H	0.206439	0.668795	0.090839
	H46	H	0.765395	0.353794	0.095714
	H47	H	0.763659	0.665711	0.880307
	H48	H	0.393133	0.120845	0.574707
	H49	H	0.574537	0.895831	0.582178
	H50	H	0.581967	0.121983	0.395886
	H51	H	0.397987	0.895062	0.398192
	H52	H	0.571208	0.420469	0.100849
	H53	H	0.577943	0.593410	0.876366
	H54	H	0.393561	0.599381	0.101973
	H55	H	0.392467	0.426664	0.875525
	H56	H	0.100916	0.607302	0.399688
	H57	H	0.874813	0.594641	0.576731
	H58	H	0.100550	0.415207	0.579363
	H59	H	0.872866	0.416006	0.400970
	H60	H	0.098758	0.417635	0.577431
	H61	H	0.875123	0.598300	0.574822
	H62	H	0.093487	0.595042	0.408891
	H63	H	0.874100	0.422185	0.399546
	H64	H	0.398094	0.597046	0.099320
	H65	H	0.569262	0.595628	0.879374
	H66	H	0.576124	0.418579	0.102622
	H67	H	0.402707	0.417037	0.875067
	H68	H	0.571569	0.119408	0.393496
	H69	H	0.571197	0.899378	0.573570
	H70	H	0.396233	0.121349	0.582155
	H71	H	0.401240	0.896016	0.398290
	H72	H	0.897578	0.621846	0.072783
	H73	H	0.080987	0.397848	0.074677
	H74	H	0.075522	0.622189	0.897899
	H75	H	0.897333	0.396681	0.900723
	H76	H	0.078760	0.917028	0.602813
	H77	H	0.080573	0.101288	0.372436
	H78	H	0.901169	0.102050	0.600711
	H79	H	0.897913	0.920499	0.374694
	H80	H	0.601129	0.101345	0.898577
	H81	H	0.374471	0.095596	0.080587
	H82	H	0.601070	0.915910	0.074133
	H83	H	0.377105	0.924649	0.900005
	H84	H	0.597711	0.922552	0.070797
	H85	H	0.372481	0.104841	0.077584
	H86	H	0.601151	0.099304	0.897049
	H87	H	0.374509	0.919345	0.898798
	H88	H	0.892127	0.097532	0.603164
	H89	H	0.077535	0.094759	0.375507
	H90	H	0.076102	0.924494	0.598884
	H91	H	0.899325	0.924164	0.376801
	H92	H	0.077646	0.623892	0.896580
	H93	H	0.080352	0.395533	0.084661
	H94	H	0.897386	0.623670	0.077768
	H95	H	0.898827	0.398053	0.901648
	H96	H	0.401047	0.118625	0.575833
	H97	H	0.580655	0.896508	0.574601
	H98	H	0.576077	0.116967	0.403569
	H99	H	0.399387	0.895484	0.400827
	H100	H	0.575985	0.423650	0.100446
	H101	H	0.574440	0.602203	0.874603
	H102	H	0.398645	0.603132	0.101018
	H103	H	0.389720	0.413877	0.870192
	H104	H	0.097763	0.592168	0.392619
	H105	H	0.876325	0.595194	0.572163
	H106	H	0.099133	0.418311	0.580751
	H107	H	0.871209	0.418294	0.395916
	H108	H	0.902018	0.620828	0.076049
	H109	H	0.072471	0.400043	0.079609
	H110	H	0.075001	0.622551	0.895201
	H111	H	0.896559	0.397700	0.902363
	H112	H	0.070937	0.917642	0.599596
	H113	H	0.073155	0.101340	0.374731
	H114	H	0.899226	0.092292	0.598366
	H115	H	0.901829	0.920656	0.376586
	H116	H	0.601437	0.101962	0.896635
	H117	H	0.377180	0.098397	0.071858
	H118	H	0.600014	0.922191	0.077980
	H119	H	0.376640	0.920190	0.904219
	C120	C	0.364854	0.016962	0.610760
	C121	C	0.607721	1.001049	0.608318
	C122	C	0.610072	0.016578	0.364511
	C123	C	0.367798	0.999352	0.366850
	C124	C	0.607592	0.388919	-0.003185
	C125	C	0.607584	0.630546	0.980077
	C126	C	0.365110	0.631753	-0.004170
	C127	C	0.364843	0.388843	0.979213
	C128	C	-0.005784	0.631711	0.366487
	C129	C	0.978670	0.628706	0.608438
	C130	C	-0.004920	0.385371	0.611020
	C131	C	0.977623	0.388381	0.367610
	C132	C	0.866466	0.518590	0.109069
	C133	C	0.109127	0.501987	0.110431
	C134	C	0.107493	0.518057	0.866812
	C135	C	0.864803	0.500910	0.867184
	C136	C	0.108413	0.887072	0.496722
	C137	C	0.108978	0.130333	0.478652
	C138	C	0.865879	0.129676	0.496214
	C139	C	0.866181	0.888289	0.479687
	C140	C	0.496241	0.131237	0.866588
	C141	C	0.478859	0.131383	0.109206
	C142	C	0.495901	0.888221	0.107528
	C143	C	0.479377	0.888584	0.867012
	C144	C	0.363519	0.898908	0.671795
	C145	C	0.609008	0.119852	0.666494
	C146	C	0.614766	0.899628	0.302723
	C147	C	0.366281	0.118121	0.307061
	C148	C	0.669114	0.386363	0.878772
	C149	C	0.669619	0.634430	0.098037
	C150	C	0.305608	0.634400	0.876817
	C151	C	0.307391	0.389008	0.099263
	C152	C	0.877319	0.694038	0.361989
	C153	C	0.096379	0.689894	0.612817
	C154	C	0.876833	0.325183	0.613336
	C155	C	0.096931	0.330443	0.367036
	C156	C	0.876699	0.383064	0.671309
	C157	C	0.097060	0.629836	0.668509
	C158	C	0.876618	0.635479	0.304953
	C159	C	0.097281	0.389117	0.309809
	C160	C	0.363188	0.692361	0.876920
	C161	C	0.611969	0.691888	0.097989
	C162	C	0.609952	0.330113	0.877537
	C163	C	0.364142	0.329847	0.098830
	C164	C	0.671686	0.899347	0.361640
	C165	C	0.667025	0.119557	0.608674
	C166	C	0.305262	0.898654	0.614092
	C167	C	0.308098	0.117466	0.364669
	C168	C	0.865300	0.399905	0.169135
	C169	C	0.110080	0.620783	0.168963
	C170	C	0.107152	0.397828	0.811417
	C171	C	0.862245	0.618183	0.804875
	C172	C	0.169074	0.884234	0.377892
	C173	C	0.168738	0.131480	0.597134
	C174	C	0.806830	0.131927	0.376806
	C175	C	0.805278	0.885378	0.598405
	C176	C	0.376926	0.188973	0.866528
	C177	C	0.596853	0.191784	0.112221
	C178	C	0.376859	0.828938	0.110218
	C179	C	0.596467	0.826168	0.861973
	C180	C	0.376758	0.887287	0.167226
	C181	C	0.597656	0.132079	0.168304
	C182	C	0.376659	0.130676	0.809345
	C183	C	0.597363	0.885569	0.805579
	C184	C	0.863558	0.190631	0.377362
	C185	C	0.110216	0.188864	0.597642
	C186	C	0.111592	0.826095	0.378591
	C187	C	0.862716	0.827412	0.598695
	C188	C	0.166196	0.399108	0.868104
	C189	C	0.167142	0.621189	0.110162
	C190	C	0.805914	0.400635	0.112983
	C191	C	0.804143	0.618502	0.862715
	C192	C	0.389642	0.098901	0.584945
	C193	C	0.582759	0.918614	0.583957
	C194	C	0.583857	0.098330	0.390354
	C195	C	0.392537	0.916906	0.391983
	C196	C	0.581802	0.413530	0.079671
	C197	C	0.581423	0.604488	0.898127
	C198	C	0.389750	0.607046	0.079039
	C199	C	0.388409	0.412410	0.895443
	C200	C	0.076031	0.605716	0.392843
	C201	C	0.896803	0.603307	0.581946
	C202	C	0.077924	0.409976	0.586457
	C203	C	0.894488	0.412088	0.391780
	C204	C	0.891667	0.600684	0.083076
	C205	C	0.084956	0.419344	0.086687
	C206	C	0.083195	0.601190	0.889944
	C207	C	0.890181	0.418844	0.893872
	C208	C	0.082586	0.912659	0.578835
	C209	C	0.084129	0.106058	0.395746
	C210	C	0.890456	0.104450	0.579154
	C211	C	0.892412	0.914132	0.397374
	C212	C	0.579590	0.107583	0.890470
	C213	C	0.396164	0.106600	0.083952
	C214	C	0.578235	0.913004	0.081750
	C215	C	0.397490	0.914096	0.893546
	Zn216	Zn	0.487674	0.009530	0.738272
	Zn217	Zn	0.488157	0.008284	0.236861
	Zn218	Zn	0.736265	0.509983	-0.010815
	Zn219	Zn	0.236657	0.510683	-0.012450
	Zn220	Zn	-0.013440	0.759143	0.489043
	Zn221	Zn	-0.013632	0.258414	0.487895
	Zn222	Zn	-0.013491	0.508012	0.737945
	Zn223	Zn	-0.013613	0.510491	0.238425
	Zn224	Zn	0.487217	0.758977	-0.012393
	Zn225	Zn	0.486908	0.260083	-0.012125
	Zn226	Zn	0.737498	0.008798	0.487301
	Zn227	Zn	0.237461	0.007464	0.487593
	N228	N	0.399645	0.973659	0.670099
	N229	N	0.573197	0.045073	0.666567
	N230	N	0.577372	0.973596	0.304298
	N231	N	0.402769	0.043592	0.308359
	N232	N	0.667932	0.422099	0.953963
	N233	N	0.667235	0.597047	0.023620
	N234	N	0.306606	0.597679	0.951866
	N235	N	0.307566	0.424779	0.023742
	N236	N	0.951407	0.691730	0.399682
	N237	N	0.021800	0.689090	0.575941
	N238	N	0.951490	0.326420	0.576653
	N239	N	0.021365	0.329629	0.401884
	N240	N	0.951363	0.419623	0.669964
	N241	N	0.022917	0.592300	0.665774
	N242	N	0.950521	0.597326	0.307715
	N243	N	0.022074	0.424361	0.309955
	N244	N	0.399546	0.690722	0.951975
	N245	N	0.574194	0.689712	0.023618
	N246	N	0.572797	0.331286	0.952292
	N247	N	0.398774	0.329248	0.022969
	N248	N	0.668894	0.973150	0.399381
	N249	N	0.666325	0.044587	0.573172
	N250	N	0.305797	0.973054	0.576873
	N251	N	0.308724	0.042611	0.400996
	N252	N	0.902005	0.474245	0.166973
	N253	N	0.074718	0.545663	0.169393
	N254	N	0.071840	0.472971	0.810274
	N255	N	0.898920	0.543662	0.807281
	N256	N	0.167241	0.921346	0.452445
	N257	N	0.168130	0.095718	0.522045
	N258	N	0.808287	0.094700	0.451547
	N259	N	0.807061	0.922213	0.523489
	N260	N	0.452442	0.189590	0.901305
	N261	N	0.521809	0.191484	0.076268
	N262	N	0.451980	0.829095	0.074157
	N263	N	0.522200	0.828033	0.899648
	N264	N	0.451711	0.923205	0.165893
	N265	N	0.523194	0.095115	0.166439
	N266	N	0.452162	0.095842	0.808950
	N267	N	0.523604	0.923720	0.808801
	N268	N	0.899611	0.189510	0.452628
	N269	N	0.073690	0.188276	0.522795
	N270	N	0.074717	0.827661	0.453427
	N271	N	0.899937	0.829148	0.523762
	N272	N	0.166577	0.474987	0.901682
	N273	N	0.166941	0.546307	0.074614
	N274	N	0.806317	0.475474	0.076592
	N275	N	0.805550	0.544511	0.900705
	O276	O	0.278910	0.301767	0.692073
	H277	H	0.288917	0.334334	0.694847
	H278	H	0.247932	0.270286	0.726112
	O279	O	0.692956	0.538786	0.668062
	H280	H	0.707720	0.559087	0.677469
	H281	H	0.700676	0.561508	0.677972
	O282	O	0.872048	1.212121	-0.037701
	H283	H	0.863687	1.216124	-0.029121
	H284	H	0.880829	1.234024	-0.024716
	O285	O	0.371597	0.494626	0.475076
	H286	H	0.378539	0.500491	0.486928
	H287	H	0.373835	0.475297	0.480049
	O288	O	-0.030896	-0.010984	0.159701
	H289	H	-0.045559	-0.006120	0.148094
	H290	H	-0.043397	-0.010624	0.166056
	O291	O	1.188532	1.214451	0.164132
	H292	H	1.158343	1.230301	0.175611
	H293	H	1.195033	1.230676	0.193200
	O294	O	-0.207601	1.004756	-0.028168
	H295	H	-0.201793	0.989552	-0.027880
	H296	H	-0.208683	1.007754	-0.038427
	O297	O	0.646877	0.258346	0.743099
	H298	H	0.643992	0.280260	0.758156
	H299	H	0.673923	0.263651	0.735450
	O300	O	0.554855	0.479091	0.462365
	H301	H	0.544999	0.493317	0.463267
	H302	H	0.568825	0.493994	0.471668
	O303	O	0.342912	0.331127	0.303936
	H304	H	0.359128	0.351866	0.318258
	H305	H	0.357260	0.343598	0.324550
	O306	O	0.130770	0.981416	0.791652
	H307	H	0.144296	0.976441	0.785417
	H308	H	0.134426	0.970367	0.805462
	O309	O	0.459231	0.728444	0.268891
	H310	H	0.454704	0.750204	0.240631
	H311	H	0.448041	0.726032	0.276207
	O312	O	0.466587	0.692698	0.640956
	H313	H	0.447387	0.679170	0.631261
	H314	H	0.458723	0.695269	0.633367
	O315	O	-0.119016	-0.192757	0.866279
	H316	H	-0.094347	-0.193897	0.882859
	H317	H	-0.105048	-0.185083	0.859776
	O318	O	-0.028979	0.798964	0.201509
	H319	H	-0.045541	0.768691	0.231767
	H320	H	-0.036033	0.825823	0.197110
	O321	O	0.703619	0.480054	0.271000
	H322	H	0.720815	0.460293	0.255213
	H323	H	0.713035	0.457723	0.271961
	O324	O	0.376351	0.703925	0.518988
	H325	H	0.373789	0.700354	0.502050
	H326	H	0.358928	0.708818	0.496619
	O327	O	1.041164	0.215481	1.182120
	H328	H	1.017545	0.195750	1.183505
	H329	H	1.024168	0.236445	1.204395
	O330	O	1.018741	0.133066	-0.003490
	H331	H	1.012390	0.137299	-0.024441
	H332	H	1.006281	0.109105	-0.002245
	O333	O	0.776990	0.992090	1.190571
	H334	H	0.766295	1.000808	1.166522
	H335	H	0.754870	0.992844	1.202756
	O336	O	1.174948	0.199837	0.800028
	H337	H	1.150975	0.175219	0.810135
	H338	H	1.162118	0.185620	0.827447
	O339	O	0.548253	0.463468	0.525115
	H340	H	0.547742	0.452125	0.518384
	H341	H	0.547823	0.476064	0.532501
	O342	O	0.535506	0.363053	0.291868
	H343	H	0.514708	0.388807	0.289364
	H344	H	0.540265	0.358049	0.270673
	O345	O	0.013252	-0.179409	0.018535
	H346	H	0.014957	-0.170496	0.021033
	H347	H	0.013348	-0.174974	0.040773
	O348	O	1.112201	0.028227	0.920018
	H349	H	1.111982	0.025917	0.925340
	H350	H	1.109941	0.048424	0.923071
	O351	O	1.654562	0.517418	0.429818
	H352	H	1.662363	0.530488	0.426269
	H353	H	1.657131	0.527170	0.440452
	O354	O	0.599958	0.493119	0.583707
	H355	H	0.590750	0.514020	0.585515
	H356	H	0.626648	0.497271	0.594000
	O357	O	0.772870	0.797483	1.008441
	H358	H	0.754762	0.781036	0.996849
	H359	H	0.780388	0.791885	1.001938
	O360	O	0.421581	0.503048	0.289669
	H361	H	0.415535	0.523307	0.287523
	H362	H	0.425326	0.518287	0.294306
	O363	O	0.388565	0.567254	0.619264
	H364	H	0.383792	0.562389	0.612615
	H365	H	0.396974	0.567510	0.627933
	O366	O	1.246643	-0.253785	1.252254
	H367	H	1.251223	-0.258970	1.239514
	H368	H	1.229217	-0.248172	1.269742
	O369	O	0.511455	0.524845	0.594950
	H370	H	0.498841	0.515574	0.599321
	H371	H	0.518200	0.524885	0.601172
	O372	O	0.269677	0.472173	0.699090
	H373	H	0.268369	0.486754	0.697875
	H374	H	0.257376	0.463186	0.710665
	O375	O	-0.187012	0.831505	1.166662
	H376	H	-0.180405	0.826908	1.147231
	H377	H	-0.196936	0.861985	1.162030
	O378	O	0.313107	0.564858	0.456638
	H379	H	0.308389	0.559252	0.468408
	H380	H	0.318078	0.571952	0.456550
	O381	O	0.936314	-0.018731	0.003519
	H382	H	0.934440	-0.011813	-0.001577
	H383	H	0.951828	-0.014153	-0.005006
	O384	O	-0.170551	0.102991	1.103219
	H385	H	-0.157102	0.093882	1.099514
	H386	H	-0.186612	0.092304	1.100013
	O387	O	0.002596	0.800514	0.846636
	H388	H	0.003918	0.784306	0.857196
	H389	H	0.041228	0.805070	0.853736
	O390	O	0.161970	-0.182406	0.798703
	H391	H	0.176455	-0.191432	0.846296
	H392	H	0.169860	-0.154724	0.791632
	O393	O	1.167360	1.143348	-0.012545
	H394	H	1.169457	1.156269	0.003339
	H395	H	1.153153	1.159442	0.003658
	O396	O	0.681982	0.308507	0.289029
	H397	H	0.646735	0.302354	0.286174
	H398	H	0.684425	0.302422	0.333963
	O399	O	0.678403	0.685480	0.681509
	H400	H	0.637765	0.693548	0.688571
	H401	H	0.688253	0.709235	0.663206
	O402	O	-0.036515	0.088364	1.139446
	H403	H	-0.034121	0.078189	1.139498
	H404	H	-0.042098	0.080693	1.140366
	O405	O	0.023731	0.226391	0.065000
	H406	H	0.021306	0.216110	0.092423
	H407	H	0.047756	0.236538	0.054320
	O408	O	1.105252	0.975646	0.940365
	H409	H	1.105677	0.980866	0.933139
	H410	H	1.107318	0.976476	0.941718
	O411	O	0.468323	0.303419	0.495319
	H412	H	0.465701	0.296022	0.489856
	H413	H	0.466371	0.309186	0.510911
	O414	O	0.369078	0.509423	0.575268
	H415	H	0.378943	0.490313	0.580129
	H416	H	0.373011	0.504946	0.566418
	O417	O	0.953068	0.220664	0.776754
	H418	H	0.964137	0.229755	0.754036
	H419	H	0.956505	0.215499	0.765172
	O420	O	0.510772	0.484524	0.599491
	H421	H	0.494228	0.477143	0.602326
	H422	H	0.518860	0.489374	0.591234
	O423	O	0.196726	0.800888	-0.040207
	H424	H	0.197374	0.821694	-0.021198
	H425	H	0.219725	0.780891	-0.023786
	O426	O	0.887187	0.987785	0.775584
	H427	H	0.871137	0.962555	0.767310
	H428	H	0.863138	0.975337	0.782415
	O429	O	0.276242	0.543364	0.294651
	H430	H	0.253756	0.539356	0.287917
	H431	H	0.280891	0.544652	0.302144
	O432	O	0.781149	0.029683	0.844569
	H433	H	0.772539	0.021705	0.832730
	H434	H	0.783351	0.045928	0.836365
	O435	O	0.066411	0.065531	-0.228009
	H436	H	0.073838	0.048875	-0.237777
	H437	H	0.052575	0.039571	-0.227063
	O438	O	1.271696	-0.368372	0.386292
	H439	H	1.261839	-0.362764	0.373668
	H440	H	1.274467	-0.377610	0.391924
	O441	O	0.507705	0.289922	0.679666
	H442	H	0.498832	0.267852	0.699437
	H443	H	0.471958	0.292993	0.669600
	O444	O	0.199469	1.040842	1.200421
	H445	H	0.195820	1.062456	1.197340
	H446	H	0.221755	1.065018	1.218530
	O447	O	0.671925	0.725037	0.527651
	H448	H	0.679263	0.732306	0.512656
	H449	H	0.679527	0.739438	0.530484
	O450	O	0.690572	0.303811	0.456828
	H451	H	0.689797	0.300570	0.476957
	H452	H	0.698667	0.315244	0.475821
	O453	O	0.657790	0.599167	0.393117
	H454	H	0.662132	0.598047	0.379068
	H455	H	0.655315	0.588381	0.385202
	O456	O	1.114834	0.002291	0.103833
	H457	H	1.110627	0.014549	0.111174
	H458	H	1.097227	0.006141	0.108366
	O459	O	0.282787	0.308063	0.512536
	H460	H	0.285458	0.294341	0.521632
	H461	H	0.274802	0.301395	0.548143
	O462	O	0.552265	0.703875	0.405003
	H463	H	0.553049	0.695607	0.396444
	H464	H	0.545759	0.699917	0.403300
	O465	O	0.772526	0.130885	-0.167701
	H466	H	0.763909	0.167395	-0.150977
	H467	H	0.760191	0.138395	-0.205695
