data_Molecule from HDF5

_cell_length_a		16.587536
_cell_length_b		16.568692
_cell_length_c		16.659200
_cell_angle_alpha	89.919945
_cell_angle_beta	89.873736
_cell_angle_gamma	90.114129
_symmetry_space_group_name_H-M	'P 1'
_symmetry_Int_Tables_number		1

loop_
	_symmetry_equiv_pos_as_xyz
	x,y,z

loop_
	_atom_site_label
	_atom_site_type_symbol
	_atom_site_fract_x
	_atom_site_fract_y
	_atom_site_fract_z
	H0	H	0.393741	0.845494	0.715973
	H1	H	0.604020	0.158793	0.716528
	H2	H	0.601710	0.844150	0.276793
	H3	H	0.396977	0.160242	0.276891
	H4	H	0.722381	0.397050	0.841339
	H5	H	0.716243	0.605497	0.152589
	H6	H	0.276743	0.606785	0.839822
	H7	H	0.278351	0.399116	0.152395
	H8	H	0.841856	0.722356	0.393923
	H9	H	0.154968	0.722186	0.599862
	H10	H	0.840398	0.283388	0.597806
	H11	H	0.155048	0.282730	0.391261
	H12	H	0.841251	0.397344	0.716428
	H13	H	0.155618	0.605223	0.715127
	H14	H	0.842727	0.608254	0.276408
	H15	H	0.154010	0.397551	0.274196
	H16	H	0.394241	0.723107	0.839268
	H17	H	0.599101	0.720829	0.153142
	H18	H	0.604377	0.281332	0.840449
	H19	H	0.395018	0.282685	0.152077
	H20	H	0.717432	0.844224	0.393295
	H21	H	0.720040	0.158952	0.599545
	H22	H	0.278942	0.846018	0.599243
	H23	H	0.278738	0.159053	0.392214
	H24	H	0.894564	0.345891	0.214770
	H25	H	0.100005	0.660411	0.213862
	H26	H	0.102252	0.345612	0.776631
	H27	H	0.896000	0.660043	0.777083
	H28	H	0.219247	0.898470	0.340206
	H29	H	0.217972	0.105982	0.652444
	H30	H	0.781370	0.102431	0.338435
	H31	H	0.778652	0.899706	0.652435
	H32	H	0.341115	0.220634	0.893914
	H33	H	0.657353	0.218410	0.094112
	H34	H	0.339243	0.786503	0.096155
	H35	H	0.656030	0.786112	0.895653
	H36	H	0.340761	0.899347	0.215627
	H37	H	0.657890	0.102038	0.210648
	H38	H	0.341069	0.104663	0.777609
	H39	H	0.655550	0.900693	0.777862
	H40	H	0.898972	0.219171	0.338141
	H41	H	0.101602	0.221960	0.652674
	H42	H	0.102489	0.782085	0.340829
	H43	H	0.897362	0.785586	0.654719
	H44	H	0.216050	0.344700	0.893868
	H45	H	0.215451	0.660868	0.096340
	H46	H	0.779216	0.345764	0.098078
	H47	H	0.781636	0.661217	0.895273
	H48	H	0.408334	0.114817	0.586200
	H49	H	0.585401	0.894134	0.577786
	H50	H	0.585192	0.113734	0.402243
	H51	H	0.407764	0.891626	0.411006
	H52	H	0.587825	0.413830	0.107057
	H53	H	0.587756	0.596197	0.883737
	H54	H	0.400794	0.597501	0.110155
	H55	H	0.407818	0.410137	0.883479
	H56	H	0.110016	0.597795	0.412745
	H57	H	0.885687	0.593112	0.585315
	H58	H	0.110266	0.411280	0.585261
	H59	H	0.886163	0.411927	0.406168
	H60	H	0.110797	0.413777	0.587975
	H61	H	0.886726	0.590474	0.587963
	H62	H	0.106938	0.583261	0.406960
	H63	H	0.886363	0.413589	0.406647
	H64	H	0.404869	0.587232	0.106278
	H65	H	0.591869	0.593334	0.883626
	H66	H	0.587066	0.411798	0.106881
	H67	H	0.405228	0.414146	0.883846
	H68	H	0.591734	0.114041	0.407655
	H69	H	0.596791	0.887121	0.587761
	H70	H	0.408906	0.116296	0.587591
	H71	H	0.406653	0.888686	0.403815
	H72	H	0.911524	0.616572	0.091327
	H73	H	0.084906	0.392924	0.082233
	H74	H	0.091137	0.617186	0.899824
	H75	H	0.909360	0.388532	0.900165
	H76	H	0.086772	0.912787	0.607915
	H77	H	0.084548	0.087527	0.387910
	H78	H	0.911852	0.098385	0.608101
	H79	H	0.907333	0.917750	0.385865
	H80	H	0.609686	0.093784	0.909973
	H81	H	0.384831	0.097309	0.085481
	H82	H	0.608416	0.920389	0.089655
	H83	H	0.386559	0.914315	0.907715
	H84	H	0.615159	0.906185	0.094402
	H85	H	0.388070	0.089827	0.083622
	H86	H	0.609572	0.087279	0.903670
	H87	H	0.384358	0.914505	0.901592
	H88	H	0.901818	0.093009	0.610630
	H89	H	0.085865	0.100257	0.382412
	H90	H	0.089495	0.909858	0.609623
	H91	H	0.913719	0.907048	0.384246
	H92	H	0.081716	0.612965	0.904745
	H93	H	0.090951	0.389017	0.086158
	H94	H	0.909517	0.613894	0.082195
	H95	H	0.914198	0.393647	0.910455
	H96	H	0.410161	0.115045	0.586949
	H97	H	0.581605	0.890006	0.593404
	H98	H	0.592760	0.116747	0.399967
	H99	H	0.414293	0.891697	0.406057
	H100	H	0.588553	0.412497	0.107768
	H101	H	0.587282	0.591449	0.884758
	H102	H	0.411532	0.596858	0.106194
	H103	H	0.409826	0.413697	0.884775
	H104	H	0.114331	0.594417	0.397760
	H105	H	0.884602	0.593695	0.588661
	H106	H	0.111474	0.410282	0.588436
	H107	H	0.886076	0.413619	0.405061
	H108	H	0.902266	0.618411	0.087935
	H109	H	0.084151	0.390256	0.089975
	H110	H	0.091120	0.614804	0.910681
	H111	H	0.902470	0.389373	0.910390
	H112	H	0.091018	0.913692	0.607933
	H113	H	0.096716	0.091958	0.382887
	H114	H	0.910414	0.086801	0.605055
	H115	H	0.901758	0.907740	0.381337
	H116	H	0.613384	0.095998	0.901599
	H117	H	0.384946	0.091512	0.091543
	H118	H	0.609342	0.908002	0.078746
	H119	H	0.383739	0.908847	0.904640
	C120	C	0.377402	0.011059	0.617522
	C121	C	0.619244	0.994439	0.616791
	C122	C	0.620185	0.010269	0.373842
	C123	C	0.378110	0.994395	0.375157
	C124	C	0.620007	0.381508	0.004067
	C125	C	0.619104	0.624592	0.987559
	C126	C	0.375688	0.624491	0.003661
	C127	C	0.376382	0.381152	0.987332
	C128	C	0.007134	0.623948	0.375146
	C129	C	0.989922	0.623190	0.617913
	C130	C	0.006707	0.380688	0.617541
	C131	C	0.989653	0.381064	0.374073
	C132	C	0.876704	0.511987	0.117869
	C133	C	0.118201	0.494652	0.116835
	C134	C	0.119361	0.511038	0.874264
	C135	C	0.877645	0.494396	0.875824
	C136	C	0.120143	0.881232	0.504871
	C137	C	0.120083	0.124423	0.487697
	C138	C	0.877490	0.123199	0.504056
	C139	C	0.877074	0.880623	0.487835
	C140	C	0.507111	0.123664	0.874179
	C141	C	0.490261	0.123272	0.116542
	C142	C	0.506454	0.881139	0.117960
	C143	C	0.489230	0.881846	0.874621
	C144	C	0.375474	0.892967	0.676436
	C145	C	0.622106	0.112148	0.676278
	C146	C	0.620835	0.891636	0.315842
	C147	C	0.377867	0.113046	0.316516
	C148	C	0.681172	0.379234	0.887449
	C149	C	0.677047	0.624838	0.105499
	C150	C	0.316998	0.625331	0.886289
	C151	C	0.318066	0.380383	0.105357
	C152	C	0.889178	0.683023	0.374819
	C153	C	0.108024	0.682172	0.618673
	C154	C	0.887828	0.322675	0.617451
	C155	C	0.107663	0.322192	0.372491
	C156	C	0.888269	0.379157	0.676439
	C157	C	0.108202	0.624050	0.675918
	C158	C	0.889400	0.626406	0.316249
	C159	C	0.107217	0.379465	0.314379
	C160	C	0.375280	0.683078	0.886015
	C161	C	0.618802	0.682171	0.105821
	C162	C	0.622671	0.321794	0.886901
	C163	C	0.375913	0.322493	0.105175
	C164	C	0.678013	0.891470	0.374028
	C165	C	0.679619	0.112140	0.618287
	C166	C	0.318331	0.893103	0.618365
	C167	C	0.319068	0.112437	0.373585
	C168	C	0.875839	0.393374	0.175664
	C169	C	0.119306	0.613355	0.174644
	C170	C	0.120506	0.392653	0.816182
	C171	C	0.877026	0.612897	0.816909
	C172	C	0.179182	0.880278	0.387185
	C173	C	0.178302	0.124917	0.605560
	C174	C	0.820314	0.122532	0.385589
	C175	C	0.818651	0.880699	0.605941
	C176	C	0.388401	0.181510	0.874401
	C177	C	0.609824	0.179857	0.114379
	C178	C	0.387045	0.824712	0.116586
	C179	C	0.608396	0.824639	0.875521
	C180	C	0.387983	0.880615	0.176086
	C181	C	0.610037	0.122086	0.172243
	C182	C	0.388517	0.123949	0.816654
	C183	C	0.608289	0.881668	0.817203
	C184	C	0.878784	0.180267	0.385341
	C185	C	0.120498	0.182645	0.605724
	C186	C	0.121359	0.822197	0.387435
	C187	C	0.877856	0.824229	0.606969
	C188	C	0.177436	0.392311	0.874322
	C189	C	0.176538	0.613447	0.116335
	C190	C	0.818648	0.393146	0.117528
	C191	C	0.820408	0.613699	0.875838
	C192	C	0.401928	0.093822	0.593679
	C193	C	0.594798	0.911945	0.593094
	C194	C	0.596650	0.093291	0.396935
	C195	C	0.402553	0.912208	0.399933
	C196	C	0.594887	0.405783	0.085796
	C197	C	0.595731	0.600623	0.905487
	C198	C	0.399168	0.600678	0.086263
	C199	C	0.400673	0.405628	0.905177
	C200	C	0.089186	0.598992	0.399084
	C201	C	0.907079	0.599196	0.594021
	C202	C	0.089269	0.404861	0.593942
	C203	C	0.907431	0.405868	0.398891
	C204	C	0.900732	0.594819	0.094043
	C205	C	0.093614	0.412226	0.093021
	C206	C	0.095018	0.593616	0.898049
	C207	C	0.901501	0.412014	0.900034
	C208	C	0.096031	0.905299	0.587125
	C209	C	0.095920	0.100246	0.405809
	C210	C	0.901081	0.099472	0.586523
	C211	C	0.900825	0.904027	0.405339
	C212	C	0.589611	0.099295	0.898074
	C213	C	0.407480	0.099583	0.093525
	C214	C	0.589497	0.904679	0.094356
	C215	C	0.406441	0.905612	0.897811
	Zn216	Zn	0.498685	0.002827	0.745808
	Zn217	Zn	0.498814	0.002316	0.245747
	Zn218	Zn	0.748321	0.503451	-0.003635
	Zn219	Zn	0.247036	0.502220	-0.004178
	Zn220	Zn	-0.001147	0.752408	0.496930
	Zn221	Zn	-0.001548	0.253068	0.495776
	Zn222	Zn	-0.002288	0.502104	0.746341
	Zn223	Zn	-0.002020	0.503527	0.246165
	Zn224	Zn	0.497458	0.753206	-0.004159
	Zn225	Zn	0.498407	0.252393	-0.004808
	Zn226	Zn	0.748188	0.001857	0.495865
	Zn227	Zn	0.248959	0.003123	0.496003
	N228	N	0.411501	0.967580	0.676190
	N229	N	0.585240	0.037924	0.675543
	N230	N	0.585907	0.966628	0.315348
	N231	N	0.413553	0.038372	0.317038
	N232	N	0.679545	0.415785	0.961240
	N233	N	0.677472	0.589735	0.031119
	N234	N	0.317152	0.589582	0.960636
	N235	N	0.317925	0.415898	0.030884
	N236	N	0.963441	0.681725	0.410910
	N237	N	0.033378	0.681701	0.583223
	N238	N	0.962442	0.323304	0.581657
	N239	N	0.033309	0.322823	0.408745
	N240	N	0.963226	0.414357	0.676931
	N241	N	0.033458	0.588128	0.675644
	N242	N	0.963541	0.590139	0.316351
	N243	N	0.032694	0.415605	0.315272
	N244	N	0.410974	0.682604	0.960183
	N245	N	0.583425	0.682391	0.031353
	N246	N	0.585039	0.323187	0.960322
	N247	N	0.411386	0.322542	0.030549
	N248	N	0.678179	0.966502	0.409229
	N249	N	0.678074	0.037844	0.581992
	N250	N	0.319302	0.967677	0.582425
	N251	N	0.318827	0.037578	0.409052
	N252	N	0.910980	0.468431	0.176196
	N253	N	0.084097	0.538362	0.175362
	N254	N	0.085380	0.467575	0.815723
	N255	N	0.911588	0.537679	0.816514
	N256	N	0.178800	0.916054	0.461494
	N257	N	0.178476	0.089526	0.531135
	N258	N	0.819248	0.088084	0.460549
	N259	N	0.817709	0.914588	0.530745
	N260	N	0.463365	0.181729	0.909272
	N261	N	0.534199	0.181199	0.080863
	N262	N	0.461902	0.824745	0.081185
	N263	N	0.533257	0.824275	0.910198
	N264	N	0.463451	0.914682	0.177155
	N265	N	0.534607	0.087867	0.174166
	N266	N	0.463477	0.088994	0.816210
	N267	N	0.533078	0.916118	0.816112
	N268	N	0.913282	0.181014	0.460188
	N269	N	0.085132	0.182801	0.531322
	N270	N	0.085446	0.822685	0.461550
	N271	N	0.913172	0.823564	0.532251
	N272	N	0.177114	0.467167	0.909657
	N273	N	0.176212	0.538549	0.081320
	N274	N	0.818586	0.468211	0.082527
	N275	N	0.820295	0.538909	0.911595
	O276	O	0.207632	0.793338	-0.041738
	H277	H	0.209907	0.777014	-0.043321
	H278	H	0.211773	0.798582	-0.046610
	O279	O	0.281316	0.482875	0.646821
	H280	H	0.272609	0.479663	0.659376
	H281	H	0.288281	0.472322	0.637014
	O282	O	0.934702	0.223678	1.034362
	H283	H	0.959073	0.227689	1.043729
	H284	H	0.956094	0.216619	1.032999
	O285	O	0.554637	0.442423	0.726776
	H286	H	0.550267	0.459392	0.732608
	H287	H	0.556803	0.454092	0.724919
	O288	O	0.325462	0.602443	0.562075
	H289	H	0.326106	0.580967	0.559090
	H290	H	0.327876	0.590513	0.590153
	O291	O	0.276158	0.422539	0.440576
	H292	H	0.271418	0.409637	0.462067
	H293	H	0.287923	0.440396	0.437495
	O294	O	0.826015	0.199129	0.812288
	H295	H	0.814144	0.198640	0.850566
	H296	H	0.814773	0.197574	0.798185
	O297	O	0.456878	0.724887	0.271785
	H298	H	0.446915	0.749634	0.255710
	H299	H	0.473829	0.738580	0.289954
	O300	O	-0.030223	0.192688	0.782337
	H301	H	-0.039882	0.223298	0.755283
	H302	H	-0.064505	0.180614	0.799255
	O303	O	0.720432	0.728654	0.533235
	H304	H	0.710362	0.727861	0.547153
	H305	H	0.745681	0.757207	0.542447
	O306	O	0.707685	0.282329	0.449937
	H307	H	0.682967	0.296802	0.477775
	H308	H	0.737869	0.254801	0.459952
	O309	O	0.417210	0.639587	0.578728
	H310	H	0.414605	0.656171	0.562420
	H311	H	0.408371	0.633556	0.591101
	O312	O	0.538513	0.727421	0.723807
	H313	H	0.533462	0.759852	0.755518
	H314	H	0.555394	0.728095	0.702647
	O315	O	0.902714	1.024466	0.878114
	H316	H	0.914061	1.036087	0.879197
	H317	H	0.907168	1.033696	0.860690
	O318	O	0.589131	0.374711	0.482818
	H319	H	0.591865	0.398544	0.476351
	H320	H	0.580587	0.367739	0.477903
	O321	O	0.195681	0.801782	0.795234
	H322	H	0.223518	0.779542	0.781311
	H323	H	0.201054	0.837267	0.801245
	O324	O	0.982156	0.780512	-0.021229
	H325	H	0.991603	0.774946	-0.039686
	H326	H	0.982028	0.779313	0.000687
	O327	O	0.035660	0.219586	1.178400
	H328	H	0.049522	0.215400	1.188131
	H329	H	0.043181	0.229488	1.199330
	O330	O	0.528868	0.460313	0.328124
	H331	H	0.534862	0.465088	0.322305
	H332	H	0.543244	0.461192	0.330674
	O333	O	0.462233	0.284857	0.717739
	H334	H	0.466911	0.274461	0.739156
	H335	H	0.471811	0.285227	0.713575
	O336	O	0.804360	0.200090	0.193502
	H337	H	0.822420	0.184940	0.182838
	H338	H	0.815632	0.183776	0.176347
	O339	O	0.714015	-0.279592	0.712652
	H340	H	0.693266	-0.294915	0.708307
	H341	H	0.740722	-0.258374	0.729146
	O342	O	0.015973	-0.051695	0.015823
	H343	H	0.025967	-0.046553	0.009205
	H344	H	-0.005549	-0.050829	0.022610
	O345	O	-0.042505	1.071350	1.199040
	H346	H	-0.071299	1.054914	1.207503
	H347	H	-0.028188	1.064135	1.195983
	O348	O	0.309834	0.314115	0.309053
	H349	H	0.336049	0.319943	0.327300
	H350	H	0.316072	0.345482	0.329381
	O351	O	0.591108	0.566118	0.291144
	H352	H	0.580754	0.571555	0.285654
	H353	H	0.597523	0.547789	0.282243
	O354	O	0.220704	-0.019289	1.023486
	H355	H	0.224759	-0.031640	1.025092
	H356	H	0.210695	-0.015728	1.027322
	O357	O	0.686761	0.513232	0.482374
	H358	H	0.696999	0.525807	0.483078
	H359	H	0.685973	0.520833	0.472984
	O360	O	0.285634	0.292275	0.711704
	H361	H	0.308473	0.305526	0.702226
	H362	H	0.284923	0.284829	0.717503
	O363	O	0.013347	-0.090418	0.118132
	H364	H	0.025561	-0.082141	0.105323
	H365	H	0.003544	-0.083466	0.124634
	O366	O	0.713353	0.505281	0.713069
	H367	H	0.705716	0.515852	0.706476
	H368	H	0.737807	0.508557	0.737880
	O369	O	0.908317	0.029545	0.077531
	H370	H	0.905166	0.038381	0.069905
	H371	H	0.912064	0.011052	0.072052
	O372	O	0.810745	0.801026	0.052602
	H373	H	0.805503	0.787878	0.044064
	H374	H	0.808888	0.804072	0.053753
	O375	O	0.833343	-0.145313	0.207368
	H376	H	0.811721	-0.165421	0.227074
	H377	H	0.835424	-0.158866	0.183428
	O378	O	0.459587	0.373502	0.369768
	H379	H	0.467296	0.380917	0.368460
	H380	H	0.464330	0.365635	0.353718
	O381	O	-0.129882	0.876453	0.869860
	H382	H	-0.106580	0.893128	0.880469
	H383	H	-0.114118	0.874096	0.854455
	O384	O	0.788178	0.009785	0.915772
	H385	H	0.799190	0.000829	0.918125
	H386	H	0.793296	0.004806	0.920842
	O387	O	0.969557	0.972832	0.002713
	H388	H	0.950813	0.965209	0.004419
	H389	H	0.988630	0.984372	-0.002200
	O390	O	0.692256	0.290253	0.300276
	H391	H	0.719406	0.259526	0.275493
	H392	H	0.692079	0.284876	0.346992
	O393	O	0.682892	0.638079	0.383200
	H394	H	0.684382	0.627762	0.405068
	H395	H	0.677859	0.618307	0.393136
	O396	O	0.081355	1.051123	1.008608
	H397	H	0.085452	1.062886	1.010821
	H398	H	0.088394	1.047893	0.999258
	O399	O	0.204780	-0.031067	0.782413
	H400	H	0.203898	-0.025012	0.776816
	H401	H	0.219684	-0.029702	0.789414
	O402	O	0.519631	0.556662	0.557407
	H403	H	0.517071	0.557561	0.558283
	H404	H	0.521822	0.556207	0.557774
	O405	O	1.120331	0.005335	0.935266
	H406	H	1.126667	-0.014197	0.942600
	H407	H	1.123905	0.019333	0.946700
	O408	O	0.212930	0.220398	0.030984
	H409	H	0.221673	0.237870	0.041914
	H410	H	0.218817	0.225964	0.054882
	O411	O	0.496204	0.454144	0.545545
	H412	H	0.492080	0.452132	0.539953
	H413	H	0.498669	0.460399	0.543864
	O414	O	0.716474	0.417313	0.593615
	H415	H	0.715008	0.411869	0.599992
	H416	H	0.722231	0.406919	0.604863
	O417	O	0.470974	0.347602	0.525140
	H418	H	0.471710	0.344099	0.531814
	H419	H	0.473422	0.371873	0.522064
	O420	O	0.305791	0.690009	0.687697
	H421	H	0.317365	0.681796	0.654432
	H422	H	0.317969	0.669695	0.692691
	O423	O	0.032441	0.183881	0.890122
	H424	H	0.036151	0.181194	0.898444
	H425	H	0.015516	0.186752	0.859402
	O426	O	0.282470	0.720156	0.467814
	H427	H	0.269355	0.728426	0.447922
	H428	H	0.274211	0.720309	0.465058
	O429	O	0.814170	0.840905	0.847333
	H430	H	0.827770	0.845603	0.854642
	H431	H	0.825793	0.863134	0.854314
	O432	O	0.486581	0.656232	0.511856
	H433	H	0.483701	0.643124	0.498029
	H434	H	0.479114	0.649694	0.506547
	O435	O	0.092775	0.811526	0.187847
	H436	H	0.064991	0.826620	0.188293
	H437	H	0.085144	0.804488	0.170775
	O438	O	0.212519	0.043785	0.208414
	H439	H	0.223743	0.045318	0.222770
	H440	H	0.214929	0.043935	0.203184
	O441	O	0.206286	0.210223	0.204423
	H442	H	0.199539	0.185839	0.205359
	H443	H	0.232964	0.237889	0.232722
	O444	O	0.528100	0.279896	0.286864
	H445	H	0.534272	0.253298	0.267298
	H446	H	0.562823	0.286649	0.289397
	O447	O	0.034489	0.799708	0.785215
	H448	H	0.057771	0.805676	0.780763
	H449	H	0.055648	0.784790	0.770748
	O450	O	-0.155355	0.990340	1.167535
	H451	H	-0.175065	0.983949	1.181241
	H452	H	-0.157344	0.962706	1.164877
	O453	O	0.391836	0.530498	0.721991
	H454	H	0.380535	0.533100	0.713362
	H455	H	0.399624	0.547549	0.733537
	O456	O	0.179630	0.183417	0.823004
	H457	H	0.154273	0.181483	0.837307
	H458	H	0.191663	0.186366	0.819874
	O459	O	0.747665	0.751538	0.242018
	H460	H	0.745509	0.730825	0.243287
	H461	H	0.747916	0.731754	0.259277
	O462	O	0.716359	0.447132	0.276022
	H463	H	0.739931	0.431851	0.256450
	H464	H	0.717142	0.414397	0.274919
	O465	O	0.797565	0.192888	-0.039926
	H466	H	0.796129	0.198546	-0.024724
	H467	H	0.814342	0.194922	-0.026345
	O468	O	0.274129	0.542679	0.287829
	H469	H	0.277259	0.547743	0.291224
	H470	H	0.253725	0.539615	0.268124
	O471	O	0.282324	0.297335	0.536763
	H472	H	0.299847	0.298680	0.553064
	H473	H	0.262265	0.278749	0.545001
	O474	O	0.293593	0.706349	0.294295
	H475	H	0.301888	0.687188	0.301102
	H476	H	0.301123	0.720575	0.277898
	O477	O	0.464989	0.541309	1.363291
	H478	H	0.464518	0.553062	1.365036
	H479	H	0.465296	0.532801	1.341230
	O480	O	0.630374	0.298225	0.636566
	H481	H	0.626276	0.296503	0.618976
	H482	H	0.616462	0.315928	0.628220
	O483	O	0.568584	0.696727	0.483177
	H484	H	0.574864	0.691020	0.487127
	H485	H	0.568613	0.684864	0.486400
	O486	O	0.979502	-0.001364	0.803372
	H487	H	0.988140	-0.009196	0.801928
	H488	H	0.985111	0.009354	0.809841
	O489	O	1.063308	0.842948	0.176120
	H490	H	1.070762	0.839416	0.174274
	H491	H	1.057277	0.853888	0.191056
