data_Molecule from HDF5

_cell_length_a		16.659623
_cell_length_b		16.714175
_cell_length_c		16.605338
_cell_angle_alpha	90.104284
_cell_angle_beta	90.162333
_cell_angle_gamma	89.967441
_symmetry_space_group_name_H-M	'P 1'
_symmetry_Int_Tables_number		1

loop_
	_symmetry_equiv_pos_as_xyz
	x,y,z

loop_
	_atom_site_label
	_atom_site_type_symbol
	_atom_site_fract_x
	_atom_site_fract_y
	_atom_site_fract_z
	H0	H	0.398703	0.834446	0.737660
	H1	H	0.609540	0.144240	0.733619
	H2	H	0.612035	0.833078	0.292727
	H3	H	0.401425	0.142399	0.294919
	H4	H	0.725958	0.383891	0.858627
	H5	H	0.727986	0.594774	0.169095
	H6	H	0.283246	0.594848	0.860075
	H7	H	0.286429	0.383252	0.169549
	H8	H	0.850263	0.706500	0.412702
	H9	H	0.160649	0.710223	0.622166
	H10	H	0.853746	0.264310	0.621567
	H11	H	0.160171	0.266010	0.407868
	H12	H	0.853158	0.380232	0.737364
	H13	H	0.161030	0.592467	0.736833
	H14	H	0.848827	0.589380	0.297687
	H15	H	0.161628	0.384337	0.294500
	H16	H	0.397813	0.711918	0.860252
	H17	H	0.613403	0.711822	0.168682
	H18	H	0.612463	0.266487	0.859491
	H19	H	0.399639	0.265170	0.167801
	H20	H	0.728470	0.834022	0.409076
	H21	H	0.728228	0.142043	0.620791
	H22	H	0.282491	0.834388	0.623051
	H23	H	0.284951	0.141043	0.409240
	H24	H	0.905149	0.332761	0.231225
	H25	H	0.110984	0.643072	0.235653
	H26	H	0.112280	0.334114	0.792876
	H27	H	0.899480	0.642084	0.790628
	H28	H	0.226903	0.882390	0.359466
	H29	H	0.229553	0.094499	0.668227
	H30	H	0.781088	0.097310	0.362122
	H31	H	0.788492	0.885901	0.671477
	H32	H	0.352986	0.212102	0.905604
	H33	H	0.662176	0.207652	0.118000
	H34	H	0.352508	0.766250	0.120379
	H35	H	0.660176	0.766398	0.907697
	H36	H	0.352514	0.882336	0.235978
	H37	H	0.661154	0.093079	0.236425
	H38	H	0.351786	0.094768	0.790756
	H39	H	0.661286	0.884010	0.792696
	H40	H	0.897741	0.211930	0.360904
	H41	H	0.116097	0.212973	0.667098
	H42	H	0.112157	0.765684	0.359858
	H43	H	0.903428	0.768217	0.670948
	H44	H	0.229830	0.334993	0.908406
	H45	H	0.229427	0.642528	0.122388
	H46	H	0.787439	0.333229	0.115991
	H47	H	0.780411	0.640784	0.904165
	H48	H	0.416522	0.098124	0.600204
	H49	H	0.595174	0.877652	0.601939
	H50	H	0.596170	0.095626	0.434224
	H51	H	0.410824	0.875823	0.430663
	H52	H	0.591925	0.401378	0.124696
	H53	H	0.590606	0.572473	0.905942
	H54	H	0.419704	0.581928	0.127471
	H55	H	0.423493	0.399521	0.904268
	H56	H	0.117728	0.577292	0.423743
	H57	H	0.895339	0.577015	0.603390
	H58	H	0.116133	0.398717	0.598272
	H59	H	0.894094	0.397737	0.424301
	H60	H	0.115493	0.404238	0.601883
	H61	H	0.894674	0.577663	0.602032
	H62	H	0.119147	0.579329	0.423360
	H63	H	0.895049	0.398225	0.425594
	H64	H	0.416362	0.576160	0.126588
	H65	H	0.590224	0.582924	0.901752
	H66	H	0.595187	0.393109	0.128349
	H67	H	0.416203	0.397741	0.901129
	H68	H	0.599919	0.101849	0.422771
	H69	H	0.598345	0.876626	0.603140
	H70	H	0.417954	0.098048	0.602706
	H71	H	0.416369	0.872784	0.418220
	H72	H	0.916152	0.601090	0.104905
	H73	H	0.096417	0.375178	0.109917
	H74	H	0.094034	0.596741	0.929842
	H75	H	0.914612	0.376338	0.923533
	H76	H	0.101259	0.901341	0.627405
	H77	H	0.095284	0.075402	0.403561
	H78	H	0.921832	0.075649	0.624391
	H79	H	0.916551	0.897572	0.403009
	H80	H	0.617509	0.071597	0.919923
	H81	H	0.393213	0.081757	0.104881
	H82	H	0.616744	0.901747	0.101735
	H83	H	0.396770	0.908211	0.921653
	H84	H	0.617393	0.901260	0.101872
	H85	H	0.396465	0.078317	0.099977
	H86	H	0.620563	0.083877	0.922092
	H87	H	0.391801	0.895454	0.921833
	H88	H	0.919825	0.076102	0.625056
	H89	H	0.093528	0.075184	0.403831
	H90	H	0.090403	0.903237	0.623182
	H91	H	0.917385	0.896622	0.402784
	H92	H	0.097086	0.600242	0.925938
	H93	H	0.091538	0.380121	0.101649
	H94	H	0.914753	0.600672	0.105313
	H95	H	0.921335	0.379825	0.924551
	H96	H	0.419371	0.096639	0.601236
	H97	H	0.595575	0.876226	0.606020
	H98	H	0.587321	0.096750	0.423449
	H99	H	0.423689	0.879867	0.427970
	H100	H	0.600737	0.400685	0.127536
	H101	H	0.599571	0.576981	0.900301
	H102	H	0.422575	0.576876	0.124571
	H103	H	0.417552	0.405061	0.904281
	H104	H	0.118351	0.579371	0.425701
	H105	H	0.895564	0.576485	0.601737
	H106	H	0.118404	0.398827	0.604538
	H107	H	0.895081	0.398893	0.423894
	H108	H	0.915680	0.601540	0.105752
	H109	H	0.101531	0.376825	0.100773
	H110	H	0.091349	0.598539	0.925319
	H111	H	0.916201	0.380260	0.930458
	H112	H	0.092870	0.893241	0.628198
	H113	H	0.093539	0.076811	0.403059
	H114	H	0.920571	0.074636	0.624620
	H115	H	0.916086	0.896431	0.401889
	H116	H	0.615379	0.077118	0.931610
	H117	H	0.394749	0.075051	0.106008
	H118	H	0.616329	0.901019	0.101361
	H119	H	0.398325	0.900382	0.932968
	C120	C	0.384531	-0.003552	0.635466
	C121	C	0.627916	0.979517	0.635961
	C122	C	0.627420	-0.003771	0.393566
	C123	C	0.384822	0.978409	0.393241
	C124	C	0.627615	0.366821	0.023311
	C125	C	0.626639	0.609765	1.005431
	C126	C	0.385263	0.610717	0.023568
	C127	C	0.386101	0.367768	1.005569
	C128	C	0.014704	0.609076	0.393771
	C129	C	0.997828	0.609199	0.635566
	C130	C	0.015366	0.366965	0.635371
	C131	C	0.997169	0.365988	0.392552
	C132	C	0.884653	0.497909	0.135622
	C133	C	0.128296	0.479997	0.136388
	C134	C	0.127025	0.496655	0.894456
	C135	C	0.884549	0.480270	0.892502
	C136	C	0.127318	0.866542	0.523253
	C137	C	0.127733	0.108959	0.505580
	C138	C	0.886145	0.109055	0.522963
	C139	C	0.885525	0.866295	0.506126
	C140	C	0.515174	0.110113	0.891982
	C141	C	0.497868	0.109741	0.135812
	C142	C	0.514869	0.868151	0.134577
	C143	C	0.497910	0.868346	0.892877
	C144	C	0.381097	0.880772	0.697075
	C145	C	0.628876	0.096794	0.694793
	C146	C	0.630131	0.879857	0.332982
	C147	C	0.383124	0.095252	0.334200
	C148	C	0.686471	0.365264	0.905761
	C149	C	0.687965	0.613084	0.122211
	C150	C	0.323494	0.613430	0.906940
	C151	C	0.325902	0.364773	0.122414
	C152	C	0.896926	0.666939	0.393455
	C153	C	0.114463	0.669369	0.639312
	C154	C	0.899739	0.305270	0.639060
	C155	C	0.113946	0.306171	0.389927
	C156	C	0.899453	0.362965	0.696671
	C157	C	0.114693	0.611233	0.696403
	C158	C	0.896445	0.608909	0.336219
	C159	C	0.114363	0.364726	0.333412
	C160	C	0.380618	0.671463	0.906784
	C161	C	0.630958	0.671271	0.121961
	C162	C	0.630149	0.306768	0.906186
	C163	C	0.382417	0.306147	0.121598
	C164	C	0.688110	0.880323	0.390713
	C165	C	0.687717	0.096038	0.638500
	C166	C	0.323071	0.880955	0.639912
	C167	C	0.324860	0.094787	0.390914
	C168	C	0.885315	0.379737	0.192510
	C169	C	0.129987	0.596422	0.196226
	C170	C	0.130094	0.380452	0.833576
	C171	C	0.881467	0.595960	0.831203
	C172	C	0.187109	0.863883	0.406086
	C173	C	0.189155	0.112381	0.621674
	C174	C	0.822666	0.114021	0.408002
	C175	C	0.827671	0.866314	0.624302
	C176	C	0.399185	0.171335	0.888189
	C177	C	0.615204	0.168304	0.137258
	C178	C	0.398846	0.806871	0.137906
	C179	C	0.614164	0.807275	0.889683
	C180	C	0.398713	0.864771	0.195299
	C181	C	0.614771	0.111380	0.195946
	C182	C	0.398514	0.112958	0.831142
	C183	C	0.614745	0.865784	0.832901
	C184	C	0.880672	0.171116	0.407356
	C185	C	0.132913	0.171353	0.621057
	C186	C	0.129929	0.806154	0.406323
	C187	C	0.884754	0.808054	0.624178
	C188	C	0.188436	0.380897	0.890987
	C189	C	0.188588	0.596209	0.139537
	C190	C	0.826955	0.380166	0.135152
	C191	C	0.822254	0.595130	0.887523
	C192	C	0.410539	0.076647	0.609089
	C193	C	0.603387	0.898116	0.610842
	C194	C	0.601854	0.077064	0.419341
	C195	C	0.409677	0.897223	0.418427
	C196	C	0.602938	0.391425	0.105394
	C197	C	0.600907	0.584545	0.923842
	C198	C	0.411647	0.585518	0.104845
	C199	C	0.411576	0.393365	0.924431
	C200	C	0.096968	0.585472	0.417460
	C201	C	0.916279	0.584204	0.609719
	C202	C	0.095737	0.393032	0.609171
	C203	C	0.915893	0.391079	0.417642
	C204	C	0.908560	0.579822	0.112002
	C205	C	0.103577	0.398494	0.111193
	C206	C	0.101438	0.577550	0.919875
	C207	C	0.910365	0.399514	0.918672
	C208	C	0.102073	0.891954	0.604938
	C209	C	0.101411	0.083090	0.424592
	C210	C	0.913379	0.082984	0.603823
	C211	C	0.909702	0.890060	0.424036
	C212	C	0.596673	0.084615	0.917503
	C213	C	0.415984	0.085341	0.110692
	C214	C	0.595755	0.894032	0.109046
	C215	C	0.416828	0.893940	0.918484
	Zn216	Zn	0.505942	-0.011833	0.763545
	Zn217	Zn	0.506368	-0.012057	0.264541
	Zn218	Zn	0.755348	0.488997	0.013973
	Zn219	Zn	0.257309	0.489109	0.015163
	Zn220	Zn	0.006786	0.737935	0.514819
	Zn221	Zn	0.006610	0.237961	0.514233
	Zn222	Zn	0.006248	0.488168	0.764326
	Zn223	Zn	0.006279	0.488373	0.264734
	Zn224	Zn	0.506655	0.738813	0.013540
	Zn225	Zn	0.506722	0.238586	0.013815
	Zn226	Zn	0.757071	-0.011693	0.515150
	Zn227	Zn	0.255772	-0.012644	0.513829
	N228	N	0.418688	0.953660	0.694550
	N229	N	0.592441	0.023249	0.693460
	N230	N	0.593246	0.953171	0.334486
	N231	N	0.419527	0.021702	0.335134
	N232	N	0.685264	0.401968	0.979721
	N233	N	0.685668	0.575689	0.048592
	N234	N	0.326003	0.576589	0.980802
	N235	N	0.328007	0.402539	0.049242
	N236	N	0.971830	0.667706	0.428056
	N237	N	0.040595	0.668407	0.602557
	N238	N	0.972855	0.307363	0.601748
	N239	N	0.039867	0.306607	0.425827
	N240	N	0.972386	0.400679	0.694738
	N241	N	0.041061	0.574495	0.694449
	N242	N	0.970898	0.573769	0.335937
	N243	N	0.040649	0.401186	0.334474
	N244	N	0.418042	0.670305	0.980453
	N245	N	0.593551	0.669479	0.048168
	N246	N	0.594201	0.307483	0.980410
	N247	N	0.419145	0.307539	0.047788
	N248	N	0.686838	0.953912	0.427552
	N249	N	0.687353	0.022032	0.602580
	N250	N	0.324777	0.953926	0.602213
	N251	N	0.325516	0.020902	0.426757
	N252	N	0.920476	0.454035	0.193083
	N253	N	0.093030	0.523049	0.194412
	N254	N	0.092475	0.453490	0.835511
	N255	N	0.919549	0.523423	0.834166
	N256	N	0.185559	0.900801	0.479875
	N257	N	0.185936	0.074139	0.548812
	N258	N	0.826035	0.075905	0.481040
	N259	N	0.827908	0.902075	0.549977
	N260	N	0.472815	0.169744	0.925267
	N261	N	0.541245	0.167720	0.100525
	N262	N	0.472119	0.808918	0.100552
	N263	N	0.540383	0.808592	0.926315
	N264	N	0.471991	0.902199	0.193363
	N265	N	0.540509	0.075999	0.195281
	N266	N	0.471972	0.075719	0.833122
	N267	N	0.541374	0.902960	0.834594
	N268	N	0.919554	0.168035	0.480074
	N269	N	0.095063	0.169407	0.547793
	N270	N	0.093412	0.807569	0.480255
	N271	N	0.920011	0.807861	0.549593
	N272	N	0.186533	0.454094	0.928351
	N273	N	0.187613	0.522580	0.103007
	N274	N	0.826142	0.454834	0.100821
	N275	N	0.824224	0.522083	0.925136
	O276	O	-0.270431	1.421704	0.290136
	H277	H	-0.242609	1.413979	0.258224
	H278	H	-0.283564	1.407676	0.285568
	O279	O	-0.179761	0.205571	0.000294
	H280	H	-0.185846	0.209561	-0.000711
	H281	H	-0.178861	0.208212	-0.004711
	O282	O	0.828987	1.167019	0.171151
	H283	H	0.850549	1.161230	0.161304
	H284	H	0.838546	1.150860	0.152920
	O285	O	0.730129	0.514343	0.729860
	H286	H	0.701772	0.520117	0.730472
	H287	H	0.757334	0.520777	0.759636
	O288	O	0.715972	0.608945	0.570530
	H289	H	0.708705	0.608266	0.548864
	H290	H	0.728813	0.626356	0.574296
	O291	O	0.800089	0.197669	0.847293
	H292	H	0.798542	0.178672	0.871082
	H293	H	0.767838	0.222490	0.824521
	O294	O	0.449329	-0.463741	0.751211
	H295	H	0.459238	-0.450895	0.753182
	H296	H	0.444059	-0.465459	0.742542
	O297	O	0.442041	0.611020	0.460952
	H298	H	0.462447	0.619189	0.445599
	H299	H	0.444193	0.602315	0.462642
	O300	O	0.231077	0.012607	1.233665
	H301	H	0.248870	0.036514	1.253204
	H302	H	0.222816	0.035837	1.241551
	O303	O	0.479833	0.708274	0.295868
	H304	H	0.462713	0.706671	0.290915
	H305	H	0.469597	0.716039	0.285219
	O306	O	0.830091	0.921765	0.046314
	H307	H	0.815872	0.917756	0.039328
	H308	H	0.831279	0.922242	0.054108
	O309	O	-0.202928	1.013801	0.153776
	H310	H	-0.216119	1.002501	0.160376
	H311	H	-0.190368	1.013587	0.168622
	O312	O	0.487448	0.476616	0.563244
	H313	H	0.485631	0.481674	0.564635
	H314	H	0.482485	0.460504	0.564719
	O315	O	1.039576	1.209880	1.236632
	H316	H	1.044020	1.226441	1.244094
	H317	H	1.053571	1.212451	1.249797
	O318	O	0.344161	0.640217	0.375791
	H319	H	0.321512	0.655189	0.345785
	H320	H	0.351913	0.641592	0.402695
	O321	O	0.324728	0.678466	0.702029
	H322	H	0.319739	0.652593	0.681613
	H323	H	0.331031	0.688018	0.723202
	O324	O	1.205136	0.786123	-0.188392
	H325	H	1.182752	0.779465	-0.163503
	H326	H	1.221880	0.802477	-0.192286
	O327	O	-0.693825	0.687037	0.469746
	H328	H	-0.705156	0.696220	0.471527
	H329	H	-0.686259	0.690960	0.480409
	O330	O	0.719950	0.278700	0.382777
	H331	H	0.717605	0.277652	0.384536
	H332	H	0.745164	0.270182	0.360318
	O333	O	0.854851	0.826679	-0.047732
	H334	H	0.855745	0.823001	-0.015110
	H335	H	0.854396	0.830886	-0.025985
	O336	O	1.044888	0.120802	-0.057730
	H337	H	1.027324	0.115009	-0.057179
	H338	H	1.036042	0.111060	-0.048827
	O339	O	1.234285	0.212489	1.243035
	H340	H	1.231176	0.218256	1.219652
	H341	H	1.253652	0.233102	1.259636
	O342	O	-0.091249	-0.122552	0.190051
	H343	H	-0.076877	-0.125442	0.196270
	H344	H	-0.087619	-0.137343	0.196083
	O345	O	-0.374900	1.255726	1.277727
	H346	H	-0.354239	1.238254	1.262734
	H347	H	-0.367447	1.244575	1.271539
	O348	O	-0.209675	0.027025	-0.209037
	H349	H	-0.232620	0.024423	-0.208723
	H350	H	-0.224156	0.041484	-0.217668
	O351	O	0.977178	0.952501	-0.211048
	H352	H	0.971492	0.939709	-0.206993
	H353	H	0.963410	0.958545	-0.216632
	O354	O	-0.161026	-0.165889	1.075753
	H355	H	-0.153008	-0.171706	1.076635
	H356	H	-0.160606	-0.171510	1.079384
	O357	O	0.396185	0.353967	0.657749
	H358	H	0.390545	0.350006	0.678776
	H359	H	0.406222	0.346653	0.658802
	O360	O	0.453179	0.423171	0.286812
	H361	H	0.466462	0.406427	0.280776
	H362	H	0.438824	0.415784	0.295201
	O363	O	0.038426	-0.245301	0.044479
	H364	H	0.046725	-0.251635	0.056919
	H365	H	0.055052	-0.245228	0.035630
	O366	O	0.651709	0.641278	0.618930
	H367	H	0.667306	0.663351	0.616205
	H368	H	0.649296	0.628329	0.604251
	O369	O	1.239033	-0.075749	0.052165
	H370	H	1.239054	-0.059099	0.059316
	H371	H	1.238191	-0.066115	0.066651
	O372	O	0.704762	1.523480	0.415265
	H373	H	0.708768	1.506247	0.410980
	H374	H	0.695070	1.512759	0.405949
	O375	O	0.819019	-0.195136	-0.172165
	H376	H	0.815683	-0.210551	-0.174207
	H377	H	0.835775	-0.184497	-0.153539
	O378	O	0.567486	0.548675	0.286532
	H379	H	0.561873	0.551201	0.283572
	H380	H	0.566259	0.549120	0.282559
	O381	O	0.238348	1.050864	0.952421
	H382	H	0.222608	1.040871	0.950222
	H383	H	0.248047	1.036234	0.948925
	O384	O	0.946146	0.046322	1.245591
	H385	H	0.945302	0.041592	1.250495
	H386	H	0.953597	0.043480	1.238067
	O387	O	0.994612	1.219926	0.023502
	H388	H	1.011530	1.220064	0.022851
	H389	H	0.996969	1.224697	0.021999
	O390	O	0.223110	-0.041903	-0.199109
	H391	H	0.231285	-0.042517	-0.223914
	H392	H	0.212571	-0.044882	-0.208481
	O393	O	0.298788	0.274940	0.528584
	H394	H	0.292509	0.260897	0.532899
	H395	H	0.283849	0.298009	0.531328
	O396	O	-0.015272	1.019624	0.870000
	H397	H	-0.026369	1.008533	0.866361
	H398	H	-0.024018	1.022838	0.850667
	O399	O	0.121803	0.151911	1.067168
	H400	H	0.109889	0.153477	1.060936
	H401	H	0.127041	0.166657	1.049126
	O402	O	0.788132	0.883251	0.232400
	H403	H	0.779265	0.879780	0.231310
	H404	H	0.788046	0.882559	0.226657
	O405	O	0.972551	-0.235863	1.236639
	H406	H	0.968811	-0.226333	1.240478
	H407	H	0.973802	-0.246503	1.255790
	O408	O	0.226279	-0.230775	-0.018101
	H409	H	0.255922	-0.245542	-0.013243
	H410	H	0.228091	-0.217512	-0.021085
	O411	O	0.596183	0.471213	0.517677
	H412	H	0.593183	0.470369	0.504361
	H413	H	0.606031	0.460001	0.532000
	O414	O	0.723375	0.373799	0.588456
	H415	H	0.707205	0.375632	0.578470
	H416	H	0.715123	0.384675	0.600383
	O417	O	0.339573	0.281965	0.350666
	H418	H	0.341249	0.298600	0.368143
	H419	H	0.357579	0.296261	0.356053
	O420	O	0.290606	0.427528	0.465067
	H421	H	0.297851	0.441967	0.458828
	H422	H	0.280732	0.446040	0.459732
	O423	O	0.038916	-0.225508	0.805046
	H424	H	0.041034	-0.226051	0.818725
	H425	H	0.043016	-0.233736	0.786036
	O426	O	0.723179	0.276052	0.727551
	H427	H	0.717771	0.290089	0.721677
	H428	H	0.704365	0.292345	0.702148
	O429	O	0.469347	0.684720	0.569670
	H430	H	0.443972	0.691333	0.582768
	H431	H	0.475027	0.674543	0.568930
	O432	O	0.279196	0.578646	0.561711
	H433	H	0.285774	0.580093	0.568026
	H434	H	0.274924	0.571811	0.565578
	O435	O	0.511659	0.270453	0.556730
	H436	H	0.514827	0.268076	0.567020
	H437	H	0.476302	0.271971	0.550739
	O438	O	-0.506840	0.296678	0.375818
	H439	H	-0.493425	0.303853	0.383708
	H440	H	-0.509451	0.280039	0.367968
	O441	O	0.228563	0.766860	0.236205
	H442	H	0.210310	0.788836	0.212561
	H443	H	0.221438	0.781574	0.238815
	O444	O	0.525046	0.706332	0.734520
	H445	H	0.537001	0.709903	0.728492
	H446	H	0.533729	0.721053	0.748319
	O447	O	0.143215	1.129097	0.814105
	H448	H	0.124356	1.108742	0.826376
	H449	H	0.122030	1.122203	0.815178
	O450	O	0.026974	1.092660	1.065586
	H451	H	0.027675	1.097453	1.058162
	H452	H	0.019044	1.083053	1.061890
	O453	O	0.484743	0.458173	0.455734
	H454	H	0.478869	0.454723	0.462036
	H455	H	0.473226	0.470069	0.450540
	O456	O	0.044187	-0.081617	1.054675
	H457	H	0.047813	-0.071950	1.048843
	H458	H	0.047500	-0.082123	1.047457
	O459	O	0.887439	0.878248	-0.073287
	H460	H	0.891630	0.890574	-0.073894
	H461	H	0.887275	0.847447	-0.093511
	O462	O	0.285726	0.459514	0.732589
	H463	H	0.267531	0.452980	0.758630
	H464	H	0.290298	0.438348	0.726906
	O465	O	1.115139	-0.146133	0.076516
	H466	H	1.104585	-0.128271	0.074413
	H467	H	1.115050	-0.142830	0.063710
	O468	O	0.693393	0.674654	0.328481
	H469	H	0.701962	0.668231	0.331082
	H470	H	0.675418	0.663769	0.344866
	O471	O	0.639344	0.302930	0.466353
	H472	H	0.626464	0.301900	0.466377
	H473	H	0.651464	0.307600	0.477457
	O474	O	0.571087	0.503841	0.663319
	H475	H	0.554477	0.510290	0.659104
	H476	H	0.563976	0.489011	0.655730
	O477	O	0.282986	0.514326	1.296034
	H478	H	0.283053	0.540486	1.288226
	H479	H	0.270699	0.532302	1.280948
	O480	O	0.289254	0.273621	0.727696
	H481	H	0.259192	0.240781	0.760562
	H482	H	0.309700	0.277237	0.717675
	O483	O	0.514649	0.312670	0.712756
	H484	H	0.510101	0.307818	0.709977
	H485	H	0.510153	0.311282	0.704064
	O486	O	0.720965	-0.295721	0.727349
	H487	H	0.723665	-0.284434	0.732000
	H488	H	0.719135	-0.309037	0.703060
	O489	O	1.223789	1.200865	0.042402
	H490	H	1.238945	1.201175	0.030972
	H491	H	1.225380	1.203867	0.036072
	O492	O	0.053789	-0.083436	0.227560
	H493	H	0.045820	-0.086483	0.231996
	H494	H	0.066066	-0.070630	0.222670
	O495	O	-0.017555	1.208201	0.792938
	H496	H	-0.061320	1.196524	0.805363
	H497	H	-0.028142	1.237001	0.759935
	O498	O	0.973486	1.011467	0.954499
	H499	H	0.962731	1.010085	0.957366
	H500	H	0.971128	0.999615	0.952636
	O501	O	0.570338	0.708852	0.455110
	H502	H	0.576735	0.709268	0.453888
	H503	H	0.568726	0.711446	0.440296
