data_Molecule from HDF5

_cell_length_a		16.249956
_cell_length_b		16.299711
_cell_length_c		16.330708
_cell_angle_alpha	89.567235
_cell_angle_beta	90.311649
_cell_angle_gamma	90.020890
_symmetry_space_group_name_H-M	'P 1'
_symmetry_Int_Tables_number		1

loop_
	_symmetry_equiv_pos_as_xyz
	x,y,z

loop_
	_atom_site_label
	_atom_site_type_symbol
	_atom_site_fract_x
	_atom_site_fract_y
	_atom_site_fract_z
	H0	H	0.405879	0.834826	0.725795
	H1	H	0.605489	0.160871	0.721858
	H2	H	0.603693	0.834032	0.294022
	H3	H	0.404230	0.160893	0.290911
	H4	H	0.716113	0.401544	0.844511
	H5	H	0.719085	0.595829	0.171229
	H6	H	0.286929	0.597399	0.844738
	H7	H	0.289767	0.396857	0.171230
	H8	H	0.839736	0.712062	0.406994
	H9	H	0.166617	0.709813	0.609116
	H10	H	0.839472	0.279083	0.607215
	H11	H	0.167161	0.281671	0.410453
	H12	H	0.839647	0.393352	0.724378
	H13	H	0.166568	0.593594	0.724252
	H14	H	0.839846	0.595702	0.291777
	H15	H	0.165614	0.394537	0.292786
	H16	H	0.401659	0.715909	0.845978
	H17	H	0.603532	0.711281	0.171378
	H18	H	0.601275	0.284009	0.844706
	H19	H	0.403200	0.279482	0.170004
	H20	H	0.718246	0.833048	0.411813
	H21	H	0.720492	0.159808	0.604849
	H22	H	0.290307	0.833338	0.608492
	H23	H	0.287476	0.160300	0.406854
	H24	H	0.904222	0.333402	0.223692
	H25	H	0.103115	0.659459	0.223392
	H26	H	0.100585	0.332185	0.796266
	H27	H	0.903276	0.659247	0.789181
	H28	H	0.218245	0.898730	0.345549
	H29	H	0.220380	0.093358	0.670811
	H30	H	0.789228	0.095301	0.344808
	H31	H	0.790938	0.896693	0.671740
	H32	H	0.340089	0.212541	0.906678
	H33	H	0.667059	0.211954	0.107002
	H34	H	0.339485	0.783324	0.105577
	H35	H	0.667570	0.783505	0.911252
	H36	H	0.340789	0.896100	0.224034
	H37	H	0.668378	0.095470	0.221873
	H38	H	0.341075	0.098592	0.789095
	H39	H	0.668918	0.900291	0.796727
	H40	H	0.903096	0.212601	0.345861
	H41	H	0.105372	0.210357	0.671700
	H42	H	0.101928	0.781861	0.345592
	H43	H	0.905281	0.779425	0.671970
	H44	H	0.217575	0.332831	0.911451
	H45	H	0.218055	0.660125	0.105649
	H46	H	0.788780	0.333170	0.105948
	H47	H	0.789438	0.661841	0.907541
	H48	H	0.411571	0.112498	0.598006
	H49	H	0.595183	0.883064	0.597277
	H50	H	0.596346	0.111546	0.419465
	H51	H	0.423587	0.884952	0.414246
	H52	H	0.591350	0.394410	0.124151
	H53	H	0.595085	0.591192	0.892393
	H54	H	0.417273	0.593342	0.123811
	H55	H	0.408956	0.405405	0.892404
	H56	H	0.121303	0.593577	0.413780
	H57	H	0.882799	0.595215	0.601623
	H58	H	0.119993	0.402324	0.602553
	H59	H	0.888719	0.410703	0.416324
	H60	H	0.118599	0.402839	0.602469
	H61	H	0.890383	0.587506	0.589649
	H62	H	0.117912	0.588286	0.421273
	H63	H	0.884344	0.400633	0.409688
	H64	H	0.403857	0.591703	0.125668
	H65	H	0.594133	0.593167	0.892282
	H66	H	0.605853	0.405949	0.126342
	H67	H	0.408910	0.404956	0.891941
	H68	H	0.601095	0.114486	0.413269
	H69	H	0.604410	0.878978	0.604234
	H70	H	0.413119	0.112992	0.599779
	H71	H	0.406269	0.883207	0.426455
	H72	H	0.916019	0.611672	0.099262
	H73	H	0.098654	0.378116	0.108779
	H74	H	0.100352	0.613670	0.915563
	H75	H	0.910968	0.382413	0.918080
	H76	H	0.095884	0.901738	0.624566
	H77	H	0.095807	0.092912	0.392071
	H78	H	0.912211	0.088308	0.624782
	H79	H	0.914368	0.905528	0.394401
	H80	H	0.619729	0.094374	0.917782
	H81	H	0.389686	0.088013	0.092575
	H82	H	0.626930	0.889736	0.110714
	H83	H	0.391541	0.910121	0.923378
	H84	H	0.615798	0.903271	0.085984
	H85	H	0.388849	0.082340	0.102816
	H86	H	0.619275	0.088405	0.914986
	H87	H	0.387300	0.912437	0.908150
	H88	H	0.912490	0.087231	0.624062
	H89	H	0.097539	0.087041	0.392037
	H90	H	0.098133	0.899389	0.625397
	H91	H	0.911333	0.898632	0.391839
	H92	H	0.092294	0.613416	0.907703
	H93	H	0.087277	0.383198	0.101412
	H94	H	0.906233	0.613129	0.097648
	H95	H	0.904850	0.380299	0.917361
	H96	H	0.413821	0.112690	0.597971
	H97	H	0.593147	0.880049	0.609560
	H98	H	0.593018	0.112051	0.411846
	H99	H	0.405199	0.876483	0.406629
	H100	H	0.589844	0.412374	0.119874
	H101	H	0.595590	0.592730	0.891940
	H102	H	0.411481	0.581563	0.120676
	H103	H	0.408733	0.405115	0.891195
	H104	H	0.119380	0.583627	0.412276
	H105	H	0.887894	0.580060	0.604147
	H106	H	0.119417	0.402778	0.603977
	H107	H	0.887557	0.399999	0.422063
	H108	H	0.910703	0.614935	0.106478
	H109	H	0.099882	0.381685	0.094465
	H110	H	0.089922	0.610186	0.918961
	H111	H	0.909064	0.380269	0.912657
	H112	H	0.099751	0.902544	0.624770
	H113	H	0.091949	0.088751	0.394274
	H114	H	0.913328	0.087955	0.624300
	H115	H	0.906310	0.905327	0.392014
	H116	H	0.621638	0.092721	0.912643
	H117	H	0.385629	0.093736	0.101911
	H118	H	0.618910	0.918435	0.111469
	H119	H	0.384817	0.898235	0.915152
	C120	C	0.383904	0.005231	0.628884
	C121	C	0.627054	0.988485	0.630806
	C122	C	0.625391	0.004778	0.387255
	C123	C	0.382135	0.989072	0.385424
	C124	C	0.624175	0.376247	0.015984
	C125	C	0.624828	0.619780	0.999996
	C126	C	0.380940	0.619130	0.016233
	C127	C	0.380355	0.374788	0.999276
	C128	C	0.011585	0.617791	0.386578
	C129	C	0.995005	0.615858	0.628493
	C130	C	0.011236	0.372751	0.631031
	C131	C	0.994940	0.374730	0.387447
	C132	C	0.882100	0.504987	0.129442
	C133	C	0.125111	0.488365	0.130314
	C134	C	0.123451	0.504289	0.886837
	C135	C	0.880152	0.488865	0.885833
	C136	C	0.125976	0.873721	0.517294
	C137	C	0.124931	0.117602	0.500358
	C138	C	0.882667	0.117554	0.516661
	C139	C	0.882178	0.873796	0.500493
	C140	C	0.512446	0.120292	0.885353
	C141	C	0.495863	0.117615	0.128451
	C142	C	0.512159	0.874968	0.130402
	C143	C	0.495945	0.877501	0.887673
	C144	C	0.385886	0.882787	0.686237
	C145	C	0.625770	0.111662	0.684842
	C146	C	0.623591	0.882461	0.332079
	C147	C	0.383865	0.111965	0.329086
	C148	C	0.678482	0.380257	0.893310
	C149	C	0.681204	0.616475	0.122434
	C150	C	0.325172	0.617584	0.893555
	C151	C	0.326166	0.376038	0.121878
	C152	C	0.888685	0.673683	0.387573
	C153	C	0.117934	0.671638	0.628555
	C154	C	0.888404	0.317000	0.627898
	C155	C	0.118031	0.319439	0.389963
	C156	C	0.888313	0.374163	0.685902
	C157	C	0.117859	0.613695	0.685676
	C158	C	0.888493	0.615648	0.330434
	C159	C	0.117401	0.375525	0.331384
	C160	C	0.381819	0.676646	0.894175
	C161	C	0.623457	0.673718	0.122778
	C162	C	0.621464	0.321811	0.893436
	C163	C	0.382767	0.317653	0.121308
	C164	C	0.680548	0.881799	0.390711
	C165	C	0.682915	0.111192	0.626745
	C166	C	0.328760	0.882280	0.627659
	C167	C	0.325825	0.111729	0.386806
	C168	C	0.883534	0.382118	0.185453
	C169	C	0.123090	0.611018	0.185288
	C170	C	0.121484	0.381089	0.833319
	C171	C	0.882671	0.611090	0.828052
	C172	C	0.180551	0.877580	0.394184
	C173	C	0.181620	0.114258	0.622671
	C174	C	0.827180	0.115578	0.393752
	C175	C	0.828089	0.876064	0.623262
	C176	C	0.389065	0.175018	0.886421
	C177	C	0.618628	0.173566	0.126796
	C178	C	0.388988	0.820160	0.126977
	C179	C	0.618822	0.821538	0.890780
	C180	C	0.389431	0.876725	0.185412
	C181	C	0.619224	0.115524	0.183911
	C182	C	0.389756	0.118436	0.827970
	C183	C	0.619593	0.879556	0.833805
	C184	C	0.883699	0.173947	0.394290
	C185	C	0.124364	0.172363	0.622827
	C186	C	0.122789	0.819695	0.394189
	C187	C	0.884773	0.817513	0.623007
	C188	C	0.179081	0.381384	0.891050
	C189	C	0.180404	0.611264	0.126922
	C190	C	0.826526	0.382053	0.126796
	C191	C	0.826416	0.612392	0.887247
	C192	C	0.406322	0.090600	0.605356
	C193	C	0.604358	0.902822	0.609797
	C194	C	0.603464	0.090463	0.408751
	C195	C	0.405104	0.903710	0.408724
	C196	C	0.602109	0.397762	0.101441
	C197	C	0.601715	0.598619	0.914248
	C198	C	0.404085	0.595767	0.101270
	C199	C	0.402346	0.398376	0.913818
	C200	C	0.097191	0.595198	0.409174
	C201	C	0.909194	0.593995	0.605377
	C202	C	0.097182	0.395756	0.609349
	C203	C	0.909107	0.397316	0.409416
	C204	C	0.904571	0.590923	0.107457
	C205	C	0.102134	0.403092	0.108019
	C206	C	0.100787	0.590220	0.907861
	C207	C	0.902018	0.403204	0.909101
	C208	C	0.104428	0.894924	0.602680
	C209	C	0.101972	0.095960	0.414902
	C210	C	0.905903	0.094635	0.602359
	C211	C	0.904122	0.896587	0.414748
	C212	C	0.598157	0.098281	0.908427
	C213	C	0.409982	0.094791	0.105563
	C214	C	0.598321	0.897197	0.108765
	C215	C	0.410109	0.900335	0.909119
	Zn216	Zn	0.505205	-0.002126	0.758379
	Zn217	Zn	0.504191	-0.002747	0.257818
	Zn218	Zn	0.752829	0.498202	0.008067
	Zn219	Zn	0.252655	0.496783	0.007758
	Zn220	Zn	0.003733	0.745329	0.508618
	Zn221	Zn	0.003504	0.246254	0.508513
	Zn222	Zn	0.002278	0.495388	0.757955
	Zn223	Zn	0.003477	0.496194	0.259106
	Zn224	Zn	0.503348	0.747696	0.008243
	Zn225	Zn	0.502926	0.247414	0.007796
	Zn226	Zn	0.754760	-0.003796	0.508589
	Zn227	Zn	0.254034	-0.003273	0.507891
	N228	N	0.419537	0.960189	0.686998
	N229	N	0.591643	0.034357	0.687649
	N230	N	0.589904	0.959807	0.330125
	N231	N	0.418159	0.034775	0.328243
	N232	N	0.680444	0.413287	0.970518
	N233	N	0.681977	0.583599	0.045090
	N234	N	0.324351	0.582546	0.970441
	N235	N	0.324712	0.411024	0.045005
	N236	N	0.966146	0.675132	0.421883
	N237	N	0.040860	0.672699	0.593556
	N238	N	0.965969	0.316306	0.594468
	N239	N	0.041010	0.319046	0.424243
	N240	N	0.965620	0.408470	0.687786
	N241	N	0.040337	0.579456	0.685626
	N242	N	0.965846	0.581456	0.329854
	N243	N	0.039780	0.409342	0.329688
	N244	N	0.415833	0.677656	0.971428
	N245	N	0.589018	0.675920	0.045670
	N246	N	0.588298	0.319285	0.970838
	N247	N	0.415664	0.316727	0.043915
	N248	N	0.681781	0.958870	0.424381
	N249	N	0.683722	0.033810	0.593834
	N250	N	0.327242	0.959446	0.593018
	N251	N	0.324445	0.034252	0.420934
	N252	N	0.917345	0.459426	0.187186
	N253	N	0.089670	0.533388	0.187766
	N254	N	0.087485	0.458337	0.830792
	N255	N	0.915326	0.533179	0.826994
	N256	N	0.182863	0.910358	0.471473
	N257	N	0.181993	0.080845	0.545615
	N258	N	0.826282	0.081307	0.471003
	N259	N	0.826488	0.910451	0.546059
	N260	N	0.466151	0.176234	0.921425
	N261	N	0.540905	0.174878	0.092811
	N262	N	0.466356	0.818918	0.093558
	N263	N	0.540987	0.820156	0.923647
	N264	N	0.467139	0.910202	0.187677
	N265	N	0.541763	0.081177	0.184811
	N266	N	0.467493	0.084863	0.827282
	N267	N	0.542160	0.913557	0.831677
	N268	N	0.917813	0.174858	0.471640
	N269	N	0.089925	0.174576	0.545623
	N270	N	0.089723	0.817098	0.471510
	N271	N	0.917735	0.816157	0.545601
	N272	N	0.180378	0.459197	0.923579
	N273	N	0.181654	0.534047	0.093531
	N274	N	0.825624	0.459546	0.092775
	N275	N	0.824638	0.535379	0.922212
	O276	O	0.037546	0.018757	0.011288
	H277	H	0.041326	0.008990	0.013439
	H278	H	0.036692	0.016925	0.017306
	O279	O	0.496585	0.527865	0.570135
	H280	H	0.490658	0.543735	0.560992
	H281	H	0.491884	0.524306	0.572148
	O282	O	0.482070	0.525506	0.449319
	H283	H	0.486942	0.538209	0.454462
	H284	H	0.483799	0.529252	0.453014
	O285	O	1.075458	-0.008922	0.988008
	H286	H	1.066444	-0.013380	0.980539
	H287	H	1.066586	-0.001964	0.989183
	O288	O	1.091617	-0.074348	0.030001
	H289	H	1.100162	-0.078648	0.027540
	H290	H	1.092510	-0.070526	0.024698
	O291	O	0.542473	0.536856	0.516362
	H292	H	0.529931	0.535338	0.512508
	H293	H	0.549190	0.535157	0.509241
	O294	O	1.563740	0.614619	0.463920
	H295	H	1.561636	0.622819	0.460642
	H296	H	1.570245	0.625145	0.471571
	O297	O	-0.005627	0.018169	0.041169
	H298	H	-0.011059	0.014352	0.045025
	H299	H	-0.011543	0.019144	0.040630
	O300	O	0.428625	0.397702	0.549367
	H301	H	0.417982	0.394068	0.545311
	H302	H	0.429186	0.398434	0.538026
	O303	O	0.496977	0.515118	0.432963
	H304	H	0.499372	0.517475	0.438188
	H305	H	0.481034	0.515871	0.428975
	O306	O	1.004985	0.026173	-0.012297
	H307	H	1.007107	0.025555	-0.008538
	H308	H	1.006912	0.033103	-0.016236
	O309	O	0.018269	0.062357	0.986699
	H310	H	0.025756	0.070979	0.981657
	H311	H	0.010257	0.060469	0.976622
	O312	O	1.015359	0.982435	1.071950
	H313	H	1.008430	0.982028	1.075053
	H314	H	1.025508	0.989865	1.080765
	O315	O	0.478260	0.603506	0.519670
	H316	H	0.463891	0.598257	0.527799
	H317	H	0.479927	0.597135	0.522412
	O318	O	0.504617	0.448066	0.585387
	H319	H	0.512229	0.449998	0.595535
	H320	H	0.507738	0.446205	0.590058
	O321	O	0.105420	1.068109	1.084551
	H322	H	0.115319	1.076157	1.083667
	H323	H	0.108639	1.064017	1.080793
	O324	O	0.444224	0.391400	0.602878
	H325	H	0.443547	0.382377	0.616695
	H326	H	0.439803	0.396101	0.604151
	O327	O	0.996906	1.067912	-0.026774
	H328	H	0.997069	1.081243	-0.032606
	H329	H	0.992789	1.071280	-0.030996
	O330	O	0.408668	0.559198	0.421573
	H331	H	0.405839	0.552067	0.424778
	H332	H	0.408772	0.562916	0.415269
	O333	O	0.440002	0.557345	0.527195
	H334	H	0.429691	0.562697	0.519369
	H335	H	0.443726	0.555722	0.517576
	O336	O	0.517171	0.486336	0.559908
	H337	H	0.526519	0.486875	0.549885
	H338	H	0.516764	0.487300	0.569869
	O339	O	1.049620	0.997764	0.057462
	H340	H	1.045172	1.000565	0.061595
	H341	H	1.052503	1.003081	0.058424
	O342	O	0.597067	0.474656	0.454288
	H343	H	0.599083	0.483492	0.459750
	H344	H	0.601511	0.471939	0.441139
	O345	O	0.552875	0.412718	0.475228
	H346	H	0.563178	0.417485	0.476611
	H347	H	0.554525	0.414464	0.471232
	O348	O	0.036776	0.041694	-0.049463
	H349	H	0.034578	0.039337	-0.041155
	H350	H	0.035517	0.042400	-0.052326
	O351	O	-0.450295	0.487461	0.449981
	H352	H	-0.448491	0.494111	0.449928
	H353	H	-0.456029	0.477694	0.450718
	O354	O	0.467685	0.592585	0.501810
	H355	H	0.460957	0.592168	0.507114
	H356	H	0.471748	0.590811	0.501552
	O357	O	-0.578545	1.491135	0.454310
	H358	H	-0.579579	1.506231	0.441864
	H359	H	-0.582962	1.493028	0.453830
