data_Molecule from HDF5

_cell_length_a		16.337191
_cell_length_b		16.260107
_cell_length_c		16.403974
_cell_angle_alpha	90.018752
_cell_angle_beta	89.991658
_cell_angle_gamma	89.955710
_symmetry_space_group_name_H-M	'P 1'
_symmetry_Int_Tables_number		1

loop_
	_symmetry_equiv_pos_as_xyz
	x,y,z

loop_
	_atom_site_label
	_atom_site_type_symbol
	_atom_site_fract_x
	_atom_site_fract_y
	_atom_site_fract_z
	H0	H	0.401813	0.835942	0.714453
	H1	H	0.599362	0.162637	0.715788
	H2	H	0.597725	0.835978	0.286109
	H3	H	0.402141	0.163666	0.286034
	H4	H	0.713970	0.401570	0.837543
	H5	H	0.715915	0.599033	0.161939
	H6	H	0.284570	0.599077	0.837271
	H7	H	0.284259	0.401595	0.162347
	H8	H	0.835837	0.713025	0.404461
	H9	H	0.163909	0.712374	0.596124
	H10	H	0.836398	0.286546	0.597268
	H11	H	0.163097	0.284946	0.402103
	H12	H	0.837723	0.401129	0.715191
	H13	H	0.162843	0.599465	0.715338
	H14	H	0.837223	0.598326	0.285612
	H15	H	0.161857	0.399240	0.283413
	H16	H	0.401560	0.715123	0.837820
	H17	H	0.597399	0.714216	0.163424
	H18	H	0.596725	0.285822	0.837398
	H19	H	0.403676	0.287663	0.163494
	H20	H	0.713671	0.836069	0.402611
	H21	H	0.713385	0.163565	0.598145
	H22	H	0.286425	0.836050	0.598166
	H23	H	0.287007	0.164128	0.403526
	H24	H	0.899982	0.337026	0.215359
	H25	H	0.099260	0.663408	0.214645
	H26	H	0.098727	0.336742	0.784330
	H27	H	0.902010	0.664567	0.785705
	H28	H	0.215420	0.901048	0.338123
	H29	H	0.214927	0.098490	0.662849
	H30	H	0.785925	0.097247	0.337175
	H31	H	0.785014	0.901724	0.662828
	H32	H	0.336636	0.213815	0.903332
	H33	H	0.663891	0.213120	0.096585
	H34	H	0.336507	0.787158	0.096965
	H35	H	0.663274	0.785994	0.903017
	H36	H	0.337682	0.900685	0.215566
	H37	H	0.662808	0.099500	0.215763
	H38	H	0.337470	0.099769	0.784339
	H39	H	0.662412	0.899830	0.784386
	H40	H	0.903018	0.213340	0.337378
	H41	H	0.097752	0.215084	0.662787
	H42	H	0.096132	0.787132	0.336102
	H43	H	0.903326	0.786179	0.663070
	H44	H	0.214655	0.336246	0.900456
	H45	H	0.212150	0.664767	0.096427
	H46	H	0.786939	0.335924	0.096018
	H47	H	0.785214	0.663813	0.902198
	H48	H	0.402973	0.118727	0.596854
	H49	H	0.593965	0.880351	0.600378
	H50	H	0.591159	0.116795	0.405332
	H51	H	0.409916	0.880470	0.392723
	H52	H	0.594251	0.403876	0.116490
	H53	H	0.590154	0.588351	0.886710
	H54	H	0.404332	0.596167	0.116365
	H55	H	0.400321	0.399329	0.880845
	H56	H	0.116315	0.593923	0.406471
	H57	H	0.883480	0.595183	0.593004
	H58	H	0.119669	0.405170	0.600642
	H59	H	0.890675	0.415292	0.420571
	H60	H	0.115572	0.401392	0.585798
	H61	H	0.884324	0.592460	0.593561
	H62	H	0.115313	0.591663	0.405649
	H63	H	0.882495	0.415894	0.391290
	H64	H	0.403219	0.591327	0.115708
	H65	H	0.589998	0.597784	0.884266
	H66	H	0.596504	0.408743	0.116200
	H67	H	0.402066	0.414976	0.885592
	H68	H	0.593561	0.115798	0.409333
	H69	H	0.586768	0.886051	0.590855
	H70	H	0.412873	0.115534	0.595978
	H71	H	0.418256	0.888435	0.414981
	H72	H	0.909533	0.616268	0.092043
	H73	H	0.088287	0.384237	0.094845
	H74	H	0.092709	0.615443	0.908801
	H75	H	0.907188	0.383108	0.904786
	H76	H	0.093127	0.901984	0.616856
	H77	H	0.095368	0.101827	0.382196
	H78	H	0.895611	0.089294	0.617338
	H79	H	0.904132	0.891044	0.379324
	H80	H	0.613686	0.083484	0.906771
	H81	H	0.382569	0.091618	0.101382
	H82	H	0.614865	0.905823	0.089512
	H83	H	0.385035	0.912463	0.905728
	H84	H	0.615472	0.912235	0.096016
	H85	H	0.382662	0.100235	0.092285
	H86	H	0.618783	0.096276	0.898793
	H87	H	0.382353	0.904303	0.902845
	H88	H	0.913982	0.087625	0.611965
	H89	H	0.101066	0.086654	0.384560
	H90	H	0.097798	0.907568	0.616585
	H91	H	0.893751	0.916318	0.383612
	H92	H	0.094521	0.617062	0.905249
	H93	H	0.092768	0.384628	0.088022
	H94	H	0.905101	0.616637	0.091763
	H95	H	0.909270	0.384987	0.906445
	H96	H	0.406389	0.115006	0.587885
	H97	H	0.599231	0.882431	0.588681
	H98	H	0.595543	0.117478	0.405797
	H99	H	0.394527	0.881115	0.412832
	H100	H	0.591036	0.408185	0.115294
	H101	H	0.598234	0.592852	0.883547
	H102	H	0.407457	0.592884	0.114398
	H103	H	0.414907	0.404664	0.886296
	H104	H	0.116510	0.593298	0.404349
	H105	H	0.883023	0.593742	0.595874
	H106	H	0.112594	0.416225	0.591330
	H107	H	0.879511	0.389817	0.407443
	H108	H	0.907440	0.617512	0.095477
	H109	H	0.096716	0.382179	0.095051
	H110	H	0.090274	0.616157	0.904963
	H111	H	0.906660	0.384403	0.907597
	H112	H	0.091338	0.908069	0.613886
	H113	H	0.085819	0.090251	0.387875
	H114	H	0.907576	0.104081	0.619003
	H115	H	0.919914	0.910852	0.390286
	H116	H	0.615184	0.097287	0.913324
	H117	H	0.386490	0.088689	0.089738
	H118	H	0.618096	0.903139	0.097768
	H119	H	0.384514	0.905545	0.911330
	C120	C	0.378945	0.008190	0.621968
	C121	C	0.621503	0.991185	0.621395
	C122	C	0.621510	0.008361	0.378600
	C123	C	0.378904	0.991633	0.378864
	C124	C	0.621824	0.378410	0.008168
	C125	C	0.621724	0.622030	0.992044
	C126	C	0.377582	0.621962	0.007994
	C127	C	0.377667	0.378400	0.991988
	C128	C	0.008288	0.621437	0.377940
	C129	C	0.991882	0.621475	0.621569
	C130	C	0.008112	0.379089	0.621000
	C131	C	0.991753	0.378190	0.378000
	C132	C	0.878665	0.508635	0.121160
	C133	C	0.120853	0.491974	0.120575
	C134	C	0.121527	0.508364	0.877746
	C135	C	0.878911	0.492033	0.877841
	C136	C	0.121860	0.877946	0.508203
	C137	C	0.122266	0.121784	0.492219
	C138	C	0.878288	0.121393	0.508222
	C139	C	0.878074	0.878027	0.491931
	C140	C	0.508323	0.121357	0.878126
	C141	C	0.491867	0.121606	0.122275
	C142	C	0.508353	0.878808	0.121940
	C143	C	0.491732	0.878816	0.878470
	C144	C	0.381211	0.884946	0.677109
	C145	C	0.619041	0.114253	0.676859
	C146	C	0.618354	0.884841	0.324015
	C147	C	0.381654	0.115151	0.324451
	C148	C	0.676556	0.380905	0.886122
	C149	C	0.677334	0.619358	0.113956
	C150	C	0.322553	0.619575	0.885964
	C151	C	0.322636	0.381329	0.114064
	C152	C	0.885035	0.675508	0.382537
	C153	C	0.114961	0.675602	0.617805
	C154	C	0.885163	0.324554	0.618034
	C155	C	0.114222	0.322900	0.381074
	C156	C	0.885926	0.381094	0.676708
	C157	C	0.114521	0.619478	0.676880
	C158	C	0.885378	0.618668	0.323747
	C159	C	0.113820	0.379528	0.322159
	C160	C	0.380613	0.677058	0.886071
	C161	C	0.618437	0.676388	0.114693
	C162	C	0.618460	0.323323	0.886047
	C163	C	0.381708	0.324410	0.114551
	C164	C	0.676211	0.884826	0.381604
	C165	C	0.675684	0.114720	0.618568
	C166	C	0.324349	0.884693	0.618916
	C167	C	0.324399	0.115136	0.382633
	C168	C	0.880644	0.385385	0.176530
	C169	C	0.118892	0.614996	0.176087
	C170	C	0.119163	0.385277	0.822552
	C171	C	0.881477	0.615461	0.823305
	C172	C	0.177063	0.880634	0.386055
	C173	C	0.177022	0.119362	0.614308
	C174	C	0.823521	0.118151	0.385956
	C175	C	0.823469	0.881083	0.614451
	C176	C	0.385277	0.175959	0.881949
	C177	C	0.614949	0.175730	0.118032
	C178	C	0.385369	0.824653	0.118145
	C179	C	0.614469	0.823621	0.881793
	C180	C	0.385898	0.881032	0.177067
	C181	C	0.614456	0.119091	0.177049
	C182	C	0.385856	0.119410	0.822906
	C183	C	0.614234	0.880390	0.823112
	C184	C	0.881886	0.175473	0.385702
	C185	C	0.118743	0.177175	0.614281
	C186	C	0.118195	0.823657	0.385382
	C187	C	0.881823	0.823431	0.614588
	C188	C	0.176264	0.385027	0.880748
	C189	C	0.175156	0.615611	0.117490
	C190	C	0.823935	0.385105	0.117836
	C191	C	0.823632	0.615360	0.881072
	C192	C	0.400928	0.094126	0.600035
	C193	C	0.599774	0.905163	0.599780
	C194	C	0.599752	0.094616	0.400372
	C195	C	0.401022	0.905545	0.400488
	C196	C	0.600271	0.400612	0.093866
	C197	C	0.599186	0.599625	0.906792
	C198	C	0.398890	0.599905	0.093452
	C199	C	0.399435	0.399943	0.906236
	C200	C	0.094063	0.599419	0.399173
	C201	C	0.905893	0.600049	0.600406
	C202	C	0.093906	0.401023	0.598990
	C203	C	0.906109	0.400611	0.399974
	C204	C	0.900691	0.594480	0.099522
	C205	C	0.099038	0.405953	0.098959
	C206	C	0.099082	0.594258	0.899890
	C207	C	0.901036	0.406457	0.899731
	C208	C	0.100584	0.899571	0.593687
	C209	C	0.100550	0.099555	0.406770
	C210	C	0.899519	0.100039	0.593985
	C211	C	0.899418	0.899812	0.406574
	C212	C	0.593836	0.098977	0.900036
	C213	C	0.405893	0.099840	0.100758
	C214	C	0.594145	0.900532	0.100718
	C215	C	0.406003	0.901064	0.900242
	Zn216	Zn	0.500109	-0.000552	0.749586
	Zn217	Zn	0.499942	-0.000029	0.250696
	Zn218	Zn	0.750699	0.500169	-0.000358
	Zn219	Zn	0.248675	0.500196	-0.000015
	Zn220	Zn	0.000135	0.749333	0.500023
	Zn221	Zn	0.000007	0.250106	0.500162
	Zn222	Zn	0.000471	0.500234	0.749429
	Zn223	Zn	0.000062	0.499798	0.249213
	Zn224	Zn	0.499882	0.750503	0.000591
	Zn225	Zn	0.499952	0.249897	0.000102
	Zn226	Zn	0.749180	0.000112	0.500128
	Zn227	Zn	0.251208	-0.000227	0.500678
	N228	N	0.414537	0.962648	0.678960
	N229	N	0.585948	0.036558	0.678554
	N230	N	0.585324	0.962620	0.322027
	N231	N	0.414939	0.037546	0.322178
	N232	N	0.679078	0.414015	0.963302
	N233	N	0.679403	0.586316	0.036676
	N234	N	0.320243	0.586196	0.962959
	N235	N	0.319977	0.413962	0.036761
	N236	N	0.962280	0.677172	0.415494
	N237	N	0.037892	0.676863	0.584214
	N238	N	0.962161	0.323343	0.583915
	N239	N	0.037351	0.321867	0.414924
	N240	N	0.963391	0.414131	0.678745
	N241	N	0.037080	0.586416	0.679070
	N242	N	0.963003	0.585719	0.320802
	N243	N	0.036627	0.413377	0.320211
	N244	N	0.414173	0.678621	0.962802
	N245	N	0.584632	0.678225	0.037822
	N246	N	0.585089	0.321895	0.963003
	N247	N	0.415255	0.322547	0.037491
	N248	N	0.677938	0.962402	0.415124
	N249	N	0.677330	0.037232	0.584842
	N250	N	0.322855	0.962139	0.585301
	N251	N	0.322634	0.037304	0.415616
	N252	N	0.913751	0.463257	0.178886
	N253	N	0.085801	0.537151	0.178195
	N254	N	0.085683	0.462790	0.820976
	N255	N	0.915121	0.537990	0.821165
	N256	N	0.179596	0.913668	0.463283
	N257	N	0.179070	0.085633	0.537465
	N258	N	0.821194	0.085288	0.463236
	N259	N	0.821000	0.914313	0.537416
	N260	N	0.462282	0.177371	0.915642
	N261	N	0.537625	0.177327	0.084696
	N262	N	0.462340	0.823421	0.084513
	N263	N	0.537272	0.822527	0.915584
	N264	N	0.463293	0.914038	0.179607
	N265	N	0.536892	0.086148	0.179729
	N266	N	0.463359	0.086248	0.820320
	N267	N	0.537013	0.913881	0.821028
	N268	N	0.915027	0.177804	0.462742
	N269	N	0.085281	0.178530	0.537335
	N270	N	0.084686	0.821868	0.462354
	N271	N	0.915042	0.821385	0.537557
	N272	N	0.177912	0.462726	0.914268
	N273	N	0.176454	0.538113	0.083846
	N274	N	0.822850	0.462351	0.083919
	N275	N	0.821869	0.537773	0.914327
