data_Molecule from HDF5

_cell_length_a		16.335173
_cell_length_b		16.473335
_cell_length_c		16.469268
_cell_angle_alpha	89.904118
_cell_angle_beta	90.238007
_cell_angle_gamma	89.955979
_symmetry_space_group_name_H-M	'P 1'
_symmetry_Int_Tables_number		1

loop_
	_symmetry_equiv_pos_as_xyz
	x,y,z

loop_
	_atom_site_label
	_atom_site_type_symbol
	_atom_site_fract_x
	_atom_site_fract_y
	_atom_site_fract_z
	H0	H	0.385410	0.863703	0.713037
	H1	H	0.598980	0.179230	0.708638
	H2	H	0.602787	0.864644	0.263935
	H3	H	0.390706	0.179916	0.268094
	H4	H	0.713610	0.419673	0.826868
	H5	H	0.714208	0.624134	0.146381
	H6	H	0.269723	0.628727	0.829254
	H7	H	0.276376	0.418981	0.146409
	H8	H	0.834110	0.743733	0.380554
	H9	H	0.153587	0.743344	0.593721
	H10	H	0.835526	0.299939	0.593157
	H11	H	0.153423	0.303512	0.385246
	H12	H	0.836050	0.414518	0.709365
	H13	H	0.154181	0.627175	0.708920
	H14	H	0.833669	0.627773	0.265628
	H15	H	0.153833	0.421119	0.270722
	H16	H	0.383325	0.748021	0.830084
	H17	H	0.601032	0.742529	0.144739
	H18	H	0.597609	0.302919	0.826669
	H19	H	0.391144	0.300919	0.145001
	H20	H	0.715915	0.862595	0.383081
	H21	H	0.714491	0.179491	0.591139
	H22	H	0.271758	0.862113	0.594075
	H23	H	0.276563	0.180712	0.386722
	H24	H	0.890668	0.364114	0.207781
	H25	H	0.099080	0.681255	0.207769
	H26	H	0.099330	0.363924	0.766155
	H27	H	0.886518	0.679804	0.763064
	H28	H	0.211366	0.919913	0.327253
	H29	H	0.213147	0.121973	0.648117
	H30	H	0.773894	0.123947	0.328715
	H31	H	0.774717	0.916832	0.646916
	H32	H	0.333528	0.241428	0.881740
	H33	H	0.655464	0.238518	0.088453
	H34	H	0.335453	0.800393	0.091388
	H35	H	0.653754	0.799857	0.881318
	H36	H	0.335041	0.916326	0.206823
	H37	H	0.654134	0.124455	0.207312
	H38	H	0.333943	0.125429	0.765548
	H39	H	0.654302	0.916484	0.767528
	H40	H	0.890887	0.241121	0.328471
	H41	H	0.099113	0.242072	0.646699
	H42	H	0.097328	0.801571	0.328440
	H43	H	0.887528	0.797344	0.644855
	H44	H	0.212482	0.362101	0.885258
	H45	H	0.214776	0.680745	0.090753
	H46	H	0.777300	0.362245	0.088127
	H47	H	0.773623	0.681446	0.882554
	H48	H	0.409760	0.130817	0.575372
	H49	H	0.577442	0.910348	0.577765
	H50	H	0.582033	0.133325	0.397695
	H51	H	0.399276	0.904738	0.393341
	H52	H	0.585399	0.432311	0.098213
	H53	H	0.576636	0.613298	0.874992
	H54	H	0.407914	0.603305	0.095814
	H55	H	0.402817	0.427498	0.872030
	H56	H	0.104308	0.603763	0.398741
	H57	H	0.882968	0.605880	0.573916
	H58	H	0.106749	0.435409	0.577161
	H59	H	0.877815	0.425864	0.399851
	H60	H	0.109173	0.431495	0.579013
	H61	H	0.880831	0.610082	0.577174
	H62	H	0.109891	0.613423	0.392366
	H63	H	0.880748	0.436330	0.400023
	H64	H	0.412575	0.615403	0.098168
	H65	H	0.586850	0.613110	0.872063
	H66	H	0.583215	0.425274	0.100507
	H67	H	0.400750	0.434668	0.873289
	H68	H	0.584193	0.133984	0.398951
	H69	H	0.585924	0.908353	0.572912
	H70	H	0.403996	0.131382	0.573529
	H71	H	0.410090	0.907912	0.392549
	H72	H	0.904204	0.634914	0.074366
	H73	H	0.087844	0.408903	0.075992
	H74	H	0.074965	0.631566	0.900882
	H75	H	0.901228	0.408263	0.898546
	H76	H	0.080573	0.933055	0.598919
	H77	H	0.080751	0.113092	0.375975
	H78	H	0.903680	0.113199	0.602033
	H79	H	0.908824	0.939332	0.378540
	H80	H	0.610274	0.116929	0.894003
	H81	H	0.379614	0.108485	0.080150
	H82	H	0.606985	0.938493	0.078129
	H83	H	0.380266	0.928922	0.902924
	H84	H	0.611562	0.928005	0.081220
	H85	H	0.378283	0.116372	0.076833
	H86	H	0.606114	0.112979	0.903251
	H87	H	0.385965	0.940217	0.904994
	H88	H	0.905213	0.108417	0.600007
	H89	H	0.084883	0.117377	0.373598
	H90	H	0.081905	0.929499	0.600807
	H91	H	0.909846	0.926017	0.373823
	H92	H	0.088640	0.635823	0.902831
	H93	H	0.084698	0.406830	0.083567
	H94	H	0.902491	0.637258	0.078588
	H95	H	0.907145	0.409290	0.893038
	H96	H	0.405538	0.132991	0.579206
	H97	H	0.585192	0.905813	0.582718
	H98	H	0.583829	0.134717	0.396106
	H99	H	0.404338	0.908553	0.402196
	H100	H	0.590598	0.427316	0.102000
	H101	H	0.582162	0.604561	0.876410
	H102	H	0.400147	0.611961	0.101382
	H103	H	0.407831	0.432252	0.874764
	H104	H	0.106006	0.615048	0.404556
	H105	H	0.882167	0.611212	0.571907
	H106	H	0.107379	0.431466	0.574321
	H107	H	0.876759	0.431948	0.391124
	H108	H	0.907449	0.635555	0.078360
	H109	H	0.079661	0.410705	0.078310
	H110	H	0.082030	0.636799	0.889422
	H111	H	0.908087	0.412461	0.900077
	H112	H	0.084252	0.932576	0.599887
	H113	H	0.086975	0.110853	0.374248
	H114	H	0.909072	0.112558	0.600468
	H115	H	0.897474	0.933072	0.372096
	H116	H	0.606522	0.106274	0.894268
	H117	H	0.382461	0.110067	0.071864
	H118	H	0.607100	0.929796	0.070060
	H119	H	0.380183	0.937325	0.894007
	C120	C	0.373003	0.027973	0.609456
	C121	C	0.615531	1.012506	0.609708
	C122	C	0.615550	0.029421	0.366095
	C123	C	0.372596	1.012064	0.365273
	C124	C	0.616986	0.398970	-0.005329
	C125	C	0.614950	0.642214	0.978982
	C126	C	0.372690	0.643578	-0.005465
	C127	C	0.373146	0.400315	0.978627
	C128	C	0.001592	0.643280	0.365985
	C129	C	0.986757	0.641837	0.607563
	C130	C	0.002615	0.400388	0.608616
	C131	C	0.984498	0.401110	0.366603
	C132	C	0.873075	0.531024	0.108625
	C133	C	0.116144	0.513699	0.110252
	C134	C	0.114696	0.530221	0.866377
	C135	C	0.872779	0.514274	0.864713
	C136	C	0.114900	0.900232	0.495404
	C137	C	0.116280	0.143853	0.479697
	C138	C	0.873292	0.142880	0.495849
	C139	C	0.872589	0.899812	0.479209
	C140	C	0.502320	0.143593	0.864697
	C141	C	0.486034	0.142841	0.107899
	C142	C	0.503474	0.899878	0.108485
	C143	C	0.486673	0.901604	0.867231
	C144	C	0.368329	0.910504	0.671851
	C145	C	0.617647	0.131598	0.668991
	C146	C	0.619489	0.911094	0.305296
	C147	C	0.372018	0.132327	0.307556
	C148	C	0.674624	0.400046	0.874746
	C149	C	0.675134	0.643113	0.098191
	C150	C	0.310484	0.646719	0.876319
	C151	C	0.315425	0.399814	0.098549
	C152	C	0.881786	0.703497	0.363016
	C153	C	0.106080	0.702697	0.611155
	C154	C	0.883165	0.339967	0.611067
	C155	C	0.105571	0.343139	0.366395
	C156	C	0.883395	0.397139	0.668959
	C157	C	0.106256	0.644914	0.668739
	C158	C	0.881504	0.645518	0.305805
	C159	C	0.105672	0.401297	0.309211
	C160	C	0.367165	0.706168	0.876954
	C161	C	0.618492	0.702114	0.097593
	C162	C	0.617005	0.341624	0.874649
	C163	C	0.372549	0.341139	0.097888
	C164	C	0.676027	0.910342	0.364596
	C165	C	0.675164	0.131738	0.610783
	C166	C	0.311668	0.909587	0.612445
	C167	C	0.314765	0.132305	0.366157
	C168	C	0.871874	0.411285	0.167881
	C169	C	0.117813	0.633355	0.168674
	C170	C	0.117429	0.411053	0.806543
	C171	C	0.869094	0.632841	0.803828
	C172	C	0.173161	0.899968	0.375496
	C173	C	0.174437	0.142608	0.599904
	C174	C	0.814045	0.143206	0.376097
	C175	C	0.813755	0.898047	0.598879
	C176	C	0.381816	0.202393	0.862742
	C177	C	0.607041	0.200001	0.108300
	C178	C	0.383318	0.840079	0.110116
	C179	C	0.606103	0.840403	0.864091
	C180	C	0.383150	0.897852	0.167462
	C181	C	0.606540	0.143144	0.167070
	C182	C	0.381946	0.144499	0.805111
	C183	C	0.606502	0.898610	0.807378
	C184	C	0.871848	0.201517	0.376069
	C185	C	0.117885	0.202395	0.599177
	C186	C	0.116178	0.841251	0.375946
	C187	C	0.869870	0.838465	0.597929
	C188	C	0.174220	0.410512	0.865421
	C189	C	0.175308	0.633153	0.110328
	C190	C	0.815517	0.410556	0.108202
	C191	C	0.812905	0.633566	0.863398
	C192	C	0.399036	0.110442	0.583483
	C193	C	0.590252	0.929890	0.584814
	C194	C	0.590352	0.112335	0.390599
	C195	C	0.397298	0.928935	0.389274
	C196	C	0.593236	0.421970	0.078653
	C197	C	0.588932	0.617481	0.895869
	C198	C	0.399357	0.617611	0.077043
	C199	C	0.397079	0.424417	0.895143
	C200	C	0.085231	0.618001	0.391371
	C201	C	0.903493	0.616385	0.581748
	C202	C	0.086258	0.425580	0.583700
	C203	C	0.900324	0.424565	0.390245
	C204	C	0.897526	0.614126	0.084306
	C205	C	0.091233	0.430449	0.086416
	C206	C	0.089439	0.613104	0.890804
	C207	C	0.898388	0.431525	0.889834
	C208	C	0.089706	0.924687	0.578238
	C209	C	0.091491	0.120434	0.396278
	C210	C	0.898619	0.118545	0.579207
	C211	C	0.898080	0.925212	0.396393
	C212	C	0.585965	0.119207	0.889838
	C213	C	0.401937	0.118603	0.083480
	C214	C	0.586797	0.924882	0.083714
	C215	C	0.403899	0.927841	0.893138
	Zn216	Zn	0.494210	0.020853	0.738212
	Zn217	Zn	0.494519	0.021219	0.236651
	Zn218	Zn	0.744755	0.522223	-0.013670
	Zn219	Zn	0.243893	0.521764	-0.012786
	Zn220	Zn	-0.006113	0.771141	0.487395
	Zn221	Zn	-0.006111	0.272386	0.487608
	Zn222	Zn	-0.005737	0.521935	0.736482
	Zn223	Zn	-0.006150	0.522712	0.237895
	Zn224	Zn	0.494798	0.772021	-0.013136
	Zn225	Zn	0.494361	0.271020	-0.013653
	Zn226	Zn	0.744364	0.021501	0.487902
	Zn227	Zn	0.244328	0.020643	0.487784
	N228	N	0.405996	0.985101	0.669746
	N229	N	0.581615	0.056387	0.668692
	N230	N	0.582412	0.986058	0.306321
	N231	N	0.406952	0.056359	0.306393
	N232	N	0.674932	0.434624	0.950560
	N233	N	0.673012	0.606449	0.023161
	N234	N	0.313977	0.608442	0.950514
	N235	N	0.315632	0.435759	0.023219
	N236	N	0.957316	0.702035	0.400113
	N237	N	0.030824	0.700823	0.573698
	N238	N	0.958337	0.342118	0.574053
	N239	N	0.029314	0.342756	0.401214
	N240	N	0.958640	0.434226	0.667490
	N241	N	0.031009	0.607561	0.666379
	N242	N	0.957066	0.608795	0.307682
	N243	N	0.029471	0.436510	0.309001
	N244	N	0.405418	0.704110	0.951430
	N245	N	0.582012	0.701659	0.022427
	N246	N	0.581980	0.340792	0.950376
	N247	N	0.407549	0.341255	0.022193
	N248	N	0.673489	0.984817	0.402005
	N249	N	0.674191	0.056710	0.574820
	N250	N	0.314755	0.983722	0.574254
	N251	N	0.314856	0.056515	0.401187
	N252	N	0.906865	0.487127	0.168260
	N253	N	0.082148	0.557791	0.169069
	N254	N	0.081218	0.486361	0.806830
	N255	N	0.905245	0.557488	0.804285
	N256	N	0.172704	0.935664	0.450932
	N257	N	0.173857	0.107279	0.524426
	N258	N	0.814843	0.107671	0.451582
	N259	N	0.815182	0.935239	0.524118
	N260	N	0.457725	0.202171	0.898857
	N261	N	0.531122	0.199778	0.072077
	N262	N	0.459238	0.840863	0.074410
	N263	N	0.530535	0.842034	0.900499
	N264	N	0.458778	0.934267	0.166797
	N265	N	0.530177	0.108133	0.166755
	N266	N	0.457910	0.108845	0.806157
	N267	N	0.531088	0.935697	0.809107
	N268	N	0.907833	0.201401	0.451696
	N269	N	0.082365	0.203184	0.523309
	N270	N	0.081216	0.840760	0.451728
	N271	N	0.905420	0.839213	0.522240
	N272	N	0.172468	0.485569	0.901935
	N273	N	0.174521	0.557799	0.074732
	N274	N	0.815987	0.485898	0.072359
	N275	N	0.815208	0.558967	0.900731
	O276	O	0.692107	0.414670	0.412382
	H277	H	0.696609	0.404604	0.409171
	H278	H	0.690881	0.441513	0.401210
	O279	O	0.673587	0.735620	0.495668
	H280	H	0.695329	0.749898	0.488159
	H281	H	0.662194	0.740653	0.468685
	O282	O	0.574984	0.697387	0.437462
	H283	H	0.570021	0.686988	0.444959
	H284	H	0.566345	0.691990	0.421389
	O285	O	1.446553	1.724611	0.276802
	H286	H	1.443299	1.731392	0.263040
	H287	H	1.427422	1.726432	0.272061
	O288	O	1.144950	-0.058590	1.059956
	H289	H	1.128990	-0.054986	1.074341
	H290	H	1.154409	-0.047888	1.060423
	O291	O	0.639636	0.497298	0.455395
	H292	H	0.627796	0.508828	0.448789
	H293	H	0.626396	0.494416	0.447581
	O294	O	1.182293	1.051108	1.195752
	H295	H	1.191963	1.076201	1.212607
	H296	H	1.180600	1.064053	1.208141
	O297	O	0.558301	0.503433	0.464148
	H298	H	0.552355	0.494928	0.463945
	H299	H	0.557090	0.510710	0.471619
	O300	O	-0.578358	-0.441962	-0.310496
	H301	H	-0.574062	-0.439921	-0.314016
	H302	H	-0.568207	-0.425046	-0.300437
	O303	O	0.463331	0.357937	1.374871
	H304	H	0.449335	0.344204	1.379020
	H305	H	0.471175	0.351357	1.387092
	O306	O	-0.056099	-0.089549	0.927844
	H307	H	-0.041866	-0.102654	0.921816
	H308	H	-0.061096	-0.093486	0.936115
	O309	O	0.936302	-0.086934	0.168577
	H310	H	0.915165	-0.058252	0.164182
	H311	H	0.955194	-0.089207	0.164397
	O312	O	0.698978	0.588336	0.643897
	H313	H	0.703035	0.574938	0.617480
	H314	H	0.725547	0.583321	0.646943
	O315	O	0.658028	0.703730	0.674960
	H316	H	0.661310	0.708267	0.651360
	H317	H	0.675794	0.676327	0.666220
	O318	O	1.044575	-0.910560	-0.199614
	H319	H	1.057616	-0.910132	-0.204903
	H320	H	1.043311	-0.900289	-0.183606
	O321	O	0.588848	0.414820	0.401256
	H322	H	0.593193	0.413864	0.392119
	H323	H	0.580746	0.429315	0.412266
	O324	O	0.838571	0.084287	1.099662
	H325	H	0.828531	0.093467	1.075330
	H326	H	0.838431	0.089741	1.089634
	O327	O	0.100686	0.954571	0.881777
	H328	H	0.092823	0.952356	0.885058
	H329	H	0.112427	0.956539	0.894487
	O330	O	0.086326	0.827755	0.855315
	H331	H	0.105005	0.835647	0.846561
	H332	H	0.111818	0.821665	0.851161
	O333	O	0.681968	0.393227	-0.448321
	H334	H	0.683156	0.377714	-0.454726
	H335	H	0.672178	0.411244	-0.453951
	O336	O	1.054488	1.025058	-0.101058
	H337	H	1.049612	1.017445	-0.098874
	H338	H	1.055237	1.050514	-0.091612
	O339	O	0.025054	1.190161	1.181543
	H340	H	0.004360	1.187501	1.177615
	H341	H	0.004781	1.195513	1.181286
	O342	O	0.442592	0.527604	0.412153
	H343	H	0.415415	0.535233	0.420879
	H344	H	0.444411	0.516749	0.420293
	O345	O	0.177648	-0.090245	0.887239
	H346	H	0.183339	-0.077241	0.913015
	H347	H	0.181304	-0.074194	0.899414
	O348	O	0.302638	0.654626	0.329885
	H349	H	0.301647	0.661492	0.343086
	H350	H	0.279421	0.648289	0.328432
	O351	O	0.825912	0.015095	0.049691
	H352	H	0.815868	0.009014	0.050680
	H353	H	0.834497	0.024825	0.042547
	O354	O	0.388082	0.729119	1.519727
	H355	H	0.407450	0.733185	1.529178
	H356	H	0.374042	0.744536	1.524834
	O357	O	-0.147260	0.234836	-0.074051
	H358	H	-0.142830	0.206806	-0.100413
	H359	H	-0.168514	0.260389	-0.080751
	O360	O	0.883082	-0.012570	1.071983
	H361	H	0.883990	-0.012804	1.062637
	H362	H	0.874674	-0.007161	1.064425
	O363	O	0.929907	0.061252	-0.056607
	H364	H	0.927287	0.067400	-0.073170
	H365	H	0.925692	0.055910	-0.068469
	O366	O	-0.179796	-0.065502	1.004340
	H367	H	-0.180127	-0.059049	0.994762
	H368	H	-0.178262	-0.050376	1.006204
	O369	O	0.965936	-0.115624	0.988203
	H370	H	0.943082	-0.099615	0.976191
	H371	H	0.966803	-0.128317	0.976184
	O372	O	0.622775	0.449083	0.297203
	H373	H	0.616981	0.474760	0.288897
	H374	H	0.618490	0.442596	0.300688
	O375	O	-0.171012	0.088523	0.824270
	H376	H	-0.162357	0.090540	0.808804
	H377	H	-0.160339	0.069948	0.823926
	O378	O	0.529765	0.447166	0.656121
	H379	H	0.533185	0.469733	0.660871
	H380	H	0.523021	0.449673	0.655051
	O381	O	-0.107540	1.028319	-0.159580
	H382	H	-0.109432	1.030170	-0.160329
	H383	H	-0.116714	1.023616	-0.158884
	O384	O	0.324404	0.352172	0.313861
	H385	H	0.330466	0.369556	0.331821
	H386	H	0.343948	0.355158	0.331125
	O387	O	1.077493	0.206516	0.945553
	H388	H	1.093396	0.207423	0.952094
	H389	H	1.081148	0.203267	0.954413
	O390	O	0.971771	1.119676	0.061569
	H391	H	0.964020	1.120047	0.064506
	H392	H	0.969903	1.125172	0.049861
	O393	O	1.173410	0.220675	1.185964
	H394	H	1.159674	0.243846	1.206618
	H395	H	1.165932	0.224864	1.199378
	O396	O	0.301668	0.640699	0.519201
	H397	H	0.306334	0.650318	0.519531
	H398	H	0.301533	0.654303	0.507905
	O399	O	0.289108	0.357037	0.490811
	H400	H	0.282470	0.352786	0.511460
	H401	H	0.283232	0.361772	0.502445
	O402	O	1.009874	1.206973	-0.203748
	H403	H	0.998955	1.222955	-0.207170
	H404	H	1.025443	1.199010	-0.189845
	O405	O	-0.509274	-0.264583	0.652690
	H406	H	-0.488999	-0.248153	0.658006
	H407	H	-0.472435	-0.264100	0.660182
	O408	O	0.358527	0.578906	0.354115
	H409	H	0.366176	0.573203	0.355014
	H410	H	0.339238	0.573839	0.337992
	O411	O	0.300020	0.575273	1.480668
	H412	H	0.294232	0.588631	1.483479
	H413	H	0.298339	0.595118	1.476385
	O414	O	0.469455	0.322027	0.696968
	H415	H	0.479385	0.318193	0.708844
	H416	H	0.460360	0.308939	0.703965
	O417	O	-0.038432	0.956592	0.926141
	H418	H	-0.049009	0.957062	0.928322
	H419	H	-0.024197	0.952376	0.928711
	O420	O	0.689457	1.378435	1.398496
	H421	H	0.681402	1.396597	1.398211
	H422	H	0.679891	1.370040	1.405044
	O423	O	0.201002	1.199204	0.005370
	H424	H	0.214390	1.210511	0.021666
	H425	H	0.210960	1.200485	0.033915
	O426	O	1.022908	-0.183569	0.106425
	H427	H	1.031769	-0.191010	0.118617
	H428	H	1.011629	-0.181081	0.104653
	O429	O	0.512379	0.380164	0.293884
	H430	H	0.530778	0.372382	0.299090
	H431	H	0.513471	0.383951	0.293981
	O432	O	0.560517	0.522311	0.472118
	H433	H	0.528722	0.523189	0.466868
	H434	H	0.561448	0.530416	0.472702
	O435	O	-0.027422	-0.010092	0.086439
	H436	H	-0.034637	-0.018915	0.078043
	H437	H	-0.034275	-0.008646	0.078167
	O438	O	-0.697263	1.331773	0.656960
	H439	H	-0.708785	1.368639	0.658862
	H440	H	-0.677960	1.321916	0.668626
	O441	O	0.344223	0.551486	0.662671
	H442	H	0.359437	0.557503	0.664306
	H443	H	0.333173	0.564454	0.684148
