data_Molecule from HDF5

_cell_length_a		16.431955
_cell_length_b		16.382652
_cell_length_c		16.329940
_cell_angle_alpha	90.182137
_cell_angle_beta	89.851617
_cell_angle_gamma	89.951139
_symmetry_space_group_name_H-M	'P 1'
_symmetry_Int_Tables_number		1

loop_
	_symmetry_equiv_pos_as_xyz
	x,y,z

loop_
	_atom_site_label
	_atom_site_type_symbol
	_atom_site_fract_x
	_atom_site_fract_y
	_atom_site_fract_z
	H0	H	0.400060	0.832179	0.725116
	H1	H	0.604055	0.152683	0.724286
	H2	H	0.607032	0.832858	0.283967
	H3	H	0.401739	0.153440	0.291084
	H4	H	0.722436	0.385843	0.844796
	H5	H	0.722626	0.598696	0.164382
	H6	H	0.282905	0.597115	0.843907
	H7	H	0.281784	0.391655	0.164860
	H8	H	0.843262	0.713383	0.398517
	H9	H	0.159438	0.712803	0.609725
	H10	H	0.842258	0.271175	0.608105
	H11	H	0.162522	0.273456	0.399648
	H12	H	0.842846	0.384493	0.726357
	H13	H	0.160295	0.595928	0.723908
	H14	H	0.841225	0.595612	0.285015
	H15	H	0.160960	0.389668	0.282830
	H16	H	0.399115	0.712416	0.844371
	H17	H	0.603599	0.711822	0.166633
	H18	H	0.604900	0.271733	0.845101
	H19	H	0.399047	0.276898	0.166977
	H20	H	0.722705	0.832327	0.400720
	H21	H	0.724693	0.150869	0.613125
	H22	H	0.281079	0.832096	0.612315
	H23	H	0.284044	0.152067	0.405098
	H24	H	0.899804	0.331319	0.220216
	H25	H	0.101482	0.653379	0.222007
	H26	H	0.106147	0.331914	0.784873
	H27	H	0.897642	0.651371	0.783641
	H28	H	0.221034	0.889397	0.343535
	H29	H	0.220885	0.096279	0.665335
	H30	H	0.782965	0.094085	0.344868
	H31	H	0.780004	0.884356	0.664048
	H32	H	0.341305	0.211099	0.904883
	H33	H	0.660529	0.214488	0.110303
	H34	H	0.342523	0.772645	0.112660
	H35	H	0.660703	0.772049	0.900963
	H36	H	0.341828	0.892183	0.224778
	H37	H	0.661824	0.095659	0.224425
	H38	H	0.342405	0.097091	0.786946
	H39	H	0.661266	0.887801	0.785089
	H40	H	0.901610	0.207498	0.342452
	H41	H	0.107048	0.213866	0.663490
	H42	H	0.104806	0.773260	0.342687
	H43	H	0.895636	0.768679	0.663300
	H44	H	0.223032	0.333207	0.899367
	H45	H	0.220745	0.652658	0.109857
	H46	H	0.780881	0.333232	0.107619
	H47	H	0.780615	0.651832	0.898549
	H48	H	0.415426	0.105032	0.597858
	H49	H	0.587347	0.878823	0.600683
	H50	H	0.594488	0.104579	0.419360
	H51	H	0.411548	0.876372	0.414233
	H52	H	0.593002	0.404032	0.119682
	H53	H	0.592104	0.579492	0.892095
	H54	H	0.410740	0.584356	0.119516
	H55	H	0.409704	0.399862	0.889171
	H56	H	0.114655	0.580973	0.414837
	H57	H	0.887300	0.584164	0.591218
	H58	H	0.112658	0.401221	0.585836
	H59	H	0.891679	0.405784	0.419830
	H60	H	0.113763	0.408301	0.597256
	H61	H	0.890644	0.576078	0.587607
	H62	H	0.114224	0.579752	0.412646
	H63	H	0.885202	0.402432	0.401738
	H64	H	0.408847	0.583906	0.119293
	H65	H	0.587465	0.582946	0.892003
	H66	H	0.591483	0.407265	0.117806
	H67	H	0.411473	0.405517	0.891154
	H68	H	0.594424	0.107459	0.414296
	H69	H	0.587618	0.882181	0.587835
	H70	H	0.408858	0.105063	0.590588
	H71	H	0.412621	0.877969	0.415496
	H72	H	0.911215	0.607936	0.097198
	H73	H	0.090762	0.381684	0.085086
	H74	H	0.093551	0.605628	0.917626
	H75	H	0.905031	0.377241	0.917737
	H76	H	0.088286	0.899173	0.619033
	H77	H	0.093703	0.080466	0.389394
	H78	H	0.915828	0.074249	0.615058
	H79	H	0.911675	0.903574	0.391324
	H80	H	0.614486	0.084651	0.919957
	H81	H	0.384200	0.085917	0.106555
	H82	H	0.614967	0.907559	0.098828
	H83	H	0.386343	0.902980	0.910889
	H84	H	0.618237	0.897960	0.098083
	H85	H	0.386927	0.091544	0.092512
	H86	H	0.613996	0.078324	0.916878
	H87	H	0.388361	0.898599	0.919988
	H88	H	0.918202	0.087092	0.619006
	H89	H	0.094475	0.082654	0.389460
	H90	H	0.094457	0.900128	0.619919
	H91	H	0.914857	0.903361	0.391114
	H92	H	0.094116	0.608141	0.910891
	H93	H	0.099379	0.375457	0.095221
	H94	H	0.912717	0.605763	0.092382
	H95	H	0.913417	0.376861	0.908973
	H96	H	0.406605	0.108694	0.599267
	H97	H	0.598375	0.876674	0.593560
	H98	H	0.589965	0.105597	0.416953
	H99	H	0.410480	0.877454	0.416436
	H100	H	0.589280	0.403906	0.118767
	H101	H	0.591978	0.584470	0.889423
	H102	H	0.410117	0.582503	0.119376
	H103	H	0.415618	0.400458	0.891268
	H104	H	0.115209	0.582106	0.412326
	H105	H	0.889079	0.576374	0.597480
	H106	H	0.118255	0.394925	0.596908
	H107	H	0.884172	0.387431	0.415033
	H108	H	0.907749	0.608261	0.092950
	H109	H	0.085498	0.378766	0.098604
	H110	H	0.087924	0.605135	0.913493
	H111	H	0.916306	0.381674	0.920072
	H112	H	0.090879	0.904628	0.617035
	H113	H	0.095724	0.080893	0.388979
	H114	H	0.906271	0.081763	0.621008
	H115	H	0.912571	0.900461	0.390266
	H116	H	0.616526	0.083645	0.913243
	H117	H	0.390769	0.077150	0.095753
	H118	H	0.613456	0.902933	0.089783
	H119	H	0.390914	0.908633	0.918599
	C120	C	0.379442	0.000574	0.627855
	C121	C	0.623270	0.984144	0.626461
	C122	C	0.624101	0.000305	0.384147
	C123	C	0.381615	0.983643	0.385465
	C124	C	0.622599	0.371804	0.013314
	C125	C	0.622462	0.614593	0.996924
	C126	C	0.379690	0.614832	0.013172
	C127	C	0.380416	0.371773	0.996511
	C128	C	0.009436	0.612570	0.382129
	C129	C	0.993378	0.611674	0.624603
	C130	C	0.009834	0.369267	0.625551
	C131	C	0.993018	0.369275	0.381248
	C132	C	0.879346	0.501367	0.125463
	C133	C	0.122569	0.484534	0.124950
	C134	C	0.123417	0.500642	0.882780
	C135	C	0.879937	0.483907	0.883106
	C136	C	0.123221	0.869674	0.512699
	C137	C	0.124753	0.113173	0.495753
	C138	C	0.881567	0.112502	0.512771
	C139	C	0.880797	0.869832	0.496223
	C140	C	0.509868	0.114094	0.885398
	C141	C	0.492788	0.115796	0.129000
	C142	C	0.510211	0.871799	0.127421
	C143	C	0.493472	0.871229	0.883925
	C144	C	0.379944	0.880194	0.686405
	C145	C	0.623928	0.104591	0.685223
	C146	C	0.625297	0.880508	0.324209
	C147	C	0.381897	0.104904	0.328864
	C148	C	0.682425	0.368348	0.892870
	C149	C	0.682289	0.616589	0.116848
	C150	C	0.321718	0.616075	0.892218
	C151	C	0.321371	0.372425	0.117239
	C152	C	0.890198	0.673092	0.380315
	C153	C	0.111999	0.672452	0.627388
	C154	C	0.890245	0.309913	0.627099
	C155	C	0.114157	0.312399	0.380759
	C156	C	0.890760	0.366468	0.686335
	C157	C	0.112432	0.614097	0.684392
	C158	C	0.889383	0.614220	0.323961
	C159	C	0.113439	0.369991	0.322545
	C160	C	0.379796	0.673438	0.892487
	C161	C	0.623070	0.673257	0.117887
	C162	C	0.624055	0.311329	0.892950
	C163	C	0.379761	0.315214	0.118093
	C164	C	0.682899	0.880027	0.382025
	C165	C	0.684042	0.103363	0.630113
	C166	C	0.320594	0.880424	0.630140
	C167	C	0.323266	0.104268	0.385636
	C168	C	0.879899	0.380021	0.182268
	C169	C	0.121708	0.605070	0.183475
	C170	C	0.124824	0.380149	0.824199
	C171	C	0.878643	0.603631	0.823168
	C172	C	0.182131	0.869607	0.391822
	C173	C	0.182143	0.114900	0.616829
	C174	C	0.822700	0.112979	0.392457
	C175	C	0.820184	0.866613	0.616079
	C176	C	0.389428	0.172275	0.885282
	C177	C	0.612745	0.174905	0.129688
	C178	C	0.390242	0.812700	0.129853
	C179	C	0.613010	0.811669	0.882167
	C180	C	0.389869	0.872057	0.185911
	C181	C	0.613449	0.115846	0.186457
	C182	C	0.390095	0.115433	0.826501
	C183	C	0.613408	0.869591	0.824694
	C184	C	0.881874	0.169387	0.391424
	C185	C	0.125586	0.173697	0.615883
	C186	C	0.124113	0.811968	0.391262
	C187	C	0.877711	0.808818	0.615669
	C188	C	0.183007	0.380775	0.881457
	C189	C	0.180903	0.604833	0.127375
	C190	C	0.820662	0.380928	0.126329
	C191	C	0.820458	0.603868	0.880504
	C192	C	0.403342	0.084465	0.603255
	C193	C	0.598423	0.900850	0.601276
	C194	C	0.599991	0.084064	0.409568
	C195	C	0.405036	0.899284	0.408707
	C196	C	0.598153	0.397694	0.096959
	C197	C	0.597790	0.589524	0.912996
	C198	C	0.403119	0.590563	0.097527
	C199	C	0.405064	0.395418	0.912406
	C200	C	0.093040	0.588003	0.406407
	C201	C	0.910422	0.586056	0.599362
	C202	C	0.093100	0.394321	0.600548
	C203	C	0.909011	0.391804	0.405381
	C204	C	0.903398	0.585250	0.101363
	C205	C	0.098872	0.400443	0.100074
	C206	C	0.098907	0.584479	0.906891
	C207	C	0.904528	0.400476	0.908151
	C208	C	0.098336	0.894211	0.596769
	C209	C	0.101387	0.088580	0.411443
	C210	C	0.906297	0.088037	0.596555
	C211	C	0.905900	0.895333	0.412654
	C212	C	0.593314	0.089397	0.909737
	C213	C	0.409050	0.091849	0.105338
	C214	C	0.593790	0.895777	0.102715
	C215	C	0.410154	0.896244	0.909145
	Zn216	Zn	0.502359	-0.006846	0.755555
	Zn217	Zn	0.502285	-0.007305	0.256167
	Zn218	Zn	0.751453	0.492779	0.003978
	Zn219	Zn	0.251540	0.493432	0.004394
	Zn220	Zn	0.001482	0.741075	0.503474
	Zn221	Zn	0.002773	0.240589	0.503549
	Zn222	Zn	0.001366	0.491369	0.754552
	Zn223	Zn	0.000942	0.492328	0.253482
	Zn224	Zn	0.500934	0.743226	0.005803
	Zn225	Zn	0.501567	0.243251	0.005947
	Zn226	Zn	0.752309	-0.008471	0.505536
	Zn227	Zn	0.251855	-0.009237	0.505531
	N228	N	0.415736	0.956001	0.685193
	N229	N	0.587019	0.029568	0.683308
	N230	N	0.589505	0.956340	0.325439
	N231	N	0.417529	0.028976	0.328670
	N232	N	0.681708	0.405391	0.968550
	N233	N	0.682120	0.581096	0.040461
	N234	N	0.321363	0.580487	0.968311
	N235	N	0.321776	0.406952	0.040610
	N236	N	0.965814	0.671831	0.416058
	N237	N	0.036797	0.671270	0.591061
	N238	N	0.965422	0.311300	0.590245
	N239	N	0.038299	0.311796	0.416681
	N240	N	0.966276	0.402619	0.685631
	N241	N	0.037500	0.576850	0.682865
	N242	N	0.964467	0.577325	0.325057
	N243	N	0.037231	0.404296	0.322471
	N244	N	0.414848	0.672847	0.968813
	N245	N	0.586748	0.672159	0.042160
	N246	N	0.587697	0.313203	0.968793
	N247	N	0.415626	0.314695	0.042053
	N248	N	0.682209	0.955569	0.418591
	N249	N	0.683698	0.027380	0.594145
	N250	N	0.320245	0.956320	0.594463
	N251	N	0.323072	0.027901	0.420146
	N252	N	0.915471	0.455958	0.181885
	N253	N	0.085964	0.529323	0.181985
	N254	N	0.088529	0.455729	0.824753
	N255	N	0.914663	0.527891	0.824463
	N256	N	0.181878	0.904566	0.468531
	N257	N	0.181530	0.077798	0.541233
	N258	N	0.822269	0.078334	0.468953
	N259	N	0.822108	0.903969	0.540859
	N260	N	0.464855	0.171446	0.921258
	N261	N	0.536786	0.174975	0.094688
	N262	N	0.466141	0.812465	0.094004
	N263	N	0.537500	0.812552	0.918294
	N264	N	0.465349	0.908019	0.184469
	N265	N	0.537930	0.079968	0.186360
	N266	N	0.465934	0.079925	0.826344
	N267	N	0.537782	0.905965	0.825586
	N268	N	0.917570	0.169122	0.467380
	N269	N	0.090690	0.172756	0.539568
	N270	N	0.088477	0.811669	0.467446
	N271	N	0.914654	0.810712	0.540103
	N272	N	0.182318	0.456971	0.916951
	N273	N	0.181280	0.528854	0.091489
	N274	N	0.820040	0.457371	0.091791
	N275	N	0.821178	0.528388	0.916898
	O276	O	0.668185	0.648056	0.643414
	H277	H	0.665597	0.653660	0.625761
	H278	H	0.641753	0.659008	0.647408
	O279	O	0.588200	0.605765	0.588524
	H280	H	0.596879	0.608651	0.602367
	H281	H	0.577825	0.626157	0.589969
	O282	O	0.702850	0.436249	0.317743
	H283	H	0.687143	0.404474	0.322167
	H284	H	0.726465	0.430691	0.305388
	O285	O	1.212733	-0.214566	-0.029627
	H286	H	1.210366	-0.210882	-0.050247
	H287	H	1.235147	-0.236797	-0.043123
	O288	O	0.146297	0.035564	0.947724
	H289	H	0.142738	0.052518	0.942932
	H290	H	0.166138	0.035591	0.932852
	O291	O	0.395777	0.596271	0.556239
	H292	H	0.392866	0.580815	0.560284
	H293	H	0.375888	0.611053	0.556685
	O294	O	0.493241	0.449374	0.332244
	H295	H	0.505065	0.446028	0.326135
	H296	H	0.489467	0.450246	0.337464
	O297	O	1.072932	0.887954	1.094631
	H298	H	1.076144	0.885983	1.089547
	H299	H	1.079895	0.894992	1.090795
	O300	O	-0.053480	-0.181502	-0.154139
	H301	H	-0.052238	-0.182833	-0.166344
	H302	H	-0.061764	-0.198842	-0.133280
	O303	O	0.337825	0.507787	0.314218
	H304	H	0.344397	0.506879	0.312836
	H305	H	0.337334	0.500989	0.314824
	O306	O	0.970228	-0.043515	-0.201722
	H307	H	0.962881	-0.051237	-0.205111
	H308	H	0.966451	-0.042096	-0.194359
	O309	O	0.330228	0.556105	0.670086
	H310	H	0.317334	0.563835	0.655391
	H311	H	0.324013	0.542370	0.669589
	O312	O	0.316517	1.400807	-0.430614
	H313	H	0.300173	1.393667	-0.410996
	H314	H	0.320024	1.392259	-0.416700
	O315	O	0.594582	0.343601	0.565748
	H316	H	0.606552	0.347113	0.560096
	H317	H	0.595365	0.348742	0.563986
	O318	O	0.536164	0.379738	0.653773
	H319	H	0.547374	0.392021	0.647255
	H320	H	0.547830	0.378150	0.645198
	O321	O	0.846337	-0.189225	1.030033
	H322	H	0.847505	-0.181482	1.056851
	H323	H	0.827637	-0.209469	1.046379
	O324	O	-0.196358	-0.031963	0.965721
	H325	H	-0.199011	-0.060589	0.967353
	H326	H	-0.205189	-0.027121	0.953516
	O327	O	0.540636	0.563609	0.645208
	H328	H	0.539314	0.566148	0.660942
	H329	H	0.528404	0.538078	0.650163
	O330	O	0.350517	0.506607	0.515196
	H331	H	0.339740	0.519874	0.508572
	H332	H	0.361723	0.510061	0.512064
	O333	O	1.152322	1.060800	0.899336
	H334	H	1.142171	1.057901	0.889474
	H335	H	1.167855	1.072761	0.907446
	O336	O	0.668077	0.538652	0.583039
	H337	H	0.688950	0.553717	0.588475
	H338	H	0.676435	0.557395	0.583099
	O339	O	1.033191	0.050815	1.028078
	H340	H	1.041482	0.044014	1.030053
	H341	H	1.036758	0.046768	1.029484
	O342	O	0.127350	1.126443	1.060108
	H343	H	0.138269	1.140312	1.060361
	H344	H	0.124905	1.131630	1.060660
	O345	O	-0.047366	1.098889	1.110013
	H346	H	-0.048240	1.102752	1.108688
	H347	H	-0.046131	1.093591	1.115916
	O348	O	0.569099	0.432630	0.661204
	H349	H	0.566072	0.428547	0.657223
	H350	H	0.567468	0.430959	0.677010
	O351	O	0.083582	-0.042074	0.051673
	H352	H	0.083099	-0.044210	0.041673
	H353	H	0.085477	-0.044613	0.039848
	O354	O	1.007872	1.133173	-0.170168
	H355	H	0.986522	1.132529	-0.184869
	H356	H	0.988579	1.131874	-0.164990
	O357	O	-0.018899	0.984556	0.198278
	H358	H	-0.009751	0.992437	0.190733
	H359	H	0.000103	0.982825	0.200408
	O360	O	0.619628	0.596713	0.442371
	H361	H	0.616940	0.594392	0.442862
	H362	H	0.630668	0.598754	0.447854
	O363	O	0.500120	0.535885	0.579077
	H364	H	0.499858	0.537898	0.584989
	H365	H	0.480804	0.547078	0.569393
	O366	O	-0.111392	0.938255	0.139418
	H367	H	-0.110558	0.937334	0.150381
	H368	H	-0.105183	0.958804	0.148620
	O369	O	0.341489	0.655182	0.340033
	H370	H	0.351176	0.642896	0.337223
	H371	H	0.362317	0.648035	0.333873
	O372	O	0.373908	0.385134	0.488973
	H373	H	0.389394	0.377795	0.494345
	H374	H	0.361311	0.397154	0.488176
	O375	O	0.328524	0.310795	0.642061
	H376	H	0.354021	0.318527	0.634764
	H377	H	0.322920	0.319737	0.649267
	O378	O	0.416888	0.343593	0.425376
	H379	H	0.423312	0.349244	0.432846
	H380	H	0.417213	0.354518	0.439669
	O381	O	0.600116	0.665912	0.414922
	H382	H	0.607578	0.663701	0.392925
	H383	H	0.612448	0.657376	0.418576
	O384	O	0.174210	1.146500	1.175478
	H385	H	0.175727	1.130737	1.166984
	H386	H	0.183582	1.158878	1.175638
	O387	O	0.807847	1.182812	-0.112259
	H388	H	0.793427	1.197393	-0.083525
	H389	H	0.810466	1.167344	-0.126065
	O390	O	0.594994	0.319258	0.536707
	H391	H	0.613126	0.318746	0.550891
	H392	H	0.603286	0.308793	0.533071
	O393	O	1.021571	-0.143677	0.918302
	H394	H	1.021288	-0.142179	0.923915
	H395	H	1.027147	-0.146736	0.914047
	O396	O	-0.180752	1.001998	0.804511
	H397	H	-0.184175	1.009329	0.806436
	H398	H	-0.184117	0.997682	0.783334
	O399	O	0.365104	0.656810	0.512216
	H400	H	0.352722	0.671549	0.507821
	H401	H	0.366812	0.649609	0.494894
	O402	O	1.011376	0.116915	0.830144
	H403	H	1.009228	0.124055	0.830684
	H404	H	1.011247	0.109281	0.808623
	O405	O	0.082912	0.195168	0.037434
	H406	H	0.079245	0.210195	0.029424
	H407	H	0.084919	0.182081	0.018983
	O408	O	0.906446	0.829875	1.146172
	H409	H	0.936452	0.836394	1.156125
	H410	H	0.899064	0.838035	1.147653
	O411	O	0.855767	1.109611	0.124879
	H412	H	0.868867	1.098727	0.127581
	H413	H	0.858256	1.108843	0.132741
	O414	O	0.190209	-0.147603	0.836126
	H415	H	0.196662	-0.131634	0.828077
	H416	H	0.172824	-0.131159	0.835574
	O417	O	0.553158	0.347071	0.337115
	H418	H	0.545791	0.352688	0.321233
	H419	H	0.567752	0.328951	0.324403
	O420	O	0.609527	1.633913	-0.549015
	H421	H	0.611176	1.629280	-0.558363
	H422	H	0.615316	1.624723	-0.542102
	O423	O	0.899565	-0.019768	0.091525
	H424	H	0.904002	-0.025788	0.097490
	H425	H	0.911102	-0.029967	0.108605
	O426	O	0.016289	-0.055138	1.084744
	H427	H	0.020010	-0.039085	1.077965
	H428	H	0.021454	-0.070057	1.077037
	O429	O	0.679428	0.332324	0.323916
	H430	H	0.675279	0.314504	0.335226
	H431	H	0.691708	0.322003	0.318627
