data_Molecule from HDF5

_cell_length_a		16.631376
_cell_length_b		16.617781
_cell_length_c		16.732865
_cell_angle_alpha	89.965903
_cell_angle_beta	90.022124
_cell_angle_gamma	90.007009
_symmetry_space_group_name_H-M	'P 1'
_symmetry_Int_Tables_number		1

loop_
	_symmetry_equiv_pos_as_xyz
	x,y,z

loop_
	_atom_site_label
	_atom_site_type_symbol
	_atom_site_fract_x
	_atom_site_fract_y
	_atom_site_fract_z
	H0	H	0.400031	0.840345	0.739136
	H1	H	0.611601	0.150056	0.739940
	H2	H	0.615967	0.841607	0.293614
	H3	H	0.401292	0.149937	0.296934
	H4	H	0.730316	0.384962	0.866217
	H5	H	0.725702	0.597310	0.172560
	H6	H	0.284570	0.600402	0.863304
	H7	H	0.281783	0.388811	0.170862
	H8	H	0.848339	0.714859	0.415361
	H9	H	0.158659	0.719203	0.624702
	H10	H	0.851901	0.273998	0.622282
	H11	H	0.156419	0.268396	0.404552
	H12	H	0.852943	0.387833	0.740139
	H13	H	0.159511	0.602965	0.740610
	H14	H	0.848842	0.599950	0.298419
	H15	H	0.157587	0.386864	0.291506
	H16	H	0.402579	0.714655	0.862202
	H17	H	0.607632	0.712511	0.173886
	H18	H	0.614975	0.268841	0.866659
	H19	H	0.397578	0.272146	0.171411
	H20	H	0.728364	0.841201	0.412595
	H21	H	0.725636	0.151151	0.622332
	H22	H	0.283536	0.841325	0.624250
	H23	H	0.287514	0.149871	0.414812
	H24	H	0.900931	0.340607	0.237543
	H25	H	0.109257	0.652140	0.236852
	H26	H	0.110664	0.339793	0.796408
	H27	H	0.899522	0.650006	0.795412
	H28	H	0.229226	0.887356	0.365291
	H29	H	0.230389	0.104862	0.669513
	H30	H	0.783924	0.101093	0.363121
	H31	H	0.781095	0.887741	0.670548
	H32	H	0.350151	0.214769	0.913958
	H33	H	0.661265	0.214905	0.121397
	H34	H	0.350096	0.775709	0.119979
	H35	H	0.663200	0.774827	0.913468
	H36	H	0.350186	0.889903	0.236917
	H37	H	0.661568	0.098700	0.237048
	H38	H	0.350953	0.099895	0.796668
	H39	H	0.662190	0.889639	0.796396
	H40	H	0.900122	0.217281	0.362364
	H41	H	0.114228	0.221295	0.669180
	H42	H	0.111786	0.772700	0.364422
	H43	H	0.897885	0.772987	0.671734
	H44	H	0.227076	0.340347	0.912355
	H45	H	0.223784	0.652624	0.119372
	H46	H	0.786397	0.339597	0.120268
	H47	H	0.785189	0.650391	0.912296
	H48	H	0.418489	0.105628	0.603807
	H49	H	0.596053	0.884022	0.604484
	H50	H	0.595420	0.107944	0.425381
	H51	H	0.418787	0.884430	0.430889
	H52	H	0.586415	0.401398	0.127435
	H53	H	0.592653	0.586194	0.906648
	H54	H	0.419863	0.590353	0.129579
	H55	H	0.419837	0.410911	0.909919
	H56	H	0.118712	0.585404	0.418874
	H57	H	0.897475	0.579720	0.602655
	H58	H	0.116919	0.407565	0.604406
	H59	H	0.896291	0.412087	0.429242
	H60	H	0.116427	0.410275	0.603517
	H61	H	0.893110	0.580868	0.612260
	H62	H	0.117830	0.591976	0.431293
	H63	H	0.892493	0.407097	0.425929
	H64	H	0.408837	0.587391	0.131949
	H65	H	0.599805	0.587565	0.904658
	H66	H	0.600702	0.407044	0.131400
	H67	H	0.419782	0.402098	0.906338
	H68	H	0.590625	0.105919	0.427103
	H69	H	0.592634	0.883629	0.609002
	H70	H	0.415407	0.107901	0.608249
	H71	H	0.414401	0.880774	0.427823
	H72	H	0.916142	0.608364	0.109808
	H73	H	0.092568	0.383424	0.107519
	H74	H	0.090842	0.605154	0.931403
	H75	H	0.915353	0.382292	0.927918
	H76	H	0.095030	0.907481	0.627938
	H77	H	0.089592	0.086815	0.407265
	H78	H	0.922694	0.081425	0.624262
	H79	H	0.910821	0.904383	0.404616
	H80	H	0.615107	0.083673	0.935857
	H81	H	0.393850	0.081026	0.107959
	H82	H	0.620241	0.904058	0.112797
	H83	H	0.397970	0.910471	0.930686
	H84	H	0.618838	0.900588	0.103449
	H85	H	0.392604	0.085096	0.108917
	H86	H	0.615114	0.076838	0.926839
	H87	H	0.394003	0.907128	0.922084
	H88	H	0.917692	0.091686	0.629034
	H89	H	0.099543	0.083242	0.405916
	H90	H	0.092184	0.909521	0.628052
	H91	H	0.916638	0.912262	0.409158
	H92	H	0.098409	0.608007	0.929113
	H93	H	0.090790	0.386348	0.105104
	H94	H	0.916985	0.606695	0.105754
	H95	H	0.920992	0.383853	0.926243
	H96	H	0.420990	0.106153	0.608696
	H97	H	0.590616	0.885335	0.604201
	H98	H	0.594871	0.105794	0.430445
	H99	H	0.420007	0.882842	0.424741
	H100	H	0.590971	0.416204	0.123101
	H101	H	0.597548	0.581235	0.907147
	H102	H	0.416340	0.579773	0.126893
	H103	H	0.411640	0.407487	0.906502
	H104	H	0.113282	0.578340	0.430608
	H105	H	0.892670	0.589134	0.605168
	H106	H	0.117026	0.409844	0.606821
	H107	H	0.895112	0.405633	0.432211
	H108	H	0.912822	0.608687	0.106757
	H109	H	0.094821	0.384699	0.104086
	H110	H	0.092360	0.607257	0.923519
	H111	H	0.918527	0.385646	0.931589
	H112	H	0.092873	0.906469	0.626791
	H113	H	0.092395	0.076966	0.410627
	H114	H	0.911188	0.081293	0.628458
	H115	H	0.921359	0.902626	0.407561
	H116	H	0.619831	0.087129	0.925993
	H117	H	0.394701	0.084585	0.105007
	H118	H	0.615414	0.910135	0.105887
	H119	H	0.393959	0.901041	0.930159
	C120	C	0.384702	0.004303	0.639797
	C121	C	0.626081	0.986981	0.638059
	C122	C	0.627395	0.004323	0.395576
	C123	C	0.385930	0.985696	0.396873
	C124	C	0.626866	0.373449	0.026710
	C125	C	0.627437	0.616184	1.009029
	C126	C	0.384021	0.617023	0.026431
	C127	C	0.384047	0.374057	1.009265
	C128	C	0.013317	0.617051	0.396399
	C129	C	0.996757	0.616904	0.639381
	C130	C	0.014721	0.375351	0.637498
	C131	C	0.996352	0.374615	0.395021
	C132	C	0.883993	0.504590	0.138508
	C133	C	0.125251	0.487626	0.137727
	C134	C	0.126777	0.504035	0.895810
	C135	C	0.884948	0.486226	0.896041
	C136	C	0.127076	0.874130	0.526309
	C137	C	0.127534	0.117296	0.508579
	C138	C	0.884483	0.117269	0.525383
	C139	C	0.883628	0.874154	0.509073
	C140	C	0.514382	0.115437	0.896814
	C141	C	0.496990	0.115482	0.138761
	C142	C	0.514990	0.873396	0.138669
	C143	C	0.498495	0.873994	0.896186
	C144	C	0.381826	0.887351	0.699621
	C145	C	0.629654	0.103544	0.699242
	C146	C	0.632323	0.888013	0.334779
	C147	C	0.383381	0.103190	0.337186
	C148	C	0.689293	0.367994	0.912069
	C149	C	0.685746	0.616351	0.126274
	C150	C	0.324885	0.618314	0.909557
	C151	C	0.322312	0.370709	0.124761
	C152	C	0.895474	0.675550	0.396250
	C153	C	0.112507	0.678328	0.642467
	C154	C	0.898436	0.314159	0.640406
	C155	C	0.110931	0.310968	0.388781
	C156	C	0.898794	0.370696	0.698806
	C157	C	0.112876	0.620967	0.700400
	C158	C	0.895703	0.618422	0.338149
	C159	C	0.111273	0.369512	0.332079
	C160	C	0.383150	0.675548	0.909256
	C161	C	0.627360	0.673673	0.126723
	C162	C	0.631587	0.310463	0.912244
	C163	C	0.380044	0.312844	0.125068
	C164	C	0.688474	0.887699	0.393841
	C165	C	0.685927	0.104313	0.640560
	C166	C	0.324065	0.887751	0.642159
	C167	C	0.326964	0.103433	0.395755
	C168	C	0.882462	0.387140	0.197526
	C169	C	0.127600	0.605199	0.197051
	C170	C	0.129101	0.386800	0.836334
	C171	C	0.881576	0.603110	0.835537
	C172	C	0.188721	0.869877	0.411339
	C173	C	0.189922	0.122457	0.623268
	C174	C	0.824017	0.119483	0.409543
	C175	C	0.822125	0.870418	0.624811
	C176	C	0.397098	0.175083	0.895018
	C177	C	0.614294	0.175038	0.140109
	C178	C	0.397357	0.814801	0.139228
	C179	C	0.615760	0.814140	0.894624
	C180	C	0.397428	0.871730	0.197460
	C181	C	0.614570	0.117228	0.197551
	C182	C	0.397680	0.118221	0.836625
	C183	C	0.615598	0.871563	0.836668
	C184	C	0.881863	0.177178	0.409162
	C185	C	0.131785	0.179985	0.623178
	C186	C	0.130281	0.812816	0.410917
	C187	C	0.880179	0.813198	0.625075
	C188	C	0.186856	0.386942	0.893965
	C189	C	0.184150	0.605584	0.138456
	C190	C	0.825664	0.386607	0.139214
	C191	C	0.824835	0.603339	0.893823
	C192	C	0.410926	0.085530	0.614145
	C193	C	0.600504	0.905569	0.613165
	C194	C	0.601015	0.085463	0.420601
	C195	C	0.410558	0.904114	0.420960
	C196	C	0.600116	0.400448	0.106446
	C197	C	0.603501	0.591907	0.927379
	C198	C	0.407947	0.592930	0.108122
	C199	C	0.409800	0.399421	0.928642
	C200	C	0.095280	0.592421	0.420135
	C201	C	0.915530	0.590722	0.613877
	C202	C	0.095607	0.401781	0.611894
	C203	C	0.915567	0.400978	0.421860
	C204	C	0.908448	0.586724	0.114362
	C205	C	0.100004	0.406140	0.112765
	C206	C	0.101298	0.585475	0.920825
	C207	C	0.910882	0.404988	0.921226
	C208	C	0.100739	0.900493	0.606790
	C209	C	0.101275	0.090113	0.428592
	C210	C	0.910134	0.091935	0.606325
	C211	C	0.909013	0.899393	0.428272
	C212	C	0.595533	0.089918	0.922366
	C213	C	0.415090	0.090645	0.114473
	C214	C	0.596867	0.898152	0.114289
	C215	C	0.416776	0.898999	0.920715
	Zn216	Zn	0.506465	-0.005029	0.767720
	Zn217	Zn	0.505937	-0.005517	0.267888
	Zn218	Zn	0.756358	0.494528	0.017086
	Zn219	Zn	0.255060	0.495443	0.017605
	Zn220	Zn	0.005073	0.745622	0.518027
	Zn221	Zn	0.005957	0.246698	0.516777
	Zn222	Zn	0.005657	0.495275	0.767334
	Zn223	Zn	0.004641	0.496447	0.266938
	Zn224	Zn	0.506294	0.745071	0.017072
	Zn225	Zn	0.505248	0.244733	0.018109
	Zn226	Zn	0.755042	-0.003873	0.518295
	Zn227	Zn	0.256481	-0.004988	0.517910
	N228	N	0.419020	0.960953	0.698253
	N229	N	0.593202	0.029484	0.698056
	N230	N	0.595170	0.961639	0.335665
	N231	N	0.419070	0.028923	0.337203
	N232	N	0.686508	0.406684	0.984304
	N233	N	0.686405	0.581676	0.051755
	N234	N	0.325093	0.582642	0.983545
	N235	N	0.324532	0.408085	0.051732
	N236	N	0.969784	0.675098	0.431775
	N237	N	0.039022	0.676160	0.605426
	N238	N	0.971601	0.316879	0.602946
	N239	N	0.038198	0.313969	0.427247
	N240	N	0.972319	0.408109	0.697501
	N241	N	0.039471	0.583483	0.698740
	N242	N	0.970070	0.582714	0.337816
	N243	N	0.038809	0.408517	0.335912
	N244	N	0.418981	0.675141	0.982921
	N245	N	0.592135	0.673992	0.052589
	N246	N	0.593238	0.313697	0.984675
	N247	N	0.417796	0.314576	0.052154
	N248	N	0.685718	0.961261	0.431057
	N249	N	0.683875	0.030813	0.603194
	N250	N	0.325668	0.961564	0.605604
	N251	N	0.328172	0.029472	0.432229
	N252	N	0.917962	0.461703	0.197219
	N253	N	0.091732	0.530720	0.196975
	N254	N	0.092556	0.460794	0.837222
	N255	N	0.918160	0.529083	0.836534
	N256	N	0.186915	0.907246	0.484403
	N257	N	0.187312	0.083937	0.550930
	N258	N	0.825363	0.082963	0.483126
	N259	N	0.823907	0.907622	0.551614
	N260	N	0.470857	0.173872	0.931798
	N261	N	0.540017	0.174349	0.104422
	N262	N	0.471618	0.815376	0.103554
	N263	N	0.541650	0.815313	0.930902
	N264	N	0.471923	0.907266	0.197770
	N265	N	0.540358	0.081005	0.197004
	N266	N	0.471749	0.082065	0.837364
	N267	N	0.541519	0.907771	0.837162
	N268	N	0.918794	0.176094	0.482426
	N269	N	0.093658	0.177152	0.550568
	N270	N	0.092662	0.815113	0.483667
	N271	N	0.917742	0.815217	0.552066
	N272	N	0.185755	0.461069	0.930100
	N273	N	0.183115	0.531394	0.102318
	N274	N	0.826414	0.460794	0.103300
	N275	N	0.826592	0.529599	0.930694
	O276	O	-0.180852	1.184182	0.203572
	H277	H	-0.171228	1.156233	0.185501
	H278	H	-0.156957	1.173524	0.184536
	O279	O	-0.086048	0.132388	0.016266
	H280	H	-0.093074	0.124777	0.001891
	H281	H	-0.089551	0.127998	0.005444
	O282	O	1.033338	1.068193	0.030623
	H283	H	1.034973	1.087349	0.023289
	H284	H	1.033548	1.066769	0.026639
	O285	O	0.564588	0.491786	0.503095
	H286	H	0.542434	0.487414	0.502017
	H287	H	0.560726	0.489832	0.502389
	O288	O	0.561869	0.725906	0.453537
	H289	H	0.538571	0.727526	0.483809
	H290	H	0.555126	0.722940	0.444385
	O291	O	0.732949	0.268739	0.746049
	H292	H	0.742503	0.279571	0.730071
	H293	H	0.710035	0.294502	0.727432
	O294	O	0.720074	-0.282142	0.552777
	H295	H	0.732913	-0.261875	0.546400
	H296	H	0.714580	-0.282890	0.551889
	O297	O	0.503920	0.542872	0.479222
	H298	H	0.495477	0.548882	0.475767
	H299	H	0.492333	0.548207	0.487256
	O300	O	0.227185	0.030051	1.246515
	H301	H	0.244246	0.042090	1.251052
	H302	H	0.244127	0.044108	1.250051
	O303	O	0.381576	0.295025	0.406239
	H304	H	0.392596	0.296436	0.423870
	H305	H	0.395129	0.300420	0.413655
	O306	O	1.097293	0.935788	0.078042
	H307	H	1.094564	0.928541	0.071137
	H308	H	1.088670	0.929821	0.081305
	O309	O	0.189100	0.811536	0.206910
	H310	H	0.179219	0.830635	0.184075
	H311	H	0.202646	0.799510	0.216045
	O312	O	0.559191	0.306399	0.540898
	H313	H	0.573642	0.305138	0.512152
	H314	H	0.554906	0.309950	0.552043
	O315	O	0.995971	1.217824	1.145747
	H316	H	0.987042	1.226362	1.149807
	H317	H	0.976598	1.217613	1.144875
	O318	O	0.537472	0.715999	0.743996
	H319	H	0.548147	0.746237	0.771982
	H320	H	0.539034	0.711967	0.739207
	O321	O	0.317337	0.687385	0.706116
	H322	H	0.290931	0.701270	0.725482
	H323	H	0.299657	0.678549	0.695778
	O324	O	1.214399	0.785086	-0.195921
	H325	H	1.206980	0.829976	-0.201073
	H326	H	1.183621	0.782073	-0.172307
	O327	O	-0.274960	0.518243	0.745476
	H328	H	-0.241836	0.525125	0.767432
	H329	H	-0.274093	0.539240	0.725365
	O330	O	0.598757	0.437934	0.491535
	H331	H	0.607511	0.432406	0.484318
	H332	H	0.599986	0.448862	0.486716
	O333	O	0.841929	1.003029	-0.212877
	H334	H	0.821095	1.004313	-0.225441
	H335	H	0.838584	1.034027	-0.202632
	O336	O	0.779131	-0.230618	0.050727
	H337	H	0.789885	-0.222661	0.093783
	H338	H	0.746551	-0.264656	0.055616
	O339	O	1.212977	0.199663	1.224724
	H340	H	1.203267	0.194406	1.235317
	H341	H	1.199528	0.219596	1.237003
	O342	O	0.066304	-0.118695	0.203252
	H343	H	0.079524	-0.111524	0.201118
	H344	H	0.083926	-0.098210	0.201946
	O345	O	-0.209713	0.951749	1.237564
	H346	H	-0.232961	0.938129	1.254464
	H347	H	-0.212259	0.919249	1.232095
	O348	O	-0.202671	0.170796	-0.012669
	H349	H	-0.199034	0.169760	-0.025746
	H350	H	-0.215442	0.171435	-0.015455
	O351	O	1.060468	1.065271	-0.218989
	H352	H	1.057736	1.074379	-0.226438
	H353	H	1.059696	1.070082	-0.210532
	O354	O	-0.189784	-0.211199	1.224969
	H355	H	-0.140572	-0.218182	1.232643
	H356	H	-0.215897	-0.245979	1.258776
	O357	O	0.479557	0.278712	0.747039
	H358	H	0.487325	0.286784	0.741868
	H359	H	0.485228	0.258568	0.760777
	O360	O	0.569675	0.445250	0.749949
	H361	H	0.558497	0.446010	0.759069
	H362	H	0.600571	0.467602	0.755461
	O363	O	0.054475	-0.062127	-0.060292
	H364	H	0.048119	-0.061127	-0.069007
	H365	H	0.055528	-0.065292	-0.052921
	O366	O	0.710811	0.528975	0.385748
	H367	H	0.710292	0.501316	0.390226
	H368	H	0.700818	0.524576	0.383714
	O369	O	0.839567	0.149450	-0.155631
	H370	H	0.830133	0.165415	-0.161027
	H371	H	0.846877	0.153395	-0.169386
	O372	O	0.718173	1.282256	0.303515
	H373	H	0.741297	1.278236	0.278225
	H374	H	0.705921	1.280252	0.289194
	O375	O	0.836827	-0.150373	-0.093643
	H376	H	0.840022	-0.151349	-0.079907
	H377	H	0.845612	-0.139060	-0.091642
	O378	O	0.478089	0.603037	0.351661
	H379	H	0.456466	0.622282	0.359865
	H380	H	0.466503	0.581542	0.339201
	O381	O	0.232843	1.112788	0.985417
	H382	H	0.245595	1.120776	1.005932
	H383	H	0.233648	1.109194	1.001904
	O384	O	0.870001	0.052459	1.177696
	H385	H	0.857229	0.035404	1.182632
	H386	H	0.873562	0.024976	1.180313
	O387	O	1.080679	1.076866	0.008045
	H388	H	1.086225	1.082362	0.016892
	H389	H	1.066341	1.074351	0.000889
	O390	O	0.219476	-0.036543	-0.201054
	H391	H	0.237428	-0.026811	-0.223337
	H392	H	0.207415	-0.024122	-0.186733
	O393	O	0.284256	0.290561	0.529763
	H394	H	0.299625	0.277345	0.548505
	H395	H	0.273591	0.283356	0.553569
	O396	O	-0.091564	0.910392	0.796405
	H397	H	-0.102222	0.924111	0.793917
	H398	H	-0.100243	0.912164	0.792111
	O399	O	0.183063	0.003874	1.061326
	H400	H	0.164273	0.017151	1.079519
	H401	H	0.189829	-0.005654	1.045941
	O402	O	0.696309	0.680485	0.325972
	H403	H	0.677815	0.656565	0.336376
	H404	H	0.680659	0.668205	0.350058
	O405	O	0.958271	-0.220985	1.218238
	H406	H	0.986264	-0.209690	1.221553
	H407	H	0.976384	-0.227254	1.225009
	O408	O	0.226456	-0.225666	-0.020131
	H409	H	0.238134	-0.238974	-0.024951
	H410	H	0.235873	-0.226488	-0.037418
	O411	O	0.699240	0.288698	0.517452
	H412	H	0.711106	0.291376	0.498621
	H413	H	0.706212	0.281186	0.489243
	O414	O	0.429366	0.516884	0.655965
	H415	H	0.421960	0.527900	0.664195
	H416	H	0.417665	0.520795	0.656161
	O417	O	0.422721	0.462811	0.341835
	H418	H	0.408413	0.456828	0.337407
	H419	H	0.417925	0.458360	0.343495
	O420	O	0.268314	0.436442	0.478155
	H421	H	0.268672	0.412656	0.488640
	H422	H	0.275273	0.426484	0.474288
	O423	O	-0.009611	-0.181600	0.955001
	H424	H	-0.031165	-0.183623	0.968127
	H425	H	-0.019286	-0.176053	0.943120
	O426	O	0.715673	0.508981	0.540846
	H427	H	0.712367	0.525542	0.549371
	H428	H	0.707832	0.507807	0.528011
	O429	O	0.294975	0.693741	0.473935
	H430	H	0.275751	0.685036	0.482762
	H431	H	0.296764	0.696201	0.473984
	O432	O	0.279953	0.560237	0.572724
	H433	H	0.276788	0.537367	0.595208
	H434	H	0.278357	0.545863	0.566381
	O435	O	0.397957	0.515426	0.354661
	H436	H	0.380795	0.515440	0.346039
	H437	H	0.402758	0.512519	0.360815
	O438	O	-0.462115	0.270922	0.293538
	H439	H	-0.444077	0.264091	0.279102
	H440	H	-0.464275	0.265247	0.280626
	O441	O	0.293282	0.704397	0.301637
	H442	H	0.284777	0.718926	0.317444
	H443	H	0.314979	0.677266	0.297307
	O444	O	0.491403	0.692577	0.598310
	H445	H	0.471988	0.694692	0.609093
	H446	H	0.483129	0.692207	0.606760
	O447	O	0.186804	1.175618	0.833088
	H448	H	0.188804	1.173897	0.832153
	H449	H	0.176169	1.161408	0.853465
	O450	O	0.043102	1.088574	1.005450
	H451	H	0.031056	1.081889	1.023276
	H452	H	0.062142	1.090971	1.013882
	O453	O	0.644896	0.485257	0.592324
	H454	H	0.639211	0.498891	0.597119
	H455	H	0.638709	0.479147	0.594641
	O456	O	-0.033223	-0.223541	0.980452
	H457	H	-0.045024	-0.217317	0.986742
	H458	H	-0.040983	-0.218863	0.987775
	O459	O	0.789422	0.973472	0.010319
	H460	H	0.789457	0.972433	0.004475
	H461	H	0.774417	0.961862	0.009310
	O462	O	0.280402	0.467410	0.742391
	H463	H	0.287762	0.454267	0.747345
	H464	H	0.260371	0.456224	0.763105
	O465	O	1.072390	-0.176646	-0.135506
	H466	H	1.059799	-0.177561	-0.137400
	H467	H	1.074249	-0.199014	-0.141837
	O468	O	0.433441	0.331458	0.610417
	H469	H	0.458608	0.323231	0.603628
	H470	H	0.440077	0.348135	0.613818
	O471	O	0.488291	0.499532	0.627743
	H472	H	0.503585	0.527077	0.624100
	H473	H	0.502060	0.503220	0.636507
	O474	O	0.479529	0.723606	0.296712
	H475	H	0.466014	0.746799	0.278727
	H476	H	0.480063	0.726881	0.308139
	O477	O	0.301164	0.403240	1.314772
	H478	H	0.300412	0.406952	1.332943
	H479	H	0.286404	0.399587	1.314768
	O480	O	0.291852	0.282496	0.737090
	H481	H	0.333706	0.280138	0.730531
	H482	H	0.276594	0.273005	0.752489
	O483	O	0.512626	0.331536	0.453617
	H484	H	0.515836	0.349325	0.450946
	H485	H	0.523858	0.333942	0.446549
	O486	O	0.706050	-0.302128	0.724837
	H487	H	0.697219	-0.296608	0.700718
	H488	H	0.718001	-0.298513	0.735336
	O489	O	1.161999	1.118444	0.115813
	H490	H	1.166618	1.120947	0.120160
	H491	H	1.179771	1.121458	0.125431
	O492	O	0.001936	0.135123	0.237114
	H493	H	-0.006884	0.137282	0.245131
	H494	H	-0.016820	0.129713	0.239086
	O495	O	-0.034000	1.204857	0.808119
	H496	H	-0.029869	1.202839	0.814808
	H497	H	-0.024807	1.221075	0.804630
	O498	O	0.865695	0.986933	0.967872
	H499	H	0.863847	0.993493	0.964201
	H500	H	0.869303	0.989040	0.963436
	O501	O	0.637159	0.472583	0.294267
	H502	H	0.626625	0.487512	0.292196
	H503	H	0.644182	0.480682	0.300353
