data_Molecule from HDF5

_cell_length_a		16.570141
_cell_length_b		16.514745
_cell_length_c		16.579517
_cell_angle_alpha	89.766283
_cell_angle_beta	90.051696
_cell_angle_gamma	90.004581
_symmetry_space_group_name_H-M	'P 1'
_symmetry_Int_Tables_number		1

loop_
	_symmetry_equiv_pos_as_xyz
	x,y,z

loop_
	_atom_site_label
	_atom_site_type_symbol
	_atom_site_fract_x
	_atom_site_fract_y
	_atom_site_fract_z
	H0	H	0.395863	0.847006	0.721258
	H1	H	0.605440	0.161032	0.719756
	H2	H	0.608768	0.846365	0.277767
	H3	H	0.397966	0.160721	0.277363
	H4	H	0.723659	0.399638	0.844828
	H5	H	0.724512	0.610735	0.154821
	H6	H	0.280287	0.609627	0.843349
	H7	H	0.279711	0.398415	0.155820
	H8	H	0.845612	0.726233	0.393867
	H9	H	0.157766	0.729568	0.607106
	H10	H	0.843899	0.285579	0.603021
	H11	H	0.158221	0.284257	0.396244
	H12	H	0.845172	0.401382	0.720322
	H13	H	0.157699	0.613065	0.723660
	H14	H	0.846850	0.612533	0.275360
	H15	H	0.157966	0.398735	0.277717
	H16	H	0.395131	0.726633	0.843706
	H17	H	0.605627	0.724203	0.157023
	H18	H	0.605582	0.284978	0.842371
	H19	H	0.395059	0.280857	0.155205
	H20	H	0.724823	0.847473	0.393979
	H21	H	0.721509	0.161197	0.603197
	H22	H	0.278962	0.847633	0.605467
	H23	H	0.281358	0.161231	0.393558
	H24	H	0.897395	0.349406	0.221419
	H25	H	0.109719	0.661708	0.222410
	H26	H	0.105088	0.347286	0.779904
	H27	H	0.898555	0.663479	0.780246
	H28	H	0.224845	0.896935	0.342535
	H29	H	0.221491	0.105856	0.656136
	H30	H	0.782770	0.106692	0.341686
	H31	H	0.778451	0.895812	0.654538
	H32	H	0.342816	0.222914	0.895972
	H33	H	0.657034	0.223430	0.102219
	H34	H	0.343964	0.780405	0.106867
	H35	H	0.657418	0.782753	0.897138
	H36	H	0.343960	0.895740	0.222567
	H37	H	0.658054	0.105385	0.217592
	H38	H	0.343403	0.105031	0.780387
	H39	H	0.657427	0.897753	0.779938
	H40	H	0.900111	0.223082	0.341659
	H41	H	0.101507	0.219852	0.658144
	H42	H	0.107416	0.782617	0.341978
	H43	H	0.895756	0.781038	0.654694
	H44	H	0.221354	0.347479	0.896901
	H45	H	0.222724	0.663046	0.103811
	H46	H	0.778943	0.350154	0.106982
	H47	H	0.779624	0.662239	0.893159
	H48	H	0.415745	0.115698	0.588370
	H49	H	0.585369	0.891768	0.593462
	H50	H	0.592328	0.115169	0.411304
	H51	H	0.412300	0.890522	0.409490
	H52	H	0.586940	0.417589	0.109901
	H53	H	0.587063	0.592480	0.889048
	H54	H	0.413421	0.591064	0.110765
	H55	H	0.409352	0.420860	0.888236
	H56	H	0.112823	0.594747	0.413392
	H57	H	0.890461	0.592390	0.590415
	H58	H	0.116441	0.413905	0.594705
	H59	H	0.890324	0.415438	0.413947
	H60	H	0.115187	0.408819	0.588339
	H61	H	0.891556	0.595080	0.585552
	H62	H	0.112352	0.589664	0.411493
	H63	H	0.890141	0.419047	0.407722
	H64	H	0.412023	0.593596	0.112602
	H65	H	0.589360	0.595354	0.888116
	H66	H	0.588861	0.409740	0.112571
	H67	H	0.416822	0.413410	0.888448
	H68	H	0.591098	0.116550	0.405788
	H69	H	0.589770	0.893318	0.583230
	H70	H	0.410959	0.115246	0.586027
	H71	H	0.415517	0.892926	0.411416
	H72	H	0.913085	0.618656	0.087681
	H73	H	0.086393	0.394214	0.091692
	H74	H	0.091858	0.617296	0.912495
	H75	H	0.912626	0.393436	0.911811
	H76	H	0.092427	0.920462	0.608665
	H77	H	0.089315	0.091539	0.388299
	H78	H	0.905322	0.088692	0.612160
	H79	H	0.911350	0.921523	0.388644
	H80	H	0.614445	0.094934	0.909373
	H81	H	0.389578	0.089195	0.085906
	H82	H	0.613827	0.914404	0.093659
	H83	H	0.388519	0.916896	0.909310
	H84	H	0.612866	0.909945	0.086980
	H85	H	0.387577	0.090360	0.091004
	H86	H	0.613941	0.094509	0.908737
	H87	H	0.387359	0.914148	0.909403
	H88	H	0.916945	0.094661	0.610392
	H89	H	0.089209	0.100124	0.385719
	H90	H	0.085568	0.919248	0.606773
	H91	H	0.916725	0.916493	0.389298
	H92	H	0.092516	0.618622	0.908047
	H93	H	0.089815	0.395341	0.084496
	H94	H	0.917193	0.616045	0.086680
	H95	H	0.910539	0.392021	0.910988
	H96	H	0.411355	0.117694	0.590815
	H97	H	0.595529	0.888833	0.591466
	H98	H	0.586957	0.114434	0.409010
	H99	H	0.411838	0.891652	0.413626
	H100	H	0.594890	0.415914	0.112932
	H101	H	0.590981	0.591849	0.887843
	H102	H	0.410634	0.590865	0.112083
	H103	H	0.407385	0.411384	0.884932
	H104	H	0.114970	0.593696	0.408208
	H105	H	0.893301	0.590105	0.586174
	H106	H	0.112810	0.416804	0.587661
	H107	H	0.888092	0.412347	0.407479
	H108	H	0.913644	0.616764	0.083518
	H109	H	0.094155	0.391371	0.090681
	H110	H	0.088266	0.616740	0.909300
	H111	H	0.912190	0.392765	0.909461
	H112	H	0.089520	0.913922	0.610036
	H113	H	0.096592	0.095102	0.384936
	H114	H	0.907034	0.100795	0.615447
	H115	H	0.910394	0.915084	0.385854
	H116	H	0.614286	0.095295	0.908181
	H117	H	0.387512	0.094556	0.087352
	H118	H	0.609968	0.917572	0.087212
	H119	H	0.388516	0.915218	0.911464
	C120	C	0.380143	0.012480	0.620526
	C121	C	0.622560	0.995139	0.621194
	C122	C	0.622706	0.011620	0.377441
	C123	C	0.380648	0.995441	0.378150
	C124	C	0.622607	0.382735	0.008510
	C125	C	0.621767	0.625705	0.991614
	C126	C	0.379658	0.625130	0.008632
	C127	C	0.379060	0.382545	0.990584
	C128	C	0.010384	0.626144	0.377779
	C129	C	0.994628	0.626309	0.620433
	C130	C	0.010543	0.382549	0.621971
	C131	C	0.993063	0.383594	0.378166
	C132	C	0.881422	0.514063	0.119713
	C133	C	0.123348	0.497191	0.121159
	C134	C	0.122278	0.513346	0.878818
	C135	C	0.879973	0.496682	0.877968
	C136	C	0.122294	0.884188	0.505859
	C137	C	0.123075	0.126051	0.490447
	C138	C	0.879264	0.125944	0.508302
	C139	C	0.880178	0.883595	0.490683
	C140	C	0.509788	0.125740	0.877449
	C141	C	0.492206	0.123515	0.119551
	C142	C	0.508893	0.881169	0.122013
	C143	C	0.492438	0.883417	0.879617
	C144	C	0.377406	0.894137	0.681043
	C145	C	0.624368	0.113732	0.680268
	C146	C	0.626024	0.893626	0.317843
	C147	C	0.378750	0.113517	0.317427
	C148	C	0.683250	0.381044	0.891254
	C149	C	0.683259	0.628633	0.108568
	C150	C	0.319952	0.628101	0.890531
	C151	C	0.319462	0.379765	0.108686
	C152	C	0.892673	0.686458	0.375176
	C153	C	0.111295	0.688291	0.624335
	C154	C	0.891561	0.324671	0.622630
	C155	C	0.111012	0.323750	0.377033
	C156	C	0.892208	0.382096	0.680891
	C157	C	0.111220	0.630267	0.682401
	C158	C	0.893513	0.630102	0.316242
	C159	C	0.111038	0.381008	0.318422
	C160	C	0.376972	0.686456	0.890774
	C161	C	0.624016	0.685007	0.109598
	C162	C	0.624752	0.323819	0.890384
	C163	C	0.376639	0.321316	0.108272
	C164	C	0.683882	0.894094	0.375622
	C165	C	0.682170	0.113715	0.622500
	C166	C	0.319594	0.894524	0.623256
	C167	C	0.321197	0.113854	0.375476
	C168	C	0.878725	0.396462	0.181227
	C169	C	0.127032	0.614734	0.181976
	C170	C	0.123805	0.394466	0.819812
	C171	C	0.879636	0.615743	0.819363
	C172	C	0.183734	0.880070	0.388866
	C173	C	0.181756	0.125467	0.609125
	C174	C	0.821777	0.126376	0.389104
	C175	C	0.819109	0.878807	0.607719
	C176	C	0.390395	0.183468	0.876873
	C177	C	0.610229	0.183102	0.120728
	C178	C	0.391062	0.820634	0.124709
	C179	C	0.610255	0.822991	0.878416
	C180	C	0.391010	0.878204	0.182287
	C181	C	0.610581	0.124865	0.178445
	C182	C	0.390662	0.125375	0.819341
	C183	C	0.610354	0.880195	0.819817
	C184	C	0.879966	0.184201	0.389255
	C185	C	0.122397	0.182045	0.610134
	C186	C	0.125383	0.822868	0.388856
	C187	C	0.877465	0.821500	0.607604
	C188	C	0.181593	0.394517	0.877744
	C189	C	0.183232	0.615494	0.122696
	C190	C	0.820066	0.396710	0.124265
	C191	C	0.820393	0.615173	0.875738
	C192	C	0.405429	0.094707	0.595538
	C193	C	0.597441	0.912719	0.596445
	C194	C	0.597199	0.094064	0.402004
	C195	C	0.406004	0.913143	0.404042
	C196	C	0.597411	0.407399	0.090566
	C197	C	0.596386	0.600379	0.909769
	C198	C	0.404755	0.599329	0.090468
	C199	C	0.403882	0.407947	0.908726
	C200	C	0.092095	0.600162	0.403749
	C201	C	0.913090	0.599978	0.594652
	C202	C	0.093259	0.406498	0.597386
	C203	C	0.911008	0.408611	0.402724
	C204	C	0.907019	0.595691	0.093277
	C205	C	0.097422	0.414915	0.096181
	C206	C	0.097845	0.595973	0.902912
	C207	C	0.904513	0.414299	0.903510
	C208	C	0.096353	0.910478	0.587300
	C209	C	0.098726	0.102399	0.407893
	C210	C	0.902806	0.101690	0.591105
	C211	C	0.905571	0.910108	0.409006
	C212	C	0.592709	0.101874	0.901589
	C213	C	0.409655	0.098715	0.095010
	C214	C	0.590882	0.906567	0.096689
	C215	C	0.409618	0.908293	0.903266
	Zn216	Zn	0.501405	0.003392	0.749281
	Zn217	Zn	0.501021	0.002469	0.248898
	Zn218	Zn	0.751289	0.505260	-0.000332
	Zn219	Zn	0.250937	0.504566	-0.000025
	Zn220	Zn	0.002139	0.754986	0.498590
	Zn221	Zn	0.001353	0.254680	0.499826
	Zn222	Zn	0.001735	0.505000	0.749438
	Zn223	Zn	0.002041	0.505444	0.249441
	Zn224	Zn	0.500207	0.753844	0.000371
	Zn225	Zn	0.500497	0.253830	-0.001007
	Zn226	Zn	0.750718	0.003733	0.499192
	Zn227	Zn	0.251605	0.003854	0.498582
	N228	N	0.414440	0.968531	0.679530
	N229	N	0.588337	0.038903	0.679797
	N230	N	0.588468	0.967810	0.318861
	N231	N	0.414992	0.038769	0.318973
	N232	N	0.682403	0.416785	0.965947
	N233	N	0.682136	0.592510	0.034185
	N234	N	0.321399	0.590804	0.964658
	N235	N	0.320849	0.417093	0.034561
	N236	N	0.966581	0.684225	0.412692
	N237	N	0.037710	0.685862	0.586457
	N238	N	0.966335	0.324523	0.586841
	N239	N	0.036684	0.325172	0.413587
	N240	N	0.967470	0.416972	0.680909
	N241	N	0.037544	0.592325	0.679945
	N242	N	0.967798	0.593467	0.317670
	N243	N	0.036574	0.417396	0.318823
	N244	N	0.413525	0.684816	0.965227
	N245	N	0.586372	0.683172	0.035751
	N246	N	0.587877	0.324470	0.964502
	N247	N	0.412933	0.322690	0.033900
	N248	N	0.681872	0.968602	0.411837
	N249	N	0.681432	0.038807	0.586662
	N250	N	0.321035	0.968994	0.586318
	N251	N	0.322033	0.039239	0.412268
	N252	N	0.916268	0.470398	0.178415
	N253	N	0.090440	0.539995	0.181102
	N254	N	0.087898	0.469402	0.820111
	N255	N	0.915838	0.540948	0.820268
	N256	N	0.181883	0.917445	0.462660
	N257	N	0.182773	0.091828	0.533451
	N258	N	0.820949	0.091108	0.464258
	N259	N	0.820653	0.916815	0.533907
	N260	N	0.465634	0.184156	0.911979
	N261	N	0.535481	0.182512	0.085008
	N262	N	0.465317	0.822385	0.087884
	N263	N	0.535774	0.824689	0.914766
	N264	N	0.465485	0.914666	0.181168
	N265	N	0.536020	0.088443	0.177806
	N266	N	0.465972	0.090573	0.819287
	N267	N	0.536064	0.917193	0.820468
	N268	N	0.914626	0.184220	0.464484
	N269	N	0.086739	0.182620	0.535357
	N270	N	0.088042	0.825216	0.462727
	N271	N	0.914799	0.824403	0.533770
	N272	N	0.180982	0.469371	0.913463
	N273	N	0.181141	0.541239	0.085773
	N274	N	0.821511	0.470889	0.086775
	N275	N	0.820290	0.539984	0.911441
	O276	O	0.840913	0.804488	0.202688
	H277	H	0.831658	0.778095	0.214213
	H278	H	0.843813	0.810126	0.180481
	O279	O	0.001109	0.158933	0.793180
	H280	H	0.022633	0.176196	0.794391
	H281	H	0.025180	0.162826	0.798768
	O282	O	0.718675	0.531622	0.715027
	H283	H	0.741064	0.531856	0.735512
	H284	H	0.708611	0.549228	0.707573
	O285	O	0.287102	0.292635	0.538604
	H286	H	0.293277	0.277910	0.519830
	H287	H	0.292579	0.287012	0.519667
	O288	O	1.004667	-0.072473	1.124706
	H289	H	0.982757	-0.088571	1.123816
	H290	H	0.998881	-0.084624	1.112050
	O291	O	0.586434	0.725856	0.456577
	H292	H	0.565329	0.721510	0.466381
	H293	H	0.576427	0.733147	0.455914
	O294	O	0.211040	-0.185214	-0.027703
	H295	H	0.226058	-0.179599	-0.012085
	H296	H	0.215775	-0.189168	-0.015295
	O297	O	0.814074	0.190186	0.183120
	H298	H	0.826318	0.168971	0.164067
	H299	H	0.837554	0.176071	0.166755
	O300	O	0.197749	0.199606	0.194073
	H301	H	0.220327	0.228628	0.226408
	H302	H	0.187125	0.160071	0.195678
	O303	O	0.046258	0.214629	-0.111648
	H304	H	0.039527	0.218753	-0.099922
	H305	H	0.049015	0.216282	-0.097597
	O306	O	0.848801	-0.008602	0.169272
	H307	H	0.834738	-0.021311	0.184392
	H308	H	0.847860	-0.032062	0.160477
	O309	O	0.314159	0.621212	0.313074
	H310	H	0.308764	0.609071	0.297639
	H311	H	0.322831	0.605580	0.324101
	O312	O	0.423190	0.292597	0.438284
	H313	H	0.448544	0.289365	0.426792
	H314	H	0.445321	0.307577	0.446845
	O315	O	0.428074	0.676003	0.534823
	H316	H	0.432162	0.669715	0.544239
	H317	H	0.415562	0.673880	0.536304
	O318	O	1.170363	1.007934	-0.007090
	H319	H	1.152510	1.023029	0.006845
	H320	H	1.170768	1.018265	0.002765
	O321	O	0.202083	0.813561	0.803173
	H322	H	0.201258	0.803194	0.842743
	H323	H	0.196704	0.805910	0.791677
	O324	O	0.822114	-0.161217	0.840895
	H325	H	0.828800	-0.148241	0.821977
	H326	H	0.805336	-0.166098	0.824438
	O327	O	0.705734	0.717110	0.702186
	H328	H	0.695452	0.704337	0.680718
	H329	H	0.674232	0.710221	0.697292
	O330	O	0.412070	0.588137	0.382375
	H331	H	0.413613	0.573450	0.378555
	H332	H	0.419130	0.585295	0.404128
	O333	O	0.333417	0.522039	0.480547
	H334	H	0.337922	0.519115	0.491467
	H335	H	0.336482	0.519321	0.495123
	O336	O	0.437652	0.552440	0.648679
	H337	H	0.448154	0.540129	0.643453
	H338	H	0.448472	0.539302	0.649308
	O339	O	0.320817	0.560777	0.555392
	H340	H	0.322999	0.565833	0.559692
	H341	H	0.325333	0.562311	0.565785
	O342	O	0.198459	0.958566	0.028492
	H343	H	0.186564	0.956358	0.029167
	H344	H	0.193246	0.971237	0.024429
	O345	O	0.578390	0.446712	0.397024
	H346	H	0.586489	0.454408	0.395882
	H347	H	0.587165	0.432093	0.401664
	O348	O	0.282908	0.472577	0.718010
	H349	H	0.266441	0.462359	0.723761
	H350	H	0.270500	0.449689	0.726259
	O351	O	0.209141	0.212806	1.027714
	H352	H	0.206534	0.205785	1.067024
	H353	H	0.235308	0.230790	1.039554
	O354	O	0.782239	-0.014798	0.977987
	H355	H	0.780334	-0.026207	0.963964
	H356	H	0.778234	-0.016429	0.971652
	O357	O	0.473664	0.721778	0.285394
	H358	H	0.473307	0.756187	0.251224
	H359	H	0.458571	0.710449	0.304440
	O360	O	0.651753	0.522467	0.416261
	H361	H	0.657090	0.528026	0.417814
	H362	H	0.655825	0.508713	0.425101
	O363	O	0.712667	0.296278	0.287799
	H364	H	0.687695	0.295924	0.302014
	H365	H	0.742804	0.264356	0.254456
	O366	O	0.793800	0.214534	0.788979
	H367	H	0.792386	0.181915	0.806700
	H368	H	0.830707	0.216472	0.804224
	O369	O	-0.153743	0.168330	0.960128
	H370	H	-0.150509	0.159496	0.955135
	H371	H	-0.163356	0.181778	0.948360
	O372	O	0.018607	1.023978	0.900367
	H373	H	0.025143	1.028199	0.906873
	H374	H	0.011724	1.021973	0.905850
	O375	O	0.793719	0.027825	0.124042
	H376	H	0.792738	0.019914	0.132244
	H377	H	0.792976	0.022388	0.112860
	O378	O	0.717964	0.285468	0.460689
	H379	H	0.720182	0.280390	0.446634
	H380	H	0.723750	0.262419	0.456966
	O381	O	0.062702	0.842946	0.182002
	H382	H	0.049582	0.825440	0.190976
	H383	H	0.063096	0.838082	0.194413
	O384	O	0.464988	0.280103	0.723861
	H385	H	0.436776	0.268480	0.735341
	H386	H	0.446439	0.263983	0.738861
	O387	O	0.205182	0.990326	0.798229
	H388	H	0.215865	0.988321	0.803917
	H389	H	0.206718	0.955985	0.800071
	O390	O	-0.009555	1.228983	1.000388
	H391	H	-0.004118	1.231750	1.015423
	H392	H	-0.008019	1.229216	0.999000
	O393	O	1.028247	0.213628	0.202892
	H394	H	1.031080	0.218000	0.227742
	H395	H	1.042735	0.203746	0.198663
	O396	O	0.322140	0.326108	0.310139
	H397	H	0.339549	0.348032	0.326616
	H398	H	0.342636	0.341724	0.321881
	O399	O	0.535000	0.714671	0.709042
	H400	H	0.515515	0.704219	0.717451
	H401	H	0.518227	0.718683	0.718114
	O402	O	0.782377	0.031497	0.780713
	H403	H	0.791604	0.033273	0.767631
	H404	H	0.770768	0.034614	0.768410
	O405	O	0.535296	0.506909	0.414616
	H406	H	0.533055	0.514496	0.414669
	H407	H	0.541682	0.512827	0.426948
	O408	O	0.945265	0.948307	0.783619
	H409	H	0.949219	0.970866	0.784662
	H410	H	0.962544	0.940514	0.782622
	O411	O	0.793568	0.796367	0.066075
	H412	H	0.782502	0.779325	0.058862
	H413	H	0.797456	0.792752	0.065592
	O414	O	0.008471	-0.090980	0.168270
	H415	H	0.007024	-0.114409	0.177312
	H416	H	0.011275	-0.094488	0.154349
	O417	O	0.637999	0.508936	0.309896
	H418	H	0.631613	0.502804	0.303816
	H419	H	0.667806	0.499307	0.296496
	O420	O	1.181625	0.178949	0.813935
	H421	H	1.175514	0.167166	0.840633
	H422	H	1.177809	0.166056	0.822358
	O423	O	0.973076	1.108497	0.048982
	H424	H	0.967163	1.100334	0.044678
	H425	H	0.968767	1.126284	0.045322
	O426	O	0.613398	0.469343	0.548423
	H427	H	0.620442	0.449210	0.547496
	H428	H	0.624008	0.467034	0.566208
	O429	O	0.691186	0.700255	0.518220
	H430	H	0.707568	0.709767	0.515328
	H431	H	0.675462	0.704933	0.506609
	O432	O	0.935006	-0.106198	0.855611
	H433	H	0.935424	-0.120078	0.849232
	H434	H	0.948822	-0.111403	0.855867
	O435	O	0.559547	0.284592	0.556826
	H436	H	0.557554	0.289807	0.568412
	H437	H	0.571700	0.287029	0.581452
	O438	O	0.355386	0.489091	0.288954
	H439	H	0.351664	0.489574	0.298624
	H440	H	0.352034	0.499186	0.287350
	O441	O	0.645880	0.656925	0.311734
	H442	H	0.626631	0.643119	0.330848
	H443	H	0.646262	0.631650	0.321648
	O444	O	0.545077	0.299149	0.288904
	H445	H	0.553430	0.295186	0.287963
	H446	H	0.537608	0.307326	0.277876
	O447	O	0.686312	0.321314	0.684522
	H448	H	0.693829	0.311010	0.687021
	H449	H	0.705555	0.320289	0.699505
	O450	O	1.214227	0.037562	0.211994
	H451	H	1.232208	0.027723	0.225223
	H452	H	1.200314	0.041451	0.213423
	O453	O	0.291429	0.713278	0.474609
	H454	H	0.277915	0.732508	0.477481
	H455	H	0.295135	0.701774	0.460222
	O456	O	-0.037043	0.951901	0.876906
	H457	H	-0.045066	0.940054	0.864591
	H458	H	-0.036119	0.961130	0.888183
	O459	O	0.484568	0.514901	0.699898
	H460	H	0.508812	0.499239	0.693307
	H461	H	0.466182	0.491799	0.706804
	O462	O	0.598899	0.509981	0.419698
	H463	H	0.607479	0.501437	0.413762
	H464	H	0.604924	0.505744	0.428845
	O465	O	0.393173	0.632987	0.684030
	H466	H	0.401004	0.616835	0.688385
	H467	H	0.387183	0.612600	0.685485
	O468	O	0.027122	0.895667	0.150037
	H469	H	0.014590	0.892345	0.137021
	H470	H	0.038761	0.889017	0.138737
	O471	O	0.568436	0.460268	0.529817
	H472	H	0.577351	0.459289	0.529898
	H473	H	0.577095	0.456574	0.538127
	O474	O	0.931451	0.805590	-0.017591
	H475	H	0.932581	0.810805	-0.011401
	H476	H	0.926162	0.794462	-0.037479
	O477	O	0.297716	0.301826	0.703244
	H478	H	0.274404	0.284756	0.721506
	H479	H	0.289780	0.298297	0.650862
