data_Molecule from HDF5

_cell_length_a		16.211775
_cell_length_b		16.371288
_cell_length_c		16.320615
_cell_angle_alpha	90.108784
_cell_angle_beta	90.114900
_cell_angle_gamma	90.070408
_symmetry_space_group_name_H-M	'P 1'
_symmetry_Int_Tables_number		1

loop_
	_symmetry_equiv_pos_as_xyz
	x,y,z

loop_
	_atom_site_label
	_atom_site_type_symbol
	_atom_site_fract_x
	_atom_site_fract_y
	_atom_site_fract_z
	H0	H	0.391737	0.834087	0.713138
	H1	H	0.592467	0.158522	0.714439
	H2	H	0.592819	0.834405	0.281412
	H3	H	0.393271	0.158879	0.282653
	H4	H	0.705413	0.398887	0.834218
	H5	H	0.708314	0.594439	0.161279
	H6	H	0.279766	0.591718	0.833515
	H7	H	0.279344	0.400035	0.161837
	H8	H	0.828108	0.710718	0.398886
	H9	H	0.156424	0.711108	0.598067
	H10	H	0.828243	0.282211	0.595915
	H11	H	0.156233	0.281777	0.398844
	H12	H	0.828550	0.397745	0.711951
	H13	H	0.156228	0.595698	0.713303
	H14	H	0.828272	0.594628	0.282897
	H15	H	0.156571	0.397738	0.284506
	H16	H	0.392212	0.711443	0.835186
	H17	H	0.593720	0.712971	0.160826
	H18	H	0.592396	0.279484	0.835357
	H19	H	0.391478	0.279116	0.160915
	H20	H	0.707158	0.833939	0.399871
	H21	H	0.707336	0.159107	0.597589
	H22	H	0.277900	0.833503	0.594768
	H23	H	0.278049	0.159447	0.400155
	H24	H	0.892930	0.332853	0.212056
	H25	H	0.093410	0.657530	0.215665
	H26	H	0.091430	0.333344	0.782859
	H27	H	0.892965	0.658525	0.781081
	H28	H	0.206393	0.896857	0.334903
	H29	H	0.206998	0.093910	0.660975
	H30	H	0.778319	0.092781	0.335011
	H31	H	0.778203	0.898826	0.662766
	H32	H	0.329186	0.211514	0.897042
	H33	H	0.656477	0.211284	0.097652
	H34	H	0.327647	0.782015	0.096127
	H35	H	0.656240	0.780894	0.898950
	H36	H	0.328114	0.897043	0.212486
	H37	H	0.656547	0.094642	0.212345
	H38	H	0.328146	0.093491	0.784337
	H39	H	0.656722	0.898337	0.784117
	H40	H	0.891785	0.211067	0.335740
	H41	H	0.093637	0.213157	0.660388
	H42	H	0.092109	0.778866	0.336197
	H43	H	0.891750	0.779758	0.661560
	H44	H	0.206249	0.332748	0.900476
	H45	H	0.208211	0.659011	0.097052
	H46	H	0.779116	0.332699	0.094398
	H47	H	0.777544	0.659465	0.900042
	H48	H	0.394311	0.113634	0.591124
	H49	H	0.590551	0.879004	0.591551
	H50	H	0.581976	0.115034	0.395196
	H51	H	0.402705	0.881243	0.404366
	H52	H	0.589287	0.403830	0.114825
	H53	H	0.590237	0.583906	0.882094
	H54	H	0.402754	0.586007	0.111994
	H55	H	0.400792	0.402760	0.882215
	H56	H	0.110296	0.592361	0.404259
	H57	H	0.873572	0.591737	0.592927
	H58	H	0.108615	0.407689	0.591332
	H59	H	0.875674	0.407275	0.400411
	H60	H	0.111372	0.401367	0.592901
	H61	H	0.877482	0.589391	0.585014
	H62	H	0.106967	0.588665	0.412785
	H63	H	0.873049	0.396726	0.402183
	H64	H	0.402214	0.594085	0.114677
	H65	H	0.577650	0.586439	0.886017
	H66	H	0.582201	0.405484	0.112843
	H67	H	0.399858	0.400207	0.881647
	H68	H	0.577760	0.107413	0.412092
	H69	H	0.581099	0.880412	0.595686
	H70	H	0.400657	0.113872	0.596860
	H71	H	0.396795	0.881059	0.405623
	H72	H	0.904244	0.611002	0.093117
	H73	H	0.091055	0.375671	0.101663
	H74	H	0.083901	0.609679	0.911615
	H75	H	0.906114	0.384208	0.907069
	H76	H	0.084024	0.900288	0.614411
	H77	H	0.081383	0.097098	0.380025
	H78	H	0.911197	0.088633	0.611269
	H79	H	0.899197	0.909180	0.385406
	H80	H	0.608562	0.084035	0.903318
	H81	H	0.376568	0.090857	0.084271
	H82	H	0.610596	0.902773	0.094969
	H83	H	0.376906	0.910240	0.902762
	H84	H	0.608336	0.900261	0.086050
	H85	H	0.377670	0.082119	0.090172
	H86	H	0.611643	0.093063	0.902176
	H87	H	0.372839	0.897244	0.899345
	H88	H	0.897270	0.099950	0.618134
	H89	H	0.091399	0.087299	0.380530
	H90	H	0.088179	0.903192	0.615455
	H91	H	0.906161	0.900123	0.384653
	H92	H	0.093553	0.614239	0.902527
	H93	H	0.073991	0.383241	0.092126
	H94	H	0.900817	0.610069	0.086973
	H95	H	0.892580	0.379897	0.908783
	H96	H	0.402396	0.110387	0.589072
	H97	H	0.583220	0.882614	0.585954
	H98	H	0.595146	0.113292	0.408795
	H99	H	0.398556	0.878913	0.400865
	H100	H	0.583682	0.398366	0.114400
	H101	H	0.585001	0.596259	0.880805
	H102	H	0.395658	0.589124	0.115246
	H103	H	0.398267	0.401824	0.882321
	H104	H	0.107485	0.583255	0.404814
	H105	H	0.876705	0.583279	0.591766
	H106	H	0.108462	0.402466	0.587168
	H107	H	0.877472	0.403251	0.410390
	H108	H	0.897670	0.612153	0.092508
	H109	H	0.091904	0.381655	0.081482
	H110	H	0.080204	0.611771	0.899053
	H111	H	0.898951	0.378152	0.896272
	H112	H	0.083544	0.905677	0.613644
	H113	H	0.079545	0.084204	0.385452
	H114	H	0.893067	0.081827	0.614768
	H115	H	0.895003	0.899337	0.380931
	H116	H	0.608512	0.090387	0.910499
	H117	H	0.373623	0.091346	0.094325
	H118	H	0.606956	0.909487	0.089379
	H119	H	0.376985	0.900003	0.912210
	C120	C	0.370663	0.004711	0.619711
	C121	C	0.614045	0.987971	0.619916
	C122	C	0.614197	0.004747	0.376365
	C123	C	0.370512	0.988112	0.375659
	C124	C	0.613521	0.374066	0.006149
	C125	C	0.614067	0.617961	0.990230
	C126	C	0.371365	0.617615	0.005971
	C127	C	0.370507	0.373612	0.989681
	C128	C	0.000272	0.617306	0.377361
	C129	C	0.983855	0.617400	0.619658
	C130	C	0.001035	0.375204	0.618669
	C131	C	0.983582	0.374092	0.376319
	C132	C	0.871531	0.503702	0.119230
	C133	C	0.115035	0.487483	0.120732
	C134	C	0.114135	0.504214	0.876247
	C135	C	0.870232	0.488056	0.875319
	C136	C	0.113709	0.874152	0.506610
	C137	C	0.113818	0.118669	0.489710
	C138	C	0.871288	0.117645	0.506979
	C139	C	0.870460	0.874044	0.490966
	C140	C	0.500908	0.117156	0.876821
	C141	C	0.484149	0.117031	0.118971
	C142	C	0.500323	0.874909	0.119220
	C143	C	0.483956	0.874133	0.876285
	C144	C	0.372167	0.882485	0.674760
	C145	C	0.611802	0.110333	0.675613
	C146	C	0.612532	0.882738	0.320107
	C147	C	0.372700	0.110552	0.320626
	C148	C	0.668429	0.377357	0.883311
	C149	C	0.670246	0.615267	0.112676
	C150	C	0.316718	0.613429	0.882663
	C151	C	0.315860	0.377375	0.112676
	C152	C	0.877225	0.672765	0.378865
	C153	C	0.107254	0.673434	0.618385
	C154	C	0.877289	0.319939	0.616433
	C155	C	0.107068	0.319134	0.378407
	C156	C	0.877425	0.377321	0.673963
	C157	C	0.107493	0.615824	0.675324
	C158	C	0.877124	0.614944	0.321319
	C159	C	0.107347	0.376678	0.321406
	C160	C	0.372799	0.672744	0.883581
	C161	C	0.613562	0.674322	0.112361
	C162	C	0.612047	0.318245	0.883868
	C163	C	0.372186	0.317947	0.112259
	C164	C	0.669784	0.882550	0.378807
	C165	C	0.669306	0.110519	0.617920
	C166	C	0.315765	0.882078	0.615523
	C167	C	0.315318	0.110647	0.378743
	C168	C	0.873082	0.381641	0.174325
	C169	C	0.113531	0.609539	0.176881
	C170	C	0.111769	0.381831	0.820924
	C171	C	0.872753	0.610247	0.820069
	C172	C	0.168652	0.876341	0.383857
	C173	C	0.169237	0.115165	0.612219
	C174	C	0.815671	0.114088	0.383898
	C175	C	0.815428	0.877479	0.613834
	C176	C	0.377709	0.172508	0.878060
	C177	C	0.607505	0.172767	0.117403
	C178	C	0.376760	0.819559	0.116957
	C179	C	0.607448	0.819110	0.878812
	C180	C	0.377179	0.876833	0.174701
	C181	C	0.607400	0.115101	0.174601
	C182	C	0.377348	0.114130	0.821906
	C183	C	0.607570	0.877200	0.821655
	C184	C	0.872192	0.172495	0.384112
	C185	C	0.112703	0.174243	0.611951
	C186	C	0.111968	0.817644	0.384572
	C187	C	0.871786	0.818270	0.613268
	C188	C	0.168814	0.381340	0.879246
	C189	C	0.170381	0.610086	0.117843
	C190	C	0.816640	0.381291	0.115527
	C191	C	0.815066	0.610634	0.878636
	C192	C	0.392669	0.090450	0.598465
	C193	C	0.591662	0.902788	0.597456
	C194	C	0.591558	0.089851	0.398782
	C195	C	0.392707	0.902660	0.397347
	C196	C	0.591381	0.396028	0.092033
	C197	C	0.590906	0.595527	0.904854
	C198	C	0.393784	0.596114	0.091754
	C199	C	0.393024	0.395203	0.904048
	C200	C	0.086159	0.594566	0.400434
	C201	C	0.898132	0.594856	0.596726
	C202	C	0.087089	0.397372	0.596789
	C203	C	0.897669	0.396012	0.397971
	C204	C	0.894208	0.589003	0.097266
	C205	C	0.092453	0.402260	0.098347
	C206	C	0.092410	0.589708	0.898052
	C207	C	0.892688	0.402808	0.897498
	C208	C	0.091517	0.896451	0.592428
	C209	C	0.090869	0.096271	0.404067
	C210	C	0.893914	0.096370	0.592560
	C211	C	0.893265	0.896457	0.405638
	C212	C	0.587329	0.095553	0.898754
	C213	C	0.398269	0.094579	0.096191
	C214	C	0.586378	0.897506	0.096710
	C215	C	0.397749	0.895962	0.898331
	Zn216	Zn	0.492215	-0.003659	0.748496
	Zn217	Zn	0.492083	-0.003713	0.247245
	Zn218	Zn	0.742297	0.495698	-0.001644
	Zn219	Zn	0.243001	0.496090	-0.002371
	Zn220	Zn	-0.007863	0.745313	0.499271
	Zn221	Zn	-0.007875	0.246867	0.497600
	Zn222	Zn	-0.006997	0.496141	0.746993
	Zn223	Zn	-0.007891	0.495680	0.248580
	Zn224	Zn	0.492305	0.746467	-0.001865
	Zn225	Zn	0.492311	0.244958	-0.002268
	Zn226	Zn	0.742735	-0.003428	0.499137
	Zn227	Zn	0.241934	-0.003538	0.497364
	N228	N	0.405650	0.959650	0.677388
	N229	N	0.578254	0.033042	0.677184
	N230	N	0.578719	0.959566	0.318457
	N231	N	0.406172	0.033454	0.318594
	N232	N	0.669380	0.411396	0.960472
	N233	N	0.670499	0.580751	0.035743
	N234	N	0.315725	0.579771	0.959934
	N235	N	0.314851	0.411132	0.035718
	N236	N	0.954816	0.674270	0.412802
	N237	N	0.029660	0.674256	0.584276
	N238	N	0.955018	0.318600	0.582702
	N239	N	0.029302	0.317249	0.411643
	N240	N	0.955176	0.410923	0.675661
	N241	N	0.029924	0.581668	0.676309
	N242	N	0.954886	0.581201	0.320240
	N243	N	0.029672	0.410294	0.319834
	N244	N	0.405811	0.675351	0.961147
	N245	N	0.579608	0.676166	0.035059
	N246	N	0.578522	0.316336	0.961176
	N247	N	0.405296	0.315260	0.034517
	N248	N	0.671020	0.959306	0.413093
	N249	N	0.670706	0.033671	0.583845
	N250	N	0.314749	0.959139	0.582077
	N251	N	0.313885	0.033510	0.412270
	N252	N	0.906954	0.458655	0.176103
	N253	N	0.079958	0.532435	0.178830
	N254	N	0.078442	0.459170	0.819023
	N255	N	0.905964	0.533009	0.817725
	N256	N	0.169814	0.910832	0.460755
	N257	N	0.169777	0.081316	0.535215
	N258	N	0.815128	0.080446	0.461063
	N259	N	0.814496	0.911414	0.536705
	N260	N	0.455545	0.174261	0.911739
	N261	N	0.529769	0.174000	0.083338
	N262	N	0.454458	0.818145	0.083254
	N263	N	0.529345	0.816930	0.911837
	N264	N	0.455011	0.910483	0.176060
	N265	N	0.529781	0.081159	0.175447
	N266	N	0.454956	0.080282	0.821087
	N267	N	0.529963	0.910586	0.819947
	N268	N	0.905839	0.175132	0.461570
	N269	N	0.078971	0.176481	0.534514
	N270	N	0.078621	0.816200	0.462038
	N271	N	0.905090	0.815852	0.535837
	N272	N	0.170293	0.458221	0.913170
	N273	N	0.171524	0.533100	0.083714
	N274	N	0.815287	0.458407	0.082138
	N275	N	0.813412	0.533593	0.912178
	O276	O	0.465272	0.575257	0.515443
	H277	H	0.473364	0.575894	0.520556
	H278	H	0.466844	0.573816	0.526458
	O279	O	0.544897	0.550733	0.535531
	H280	H	0.552092	0.548085	0.525415
	H281	H	0.551220	0.557669	0.538315
	O282	O	0.498215	0.483596	0.465731
	H283	H	0.495238	0.483213	0.463564
	H284	H	0.495779	0.487833	0.467037
	O285	O	-0.005738	0.996352	1.114809
	H286	H	-0.003559	0.991096	1.128196
	H287	H	-0.016537	1.002665	1.119062
	O288	O	0.957196	0.938222	0.001128
	H289	H	0.954397	0.937721	-0.008597
	H290	H	0.956719	0.927626	0.001214
	O291	O	0.033750	0.016944	1.078069
	H292	H	0.034825	0.022272	1.078744
	H293	H	0.030503	0.016972	1.090503
	O294	O	0.509995	0.480126	0.497513
	H295	H	0.499982	0.480220	0.502261
	H296	H	0.510306	0.470439	0.495477
	O297	O	0.486793	0.506383	0.439748
	H298	H	0.481953	0.503155	0.440588
	H299	H	0.485491	0.512016	0.445071
	O300	O	0.572518	0.514829	0.516780
	H301	H	0.575917	0.516630	0.516256
	H302	H	0.572360	0.512061	0.522538
	O303	O	0.459515	0.592831	0.467484
	H304	H	0.450830	0.594402	0.460535
	H305	H	0.463366	0.596607	0.472285
	O306	O	1.051321	0.029870	1.111643
	H307	H	1.050715	0.029756	1.106942
	H308	H	1.059421	0.026752	1.108890
	O309	O	0.555144	0.592033	0.551311
	H310	H	0.569907	0.586062	0.540761
	H311	H	0.559252	0.590177	0.552722
	O312	O	0.510276	0.527575	0.537784
	H313	H	0.512885	0.523329	0.542438
	H314	H	0.500296	0.543430	0.542284
	O315	O	0.961537	-0.010747	1.092439
	H316	H	0.959021	-0.011223	1.091119
	H317	H	0.962165	-0.005022	1.096849
	O318	O	-0.010395	0.032007	0.043338
	H319	H	-0.016501	0.030001	0.049745
	H320	H	-0.003635	0.037407	0.051017
	O321	O	0.566283	0.507744	0.479439
	H322	H	0.561285	0.511566	0.470277
	H323	H	0.560292	0.509346	0.476811
	O324	O	1.041949	-0.000894	0.044423
	H325	H	1.037175	0.003179	0.047043
	H326	H	1.040034	-0.003037	0.048660
	O327	O	0.986391	1.021846	0.071159
	H328	H	0.988586	1.017777	0.068123
	H329	H	0.987365	1.021529	0.073770
	O330	O	0.474927	0.554495	0.481205
	H331	H	0.471123	0.551510	0.491327
	H332	H	0.480680	0.559775	0.484213
	O333	O	0.553390	0.567332	0.505566
	H334	H	0.555119	0.568051	0.501506
	H335	H	0.549417	0.570540	0.506301
