data_Molecule from HDF5

_cell_length_a		16.569073
_cell_length_b		16.273909
_cell_length_c		16.297434
_cell_angle_alpha	90.136959
_cell_angle_beta	89.741344
_cell_angle_gamma	89.919674
_symmetry_space_group_name_H-M	'P 1'
_symmetry_Int_Tables_number		1

loop_
	_symmetry_equiv_pos_as_xyz
	x,y,z

loop_
	_atom_site_label
	_atom_site_type_symbol
	_atom_site_fract_x
	_atom_site_fract_y
	_atom_site_fract_z
	H0	H	0.386692	0.851358	0.717743
	H1	H	0.593244	0.172755	0.719856
	H2	H	0.589757	0.850472	0.281458
	H3	H	0.387871	0.174802	0.283016
	H4	H	0.711519	0.406922	0.842616
	H5	H	0.707187	0.622118	0.161744
	H6	H	0.265617	0.623372	0.842397
	H7	H	0.266573	0.408099	0.159754
	H8	H	0.829568	0.733016	0.399290
	H9	H	0.146323	0.733696	0.605184
	H10	H	0.829624	0.291178	0.606471
	H11	H	0.146225	0.293385	0.395975
	H12	H	0.828462	0.409880	0.722180
	H13	H	0.145690	0.617095	0.722251
	H14	H	0.829020	0.618497	0.281381
	H15	H	0.144463	0.406755	0.277214
	H16	H	0.387137	0.730894	0.839750
	H17	H	0.586632	0.731889	0.162555
	H18	H	0.593077	0.295072	0.839796
	H19	H	0.385851	0.296186	0.161132
	H20	H	0.710092	0.852273	0.390717
	H21	H	0.710342	0.171943	0.603918
	H22	H	0.268148	0.852766	0.604970
	H23	H	0.266692	0.172279	0.392409
	H24	H	0.886216	0.350565	0.218041
	H25	H	0.085745	0.675403	0.217555
	H26	H	0.089592	0.351249	0.783660
	H27	H	0.886542	0.675420	0.784956
	H28	H	0.209626	0.907201	0.338797
	H29	H	0.211599	0.121585	0.658293
	H30	H	0.770034	0.118027	0.338356
	H31	H	0.763501	0.904058	0.656005
	H32	H	0.329709	0.234960	0.896855
	H33	H	0.646624	0.235064	0.103038
	H34	H	0.329118	0.795117	0.103554
	H35	H	0.645519	0.790491	0.894541
	H36	H	0.329517	0.911839	0.220016
	H37	H	0.647638	0.119148	0.220919
	H38	H	0.330509	0.121122	0.777341
	H39	H	0.645438	0.906102	0.776259
	H40	H	0.888567	0.230452	0.338095
	H41	H	0.090447	0.232094	0.660929
	H42	H	0.090077	0.794349	0.338680
	H43	H	0.886072	0.797355	0.661893
	H44	H	0.210116	0.353852	0.894644
	H45	H	0.207595	0.673322	0.107730
	H46	H	0.763994	0.354348	0.110237
	H47	H	0.767477	0.673795	0.897139
	H48	H	0.397193	0.127004	0.584206
	H49	H	0.576022	0.896549	0.592798
	H50	H	0.577808	0.127663	0.409005
	H51	H	0.402493	0.901786	0.417277
	H52	H	0.575738	0.422180	0.116409
	H53	H	0.591531	0.594545	0.884602
	H54	H	0.400203	0.607881	0.115930
	H55	H	0.399627	0.421379	0.885392
	H56	H	0.097345	0.599808	0.415701
	H57	H	0.873605	0.604693	0.595215
	H58	H	0.101520	0.412532	0.586878
	H59	H	0.873159	0.424968	0.404451
	H60	H	0.095674	0.430688	0.586725
	H61	H	0.874721	0.606523	0.592050
	H62	H	0.100817	0.597725	0.404033
	H63	H	0.873540	0.415626	0.412991
	H64	H	0.390964	0.602819	0.117300
	H65	H	0.568693	0.593598	0.893856
	H66	H	0.580790	0.427606	0.116928
	H67	H	0.394337	0.428532	0.884551
	H68	H	0.581934	0.126849	0.413202
	H69	H	0.573064	0.902640	0.582018
	H70	H	0.398142	0.128037	0.589674
	H71	H	0.390653	0.896001	0.411511
	H72	H	0.904155	0.628048	0.099632
	H73	H	0.075234	0.398642	0.090935
	H74	H	0.080278	0.626858	0.917424
	H75	H	0.900341	0.399768	0.912533
	H76	H	0.083117	0.927494	0.614241
	H77	H	0.080089	0.111354	0.381138
	H78	H	0.900493	0.100745	0.612276
	H79	H	0.897183	0.925749	0.384472
	H80	H	0.600012	0.102645	0.906433
	H81	H	0.375028	0.105015	0.096065
	H82	H	0.601044	0.922251	0.087771
	H83	H	0.376365	0.925491	0.908243
	H84	H	0.600249	0.924062	0.091435
	H85	H	0.376142	0.108922	0.088151
	H86	H	0.600438	0.106182	0.910832
	H87	H	0.374905	0.921818	0.908733
	H88	H	0.896775	0.101461	0.614433
	H89	H	0.087729	0.093423	0.384994
	H90	H	0.075572	0.926208	0.612865
	H91	H	0.903514	0.923895	0.385783
	H92	H	0.079713	0.629366	0.909772
	H93	H	0.078671	0.399672	0.084068
	H94	H	0.898990	0.623532	0.081285
	H95	H	0.897317	0.399604	0.917139
	H96	H	0.402456	0.125557	0.586076
	H97	H	0.584189	0.896838	0.582795
	H98	H	0.583192	0.129027	0.407911
	H99	H	0.402392	0.897144	0.403581
	H100	H	0.574239	0.428655	0.113323
	H101	H	0.576941	0.614323	0.882941
	H102	H	0.399414	0.597528	0.112661
	H103	H	0.402147	0.429320	0.888583
	H104	H	0.102616	0.608655	0.409255
	H105	H	0.875692	0.602735	0.592633
	H106	H	0.102641	0.423635	0.602334
	H107	H	0.877363	0.427361	0.416102
	H108	H	0.886016	0.632069	0.093296
	H109	H	0.082114	0.397654	0.090420
	H110	H	0.073332	0.626548	0.913482
	H111	H	0.894634	0.398268	0.912441
	H112	H	0.079832	0.920689	0.615696
	H113	H	0.069070	0.097649	0.390396
	H114	H	0.897295	0.097550	0.612580
	H115	H	0.898567	0.919569	0.383193
	H116	H	0.598810	0.100706	0.911659
	H117	H	0.378506	0.099737	0.089924
	H118	H	0.602353	0.920213	0.091241
	H119	H	0.376036	0.923548	0.912150
	C120	C	0.367625	0.021026	0.619815
	C121	C	0.610003	1.004152	0.619295
	C122	C	0.611264	0.021192	0.377377
	C123	C	0.367425	1.004430	0.378824
	C124	C	0.609091	0.393557	0.009624
	C125	C	0.608819	0.634205	0.992930
	C126	C	0.366058	0.634933	0.009472
	C127	C	0.366998	0.393689	0.991786
	C128	C	-0.004280	0.634114	0.379260
	C129	C	0.979457	0.635734	0.624236
	C130	C	-0.004409	0.390561	0.623687
	C131	C	0.979126	0.390997	0.378951
	C132	C	0.865038	0.521790	0.123499
	C133	C	0.108700	0.504806	0.121282
	C134	C	0.109110	0.521964	0.880586
	C135	C	0.866359	0.505387	0.881999
	C136	C	0.110409	0.892216	0.508055
	C137	C	0.110553	0.134015	0.491290
	C138	C	0.867789	0.132241	0.507210
	C139	C	0.867403	0.891359	0.490299
	C140	C	0.495848	0.135805	0.877697
	C141	C	0.481062	0.135795	0.122186
	C142	C	0.496350	0.891885	0.121484
	C143	C	0.480008	0.891130	0.877858
	C144	C	0.367190	0.899954	0.678953
	C145	C	0.612118	0.124528	0.679980
	C146	C	0.610289	0.899549	0.318992
	C147	C	0.367809	0.125996	0.321319
	C148	C	0.670772	0.389797	0.890148
	C149	C	0.667324	0.638818	0.113653
	C150	C	0.306458	0.638958	0.889720
	C151	C	0.306935	0.390828	0.112100
	C152	C	0.876772	0.693604	0.379847
	C153	C	0.098641	0.694247	0.624422
	C154	C	0.876809	0.331407	0.625008
	C155	C	0.098283	0.332183	0.377373
	C156	C	0.876386	0.390536	0.682599
	C157	C	0.098312	0.636235	0.682676
	C158	C	0.876502	0.636198	0.321354
	C159	C	0.097588	0.388855	0.318219
	C160	C	0.366652	0.693121	0.888505
	C161	C	0.607437	0.693545	0.114179
	C162	C	0.611705	0.334030	0.888640
	C163	C	0.366176	0.334862	0.112686
	C164	C	0.669710	0.900239	0.373908
	C165	C	0.670127	0.124184	0.621817
	C166	C	0.308282	0.900635	0.622795
	C167	C	0.307392	0.124663	0.375700
	C168	C	0.865690	0.399930	0.180711
	C169	C	0.106934	0.626480	0.179813
	C170	C	0.109569	0.400273	0.821608
	C171	C	0.866837	0.626711	0.823669
	C172	C	0.169406	0.889635	0.386985
	C173	C	0.170425	0.138154	0.611107
	C174	C	0.809527	0.135412	0.386439
	C175	C	0.805627	0.887915	0.609637
	C176	C	0.377276	0.195538	0.877026
	C177	C	0.599563	0.195540	0.122732
	C178	C	0.376630	0.834256	0.122435
	C179	C	0.598210	0.830363	0.875454
	C180	C	0.377078	0.892073	0.180697
	C181	C	0.599964	0.137315	0.181010
	C182	C	0.377763	0.138571	0.817649
	C183	C	0.598224	0.888147	0.816862
	C184	C	0.868584	0.191529	0.386310
	C185	C	0.110458	0.193434	0.612306
	C186	C	0.110487	0.833168	0.386925
	C187	C	0.866798	0.834767	0.612503
	C188	C	0.169622	0.401640	0.876761
	C189	C	0.167428	0.625570	0.124894
	C190	C	0.804828	0.401749	0.127034
	C191	C	0.807414	0.626026	0.879487
	C192	C	0.392179	0.105014	0.594117
	C193	C	0.584978	0.920407	0.593442
	C194	C	0.587607	0.105726	0.402826
	C195	C	0.391590	0.920166	0.403682
	C196	C	0.583959	0.418845	0.093589
	C197	C	0.585589	0.608490	0.909133
	C198	C	0.389922	0.609805	0.093611
	C199	C	0.391667	0.419003	0.907989
	C200	C	0.078698	0.609288	0.402912
	C201	C	0.896278	0.611741	0.600243
	C202	C	0.078419	0.415073	0.599052
	C203	C	0.896280	0.415604	0.404005
	C204	C	0.889210	0.606155	0.098604
	C205	C	0.085294	0.420462	0.095853
	C206	C	0.084751	0.605659	0.906164
	C207	C	0.890364	0.421221	0.907062
	C208	C	0.086445	0.917385	0.592279
	C209	C	0.086074	0.108151	0.407508
	C210	C	0.891219	0.107022	0.591186
	C211	C	0.892537	0.915845	0.406313
	C212	C	0.578464	0.110471	0.902504
	C213	C	0.398322	0.111545	0.098276
	C214	C	0.579534	0.915471	0.097211
	C215	C	0.397279	0.916430	0.902736
	Zn216	Zn	0.487862	0.013355	0.748199
	Zn217	Zn	0.489256	0.013209	0.251491
	Zn218	Zn	0.737393	0.514160	0.002737
	Zn219	Zn	0.237959	0.514319	0.000599
	Zn220	Zn	-0.011370	0.764146	0.500519
	Zn221	Zn	-0.012490	0.261245	0.500225
	Zn222	Zn	-0.012789	0.513268	0.753059
	Zn223	Zn	-0.013079	0.512468	0.249729
	Zn224	Zn	0.487587	0.762010	0.000387
	Zn225	Zn	0.488435	0.265558	-0.000036
	Zn226	Zn	0.739061	0.011493	0.497559
	Zn227	Zn	0.239055	0.012982	0.499722
	N228	N	0.403354	0.976200	0.677380
	N229	N	0.575543	0.048932	0.678530
	N230	N	0.574688	0.976031	0.321013
	N231	N	0.404577	0.050353	0.323276
	N232	N	0.669371	0.426064	0.966427
	N233	N	0.668344	0.602603	0.037405
	N234	N	0.305962	0.603472	0.966165
	N235	N	0.307460	0.426793	0.035963
	N236	N	0.952009	0.692545	0.415309
	N237	N	0.023465	0.694373	0.588867
	N238	N	0.952064	0.331029	0.589145
	N239	N	0.023699	0.333668	0.414881
	N240	N	0.951371	0.426494	0.681813
	N241	N	0.023139	0.601044	0.682710
	N242	N	0.951321	0.599716	0.321085
	N243	N	0.022587	0.424677	0.319083
	N244	N	0.403416	0.690335	0.963814
	N245	N	0.571776	0.690902	0.038132
	N246	N	0.574196	0.336154	0.964074
	N247	N	0.403124	0.336649	0.037037
	N248	N	0.670513	0.976964	0.409340
	N249	N	0.669041	0.048033	0.585093
	N250	N	0.308387	0.976901	0.587065
	N251	N	0.307201	0.047877	0.410870
	N252	N	0.902256	0.475649	0.178750
	N253	N	0.071205	0.550270	0.177710
	N254	N	0.072901	0.476065	0.823539
	N255	N	0.902681	0.550515	0.824946
	N256	N	0.169700	0.925425	0.463604
	N257	N	0.170667	0.101998	0.534794
	N258	N	0.808834	0.099247	0.462677
	N259	N	0.806002	0.922376	0.532776
	N260	N	0.451824	0.194102	0.913491
	N261	N	0.524672	0.194712	0.086968
	N262	N	0.451723	0.834104	0.086380
	N263	N	0.523675	0.832038	0.912655
	N264	N	0.452375	0.927403	0.180119
	N265	N	0.525361	0.100908	0.180871
	N266	N	0.452814	0.102003	0.818008
	N267	N	0.523785	0.925287	0.818309
	N268	N	0.904008	0.189788	0.462337
	N269	N	0.073915	0.190903	0.536805
	N270	N	0.074643	0.834614	0.463062
	N271	N	0.904730	0.836876	0.537375
	N272	N	0.169502	0.478184	0.912800
	N273	N	0.168910	0.548966	0.089530
	N274	N	0.804021	0.478834	0.092358
	N275	N	0.807208	0.549608	0.915307
	O276	O	0.661671	0.516124	0.329320
	H277	H	0.666154	0.524594	0.325734
	H278	H	0.652584	0.527026	0.335754
	O279	O	1.003778	-0.054150	0.027809
	H280	H	0.996240	-0.050567	0.032932
	H281	H	0.990952	-0.058457	0.027762
	O282	O	0.680715	0.528759	0.581482
	H283	H	0.677614	0.522970	0.569564
	H284	H	0.683099	0.541267	0.597935
	O285	O	0.956247	0.005411	0.067343
	H286	H	0.967805	0.020061	0.093878
	H287	H	0.933840	-0.016309	0.080928
	O288	O	0.058777	0.100126	1.175438
	H289	H	0.052824	0.094098	1.181679
	H290	H	0.060065	0.091204	1.171839
	O291	O	0.566640	0.618445	0.601807
	H292	H	0.575154	0.601590	0.608817
	H293	H	0.529404	0.630884	0.609530
	O294	O	0.302906	0.556693	0.428226
	H295	H	0.293508	0.557770	0.418463
	H296	H	0.319142	0.553276	0.419199
	O297	O	1.010855	0.820899	0.814069
	H298	H	0.994814	0.844247	0.816893
	H299	H	1.020498	0.806039	0.781869
	O300	O	0.198165	-0.019254	-0.176804
	H301	H	0.191686	-0.040560	-0.152321
	H302	H	0.220706	-0.029606	-0.198264
	O303	O	0.353999	0.717231	0.446668
	H304	H	0.354870	0.718624	0.429551
	H305	H	0.350983	0.724403	0.442921
	O306	O	1.052492	0.115089	-0.070901
	H307	H	1.043111	0.116625	-0.071714
	H308	H	1.054706	0.109065	-0.070672
	O309	O	0.413557	0.631790	0.511219
	H310	H	0.404333	0.632540	0.506549
	H311	H	0.420504	0.615529	0.520821
	O312	O	0.596925	1.571666	-0.596873
	H313	H	0.600152	1.586488	-0.583457
	H314	H	0.583822	1.583912	-0.589916
	O315	O	0.276879	0.498729	0.705114
	H316	H	0.273720	0.463408	0.699667
	H317	H	0.259134	0.476435	0.726496
	O318	O	0.395622	0.610548	0.329085
	H319	H	0.413246	0.606558	0.324190
	H320	H	0.394529	0.583492	0.338808
	O321	O	0.839683	-0.023913	1.029348
	H322	H	0.822278	-0.015975	1.021847
	H323	H	0.842300	-0.017161	1.016059
	O324	O	0.133749	0.174614	1.152213
	H325	H	0.122134	0.176770	1.159846
	H326	H	0.148298	0.175882	1.160125
	O327	O	0.901663	0.904745	0.792149
	H328	H	0.884900	0.926080	0.796901
	H329	H	0.910780	0.920465	0.797024
	O330	O	0.432061	0.538834	0.611637
	H331	H	0.428601	0.530231	0.599949
	H332	H	0.422369	0.536516	0.617050
	O333	O	1.027910	1.041412	0.804249
	H334	H	1.055642	1.022836	0.792098
	H335	H	1.039889	1.043323	0.821413
	O336	O	0.528034	0.688477	0.684850
	H337	H	0.503593	0.699262	0.690634
	H338	H	0.515442	0.678203	0.692376
	O339	O	1.687465	-0.638995	1.423660
	H340	H	1.699752	-0.628020	1.422203
	H341	H	1.710198	-0.639360	1.430919
	O342	O	-0.190788	1.119300	0.996338
	H343	H	-0.189485	1.132526	0.978536
	H344	H	-0.196694	1.129070	0.966250
	O345	O	0.058316	1.000243	1.058712
	H346	H	0.075231	1.003833	1.074716
	H347	H	0.042850	0.999928	1.045086
	O348	O	0.825856	0.183317	0.825969
	H349	H	0.865852	0.187826	0.816559
	H350	H	0.810340	0.165507	0.805489
	O351	O	0.175594	-0.158732	-0.054363
	H352	H	0.173921	-0.157993	-0.048195
	H353	H	0.179004	-0.165423	-0.071035
	O354	O	1.142250	1.082791	0.082842
	H355	H	1.151823	1.070595	0.085541
	H356	H	1.133026	1.094626	0.072888
	O357	O	-0.156673	1.023390	0.014015
	H358	H	-0.146846	1.034909	0.027649
	H359	H	-0.161302	1.021292	0.015092
	O360	O	0.954074	0.182178	1.036204
	H361	H	0.948474	0.195646	1.018664
	H362	H	0.962304	0.178750	1.027056
	O363	O	-0.150405	-0.037537	0.010858
	H364	H	-0.163168	-0.035751	0.036516
	H365	H	-0.154046	-0.063705	0.022032
	O366	O	-0.095738	0.997406	0.131201
	H367	H	-0.087963	1.004078	0.137371
	H368	H	-0.091055	1.005853	0.098155
	O369	O	0.543612	0.308349	0.315025
	H370	H	0.553898	0.291333	0.300387
	H371	H	0.571325	0.308329	0.321300
	O372	O	0.418691	0.568867	0.339829
	H373	H	0.427671	0.565640	0.326542
	H374	H	0.420555	0.558239	0.356856
	O375	O	0.580752	0.410329	0.346492
	H376	H	0.594339	0.431897	0.335759
	H377	H	0.584383	0.414471	0.351336
	O378	O	0.528836	0.374568	0.704524
	H379	H	0.540838	0.355503	0.710065
	H380	H	0.536936	0.381412	0.688885
	O381	O	0.515972	0.410068	0.494597
	H382	H	0.506548	0.416750	0.488778
	H383	H	0.516116	0.404204	0.502505
	O384	O	-0.114110	0.864830	1.164483
	H385	H	-0.111666	0.863693	1.175549
	H386	H	-0.122755	0.878836	1.164532
	O387	O	1.572624	0.316996	-0.400903
	H388	H	1.568248	0.323402	-0.413029
	H389	H	1.578700	0.325411	-0.422004
	O390	O	0.596340	0.560243	0.639719
	H391	H	0.596529	0.554793	0.648009
	H392	H	0.578394	0.560324	0.655813
	O393	O	1.037741	-0.148570	1.087170
	H394	H	1.033427	-0.160529	1.080740
	H395	H	1.042748	-0.149658	1.078633
	O396	O	0.280600	0.500460	0.453531
	H397	H	0.291072	0.509856	0.452425
	H398	H	0.271447	0.520638	0.428428
	O399	O	0.295905	0.453603	0.539341
	H400	H	0.270091	0.454851	0.519254
	H401	H	0.299619	0.465759	0.529560
	O402	O	0.980520	0.202342	0.867268
	H403	H	0.995258	0.185838	0.862747
	H404	H	0.990199	0.208671	0.848890
	O405	O	0.354470	-0.662048	0.685731
	H406	H	0.385292	-0.669782	0.698134
	H407	H	0.342124	-0.671075	0.646373
	O408	O	1.145857	0.898923	0.824401
	H409	H	1.141194	0.904544	0.819953
	H410	H	1.132679	0.889655	0.835598
	O411	O	0.378850	0.365717	0.372646
	H412	H	0.375740	0.371693	0.384234
	H413	H	0.390399	0.352365	0.358612
	O414	O	0.176389	-0.048434	1.053336
	H415	H	0.179561	-0.051553	1.039527
	H416	H	0.180236	-0.046175	1.057383
	O417	O	0.355272	0.430071	0.462838
	H418	H	0.363638	0.422321	0.453740
	H419	H	0.351444	0.438429	0.457912
	O420	O	0.642210	1.525694	-0.494001
	H421	H	0.644010	1.536590	-0.490864
	H422	H	0.627852	1.532855	-0.500737
	O423	O	0.788547	0.060657	-0.124733
	H424	H	0.766642	0.050118	-0.143378
	H425	H	0.784556	0.057204	-0.115431
	O426	O	-0.099287	-0.001833	1.147457
	H427	H	-0.115990	-0.006318	1.153910
	H428	H	-0.110143	0.009297	1.133297
	O429	O	0.536938	0.703942	0.453130
	H430	H	0.556565	0.706117	0.458310
	H431	H	0.522680	0.704308	0.472107
