data_Molecule from HDF5

_cell_length_a		16.291148
_cell_length_b		16.321480
_cell_length_c		16.364864
_cell_angle_alpha	89.922875
_cell_angle_beta	90.037601
_cell_angle_gamma	90.001613
_symmetry_space_group_name_H-M	'P 1'
_symmetry_Int_Tables_number		1

loop_
	_symmetry_equiv_pos_as_xyz
	x,y,z

loop_
	_atom_site_label
	_atom_site_type_symbol
	_atom_site_fract_x
	_atom_site_fract_y
	_atom_site_fract_z
	H0	H	0.401541	0.836943	0.715389
	H1	H	0.598369	0.163785	0.714507
	H2	H	0.599896	0.836949	0.284339
	H3	H	0.402618	0.163592	0.285628
	H4	H	0.714531	0.402191	0.836986
	H5	H	0.714190	0.597707	0.163747
	H6	H	0.284602	0.598915	0.837057
	H7	H	0.287056	0.404039	0.163798
	H8	H	0.835573	0.713078	0.403746
	H9	H	0.164520	0.713720	0.597411
	H10	H	0.836579	0.285034	0.598806
	H11	H	0.163818	0.286701	0.403886
	H12	H	0.835788	0.401537	0.714460
	H13	H	0.162954	0.598384	0.714951
	H14	H	0.836173	0.599584	0.284624
	H15	H	0.162571	0.400284	0.284746
	H16	H	0.402217	0.714828	0.836268
	H17	H	0.597854	0.714377	0.162765
	H18	H	0.597519	0.285471	0.836643
	H19	H	0.401595	0.284912	0.163149
	H20	H	0.714025	0.836170	0.402970
	H21	H	0.714486	0.163706	0.596915
	H22	H	0.286721	0.836480	0.597209
	H23	H	0.285973	0.163360	0.401748
	H24	H	0.901691	0.336689	0.215287
	H25	H	0.097706	0.663244	0.214757
	H26	H	0.098023	0.336445	0.786018
	H27	H	0.900401	0.663046	0.784311
	H28	H	0.213452	0.903371	0.336276
	H29	H	0.215895	0.098270	0.662774
	H30	H	0.786601	0.097091	0.335990
	H31	H	0.786390	0.902583	0.663318
	H32	H	0.335413	0.213250	0.903308
	H33	H	0.664517	0.212892	0.096462
	H34	H	0.335827	0.787356	0.096523
	H35	H	0.663982	0.785977	0.902342
	H36	H	0.336305	0.903037	0.213491
	H37	H	0.663351	0.098487	0.214429
	H38	H	0.335920	0.097969	0.785400
	H39	H	0.664069	0.902394	0.786210
	H40	H	0.901648	0.215474	0.337444
	H41	H	0.097738	0.213196	0.663474
	H42	H	0.098067	0.785283	0.337398
	H43	H	0.902584	0.785635	0.663343
	H44	H	0.213513	0.336595	0.903343
	H45	H	0.213154	0.664277	0.096925
	H46	H	0.785462	0.336441	0.098864
	H47	H	0.786676	0.663649	0.903399
	H48	H	0.407933	0.114460	0.587584
	H49	H	0.593147	0.882986	0.597940
	H50	H	0.591325	0.116851	0.401056
	H51	H	0.401890	0.879877	0.399068
	H52	H	0.594498	0.400481	0.118029
	H53	H	0.585640	0.589660	0.887569
	H54	H	0.403182	0.595299	0.116554
	H55	H	0.409333	0.409801	0.885917
	H56	H	0.118219	0.598870	0.405696
	H57	H	0.884287	0.593561	0.590606
	H58	H	0.117369	0.411198	0.603337
	H59	H	0.885657	0.406924	0.414418
	H60	H	0.118847	0.396843	0.592906
	H61	H	0.883569	0.591458	0.594645
	H62	H	0.114253	0.591661	0.411907
	H63	H	0.884760	0.413716	0.403895
	H64	H	0.406708	0.590115	0.114445
	H65	H	0.593992	0.601365	0.881580
	H66	H	0.597727	0.409261	0.116151
	H67	H	0.407115	0.401862	0.883180
	H68	H	0.589537	0.113831	0.409993
	H69	H	0.590079	0.885297	0.592217
	H70	H	0.401918	0.118611	0.594890
	H71	H	0.416910	0.886558	0.404692
	H72	H	0.905644	0.616787	0.095817
	H73	H	0.097619	0.383213	0.092377
	H74	H	0.091975	0.614244	0.912692
	H75	H	0.899922	0.382769	0.911869
	H76	H	0.091704	0.900726	0.616660
	H77	H	0.087674	0.089044	0.387404
	H78	H	0.897641	0.089933	0.616499
	H79	H	0.905233	0.910359	0.384333
	H80	H	0.610867	0.082727	0.912213
	H81	H	0.381679	0.097800	0.093717
	H82	H	0.610193	0.920585	0.085170
	H83	H	0.384989	0.907767	0.908225
	H84	H	0.620625	0.907518	0.108605
	H85	H	0.386019	0.091112	0.089095
	H86	H	0.619848	0.092516	0.892480
	H87	H	0.383532	0.908444	0.903726
	H88	H	0.912773	0.086786	0.612943
	H89	H	0.091701	0.101291	0.382959
	H90	H	0.100134	0.907176	0.617056
	H91	H	0.910717	0.903748	0.385481
	H92	H	0.096161	0.617813	0.904354
	H93	H	0.092188	0.383104	0.098198
	H94	H	0.910531	0.615169	0.093655
	H95	H	0.906287	0.381233	0.898662
	H96	H	0.411858	0.115295	0.596845
	H97	H	0.597087	0.883708	0.592051
	H98	H	0.598520	0.116474	0.407204
	H99	H	0.403044	0.885387	0.415236
	H100	H	0.588899	0.407203	0.113946
	H101	H	0.600959	0.587593	0.884261
	H102	H	0.410053	0.595849	0.115190
	H103	H	0.401511	0.408047	0.883606
	H104	H	0.116500	0.589617	0.402064
	H105	H	0.882932	0.595630	0.593984
	H106	H	0.112055	0.412225	0.586341
	H107	H	0.881265	0.401690	0.403619
	H108	H	0.905581	0.615664	0.090425
	H109	H	0.089934	0.385780	0.091655
	H110	H	0.086235	0.614553	0.903709
	H111	H	0.913686	0.387085	0.909989
	H112	H	0.090712	0.910805	0.613586
	H113	H	0.100226	0.091142	0.382976
	H114	H	0.908695	0.101614	0.617778
	H115	H	0.902942	0.902722	0.381645
	H116	H	0.617429	0.105396	0.912382
	H117	H	0.383354	0.089829	0.097751
	H118	H	0.617707	0.892590	0.084143
	H119	H	0.383388	0.903997	0.905961
	C120	C	0.378839	0.008259	0.621358
	C121	C	0.621867	0.992383	0.621578
	C122	C	0.621569	0.007749	0.378175
	C123	C	0.379332	0.991999	0.378388
	C124	C	0.621643	0.378064	0.008164
	C125	C	0.621792	0.621477	0.992287
	C126	C	0.378123	0.621909	0.007495
	C127	C	0.378411	0.378518	0.992058
	C128	C	0.007919	0.621713	0.378331
	C129	C	0.991975	0.621533	0.621418
	C130	C	0.007924	0.378244	0.622410
	C131	C	0.991682	0.378738	0.379111
	C132	C	0.878666	0.507878	0.121834
	C133	C	0.121638	0.491774	0.122332
	C134	C	0.120740	0.507993	0.878525
	C135	C	0.878165	0.491775	0.878423
	C136	C	0.121918	0.878321	0.508166
	C137	C	0.122162	0.122034	0.492034
	C138	C	0.878036	0.121391	0.508009
	C139	C	0.878330	0.877739	0.491597
	C140	C	0.507778	0.121621	0.877993
	C141	C	0.492177	0.120977	0.121177
	C142	C	0.507899	0.878773	0.121047
	C143	C	0.492105	0.878716	0.878219
	C144	C	0.381135	0.885360	0.676730
	C145	C	0.618894	0.115116	0.676032
	C146	C	0.619487	0.885259	0.323183
	C147	C	0.381767	0.114936	0.323287
	C148	C	0.676522	0.381260	0.885310
	C149	C	0.676616	0.618495	0.114737
	C150	C	0.322820	0.619435	0.885259
	C151	C	0.324175	0.382286	0.115009
	C152	C	0.884449	0.675717	0.382292
	C153	C	0.115148	0.676108	0.618469
	C154	C	0.884969	0.323219	0.619349
	C155	C	0.114877	0.324145	0.382366
	C156	C	0.884733	0.381064	0.676860
	C157	C	0.114599	0.618686	0.676617
	C158	C	0.884895	0.619325	0.323222
	C159	C	0.114426	0.381247	0.323857
	C160	C	0.380882	0.677158	0.885150
	C161	C	0.618832	0.676222	0.114412
	C162	C	0.618615	0.323410	0.885262
	C163	C	0.381402	0.323466	0.114724
	C164	C	0.676078	0.884704	0.381979
	C165	C	0.676489	0.115202	0.617842
	C166	C	0.324241	0.885060	0.618157
	C167	C	0.324035	0.114829	0.381145
	C168	C	0.881276	0.385262	0.177111
	C169	C	0.118703	0.614675	0.176944
	C170	C	0.118647	0.385160	0.823864
	C171	C	0.880491	0.614492	0.823088
	C172	C	0.176208	0.881737	0.385226
	C173	C	0.177416	0.118527	0.614264
	C174	C	0.823928	0.118512	0.384999
	C175	C	0.824199	0.881642	0.614643
	C176	C	0.384542	0.176165	0.881459
	C177	C	0.615334	0.175528	0.117686
	C178	C	0.384872	0.824253	0.118118
	C179	C	0.615242	0.823868	0.881483
	C180	C	0.385140	0.882046	0.175875
	C181	C	0.614956	0.118721	0.176123
	C182	C	0.384473	0.118596	0.823330
	C183	C	0.615347	0.881572	0.823777
	C184	C	0.880750	0.177387	0.385759
	C185	C	0.119038	0.175923	0.614766
	C186	C	0.118756	0.823522	0.385593
	C187	C	0.881667	0.823345	0.614768
	C188	C	0.175667	0.385112	0.882394
	C189	C	0.175774	0.615369	0.118322
	C190	C	0.823575	0.385110	0.119287
	C191	C	0.823753	0.614812	0.881771
	C192	C	0.400777	0.093839	0.599567
	C193	C	0.599881	0.906210	0.600353
	C194	C	0.599511	0.093555	0.399709
	C195	C	0.400935	0.906076	0.400167
	C196	C	0.600220	0.399423	0.093726
	C197	C	0.599868	0.599446	0.906477
	C198	C	0.400093	0.600221	0.093343
	C199	C	0.399718	0.400183	0.906446
	C200	C	0.094086	0.599885	0.400080
	C201	C	0.905684	0.599907	0.599559
	C202	C	0.093821	0.400119	0.600680
	C203	C	0.906017	0.400819	0.400975
	C204	C	0.900656	0.593634	0.099891
	C205	C	0.099871	0.406221	0.100569
	C206	C	0.098218	0.593390	0.900687
	C207	C	0.900183	0.405802	0.900361
	C208	C	0.100483	0.899777	0.593620
	C209	C	0.099763	0.100369	0.406540
	C210	C	0.899875	0.099318	0.593636
	C211	C	0.899803	0.899153	0.405971
	C212	C	0.593656	0.099810	0.899392
	C213	C	0.405853	0.099259	0.099699
	C214	C	0.594005	0.900513	0.099012
	C215	C	0.406189	0.900347	0.899503
	Zn216	Zn	0.499957	0.000009	0.749984
	Zn217	Zn	0.500482	-0.000250	0.249662
	Zn218	Zn	0.750479	0.499874	0.000020
	Zn219	Zn	0.249331	0.500495	0.000103
	Zn220	Zn	0.000319	0.749800	0.499902
	Zn221	Zn	-0.000238	0.249938	0.500721
	Zn222	Zn	-0.000730	0.500010	0.749748
	Zn223	Zn	-0.000327	0.500266	0.250442
	Zn224	Zn	0.500019	0.750398	-0.000306
	Zn225	Zn	0.500114	0.249480	-0.000086
	Zn226	Zn	0.750068	-0.000070	0.499864
	Zn227	Zn	0.250612	-0.000019	0.499545
	N228	N	0.414222	0.962845	0.678893
	N229	N	0.585663	0.037745	0.678389
	N230	N	0.586196	0.962745	0.320911
	N231	N	0.415321	0.037569	0.321479
	N232	N	0.678589	0.414556	0.962573
	N233	N	0.678274	0.584946	0.037685
	N234	N	0.321116	0.585756	0.962408
	N235	N	0.322219	0.415877	0.037939
	N236	N	0.961875	0.677353	0.415840
	N237	N	0.037712	0.677688	0.584589
	N238	N	0.962287	0.321675	0.585973
	N239	N	0.037567	0.322523	0.416182
	N240	N	0.962221	0.414590	0.678796
	N241	N	0.036945	0.585721	0.678557
	N242	N	0.962725	0.586547	0.320807
	N243	N	0.036840	0.414340	0.321671
	N244	N	0.414518	0.678658	0.962226
	N245	N	0.585689	0.678511	0.037127
	N246	N	0.585137	0.321422	0.962430
	N247	N	0.414283	0.320957	0.037326
	N248	N	0.677494	0.961784	0.415459
	N249	N	0.678220	0.037764	0.584679
	N250	N	0.322595	0.962419	0.584515
	N251	N	0.322372	0.037458	0.414487
	N252	N	0.914571	0.462693	0.178888
	N253	N	0.085811	0.537108	0.179560
	N254	N	0.085280	0.462516	0.821366
	N255	N	0.913641	0.536877	0.821141
	N256	N	0.178109	0.915269	0.462211
	N257	N	0.179440	0.085914	0.536824
	N258	N	0.822314	0.084426	0.461894
	N259	N	0.822105	0.914690	0.537224
	N260	N	0.462068	0.178092	0.914663
	N261	N	0.537741	0.177182	0.084419
	N262	N	0.462204	0.822388	0.084469
	N263	N	0.537610	0.821983	0.914698
	N264	N	0.462799	0.914937	0.177862
	N265	N	0.537345	0.085626	0.178367
	N266	N	0.462041	0.085208	0.821206
	N267	N	0.537812	0.914679	0.821568
	N268	N	0.913901	0.179094	0.463173
	N269	N	0.085252	0.178063	0.537788
	N270	N	0.085757	0.821192	0.462964
	N271	N	0.914738	0.820898	0.537427
	N272	N	0.177283	0.462524	0.915551
	N273	N	0.177756	0.537968	0.085077
	N274	N	0.822048	0.462312	0.085357
	N275	N	0.822307	0.537535	0.915404
