data_Molecule from HDF5

_cell_length_a		16.283647
_cell_length_b		16.227704
_cell_length_c		16.324993
_cell_angle_alpha	90.425473
_cell_angle_beta	90.256867
_cell_angle_gamma	89.774252
_symmetry_space_group_name_H-M	'P 1'
_symmetry_Int_Tables_number		1

loop_
	_symmetry_equiv_pos_as_xyz
	x,y,z

loop_
	_atom_site_label
	_atom_site_type_symbol
	_atom_site_fract_x
	_atom_site_fract_y
	_atom_site_fract_z
	H0	H	0.408393	0.836825	0.716750
	H1	H	0.605801	0.164314	0.720567
	H2	H	0.606183	0.836685	0.287857
	H3	H	0.406276	0.165301	0.290621
	H4	H	0.720822	0.399808	0.840323
	H5	H	0.722803	0.600852	0.166414
	H6	H	0.289824	0.598933	0.841545
	H7	H	0.291280	0.400330	0.166710
	H8	H	0.842221	0.713531	0.406056
	H9	H	0.169126	0.713941	0.604878
	H10	H	0.842188	0.287539	0.599487
	H11	H	0.169128	0.282116	0.403392
	H12	H	0.843087	0.400696	0.718099
	H13	H	0.168784	0.600358	0.721114
	H14	H	0.843429	0.599512	0.287519
	H15	H	0.169386	0.397174	0.287095
	H16	H	0.408952	0.712236	0.839963
	H17	H	0.606673	0.716728	0.167074
	H18	H	0.606297	0.282245	0.840900
	H19	H	0.409264	0.287439	0.167908
	H20	H	0.720264	0.835664	0.405724
	H21	H	0.721393	0.164175	0.604671
	H22	H	0.294130	0.836096	0.599403
	H23	H	0.288096	0.163235	0.403872
	H24	H	0.907186	0.335815	0.217307
	H25	H	0.107598	0.661795	0.222885
	H26	H	0.106281	0.336195	0.788108
	H27	H	0.905217	0.663588	0.789627
	H28	H	0.220756	0.899012	0.341081
	H29	H	0.221701	0.099647	0.666615
	H30	H	0.789886	0.097202	0.340778
	H31	H	0.792063	0.901092	0.667205
	H32	H	0.343114	0.215115	0.906179
	H33	H	0.671319	0.214602	0.103251
	H34	H	0.342802	0.788281	0.099616
	H35	H	0.670421	0.786018	0.905830
	H36	H	0.343695	0.901614	0.218877
	H37	H	0.670082	0.100262	0.220880
	H38	H	0.343893	0.101617	0.788050
	H39	H	0.669974	0.901048	0.789013
	H40	H	0.905692	0.212972	0.340003
	H41	H	0.105521	0.215871	0.666527
	H42	H	0.105739	0.781036	0.341730
	H43	H	0.908610	0.785988	0.667825
	H44	H	0.221392	0.335845	0.905372
	H45	H	0.221002	0.663290	0.105667
	H46	H	0.793072	0.335813	0.100196
	H47	H	0.791087	0.663258	0.904978
	H48	H	0.413498	0.117241	0.595143
	H49	H	0.599544	0.884187	0.596701
	H50	H	0.603374	0.118495	0.411305
	H51	H	0.408646	0.880671	0.404761
	H52	H	0.608892	0.407734	0.121746
	H53	H	0.594883	0.586024	0.890966
	H54	H	0.418843	0.592901	0.118283
	H55	H	0.409955	0.407314	0.886832
	H56	H	0.118494	0.588604	0.421197
	H57	H	0.885819	0.597125	0.602275
	H58	H	0.124474	0.405528	0.601370
	H59	H	0.890456	0.417468	0.400307
	H60	H	0.121936	0.404375	0.592037
	H61	H	0.890499	0.596397	0.590920
	H62	H	0.121225	0.583237	0.406859
	H63	H	0.885619	0.395185	0.404031
	H64	H	0.414280	0.600352	0.121778
	H65	H	0.596063	0.600042	0.886947
	H66	H	0.598767	0.417302	0.116517
	H67	H	0.415522	0.412403	0.890511
	H68	H	0.593862	0.116741	0.409129
	H69	H	0.599916	0.883954	0.595515
	H70	H	0.412116	0.118182	0.596696
	H71	H	0.421820	0.886140	0.406808
	H72	H	0.908853	0.618436	0.096703
	H73	H	0.105174	0.381553	0.095197
	H74	H	0.089065	0.616482	0.903001
	H75	H	0.903726	0.380956	0.913991
	H76	H	0.096110	0.905016	0.620402
	H77	H	0.100498	0.090723	0.387227
	H78	H	0.915369	0.092216	0.619261
	H79	H	0.911342	0.907103	0.388355
	H80	H	0.622512	0.088038	0.910082
	H81	H	0.388135	0.097129	0.102789
	H82	H	0.620674	0.918798	0.098333
	H83	H	0.390312	0.904657	0.911978
	H84	H	0.627227	0.902891	0.104855
	H85	H	0.391069	0.098349	0.091504
	H86	H	0.624058	0.093941	0.910140
	H87	H	0.390330	0.911272	0.909253
	H88	H	0.914501	0.096457	0.620613
	H89	H	0.096319	0.087349	0.389190
	H90	H	0.104334	0.903825	0.622459
	H91	H	0.915994	0.908344	0.390224
	H92	H	0.097201	0.613349	0.924143
	H93	H	0.096262	0.381441	0.099595
	H94	H	0.918402	0.616274	0.101311
	H95	H	0.916059	0.379576	0.897560
	H96	H	0.414303	0.117216	0.597566
	H97	H	0.600185	0.883481	0.595804
	H98	H	0.596716	0.114956	0.418231
	H99	H	0.412787	0.885543	0.417625
	H100	H	0.594618	0.402649	0.119265
	H101	H	0.607944	0.592022	0.885936
	H102	H	0.409931	0.591854	0.121037
	H103	H	0.417049	0.404449	0.888669
	H104	H	0.125581	0.597919	0.410761
	H105	H	0.890860	0.586072	0.597872
	H106	H	0.120959	0.413199	0.596631
	H107	H	0.894343	0.408622	0.421205
	H108	H	0.917072	0.613593	0.091109
	H109	H	0.097153	0.385084	0.089578
	H110	H	0.110813	0.621609	0.906793
	H111	H	0.923423	0.387441	0.915819
	H112	H	0.101947	0.911580	0.618567
	H113	H	0.094368	0.092545	0.387546
	H114	H	0.911253	0.093502	0.619616
	H115	H	0.914451	0.904102	0.388428
	H116	H	0.621721	0.091709	0.915448
	H117	H	0.392845	0.088606	0.097447
	H118	H	0.621804	0.903843	0.087790
	H119	H	0.388495	0.905475	0.904818
	C120	C	0.385234	0.009106	0.624390
	C121	C	0.628348	0.992319	0.625569
	C122	C	0.627496	0.008629	0.383064
	C123	C	0.384166	0.992091	0.381252
	C124	C	0.629344	0.378672	0.011916
	C125	C	0.628908	0.622475	0.995411
	C126	C	0.385067	0.622582	0.012529
	C127	C	0.385962	0.379304	0.996349
	C128	C	0.014193	0.619779	0.383299
	C129	C	0.997171	0.621818	0.626380
	C130	C	0.014624	0.379166	0.624759
	C131	C	0.998220	0.377295	0.380470
	C132	C	0.885792	0.507900	0.124218
	C133	C	0.128463	0.490928	0.125445
	C134	C	0.128046	0.508515	0.882538
	C135	C	0.884860	0.491229	0.881322
	C136	C	0.128814	0.877413	0.512508
	C137	C	0.126940	0.120447	0.495076
	C138	C	0.883793	0.121853	0.512084
	C139	C	0.885389	0.878418	0.496462
	C140	C	0.515095	0.121740	0.882820
	C141	C	0.498531	0.123437	0.126744
	C142	C	0.514989	0.880316	0.124847
	C143	C	0.497826	0.878185	0.880728
	C144	C	0.388026	0.885769	0.678853
	C145	C	0.626070	0.115359	0.682054
	C146	C	0.626233	0.885398	0.326507
	C147	C	0.385762	0.115613	0.327022
	C148	C	0.683420	0.379756	0.889051
	C149	C	0.684663	0.621055	0.118019
	C150	C	0.328588	0.619456	0.889959
	C151	C	0.330035	0.381089	0.118594
	C152	C	0.891369	0.675987	0.385263
	C153	C	0.120272	0.676085	0.624418
	C154	C	0.891227	0.324709	0.620685
	C155	C	0.120427	0.320531	0.383094
	C156	C	0.891540	0.381376	0.679219
	C157	C	0.119918	0.619703	0.682327
	C158	C	0.891984	0.619354	0.326226
	C159	C	0.120614	0.377730	0.325263
	C160	C	0.387568	0.675871	0.889182
	C161	C	0.626715	0.678715	0.118303
	C162	C	0.626725	0.321174	0.889531
	C163	C	0.388820	0.324829	0.118973
	C164	C	0.683165	0.885044	0.384807
	C165	C	0.683576	0.115276	0.624580
	C166	C	0.331153	0.885428	0.620793
	C167	C	0.327023	0.115120	0.383474
	C168	C	0.887361	0.384805	0.179292
	C169	C	0.126961	0.613552	0.183343
	C170	C	0.126129	0.385123	0.826533
	C171	C	0.885927	0.614442	0.827011
	C172	C	0.183432	0.878346	0.389914
	C173	C	0.183625	0.119699	0.617846
	C174	C	0.827734	0.118422	0.389396
	C175	C	0.830032	0.881219	0.618765
	C176	C	0.392195	0.177620	0.885215
	C177	C	0.621799	0.177908	0.124223
	C178	C	0.391675	0.825741	0.120849
	C179	C	0.621196	0.823216	0.884502
	C180	C	0.392167	0.882073	0.179923
	C181	C	0.621217	0.121118	0.182672
	C182	C	0.392536	0.121064	0.826697
	C183	C	0.621003	0.880564	0.826526
	C184	C	0.885301	0.175932	0.389006
	C185	C	0.125732	0.177210	0.618000
	C186	C	0.126206	0.819954	0.390266
	C187	C	0.888056	0.823875	0.619081
	C188	C	0.183787	0.384990	0.884283
	C189	C	0.183479	0.614249	0.125031
	C190	C	0.830740	0.384686	0.121038
	C191	C	0.829011	0.614436	0.884414
	C192	C	0.406652	0.095277	0.602881
	C193	C	0.606471	0.905955	0.602632
	C194	C	0.604653	0.094506	0.406034
	C195	C	0.407349	0.906445	0.403404
	C196	C	0.607334	0.402284	0.097146
	C197	C	0.606277	0.599423	0.910020
	C198	C	0.407704	0.601346	0.098054
	C199	C	0.407775	0.401552	0.910756
	C200	C	0.099860	0.596705	0.406226
	C201	C	0.911283	0.599676	0.603714
	C202	C	0.100393	0.401209	0.602973
	C203	C	0.912141	0.400250	0.402068
	C204	C	0.908132	0.593719	0.102646
	C205	C	0.106086	0.405031	0.101863
	C206	C	0.105674	0.594713	0.904797
	C207	C	0.907681	0.405067	0.903039
	C208	C	0.107181	0.900177	0.598304
	C209	C	0.103865	0.096979	0.410173
	C210	C	0.907015	0.100329	0.597678
	C211	C	0.907649	0.900027	0.410922
	C212	C	0.600807	0.098298	0.905355
	C213	C	0.412698	0.101412	0.104039
	C214	C	0.600761	0.902195	0.103463
	C215	C	0.411828	0.900565	0.902368
	Zn216	Zn	0.506378	0.000771	0.753132
	Zn217	Zn	0.506413	0.001149	0.254015
	Zn218	Zn	0.757766	0.500186	0.003025
	Zn219	Zn	0.256662	0.500426	0.004468
	Zn220	Zn	0.006025	0.749027	0.504747
	Zn221	Zn	0.005988	0.250022	0.503356
	Zn222	Zn	0.006053	0.500311	0.754130
	Zn223	Zn	0.006967	0.499241	0.252765
	Zn224	Zn	0.506670	0.751109	0.003370
	Zn225	Zn	0.507219	0.250591	0.004083
	Zn226	Zn	0.756156	0.000128	0.504230
	Zn227	Zn	0.256350	-0.000151	0.503199
	N228	N	0.421023	0.963689	0.681150
	N229	N	0.592461	0.037622	0.682870
	N230	N	0.592580	0.963121	0.325248
	N231	N	0.420473	0.038196	0.325579
	N232	N	0.685408	0.414434	0.966132
	N233	N	0.686045	0.586658	0.040704
	N234	N	0.326675	0.587162	0.967597
	N235	N	0.328134	0.414305	0.041333
	N236	N	0.968382	0.676277	0.420206
	N237	N	0.042943	0.677373	0.590185
	N238	N	0.968727	0.323301	0.587332
	N239	N	0.043162	0.320216	0.416738
	N240	N	0.969216	0.414269	0.682063
	N241	N	0.042177	0.586845	0.684010
	N242	N	0.969324	0.584987	0.325149
	N243	N	0.043422	0.412382	0.323684
	N244	N	0.421933	0.677959	0.966336
	N245	N	0.592747	0.679775	0.041072
	N246	N	0.593794	0.320274	0.966886
	N247	N	0.422648	0.323554	0.041896
	N248	N	0.684158	0.962712	0.419367
	N249	N	0.684741	0.037749	0.590140
	N250	N	0.329410	0.963117	0.587514
	N251	N	0.325975	0.037403	0.416572
	N252	N	0.920926	0.462520	0.181449
	N253	N	0.093727	0.535764	0.183838
	N254	N	0.092096	0.462935	0.825431
	N255	N	0.920051	0.536698	0.824981
	N256	N	0.185148	0.913178	0.466984
	N257	N	0.184424	0.085127	0.540574
	N258	N	0.826704	0.085715	0.466777
	N259	N	0.828290	0.914380	0.541355
	N260	N	0.469445	0.177926	0.919636
	N261	N	0.544396	0.179199	0.089802
	N262	N	0.469052	0.824472	0.087146
	N263	N	0.543504	0.821612	0.917290
	N264	N	0.469708	0.915193	0.182381
	N265	N	0.543580	0.088090	0.184244
	N266	N	0.470048	0.087259	0.824873
	N267	N	0.543354	0.914164	0.824108
	N268	N	0.919250	0.178489	0.466414
	N269	N	0.091140	0.177999	0.541040
	N270	N	0.093023	0.819021	0.467617
	N271	N	0.921706	0.822000	0.542062
	N272	N	0.185046	0.462573	0.918439
	N273	N	0.184373	0.536980	0.089766
	N274	N	0.829596	0.462188	0.087710
	N275	N	0.828323	0.536909	0.917364
	O276	O	-0.020453	0.099216	0.046603
	H277	H	-0.023421	0.103775	0.036523
	H278	H	-0.010702	0.093631	0.060805
	O279	O	0.489806	0.529023	0.432469
	H280	H	0.489428	0.527537	0.421516
	H281	H	0.481596	0.521151	0.430828
	O282	O	0.506517	0.523104	0.409610
	H283	H	0.503838	0.515365	0.399546
	H284	H	0.511309	0.511232	0.402417
	O285	O	0.965618	-0.061001	0.998039
	H286	H	0.956300	-0.061034	0.992874
	H287	H	0.965493	-0.066534	1.000618
	O288	O	1.025790	-0.084342	0.046455
	H289	H	1.039090	-0.076952	0.058630
	H290	H	1.027965	-0.084489	0.037343
	O291	O	0.551121	0.549496	0.519703
	H292	H	0.549374	0.548113	0.521663
	H293	H	0.559762	0.552876	0.523809
	O294	O	0.990959	-0.020989	1.016830
	H295	H	1.003454	-0.026654	1.017785
	H296	H	0.982086	-0.032467	1.018645
	O297	O	0.014341	-0.017071	-0.014544
	H298	H	0.015098	-0.003885	-0.011593
	H299	H	0.011508	-0.029567	-0.012031
	O300	O	0.543569	0.509789	0.599279
	H301	H	0.530536	0.506158	0.605097
	H302	H	0.548328	0.506984	0.609009
	O303	O	0.429979	0.549689	0.524283
	H304	H	0.433653	0.543212	0.523177
	H305	H	0.427226	0.558459	0.530963
	O306	O	0.975273	0.024460	0.008957
	H307	H	0.965783	0.030085	-0.000991
	H308	H	0.975141	0.025243	0.010619
	O309	O	-0.018110	-0.002571	0.987250
	H310	H	-0.012122	0.001144	0.984707
	H311	H	-0.018900	-0.003243	0.979419
	O312	O	0.987231	1.011630	0.954634
	H313	H	0.977942	1.015795	0.940622
	H314	H	0.982322	1.002776	0.955033
	O315	O	0.517717	0.568888	0.561409
	H316	H	0.515104	0.568453	0.564185
	H317	H	0.527703	0.575303	0.557989
	O318	O	0.494399	0.498241	0.476488
	H319	H	0.494117	0.499570	0.469615
	H320	H	0.489857	0.512375	0.489376
	O321	O	-0.008757	1.001057	0.967880
	H322	H	-0.008017	0.992451	0.972731
	H323	H	-0.011825	0.995736	0.976623
	O324	O	0.472114	0.519588	0.443641
	H325	H	0.472089	0.518339	0.442766
	H326	H	0.464178	0.521078	0.430570
	O327	O	1.048772	0.917651	0.041064
	H328	H	1.051507	0.923748	0.048112
	H329	H	1.057173	0.918843	0.036611
	O330	O	0.499363	0.484484	0.571633
	H331	H	0.493162	0.482412	0.570033
	H332	H	0.502840	0.482094	0.562860
	O333	O	0.524100	0.435372	0.425855
	H334	H	0.528458	0.446407	0.424145
	H335	H	0.539523	0.436809	0.428437
	O336	O	0.515066	0.502575	0.545993
	H337	H	0.520160	0.494401	0.549393
	H338	H	0.501351	0.496352	0.551961
	O339	O	1.006211	0.995718	0.021628
	H340	H	1.007566	1.000716	0.030012
	H341	H	1.000565	0.999530	0.020459
	O342	O	0.512771	0.464313	0.564885
	H343	H	0.506757	0.459175	0.560312
	H344	H	0.522826	0.470936	0.559495
	O345	O	0.483697	0.492275	0.446591
	H346	H	0.482754	0.495387	0.455231
	H347	H	0.480218	0.500322	0.451402
	O348	O	0.081549	0.066098	0.034715
	H349	H	0.096948	0.072262	0.037711
	H350	H	0.070342	0.068386	0.033409
	O351	O	-0.217446	0.828521	0.751520
	H352	H	-0.220755	0.820280	0.762172
	H353	H	-0.219411	0.833545	0.754496
	O354	O	0.475482	0.462179	0.503976
	H355	H	0.477280	0.457391	0.510918
	H356	H	0.490967	0.466320	0.502698
	O357	O	-0.480665	1.455881	0.497959
	H358	H	-0.479946	1.454090	0.490041
	H359	H	-0.489398	1.447000	0.498876
