data_Molecule from HDF5

_cell_length_a		16.443455
_cell_length_b		16.245934
_cell_length_c		16.177081
_cell_angle_alpha	90.033369
_cell_angle_beta	89.711861
_cell_angle_gamma	89.433609
_symmetry_space_group_name_H-M	'P 1'
_symmetry_Int_Tables_number		1

loop_
	_symmetry_equiv_pos_as_xyz
	x,y,z

loop_
	_atom_site_label
	_atom_site_type_symbol
	_atom_site_fract_x
	_atom_site_fract_y
	_atom_site_fract_z
	H0	H	0.398063	0.839134	0.716201
	H1	H	0.590222	0.166487	0.713681
	H2	H	0.593670	0.837674	0.287650
	H3	H	0.396942	0.165947	0.287539
	H4	H	0.716309	0.399428	0.837208
	H5	H	0.711177	0.598862	0.165498
	H6	H	0.281358	0.604600	0.837403
	H7	H	0.280671	0.400548	0.163894
	H8	H	0.833500	0.720172	0.401156
	H9	H	0.157123	0.718152	0.600805
	H10	H	0.832310	0.289113	0.600662
	H11	H	0.156389	0.282342	0.399571
	H12	H	0.834446	0.403872	0.719685
	H13	H	0.158898	0.599594	0.714849
	H14	H	0.833786	0.601247	0.285657
	H15	H	0.158507	0.401175	0.286202
	H16	H	0.399080	0.716888	0.836441
	H17	H	0.593245	0.714110	0.166377
	H18	H	0.597999	0.287916	0.835622
	H19	H	0.402789	0.291273	0.166768
	H20	H	0.715437	0.840268	0.397161
	H21	H	0.708914	0.165017	0.601832
	H22	H	0.277956	0.840121	0.604921
	H23	H	0.276314	0.164554	0.398683
	H24	H	0.901287	0.336940	0.214858
	H25	H	0.094059	0.665508	0.215838
	H26	H	0.098893	0.337512	0.785805
	H27	H	0.900012	0.665702	0.789587
	H28	H	0.215560	0.897199	0.338577
	H29	H	0.210927	0.105477	0.662764
	H30	H	0.778038	0.103757	0.336634
	H31	H	0.778160	0.902041	0.664126
	H32	H	0.336484	0.222895	0.901364
	H33	H	0.660191	0.214461	0.099772
	H34	H	0.335346	0.785526	0.103172
	H35	H	0.657524	0.782811	0.897136
	H36	H	0.334189	0.903789	0.217424
	H37	H	0.658563	0.098895	0.216637
	H38	H	0.333861	0.104081	0.787335
	H39	H	0.657614	0.901928	0.783034
	H40	H	0.894390	0.218055	0.336139
	H41	H	0.089291	0.213994	0.665180
	H42	H	0.095540	0.786932	0.335820
	H43	H	0.896911	0.789195	0.665047
	H44	H	0.218426	0.339241	0.898175
	H45	H	0.213833	0.664394	0.103816
	H46	H	0.782429	0.338207	0.102915
	H47	H	0.777278	0.662011	0.896775
	H48	H	0.404589	0.116248	0.586859
	H49	H	0.583678	0.889854	0.583127
	H50	H	0.582328	0.116772	0.410028
	H51	H	0.407991	0.890134	0.419455
	H52	H	0.589057	0.417909	0.114303
	H53	H	0.586526	0.595201	0.884619
	H54	H	0.404350	0.595195	0.117923
	H55	H	0.413098	0.415851	0.887816
	H56	H	0.111254	0.598009	0.407634
	H57	H	0.879905	0.599994	0.597739
	H58	H	0.108955	0.410564	0.592111
	H59	H	0.880605	0.404515	0.413160
	H60	H	0.112693	0.404726	0.596480
	H61	H	0.882649	0.596736	0.590488
	H62	H	0.109791	0.592888	0.411032
	H63	H	0.883223	0.417669	0.410204
	H64	H	0.402584	0.591114	0.117536
	H65	H	0.594869	0.594157	0.882388
	H66	H	0.585984	0.399422	0.118175
	H67	H	0.408392	0.404965	0.882114
	H68	H	0.592870	0.118803	0.412673
	H69	H	0.599418	0.882653	0.590597
	H70	H	0.393524	0.119864	0.590728
	H71	H	0.394913	0.882747	0.409798
	H72	H	0.894394	0.620907	0.095195
	H73	H	0.091804	0.385415	0.091453
	H74	H	0.097711	0.619481	0.909386
	H75	H	0.906282	0.383572	0.908612
	H76	H	0.092081	0.913226	0.617343
	H77	H	0.089296	0.085554	0.384724
	H78	H	0.905986	0.092928	0.614654
	H79	H	0.905706	0.909252	0.384314
	H80	H	0.610677	0.089657	0.906274
	H81	H	0.380257	0.102880	0.094901
	H82	H	0.614225	0.906731	0.099650
	H83	H	0.384344	0.907781	0.920594
	H84	H	0.611200	0.903179	0.088232
	H85	H	0.384685	0.095997	0.088656
	H86	H	0.613730	0.096033	0.901872
	H87	H	0.384218	0.921259	0.906847
	H88	H	0.898296	0.102517	0.619791
	H89	H	0.079795	0.089861	0.386344
	H90	H	0.082456	0.914692	0.614967
	H91	H	0.900597	0.910765	0.382228
	H92	H	0.086906	0.618845	0.902561
	H93	H	0.092009	0.385926	0.091588
	H94	H	0.911396	0.616433	0.098283
	H95	H	0.909210	0.385398	0.909411
	H96	H	0.402075	0.120531	0.598836
	H97	H	0.583665	0.884024	0.601258
	H98	H	0.588744	0.120808	0.402221
	H99	H	0.410821	0.886006	0.402576
	H100	H	0.602933	0.406373	0.121998
	H101	H	0.590166	0.587207	0.885880
	H102	H	0.406718	0.592438	0.116254
	H103	H	0.401412	0.415501	0.883612
	H104	H	0.110736	0.591839	0.404762
	H105	H	0.881632	0.592162	0.597424
	H106	H	0.109369	0.403648	0.588705
	H107	H	0.877929	0.409308	0.400546
	H108	H	0.904615	0.614082	0.082274
	H109	H	0.091518	0.385874	0.091783
	H110	H	0.086877	0.614900	0.915067
	H111	H	0.906373	0.384942	0.911896
	H112	H	0.085240	0.905588	0.618582
	H113	H	0.087164	0.095513	0.381887
	H114	H	0.893074	0.090604	0.617845
	H115	H	0.903569	0.915090	0.385071
	H116	H	0.612281	0.096700	0.909680
	H117	H	0.381970	0.093188	0.097618
	H118	H	0.608593	0.914793	0.091719
	H119	H	0.377615	0.903922	0.902949
	C120	C	0.372673	0.011118	0.622141
	C121	C	0.615870	0.993844	0.620904
	C122	C	0.617119	0.010577	0.379084
	C123	C	0.374414	0.993858	0.380195
	C124	C	0.621265	0.379164	0.009318
	C125	C	0.618603	0.621491	0.992922
	C126	C	0.375727	0.623335	0.009181
	C127	C	0.378038	0.382271	0.992850
	C128	C	0.003678	0.624358	0.378743
	C129	C	0.988193	0.624261	0.623290
	C130	C	0.003458	0.379381	0.622465
	C131	C	0.987295	0.379291	0.378590
	C132	C	0.875494	0.509575	0.121937
	C133	C	0.119507	0.493565	0.121759
	C134	C	0.120430	0.509791	0.878797
	C135	C	0.877436	0.492502	0.880311
	C136	C	0.117252	0.880248	0.508910
	C137	C	0.114352	0.121300	0.492019
	C138	C	0.871116	0.124872	0.509024
	C139	C	0.873941	0.882043	0.492051
	C140	C	0.505212	0.124891	0.878058
	C141	C	0.488787	0.124694	0.123220
	C142	C	0.504738	0.879457	0.123370
	C143	C	0.488598	0.880655	0.879007
	C144	C	0.376625	0.888010	0.678420
	C145	C	0.611379	0.117452	0.675942
	C146	C	0.615059	0.887114	0.324231
	C147	C	0.376250	0.116814	0.324652
	C148	C	0.677287	0.380257	0.885845
	C149	C	0.673371	0.619278	0.116445
	C150	C	0.319417	0.623812	0.886356
	C151	C	0.320533	0.382056	0.115482
	C152	C	0.882067	0.681334	0.380955
	C153	C	0.109261	0.679500	0.620761
	C154	C	0.880981	0.326238	0.620973
	C155	C	0.108466	0.321146	0.379473
	C156	C	0.882141	0.383061	0.680216
	C157	C	0.110109	0.620330	0.677379
	C158	C	0.882042	0.622584	0.323357
	C159	C	0.109548	0.380287	0.323085
	C160	C	0.378570	0.679222	0.885665
	C161	C	0.614646	0.676580	0.116804
	C162	C	0.618535	0.324573	0.885270
	C163	C	0.380982	0.327471	0.116885
	C164	C	0.675241	0.888247	0.378820
	C165	C	0.670441	0.116628	0.620464
	C166	C	0.317050	0.888598	0.623020
	C167	C	0.316263	0.116116	0.379947
	C168	C	0.879445	0.386096	0.177633
	C169	C	0.115487	0.616477	0.178032
	C170	C	0.119302	0.386849	0.823037
	C171	C	0.879151	0.616135	0.825842
	C172	C	0.175774	0.878989	0.386936
	C173	C	0.171108	0.122676	0.614490
	C174	C	0.816122	0.123224	0.385533
	C175	C	0.817145	0.882767	0.615323
	C176	C	0.384369	0.183454	0.880982
	C177	C	0.611456	0.177275	0.120370
	C178	C	0.383518	0.823854	0.122829
	C179	C	0.609455	0.822526	0.878610
	C180	C	0.382987	0.882554	0.179852
	C181	C	0.610624	0.119960	0.178478
	C182	C	0.382824	0.124025	0.824452
	C183	C	0.609499	0.881719	0.821615
	C184	C	0.874188	0.179989	0.385210
	C185	C	0.110923	0.177165	0.615569
	C186	C	0.115879	0.824041	0.385603
	C187	C	0.875977	0.826619	0.615735
	C188	C	0.178986	0.387825	0.878717
	C189	C	0.174973	0.615919	0.122161
	C190	C	0.820308	0.386758	0.122226
	C191	C	0.817863	0.614063	0.878993
	C192	C	0.393852	0.096660	0.598944
	C193	C	0.595040	0.907791	0.598233
	C194	C	0.594571	0.096639	0.401712
	C195	C	0.397733	0.908337	0.403797
	C196	C	0.599265	0.401345	0.095807
	C197	C	0.597020	0.598780	0.906558
	C198	C	0.398054	0.599769	0.095123
	C199	C	0.400864	0.405484	0.906842
	C200	C	0.088621	0.601146	0.401073
	C201	C	0.903084	0.602533	0.601577
	C202	C	0.088181	0.400173	0.598976
	C203	C	0.902652	0.403304	0.401421
	C204	C	0.897098	0.594919	0.098594
	C205	C	0.098184	0.407912	0.098349
	C206	C	0.097210	0.595622	0.902142
	C207	C	0.900547	0.406863	0.903351
	C208	C	0.093479	0.904223	0.594714
	C209	C	0.091950	0.097269	0.406396
	C210	C	0.892648	0.101999	0.595067
	C211	C	0.896652	0.905147	0.406146
	C212	C	0.590307	0.101016	0.899403
	C213	C	0.404261	0.103575	0.100373
	C214	C	0.589249	0.901655	0.100004
	C215	C	0.403810	0.904093	0.903206
	Zn216	Zn	0.495527	0.002582	0.749623
	Zn217	Zn	0.495838	0.002055	0.251243
	Zn218	Zn	0.748426	0.500327	0.000550
	Zn219	Zn	0.248602	0.502185	0.000590
	Zn220	Zn	-0.004547	0.753681	0.501092
	Zn221	Zn	-0.005725	0.250247	0.500048
	Zn222	Zn	-0.002660	0.501396	0.751881
	Zn223	Zn	-0.003411	0.501479	0.249809
	Zn224	Zn	0.496888	0.750833	0.000879
	Zn225	Zn	0.498799	0.253291	0.000978
	Zn226	Zn	0.744543	0.002350	0.500882
	Zn227	Zn	0.244432	0.002016	0.500920
	N228	N	0.410364	0.965093	0.678253
	N229	N	0.578244	0.040061	0.676306
	N230	N	0.579667	0.964184	0.324424
	N231	N	0.411635	0.039666	0.324650
	N232	N	0.679091	0.413441	0.963985
	N233	N	0.675822	0.585945	0.038375
	N234	N	0.317736	0.589524	0.964138
	N235	N	0.318705	0.415326	0.037379
	N236	N	0.958715	0.682459	0.414467
	N237	N	0.032405	0.681978	0.587751
	N238	N	0.957305	0.323888	0.585667
	N239	N	0.031571	0.320364	0.412892
	N240	N	0.959267	0.415276	0.681389
	N241	N	0.033637	0.586702	0.679015
	N242	N	0.958696	0.587688	0.321887
	N243	N	0.033159	0.415709	0.322052
	N244	N	0.412606	0.679244	0.963145
	N245	N	0.581458	0.678142	0.038925
	N246	N	0.584488	0.323737	0.963042
	N247	N	0.416439	0.327920	0.039737
	N248	N	0.676761	0.966112	0.412282
	N249	N	0.673355	0.038830	0.587004
	N250	N	0.314342	0.966033	0.588786
	N251	N	0.315076	0.038545	0.413846
	N252	N	0.913001	0.463402	0.177871
	N253	N	0.081913	0.539334	0.178132
	N254	N	0.083869	0.463851	0.822855
	N255	N	0.915330	0.539572	0.826393
	N256	N	0.176902	0.913117	0.464717
	N257	N	0.173427	0.088738	0.536579
	N258	N	0.813851	0.089727	0.463646
	N259	N	0.815754	0.916631	0.537415
	N260	N	0.461446	0.183875	0.913608
	N261	N	0.534839	0.180414	0.086658
	N262	N	0.460182	0.821684	0.088425
	N263	N	0.533163	0.822125	0.913813
	N264	N	0.459218	0.916599	0.180061
	N265	N	0.533458	0.088085	0.180537
	N266	N	0.458899	0.088050	0.822684
	N267	N	0.533126	0.917135	0.821828
	N268	N	0.907390	0.181372	0.462995
	N269	N	0.076242	0.176376	0.538365
	N270	N	0.080280	0.824737	0.462789
	N271	N	0.910630	0.826123	0.538193
	N272	N	0.179728	0.465412	0.912820
	N273	N	0.177569	0.538333	0.087971
	N274	N	0.817822	0.464408	0.088288
	N275	N	0.816859	0.536145	0.912360
	O276	O	0.443754	0.600620	0.451873
	H277	H	0.447708	0.614781	0.450447
	H278	H	0.444227	0.587857	0.443940
	O279	O	0.489961	0.586747	0.372760
	H280	H	0.486588	0.584843	0.376598
	H281	H	0.475996	0.591624	0.376425
	O282	O	0.916602	1.160299	-0.095740
	H283	H	0.905800	1.167679	-0.093468
	H284	H	0.905942	1.160349	-0.104807
	O285	O	0.933506	0.154524	1.046231
	H286	H	0.937574	0.143503	1.037367
	H287	H	0.925097	0.162559	1.054312
	O288	O	0.390562	0.549205	0.501985
	H289	H	0.382488	0.549146	0.493345
	H290	H	0.393035	0.547142	0.499075
	O291	O	0.490593	0.531944	0.459857
	H292	H	0.481107	0.523398	0.463219
	H293	H	0.484430	0.533873	0.472668
	O294	O	0.491688	0.453737	0.556258
	H295	H	0.485062	0.447666	0.553881
	H296	H	0.481374	0.450894	0.554205
	O297	O	-0.029080	-0.059993	1.018848
	H298	H	-0.030904	-0.070018	1.021246
	H299	H	-0.026454	-0.072089	1.020499
	O300	O	1.043958	0.007336	1.045500
	H301	H	1.048750	-0.000067	1.032753
	H302	H	1.040666	0.005214	1.042202
	O303	O	0.952455	1.014249	0.111622
	H304	H	0.956768	1.011050	0.115718
	H305	H	0.944530	1.014196	0.118493
	O306	O	0.143890	0.997725	1.046714
	H307	H	0.142329	0.995211	1.045273
	H308	H	0.125897	1.009324	1.062373
	O309	O	0.533008	0.455049	0.525511
	H310	H	0.548142	0.449142	0.533195
	H311	H	0.529709	0.449761	0.520993
	O312	O	0.168864	-0.048325	-0.103082
	H313	H	0.185055	-0.053479	-0.114777
	H314	H	0.167041	-0.049111	-0.113092
	O315	O	1.023733	0.002574	0.040637
	H316	H	1.019779	0.001300	0.034799
	H317	H	1.029221	-0.002160	0.058539
	O318	O	1.064373	1.047096	1.032375
	H319	H	1.055364	1.050463	1.040223
	H320	H	1.074673	1.045185	1.025348
	O321	O	-0.165636	-0.157676	1.022498
	H322	H	-0.158101	-0.159794	1.025493
	H323	H	-0.165565	-0.169858	1.032865
	O324	O	0.492246	0.449488	0.433454
	H325	H	0.495892	0.450549	0.428706
	H326	H	0.493337	0.460581	0.428844
	O327	O	-0.043372	0.129710	-0.097456
	H328	H	-0.055729	0.127546	-0.096775
	H329	H	-0.041297	0.128583	-0.095927
	O330	O	0.516812	0.419441	0.468182
	H331	H	0.520798	0.420029	0.467245
	H332	H	0.520653	0.419965	0.467095
	O333	O	0.053622	0.851621	0.965940
	H334	H	0.062883	0.846814	0.973811
	H335	H	0.049007	0.853739	0.969772
	O336	O	-0.041366	0.083440	0.091219
	H337	H	-0.037817	0.089490	0.082157
	H338	H	-0.038111	0.083001	0.095922
	O339	O	0.470426	0.445342	0.554100
	H340	H	0.481380	0.426631	0.552382
	H341	H	0.461929	0.439233	0.557610
	O342	O	1.002445	0.940698	0.958223
	H343	H	1.001308	0.938419	0.948374
	H344	H	1.013655	0.949039	0.957286
	O345	O	0.931867	0.938315	0.120144
	H346	H	0.926901	0.926250	0.132779
	H347	H	0.928785	0.938990	0.121786
	O348	O	0.460751	0.537586	0.484480
	H349	H	0.459248	0.539238	0.497543
	H350	H	0.455604	0.539330	0.481102
	O351	O	0.511478	0.494721	0.501079
	H352	H	0.504418	0.501242	0.496020
	H353	H	0.516087	0.485537	0.499824
	O354	O	0.520955	0.399709	0.524807
	H355	H	0.519541	0.387566	0.518955
	H356	H	0.519645	0.409453	0.521028
	O357	O	1.046293	-0.005832	1.034132
	H358	H	1.046190	0.004363	1.020840
	H359	H	1.058476	-0.006865	1.027965
	O360	O	0.537461	0.575890	0.533749
	H361	H	0.541035	0.571635	0.534114
	H362	H	0.528665	0.570918	0.535640
	O363	O	0.988752	0.971168	-0.051472
	H364	H	0.984953	0.968991	-0.048075
	H365	H	0.986998	0.979296	-0.058321
	O366	O	1.004369	0.901080	0.843234
	H367	H	0.996909	0.900302	0.853600
	H368	H	0.996724	0.912651	0.857292
	O369	O	0.962502	0.009418	0.876376
	H370	H	0.966817	-0.000925	0.876194
	H371	H	0.951711	0.018734	0.872439
	O372	O	-0.033829	-0.041073	0.080778
	H373	H	-0.029436	-0.037351	0.083448
	H374	H	-0.026229	-0.031491	0.076517
	O375	O	0.974923	-0.042075	-0.028199
	H376	H	0.981378	-0.059083	-0.027137
	H377	H	0.977537	-0.039734	-0.032651
	O378	O	0.453502	0.554440	0.455796
	H379	H	0.460927	0.557216	0.453672
	H380	H	0.451896	0.559957	0.457152
	O381	O	0.452443	0.433355	0.517893
	H382	H	0.464487	0.442666	0.518304
	H383	H	0.456311	0.434356	0.520213
