data_Molecule from HDF5

_cell_length_a		16.170273
_cell_length_b		16.500206
_cell_length_c		16.264701
_cell_angle_alpha	89.772285
_cell_angle_beta	90.041213
_cell_angle_gamma	90.146899
_symmetry_space_group_name_H-M	'P 1'
_symmetry_Int_Tables_number		1

loop_
	_symmetry_equiv_pos_as_xyz
	x,y,z

loop_
	_atom_site_label
	_atom_site_type_symbol
	_atom_site_fract_x
	_atom_site_fract_y
	_atom_site_fract_z
	H0	H	0.400364	0.838496	0.719441
	H1	H	0.604041	0.158881	0.719833
	H2	H	0.604488	0.838160	0.283628
	H3	H	0.400761	0.159722	0.281744
	H4	H	0.715035	0.401932	0.836632
	H5	H	0.716441	0.595181	0.164515
	H6	H	0.288094	0.596645	0.836085
	H7	H	0.286122	0.399607	0.164027
	H8	H	0.838764	0.716949	0.396063
	H9	H	0.164217	0.717201	0.602715
	H10	H	0.839252	0.279481	0.605164
	H11	H	0.164798	0.282187	0.397691
	H12	H	0.837762	0.398934	0.717028
	H13	H	0.166526	0.596877	0.713111
	H14	H	0.837145	0.597264	0.286046
	H15	H	0.165139	0.400338	0.286080
	H16	H	0.397089	0.719196	0.839934
	H17	H	0.605851	0.715923	0.163090
	H18	H	0.605410	0.279329	0.839840
	H19	H	0.398281	0.279972	0.163156
	H20	H	0.718018	0.837569	0.404045
	H21	H	0.720524	0.159437	0.603322
	H22	H	0.284331	0.837854	0.603028
	H23	H	0.285062	0.160781	0.400819
	H24	H	0.898518	0.338586	0.220124
	H25	H	0.104038	0.660028	0.217817
	H26	H	0.102437	0.338719	0.782615
	H27	H	0.900581	0.660594	0.781469
	H28	H	0.217367	0.901336	0.338220
	H29	H	0.214950	0.096277	0.665606
	H30	H	0.787288	0.095728	0.337955
	H31	H	0.787448	0.898925	0.665555
	H32	H	0.338677	0.216523	0.897038
	H33	H	0.663191	0.217865	0.105555
	H34	H	0.338140	0.781175	0.102531
	H35	H	0.664110	0.782902	0.899247
	H36	H	0.337409	0.897496	0.216494
	H37	H	0.665662	0.097104	0.215294
	H38	H	0.336955	0.097453	0.786577
	H39	H	0.665492	0.900825	0.787027
	H40	H	0.897749	0.217300	0.339198
	H41	H	0.107358	0.219367	0.661553
	H42	H	0.104545	0.781980	0.338578
	H43	H	0.896661	0.777637	0.661919
	H44	H	0.218574	0.338046	0.899867
	H45	H	0.218691	0.660672	0.097725
	H46	H	0.784526	0.337816	0.101151
	H47	H	0.785138	0.660646	0.899149
	H48	H	0.404095	0.115192	0.595397
	H49	H	0.595396	0.885396	0.591034
	H50	H	0.594610	0.112767	0.408119
	H51	H	0.413469	0.887522	0.410668
	H52	H	0.595805	0.405157	0.117706
	H53	H	0.589653	0.596441	0.884148
	H54	H	0.405328	0.584725	0.115943
	H55	H	0.410168	0.404140	0.883856
	H56	H	0.116947	0.588867	0.408527
	H57	H	0.884463	0.586717	0.596017
	H58	H	0.114767	0.411850	0.589161
	H59	H	0.883956	0.400724	0.413828
	H60	H	0.118649	0.407089	0.594466
	H61	H	0.883649	0.597553	0.589416
	H62	H	0.119265	0.593323	0.409385
	H63	H	0.887607	0.411166	0.414305
	H64	H	0.419146	0.587972	0.113563
	H65	H	0.595768	0.591958	0.883729
	H66	H	0.590842	0.412018	0.113548
	H67	H	0.409839	0.406521	0.885423
	H68	H	0.593073	0.112197	0.408711
	H69	H	0.596398	0.883094	0.598960
	H70	H	0.413447	0.113890	0.598302
	H71	H	0.405941	0.885902	0.413505
	H72	H	0.912616	0.612907	0.097107
	H73	H	0.095426	0.385793	0.089851
	H74	H	0.100212	0.613532	0.912954
	H75	H	0.910183	0.384937	0.903464
	H76	H	0.098852	0.903774	0.619289
	H77	H	0.092827	0.101869	0.381797
	H78	H	0.906791	0.095451	0.620148
	H79	H	0.900618	0.906040	0.382125
	H80	H	0.617606	0.089167	0.911129
	H81	H	0.383656	0.090519	0.094169
	H82	H	0.616931	0.901601	0.086191
	H83	H	0.384220	0.903659	0.912938
	H84	H	0.616479	0.913015	0.093573
	H85	H	0.385445	0.091728	0.088371
	H86	H	0.618585	0.092133	0.911232
	H87	H	0.386991	0.909629	0.914613
	H88	H	0.912162	0.082175	0.614542
	H89	H	0.100330	0.085645	0.384389
	H90	H	0.088639	0.913688	0.613696
	H91	H	0.913825	0.916159	0.389414
	H92	H	0.098848	0.617249	0.899035
	H93	H	0.093733	0.383976	0.097418
	H94	H	0.912223	0.611342	0.088565
	H95	H	0.912579	0.387218	0.911170
	H96	H	0.410539	0.111332	0.588885
	H97	H	0.588773	0.885327	0.595788
	H98	H	0.594209	0.112974	0.410166
	H99	H	0.407773	0.883903	0.405531
	H100	H	0.585889	0.403668	0.114516
	H101	H	0.590161	0.589196	0.887123
	H102	H	0.410187	0.598374	0.119112
	H103	H	0.412525	0.405683	0.885283
	H104	H	0.116327	0.591303	0.412879
	H105	H	0.887506	0.587148	0.584031
	H106	H	0.117452	0.404720	0.587211
	H107	H	0.883627	0.406435	0.405214
	H108	H	0.905267	0.615217	0.092822
	H109	H	0.088180	0.386952	0.092687
	H110	H	0.087130	0.611270	0.906266
	H111	H	0.904824	0.385006	0.909968
	H112	H	0.084081	0.899255	0.616410
	H113	H	0.082960	0.088148	0.389733
	H114	H	0.921358	0.094070	0.615178
	H115	H	0.916756	0.899052	0.386491
	H116	H	0.615863	0.090934	0.913828
	H117	H	0.385760	0.085875	0.091126
	H118	H	0.621211	0.902096	0.099433
	H119	H	0.384679	0.908870	0.908060
	C120	C	0.379123	0.007212	0.624157
	C121	C	0.624148	0.990504	0.624996
	C122	C	0.623654	0.006418	0.380178
	C123	C	0.379036	0.991612	0.379183
	C124	C	0.621871	0.377227	0.008729
	C125	C	0.622794	0.620889	0.992387
	C126	C	0.381239	0.619965	0.008781
	C127	C	0.379907	0.376231	0.992398
	C128	C	0.009870	0.620446	0.379532
	C129	C	0.992997	0.620264	0.620586
	C130	C	0.009502	0.377533	0.621819
	C131	C	0.993178	0.377675	0.380451
	C132	C	0.879495	0.507130	0.122998
	C133	C	0.123564	0.491454	0.122639
	C134	C	0.124308	0.507533	0.877394
	C135	C	0.879697	0.491902	0.878052
	C136	C	0.121945	0.877256	0.509079
	C137	C	0.122931	0.121412	0.492546
	C138	C	0.881341	0.120344	0.509633
	C139	C	0.879690	0.876509	0.493050
	C140	C	0.509507	0.120062	0.881046
	C141	C	0.492815	0.119309	0.121631
	C142	C	0.509861	0.875945	0.123260
	C143	C	0.492771	0.877726	0.881166
	C144	C	0.380233	0.886498	0.681107
	C145	C	0.623566	0.111268	0.680922
	C146	C	0.623135	0.886090	0.323117
	C147	C	0.380714	0.112008	0.321227
	C148	C	0.678106	0.379989	0.885893
	C149	C	0.679096	0.617073	0.115342
	C150	C	0.325529	0.617624	0.885507
	C151	C	0.323674	0.378674	0.114955
	C152	C	0.887269	0.677549	0.378414
	C153	C	0.115849	0.677465	0.621080
	C154	C	0.887546	0.319386	0.623024
	C155	C	0.115813	0.321185	0.379334
	C156	C	0.886992	0.378355	0.679260
	C157	C	0.117036	0.617880	0.676176
	C158	C	0.886365	0.618263	0.323377
	C159	C	0.116233	0.380242	0.324095
	C160	C	0.379655	0.678425	0.887261
	C161	C	0.624052	0.677160	0.114533
	C162	C	0.623259	0.319372	0.887568
	C163	C	0.379616	0.319346	0.114540
	C164	C	0.679886	0.885562	0.382723
	C165	C	0.681790	0.111294	0.623215
	C166	C	0.322287	0.886380	0.623150
	C167	C	0.323229	0.112628	0.380337
	C168	C	0.879051	0.386715	0.181224
	C169	C	0.123256	0.612082	0.178951
	C170	C	0.122584	0.386647	0.821192
	C171	C	0.880786	0.612538	0.820595
	C172	C	0.178801	0.880785	0.386668
	C173	C	0.178177	0.118153	0.616104
	C174	C	0.824742	0.117296	0.386893
	C175	C	0.824188	0.877988	0.616041
	C176	C	0.387225	0.177343	0.879046
	C177	C	0.614830	0.178007	0.123299
	C178	C	0.386976	0.819360	0.122331
	C179	C	0.615394	0.821225	0.880461
	C180	C	0.386761	0.877503	0.178880
	C181	C	0.616415	0.117842	0.177729
	C182	C	0.386325	0.118203	0.824054
	C183	C	0.615984	0.879871	0.824652
	C184	C	0.879662	0.177732	0.387636
	C185	C	0.124729	0.179316	0.613963
	C186	C	0.123192	0.820949	0.386940
	C187	C	0.878723	0.817537	0.613951
	C188	C	0.179895	0.386059	0.879850
	C189	C	0.180207	0.612656	0.119369
	C190	C	0.822647	0.386170	0.121721
	C191	C	0.823093	0.612610	0.879031
	C192	C	0.402592	0.091638	0.601024
	C193	C	0.600544	0.906501	0.601991
	C194	C	0.600675	0.090539	0.402439
	C195	C	0.402259	0.907648	0.403025
	C196	C	0.597929	0.400256	0.093226
	C197	C	0.598914	0.598908	0.907107
	C198	C	0.404722	0.596971	0.094060
	C199	C	0.403848	0.398964	0.906885
	C200	C	0.095334	0.597774	0.403256
	C201	C	0.907527	0.597310	0.596789
	C202	C	0.094964	0.400994	0.597388
	C203	C	0.907199	0.399708	0.404215
	C204	C	0.903215	0.591270	0.099655
	C205	C	0.099640	0.407546	0.100003
	C206	C	0.102053	0.591898	0.899747
	C207	C	0.902547	0.407741	0.901399
	C208	C	0.097698	0.899020	0.594292
	C209	C	0.098988	0.098590	0.407538
	C210	C	0.906165	0.097321	0.594634
	C211	C	0.903564	0.900221	0.407819
	C212	C	0.595042	0.097201	0.904911
	C213	C	0.407195	0.096008	0.098047
	C214	C	0.596058	0.898816	0.099968
	C215	C	0.407238	0.900582	0.904901
	Zn216	Zn	0.501286	-0.000790	0.753423
	Zn217	Zn	0.501728	-0.001496	0.249702
	Zn218	Zn	0.750457	0.499018	0.000098
	Zn219	Zn	0.252979	0.498921	0.000261
	Zn220	Zn	0.001153	0.748180	0.499959
	Zn221	Zn	0.001983	0.249294	0.500686
	Zn222	Zn	0.001707	0.499543	0.748657
	Zn223	Zn	0.000856	0.498870	0.252261
	Zn224	Zn	0.501435	0.749239	0.001235
	Zn225	Zn	0.501043	0.247656	0.001229
	Zn226	Zn	0.752865	-0.001204	0.502684
	Zn227	Zn	0.250214	-0.000505	0.502550
	N228	N	0.415037	0.962675	0.681718
	N229	N	0.588595	0.035186	0.682327
	N230	N	0.588956	0.962352	0.321301
	N231	N	0.414653	0.035621	0.320451
	N232	N	0.677437	0.415306	0.962166
	N233	N	0.678588	0.583055	0.038357
	N234	N	0.326514	0.581849	0.961962
	N235	N	0.323648	0.413194	0.037890
	N236	N	0.965192	0.679126	0.412713
	N237	N	0.037837	0.679152	0.587360
	N238	N	0.964981	0.318666	0.588063
	N239	N	0.038201	0.319651	0.413633
	N240	N	0.963779	0.413908	0.678118
	N241	N	0.039713	0.582893	0.675958
	N242	N	0.963502	0.583618	0.323956
	N243	N	0.038732	0.414586	0.324456
	N244	N	0.413543	0.679941	0.964913
	N245	N	0.589870	0.679834	0.037110
	N246	N	0.589253	0.317389	0.965018
	N247	N	0.413502	0.317538	0.037007
	N248	N	0.680124	0.961143	0.417726
	N249	N	0.682178	0.035145	0.589094
	N250	N	0.321680	0.962478	0.588501
	N251	N	0.322042	0.036794	0.415672
	N252	N	0.913543	0.463004	0.182208
	N253	N	0.088992	0.535619	0.181292
	N254	N	0.089025	0.463105	0.819309
	N255	N	0.915261	0.536522	0.819964
	N256	N	0.178290	0.914914	0.463707
	N257	N	0.177342	0.082756	0.539747
	N258	N	0.825488	0.082313	0.463919
	N259	N	0.824791	0.914043	0.539682
	N260	N	0.464792	0.178618	0.913733
	N261	N	0.536892	0.179063	0.089311
	N262	N	0.464800	0.818513	0.088307
	N263	N	0.537812	0.820066	0.915005
	N264	N	0.464257	0.911917	0.179500
	N265	N	0.539537	0.082148	0.176971
	N266	N	0.463405	0.083113	0.825113
	N267	N	0.538731	0.914337	0.824834
	N268	N	0.914196	0.179498	0.464809
	N269	N	0.091450	0.181800	0.536077
	N270	N	0.088445	0.818749	0.463967
	N271	N	0.912420	0.816537	0.536382
	N272	N	0.181330	0.462167	0.914017
	N273	N	0.180870	0.536557	0.085422
	N274	N	0.822667	0.461972	0.086173
	N275	N	0.822361	0.536583	0.914069
	O276	O	-0.055149	0.046419	-0.059515
	H277	H	-0.055874	0.035359	-0.067426
	H278	H	-0.054679	0.041953	-0.058753
	O279	O	0.484771	0.658442	0.393729
	H280	H	0.471158	0.663961	0.391389
	H281	H	0.478337	0.663124	0.398591
	O282	O	1.483835	0.464953	0.368322
	H283	H	1.484873	0.459081	0.356809
	H284	H	1.473252	0.459054	0.372408
	O285	O	-0.121960	0.995474	0.023585
	H286	H	-0.110372	0.985967	0.027584
	H287	H	-0.127036	0.998036	0.028421
	O288	O	0.636659	0.461745	0.457930
	H289	H	0.643039	0.448288	0.448722
	H290	H	0.644829	0.457655	0.464955
	O291	O	0.536203	0.438175	0.426093
	H292	H	0.534854	0.434051	0.410747
	H293	H	0.533819	0.435241	0.422043
	O294	O	0.935839	0.954471	1.092814
	H295	H	0.930677	0.961935	1.091968
	H296	H	0.934191	0.959129	1.075911
	O297	O	0.061399	-0.005196	0.123987
	H298	H	0.055037	-0.002404	0.116567
	H299	H	0.068455	0.001148	0.132625
	O300	O	0.531347	0.663378	0.516751
	H301	H	0.536461	0.679809	0.506362
	H302	H	0.536410	0.639736	0.514648
	O303	O	0.125612	1.027925	0.972937
	H304	H	0.126927	1.016895	0.979773
	H305	H	0.118646	1.034641	0.969147
	O306	O	0.551715	0.434096	0.512468
	H307	H	0.547003	0.425360	0.506927
	H308	H	0.554080	0.432984	0.492454
	O309	O	0.937828	-0.132550	0.060080
	H310	H	0.931958	-0.119895	0.078389
	H311	H	0.948553	-0.146593	0.047656
	O312	O	-0.106232	0.109875	1.006901
	H313	H	-0.118159	0.115823	1.006043
	H314	H	-0.096633	0.109648	1.015062
	O315	O	0.503761	0.584181	0.447997
	H316	H	0.510167	0.580596	0.463373
	H317	H	0.519471	0.594817	0.440962
	O318	O	0.537426	0.460862	0.464888
	H319	H	0.525033	0.456264	0.461668
	H320	H	0.529085	0.454136	0.471494
	O321	O	0.595111	0.569431	0.609592
	H322	H	0.600159	0.575754	0.599702
	H323	H	0.585603	0.576750	0.605954
	O324	O	0.453437	0.585806	0.482177
	H325	H	0.460713	0.574468	0.490066
	H326	H	0.461614	0.584923	0.473507
	O327	O	0.056861	1.001246	0.930174
	H328	H	0.054170	1.004472	0.938557
	H329	H	0.044989	1.002601	0.925937
	O330	O	0.449827	0.354222	0.532019
	H331	H	0.429479	0.349384	0.532102
	H332	H	0.439875	0.364785	0.528013
	O333	O	0.164136	0.906263	0.907557
	H334	H	0.155772	0.906341	0.910756
	H335	H	0.171851	0.916238	0.896088
	O336	O	0.978921	1.048065	1.021856
	H337	H	0.980717	1.048554	1.031643
	H338	H	0.970712	1.045693	1.033364
	O339	O	0.543561	0.508952	0.651822
	H340	H	0.545911	0.507457	0.650992
	H341	H	0.533433	0.509994	0.645750
	O342	O	0.821142	0.155433	-0.137282
	H343	H	0.813568	0.152464	-0.133407
	H344	H	0.825605	0.149959	-0.133964
	O345	O	0.415242	0.415902	0.603344
	H346	H	0.419474	0.422208	0.612919
	H347	H	0.424105	0.422106	0.598786
	O348	O	1.043584	1.074028	1.092067
	H349	H	1.057707	1.071346	1.099001
	H350	H	1.040312	1.081424	1.097258
	O351	O	0.876535	1.076975	-0.042995
	H352	H	0.869642	1.081902	-0.039631
	H353	H	0.880653	1.079455	-0.038827
	O354	O	0.387056	0.482753	0.459987
	H355	H	0.382734	0.477855	0.475156
	H356	H	0.376450	0.500905	0.467547
	O357	O	0.041981	-0.122776	-0.053916
	H358	H	0.037384	-0.123948	-0.058796
	H359	H	0.046052	-0.127151	-0.044578
	O360	O	0.068935	0.139298	0.131292
	H361	H	0.072278	0.144474	0.132238
	H362	H	0.076253	0.126696	0.133683
	O363	O	0.534222	0.528858	0.623741
	H364	H	0.525920	0.523321	0.626480
	H365	H	0.536367	0.525434	0.623860
	O366	O	0.131016	-0.091418	-0.009909
	H367	H	0.135006	-0.087937	-0.009949
	H368	H	0.127992	-0.101858	-0.000886
	O369	O	0.430708	0.513555	0.429972
	H370	H	0.434049	0.527019	0.431259
	H371	H	0.434178	0.525727	0.423681
	O372	O	0.590425	0.456184	0.594020
	H373	H	0.580794	0.459216	0.601470
	H374	H	0.595271	0.445173	0.596827
	O375	O	0.547806	0.586816	0.521088
	H376	H	0.548948	0.593061	0.512425
	H377	H	0.579344	0.590288	0.527058
	O378	O	0.401717	0.533375	0.524603
	H379	H	0.401299	0.533669	0.529290
	H380	H	0.405086	0.528791	0.531711
	O381	O	0.540651	0.396615	0.521831
	H382	H	0.531024	0.404803	0.536738
	H383	H	0.523471	0.392175	0.525195
	O384	O	0.086405	1.059140	0.043682
	H385	H	0.093335	1.050623	0.045122
	H386	H	0.086994	1.073955	0.044887
	O387	O	0.914399	-0.090308	0.919130
	H388	H	0.913009	-0.079791	0.913547
	H389	H	0.917004	-0.094282	0.911795
	O390	O	-0.064665	0.863710	0.020660
	H391	H	-0.061222	0.859499	0.010939
	H392	H	-0.049477	0.871886	0.015471
	O393	O	1.129705	1.136605	0.011426
	H394	H	1.130214	1.134061	0.007490
	H395	H	1.117947	1.137182	-0.007657
	O396	O	0.420594	0.525261	0.319715
	H397	H	0.421693	0.534199	0.331462
	H398	H	0.407755	0.525389	0.306323
	O399	O	-0.023955	0.862948	1.079019
	H400	H	-0.018317	0.860974	1.082270
	H401	H	-0.029185	0.862452	1.073550
	O402	O	0.930100	1.172376	0.891121
	H403	H	0.904091	1.183064	0.894117
	H404	H	0.939498	1.168029	0.874902
	O405	O	0.517711	0.425003	0.455017
	H406	H	0.524974	0.442395	0.452530
	H407	H	0.529362	0.422381	0.455488
