data_Molecule from HDF5

_cell_length_a		16.138212
_cell_length_b		16.288659
_cell_length_c		16.480371
_cell_angle_alpha	89.700560
_cell_angle_beta	89.889765
_cell_angle_gamma	90.389536
_symmetry_space_group_name_H-M	'P 1'
_symmetry_Int_Tables_number		1

loop_
	_symmetry_equiv_pos_as_xyz
	x,y,z

loop_
	_atom_site_label
	_atom_site_type_symbol
	_atom_site_fract_x
	_atom_site_fract_y
	_atom_site_fract_z
	H0	H	0.391512	0.847865	0.734191
	H1	H	0.601816	0.170980	0.731885
	H2	H	0.603767	0.849668	0.294462
	H3	H	0.394545	0.170513	0.293318
	H4	H	0.714601	0.410631	0.851305
	H5	H	0.715930	0.608490	0.173365
	H6	H	0.284320	0.608610	0.850887
	H7	H	0.280623	0.407739	0.174182
	H8	H	0.832820	0.723918	0.411924
	H9	H	0.160806	0.725375	0.610383
	H10	H	0.833750	0.294644	0.612609
	H11	H	0.162052	0.295873	0.412426
	H12	H	0.835841	0.403746	0.732431
	H13	H	0.161092	0.612392	0.727441
	H14	H	0.835059	0.612360	0.293705
	H15	H	0.159538	0.406316	0.292870
	H16	H	0.397640	0.729563	0.853394
	H17	H	0.604332	0.728574	0.173444
	H18	H	0.599832	0.291923	0.852357
	H19	H	0.394179	0.289236	0.173635
	H20	H	0.709771	0.846962	0.417531
	H21	H	0.712862	0.173421	0.611242
	H22	H	0.281315	0.846366	0.613387
	H23	H	0.285359	0.173959	0.416016
	H24	H	0.891388	0.349743	0.233787
	H25	H	0.104680	0.670552	0.231075
	H26	H	0.100912	0.347972	0.793536
	H27	H	0.898540	0.671712	0.794859
	H28	H	0.214170	0.911178	0.352694
	H29	H	0.212142	0.108073	0.676361
	H30	H	0.782915	0.109054	0.351453
	H31	H	0.779990	0.908839	0.675027
	H32	H	0.333326	0.222046	0.915028
	H33	H	0.662572	0.224241	0.110524
	H34	H	0.336507	0.789653	0.116824
	H35	H	0.662854	0.798027	0.914415
	H36	H	0.335752	0.904455	0.231938
	H37	H	0.661897	0.112191	0.229197
	H38	H	0.334278	0.110688	0.796920
	H39	H	0.659773	0.906992	0.794889
	H40	H	0.894885	0.229691	0.352905
	H41	H	0.098628	0.228522	0.674346
	H42	H	0.098481	0.794015	0.352044
	H43	H	0.893604	0.789223	0.673394
	H44	H	0.210064	0.344624	0.915817
	H45	H	0.215529	0.672348	0.109791
	H46	H	0.781054	0.346799	0.112434
	H47	H	0.787076	0.673759	0.914219
	H48	H	0.408065	0.124410	0.604731
	H49	H	0.590747	0.893018	0.606514
	H50	H	0.587469	0.127550	0.415522
	H51	H	0.400010	0.892883	0.422961
	H52	H	0.584081	0.411049	0.127126
	H53	H	0.593523	0.601287	0.898871
	H54	H	0.405112	0.599319	0.127541
	H55	H	0.399559	0.413888	0.896002
	H56	H	0.114075	0.600995	0.419655
	H57	H	0.880013	0.598518	0.605340
	H58	H	0.115422	0.425394	0.611284
	H59	H	0.880320	0.421834	0.417473
	H60	H	0.117855	0.411757	0.604504
	H61	H	0.881359	0.598296	0.604378
	H62	H	0.114065	0.603326	0.421232
	H63	H	0.880827	0.415307	0.424165
	H64	H	0.409905	0.596491	0.125538
	H65	H	0.587021	0.604819	0.899648
	H66	H	0.595200	0.415485	0.128827
	H67	H	0.407562	0.421207	0.900698
	H68	H	0.585016	0.124190	0.423275
	H69	H	0.583172	0.893509	0.610356
	H70	H	0.405241	0.125871	0.607421
	H71	H	0.409912	0.893700	0.417017
	H72	H	0.903373	0.625118	0.097359
	H73	H	0.085494	0.394165	0.106380
	H74	H	0.096873	0.629661	0.910619
	H75	H	0.913329	0.396426	0.923181
	H76	H	0.084327	0.921913	0.624768
	H77	H	0.088973	0.100087	0.400207
	H78	H	0.894011	0.094215	0.628887
	H79	H	0.910020	0.911703	0.399282
	H80	H	0.618779	0.107668	0.914592
	H81	H	0.378376	0.103179	0.111301
	H82	H	0.614854	0.918324	0.101301
	H83	H	0.380104	0.915929	0.922334
	H84	H	0.613697	0.925689	0.107373
	H85	H	0.383236	0.100320	0.098272
	H86	H	0.612084	0.102655	0.931049
	H87	H	0.383086	0.918487	0.928258
	H88	H	0.917141	0.097562	0.622445
	H89	H	0.087700	0.107331	0.400077
	H90	H	0.083428	0.909475	0.628414
	H91	H	0.896310	0.914920	0.395798
	H92	H	0.081994	0.621787	0.916404
	H93	H	0.085732	0.395436	0.103951
	H94	H	0.904907	0.628705	0.111083
	H95	H	0.900763	0.393086	0.924382
	H96	H	0.408944	0.125361	0.608961
	H97	H	0.584090	0.896727	0.602296
	H98	H	0.593043	0.127767	0.421576
	H99	H	0.410047	0.896792	0.427972
	H100	H	0.586698	0.422716	0.124509
	H101	H	0.592623	0.608600	0.896609
	H102	H	0.410255	0.601963	0.126970
	H103	H	0.409784	0.410203	0.898456
	H104	H	0.113002	0.600370	0.421946
	H105	H	0.880449	0.597541	0.605386
	H106	H	0.110955	0.423022	0.597334
	H107	H	0.884092	0.424393	0.425747
	H108	H	0.916858	0.622770	0.104062
	H109	H	0.088157	0.393408	0.104995
	H110	H	0.095860	0.624454	0.926889
	H111	H	0.906445	0.391815	0.913334
	H112	H	0.094290	0.916618	0.630018
	H113	H	0.094823	0.104927	0.398585
	H114	H	0.904604	0.116199	0.632601
	H115	H	0.904774	0.924774	0.401892
	H116	H	0.612200	0.090192	0.917051
	H117	H	0.382669	0.090298	0.108150
	H118	H	0.617887	0.917897	0.110410
	H119	H	0.381616	0.923003	0.922978
	C120	C	0.375867	0.018005	0.636757
	C121	C	0.617478	1.001431	0.635344
	C122	C	0.618836	0.019222	0.391619
	C123	C	0.376500	1.001155	0.392176
	C124	C	0.619188	0.387171	0.020779
	C125	C	0.621553	0.633096	1.004643
	C126	C	0.378384	0.630018	0.020691
	C127	C	0.374996	0.385185	1.004581
	C128	C	0.005635	0.631042	0.390874
	C129	C	0.988611	0.629632	0.633699
	C130	C	0.006702	0.388575	0.634782
	C131	C	0.989412	0.390100	0.392110
	C132	C	0.876530	0.518483	0.134530
	C133	C	0.118741	0.501243	0.133804
	C134	C	0.120672	0.517753	0.889597
	C135	C	0.877633	0.501208	0.890619
	C136	C	0.117848	0.887886	0.521431
	C137	C	0.119826	0.132886	0.506035
	C138	C	0.875704	0.132336	0.521407
	C139	C	0.873739	0.886881	0.505177
	C140	C	0.506148	0.129860	0.891880
	C141	C	0.489552	0.129344	0.134522
	C142	C	0.507754	0.888279	0.136454
	C143	C	0.489234	0.889202	0.893622
	C144	C	0.373767	0.896322	0.694643
	C145	C	0.619488	0.123012	0.692229
	C146	C	0.620458	0.897484	0.334620
	C147	C	0.376240	0.122694	0.333566
	C148	C	0.675867	0.389901	0.899382
	C149	C	0.678374	0.629860	0.125432
	C150	C	0.322353	0.628878	0.899463
	C151	C	0.318364	0.386877	0.125777
	C152	C	0.882170	0.686340	0.392026
	C153	C	0.111840	0.687124	0.630974
	C154	C	0.883257	0.331646	0.633181
	C155	C	0.112587	0.333450	0.392443
	C156	C	0.884207	0.386275	0.692672
	C157	C	0.112001	0.630897	0.689126
	C158	C	0.883416	0.631196	0.333112
	C159	C	0.111684	0.388716	0.333211
	C160	C	0.378745	0.689057	0.900798
	C161	C	0.622600	0.689671	0.125152
	C162	C	0.619204	0.330553	0.900265
	C163	C	0.375096	0.327988	0.125362
	C164	C	0.673727	0.896150	0.395507
	C165	C	0.674879	0.124327	0.632380
	C166	C	0.319022	0.895382	0.634257
	C167	C	0.322047	0.124392	0.394661
	C168	C	0.873825	0.397568	0.193372
	C169	C	0.121992	0.622654	0.191250
	C170	C	0.119797	0.395864	0.833042
	C171	C	0.878840	0.623301	0.833723
	C172	C	0.175048	0.891196	0.400622
	C173	C	0.174877	0.129609	0.627622
	C174	C	0.820009	0.130128	0.400086
	C175	C	0.817903	0.888515	0.626519
	C176	C	0.382650	0.185216	0.894053
	C177	C	0.613252	0.186472	0.131618
	C178	C	0.385038	0.829102	0.135846
	C179	C	0.613248	0.834801	0.894358
	C180	C	0.384543	0.886128	0.193261
	C181	C	0.612960	0.130631	0.190628
	C182	C	0.383205	0.129862	0.835338
	C183	C	0.611508	0.888754	0.834471
	C184	C	0.876205	0.190078	0.400796
	C185	C	0.118455	0.189403	0.626700
	C186	C	0.117621	0.832585	0.400191
	C187	C	0.874357	0.828884	0.625560
	C188	C	0.174090	0.394282	0.893902
	C189	C	0.177090	0.623462	0.131030
	C190	C	0.819040	0.396123	0.132843
	C191	C	0.823416	0.624299	0.893146
	C192	C	0.400323	0.103336	0.613843
	C193	C	0.593200	0.916456	0.612783
	C194	C	0.595433	0.104331	0.413543
	C195	C	0.399745	0.916405	0.415871
	C196	C	0.595655	0.409749	0.105062
	C197	C	0.597942	0.611122	0.920324
	C198	C	0.401512	0.605914	0.105017
	C199	C	0.398657	0.408268	0.920262
	C200	C	0.091464	0.608227	0.414102
	C201	C	0.902847	0.605115	0.611462
	C202	C	0.092547	0.412937	0.611304
	C203	C	0.904010	0.413771	0.415563
	C204	C	0.901050	0.603645	0.110976
	C205	C	0.093726	0.416255	0.111616
	C206	C	0.098182	0.603241	0.911545
	C207	C	0.900205	0.415574	0.913771
	C208	C	0.094276	0.909579	0.605773
	C209	C	0.097185	0.110527	0.421473
	C210	C	0.898583	0.109272	0.606103
	C211	C	0.897054	0.910208	0.420778
	C212	C	0.592010	0.106896	0.914219
	C213	C	0.403728	0.105120	0.112447
	C214	C	0.593099	0.913305	0.113218
	C215	C	0.403661	0.912196	0.917608
	Zn216	Zn	0.497282	0.008838	0.765022
	Zn217	Zn	0.498396	0.009598	0.263618
	Zn218	Zn	0.748924	0.509936	0.011946
	Zn219	Zn	0.247987	0.508352	0.012325
	Zn220	Zn	-0.003893	0.757580	0.512205
	Zn221	Zn	-0.002363	0.262339	0.513201
	Zn222	Zn	-0.001626	0.509277	0.761965
	Zn223	Zn	-0.001866	0.510383	0.262862
	Zn224	Zn	0.499639	0.761586	0.013921
	Zn225	Zn	0.497595	0.256691	0.012966
	Zn226	Zn	0.745899	0.010284	0.513707
	Zn227	Zn	0.248262	0.009647	0.514541
	N228	N	0.408484	0.973715	0.696124
	N229	N	0.584593	0.045808	0.694092
	N230	N	0.586856	0.974887	0.332309
	N231	N	0.409304	0.045004	0.331761
	N232	N	0.676418	0.424298	0.975464
	N233	N	0.677891	0.595421	0.049499
	N234	N	0.322073	0.592874	0.975284
	N235	N	0.318304	0.421895	0.049670
	N236	N	0.959288	0.686264	0.427491
	N237	N	0.034193	0.686378	0.596789
	N238	N	0.960499	0.332936	0.597970
	N239	N	0.035491	0.334116	0.428345
	N240	N	0.961947	0.421218	0.693572
	N241	N	0.034450	0.595760	0.690747
	N242	N	0.961212	0.597732	0.332192
	N243	N	0.034158	0.423225	0.332903
	N244	N	0.412580	0.690058	0.977296
	N245	N	0.587996	0.691795	0.049045
	N246	N	0.584569	0.328934	0.976584
	N247	N	0.409546	0.326769	0.048981
	N248	N	0.672947	0.972659	0.430216
	N249	N	0.673825	0.047712	0.597545
	N250	N	0.320214	0.971955	0.598943
	N251	N	0.322176	0.048017	0.430635
	N252	N	0.908732	0.474800	0.194501
	N253	N	0.086441	0.545679	0.193024
	N254	N	0.087306	0.473681	0.830228
	N255	N	0.911587	0.545697	0.832050
	N256	N	0.175240	0.924926	0.477036
	N257	N	0.175920	0.095366	0.551600
	N258	N	0.819572	0.094877	0.476084
	N259	N	0.817408	0.923846	0.550723
	N260	N	0.460073	0.185238	0.928637
	N261	N	0.535597	0.185574	0.097298
	N262	N	0.462780	0.830000	0.101651
	N263	N	0.536246	0.834665	0.930159
	N264	N	0.461855	0.921968	0.194087
	N265	N	0.535144	0.095906	0.192559
	N266	N	0.461024	0.096235	0.833855
	N267	N	0.533380	0.922169	0.834203
	N268	N	0.910003	0.191541	0.477408
	N269	N	0.085061	0.191623	0.549939
	N270	N	0.082624	0.830363	0.476234
	N271	N	0.908422	0.827788	0.548960
	N272	N	0.174863	0.471072	0.928256
	N273	N	0.175336	0.546918	0.096161
	N274	N	0.820444	0.472531	0.097105
	N275	N	0.822304	0.547121	0.927744
	O276	O	1.035679	0.145187	0.950060
	H277	H	1.031225	0.143799	0.944049
	H278	H	1.044342	0.139896	0.947282
	O279	O	-0.061740	1.008450	-0.033005
	H280	H	-0.072268	1.005972	-0.031516
	H281	H	-0.054031	1.027406	-0.019448
	O282	O	0.435358	0.540257	0.346883
	H283	H	0.447304	0.545082	0.340025
	H284	H	0.439112	0.546702	0.353192
	O285	O	0.492336	0.409966	0.570956
	H286	H	0.501985	0.403311	0.590535
	H287	H	0.490641	0.415534	0.564919
	O288	O	0.625773	0.424321	0.459084
	H289	H	0.639298	0.439414	0.455261
	H290	H	0.622721	0.430040	0.466487
	O291	O	-0.597711	0.394297	0.615139
	H292	H	-0.587737	0.391278	0.603719
	H293	H	-0.595072	0.394254	0.629726
	O294	O	1.574055	0.491408	-0.399708
	H295	H	1.567615	0.501922	-0.390487
	H296	H	1.571183	0.477576	-0.393046
	O297	O	1.072228	1.021912	0.133252
	H298	H	1.066706	0.999506	0.126055
	H299	H	1.070747	1.018377	0.136559
	O300	O	0.477943	0.430685	0.504937
	H301	H	0.486577	0.417337	0.500444
	H302	H	0.462011	0.433673	0.526694
	O303	O	0.371685	0.507395	0.607779
	H304	H	0.369197	0.510911	0.608711
	H305	H	0.386654	0.500033	0.610768
	O306	O	0.614576	0.494084	0.483085
	H307	H	0.614168	0.498404	0.479746
	H308	H	0.622175	0.513215	0.488324
	O309	O	0.594933	0.553793	0.417103
	H310	H	0.594407	0.544241	0.405624
	H311	H	0.580745	0.547481	0.406613
	O312	O	1.035756	1.046943	1.007128
	H313	H	1.032535	1.029725	1.009896
	H314	H	1.029206	1.046514	1.008158
	O315	O	0.356548	0.474317	0.529097
	H316	H	0.342545	0.468610	0.534739
	H317	H	0.351400	0.459817	0.531748
	O318	O	0.400504	0.549222	0.365159
	H319	H	0.389080	0.538687	0.368130
	H320	H	0.402435	0.544671	0.365095
	O321	O	0.524100	0.555437	0.542008
	H322	H	0.522016	0.557655	0.528741
	H323	H	0.523175	0.554007	0.536754
	O324	O	0.029826	0.977474	0.960251
	H325	H	0.039954	0.972493	0.965771
	H326	H	0.033591	0.978980	0.971153
	O327	O	-0.123821	1.013029	1.012325
	H328	H	-0.127051	1.013895	1.009183
	H329	H	-0.126656	1.010431	1.013716
	O330	O	-0.005963	-0.039319	0.126531
	H331	H	-0.005975	-0.043265	0.119726
	H332	H	0.002957	-0.031281	0.123244
	O333	O	0.499077	0.446017	0.543596
	H334	H	0.501807	0.429575	0.541025
	H335	H	0.519733	0.443007	0.549611
	O336	O	0.108448	-0.068661	-0.057645
	H337	H	0.095072	-0.068568	-0.060565
	H338	H	0.109138	-0.071000	-0.057977
	O339	O	0.102906	0.087332	0.041272
	H340	H	0.105791	0.063744	0.049307
	H341	H	0.111916	0.090817	0.025086
	O342	O	0.408751	0.470765	0.555647
	H343	H	0.399991	0.473501	0.557724
	H344	H	0.412064	0.460892	0.551351
	O345	O	-0.018223	0.945623	1.086647
	H346	H	-0.016969	0.940317	1.088163
	H347	H	-0.020019	0.957552	1.090705
	O348	O	0.887827	0.063529	0.094078
	H349	H	0.886677	0.069254	0.104016
	H350	H	0.883465	0.065541	0.085096
	O351	O	0.574749	0.565793	0.558702
	H352	H	0.563033	0.553305	0.559385
	H353	H	0.580716	0.581491	0.550065
	O354	O	0.007817	0.910417	-0.065891
	H355	H	-0.012969	0.921182	-0.062054
	H356	H	0.004392	0.918736	-0.064009
	O357	O	1.057043	-0.020933	-0.017822
	H358	H	1.062554	-0.032436	-0.018118
	H359	H	1.057609	-0.021081	-0.010002
	O360	O	1.025698	-0.024969	1.023625
	H361	H	1.023345	-0.029258	1.016665
	H362	H	1.029088	-0.024063	1.027493
	O363	O	0.626313	0.622221	0.574362
	H364	H	0.608026	0.620413	0.571155
	H365	H	0.627005	0.626346	0.563611
	O366	O	0.432722	0.629176	0.346993
	H367	H	0.423327	0.627218	0.353600
	H368	H	0.429551	0.617595	0.356600
	O369	O	0.956235	0.061311	0.002008
	H370	H	0.956508	0.058780	-0.003052
	H371	H	0.966162	0.060603	0.003079
	O372	O	0.455025	0.624632	0.619130
	H373	H	0.444344	0.612597	0.611591
	H374	H	0.463281	0.638087	0.623252
	O375	O	0.950020	-0.018653	1.033622
	H376	H	0.937580	-0.018724	1.042144
	H377	H	0.957407	-0.009395	1.036134
	O378	O	-0.061246	1.103737	-0.106216
	H379	H	-0.057402	1.106715	-0.112568
	H380	H	-0.066036	1.108445	-0.104963
	O381	O	0.494975	0.531428	0.578525
	H382	H	0.511116	0.533735	0.581270
	H383	H	0.489603	0.523106	0.572081
	O384	O	1.146276	0.944486	0.017604
	H385	H	1.155018	0.937740	0.016174
	H386	H	1.140086	0.935457	0.014858
	O387	O	0.525843	-0.560299	0.490022
	H388	H	0.527199	-0.564805	0.482957
	H389	H	0.534979	-0.556921	0.491446
	O390	O	0.985106	1.015178	0.093216
	H391	H	1.001978	1.013969	0.087564
	H392	H	0.992325	1.031567	0.097116
	O393	O	0.470771	0.621794	0.434851
	H394	H	0.473622	0.624346	0.426233
	H395	H	0.462360	0.620018	0.432391
