data_Molecule from HDF5

_cell_length_a		16.423754
_cell_length_b		16.330115
_cell_length_c		16.331981
_cell_angle_alpha	89.909626
_cell_angle_beta	90.254302
_cell_angle_gamma	89.771751
_symmetry_space_group_name_H-M	'P 1'
_symmetry_Int_Tables_number		1

loop_
	_symmetry_equiv_pos_as_xyz
	x,y,z

loop_
	_atom_site_label
	_atom_site_type_symbol
	_atom_site_fract_x
	_atom_site_fract_y
	_atom_site_fract_z
	H0	H	0.372312	0.820223	0.749739
	H1	H	0.579269	0.141301	0.749900
	H2	H	0.580288	0.819592	0.313617
	H3	H	0.374869	0.141523	0.310522
	H4	H	0.696629	0.376146	0.868961
	H5	H	0.694814	0.582221	0.190244
	H6	H	0.254360	0.587239	0.869618
	H7	H	0.257895	0.376305	0.189459
	H8	H	0.817181	0.702907	0.426517
	H9	H	0.136957	0.702000	0.634566
	H10	H	0.817493	0.264310	0.632482
	H11	H	0.136682	0.261605	0.425091
	H12	H	0.817041	0.380657	0.747080
	H13	H	0.135493	0.588061	0.752557
	H14	H	0.817202	0.588361	0.309010
	H15	H	0.137337	0.379619	0.310196
	H16	H	0.371918	0.699961	0.868598
	H17	H	0.579657	0.698192	0.190312
	H18	H	0.579616	0.261820	0.868247
	H19	H	0.378286	0.264256	0.191443
	H20	H	0.698367	0.822238	0.426840
	H21	H	0.696796	0.142019	0.635279
	H22	H	0.255279	0.822302	0.635802
	H23	H	0.256643	0.141206	0.422956
	H24	H	0.876122	0.321210	0.248434
	H25	H	0.078765	0.644353	0.245588
	H26	H	0.080353	0.322045	0.810097
	H27	H	0.873673	0.643718	0.812808
	H28	H	0.195151	0.878381	0.368499
	H29	H	0.198894	0.086804	0.689670
	H30	H	0.756830	0.088334	0.369279
	H31	H	0.759512	0.879788	0.689789
	H32	H	0.317110	0.200378	0.925127
	H33	H	0.638109	0.196115	0.132262
	H34	H	0.315241	0.762182	0.131104
	H35	H	0.636119	0.759479	0.927111
	H36	H	0.316769	0.876965	0.249500
	H37	H	0.637643	0.079835	0.247821
	H38	H	0.317259	0.083212	0.809653
	H39	H	0.636343	0.874680	0.810155
	H40	H	0.876614	0.200161	0.367315
	H41	H	0.082330	0.202039	0.690335
	H42	H	0.080014	0.763470	0.369042
	H43	H	0.876738	0.765848	0.690805
	H44	H	0.196553	0.321479	0.924684
	H45	H	0.196982	0.641715	0.132840
	H46	H	0.759777	0.320410	0.133068
	H47	H	0.755625	0.641597	0.926303
	H48	H	0.378401	0.099069	0.622417
	H49	H	0.578584	0.863046	0.621783
	H50	H	0.568681	0.096875	0.440283
	H51	H	0.392311	0.867305	0.439457
	H52	H	0.571533	0.383351	0.146441
	H53	H	0.565358	0.569849	0.914543
	H54	H	0.385012	0.571091	0.144258
	H55	H	0.387899	0.391930	0.915480
	H56	H	0.090573	0.573750	0.440223
	H57	H	0.866547	0.573968	0.611389
	H58	H	0.089753	0.395075	0.618426
	H59	H	0.864208	0.391487	0.440908
	H60	H	0.091195	0.393962	0.621268
	H61	H	0.863433	0.567940	0.626237
	H62	H	0.090512	0.570555	0.438794
	H63	H	0.864661	0.396206	0.438962
	H64	H	0.387217	0.566418	0.142699
	H65	H	0.566002	0.569396	0.914377
	H66	H	0.573257	0.391916	0.145038
	H67	H	0.386449	0.387912	0.913885
	H68	H	0.567206	0.097595	0.435782
	H69	H	0.563364	0.866846	0.626130
	H70	H	0.398779	0.093289	0.626310
	H71	H	0.385476	0.867398	0.445522
	H72	H	0.879941	0.599265	0.122939
	H73	H	0.069381	0.367628	0.116411
	H74	H	0.061558	0.595154	0.938541
	H75	H	0.891021	0.368005	0.934738
	H76	H	0.068448	0.893485	0.643632
	H77	H	0.062834	0.065778	0.419257
	H78	H	0.892033	0.080086	0.644690
	H79	H	0.882936	0.893022	0.412646
	H80	H	0.592460	0.075871	0.941824
	H81	H	0.364131	0.070187	0.119276
	H82	H	0.590546	0.887007	0.121470
	H83	H	0.363512	0.891939	0.938854
	H84	H	0.589356	0.888995	0.120246
	H85	H	0.362869	0.071888	0.121409
	H86	H	0.587866	0.065190	0.943915
	H87	H	0.363362	0.890808	0.939220
	H88	H	0.879029	0.074147	0.646660
	H89	H	0.063496	0.079666	0.415111
	H90	H	0.067660	0.892849	0.644133
	H91	H	0.888248	0.898310	0.416523
	H92	H	0.066505	0.594275	0.946553
	H93	H	0.068827	0.365863	0.123145
	H94	H	0.890380	0.595275	0.121396
	H95	H	0.887256	0.368393	0.942353
	H96	H	0.390060	0.090221	0.607076
	H97	H	0.567950	0.870181	0.610609
	H98	H	0.564321	0.095777	0.438721
	H99	H	0.384170	0.864247	0.437103
	H100	H	0.565105	0.388517	0.142950
	H101	H	0.565227	0.569470	0.915066
	H102	H	0.390170	0.570763	0.143441
	H103	H	0.384152	0.391124	0.913939
	H104	H	0.091734	0.573579	0.437119
	H105	H	0.859603	0.583384	0.622346
	H106	H	0.090442	0.392078	0.619068
	H107	H	0.862866	0.392380	0.436528
	H108	H	0.883115	0.595472	0.112763
	H109	H	0.063480	0.369193	0.119582
	H110	H	0.070782	0.598864	0.938205
	H111	H	0.883206	0.364958	0.935706
	H112	H	0.069051	0.892844	0.643592
	H113	H	0.074832	0.071143	0.413278
	H114	H	0.889932	0.066396	0.640308
	H115	H	0.890460	0.890452	0.415333
	H116	H	0.592447	0.068101	0.933146
	H117	H	0.362927	0.073469	0.118490
	H118	H	0.590364	0.889473	0.123086
	H119	H	0.363321	0.892332	0.940265
	C120	C	0.356450	-0.011291	0.650684
	C121	C	0.599638	0.973019	0.651152
	C122	C	0.598425	-0.009726	0.408256
	C123	C	0.356022	0.972536	0.408419
	C124	C	0.600212	0.357520	0.037994
	C125	C	0.597011	0.600712	1.021100
	C126	C	0.354966	0.601823	0.037579
	C127	C	0.356324	0.359692	1.021001
	C128	C	-0.014728	0.604606	0.407624
	C129	C	0.968713	0.605559	0.651723
	C130	C	-0.014689	0.361859	0.650881
	C131	C	0.969188	0.361862	0.407709
	C132	C	0.855186	0.490200	0.150516
	C133	C	0.098590	0.473661	0.150859
	C134	C	0.097840	0.490363	0.908746
	C135	C	0.855260	0.473302	0.907712
	C136	C	0.099434	0.860952	0.538177
	C137	C	0.099226	0.103894	0.521450
	C138	C	0.855993	0.104821	0.537452
	C139	C	0.856722	0.862852	0.520945
	C140	C	0.485597	0.101560	0.907803
	C141	C	0.468899	0.101650	0.151168
	C142	C	0.484673	0.857933	0.152193
	C143	C	0.468473	0.859028	0.908195
	C144	C	0.354088	0.868528	0.710269
	C145	C	0.599017	0.093336	0.710492
	C146	C	0.599315	0.868344	0.351880
	C147	C	0.355065	0.093228	0.349120
	C148	C	0.657808	0.357011	0.917081
	C149	C	0.655810	0.601279	0.141888
	C150	C	0.295086	0.604321	0.917274
	C151	C	0.297958	0.358465	0.141759
	C152	C	0.865167	0.663697	0.407230
	C153	C	0.088921	0.663436	0.653326
	C154	C	0.865235	0.303565	0.651200
	C155	C	0.089021	0.301736	0.406295
	C156	C	0.865152	0.361506	0.708481
	C157	C	0.088169	0.606173	0.711874
	C158	C	0.865029	0.606624	0.348623
	C159	C	0.089426	0.360701	0.349294
	C160	C	0.353358	0.660974	0.916785
	C161	C	0.598459	0.659246	0.141914
	C162	C	0.599732	0.299982	0.916835
	C163	C	0.357866	0.302611	0.142802
	C164	C	0.658431	0.869876	0.407928
	C165	C	0.657206	0.094020	0.653205
	C166	C	0.295861	0.869528	0.653442
	C167	C	0.296327	0.092970	0.405364
	C168	C	0.856536	0.369313	0.209129
	C169	C	0.098595	0.595304	0.207761
	C170	C	0.098837	0.370061	0.849389
	C171	C	0.854505	0.595045	0.851136
	C172	C	0.157181	0.859537	0.417114
	C173	C	0.159091	0.105134	0.641775
	C174	C	0.797006	0.106280	0.416885
	C175	C	0.799012	0.861717	0.641971
	C176	C	0.365145	0.160529	0.906731
	C177	C	0.589921	0.157705	0.151188
	C178	C	0.363651	0.800618	0.151272
	C179	C	0.588431	0.799283	0.907786
	C180	C	0.364099	0.858021	0.209772
	C181	C	0.589244	0.100282	0.209274
	C182	C	0.365130	0.102473	0.849047
	C183	C	0.588452	0.856280	0.849333
	C184	C	0.856191	0.162307	0.415904
	C185	C	0.101098	0.162685	0.642146
	C186	C	0.099568	0.802326	0.417232
	C187	C	0.857347	0.804592	0.642257
	C188	C	0.156737	0.369640	0.906725
	C189	C	0.157524	0.593968	0.151706
	C190	C	0.798765	0.368689	0.151588
	C191	C	0.795661	0.593984	0.907437
	C192	C	0.381821	0.072461	0.625704
	C193	C	0.576569	0.888782	0.626555
	C194	C	0.573805	0.074610	0.431406
	C195	C	0.380470	0.888317	0.433523
	C196	C	0.576935	0.381071	0.122818
	C197	C	0.572458	0.576554	0.936726
	C198	C	0.380115	0.576596	0.121434
	C199	C	0.379539	0.383500	0.936325
	C200	C	0.069020	0.579879	0.431755
	C201	C	0.884866	0.581965	0.627122
	C202	C	0.068900	0.386371	0.626537
	C203	C	0.885596	0.386409	0.431767
	C204	C	0.877843	0.574838	0.126045
	C205	C	0.074336	0.389458	0.126577
	C206	C	0.073308	0.574317	0.933835
	C207	C	0.879773	0.389042	0.931093
	C208	C	0.075536	0.885834	0.621976
	C209	C	0.074274	0.079357	0.437713
	C210	C	0.880110	0.080793	0.622015
	C211	C	0.880357	0.887043	0.436694
	C212	C	0.569147	0.076918	0.932517
	C213	C	0.384928	0.078518	0.126838
	C214	C	0.568291	0.881446	0.128473
	C215	C	0.385090	0.884383	0.932368
	Zn216	Zn	0.477345	-0.020102	0.778959
	Zn217	Zn	0.476627	-0.020042	0.280305
	Zn218	Zn	0.726601	0.480349	0.028936
	Zn219	Zn	0.227056	0.481162	0.029413
	Zn220	Zn	-0.022083	0.733548	0.529611
	Zn221	Zn	-0.022445	0.232836	0.529774
	Zn222	Zn	-0.023384	0.482741	0.779828
	Zn223	Zn	-0.023162	0.483434	0.278465
	Zn224	Zn	0.476017	0.729922	0.029233
	Zn225	Zn	0.477574	0.230745	0.029535
	Zn226	Zn	0.727491	-0.016632	0.529171
	Zn227	Zn	0.227985	-0.018626	0.529349
	N228	N	0.391224	0.943827	0.708380
	N229	N	0.564116	0.016911	0.709517
	N230	N	0.562906	0.944219	0.351640
	N231	N	0.391224	0.017225	0.350849
	N232	N	0.658370	0.391740	0.993627
	N233	N	0.655140	0.565768	0.065553
	N234	N	0.296176	0.568134	0.993333
	N235	N	0.296877	0.393150	0.064948
	N236	N	0.940927	0.662718	0.443123
	N237	N	0.013704	0.662817	0.616449
	N238	N	0.941113	0.303807	0.615869
	N239	N	0.013331	0.302461	0.441951
	N240	N	0.940740	0.397187	0.708295
	N241	N	0.012150	0.571060	0.711142
	N242	N	0.940844	0.570676	0.348582
	N243	N	0.013889	0.397144	0.349740
	N244	N	0.389951	0.659530	0.992665
	N245	N	0.562353	0.658820	0.065826
	N246	N	0.564693	0.300204	0.993158
	N247	N	0.393230	0.303130	0.066701
	N248	N	0.657979	0.946690	0.442360
	N249	N	0.657894	0.018118	0.617222
	N250	N	0.297381	0.945203	0.616922
	N251	N	0.296725	0.016803	0.441429
	N252	N	0.890837	0.446046	0.208480
	N253	N	0.062760	0.519355	0.207412
	N254	N	0.062908	0.446235	0.850644
	N255	N	0.890666	0.519022	0.851070
	N256	N	0.157101	0.895321	0.493278
	N257	N	0.158079	0.069253	0.565739
	N258	N	0.796753	0.071421	0.493504
	N259	N	0.798440	0.897124	0.565519
	N260	N	0.441162	0.160418	0.942411
	N261	N	0.514013	0.158716	0.115729
	N262	N	0.439668	0.800339	0.116116
	N263	N	0.512872	0.800822	0.943458
	N264	N	0.440147	0.892733	0.210560
	N265	N	0.512966	0.065895	0.209154
	N266	N	0.440878	0.066626	0.849468
	N267	N	0.512705	0.892758	0.849440
	N268	N	0.892055	0.161677	0.492051
	N269	N	0.064654	0.162284	0.566286
	N270	N	0.064717	0.802767	0.493492
	N271	N	0.892645	0.805264	0.565938
	N272	N	0.156356	0.445528	0.942864
	N273	N	0.157966	0.517052	0.117366
	N274	N	0.797802	0.444829	0.115794
	N275	N	0.796088	0.517276	0.942041
	O276	O	0.464674	0.525936	0.714040
	H277	H	0.486033	0.523544	0.711328
	H278	H	0.463989	0.554586	0.729309
	O279	O	0.428750	0.680490	0.641128
	H280	H	0.432022	0.698099	0.637802
	H281	H	0.426099	0.688517	0.642415
	O282	O	1.048315	-0.151485	1.067133
	H283	H	1.051981	-0.160543	1.084071
	H284	H	1.050377	-0.143448	1.067120
	O285	O	1.050979	0.059662	0.052510
	H286	H	1.055988	0.065232	0.049493
	H287	H	1.049271	0.057967	0.050314
	O288	O	1.002812	0.885198	1.069299
	H289	H	1.005173	0.893309	1.060374
	H290	H	1.006612	0.876205	1.081732
	O291	O	0.472092	1.470782	0.448937
	H292	H	0.481173	1.461296	0.454966
	H293	H	0.471899	1.477276	0.450027
	O294	O	0.277663	0.539895	0.368224
	H295	H	0.267324	0.527141	0.345259
	H296	H	0.288543	0.526709	0.361578
	O297	O	0.598980	0.320774	0.503476
	H298	H	0.598283	0.319126	0.506056
	H299	H	0.602611	0.326100	0.494997
	O300	O	0.906564	-0.037737	0.060243
	H301	H	0.907162	-0.020729	0.056924
	H302	H	0.913299	-0.044045	0.043722
	O303	O	0.295028	0.431751	0.516593
	H304	H	0.293008	0.411178	0.502159
	H305	H	0.285713	0.421486	0.503897
	O306	O	0.273204	1.313120	0.592960
	H307	H	0.259113	1.297340	0.595024
	H308	H	0.282410	1.324796	0.629169
	O309	O	0.601099	0.446363	0.596285
	H310	H	0.602903	0.443443	0.598228
	H311	H	0.583898	0.439377	0.603470
	O312	O	0.664609	0.658998	0.632698
	H313	H	0.669034	0.623064	0.622457
	H314	H	0.681541	0.673572	0.615643
	O315	O	0.671215	0.324664	0.509869
	H316	H	0.675439	0.323660	0.497495
	H317	H	0.677034	0.329237	0.492459
	O318	O	-0.073514	0.948264	1.154052
	H319	H	-0.076364	0.936426	1.135322
	H320	H	-0.079346	0.961273	1.149368
	O321	O	0.357474	0.511557	0.729935
	H322	H	0.365126	0.536649	0.719818
	H323	H	0.342715	0.515041	0.732171
	O324	O	0.402443	0.357611	-0.665452
	H325	H	0.392575	0.344061	-0.656901
	H326	H	0.413888	0.363988	-0.672280
	O327	O	-0.050365	0.962219	-0.036612
	H328	H	-0.066163	0.954456	-0.044311
	H329	H	-0.039013	0.956470	-0.033506
	O330	O	-0.007132	0.124774	1.065566
	H331	H	-0.026987	0.142512	1.065272
	H332	H	-0.002362	0.114997	1.057606
	O333	O	-0.182431	0.114000	0.985914
	H334	H	-0.182635	0.115292	0.972281
	H335	H	-0.196839	0.105628	0.996147
	O336	O	0.258589	1.257977	-0.234566
	H337	H	0.256290	1.278198	-0.224724
	H338	H	0.283322	1.254813	-0.231409
	O339	O	0.934998	-0.156425	0.047325
	H340	H	0.941698	-0.157259	0.060056
	H341	H	0.933054	-0.158254	0.047389
	O342	O	0.003546	-0.076438	0.077324
	H343	H	-0.003622	-0.072746	0.084547
	H344	H	-0.004283	-0.084432	0.082844
	O345	O	0.944495	0.091040	1.048681
	H346	H	0.953883	0.080679	1.056415
	H347	H	0.938856	0.093725	1.044514
	O348	O	0.803597	1.136657	-0.138905
	H349	H	0.806000	1.135909	-0.145283
	H350	H	0.804918	1.126362	-0.138155
	O351	O	0.345460	0.614126	0.411316
	H352	H	0.343633	0.616136	0.439301
	H353	H	0.335212	0.577175	0.399888
	O354	O	0.472738	0.310492	1.435959
	H355	H	0.471710	0.308134	1.460139
	H356	H	0.454379	0.309796	1.445213
	O357	O	0.446799	0.672056	0.340829
	H358	H	0.443588	0.686465	0.312202
	H359	H	0.405267	0.670679	0.352437
	O360	O	1.366239	-0.451890	-0.341527
	H361	H	1.352590	-0.461928	-0.352974
	H362	H	1.377892	-0.431444	-0.341619
	O363	O	-0.130891	0.920319	1.173943
	H364	H	-0.145571	0.909792	1.174516
	H365	H	-0.138016	0.928395	1.163728
	O366	O	0.317884	0.680235	0.484753
	H367	H	0.292251	0.687833	0.478129
	H368	H	0.330873	0.669779	0.481510
	O369	O	0.130090	0.003029	-1.037559
	H370	H	0.137251	0.007252	-1.042302
	H371	H	0.121225	0.007148	-1.038963
	O372	O	0.484072	0.290656	0.707847
	H373	H	0.492780	0.293210	0.708674
	H374	H	0.498023	0.282075	0.721686
	O375	O	0.617620	0.480722	0.592052
	H376	H	0.622098	0.494437	0.595317
	H377	H	0.605792	0.490429	0.595025
	O378	O	1.505887	1.475394	-0.587056
	H379	H	1.510578	1.473738	-0.573386
	H380	H	1.510112	1.477366	-0.592604
	O381	O	1.106985	0.002326	-0.015155
	H382	H	1.113001	0.011595	-0.024388
	H383	H	1.096119	-0.001458	-0.001976
	O384	O	0.940716	1.050709	-0.019856
	H385	H	0.946264	1.071602	-0.035972
	H386	H	0.944850	1.058539	-0.029320
	O387	O	0.948248	0.044439	-0.005951
	H388	H	0.935615	0.051397	-0.005708
	H389	H	0.946970	0.049567	0.001613
	O390	O	0.569736	1.630615	-0.596612
	H391	H	0.550606	1.620589	-0.609659
	H392	H	0.562003	1.627288	-0.599310
	O393	O	1.024157	1.037923	1.113836
	H394	H	1.025522	1.032956	1.125007
	H395	H	1.027497	1.032255	1.121990
	O396	O	0.025179	-0.030896	0.011805
	H397	H	0.019477	-0.042116	0.007600
	H398	H	0.034334	-0.024236	-0.011254
	O399	O	-0.077616	0.945055	1.022494
	H400	H	-0.090310	0.945553	1.033066
	H401	H	-0.076156	0.947034	1.031549
	O402	O	0.610669	0.467394	0.434189
	H403	H	0.608502	0.450882	0.442532
	H404	H	0.620272	0.466945	0.431400
	O405	O	1.103029	0.948288	0.121665
	H406	H	1.111650	0.939287	0.110980
	H407	H	1.101809	0.952057	0.129437
	O408	O	1.660295	1.641171	-0.377415
	H409	H	1.645110	1.652286	-0.400476
	H410	H	1.664024	1.634278	-0.377969
	O411	O	0.982335	0.018549	0.879836
	H412	H	0.987988	0.013762	0.886088
	H413	H	0.984182	0.017774	0.878313
	O414	O	0.553904	0.389567	0.553532
	H415	H	0.565909	0.391995	0.538699
	H416	H	0.547902	0.393099	0.562228
	O417	O	0.475315	0.458553	0.554140
	H418	H	0.455673	0.447595	0.537510
	H419	H	0.475311	0.473320	0.562766
