data_Molecule from HDF5

_cell_length_a		16.227886
_cell_length_b		16.280452
_cell_length_c		16.357113
_cell_angle_alpha	89.832953
_cell_angle_beta	90.024253
_cell_angle_gamma	89.680115
_symmetry_space_group_name_H-M	'P 1'
_symmetry_Int_Tables_number		1

loop_
	_symmetry_equiv_pos_as_xyz
	x,y,z

loop_
	_atom_site_label
	_atom_site_type_symbol
	_atom_site_fract_x
	_atom_site_fract_y
	_atom_site_fract_z
	H0	H	0.404479	0.837556	0.708247
	H1	H	0.604409	0.163644	0.705057
	H2	H	0.604582	0.836880	0.274005
	H3	H	0.402824	0.163369	0.274376
	H4	H	0.721580	0.400410	0.828338
	H5	H	0.718877	0.598691	0.153540
	H6	H	0.288849	0.599814	0.827463
	H7	H	0.290839	0.402836	0.154206
	H8	H	0.841844	0.715964	0.390613
	H9	H	0.169330	0.712210	0.588237
	H10	H	0.840224	0.286591	0.589188
	H11	H	0.168432	0.283878	0.391839
	H12	H	0.841555	0.399178	0.707588
	H13	H	0.167516	0.599789	0.706024
	H14	H	0.841240	0.600387	0.275406
	H15	H	0.168539	0.400389	0.275467
	H16	H	0.403890	0.717348	0.828033
	H17	H	0.601410	0.714202	0.154147
	H18	H	0.605163	0.285307	0.827536
	H19	H	0.406190	0.284839	0.152769
	H20	H	0.720264	0.836137	0.390063
	H21	H	0.718624	0.162824	0.587749
	H22	H	0.291726	0.835197	0.588888
	H23	H	0.287221	0.162859	0.391119
	H24	H	0.905207	0.337734	0.206985
	H25	H	0.104611	0.663425	0.205849
	H26	H	0.108059	0.337228	0.774016
	H27	H	0.901800	0.662847	0.772382
	H28	H	0.221401	0.899449	0.328423
	H29	H	0.219616	0.098078	0.653613
	H30	H	0.790226	0.096804	0.326343
	H31	H	0.789081	0.900294	0.652844
	H32	H	0.340075	0.216471	0.891830
	H33	H	0.668758	0.214122	0.089229
	H34	H	0.339177	0.788433	0.089377
	H35	H	0.668118	0.784753	0.892419
	H36	H	0.340504	0.902015	0.205472
	H37	H	0.667373	0.100783	0.207603
	H38	H	0.340482	0.102062	0.775244
	H39	H	0.668146	0.900106	0.776137
	H40	H	0.903519	0.217010	0.327778
	H41	H	0.103887	0.215468	0.653404
	H42	H	0.105467	0.783900	0.328011
	H43	H	0.904665	0.782830	0.652965
	H44	H	0.220688	0.336851	0.893296
	H45	H	0.217022	0.664607	0.086928
	H46	H	0.791652	0.336175	0.088802
	H47	H	0.787445	0.663257	0.890564
	H48	H	0.414625	0.114385	0.580921
	H49	H	0.599489	0.883017	0.583904
	H50	H	0.596380	0.114008	0.404509
	H51	H	0.412214	0.883937	0.401385
	H52	H	0.604933	0.406686	0.108173
	H53	H	0.592048	0.590246	0.877420
	H54	H	0.409534	0.591209	0.105427
	H55	H	0.403634	0.408467	0.872855
	H56	H	0.123949	0.591360	0.391640
	H57	H	0.889457	0.589264	0.580025
	H58	H	0.123585	0.409710	0.590722
	H59	H	0.889345	0.405342	0.404792
	H60	H	0.122670	0.399682	0.579104
	H61	H	0.887980	0.591130	0.583512
	H62	H	0.123140	0.596612	0.398647
	H63	H	0.890494	0.416473	0.396114
	H64	H	0.412924	0.597091	0.106047
	H65	H	0.593723	0.596897	0.874631
	H66	H	0.594669	0.412752	0.102432
	H67	H	0.414930	0.416097	0.877314
	H68	H	0.602424	0.118642	0.393619
	H69	H	0.594298	0.883515	0.586095
	H70	H	0.408430	0.115782	0.580497
	H71	H	0.409213	0.881741	0.394427
	H72	H	0.918125	0.616571	0.087758
	H73	H	0.097174	0.384013	0.084229
	H74	H	0.094264	0.612179	0.908356
	H75	H	0.907632	0.382026	0.897719
	H76	H	0.098346	0.912724	0.604040
	H77	H	0.091265	0.088976	0.377721
	H78	H	0.913451	0.092506	0.604618
	H79	H	0.920657	0.899930	0.375267
	H80	H	0.623631	0.096907	0.892745
	H81	H	0.388605	0.090381	0.083619
	H82	H	0.619861	0.910146	0.081680
	H83	H	0.389146	0.909880	0.901248
	H84	H	0.621415	0.907363	0.085369
	H85	H	0.386980	0.095268	0.083592
	H86	H	0.619207	0.094916	0.904068
	H87	H	0.388399	0.913312	0.895558
	H88	H	0.909448	0.095147	0.607157
	H89	H	0.095240	0.097829	0.374446
	H90	H	0.090349	0.902278	0.604691
	H91	H	0.903601	0.904934	0.371802
	H92	H	0.106116	0.620297	0.893421
	H93	H	0.098789	0.383864	0.084387
	H94	H	0.911463	0.614572	0.074961
	H95	H	0.919004	0.384555	0.893759
	H96	H	0.411340	0.116696	0.586072
	H97	H	0.595017	0.885333	0.580578
	H98	H	0.589844	0.115398	0.393069
	H99	H	0.416702	0.884069	0.395020
	H100	H	0.593342	0.400435	0.107334
	H101	H	0.598462	0.591499	0.874823
	H102	H	0.406345	0.596673	0.108717
	H103	H	0.416514	0.402029	0.874571
	H104	H	0.120835	0.588382	0.399524
	H105	H	0.888660	0.593479	0.580222
	H106	H	0.116583	0.413929	0.577222
	H107	H	0.884887	0.404622	0.391285
	H108	H	0.904393	0.619618	0.086407
	H109	H	0.098537	0.383679	0.085278
	H110	H	0.086576	0.615489	0.888627
	H111	H	0.916316	0.386687	0.904966
	H112	H	0.103215	0.901365	0.609473
	H113	H	0.100923	0.088903	0.375498
	H114	H	0.908970	0.090359	0.604863
	H115	H	0.914586	0.916774	0.378511
	H116	H	0.619351	0.084962	0.895849
	H117	H	0.389322	0.094299	0.079391
	H118	H	0.620626	0.904905	0.081192
	H119	H	0.385646	0.906763	0.896102
	C120	C	0.382625	0.007950	0.611994
	C121	C	0.625432	0.991568	0.611877
	C122	C	0.625281	0.007903	0.368279
	C123	C	0.382448	0.991219	0.367857
	C124	C	0.627183	0.377614	-0.001314
	C125	C	0.624477	0.621691	0.982820
	C126	C	0.380917	0.623849	-0.000754
	C127	C	0.383248	0.379657	0.982443
	C128	C	0.014055	0.621741	0.367743
	C129	C	0.996525	0.620525	0.610729
	C130	C	0.012971	0.378369	0.612079
	C131	C	0.996134	0.378719	0.368373
	C132	C	0.883024	0.508894	0.112107
	C133	C	0.126108	0.492232	0.112066
	C134	C	0.125625	0.508402	0.868594
	C135	C	0.883392	0.492061	0.868857
	C136	C	0.126409	0.877301	0.498585
	C137	C	0.125394	0.121082	0.483032
	C138	C	0.881828	0.121727	0.497993
	C139	C	0.882932	0.877382	0.482086
	C140	C	0.512706	0.122713	0.868235
	C141	C	0.496349	0.121635	0.111612
	C142	C	0.512334	0.879237	0.111694
	C143	C	0.495847	0.879652	0.869265
	C144	C	0.384684	0.885731	0.668989
	C145	C	0.624362	0.114439	0.667208
	C146	C	0.624446	0.885212	0.312340
	C147	C	0.383261	0.114344	0.312560
	C148	C	0.683308	0.379942	0.876628
	C149	C	0.680764	0.619260	0.104963
	C150	C	0.326223	0.620714	0.876352
	C151	C	0.328434	0.382120	0.105310
	C152	C	0.890709	0.677884	0.369992
	C153	C	0.119935	0.675110	0.608970
	C154	C	0.889403	0.323465	0.610171
	C155	C	0.119532	0.322378	0.371387
	C156	C	0.890081	0.379485	0.668706
	C157	C	0.119123	0.619239	0.667450
	C158	C	0.890530	0.620356	0.312678
	C159	C	0.119728	0.380211	0.313668
	C160	C	0.383209	0.679378	0.876559
	C161	C	0.622502	0.676862	0.105200
	C162	C	0.625557	0.322611	0.876429
	C163	C	0.385712	0.323636	0.104844
	C164	C	0.681439	0.884781	0.370472
	C165	C	0.680655	0.114453	0.608563
	C166	C	0.328499	0.884505	0.609958
	C167	C	0.325969	0.114156	0.370683
	C168	C	0.885305	0.386067	0.168042
	C169	C	0.124398	0.614977	0.167511
	C170	C	0.126411	0.385860	0.812690
	C171	C	0.882738	0.614209	0.811593
	C172	C	0.182518	0.879535	0.376733
	C173	C	0.181734	0.118884	0.604878
	C174	C	0.827364	0.118479	0.375219
	C175	C	0.826836	0.879201	0.604239
	C176	C	0.389513	0.179155	0.870673
	C177	C	0.619810	0.176410	0.109623
	C178	C	0.388639	0.825210	0.109693
	C179	C	0.619054	0.823147	0.871781
	C180	C	0.389373	0.881606	0.167785
	C181	C	0.619011	0.120096	0.168361
	C182	C	0.389712	0.122152	0.812672
	C183	C	0.619117	0.880480	0.813987
	C184	C	0.883699	0.178071	0.376060
	C185	C	0.123702	0.176896	0.604918
	C186	C	0.125257	0.821709	0.376685
	C187	C	0.884659	0.821015	0.604126
	C188	C	0.182437	0.385620	0.871974
	C189	C	0.180255	0.615514	0.108377
	C190	C	0.828842	0.385382	0.109286
	C191	C	0.825920	0.614487	0.870507
	C192	C	0.404845	0.093456	0.589034
	C193	C	0.602735	0.906094	0.589898
	C194	C	0.602709	0.093712	0.390510
	C195	C	0.405874	0.905357	0.390339
	C196	C	0.604416	0.399911	0.084002
	C197	C	0.601560	0.599371	0.897583
	C198	C	0.403103	0.601622	0.084651
	C199	C	0.405275	0.402143	0.897040
	C200	C	0.100289	0.598758	0.389819
	C201	C	0.910914	0.597939	0.587873
	C202	C	0.098622	0.400960	0.589198
	C203	C	0.910427	0.401897	0.390799
	C204	C	0.904863	0.594618	0.089654
	C205	C	0.104448	0.406224	0.090936
	C206	C	0.102317	0.593841	0.890239
	C207	C	0.907299	0.406616	0.892133
	C208	C	0.103924	0.899259	0.584040
	C209	C	0.102446	0.098571	0.397837
	C210	C	0.904059	0.099256	0.583529
	C211	C	0.906218	0.900375	0.397094
	C212	C	0.598682	0.099166	0.890776
	C213	C	0.410617	0.099642	0.088936
	C214	C	0.598293	0.900997	0.089254
	C215	C	0.410022	0.903046	0.891178
	Zn216	Zn	0.504604	0.000754	0.740794
	Zn217	Zn	0.504288	0.000045	0.240028
	Zn218	Zn	0.754434	0.500091	-0.009470
	Zn219	Zn	0.253860	0.500732	-0.009472
	Zn220	Zn	0.005454	0.748615	0.490375
	Zn221	Zn	0.003768	0.250856	0.490625
	Zn222	Zn	0.004554	0.499718	0.739587
	Zn223	Zn	0.005030	0.500508	0.240079
	Zn224	Zn	0.503498	0.751685	-0.008923
	Zn225	Zn	0.504769	0.250169	-0.009760
	Zn226	Zn	0.753473	-0.000727	0.489920
	Zn227	Zn	0.254907	-0.001030	0.490485
	N228	N	0.417694	0.963365	0.670474
	N229	N	0.590747	0.037140	0.669435
	N230	N	0.590468	0.962881	0.310782
	N231	N	0.417527	0.036856	0.310831
	N232	N	0.684464	0.413337	0.953708
	N233	N	0.682086	0.585570	0.027837
	N234	N	0.324535	0.587112	0.953534
	N235	N	0.326899	0.416244	0.028173
	N236	N	0.968432	0.678954	0.403449
	N237	N	0.042706	0.676040	0.574324
	N238	N	0.966640	0.322739	0.575527
	N239	N	0.041734	0.321727	0.404888
	N240	N	0.967879	0.412813	0.670059
	N241	N	0.041500	0.585812	0.668649
	N242	N	0.968337	0.586100	0.311436
	N243	N	0.042025	0.414412	0.311575
	N244	N	0.416421	0.681449	0.953918
	N245	N	0.588076	0.678475	0.028255
	N246	N	0.591285	0.321177	0.953418
	N247	N	0.418957	0.321839	0.027555
	N248	N	0.682150	0.962098	0.404435
	N249	N	0.681713	0.036979	0.575053
	N250	N	0.327188	0.961479	0.575160
	N251	N	0.325347	0.036541	0.404358
	N252	N	0.918426	0.463609	0.169722
	N253	N	0.091397	0.537385	0.169733
	N254	N	0.091458	0.463088	0.810786
	N255	N	0.917667	0.536986	0.810525
	N256	N	0.183572	0.913400	0.453645
	N257	N	0.182853	0.084753	0.528005
	N258	N	0.826116	0.084063	0.452136
	N259	N	0.825700	0.913645	0.527341
	N260	N	0.467166	0.179625	0.904477
	N261	N	0.542473	0.177623	0.074976
	N262	N	0.466050	0.823776	0.075526
	N263	N	0.541422	0.822570	0.905381
	N264	N	0.467240	0.914781	0.169066
	N265	N	0.541348	0.086727	0.169680
	N266	N	0.467305	0.087748	0.811111
	N267	N	0.541482	0.915152	0.812307
	N268	N	0.916654	0.180297	0.453532
	N269	N	0.089384	0.178309	0.528021
	N270	N	0.090971	0.820462	0.453499
	N271	N	0.918974	0.819999	0.527127
	N272	N	0.182202	0.462754	0.905964
	N273	N	0.181395	0.538188	0.074681
	N274	N	0.826946	0.462930	0.075459
	N275	N	0.826254	0.537450	0.905284
	O276	O	0.980500	0.992434	0.056742
	H277	H	0.986050	0.996831	0.059068
	H278	H	0.974400	1.010102	0.064794
	O279	O	-0.115370	-0.037895	0.989627
	H280	H	-0.106822	-0.035606	1.002490
	H281	H	-0.118371	-0.032395	0.989150
	O282	O	-0.036843	-0.039276	-0.115071
	H283	H	-0.043946	-0.050338	-0.101599
	H284	H	-0.016128	-0.051583	-0.111752
	O285	O	0.543006	0.494862	0.564284
	H286	H	0.543020	0.486172	0.570917
	H287	H	0.546352	0.486838	0.558640
	O288	O	-0.010818	0.070068	-0.049665
	H289	H	-0.008868	0.073177	-0.053652
	H290	H	-0.015286	0.079515	-0.065471
	O291	O	-0.002087	1.003057	0.081369
	H292	H	-0.002931	1.005307	0.094088
	H293	H	-0.001124	1.005121	0.083128
	O294	O	0.114740	1.013821	0.045371
	H295	H	0.117695	1.022218	0.049564
	H296	H	0.108925	1.014592	0.033980
	O297	O	0.557906	0.470461	0.537298
	H298	H	0.567450	0.473597	0.536497
	H299	H	0.548442	0.475749	0.539772
	O300	O	0.566396	0.467893	0.495941
	H301	H	0.573053	0.463721	0.490601
	H302	H	0.571324	0.463381	0.497064
	O303	O	0.951929	0.088515	0.971657
	H304	H	0.947715	0.095024	0.962921
	H305	H	0.923297	0.087291	0.970304
	O306	O	0.035397	0.997418	0.849156
	H307	H	0.031874	1.002244	0.834382
	H308	H	0.037283	0.984769	0.845073
	O309	O	0.005147	0.939175	0.971838
	H310	H	0.009769	0.928372	0.969505
	H311	H	0.009724	0.932871	0.980639
	O312	O	0.008998	-0.026788	0.968367
	H313	H	0.016768	-0.036584	0.968765
	H314	H	0.002865	-0.036117	0.972061
	O315	O	0.500563	0.472804	0.506301
	H316	H	0.503902	0.472816	0.500890
	H317	H	0.504305	0.476413	0.502486
	O318	O	-0.019152	-0.063188	1.037490
	H319	H	-0.024230	-0.063029	1.043945
	H320	H	-0.025637	-0.051344	1.039795
	O321	O	0.538449	0.470163	0.522342
	H322	H	0.538242	0.473158	0.520868
	H323	H	0.532417	0.475979	0.526427
	O324	O	0.961488	0.073222	0.983431
	H325	H	0.971790	0.087176	0.991384
	H326	H	0.970183	0.074394	0.968823
	O327	O	0.976811	1.084449	0.919644
	H328	H	0.972298	1.072844	0.916025
	H329	H	0.975464	1.079351	0.923768
	O330	O	0.523277	0.495149	0.581711
	H331	H	0.514815	0.492062	0.580164
	H332	H	0.519746	0.493474	0.586707
	O333	O	0.076609	0.060724	1.083906
	H334	H	0.074108	0.069108	1.076748
	H335	H	0.087709	0.052467	1.079181
	O336	O	1.042405	0.050724	0.964525
	H337	H	1.039643	0.055954	0.963991
	H338	H	1.044859	0.048672	0.962221
	O339	O	0.534062	0.482449	0.473381
	H340	H	0.544307	0.481196	0.467851
	H341	H	0.536579	0.479390	0.477514
	O342	O	0.081249	1.034477	0.084744
	H343	H	0.097480	1.042030	0.084533
	H344	H	0.082558	1.028592	0.081064
	O345	O	0.544443	0.550190	0.537568
	H346	H	0.543170	0.556633	0.542792
	H347	H	0.549787	0.551615	0.540831
