data_Molecule from HDF5

_cell_length_a		16.280978
_cell_length_b		16.341001
_cell_length_c		16.257092
_cell_angle_alpha	89.989403
_cell_angle_beta	90.121237
_cell_angle_gamma	89.816549
_symmetry_space_group_name_H-M	'P 1'
_symmetry_Int_Tables_number		1

loop_
	_symmetry_equiv_pos_as_xyz
	x,y,z

loop_
	_atom_site_label
	_atom_site_type_symbol
	_atom_site_fract_x
	_atom_site_fract_y
	_atom_site_fract_z
	H0	H	0.407749	0.838814	0.704754
	H1	H	0.604336	0.165073	0.706995
	H2	H	0.603200	0.837944	0.277813
	H3	H	0.404638	0.164180	0.273131
	H4	H	0.721165	0.403225	0.827488
	H5	H	0.720317	0.600510	0.154750
	H6	H	0.290554	0.601373	0.827659
	H7	H	0.291536	0.402822	0.154745
	H8	H	0.842211	0.719199	0.391675
	H9	H	0.168982	0.718744	0.589628
	H10	H	0.841431	0.289663	0.590744
	H11	H	0.167978	0.286237	0.390863
	H12	H	0.842129	0.407600	0.705170
	H13	H	0.169840	0.602949	0.705654
	H14	H	0.842744	0.603012	0.276109
	H15	H	0.170081	0.406550	0.279025
	H16	H	0.406482	0.717233	0.827190
	H17	H	0.604703	0.716735	0.154027
	H18	H	0.606156	0.286616	0.827247
	H19	H	0.405459	0.286106	0.153868
	H20	H	0.721530	0.839782	0.392215
	H21	H	0.719054	0.166329	0.589829
	H22	H	0.290945	0.839501	0.589167
	H23	H	0.289162	0.165264	0.390227
	H24	H	0.908243	0.340496	0.206830
	H25	H	0.104946	0.666403	0.206090
	H26	H	0.105937	0.341035	0.774244
	H27	H	0.907084	0.667238	0.777637
	H28	H	0.218183	0.905950	0.326524
	H29	H	0.222187	0.103071	0.653898
	H30	H	0.789153	0.102625	0.327370
	H31	H	0.792295	0.906283	0.655395
	H32	H	0.342312	0.219027	0.889499
	H33	H	0.668617	0.217260	0.091339
	H34	H	0.342915	0.787031	0.090149
	H35	H	0.669386	0.787121	0.892441
	H36	H	0.341494	0.904643	0.203690
	H37	H	0.669403	0.099331	0.205605
	H38	H	0.341969	0.100453	0.775521
	H39	H	0.669866	0.903512	0.777754
	H40	H	0.904615	0.218861	0.327444
	H41	H	0.103081	0.217324	0.655303
	H42	H	0.105448	0.787748	0.327763
	H43	H	0.907056	0.789869	0.654622
	H44	H	0.220870	0.339589	0.892076
	H45	H	0.221635	0.666139	0.090066
	H46	H	0.791994	0.339783	0.090735
	H47	H	0.789177	0.665952	0.892468
	H48	H	0.413791	0.117270	0.582409
	H49	H	0.607883	0.882167	0.592136
	H50	H	0.595334	0.119660	0.391353
	H51	H	0.405802	0.886943	0.406043
	H52	H	0.606035	0.410226	0.108973
	H53	H	0.597955	0.585168	0.876787
	H54	H	0.409767	0.593095	0.108023
	H55	H	0.419409	0.410469	0.876302
	H56	H	0.123368	0.591286	0.389521
	H57	H	0.886455	0.603650	0.587534
	H58	H	0.121204	0.404331	0.574481
	H59	H	0.888570	0.404167	0.403407
	H60	H	0.117773	0.420176	0.581279
	H61	H	0.890731	0.598253	0.577899
	H62	H	0.125312	0.607348	0.397738
	H63	H	0.892353	0.419546	0.401879
	H64	H	0.417579	0.592976	0.105577
	H65	H	0.589521	0.599756	0.875350
	H66	H	0.594757	0.413654	0.104996
	H67	H	0.412840	0.404541	0.872750
	H68	H	0.592208	0.114924	0.401673
	H69	H	0.587037	0.889336	0.587307
	H70	H	0.413893	0.117356	0.582460
	H71	H	0.407626	0.882839	0.388854
	H72	H	0.920418	0.614950	0.077134
	H73	H	0.104450	0.387026	0.080414
	H74	H	0.097069	0.620544	0.894746
	H75	H	0.910443	0.387534	0.900114
	H76	H	0.103573	0.912493	0.608533
	H77	H	0.100162	0.099483	0.372265
	H78	H	0.916463	0.095098	0.605776
	H79	H	0.912503	0.911493	0.374273
	H80	H	0.621118	0.103579	0.907308
	H81	H	0.388613	0.091713	0.087972
	H82	H	0.620908	0.904079	0.075939
	H83	H	0.393781	0.920202	0.903232
	H84	H	0.620154	0.916447	0.084480
	H85	H	0.387086	0.101870	0.081802
	H86	H	0.617017	0.083980	0.902543
	H87	H	0.386015	0.908611	0.886280
	H88	H	0.912791	0.101932	0.608658
	H89	H	0.098709	0.090396	0.376278
	H90	H	0.094556	0.915772	0.604948
	H91	H	0.912579	0.911354	0.374290
	H92	H	0.097420	0.616059	0.902377
	H93	H	0.098527	0.386254	0.090037
	H94	H	0.901846	0.620531	0.079689
	H95	H	0.914417	0.386790	0.893981
	H96	H	0.413508	0.117469	0.581961
	H97	H	0.602928	0.889150	0.571279
	H98	H	0.602925	0.118353	0.400214
	H99	H	0.421495	0.889551	0.398074
	H100	H	0.597318	0.402203	0.108963
	H101	H	0.605995	0.598993	0.870305
	H102	H	0.414481	0.599652	0.108800
	H103	H	0.409966	0.413919	0.874964
	H104	H	0.119073	0.593249	0.407561
	H105	H	0.889668	0.592603	0.587683
	H106	H	0.124396	0.407380	0.591138
	H107	H	0.887152	0.411009	0.389142
	H108	H	0.914280	0.621502	0.094048
	H109	H	0.093400	0.390026	0.081454
	H110	H	0.104481	0.620558	0.898986
	H111	H	0.917364	0.388868	0.900108
	H112	H	0.095457	0.905733	0.607827
	H113	H	0.091233	0.097895	0.375774
	H114	H	0.907760	0.095012	0.608686
	H115	H	0.912869	0.911328	0.374071
	H116	H	0.625771	0.096435	0.888184
	H117	H	0.392480	0.091773	0.076486
	H118	H	0.625894	0.903958	0.090647
	H119	H	0.388861	0.899474	0.905525
	C120	C	0.384682	0.010146	0.611548
	C121	C	0.627767	0.994299	0.613258
	C122	C	0.626462	0.010222	0.369251
	C123	C	0.382809	0.993768	0.368173
	C124	C	0.628195	0.379777	-0.000723
	C125	C	0.626880	0.623435	0.982258
	C126	C	0.384824	0.624022	-0.000583
	C127	C	0.384796	0.380886	0.982537
	C128	C	0.014679	0.626017	0.369411
	C129	C	0.997148	0.626433	0.612812
	C130	C	0.013455	0.382567	0.611996
	C131	C	0.997347	0.382423	0.369563
	C132	C	0.884489	0.511322	0.112762
	C133	C	0.127936	0.495363	0.112719
	C134	C	0.128715	0.511676	0.869041
	C135	C	0.884743	0.495518	0.869847
	C136	C	0.126728	0.882357	0.499103
	C137	C	0.126322	0.125245	0.482709
	C138	C	0.883015	0.125782	0.499492
	C139	C	0.884580	0.883183	0.482613
	C140	C	0.513541	0.124040	0.869446
	C141	C	0.497402	0.123126	0.111844
	C142	C	0.514148	0.880292	0.112281
	C143	C	0.497527	0.880257	0.869803
	C144	C	0.386615	0.887729	0.667518
	C145	C	0.624693	0.116767	0.668729
	C146	C	0.624051	0.887081	0.315019
	C147	C	0.384511	0.116108	0.311774
	C148	C	0.683323	0.382497	0.876374
	C149	C	0.682176	0.620826	0.105703
	C150	C	0.329007	0.621581	0.876320
	C151	C	0.329397	0.382821	0.105717
	C152	C	0.891097	0.681109	0.371369
	C153	C	0.120312	0.681015	0.610312
	C154	C	0.890457	0.327906	0.610438
	C155	C	0.119681	0.325398	0.371170
	C156	C	0.890940	0.385890	0.667823
	C157	C	0.120605	0.623438	0.667942
	C158	C	0.891297	0.623336	0.314280
	C159	C	0.120588	0.384826	0.315103
	C160	C	0.386454	0.679350	0.876254
	C161	C	0.624896	0.678422	0.105329
	C162	C	0.625697	0.324904	0.876284
	C163	C	0.385823	0.324754	0.105371
	C164	C	0.682552	0.887885	0.372045
	C165	C	0.681765	0.117370	0.610413
	C166	C	0.328818	0.887943	0.609916
	C167	C	0.326961	0.116470	0.369758
	C168	C	0.887838	0.388981	0.168658
	C169	C	0.125432	0.617822	0.167936
	C170	C	0.126271	0.389456	0.812736
	C171	C	0.886502	0.618243	0.815016
	C172	C	0.181141	0.884967	0.375734
	C173	C	0.183078	0.123588	0.605411
	C174	C	0.826811	0.123501	0.376428
	C175	C	0.830036	0.885949	0.606207
	C176	C	0.390893	0.180309	0.870002
	C177	C	0.620066	0.178746	0.110829
	C178	C	0.391325	0.825138	0.109891
	C179	C	0.620455	0.824820	0.871730
	C180	C	0.390430	0.883609	0.166411
	C181	C	0.620339	0.120548	0.167920
	C182	C	0.390721	0.121335	0.813501
	C183	C	0.620662	0.882868	0.814833
	C184	C	0.884535	0.180986	0.376374
	C185	C	0.124302	0.180538	0.605941
	C186	C	0.124770	0.826621	0.376255
	C187	C	0.886929	0.827832	0.605887
	C188	C	0.183406	0.388732	0.871256
	C189	C	0.184007	0.617458	0.110803
	C190	C	0.830393	0.388251	0.110614
	C191	C	0.827996	0.617615	0.872270
	C192	C	0.407081	0.095266	0.588845
	C193	C	0.605853	0.908908	0.590322
	C194	C	0.603567	0.095705	0.391253
	C195	C	0.405158	0.908630	0.390991
	C196	C	0.605786	0.402017	0.085456
	C197	C	0.604388	0.601135	0.896262
	C198	C	0.407337	0.601756	0.085360
	C199	C	0.407483	0.403120	0.896848
	C200	C	0.100196	0.604123	0.391772
	C201	C	0.911288	0.604764	0.590806
	C202	C	0.099101	0.404265	0.588983
	C203	C	0.911450	0.405003	0.391694
	C204	C	0.905869	0.596732	0.090226
	C205	C	0.105533	0.409930	0.090398
	C206	C	0.106319	0.597005	0.891905
	C207	C	0.907443	0.409918	0.891798
	C208	C	0.104644	0.904753	0.584836
	C209	C	0.103385	0.102613	0.397024
	C210	C	0.905714	0.103675	0.585401
	C211	C	0.906287	0.905006	0.396529
	C212	C	0.599209	0.101351	0.892608
	C213	C	0.411688	0.101428	0.088903
	C214	C	0.600123	0.902038	0.090387
	C215	C	0.411688	0.902648	0.891972
	Zn216	Zn	0.505821	0.001889	0.741332
	Zn217	Zn	0.505064	0.001515	0.240115
	Zn218	Zn	0.755182	0.502102	-0.008635
	Zn219	Zn	0.257258	0.502271	-0.008491
	Zn220	Zn	0.005310	0.754442	0.491092
	Zn221	Zn	0.004646	0.253624	0.490923
	Zn222	Zn	0.006134	0.504387	0.740610
	Zn223	Zn	0.005860	0.504255	0.241507
	Zn224	Zn	0.506114	0.752213	-0.009094
	Zn225	Zn	0.505335	0.252248	-0.009078
	Zn226	Zn	0.755689	0.003103	0.490782
	Zn227	Zn	0.254892	0.002886	0.490825
	N228	N	0.420921	0.964530	0.668472
	N229	N	0.591910	0.039275	0.670604
	N230	N	0.589695	0.964193	0.313344
	N231	N	0.418373	0.038898	0.310498
	N232	N	0.684716	0.415977	0.953881
	N233	N	0.683209	0.586895	0.028211
	N234	N	0.328037	0.588026	0.953825
	N235	N	0.328870	0.417217	0.028352
	N236	N	0.968730	0.683171	0.405102
	N237	N	0.042621	0.683104	0.576820
	N238	N	0.967741	0.325471	0.576562
	N239	N	0.041868	0.323683	0.404060
	N240	N	0.968538	0.419220	0.668766
	N241	N	0.043140	0.590141	0.669435
	N242	N	0.968782	0.589794	0.312928
	N243	N	0.043473	0.419501	0.314112
	N244	N	0.420499	0.680810	0.953798
	N245	N	0.591443	0.680185	0.027617
	N246	N	0.592306	0.322948	0.954026
	N247	N	0.419606	0.323454	0.027899
	N248	N	0.684199	0.965426	0.405013
	N249	N	0.683645	0.040179	0.576453
	N250	N	0.327263	0.965059	0.575985
	N251	N	0.325954	0.039676	0.404247
	N252	N	0.920568	0.466583	0.170064
	N253	N	0.091591	0.540870	0.169482
	N254	N	0.092773	0.466843	0.811387
	N255	N	0.921236	0.541485	0.813583
	N256	N	0.182311	0.919152	0.453150
	N257	N	0.184642	0.090099	0.527891
	N258	N	0.825911	0.089622	0.454021
	N259	N	0.828489	0.919528	0.528777
	N260	N	0.468354	0.182046	0.903833
	N261	N	0.542670	0.180586	0.076561
	N262	N	0.469145	0.822904	0.077041
	N263	N	0.543001	0.823205	0.905249
	N264	N	0.467658	0.917349	0.167729
	N265	N	0.542994	0.086683	0.168596
	N266	N	0.468085	0.087295	0.812942
	N267	N	0.543235	0.916772	0.813538
	N268	N	0.918457	0.182451	0.453751
	N269	N	0.089663	0.181440	0.528485
	N270	N	0.091662	0.824892	0.453925
	N271	N	0.920147	0.826018	0.528097
	N272	N	0.184960	0.465635	0.905603
	N273	N	0.185256	0.540277	0.076790
	N274	N	0.827923	0.465232	0.076688
	N275	N	0.826752	0.540137	0.905565
	O276	O	1.016606	1.053538	0.073475
	H277	H	1.016442	1.057669	0.070979
	H278	H	1.009038	1.051489	0.068082
	O279	O	-0.052642	0.020326	0.995001
	H280	H	-0.057502	0.010696	0.995873
	H281	H	-0.053209	0.020764	0.989511
	O282	O	-0.039741	-0.017673	-0.061394
	H283	H	-0.046532	-0.012264	-0.052118
	H284	H	-0.034300	-0.010013	-0.053252
	O285	O	0.506332	0.416521	0.494949
	H286	H	0.516019	0.411111	0.497200
	H287	H	0.504085	0.409137	0.501995
	O288	O	0.052263	0.007144	0.036275
	H289	H	0.053676	0.007196	0.031515
	H290	H	0.048661	0.015806	0.040134
	O291	O	0.005252	0.956902	0.001108
	H292	H	-0.003634	0.951132	0.006978
	H293	H	0.002227	0.957508	-0.003405
	O294	O	-0.033794	1.068289	-0.054495
	H295	H	-0.038871	1.064795	-0.058909
	H296	H	-0.033525	1.074105	-0.045113
	O297	O	0.494546	0.477542	0.516085
	H298	H	0.485322	0.476613	0.514199
	H299	H	0.488349	0.474271	0.526015
	O300	O	0.455983	0.417735	0.481461
	H301	H	0.460730	0.420797	0.477663
	H302	H	0.465266	0.415308	0.472703
	O303	O	1.017114	0.031882	0.970260
	H304	H	1.013324	0.036818	0.967787
	H305	H	1.019289	0.033243	0.964528
	O306	O	0.047239	1.043428	1.012753
	H307	H	0.044726	1.052334	1.020582
	H308	H	0.055018	1.032994	1.009048
	O309	O	0.045603	0.957951	0.952898
	H310	H	0.048501	0.950342	0.956084
	H311	H	0.049255	0.953378	0.952334
	O312	O	0.043751	0.014666	1.038074
	H313	H	0.051183	0.016204	1.044782
	H314	H	0.040247	0.004598	1.031871
	O315	O	0.486417	0.490570	0.574068
	H316	H	0.480031	0.482085	0.578785
	H317	H	0.485022	0.490272	0.583461
	O318	O	0.109121	0.024041	0.954242
	H319	H	0.105642	0.024707	0.956332
	H320	H	0.106346	0.024996	0.948433
	O321	O	0.505950	0.442361	0.497744
	H322	H	0.501948	0.435537	0.503473
	H323	H	0.510740	0.442533	0.495136
	O324	O	0.994026	-0.030092	1.005251
	H325	H	0.996691	-0.022710	1.018098
	H326	H	0.988447	-0.035075	1.002448
	O327	O	0.970131	1.048852	0.950853
	H328	H	0.976573	1.054224	0.944841
	H329	H	0.980680	1.044654	0.951997
	O330	O	0.433241	0.484199	0.570788
	H331	H	0.431700	0.475184	0.565121
	H332	H	0.419783	0.491950	0.580009
	O333	O	0.048352	-0.012754	0.931072
	H334	H	0.053769	-0.008759	0.926988
	H335	H	0.059318	-0.015211	0.934369
	O336	O	0.570072	0.450239	0.499628
	H337	H	0.570872	0.452462	0.503685
	H338	H	0.565754	0.455002	0.506969
	O339	O	0.486251	0.501068	0.528577
	H340	H	0.495305	0.495606	0.521915
	H341	H	0.487360	0.506360	0.525533
	O342	O	0.424377	0.377314	0.553262
	H343	H	0.423778	0.369477	0.550654
	H344	H	0.420021	0.368519	0.539643
	O345	O	0.581611	0.490749	0.448148
	H346	H	0.584193	0.498213	0.451388
	H347	H	0.587091	0.489704	0.456179
