data_Molecule from HDF5

_cell_length_a		16.497461
_cell_length_b		16.480753
_cell_length_c		16.547715
_cell_angle_alpha	89.928085
_cell_angle_beta	90.221549
_cell_angle_gamma	89.962264
_symmetry_space_group_name_H-M	'P 1'
_symmetry_Int_Tables_number		1

loop_
	_symmetry_equiv_pos_as_xyz
	x,y,z

loop_
	_atom_site_label
	_atom_site_type_symbol
	_atom_site_fract_x
	_atom_site_fract_y
	_atom_site_fract_z
	H0	H	0.371415	0.837411	0.697772
	H1	H	0.585754	0.151494	0.702346
	H2	H	0.579350	0.836116	0.258507
	H3	H	0.367838	0.151123	0.252741
	H4	H	0.700538	0.386336	0.820560
	H5	H	0.697366	0.598244	0.133874
	H6	H	0.254449	0.598642	0.819469
	H7	H	0.256818	0.389627	0.134974
	H8	H	0.818471	0.717539	0.371047
	H9	H	0.131323	0.717181	0.583188
	H10	H	0.818369	0.271992	0.584239
	H11	H	0.134118	0.275297	0.374904
	H12	H	0.817920	0.388601	0.699579
	H13	H	0.131073	0.603329	0.701777
	H14	H	0.819590	0.601761	0.253162
	H15	H	0.134467	0.391756	0.258894
	H16	H	0.371487	0.714599	0.818676
	H17	H	0.579565	0.713636	0.133865
	H18	H	0.584400	0.269917	0.820612
	H19	H	0.371384	0.271269	0.132724
	H20	H	0.696308	0.837525	0.373984
	H21	H	0.699974	0.152802	0.586069
	H22	H	0.255102	0.837607	0.581562
	H23	H	0.252502	0.151681	0.370437
	H24	H	0.871605	0.336707	0.198836
	H25	H	0.079062	0.652834	0.195812
	H26	H	0.081945	0.336508	0.754730
	H27	H	0.869961	0.651778	0.756134
	H28	H	0.195736	0.889687	0.321562
	H29	H	0.198542	0.100424	0.633958
	H30	H	0.753989	0.099839	0.320069
	H31	H	0.754106	0.889888	0.635291
	H32	H	0.317904	0.215473	0.871481
	H33	H	0.634411	0.213440	0.080628
	H34	H	0.316895	0.777156	0.075954
	H35	H	0.633716	0.773308	0.871822
	H36	H	0.317676	0.891396	0.195015
	H37	H	0.633259	0.099196	0.199157
	H38	H	0.318411	0.100855	0.754279
	H39	H	0.633670	0.889289	0.755281
	H40	H	0.871732	0.215289	0.319475
	H41	H	0.081842	0.216755	0.635038
	H42	H	0.078415	0.774188	0.321711
	H43	H	0.868333	0.772180	0.634076
	H44	H	0.195633	0.334858	0.873750
	H45	H	0.195679	0.652116	0.078973
	H46	H	0.755576	0.335960	0.081785
	H47	H	0.755168	0.651440	0.872430
	H48	H	0.394433	0.105833	0.564984
	H49	H	0.566922	0.884395	0.561973
	H50	H	0.561527	0.106419	0.388819
	H51	H	0.386657	0.882067	0.386126
	H52	H	0.568457	0.405398	0.088547
	H53	H	0.566641	0.576667	0.865996
	H54	H	0.384436	0.581462	0.088717
	H55	H	0.381021	0.406763	0.863271
	H56	H	0.084759	0.580203	0.391697
	H57	H	0.864736	0.577116	0.568045
	H58	H	0.088815	0.404675	0.568317
	H59	H	0.863673	0.409125	0.386345
	H60	H	0.085217	0.406404	0.562901
	H61	H	0.860261	0.586510	0.570102
	H62	H	0.090168	0.583846	0.381982
	H63	H	0.861800	0.404907	0.384035
	H64	H	0.390354	0.585428	0.087780
	H65	H	0.559750	0.588161	0.864316
	H66	H	0.563928	0.408185	0.086554
	H67	H	0.389890	0.408584	0.866304
	H68	H	0.563533	0.107534	0.388985
	H69	H	0.566942	0.881873	0.569559
	H70	H	0.385788	0.105508	0.559435
	H71	H	0.385866	0.882361	0.388137
	H72	H	0.886129	0.605638	0.061738
	H73	H	0.071330	0.379507	0.065679
	H74	H	0.060917	0.602318	0.894886
	H75	H	0.888490	0.382724	0.888818
	H76	H	0.063160	0.903457	0.591242
	H77	H	0.060337	0.088107	0.366689
	H78	H	0.891193	0.081311	0.586643
	H79	H	0.887867	0.911040	0.367839
	H80	H	0.585476	0.077722	0.891471
	H81	H	0.364931	0.087407	0.058419
	H82	H	0.588346	0.907073	0.066228
	H83	H	0.362247	0.906579	0.881048
	H84	H	0.591234	0.904242	0.072246
	H85	H	0.366535	0.074269	0.063846
	H86	H	0.588958	0.081044	0.884377
	H87	H	0.362292	0.899847	0.887299
	H88	H	0.887942	0.088888	0.590231
	H89	H	0.068875	0.087368	0.363317
	H90	H	0.068679	0.907470	0.591399
	H91	H	0.887860	0.902655	0.365932
	H92	H	0.073570	0.608750	0.889441
	H93	H	0.065721	0.379128	0.073752
	H94	H	0.884538	0.608088	0.067808
	H95	H	0.889361	0.381732	0.889173
	H96	H	0.385580	0.109646	0.568645
	H97	H	0.559995	0.885559	0.566308
	H98	H	0.562598	0.107050	0.387471
	H99	H	0.384200	0.881351	0.386685
	H100	H	0.562918	0.402517	0.088266
	H101	H	0.572392	0.587149	0.860571
	H102	H	0.384625	0.588775	0.090992
	H103	H	0.387665	0.399626	0.863476
	H104	H	0.088783	0.590753	0.391177
	H105	H	0.864086	0.584562	0.560332
	H106	H	0.085734	0.410456	0.567571
	H107	H	0.863705	0.404585	0.389021
	H108	H	0.890954	0.605194	0.066741
	H109	H	0.062026	0.383141	0.064919
	H110	H	0.061058	0.607588	0.880903
	H111	H	0.888893	0.381938	0.889663
	H112	H	0.062979	0.910131	0.588659
	H113	H	0.064765	0.080278	0.367046
	H114	H	0.883428	0.081322	0.589866
	H115	H	0.881082	0.907567	0.364744
	H116	H	0.588474	0.085916	0.891569
	H117	H	0.360625	0.084774	0.071521
	H118	H	0.589775	0.900114	0.066781
	H119	H	0.365248	0.908123	0.889558
	C120	C	0.355916	0.003039	0.597029
	C121	C	0.598029	0.987302	0.599281
	C122	C	0.595346	0.002785	0.357043
	C123	C	0.352942	0.985887	0.354370
	C124	C	0.597819	0.372416	-0.015548
	C125	C	0.597815	0.615690	0.967767
	C126	C	0.354352	0.616220	-0.015200
	C127	C	0.354988	0.373019	0.968499
	C128	C	-0.015918	0.617251	0.355496
	C129	C	0.966420	0.616017	0.598917
	C130	C	-0.016612	0.373827	0.598892
	C131	C	0.967650	0.374332	0.355773
	C132	C	0.855051	0.502443	0.098335
	C133	C	0.097643	0.485642	0.098513
	C134	C	0.097525	0.502187	0.855576
	C135	C	0.855668	0.485905	0.856462
	C136	C	0.096161	0.874701	0.486359
	C137	C	0.097397	0.117401	0.469425
	C138	C	0.854480	0.116466	0.485566
	C139	C	0.853277	0.874085	0.469612
	C140	C	0.483900	0.115384	0.855663
	C141	C	0.467727	0.114979	0.097533
	C142	C	0.484577	0.872903	0.097975
	C143	C	0.467631	0.873096	0.854466
	C144	C	0.353176	0.884703	0.657591
	C145	C	0.602527	0.104853	0.661336
	C146	C	0.597531	0.883828	0.298353
	C147	C	0.349930	0.104012	0.293368
	C148	C	0.659593	0.368522	0.867329
	C149	C	0.657480	0.617000	0.086536
	C150	C	0.294442	0.617424	0.866593
	C151	C	0.296053	0.370780	0.087221
	C152	C	0.865668	0.677223	0.352689
	C153	C	0.084313	0.677036	0.601744
	C154	C	0.865448	0.312559	0.601874
	C155	C	0.086785	0.315277	0.355827
	C156	C	0.865277	0.370468	0.659529
	C157	C	0.084176	0.620127	0.660515
	C158	C	0.866232	0.619892	0.294130
	C159	C	0.087117	0.373326	0.298209
	C160	C	0.352713	0.675078	0.866111
	C161	C	0.599280	0.674755	0.086376
	C162	C	0.601353	0.310989	0.867113
	C163	C	0.353218	0.312282	0.086404
	C164	C	0.655875	0.884467	0.355805
	C165	C	0.659673	0.105268	0.603373
	C166	C	0.295535	0.884619	0.599693
	C167	C	0.292591	0.104354	0.351796
	C168	C	0.853133	0.383831	0.158504
	C169	C	0.098144	0.605487	0.156148
	C170	C	0.099785	0.383703	0.795035
	C171	C	0.852444	0.604415	0.796425
	C172	C	0.155974	0.871651	0.368551
	C173	C	0.157935	0.118839	0.587343
	C174	C	0.794074	0.118640	0.367080
	C175	C	0.793565	0.871630	0.587865
	C176	C	0.365393	0.175476	0.853169
	C177	C	0.586607	0.174530	0.099751
	C178	C	0.364806	0.815587	0.096562
	C179	C	0.586464	0.813518	0.853382
	C180	C	0.365202	0.872423	0.155640
	C181	C	0.586183	0.117663	0.158546
	C182	C	0.365828	0.118701	0.794487
	C183	C	0.586283	0.870962	0.795165
	C184	C	0.852670	0.175912	0.366820
	C185	C	0.099872	0.176762	0.587674
	C186	C	0.097768	0.814330	0.368599
	C187	C	0.850818	0.813234	0.587379
	C188	C	0.156285	0.382724	0.854487
	C189	C	0.156122	0.604959	0.098498
	C190	C	0.795312	0.383580	0.100384
	C191	C	0.794860	0.604313	0.853784
	C192	C	0.381302	0.085269	0.571646
	C193	C	0.572111	0.905382	0.573380
	C194	C	0.569983	0.085481	0.381572
	C195	C	0.378306	0.903410	0.379752
	C196	C	0.572334	0.397999	0.066458
	C197	C	0.573447	0.591023	0.885179
	C198	C	0.379227	0.592042	0.067577
	C199	C	0.379274	0.397893	0.885753
	C200	C	0.066576	0.592127	0.381132
	C201	C	0.884414	0.590123	0.573442
	C202	C	0.065238	0.399755	0.573466
	C203	C	0.884652	0.398985	0.379609
	C204	C	0.879991	0.584898	0.072876
	C205	C	0.073371	0.402254	0.075009
	C206	C	0.072443	0.584677	0.881006
	C207	C	0.881410	0.403380	0.882083
	C208	C	0.071678	0.899860	0.568810
	C209	C	0.071785	0.092474	0.386928
	C210	C	0.880177	0.091066	0.567540
	C211	C	0.878435	0.899768	0.387577
	C212	C	0.566320	0.089146	0.881766
	C213	C	0.385616	0.089573	0.071815
	C214	C	0.568066	0.896777	0.074843
	C215	C	0.384857	0.897813	0.878775
	Zn216	Zn	0.476188	-0.004565	0.726738
	Zn217	Zn	0.475504	-0.005637	0.226762
	Zn218	Zn	0.726458	0.493560	-0.023607
	Zn219	Zn	0.226111	0.493326	-0.023120
	Zn220	Zn	-0.025315	0.745344	0.477802
	Zn221	Zn	-0.024874	0.245656	0.477471
	Zn222	Zn	-0.024936	0.494532	0.727898
	Zn223	Zn	-0.023527	0.495245	0.227212
	Zn224	Zn	0.476248	0.744606	-0.023994
	Zn225	Zn	0.476355	0.244278	-0.023813
	Zn226	Zn	0.725048	-0.004028	0.477638
	Zn227	Zn	0.225793	-0.004802	0.477612
	N228	N	0.390332	0.959175	0.655787
	N229	N	0.564940	0.030499	0.659160
	N230	N	0.560420	0.958368	0.299246
	N231	N	0.386692	0.029336	0.294925
	N232	N	0.657318	0.406255	0.941264
	N233	N	0.656888	0.581210	0.011588
	N234	N	0.295164	0.581707	0.941480
	N235	N	0.297150	0.407930	0.012723
	N236	N	0.939957	0.675678	0.390054
	N237	N	0.010351	0.674216	0.563685
	N238	N	0.939764	0.314483	0.564696
	N239	N	0.011410	0.315564	0.390831
	N240	N	0.939504	0.407946	0.657570
	N241	N	0.009928	0.582712	0.658752
	N242	N	0.941159	0.583484	0.295677
	N243	N	0.011918	0.409235	0.298140
	N244	N	0.389180	0.674608	0.940714
	N245	N	0.562908	0.674083	0.011554
	N246	N	0.563802	0.313334	0.940974
	N247	N	0.388924	0.313569	0.011668
	N248	N	0.654424	0.959487	0.391948
	N249	N	0.657052	0.031222	0.565498
	N250	N	0.297040	0.959264	0.562789
	N251	N	0.294223	0.029871	0.389104
	N252	N	0.889449	0.458818	0.157462
	N253	N	0.062573	0.530127	0.156432
	N254	N	0.064073	0.459120	0.795561
	N255	N	0.889402	0.529769	0.798062
	N256	N	0.155114	0.908408	0.442962
	N257	N	0.156792	0.083014	0.512486
	N258	N	0.794643	0.082748	0.442010
	N259	N	0.794979	0.908835	0.513711
	N260	N	0.440007	0.173619	0.890265
	N261	N	0.511981	0.173050	0.062475
	N262	N	0.440239	0.815675	0.061600
	N263	N	0.511766	0.814660	0.889547
	N264	N	0.440783	0.907152	0.156654
	N265	N	0.511213	0.081681	0.157708
	N266	N	0.440817	0.082024	0.796018
	N267	N	0.511430	0.907382	0.795721
	N268	N	0.889212	0.174789	0.441435
	N269	N	0.063037	0.176006	0.513150
	N270	N	0.061181	0.816091	0.442864
	N271	N	0.887154	0.814493	0.512749
	N272	N	0.155015	0.457292	0.891461
	N273	N	0.155834	0.529450	0.063555
	N274	N	0.796403	0.458379	0.063570
	N275	N	0.796873	0.529610	0.890827
	O276	O	0.501389	0.709662	0.688454
	H277	H	0.497807	0.730513	0.695978
	H278	H	0.510810	0.702328	0.692921
	O279	O	0.671506	0.599498	0.503897
	H280	H	0.663393	0.591964	0.499268
	H281	H	0.674483	0.627407	0.516867
	O282	O	0.802371	1.034572	-0.013550
	H283	H	0.814336	1.023651	-0.022991
	H284	H	0.785148	1.047947	-0.010958
	O285	O	1.188255	0.020972	1.190256
	H286	H	1.186573	0.050384	1.195166
	H287	H	1.205277	0.038268	1.207621
	O288	O	0.230057	-0.257319	0.230870
	H289	H	0.227331	-0.261216	0.222162
	H290	H	0.202963	-0.237087	0.206920
	O291	O	1.254214	1.608586	0.415723
	H292	H	1.249618	1.610692	0.423486
	H293	H	1.231290	1.626345	0.392409
	O294	O	0.165772	1.185880	0.083930
	H295	H	0.176054	1.184771	0.082949
	H296	H	0.151606	1.200383	0.089500
	O297	O	0.770712	0.204814	0.188333
	H298	H	0.752796	0.184419	0.194810
	H299	H	0.774146	0.216761	0.167322
	O300	O	-0.002422	0.842316	0.981566
	H301	H	-0.001687	0.838303	0.986036
	H302	H	-0.011396	0.845740	0.990934
	O303	O	0.260391	0.275676	0.505427
	H304	H	0.258871	0.270504	0.533568
	H305	H	0.235058	0.270257	0.505015
	O306	O	0.082717	0.853839	0.943291
	H307	H	0.078448	0.848038	0.958281
	H308	H	0.072423	0.852076	0.941646
	O309	O	0.390288	0.611570	0.300135
	H310	H	0.368203	0.617894	0.303317
	H311	H	0.382296	0.626578	0.294513
	O312	O	0.618952	0.644512	0.416029
	H313	H	0.608648	0.642203	0.430249
	H314	H	0.627476	0.657326	0.432570
	O315	O	0.044818	0.015863	1.100053
	H316	H	0.037238	0.041303	1.110686
	H317	H	0.044530	0.021848	1.088061
	O318	O	-0.044839	0.792651	-0.166573
	H319	H	-0.040523	0.800417	-0.149800
	H320	H	-0.023537	0.787750	-0.177019
	O321	O	0.553437	0.337660	0.488228
	H322	H	0.577469	0.326067	0.488688
	H323	H	0.544856	0.336925	0.505368
	O324	O	0.521425	0.457074	0.706420
	H325	H	0.511439	0.431835	0.697099
	H326	H	0.504479	0.458774	0.711751
	O327	O	0.911759	0.175376	0.950717
	H328	H	0.914085	0.167163	0.959784
	H329	H	0.931734	0.187220	0.967075
	O330	O	0.922701	0.201690	-0.229618
	H331	H	0.915700	0.202679	-0.231488
	H332	H	0.914187	0.205243	-0.246536
	O333	O	0.270857	0.449120	1.450702
	H334	H	0.269569	0.454505	1.451964
	H335	H	0.274482	0.443272	1.447613
	O336	O	1.103501	0.040561	1.084314
	H337	H	1.105543	0.033342	1.079614
	H338	H	1.123770	0.056425	1.083303
	O339	O	0.700547	0.796228	1.253596
	H340	H	0.718931	0.793765	1.243855
	H341	H	0.684455	0.780783	1.269508
	O342	O	0.493585	0.411878	0.505807
	H343	H	0.492885	0.410841	0.491411
	H344	H	0.498653	0.418517	0.514834
	O345	O	0.139626	0.196867	0.074343
	H346	H	0.113424	0.205455	0.071038
	H347	H	0.169365	0.213546	0.087951
	O348	O	1.105334	-0.127333	0.822087
	H349	H	1.114422	-0.142135	0.817206
	H350	H	1.116537	-0.133304	0.817675
	O351	O	1.170762	0.844963	0.766665
	H352	H	1.189476	0.824572	0.763529
	H353	H	1.179794	0.846180	0.778902
	O354	O	0.268623	0.468538	0.682763
	H355	H	0.261278	0.493153	0.663654
	H356	H	0.248551	0.478285	0.694278
	O357	O	1.290775	1.305599	0.668525
	H358	H	1.301302	1.328203	0.679858
	H359	H	1.299068	1.320714	0.655697
	O360	O	0.265834	0.703617	0.453793
	H361	H	0.264902	0.718309	0.445495
	H362	H	0.271276	0.715864	0.450443
	O363	O	0.792679	0.143727	0.795125
	H364	H	0.777366	0.153378	0.817463
	H365	H	0.797178	0.124991	0.794915
	O366	O	1.499283	-0.716473	1.264033
	H367	H	1.496935	-0.726821	1.256558
	H368	H	1.498296	-0.725749	1.271033
	O369	O	0.359974	0.490892	0.301530
	H370	H	0.362231	0.483800	0.292322
	H371	H	0.355682	0.484460	0.305434
	O372	O	0.477555	0.495287	0.295245
	H373	H	0.481877	0.484066	0.291983
	H374	H	0.466276	0.496250	0.297292
	O375	O	-0.197794	0.999960	0.815904
	H376	H	-0.186644	1.015250	0.822339
	H377	H	-0.201400	0.992928	0.806903
	O378	O	0.488671	0.581806	0.413139
	H379	H	0.497299	0.571354	0.418871
	H380	H	0.494027	0.598738	0.408279
	O381	O	0.777940	-0.041483	-0.031592
	H382	H	0.776930	-0.026129	-0.039433
	H383	H	0.783541	-0.041842	-0.026849
	O384	O	-0.045742	-0.021049	1.100868
	H385	H	-0.041995	-0.008292	1.088816
	H386	H	-0.046619	-0.044104	1.112504
	O387	O	-0.547212	1.284076	0.690803
	H388	H	-0.546195	1.247656	0.711098
	H389	H	-0.553987	1.287427	0.658103
	O390	O	-0.011190	0.168767	0.999471
	H391	H	-0.009034	0.176524	1.016101
	H392	H	-0.015379	0.164399	0.989479
	O393	O	0.770893	0.786819	0.050054
	H394	H	0.769515	0.783643	0.050376
	H395	H	0.751990	0.773594	0.038674
	O396	O	1.005653	0.080797	0.935177
	H397	H	1.017372	0.067788	0.912315
	H398	H	0.999513	0.090214	0.920032
	O399	O	0.970855	1.123439	1.139680
	H400	H	0.950035	1.113051	1.127397
	H401	H	0.949672	1.138571	1.150787
	O402	O	-0.181094	-0.116707	1.160860
	H403	H	-0.194200	-0.109624	1.167613
	H404	H	-0.199842	-0.128122	1.166518
	O405	O	-0.063297	-0.026548	0.182826
	H406	H	-0.061607	-0.032283	0.174055
	H407	H	-0.057757	-0.034985	0.181823
	O408	O	0.669055	1.601566	1.280909
	H409	H	0.672371	1.588448	1.287128
	H410	H	0.657104	1.590082	1.300926
	O411	O	0.676480	0.450225	0.519369
	H412	H	0.680879	0.435155	0.529350
	H413	H	0.678293	0.467396	0.508842
	O414	O	0.508492	0.645700	0.456197
	H415	H	0.512906	0.639302	0.434083
	H416	H	0.521764	0.643179	0.463571
	O417	O	1.056005	0.775695	0.068092
	H418	H	1.056332	0.760785	0.079393
	H419	H	1.059921	0.775795	0.079050
	O420	O	0.689197	0.383477	0.330901
	H421	H	0.702254	0.389774	0.321162
	H422	H	0.683913	0.384181	0.322585
	O423	O	0.610989	1.378293	0.364053
	H424	H	0.609516	1.366222	0.350253
	H425	H	0.616051	1.403232	0.360466
	O426	O	0.890346	0.958273	0.811483
	H427	H	0.887904	0.955375	0.819956
	H428	H	0.871811	0.962187	0.800289
	O429	O	0.460813	0.335316	0.426774
	H430	H	0.445804	0.333222	0.429530
	H431	H	0.474455	0.341375	0.432368
	O432	O	1.140543	-0.134900	1.086375
	H433	H	1.118118	-0.131111	1.088267
	H434	H	1.132269	-0.123635	1.081144
	O435	O	-0.334047	-0.312431	-0.331197
	H436	H	-0.341475	-0.328866	-0.340375
	H437	H	-0.334169	-0.311354	-0.313647
	O438	O	1.317837	-0.298285	0.625740
	H439	H	1.330837	-0.304123	0.625248
	H440	H	1.347075	-0.294484	0.614422
	O441	O	0.628398	0.273612	0.490561
	H442	H	0.619634	0.295537	0.463938
	H443	H	0.656688	0.246615	0.477182
	O444	O	0.421837	1.611339	0.639510
	H445	H	0.439658	1.617599	0.626137
	H446	H	0.411487	1.602380	0.643086
	O447	O	1.075598	1.071289	-0.175470
	H448	H	1.064715	1.077126	-0.193379
	H449	H	1.074739	1.069939	-0.169225
	O450	O	0.282215	0.377493	0.281816
	H451	H	0.295650	0.396220	0.281183
	H452	H	0.286061	0.380509	0.292991
	O453	O	0.395548	0.496485	0.560287
	H454	H	0.382368	0.503839	0.567167
	H455	H	0.403600	0.493555	0.548569
	O456	O	1.114352	0.026944	-0.095993
	H457	H	1.105475	0.022780	-0.112824
	H458	H	1.118847	0.032942	-0.097428
	O459	O	0.658331	0.506560	0.687171
	H460	H	0.662896	0.494937	0.698703
	H461	H	0.629046	0.503290	0.700598
	O462	O	0.551249	0.621427	0.304514
	H463	H	0.538905	0.634428	0.312046
	H464	H	0.535364	0.621773	0.303926
	O465	O	0.825027	-0.133092	-0.183062
	H466	H	0.837593	-0.134406	-0.186927
	H467	H	0.843288	-0.134702	-0.175757
