data_Molecule from HDF5

_cell_length_a		16.169541
_cell_length_b		16.483710
_cell_length_c		16.179077
_cell_angle_alpha	89.534595
_cell_angle_beta	90.203090
_cell_angle_gamma	89.908448
_symmetry_space_group_name_H-M	'P 1'
_symmetry_Int_Tables_number		1

loop_
	_symmetry_equiv_pos_as_xyz
	x,y,z

loop_
	_atom_site_label
	_atom_site_type_symbol
	_atom_site_fract_x
	_atom_site_fract_y
	_atom_site_fract_z
	H0	H	0.397448	0.843675	0.707170
	H1	H	0.596223	0.167128	0.704340
	H2	H	0.595211	0.843176	0.274991
	H3	H	0.396309	0.166788	0.271315
	H4	H	0.707525	0.408021	0.823618
	H5	H	0.707647	0.598034	0.153865
	H6	H	0.281836	0.601662	0.823725
	H7	H	0.284833	0.407146	0.154558
	H8	H	0.832057	0.722229	0.383349
	H9	H	0.158496	0.718415	0.589845
	H10	H	0.833223	0.284457	0.592004
	H11	H	0.159566	0.288011	0.389187
	H12	H	0.830226	0.404704	0.701240
	H13	H	0.160246	0.598370	0.701458
	H14	H	0.829366	0.599936	0.275037
	H15	H	0.161073	0.408349	0.279142
	H16	H	0.390610	0.723520	0.826243
	H17	H	0.596656	0.718318	0.152244
	H18	H	0.597212	0.287826	0.825227
	H19	H	0.394638	0.286679	0.151214
	H20	H	0.710961	0.843110	0.392581
	H21	H	0.711541	0.166870	0.586354
	H22	H	0.280385	0.843372	0.590650
	H23	H	0.278294	0.166641	0.386692
	H24	H	0.898442	0.340798	0.204536
	H25	H	0.093226	0.666217	0.202200
	H26	H	0.094268	0.340700	0.775410
	H27	H	0.893575	0.664135	0.769230
	H28	H	0.209427	0.908448	0.323450
	H29	H	0.208968	0.099596	0.653766
	H30	H	0.782649	0.101834	0.324206
	H31	H	0.783854	0.905183	0.653779
	H32	H	0.331699	0.221905	0.884958
	H33	H	0.658479	0.220324	0.090737
	H34	H	0.331240	0.788713	0.091502
	H35	H	0.658497	0.788262	0.889280
	H36	H	0.330323	0.908187	0.202503
	H37	H	0.661403	0.098900	0.199655
	H38	H	0.331437	0.103478	0.773640
	H39	H	0.661423	0.910035	0.780213
	H40	H	0.894405	0.221063	0.325800
	H41	H	0.099822	0.219673	0.651483
	H42	H	0.097120	0.788175	0.324474
	H43	H	0.893506	0.783683	0.650596
	H44	H	0.210425	0.341660	0.892545
	H45	H	0.209835	0.666372	0.085801
	H46	H	0.780455	0.340906	0.088068
	H47	H	0.779144	0.664985	0.887772
	H48	H	0.408399	0.116537	0.575209
	H49	H	0.590798	0.887739	0.588341
	H50	H	0.591377	0.121160	0.392715
	H51	H	0.395165	0.887294	0.393634
	H52	H	0.580695	0.413414	0.102617
	H53	H	0.583346	0.604063	0.870188
	H54	H	0.395720	0.597165	0.108401
	H55	H	0.409425	0.414385	0.872978
	H56	H	0.114621	0.603119	0.393537
	H57	H	0.876697	0.600943	0.576116
	H58	H	0.112498	0.417985	0.588379
	H59	H	0.878208	0.411473	0.397160
	H60	H	0.117138	0.399500	0.583815
	H61	H	0.880515	0.591455	0.573631
	H62	H	0.109546	0.596710	0.403926
	H63	H	0.877267	0.409006	0.396615
	H64	H	0.406861	0.589408	0.102919
	H65	H	0.590414	0.597699	0.870295
	H66	H	0.584650	0.402697	0.107203
	H67	H	0.402532	0.404955	0.869000
	H68	H	0.586971	0.120166	0.392742
	H69	H	0.585916	0.891626	0.584418
	H70	H	0.396002	0.120549	0.579313
	H71	H	0.410372	0.890869	0.391218
	H72	H	0.893755	0.622002	0.086805
	H73	H	0.080664	0.390813	0.086694
	H74	H	0.084891	0.620489	0.884215
	H75	H	0.908110	0.390931	0.899628
	H76	H	0.095694	0.910054	0.607772
	H77	H	0.095454	0.092140	0.369824
	H78	H	0.897162	0.088862	0.606949
	H79	H	0.899884	0.912316	0.369946
	H80	H	0.611416	0.096589	0.900773
	H81	H	0.378219	0.098695	0.080111
	H82	H	0.614740	0.902146	0.081455
	H83	H	0.377340	0.907281	0.901337
	H84	H	0.609943	0.912090	0.076417
	H85	H	0.378806	0.097514	0.078619
	H86	H	0.612602	0.097170	0.895956
	H87	H	0.380706	0.917174	0.901099
	H88	H	0.914432	0.093269	0.602760
	H89	H	0.078077	0.093689	0.376346
	H90	H	0.082742	0.915298	0.601228
	H91	H	0.906520	0.914657	0.373424
	H92	H	0.079359	0.614233	0.900823
	H93	H	0.094736	0.390287	0.075362
	H94	H	0.909536	0.616732	0.084770
	H95	H	0.892072	0.386986	0.899955
	H96	H	0.406082	0.120089	0.587097
	H97	H	0.593217	0.891547	0.581921
	H98	H	0.589812	0.119860	0.396201
	H99	H	0.403011	0.893571	0.405276
	H100	H	0.592331	0.412415	0.105808
	H101	H	0.581988	0.594639	0.873489
	H102	H	0.408846	0.603187	0.106382
	H103	H	0.397591	0.416436	0.870156
	H104	H	0.111371	0.591069	0.392733
	H105	H	0.877730	0.594020	0.582526
	H106	H	0.108640	0.411367	0.570561
	H107	H	0.878360	0.409605	0.399095
	H108	H	0.899394	0.615440	0.072122
	H109	H	0.096670	0.384965	0.092933
	H110	H	0.096943	0.619736	0.898098
	H111	H	0.900823	0.385183	0.885437
	H112	H	0.083768	0.900475	0.606505
	H113	H	0.085405	0.108704	0.368442
	H114	H	0.903317	0.105544	0.610018
	H115	H	0.906054	0.908127	0.371157
	H116	H	0.613097	0.101075	0.899302
	H117	H	0.377218	0.097088	0.080170
	H118	H	0.613583	0.911995	0.087977
	H119	H	0.376229	0.913283	0.892070
	C120	C	0.374135	0.012868	0.611196
	C121	C	0.619112	0.996838	0.612644
	C122	C	0.617877	0.013507	0.366773
	C123	C	0.373194	0.997186	0.366575
	C124	C	0.615338	0.382240	-0.003052
	C125	C	0.615044	0.625437	0.980155
	C126	C	0.373540	0.625920	-0.002633
	C127	C	0.374242	0.382697	0.979776
	C128	C	0.003357	0.625926	0.366182
	C129	C	0.986697	0.623674	0.607983
	C130	C	0.004340	0.380753	0.610385
	C131	C	0.986937	0.382172	0.368689
	C132	C	0.872778	0.511092	0.110460
	C133	C	0.118481	0.495602	0.111969
	C134	C	0.116538	0.511432	0.866586
	C135	C	0.871588	0.494512	0.865237
	C136	C	0.117097	0.881385	0.496677
	C137	C	0.116407	0.125328	0.480015
	C138	C	0.875088	0.125264	0.497757
	C139	C	0.874578	0.881929	0.479902
	C140	C	0.504086	0.127005	0.867781
	C141	C	0.486926	0.125574	0.108939
	C142	C	0.504018	0.881631	0.111295
	C143	C	0.486987	0.883954	0.869446
	C144	C	0.376689	0.891795	0.668460
	C145	C	0.616773	0.118433	0.667040
	C146	C	0.615306	0.891452	0.312825
	C147	C	0.375818	0.118466	0.309883
	C148	C	0.670239	0.386531	0.872865
	C149	C	0.670926	0.620326	0.104200
	C150	C	0.318666	0.623098	0.873289
	C151	C	0.320503	0.385685	0.104273
	C152	C	0.880547	0.682759	0.365412
	C153	C	0.109848	0.679635	0.608594
	C154	C	0.881639	0.323772	0.610398
	C155	C	0.110722	0.326814	0.369946
	C156	C	0.880124	0.383619	0.664812
	C157	C	0.110628	0.620102	0.664283
	C158	C	0.879184	0.622392	0.311212
	C159	C	0.111246	0.386568	0.315035
	C160	C	0.372485	0.683938	0.874849
	C161	C	0.615489	0.680059	0.103615
	C162	C	0.615461	0.326810	0.873809
	C163	C	0.375438	0.326116	0.102929
	C164	C	0.673245	0.891394	0.370643
	C165	C	0.674014	0.118594	0.608221
	C166	C	0.318556	0.891760	0.610430
	C167	C	0.317192	0.118511	0.367372
	C168	C	0.876564	0.389239	0.166561
	C169	C	0.114509	0.617535	0.165327
	C170	C	0.114303	0.389381	0.812976
	C171	C	0.873634	0.616100	0.808460
	C172	C	0.172226	0.886383	0.372824
	C173	C	0.171726	0.120987	0.604229
	C174	C	0.819932	0.122830	0.373721
	C175	C	0.820295	0.884119	0.603899
	C176	C	0.380830	0.183277	0.866422
	C177	C	0.610009	0.181073	0.108690
	C178	C	0.380333	0.826620	0.110676
	C179	C	0.610108	0.827638	0.870462
	C180	C	0.379776	0.886155	0.165763
	C181	C	0.611448	0.121171	0.163431
	C182	C	0.380555	0.124273	0.811184
	C183	C	0.611634	0.887847	0.816091
	C184	C	0.875180	0.182296	0.374710
	C185	C	0.117467	0.180751	0.603113
	C186	C	0.116403	0.826785	0.373197
	C187	C	0.874976	0.824034	0.602585
	C188	C	0.172005	0.389803	0.871184
	C189	C	0.172530	0.617813	0.107299
	C190	C	0.818090	0.389304	0.108784
	C191	C	0.816396	0.616406	0.867090
	C192	C	0.396730	0.097329	0.587476
	C193	C	0.596720	0.912273	0.591095
	C194	C	0.596007	0.098331	0.387798
	C195	C	0.396110	0.912508	0.389915
	C196	C	0.592580	0.403321	0.082844
	C197	C	0.591905	0.604803	0.893781
	C198	C	0.396928	0.603347	0.083634
	C199	C	0.396473	0.405488	0.893239
	C200	C	0.089456	0.603569	0.389828
	C201	C	0.900697	0.602058	0.584250
	C202	C	0.090409	0.403074	0.587626
	C203	C	0.900271	0.403702	0.391047
	C204	C	0.894584	0.596018	0.087775
	C205	C	0.097184	0.410550	0.091168
	C206	C	0.093733	0.596325	0.887956
	C207	C	0.893728	0.409799	0.888151
	C208	C	0.094079	0.902383	0.582848
	C209	C	0.093149	0.104268	0.393731
	C210	C	0.898136	0.102398	0.584167
	C211	C	0.897451	0.904946	0.393900
	C212	C	0.590276	0.104813	0.891776
	C213	C	0.400440	0.103927	0.086138
	C214	C	0.590336	0.902700	0.088597
	C215	C	0.400546	0.905999	0.891670
	Zn216	Zn	0.496355	0.005370	0.741140
	Zn217	Zn	0.496098	0.004412	0.237249
	Zn218	Zn	0.743238	0.503048	-0.011625
	Zn219	Zn	0.246441	0.504095	-0.011237
	Zn220	Zn	-0.004981	0.753222	0.487458
	Zn221	Zn	-0.003785	0.253407	0.489141
	Zn222	Zn	-0.005294	0.502519	0.736970
	Zn223	Zn	-0.004955	0.503571	0.240448
	Zn224	Zn	0.494573	0.754230	-0.010781
	Zn225	Zn	0.494943	0.254418	-0.011736
	Zn226	Zn	0.747168	0.004328	0.489062
	Zn227	Zn	0.244229	0.004931	0.488889
	N228	N	0.410712	0.968238	0.668942
	N229	N	0.583340	0.041753	0.669848
	N230	N	0.582009	0.968244	0.310113
	N231	N	0.409895	0.041825	0.309074
	N232	N	0.670314	0.420455	0.950130
	N233	N	0.671051	0.587225	0.026294
	N234	N	0.318921	0.587903	0.950634
	N235	N	0.319625	0.420364	0.026511
	N236	N	0.958991	0.685070	0.398821
	N237	N	0.031786	0.682024	0.574472
	N238	N	0.959974	0.321816	0.577264
	N239	N	0.032366	0.324078	0.402644
	N240	N	0.957402	0.418289	0.665137
	N241	N	0.033077	0.585954	0.664138
	N242	N	0.956571	0.587597	0.311741
	N243	N	0.033260	0.420307	0.314270
	N244	N	0.406094	0.685513	0.953166
	N245	N	0.581603	0.683269	0.025585
	N246	N	0.582089	0.324102	0.951899
	N247	N	0.407881	0.324064	0.024522
	N248	N	0.674959	0.968081	0.403660
	N249	N	0.675652	0.042032	0.574982
	N250	N	0.316853	0.967999	0.575484
	N251	N	0.315492	0.042100	0.402065
	N252	N	0.909709	0.466134	0.167908
	N253	N	0.081633	0.540657	0.168506
	N254	N	0.080190	0.466033	0.810269
	N255	N	0.907138	0.539454	0.807062
	N256	N	0.172916	0.919545	0.450634
	N257	N	0.171069	0.087101	0.526879
	N258	N	0.819777	0.088158	0.451263
	N259	N	0.819951	0.919578	0.526503
	N260	N	0.458786	0.185115	0.900857
	N261	N	0.531454	0.184108	0.075815
	N262	N	0.458758	0.823508	0.077679
	N263	N	0.531541	0.825045	0.902674
	N264	N	0.457625	0.919450	0.166452
	N265	N	0.533805	0.087141	0.163547
	N266	N	0.458053	0.089794	0.812020
	N267	N	0.533998	0.922268	0.815250
	N268	N	0.908802	0.183821	0.453036
	N269	N	0.083723	0.183604	0.524878
	N270	N	0.083162	0.823417	0.451255
	N271	N	0.907899	0.822514	0.524358
	N272	N	0.173509	0.466629	0.903818
	N273	N	0.175278	0.540936	0.075014
	N274	N	0.815518	0.465942	0.074708
	N275	N	0.814725	0.539750	0.901644
	O276	O	-0.074561	0.015845	-0.072030
	H277	H	-0.072310	0.016117	-0.058595
	H278	H	-0.072249	0.022501	-0.070536
	O279	O	1.024795	0.049521	1.028077
	H280	H	1.019840	0.042727	1.038590
	H281	H	1.028113	0.057691	1.024951
	O282	O	0.574757	0.422022	0.511193
	H283	H	0.567090	0.423626	0.505275
	H284	H	0.576603	0.412998	0.495887
	O285	O	0.024995	0.955815	0.967901
	H286	H	0.020267	0.947094	0.965924
	H287	H	0.022918	0.963246	0.956961
	O288	O	0.504386	0.522236	0.482294
	H289	H	0.510685	0.509748	0.487644
	H290	H	0.489895	0.535948	0.473782
	O291	O	0.488661	0.417952	1.453514
	H292	H	0.489626	0.426636	1.447177
	H293	H	0.478372	0.424088	1.453802
	O294	O	0.958774	0.995720	1.047661
	H295	H	0.961810	0.998761	1.040824
	H296	H	0.960323	0.999529	1.051620
	O297	O	1.039507	-0.009206	0.975623
	H298	H	1.027066	-0.011191	0.976379
	H299	H	1.043244	-0.011683	0.971425
	O300	O	0.520469	0.554228	0.528257
	H301	H	0.520546	0.546448	0.532575
	H302	H	0.520676	0.553705	0.530038
	O303	O	1.041770	-0.065739	0.044254
	H304	H	1.054030	-0.061393	0.031378
	H305	H	1.050308	-0.069900	0.040351
	O306	O	0.038358	1.042383	0.947258
	H307	H	0.040557	1.037072	0.948843
	H308	H	0.045913	1.041996	0.951092
	O309	O	0.514832	0.526640	0.577907
	H310	H	0.515810	0.523944	0.585199
	H311	H	0.513902	0.538820	0.582788
	O312	O	1.434083	0.359057	1.521335
	H313	H	1.430686	0.357713	1.523071
	H314	H	1.436729	0.364738	1.523873
	O315	O	0.429543	0.555470	0.393633
	H316	H	0.434318	0.557861	0.382119
	H317	H	0.435730	0.563908	0.390976
	O318	O	0.468992	0.507709	0.459994
	H319	H	0.460168	0.513156	0.452092
	H320	H	0.457071	0.506407	0.464499
	O321	O	0.970065	0.972419	0.970320
	H322	H	0.978121	0.965287	0.970456
	H323	H	0.971879	0.973767	0.973744
	O324	O	0.428934	0.609294	0.367401
	H325	H	0.421226	0.608999	0.362343
	H326	H	0.422089	0.612530	0.366096
	O327	O	0.397384	0.636615	0.510380
	H328	H	0.397268	0.643961	0.507702
	H329	H	0.393727	0.639953	0.492701
	O330	O	0.929205	0.006053	0.949524
	H331	H	0.925475	0.011742	0.936430
	H332	H	0.927741	0.013666	0.951356
	O333	O	0.973428	0.968364	0.061143
	H334	H	0.962803	0.962424	0.055006
	H335	H	0.973442	0.963165	0.064818
	O336	O	0.492821	0.553994	0.433385
	H337	H	0.507406	0.553688	0.443413
	H338	H	0.504712	0.564021	0.436289
	O339	O	0.441981	0.500153	0.522690
	H340	H	0.443729	0.500976	0.514622
	H341	H	0.441110	0.500549	0.523748
	O342	O	0.000138	1.061724	-0.020044
	H343	H	0.003320	1.067443	-0.027009
	H344	H	-0.000755	1.069760	-0.029500
	O345	O	-0.074861	-0.096459	0.005123
	H346	H	-0.082421	-0.096116	0.008156
	H347	H	-0.069256	-0.105453	0.002108
	O348	O	0.540225	0.575543	0.640137
	H349	H	0.546510	0.562568	0.641864
	H350	H	0.546595	0.587940	0.643313
	O351	O	0.513703	0.489374	0.520127
	H352	H	0.521098	0.498429	0.521997
	H353	H	0.510737	0.492130	0.505345
	O354	O	0.554558	0.508310	0.508138
	H355	H	0.559305	0.500940	0.518672
	H356	H	0.546540	0.500134	0.511140
	O357	O	0.513604	0.491058	0.482439
	H358	H	0.523503	0.483223	0.482859
	H359	H	0.499571	0.487755	0.486071
	O360	O	-0.038376	-0.015382	-0.054495
	H361	H	-0.044962	-0.016496	-0.061548
	H362	H	-0.040302	-0.002323	-0.052490
	O363	O	0.623554	0.577841	0.402737
	H364	H	0.627837	0.589165	0.399792
	H365	H	0.621856	0.575487	0.402353
	O366	O	0.039091	-0.040718	1.019755
	H367	H	0.037112	-0.041168	1.021969
	H368	H	0.036197	-0.042722	1.022364
	O369	O	0.382534	0.584004	0.392223
	H370	H	0.378145	0.591578	0.380412
	H371	H	0.380470	0.584689	0.385280
