data_Molecule from HDF5

_cell_length_a		16.309209
_cell_length_b		16.290409
_cell_length_c		16.322252
_cell_angle_alpha	89.945654
_cell_angle_beta	90.060549
_cell_angle_gamma	89.942670
_symmetry_space_group_name_H-M	'P 1'
_symmetry_Int_Tables_number		1

loop_
	_symmetry_equiv_pos_as_xyz
	x,y,z

loop_
	_atom_site_label
	_atom_site_type_symbol
	_atom_site_fract_x
	_atom_site_fract_y
	_atom_site_fract_z
	H0	H	0.403020	0.840931	0.703292
	H1	H	0.599946	0.167636	0.703188
	H2	H	0.601433	0.840886	0.272763
	H3	H	0.402508	0.167723	0.273006
	H4	H	0.714801	0.407463	0.825518
	H5	H	0.714754	0.603562	0.152479
	H6	H	0.283912	0.604987	0.825998
	H7	H	0.286080	0.405763	0.152190
	H8	H	0.837422	0.719069	0.390426
	H9	H	0.165026	0.716914	0.587163
	H10	H	0.837532	0.289012	0.587415
	H11	H	0.164450	0.289355	0.390728
	H12	H	0.836741	0.405484	0.702833
	H13	H	0.163838	0.601911	0.704981
	H14	H	0.837037	0.602049	0.275458
	H15	H	0.163384	0.403087	0.272880
	H16	H	0.402111	0.719553	0.825147
	H17	H	0.598209	0.719363	0.151930
	H18	H	0.598261	0.291372	0.825029
	H19	H	0.401155	0.288772	0.151739
	H20	H	0.715651	0.840393	0.391065
	H21	H	0.715991	0.167908	0.586933
	H22	H	0.286970	0.840520	0.587669
	H23	H	0.286295	0.167955	0.389133
	H24	H	0.900453	0.340665	0.204357
	H25	H	0.098846	0.668070	0.204112
	H26	H	0.098519	0.340260	0.774786
	H27	H	0.900906	0.667328	0.774002
	H28	H	0.215242	0.905939	0.324698
	H29	H	0.215936	0.100859	0.651646
	H30	H	0.785175	0.104133	0.325605
	H31	H	0.784849	0.904455	0.651358
	H32	H	0.337115	0.220915	0.888364
	H33	H	0.664467	0.219620	0.085687
	H34	H	0.337668	0.790196	0.087702
	H35	H	0.664480	0.791066	0.890822
	H36	H	0.338487	0.906264	0.203427
	H37	H	0.664396	0.104394	0.203538
	H38	H	0.337580	0.104028	0.772994
	H39	H	0.664542	0.907267	0.775243
	H40	H	0.902355	0.219887	0.325693
	H41	H	0.099996	0.218145	0.652509
	H42	H	0.099314	0.789448	0.325237
	H43	H	0.903100	0.789908	0.652225
	H44	H	0.214613	0.340253	0.890961
	H45	H	0.215945	0.667930	0.088880
	H46	H	0.785054	0.341098	0.087356
	H47	H	0.787363	0.668459	0.892149
	H48	H	0.407486	0.120356	0.580622
	H49	H	0.594739	0.888841	0.579483
	H50	H	0.592735	0.120583	0.393668
	H51	H	0.403555	0.887844	0.399633
	H52	H	0.592410	0.408627	0.105686
	H53	H	0.604834	0.602652	0.868600
	H54	H	0.410198	0.597845	0.103914
	H55	H	0.404351	0.421654	0.875362
	H56	H	0.117144	0.597381	0.394337
	H57	H	0.882676	0.600781	0.586076
	H58	H	0.116710	0.412723	0.583290
	H59	H	0.884974	0.411188	0.396148
	H60	H	0.117124	0.409554	0.583680
	H61	H	0.885438	0.599406	0.576487
	H62	H	0.116468	0.596798	0.397364
	H63	H	0.884617	0.411978	0.396794
	H64	H	0.406993	0.600086	0.105168
	H65	H	0.592115	0.587966	0.876571
	H66	H	0.596847	0.413936	0.104969
	H67	H	0.415887	0.409980	0.874387
	H68	H	0.592839	0.118908	0.397039
	H69	H	0.595747	0.887110	0.583655
	H70	H	0.409048	0.119893	0.580921
	H71	H	0.407604	0.885810	0.387990
	H72	H	0.906756	0.621260	0.082926
	H73	H	0.093533	0.386185	0.089866
	H74	H	0.089262	0.617477	0.900933
	H75	H	0.905759	0.387033	0.897130
	H76	H	0.091862	0.910121	0.603527
	H77	H	0.092484	0.087625	0.375992
	H78	H	0.905693	0.098010	0.605456
	H79	H	0.912450	0.911576	0.373992
	H80	H	0.617485	0.099828	0.894251
	H81	H	0.385195	0.097980	0.080486
	H82	H	0.619753	0.909531	0.085854
	H83	H	0.384807	0.918896	0.891183
	H84	H	0.616664	0.908360	0.076224
	H85	H	0.385717	0.097254	0.080147
	H86	H	0.616563	0.098869	0.896983
	H87	H	0.382314	0.906061	0.891847
	H88	H	0.908874	0.092834	0.603075
	H89	H	0.085643	0.103395	0.373115
	H90	H	0.097034	0.907248	0.605580
	H91	H	0.907228	0.908320	0.371729
	H92	H	0.096625	0.621542	0.896813
	H93	H	0.084847	0.392672	0.078082
	H94	H	0.907688	0.619985	0.082131
	H95	H	0.905438	0.386665	0.894359
	H96	H	0.408988	0.120281	0.579678
	H97	H	0.591883	0.888661	0.583005
	H98	H	0.595848	0.120646	0.395501
	H99	H	0.415320	0.890769	0.396620
	H100	H	0.589840	0.414198	0.103238
	H101	H	0.585226	0.606926	0.872804
	H102	H	0.406036	0.595641	0.103660
	H103	H	0.400588	0.406511	0.869144
	H104	H	0.116693	0.594998	0.395123
	H105	H	0.886324	0.591492	0.582880
	H106	H	0.116133	0.410785	0.581009
	H107	H	0.885368	0.411936	0.395825
	H108	H	0.906161	0.620220	0.081577
	H109	H	0.100670	0.388498	0.075629
	H110	H	0.089159	0.620015	0.892348
	H111	H	0.907612	0.388040	0.895220
	H112	H	0.097282	0.913206	0.603986
	H113	H	0.102182	0.100447	0.369871
	H114	H	0.912098	0.098532	0.604003
	H115	H	0.906492	0.914520	0.373569
	H116	H	0.616285	0.097041	0.894443
	H117	H	0.385177	0.097219	0.081129
	H118	H	0.615304	0.917720	0.080831
	H119	H	0.386636	0.912265	0.902519
	C120	C	0.379751	0.012325	0.609659
	C121	C	0.622942	0.996259	0.610444
	C122	C	0.622635	0.012109	0.366915
	C123	C	0.379668	0.996394	0.366104
	C124	C	0.621770	0.383840	-0.003058
	C125	C	0.622363	0.627263	0.980400
	C126	C	0.378519	0.627015	-0.003140
	C127	C	0.378660	0.383376	0.980708
	C128	C	0.008820	0.625458	0.367173
	C129	C	0.992710	0.625234	0.610584
	C130	C	0.008800	0.382297	0.611036
	C131	C	0.992764	0.382489	0.367176
	C132	C	0.878347	0.512617	0.110766
	C133	C	0.121963	0.496591	0.110696
	C134	C	0.121034	0.511812	0.867915
	C135	C	0.878259	0.495728	0.867413
	C136	C	0.123622	0.881937	0.496647
	C137	C	0.122346	0.125369	0.480418
	C138	C	0.879893	0.125600	0.496677
	C139	C	0.880063	0.882996	0.480694
	C140	C	0.508819	0.127131	0.866463
	C141	C	0.493008	0.126472	0.109391
	C142	C	0.509627	0.883406	0.109780
	C143	C	0.492536	0.883712	0.866919
	C144	C	0.382461	0.889806	0.665520
	C145	C	0.620795	0.118951	0.665457
	C146	C	0.621081	0.889732	0.310877
	C147	C	0.381893	0.118993	0.310912
	C148	C	0.676899	0.386574	0.874050
	C149	C	0.677006	0.623999	0.103606
	C150	C	0.322593	0.625122	0.874347
	C151	C	0.323801	0.385365	0.103484
	C152	C	0.886210	0.681115	0.369896
	C153	C	0.116165	0.679016	0.607515
	C154	C	0.885976	0.327322	0.608016
	C155	C	0.115337	0.326832	0.369920
	C156	C	0.885505	0.385360	0.665011
	C157	C	0.115426	0.622330	0.666433
	C158	C	0.885971	0.623136	0.312560
	C159	C	0.114809	0.383513	0.311253
	C160	C	0.381123	0.682336	0.874070
	C161	C	0.618996	0.681408	0.103484
	C162	C	0.619258	0.328803	0.873938
	C163	C	0.381237	0.327560	0.103320
	C164	C	0.677618	0.889149	0.369900
	C165	C	0.678331	0.119102	0.607761
	C166	C	0.324885	0.889443	0.607886
	C167	C	0.323902	0.118865	0.368378
	C168	C	0.880921	0.389399	0.165795
	C169	C	0.119463	0.619327	0.166119
	C170	C	0.118991	0.389124	0.812718
	C171	C	0.880580	0.618649	0.812058
	C172	C	0.178208	0.884910	0.373689
	C173	C	0.178158	0.122573	0.603120
	C174	C	0.823943	0.123888	0.374138
	C175	C	0.823862	0.884767	0.603049
	C176	C	0.385966	0.182593	0.868568
	C177	C	0.615703	0.181944	0.106987
	C178	C	0.386487	0.828291	0.107444
	C179	C	0.615766	0.828911	0.870343
	C180	C	0.386894	0.885890	0.164983
	C181	C	0.615645	0.124535	0.165030
	C182	C	0.386423	0.124926	0.810757
	C183	C	0.615796	0.886479	0.812710
	C184	C	0.881791	0.181599	0.374185
	C185	C	0.120240	0.180282	0.603636
	C186	C	0.120453	0.827226	0.373688
	C187	C	0.882336	0.827664	0.603479
	C188	C	0.177100	0.389276	0.870177
	C189	C	0.177674	0.619292	0.108978
	C190	C	0.822849	0.389760	0.108326
	C191	C	0.824337	0.619274	0.870777
	C192	C	0.402046	0.098125	0.586915
	C193	C	0.600648	0.910342	0.588482
	C194	C	0.600219	0.098028	0.388974
	C195	C	0.402247	0.910464	0.388290
	C196	C	0.599591	0.405842	0.082499
	C197	C	0.600578	0.605498	0.894795
	C198	C	0.400975	0.604408	0.082324
	C199	C	0.400606	0.406004	0.895180
	C200	C	0.094812	0.603032	0.389116
	C201	C	0.907011	0.603673	0.588258
	C202	C	0.094472	0.404396	0.589037
	C203	C	0.906897	0.405085	0.389753
	C204	C	0.900512	0.598353	0.088755
	C205	C	0.099626	0.411222	0.087930
	C206	C	0.098312	0.597703	0.890257
	C207	C	0.899823	0.409517	0.889189
	C208	C	0.101862	0.903776	0.582346
	C209	C	0.100069	0.103481	0.395009
	C210	C	0.902193	0.103087	0.582150
	C211	C	0.902182	0.905109	0.395059
	C212	C	0.594573	0.105014	0.888774
	C213	C	0.407485	0.104046	0.087062
	C214	C	0.595103	0.905454	0.087580
	C215	C	0.406825	0.906002	0.888626
	Zn216	Zn	0.500865	0.004779	0.738313
	Zn217	Zn	0.501465	0.004494	0.237955
	Zn218	Zn	0.750470	0.504838	-0.011164
	Zn219	Zn	0.250072	0.504794	-0.011048
	Zn220	Zn	0.001669	0.753999	0.488851
	Zn221	Zn	0.000741	0.254443	0.489284
	Zn222	Zn	-0.000691	0.503955	0.739431
	Zn223	Zn	0.000379	0.504097	0.238737
	Zn224	Zn	0.500828	0.755474	-0.011633
	Zn225	Zn	0.500339	0.255376	-0.011657
	Zn226	Zn	0.751033	0.004215	0.488730
	Zn227	Zn	0.251521	0.003762	0.488318
	N228	N	0.415833	0.967436	0.666614
	N229	N	0.587044	0.041734	0.667026
	N230	N	0.587536	0.967480	0.308870
	N231	N	0.415863	0.041761	0.309363
	N232	N	0.678296	0.420372	0.951405
	N233	N	0.679359	0.590907	0.025991
	N234	N	0.320802	0.591509	0.951688
	N235	N	0.322122	0.419520	0.026397
	N236	N	0.963776	0.682438	0.403294
	N237	N	0.038994	0.680965	0.573571
	N238	N	0.963463	0.325417	0.575172
	N239	N	0.038287	0.326381	0.404297
	N240	N	0.962979	0.418824	0.667135
	N241	N	0.037712	0.589584	0.668432
	N242	N	0.963241	0.589293	0.310761
	N243	N	0.037509	0.417253	0.309549
	N244	N	0.415191	0.683507	0.951166
	N245	N	0.585660	0.683281	0.026269
	N246	N	0.585676	0.327095	0.951200
	N247	N	0.414394	0.326077	0.025910
	N248	N	0.678598	0.966241	0.403891
	N249	N	0.679788	0.041611	0.574272
	N250	N	0.323465	0.966552	0.573658
	N251	N	0.322418	0.041375	0.401844
	N252	N	0.914703	0.466753	0.167301
	N253	N	0.085631	0.542030	0.167208
	N254	N	0.084741	0.466307	0.811352
	N255	N	0.913266	0.540678	0.809780
	N256	N	0.180198	0.918171	0.451044
	N257	N	0.179507	0.089162	0.525888
	N258	N	0.822696	0.089756	0.451372
	N259	N	0.822598	0.918688	0.525878
	N260	N	0.463259	0.184164	0.902372
	N261	N	0.538510	0.183096	0.072943
	N262	N	0.463811	0.826628	0.073763
	N263	N	0.538043	0.826859	0.903170
	N264	N	0.464142	0.919472	0.166387
	N265	N	0.538384	0.090810	0.166713
	N266	N	0.463699	0.091198	0.809455
	N267	N	0.538452	0.919992	0.810685
	N268	N	0.915856	0.182612	0.451206
	N269	N	0.086114	0.182237	0.526477
	N270	N	0.087306	0.825169	0.451109
	N271	N	0.916687	0.826475	0.526438
	N272	N	0.178443	0.466879	0.903641
	N273	N	0.179460	0.542028	0.075204
	N274	N	0.821258	0.467214	0.074814
	N275	N	0.822953	0.541925	0.904438
	O276	O	2.056241	0.019635	1.004212
	H277	H	2.057023	0.025273	1.010237
	H278	H	2.064432	0.025961	1.006312
	O279	O	-0.017893	-0.032079	0.044884
	H280	H	-0.012613	-0.033960	0.045041
	H281	H	-0.022024	-0.021536	0.050258
	O282	O	0.079933	0.039646	1.003450
	H283	H	0.081006	0.039041	1.004592
	H284	H	0.082473	0.039409	1.012430
	O285	O	0.451205	0.476180	0.466702
	H286	H	0.442767	0.471154	0.469576
	H287	H	0.445579	0.488389	0.463142
	O288	O	0.460226	0.489679	0.462770
	H289	H	0.458356	0.489673	0.459553
	H290	H	0.458672	0.487887	0.459618
	O291	O	-0.010926	0.970097	0.945515
	H292	H	-0.013367	0.967383	0.950584
	H293	H	-0.013058	0.970258	0.938079
	O294	O	0.007383	-0.027687	-0.071021
	H295	H	0.012108	-0.032011	-0.064346
	H296	H	0.006788	-0.024976	-0.068195
	O297	O	-0.025664	0.007007	0.989475
	H298	H	-0.021964	0.005445	0.975980
	H299	H	-0.027365	0.008075	0.991981
	O300	O	-0.033272	0.975374	0.959628
	H301	H	-0.036577	0.979781	0.961388
	H302	H	-0.046782	0.976893	0.958406
	O303	O	0.473701	0.476411	0.485679
	H304	H	0.485883	0.481413	0.479829
	H305	H	0.472005	0.469671	0.489701
	O306	O	0.071352	0.026353	1.028975
	H307	H	0.066344	0.030527	1.028635
	H308	H	0.074024	0.025890	1.042879
	O309	O	1.027083	1.058580	0.963046
	H310	H	1.030100	1.056391	0.956702
	H311	H	1.033454	1.058062	0.968742
	O312	O	0.472294	0.468933	0.469380
	H313	H	0.473644	0.479554	0.475512
	H314	H	0.471941	0.472405	0.469246
	O315	O	0.453002	0.466313	0.418999
	H316	H	0.461966	0.461011	0.420455
	H317	H	0.447736	0.460722	0.420536
	O318	O	0.051257	0.980312	-0.017230
	H319	H	0.048604	0.979406	-0.026544
	H320	H	0.050309	0.978502	-0.014747
	O321	O	1.030319	1.068233	0.011929
	H322	H	1.028035	1.059421	0.008724
	H323	H	1.033771	1.075687	0.010471
