data_Molecule from HDF5

_cell_length_a		16.251014
_cell_length_b		16.325977
_cell_length_c		16.379863
_cell_angle_alpha	89.680234
_cell_angle_beta	90.093949
_cell_angle_gamma	89.697676
_symmetry_space_group_name_H-M	'P 1'
_symmetry_Int_Tables_number		1

loop_
	_symmetry_equiv_pos_as_xyz
	x,y,z

loop_
	_atom_site_label
	_atom_site_type_symbol
	_atom_site_fract_x
	_atom_site_fract_y
	_atom_site_fract_z
	H0	H	0.401749	0.836800	0.706823
	H1	H	0.600624	0.162623	0.704790
	H2	H	0.600316	0.836054	0.276573
	H3	H	0.400406	0.161966	0.272776
	H4	H	0.715251	0.400864	0.828093
	H5	H	0.714185	0.595541	0.153860
	H6	H	0.283356	0.600025	0.828992
	H7	H	0.286834	0.402452	0.155076
	H8	H	0.836454	0.715558	0.389991
	H9	H	0.163924	0.711570	0.588856
	H10	H	0.836368	0.284152	0.588776
	H11	H	0.164194	0.284676	0.393578
	H12	H	0.835795	0.400946	0.705000
	H13	H	0.162454	0.597178	0.706376
	H14	H	0.836131	0.598908	0.275157
	H15	H	0.162925	0.399201	0.276024
	H16	H	0.400087	0.716094	0.828540
	H17	H	0.598465	0.713078	0.153441
	H18	H	0.600420	0.283888	0.828465
	H19	H	0.402561	0.283592	0.153979
	H20	H	0.715785	0.835932	0.393527
	H21	H	0.714870	0.162269	0.586775
	H22	H	0.289698	0.835012	0.587605
	H23	H	0.284742	0.162364	0.390552
	H24	H	0.901862	0.336201	0.205779
	H25	H	0.098255	0.661721	0.205985
	H26	H	0.099921	0.336960	0.777030
	H27	H	0.898639	0.661347	0.773215
	H28	H	0.214951	0.901375	0.326372
	H29	H	0.215570	0.094357	0.653233
	H30	H	0.786768	0.097921	0.326515
	H31	H	0.786719	0.899898	0.652523
	H32	H	0.336773	0.216071	0.890851
	H33	H	0.664751	0.211930	0.088474
	H34	H	0.336490	0.786352	0.088593
	H35	H	0.664388	0.784377	0.892923
	H36	H	0.336722	0.901417	0.204958
	H37	H	0.663881	0.096957	0.204929
	H38	H	0.336226	0.100324	0.774391
	H39	H	0.663774	0.900336	0.775660
	H40	H	0.901668	0.215899	0.327737
	H41	H	0.101382	0.213221	0.652851
	H42	H	0.099503	0.783890	0.326569
	H43	H	0.902449	0.782813	0.652473
	H44	H	0.215141	0.337126	0.894761
	H45	H	0.211069	0.663843	0.088587
	H46	H	0.786233	0.336364	0.088887
	H47	H	0.785883	0.663421	0.892209
	H48	H	0.401546	0.115630	0.576830
	H49	H	0.582375	0.885161	0.591470
	H50	H	0.596122	0.113449	0.403363
	H51	H	0.411238	0.884088	0.395136
	H52	H	0.590067	0.403899	0.105334
	H53	H	0.589871	0.589264	0.876141
	H54	H	0.408694	0.589163	0.105525
	H55	H	0.412833	0.409357	0.877803
	H56	H	0.119421	0.593178	0.387616
	H57	H	0.887079	0.586518	0.576780
	H58	H	0.114702	0.408249	0.582081
	H59	H	0.884368	0.410332	0.399365
	H60	H	0.117008	0.406061	0.588787
	H61	H	0.882423	0.589321	0.588992
	H62	H	0.117152	0.599100	0.403068
	H63	H	0.882170	0.407081	0.392740
	H64	H	0.409543	0.600181	0.107897
	H65	H	0.589849	0.596685	0.874806
	H66	H	0.594957	0.403433	0.107534
	H67	H	0.405395	0.402010	0.873510
	H68	H	0.598535	0.118097	0.390519
	H69	H	0.594319	0.887334	0.571555
	H70	H	0.407769	0.116534	0.588867
	H71	H	0.409165	0.884185	0.399543
	H72	H	0.921779	0.610796	0.082742
	H73	H	0.093071	0.384418	0.081512
	H74	H	0.094605	0.616013	0.900330
	H75	H	0.915764	0.386308	0.901172
	H76	H	0.090645	0.900089	0.605248
	H77	H	0.096423	0.086824	0.375040
	H78	H	0.900927	0.085022	0.606010
	H79	H	0.904722	0.903038	0.372024
	H80	H	0.616618	0.095749	0.900746
	H81	H	0.382488	0.091683	0.087280
	H82	H	0.616000	0.913426	0.089200
	H83	H	0.385322	0.911458	0.898448
	H84	H	0.621499	0.898128	0.088995
	H85	H	0.383324	0.097185	0.080192
	H86	H	0.614244	0.087498	0.898125
	H87	H	0.383131	0.908370	0.895251
	H88	H	0.916656	0.089468	0.601630
	H89	H	0.086034	0.092089	0.376996
	H90	H	0.100059	0.902118	0.607074
	H91	H	0.907178	0.911527	0.375536
	H92	H	0.092077	0.617901	0.892388
	H93	H	0.096733	0.382906	0.086691
	H94	H	0.898532	0.614325	0.070893
	H95	H	0.899909	0.382366	0.903194
	H96	H	0.414921	0.112044	0.578415
	H97	H	0.604965	0.878579	0.590865
	H98	H	0.585408	0.113743	0.393918
	H99	H	0.406941	0.882427	0.396125
	H100	H	0.593893	0.408147	0.105418
	H101	H	0.596838	0.592955	0.874563
	H102	H	0.399440	0.595208	0.109177
	H103	H	0.402254	0.412641	0.876601
	H104	H	0.112597	0.582758	0.399991
	H105	H	0.881607	0.599069	0.578906
	H106	H	0.116738	0.401340	0.582799
	H107	H	0.882061	0.402661	0.399613
	H108	H	0.901504	0.621094	0.096033
	H109	H	0.090596	0.383581	0.087193
	H110	H	0.086064	0.613753	0.898272
	H111	H	0.906924	0.381314	0.888481
	H112	H	0.094166	0.908835	0.603380
	H113	H	0.095148	0.098131	0.372377
	H114	H	0.906431	0.100600	0.608336
	H115	H	0.913889	0.904501	0.375407
	H116	H	0.618465	0.093574	0.891931
	H117	H	0.385777	0.088266	0.079580
	H118	H	0.614992	0.904749	0.075870
	H119	H	0.384411	0.907260	0.900135
	C120	C	0.379566	0.007290	0.611167
	C121	C	0.622711	0.991323	0.612341
	C122	C	0.622492	0.007573	0.368329
	C123	C	0.379336	0.991180	0.367629
	C124	C	0.622176	0.377120	-0.001145
	C125	C	0.621105	0.620745	0.982875
	C126	C	0.377168	0.622978	-0.000325
	C127	C	0.378643	0.378622	0.983311
	C128	C	0.008154	0.620902	0.368026
	C129	C	0.991588	0.619873	0.611050
	C130	C	0.008199	0.376738	0.612929
	C131	C	0.991438	0.378358	0.369910
	C132	C	0.878936	0.507740	0.112171
	C133	C	0.121403	0.491331	0.113281
	C134	C	0.120952	0.508230	0.869528
	C135	C	0.877907	0.491009	0.868684
	C136	C	0.123352	0.875807	0.497801
	C137	C	0.121949	0.119851	0.482404
	C138	C	0.879233	0.120948	0.498001
	C139	C	0.879718	0.877393	0.481799
	C140	C	0.508362	0.121758	0.868221
	C141	C	0.492391	0.120058	0.110524
	C142	C	0.509003	0.877708	0.112279
	C143	C	0.492221	0.879078	0.869404
	C144	C	0.382146	0.885069	0.667777
	C145	C	0.620568	0.114025	0.666838
	C146	C	0.620654	0.884615	0.314110
	C147	C	0.380179	0.113604	0.311467
	C148	C	0.677573	0.380380	0.876576
	C149	C	0.676421	0.616982	0.105149
	C150	C	0.321589	0.620377	0.877516
	C151	C	0.324705	0.381469	0.106259
	C152	C	0.885140	0.676827	0.370357
	C153	C	0.114852	0.673965	0.609010
	C154	C	0.885198	0.322185	0.609600
	C155	C	0.115248	0.322883	0.372977
	C156	C	0.884872	0.379440	0.667775
	C157	C	0.114188	0.617174	0.667327
	C158	C	0.884999	0.619141	0.313050
	C159	C	0.114737	0.379814	0.314806
	C160	C	0.379380	0.678169	0.877196
	C161	C	0.618787	0.675184	0.105079
	C162	C	0.620351	0.322147	0.876876
	C163	C	0.381395	0.321930	0.105416
	C164	C	0.677948	0.884589	0.372219
	C165	C	0.677150	0.114017	0.607887
	C166	C	0.326335	0.884063	0.608536
	C167	C	0.322888	0.113744	0.369941
	C168	C	0.880983	0.385094	0.168073
	C169	C	0.118614	0.613633	0.168149
	C170	C	0.120070	0.385562	0.814929
	C171	C	0.878507	0.613091	0.811988
	C172	C	0.177297	0.880175	0.375008
	C173	C	0.177618	0.115969	0.604617
	C174	C	0.823974	0.118908	0.375538
	C175	C	0.824605	0.879602	0.604000
	C176	C	0.385441	0.177963	0.870263
	C177	C	0.615715	0.174403	0.108577
	C178	C	0.385342	0.824055	0.109219
	C179	C	0.615380	0.822507	0.872097
	C180	C	0.385616	0.881045	0.167086
	C181	C	0.615308	0.117533	0.166576
	C182	C	0.385222	0.120355	0.812474
	C183	C	0.615089	0.879992	0.813804
	C184	C	0.881001	0.177409	0.375987
	C185	C	0.120594	0.174864	0.604398
	C186	C	0.120165	0.821576	0.375210
	C187	C	0.881716	0.821082	0.603960
	C188	C	0.177381	0.385911	0.873317
	C189	C	0.174919	0.614430	0.109654
	C190	C	0.823878	0.385007	0.109651
	C191	C	0.823021	0.614111	0.871492
	C192	C	0.401519	0.092791	0.588141
	C193	C	0.600513	0.905873	0.590970
	C194	C	0.600014	0.093015	0.389604
	C195	C	0.402479	0.905780	0.390119
	C196	C	0.599686	0.398832	0.083987
	C197	C	0.598602	0.599402	0.897267
	C198	C	0.399305	0.601122	0.085357
	C199	C	0.400486	0.401276	0.898125
	C200	C	0.094223	0.598305	0.390453
	C201	C	0.905643	0.597926	0.588252
	C202	C	0.094076	0.398777	0.591273
	C203	C	0.905343	0.400086	0.391107
	C204	C	0.901006	0.593193	0.089910
	C205	C	0.099700	0.405737	0.091523
	C206	C	0.097765	0.593686	0.890621
	C207	C	0.900968	0.405409	0.891213
	C208	C	0.101396	0.897245	0.583223
	C209	C	0.099253	0.098338	0.396862
	C210	C	0.901403	0.098295	0.583357
	C211	C	0.902110	0.899645	0.396360
	C212	C	0.594224	0.098999	0.890501
	C213	C	0.406308	0.098639	0.088676
	C214	C	0.595248	0.899096	0.090848
	C215	C	0.406406	0.902182	0.891542
	Zn216	Zn	0.500537	0.000091	0.740174
	Zn217	Zn	0.501201	-0.000776	0.239420
	Zn218	Zn	0.750148	0.499238	-0.009726
	Zn219	Zn	0.249149	0.500498	-0.008035
	Zn220	Zn	0.000697	0.748054	0.489589
	Zn221	Zn	0.000399	0.249243	0.490581
	Zn222	Zn	-0.000832	0.499279	0.740520
	Zn223	Zn	-0.000137	0.499110	0.241114
	Zn224	Zn	0.499805	0.750220	-0.009144
	Zn225	Zn	0.500448	0.249026	-0.009322
	Zn226	Zn	0.750844	-0.001165	0.490035
	Zn227	Zn	0.251163	-0.001855	0.489844
	N228	N	0.414651	0.962703	0.669214
	N229	N	0.587271	0.036870	0.669378
	N230	N	0.586956	0.962203	0.311311
	N231	N	0.414405	0.036522	0.310002
	N232	N	0.678808	0.413910	0.953488
	N233	N	0.677775	0.583823	0.028081
	N234	N	0.320474	0.586605	0.954617
	N235	N	0.322635	0.415788	0.029418
	N236	N	0.962814	0.677934	0.403925
	N237	N	0.037730	0.675436	0.574342
	N238	N	0.962752	0.320421	0.576485
	N239	N	0.037800	0.321975	0.406660
	N240	N	0.962558	0.412884	0.669826
	N241	N	0.036493	0.584225	0.668517
	N242	N	0.962596	0.585101	0.311661
	N243	N	0.037020	0.413556	0.312735
	N244	N	0.413137	0.680042	0.954282
	N245	N	0.585106	0.677546	0.027963
	N246	N	0.586854	0.319943	0.953773
	N247	N	0.414489	0.320391	0.028131
	N248	N	0.678762	0.961515	0.405497
	N249	N	0.678791	0.036691	0.574835
	N250	N	0.324671	0.960937	0.573937
	N251	N	0.322303	0.036525	0.404379
	N252	N	0.914535	0.462416	0.169567
	N253	N	0.086388	0.535963	0.170847
	N254	N	0.085621	0.462743	0.812395
	N255	N	0.911982	0.535726	0.810172
	N256	N	0.179628	0.912917	0.452211
	N257	N	0.178540	0.082639	0.527618
	N258	N	0.822983	0.084170	0.452406
	N259	N	0.823343	0.913800	0.527105
	N260	N	0.463045	0.179272	0.903826
	N261	N	0.538329	0.175949	0.074499
	N262	N	0.462818	0.821782	0.076186
	N263	N	0.537784	0.821722	0.905837
	N264	N	0.463743	0.913677	0.169230
	N265	N	0.537680	0.084381	0.167830
	N266	N	0.462789	0.086372	0.810855
	N267	N	0.537778	0.914653	0.812248
	N268	N	0.914655	0.178724	0.453045
	N269	N	0.086767	0.177327	0.527293
	N270	N	0.087445	0.818685	0.452622
	N271	N	0.915656	0.819940	0.526988
	N272	N	0.177870	0.463138	0.906453
	N273	N	0.176509	0.537312	0.076037
	N274	N	0.822383	0.462126	0.075603
	N275	N	0.822298	0.536973	0.905761
	O276	O	1.997332	-0.044903	1.002490
	H277	H	1.989193	-0.054777	1.005855
	H278	H	2.004542	-0.049253	1.001063
	O279	O	0.001868	0.157968	-0.024743
	H280	H	-0.006172	0.155428	-0.020353
	H281	H	-0.002071	0.160850	-0.024929
	O282	O	0.002388	0.022382	0.977105
	H283	H	0.010077	0.025248	0.964346
	H284	H	-0.004502	0.019293	0.969691
	O285	O	0.426613	0.518518	0.588325
	H286	H	0.422875	0.511322	0.587495
	H287	H	0.425933	0.529675	0.594671
	O288	O	0.383121	0.487954	0.515961
	H289	H	0.377387	0.485401	0.519899
	H290	H	0.384766	0.486031	0.515698
	O291	O	0.039029	0.914932	0.919968
	H292	H	0.039140	0.912704	0.905681
	H293	H	0.041493	0.919895	0.913088
	O294	O	0.044039	0.031668	-0.032394
	H295	H	0.051544	0.039275	-0.033646
	H296	H	0.040251	0.049987	-0.026988
	O297	O	0.410755	0.544274	0.565911
	H298	H	0.396024	0.553738	0.567298
	H299	H	0.405129	0.543308	0.552647
	O300	O	-0.006582	1.035904	0.978501
	H301	H	-0.006868	1.042986	0.978344
	H302	H	-0.005595	1.033504	0.982412
	O303	O	0.418198	0.468550	0.530481
	H304	H	0.426568	0.475086	0.530805
	H305	H	0.421863	0.464495	0.541927
	O306	O	-0.025106	0.025310	0.956299
	H307	H	-0.029711	0.028072	0.951771
	H308	H	-0.014028	0.025751	0.961272
	O309	O	1.036725	1.038620	0.934755
	H310	H	1.028063	1.027844	0.936552
	H311	H	1.044826	1.027439	0.950939
	O312	O	0.424404	0.445659	0.576601
	H313	H	0.412070	0.445424	0.574287
	H314	H	0.414025	0.442574	0.576177
	O315	O	0.439864	0.505346	0.530335
	H316	H	0.444942	0.490137	0.539041
	H317	H	0.438874	0.497813	0.527871
	O318	O	-0.015625	1.074548	-0.074392
	H319	H	-0.027698	1.074860	-0.077233
	H320	H	-0.026344	1.085095	-0.067677
	O321	O	1.039538	1.026778	-0.040450
	H322	H	1.046851	1.025788	-0.043491
	H323	H	1.033532	1.019438	-0.046742
