data_Molecule from HDF5

_cell_length_a		16.205519
_cell_length_b		16.424199
_cell_length_c		16.331483
_cell_angle_alpha	89.888302
_cell_angle_beta	90.041586
_cell_angle_gamma	89.979344
_symmetry_space_group_name_H-M	'P 1'
_symmetry_Int_Tables_number		1

loop_
	_symmetry_equiv_pos_as_xyz
	x,y,z

loop_
	_atom_site_label
	_atom_site_type_symbol
	_atom_site_fract_x
	_atom_site_fract_y
	_atom_site_fract_z
	H0	H	0.398696	0.837616	0.723192
	H1	H	0.604284	0.159901	0.721309
	H2	H	0.603633	0.838407	0.284871
	H3	H	0.396920	0.158411	0.284531
	H4	H	0.713369	0.402091	0.839866
	H5	H	0.715289	0.598403	0.165814
	H6	H	0.282605	0.600918	0.841066
	H7	H	0.283300	0.397888	0.164888
	H8	H	0.837952	0.716382	0.399515
	H9	H	0.161499	0.715493	0.607258
	H10	H	0.835446	0.281588	0.604762
	H11	H	0.161540	0.280450	0.401777
	H12	H	0.835450	0.398272	0.718462
	H13	H	0.161283	0.599383	0.720729
	H14	H	0.836916	0.597531	0.286735
	H15	H	0.162848	0.396089	0.287971
	H16	H	0.395321	0.719839	0.842909
	H17	H	0.602835	0.717211	0.164756
	H18	H	0.603711	0.279864	0.842145
	H19	H	0.396788	0.279863	0.163969
	H20	H	0.716219	0.836720	0.404120
	H21	H	0.716642	0.160782	0.601235
	H22	H	0.280999	0.837423	0.607398
	H23	H	0.281251	0.159089	0.401812
	H24	H	0.898425	0.336147	0.219261
	H25	H	0.103065	0.657735	0.223310
	H26	H	0.098549	0.336437	0.787713
	H27	H	0.896105	0.659353	0.784469
	H28	H	0.217397	0.897370	0.341931
	H29	H	0.216511	0.098374	0.665692
	H30	H	0.786723	0.094580	0.340080
	H31	H	0.785125	0.897889	0.665529
	H32	H	0.337309	0.215700	0.901146
	H33	H	0.662692	0.215890	0.103846
	H34	H	0.337962	0.781701	0.107822
	H35	H	0.663123	0.782231	0.903906
	H36	H	0.337031	0.898329	0.220763
	H37	H	0.663837	0.098907	0.219173
	H38	H	0.338036	0.100654	0.785686
	H39	H	0.664762	0.898497	0.789131
	H40	H	0.896248	0.215974	0.342145
	H41	H	0.102311	0.216912	0.664661
	H42	H	0.107745	0.778172	0.344309
	H43	H	0.897990	0.779598	0.664374
	H44	H	0.216072	0.337484	0.903391
	H45	H	0.216719	0.659708	0.104679
	H46	H	0.782897	0.336843	0.102068
	H47	H	0.784366	0.660851	0.905515
	H48	H	0.409846	0.112542	0.596764
	H49	H	0.596006	0.883627	0.592578
	H50	H	0.597040	0.114585	0.411396
	H51	H	0.410251	0.885411	0.417166
	H52	H	0.588193	0.394970	0.120703
	H53	H	0.588762	0.603134	0.885339
	H54	H	0.404349	0.594407	0.120447
	H55	H	0.407673	0.413914	0.889675
	H56	H	0.116514	0.590184	0.410415
	H57	H	0.884660	0.589419	0.591533
	H58	H	0.111836	0.411384	0.588173
	H59	H	0.886524	0.413454	0.415165
	H60	H	0.116403	0.410254	0.604119
	H61	H	0.883597	0.588529	0.593846
	H62	H	0.114715	0.589821	0.417624
	H63	H	0.880702	0.406826	0.404727
	H64	H	0.408474	0.585230	0.117414
	H65	H	0.599761	0.586479	0.886894
	H66	H	0.601128	0.408660	0.120777
	H67	H	0.415597	0.403856	0.888675
	H68	H	0.590397	0.113670	0.407341
	H69	H	0.594178	0.881592	0.602638
	H70	H	0.410722	0.111403	0.593336
	H71	H	0.407426	0.882703	0.412076
	H72	H	0.911475	0.613932	0.101557
	H73	H	0.093230	0.383652	0.092581
	H74	H	0.084023	0.614005	0.902631
	H75	H	0.910883	0.384521	0.909819
	H76	H	0.092351	0.903697	0.621150
	H77	H	0.087197	0.087029	0.390793
	H78	H	0.912385	0.088210	0.617425
	H79	H	0.905324	0.900708	0.384875
	H80	H	0.614456	0.086157	0.915679
	H81	H	0.385267	0.088469	0.093120
	H82	H	0.615688	0.903936	0.091980
	H83	H	0.383241	0.912473	0.904468
	H84	H	0.614481	0.911331	0.093658
	H85	H	0.383484	0.089275	0.095901
	H86	H	0.617682	0.090767	0.907622
	H87	H	0.382698	0.900397	0.916473
	H88	H	0.909377	0.096308	0.620395
	H89	H	0.088640	0.095164	0.386965
	H90	H	0.090802	0.910667	0.617649
	H91	H	0.906909	0.911465	0.388738
	H92	H	0.085892	0.608597	0.919657
	H93	H	0.091785	0.382534	0.098981
	H94	H	0.911690	0.609786	0.090647
	H95	H	0.904609	0.384232	0.913019
	H96	H	0.406778	0.112242	0.594742
	H97	H	0.586897	0.886076	0.596965
	H98	H	0.589483	0.111291	0.414775
	H99	H	0.413837	0.885276	0.411715
	H100	H	0.584114	0.412596	0.114074
	H101	H	0.580137	0.586456	0.893229
	H102	H	0.414325	0.594178	0.117374
	H103	H	0.403321	0.403213	0.884182
	H104	H	0.113981	0.583932	0.413756
	H105	H	0.882879	0.590492	0.593373
	H106	H	0.117346	0.397914	0.593980
	H107	H	0.882642	0.400030	0.417173
	H108	H	0.902166	0.614863	0.095249
	H109	H	0.087749	0.384670	0.095537
	H110	H	0.100194	0.616974	0.910426
	H111	H	0.904232	0.381341	0.906512
	H112	H	0.085747	0.905405	0.617568
	H113	H	0.095119	0.089058	0.387401
	H114	H	0.903691	0.089413	0.620151
	H115	H	0.915607	0.903753	0.389410
	H116	H	0.617192	0.095428	0.915599
	H117	H	0.383335	0.091954	0.093914
	H118	H	0.618651	0.906926	0.098200
	H119	H	0.389645	0.915137	0.920132
	C120	C	0.378149	0.006556	0.626371
	C121	C	0.622625	0.990407	0.626019
	C122	C	0.622427	0.006881	0.381570
	C123	C	0.379051	0.990418	0.382926
	C124	C	0.621251	0.376864	0.011356
	C125	C	0.620168	0.620719	0.995254
	C126	C	0.377755	0.621993	0.012082
	C127	C	0.378775	0.377022	0.994528
	C128	C	0.008215	0.618652	0.382546
	C129	C	0.990503	0.619647	0.624460
	C130	C	0.007233	0.377013	0.624764
	C131	C	0.990797	0.376125	0.382147
	C132	C	0.877858	0.506273	0.125379
	C133	C	0.121567	0.489862	0.125467
	C134	C	0.120519	0.506712	0.881400
	C135	C	0.876907	0.490302	0.881016
	C136	C	0.121820	0.876496	0.512459
	C137	C	0.121005	0.120191	0.495183
	C138	C	0.878410	0.119884	0.512188
	C139	C	0.878880	0.875801	0.494761
	C140	C	0.509303	0.120822	0.881950
	C141	C	0.491730	0.119819	0.124593
	C142	C	0.508799	0.877529	0.125598
	C143	C	0.492591	0.878425	0.883500
	C144	C	0.378814	0.885753	0.684238
	C145	C	0.622771	0.111823	0.682446
	C146	C	0.622454	0.886272	0.324098
	C147	C	0.378035	0.110571	0.324148
	C148	C	0.676849	0.380198	0.889167
	C149	C	0.677027	0.618535	0.117358
	C150	C	0.320859	0.620890	0.890095
	C151	C	0.321706	0.377998	0.116162
	C152	C	0.886571	0.676903	0.381280
	C153	C	0.112920	0.676540	0.625496
	C154	C	0.884617	0.320046	0.624078
	C155	C	0.112976	0.318971	0.382648
	C156	C	0.884252	0.378266	0.680549
	C157	C	0.112527	0.619101	0.682515
	C158	C	0.885664	0.617786	0.325091
	C159	C	0.113596	0.376548	0.325867
	C160	C	0.376904	0.680312	0.891078
	C161	C	0.621333	0.677878	0.116770
	C162	C	0.622334	0.319421	0.890220
	C163	C	0.378375	0.319289	0.115944
	C164	C	0.678538	0.885270	0.383547
	C165	C	0.678908	0.112130	0.622719
	C166	C	0.319945	0.885647	0.626793
	C167	C	0.320558	0.110966	0.382760
	C168	C	0.878854	0.384846	0.181180
	C169	C	0.122206	0.610177	0.183678
	C170	C	0.119210	0.385119	0.825364
	C171	C	0.876748	0.611293	0.823556
	C172	C	0.179855	0.877136	0.390945
	C173	C	0.178256	0.118580	0.617066
	C174	C	0.823368	0.116372	0.389147
	C175	C	0.822896	0.877558	0.616977
	C176	C	0.386317	0.177251	0.882050
	C177	C	0.614291	0.176784	0.123641
	C178	C	0.386684	0.820527	0.126263
	C179	C	0.614559	0.820595	0.883624
	C180	C	0.386107	0.878539	0.182541
	C181	C	0.614730	0.118766	0.180914
	C182	C	0.386584	0.120095	0.824703
	C183	C	0.615347	0.878418	0.826570
	C184	C	0.877831	0.176643	0.390310
	C185	C	0.121498	0.177613	0.616506
	C186	C	0.124784	0.817806	0.392041
	C187	C	0.879262	0.818990	0.616240
	C188	C	0.177358	0.385564	0.883213
	C189	C	0.178632	0.610993	0.124575
	C190	C	0.821279	0.384971	0.122762
	C191	C	0.821329	0.612255	0.883840
	C192	C	0.402192	0.090296	0.601957
	C193	C	0.599119	0.905841	0.603873
	C194	C	0.599058	0.091367	0.404362
	C195	C	0.403447	0.906230	0.406869
	C196	C	0.597852	0.399061	0.096542
	C197	C	0.596525	0.598464	0.910568
	C198	C	0.401904	0.598274	0.096554
	C199	C	0.402112	0.400324	0.909605
	C200	C	0.093213	0.594730	0.406827
	C201	C	0.905600	0.596307	0.599867
	C202	C	0.093082	0.399827	0.602028
	C203	C	0.905192	0.399919	0.405463
	C204	C	0.901440	0.590980	0.102491
	C205	C	0.097869	0.405654	0.102430
	C206	C	0.096945	0.591243	0.904136
	C207	C	0.899871	0.405284	0.903299
	C208	C	0.096976	0.899809	0.596887
	C209	C	0.097284	0.097213	0.410369
	C210	C	0.901498	0.097711	0.597171
	C211	C	0.902326	0.898627	0.409680
	C212	C	0.594333	0.097565	0.905957
	C213	C	0.406186	0.096748	0.101194
	C214	C	0.594200	0.900792	0.101782
	C215	C	0.407339	0.902415	0.906930
	Zn216	Zn	0.501068	-0.000478	0.755107
	Zn217	Zn	0.500559	-0.001659	0.253051
	Zn218	Zn	0.748751	0.499379	0.003219
	Zn219	Zn	0.250203	0.499006	0.003124
	Zn220	Zn	0.000693	0.747817	0.503184
	Zn221	Zn	-0.000896	0.248719	0.503617
	Zn222	Zn	-0.001536	0.498231	0.751952
	Zn223	Zn	0.000219	0.497185	0.254518
	Zn224	Zn	0.500032	0.749792	0.004155
	Zn225	Zn	0.499868	0.248440	0.002909
	Zn226	Zn	0.751354	-0.002114	0.503684
	Zn227	Zn	0.249310	-0.002113	0.503560
	N228	N	0.414243	0.961919	0.684120
	N229	N	0.588479	0.035095	0.684572
	N230	N	0.588372	0.963005	0.322740
	N231	N	0.413987	0.034751	0.324499
	N232	N	0.676455	0.415000	0.965730
	N233	N	0.676201	0.583430	0.041085
	N234	N	0.321347	0.585208	0.966365
	N235	N	0.322004	0.413307	0.039791
	N236	N	0.963811	0.677625	0.416127
	N237	N	0.035966	0.677087	0.590055
	N238	N	0.962192	0.319295	0.589829
	N239	N	0.035421	0.318532	0.416893
	N240	N	0.961549	0.412698	0.681270
	N241	N	0.035492	0.584173	0.681887
	N242	N	0.962519	0.582350	0.325675
	N243	N	0.036434	0.411430	0.325513
	N244	N	0.411656	0.681101	0.967874
	N245	N	0.586533	0.679238	0.039913
	N246	N	0.588484	0.317389	0.967277
	N247	N	0.413186	0.318591	0.039124
	N248	N	0.678441	0.961144	0.418865
	N249	N	0.679059	0.035779	0.588475
	N250	N	0.319618	0.961677	0.591222
	N251	N	0.321279	0.035103	0.418653
	N252	N	0.913214	0.461377	0.182799
	N253	N	0.087466	0.533853	0.184390
	N254	N	0.084776	0.461679	0.824069
	N255	N	0.910411	0.534531	0.821762
	N256	N	0.178097	0.912828	0.466791
	N257	N	0.178280	0.083795	0.540454
	N258	N	0.823591	0.081673	0.465885
	N259	N	0.822656	0.912363	0.540385
	N260	N	0.463631	0.177815	0.917035
	N261	N	0.536853	0.177374	0.089055
	N262	N	0.464017	0.819721	0.091538
	N263	N	0.537259	0.820506	0.918250
	N264	N	0.463247	0.913277	0.182198
	N265	N	0.537465	0.084146	0.181488
	N266	N	0.463922	0.085832	0.824547
	N267	N	0.538362	0.913914	0.826546
	N268	N	0.911513	0.178778	0.467577
	N269	N	0.086508	0.178547	0.539863
	N270	N	0.089202	0.817322	0.468643
	N271	N	0.913177	0.817719	0.539099
	N272	N	0.178393	0.462222	0.917098
	N273	N	0.178448	0.535180	0.089031
	N274	N	0.820375	0.461763	0.088874
	N275	N	0.821242	0.535968	0.918759
	O276	O	-0.024752	0.125453	-0.073630
	H277	H	-0.031214	0.131880	-0.073952
	H278	H	-0.028079	0.139242	-0.064899
	O279	O	0.481617	0.507238	0.379090
	H280	H	0.486634	0.498023	0.376152
	H281	H	0.499697	0.503834	0.385070
	O282	O	2.011627	1.111593	1.030980
	H283	H	2.004640	1.108677	1.021897
	H284	H	2.006503	1.110229	1.040694
	O285	O	-0.368042	0.509102	0.642324
	H286	H	-0.380758	0.520756	0.651889
	H287	H	-0.361870	0.522274	0.644413
	O288	O	0.461750	0.514202	0.614967
	H289	H	0.464056	0.527862	0.617584
	H290	H	0.451269	0.508028	0.618716
	O291	O	0.404087	0.323550	0.446004
	H292	H	0.409873	0.324607	0.441715
	H293	H	0.411984	0.328253	0.445725
	O294	O	0.895709	1.095282	0.923517
	H295	H	0.905281	1.105348	0.933577
	H296	H	0.896286	1.090707	0.917330
	O297	O	0.004293	0.056541	0.081055
	H298	H	0.009848	0.063437	0.080913
	H299	H	0.009537	0.055752	0.074262
	O300	O	0.513553	0.490794	0.422887
	H301	H	0.500643	0.489258	0.421767
	H302	H	0.500001	0.490649	0.426676
	O303	O	0.066447	0.933059	0.888714
	H304	H	0.079360	0.938507	0.889798
	H305	H	0.062242	0.932657	0.881828
	O306	O	0.337600	0.491472	0.497622
	H307	H	0.334041	0.505237	0.487742
	H308	H	0.339683	0.492933	0.484548
	O309	O	1.388377	0.566278	-0.478653
	H310	H	1.386504	0.576596	-0.481009
	H311	H	1.382900	0.563384	-0.469414
	O312	O	0.058649	-0.057940	1.013928
	H313	H	0.055590	-0.051387	1.017125
	H314	H	0.059008	-0.064993	1.012686
	O315	O	0.031415	0.986661	0.010257
	H316	H	0.033602	0.975762	0.008105
	H317	H	0.036769	0.980538	0.010648
	O318	O	0.649852	0.398447	0.405501
	H319	H	0.659138	0.403071	0.405658
	H320	H	0.650637	0.393006	0.419151
	O321	O	0.348393	0.629892	0.328498
	H322	H	0.351031	0.621278	0.319556
	H323	H	0.354236	0.633234	0.333103
	O324	O	0.433594	0.599495	0.564035
	H325	H	0.432299	0.598038	0.553179
	H326	H	0.443673	0.610683	0.566517
	O327	O	0.483719	0.343970	0.678964
	H328	H	0.458593	0.348486	0.668781
	H329	H	0.473222	0.325678	0.691714
	O330	O	0.411504	0.689372	0.448055
	H331	H	0.421096	0.687043	0.439785
	H332	H	0.409591	0.705738	0.449998
	O333	O	-0.013269	0.958588	1.135339
	H334	H	-0.008080	0.950541	1.134352
	H335	H	-0.006756	0.955665	1.142999
	O336	O	1.002526	1.107163	0.896075
	H337	H	0.999759	1.112402	0.901078
	H338	H	1.007063	1.104662	0.902789
	O339	O	0.459237	0.494369	0.522933
	H340	H	0.465961	0.498040	0.525153
	H341	H	0.455196	0.495638	0.523758
	O342	O	0.997373	0.006082	0.023050
	H343	H	0.998695	0.017244	0.024186
	H344	H	1.003763	-0.005224	0.010363
	O345	O	0.594222	0.342581	0.544645
	H346	H	0.596020	0.336785	0.545523
	H347	H	0.591017	0.343924	0.555365
	O348	O	1.116619	0.950797	0.933516
	H349	H	1.103831	0.950479	0.928425
	H350	H	1.104503	0.951170	0.942473
	O351	O	1.109564	0.854047	0.010101
	H352	H	1.103250	0.845139	0.000534
	H353	H	1.103119	0.848602	-0.007486
	O354	O	0.500326	0.410738	0.325951
	H355	H	0.520002	0.390768	0.307531
	H356	H	0.494703	0.419923	0.330762
	O357	O	0.012172	-0.035567	0.034010
	H358	H	0.025150	-0.038394	0.032930
	H359	H	0.012512	-0.036204	0.035202
	O360	O	-0.058644	-0.010900	0.119219
	H361	H	-0.074142	-0.019917	0.119437
	H362	H	-0.043297	-0.013109	0.116308
	O363	O	0.594386	0.583608	0.492790
	H364	H	0.595985	0.577983	0.487048
	H365	H	0.605791	0.567973	0.500261
	O366	O	-0.013149	-0.071381	0.021540
	H367	H	-0.021799	-0.076886	0.035072
	H368	H	-0.014989	-0.078092	0.024765
	O369	O	0.589886	0.564968	0.526222
	H370	H	0.597073	0.564950	0.520327
	H371	H	0.585583	0.552548	0.520953
	O372	O	0.599232	0.607946	0.539448
	H373	H	0.598636	0.604462	0.533999
	H374	H	0.590671	0.609528	0.545562
	O375	O	0.436804	0.383560	0.387819
	H376	H	0.436324	0.387068	0.395481
	H377	H	0.449517	0.382740	0.377020
	O378	O	0.316540	0.345595	0.666540
	H379	H	0.301677	0.344791	0.661296
	H380	H	0.318953	0.361160	0.669797
	O381	O	0.580962	0.594338	0.496458
	H382	H	0.579762	0.586054	0.481385
	H383	H	0.596144	0.593824	0.496246
	O384	O	0.006628	0.943174	-0.076043
	H385	H	0.006145	0.942511	-0.081265
	H386	H	0.017282	0.953928	-0.082709
	O387	O	0.983083	-0.032301	0.970830
	H388	H	0.971941	-0.025894	0.958651
	H389	H	0.993557	-0.025098	0.978065
	O390	O	-0.051081	0.999106	-0.038920
	H391	H	-0.060526	1.011601	-0.038719
	H392	H	-0.044230	0.990843	-0.032189
	O393	O	1.070580	1.038112	0.092208
	H394	H	1.078371	1.035564	0.094817
	H395	H	1.070623	1.030812	0.090630
	O396	O	0.517666	0.574367	0.575103
	H397	H	0.516921	0.574586	0.571739
	H398	H	0.528058	0.566321	0.584320
	O399	O	-0.123428	0.895926	1.000756
	H400	H	-0.121231	0.912356	0.994897
	H401	H	-0.122061	0.900513	1.003042
	O402	O	0.883025	1.011501	0.949339
	H403	H	0.888860	1.018182	0.949808
	H404	H	0.877993	1.014821	0.942103
	O405	O	0.564583	0.464201	0.582083
	H406	H	0.567696	0.476607	0.585494
	H407	H	0.557160	0.460418	0.578519
