data_Molecule from HDF5

_cell_length_a		16.333823
_cell_length_b		16.287977
_cell_length_c		16.305745
_cell_angle_alpha	90.109773
_cell_angle_beta	90.013209
_cell_angle_gamma	90.018374
_symmetry_space_group_name_H-M	'P 1'
_symmetry_Int_Tables_number		1

loop_
	_symmetry_equiv_pos_as_xyz
	x,y,z

loop_
	_atom_site_label
	_atom_site_type_symbol
	_atom_site_fract_x
	_atom_site_fract_y
	_atom_site_fract_z
	H0	H	0.404734	0.839231	0.710078
	H1	H	0.600553	0.167519	0.711858
	H2	H	0.600466	0.840698	0.281878
	H3	H	0.402332	0.167668	0.283760
	H4	H	0.715378	0.405301	0.835131
	H5	H	0.716157	0.605448	0.160924
	H6	H	0.283742	0.604020	0.835557
	H7	H	0.286156	0.405245	0.162413
	H8	H	0.836680	0.717970	0.402507
	H9	H	0.163703	0.718413	0.598465
	H10	H	0.837396	0.288520	0.596523
	H11	H	0.163822	0.290907	0.400714
	H12	H	0.835963	0.406464	0.712380
	H13	H	0.162798	0.602465	0.714351
	H14	H	0.836959	0.603400	0.284378
	H15	H	0.162285	0.403759	0.283384
	H16	H	0.402392	0.717748	0.833854
	H17	H	0.598688	0.720158	0.160818
	H18	H	0.597851	0.291716	0.834538
	H19	H	0.399945	0.288086	0.160400
	H20	H	0.716640	0.840051	0.398111
	H21	H	0.716303	0.167209	0.595835
	H22	H	0.288159	0.839785	0.594060
	H23	H	0.285566	0.167327	0.398173
	H24	H	0.901040	0.339834	0.212738
	H25	H	0.097821	0.666580	0.214024
	H26	H	0.097714	0.340352	0.785026
	H27	H	0.899829	0.666895	0.784341
	H28	H	0.215675	0.904435	0.334008
	H29	H	0.216797	0.102930	0.660776
	H30	H	0.786469	0.103256	0.334939
	H31	H	0.784762	0.904582	0.659803
	H32	H	0.336647	0.219613	0.897890
	H33	H	0.663603	0.220947	0.096612
	H34	H	0.337732	0.790642	0.095846
	H35	H	0.663488	0.788839	0.898361
	H36	H	0.338244	0.905023	0.212666
	H37	H	0.663772	0.105164	0.213529
	H38	H	0.338113	0.102630	0.781444
	H39	H	0.664505	0.906058	0.783660
	H40	H	0.903574	0.218280	0.334851
	H41	H	0.100451	0.218362	0.661647
	H42	H	0.100087	0.787381	0.335066
	H43	H	0.902048	0.791549	0.661963
	H44	H	0.214856	0.340968	0.899689
	H45	H	0.215857	0.666707	0.099494
	H46	H	0.783349	0.341207	0.098927
	H47	H	0.786242	0.667715	0.900759
	H48	H	0.405375	0.123820	0.600367
	H49	H	0.594379	0.887990	0.590002
	H50	H	0.595434	0.120898	0.400984
	H51	H	0.411574	0.889820	0.407635
	H52	H	0.589152	0.400740	0.117584
	H53	H	0.596242	0.596481	0.881023
	H54	H	0.414453	0.599849	0.111981
	H55	H	0.405095	0.410422	0.881191
	H56	H	0.116343	0.597007	0.404260
	H57	H	0.884917	0.591117	0.596157
	H58	H	0.113607	0.417868	0.591242
	H59	H	0.880642	0.399391	0.407748
	H60	H	0.117939	0.409428	0.597977
	H61	H	0.880787	0.605282	0.596881
	H62	H	0.115415	0.596786	0.407169
	H63	H	0.888504	0.416742	0.414541
	H64	H	0.403649	0.602879	0.116859
	H65	H	0.592730	0.593659	0.883791
	H66	H	0.604605	0.417153	0.116392
	H67	H	0.405856	0.414754	0.882450
	H68	H	0.589205	0.117697	0.406641
	H69	H	0.595693	0.886910	0.590110
	H70	H	0.420302	0.115876	0.588750
	H71	H	0.403659	0.886977	0.405865
	H72	H	0.909742	0.617787	0.088881
	H73	H	0.087058	0.386960	0.096080
	H74	H	0.086595	0.618777	0.908497
	H75	H	0.902397	0.387854	0.913173
	H76	H	0.093912	0.906868	0.614802
	H77	H	0.095040	0.098236	0.380948
	H78	H	0.910414	0.091081	0.612417
	H79	H	0.905933	0.905649	0.379022
	H80	H	0.615558	0.103502	0.913009
	H81	H	0.384658	0.101976	0.088194
	H82	H	0.614321	0.914410	0.084278
	H83	H	0.383286	0.898769	0.911110
	H84	H	0.616244	0.916428	0.092991
	H85	H	0.387614	0.092430	0.087956
	H86	H	0.614573	0.089932	0.904582
	H87	H	0.391027	0.923788	0.911719
	H88	H	0.912419	0.101073	0.614461
	H89	H	0.094724	0.095789	0.382308
	H90	H	0.099207	0.915020	0.614662
	H91	H	0.906975	0.916607	0.383086
	H92	H	0.095361	0.619592	0.911386
	H93	H	0.093440	0.389741	0.084125
	H94	H	0.903424	0.621206	0.091477
	H95	H	0.903035	0.384856	0.899244
	H96	H	0.401656	0.119333	0.580636
	H97	H	0.594493	0.886850	0.591805
	H98	H	0.597632	0.119424	0.409075
	H99	H	0.409654	0.886930	0.399827
	H100	H	0.583906	0.420641	0.108898
	H101	H	0.591272	0.598171	0.881588
	H102	H	0.405498	0.591587	0.112756
	H103	H	0.408393	0.411475	0.882845
	H104	H	0.115634	0.594498	0.405667
	H105	H	0.886180	0.599655	0.584239
	H106	H	0.115778	0.407214	0.587088
	H107	H	0.882802	0.414711	0.395002
	H108	H	0.909351	0.620634	0.095937
	H109	H	0.100567	0.384276	0.094465
	H110	H	0.093333	0.621338	0.903041
	H111	H	0.914537	0.389513	0.905343
	H112	H	0.090476	0.915030	0.611433
	H113	H	0.092906	0.098211	0.381755
	H114	H	0.902832	0.097102	0.615972
	H115	H	0.916288	0.909972	0.383721
	H116	H	0.620215	0.103125	0.896908
	H117	H	0.383606	0.096741	0.096865
	H118	H	0.617725	0.908383	0.089773
	H119	H	0.380305	0.913041	0.889857
	C120	C	0.380289	0.011940	0.618590
	C121	C	0.623218	0.995527	0.618929
	C122	C	0.623331	0.011666	0.376130
	C123	C	0.379502	0.995671	0.376206
	C124	C	0.621442	0.383818	0.006318
	C125	C	0.622461	0.626348	0.989497
	C126	C	0.378436	0.626598	0.006297
	C127	C	0.378057	0.383119	0.990092
	C128	C	0.008094	0.624947	0.377521
	C129	C	0.991722	0.626763	0.621404
	C130	C	0.008060	0.382360	0.620677
	C131	C	0.991698	0.382057	0.377470
	C132	C	0.878537	0.511973	0.120670
	C133	C	0.121860	0.495106	0.120488
	C134	C	0.120788	0.512048	0.878142
	C135	C	0.878385	0.495664	0.877608
	C136	C	0.122938	0.882220	0.505913
	C137	C	0.123194	0.125967	0.489459
	C138	C	0.879806	0.125328	0.506552
	C139	C	0.880244	0.882615	0.489608
	C140	C	0.508735	0.126575	0.876130
	C141	C	0.492541	0.126464	0.119611
	C142	C	0.509115	0.883432	0.118558
	C143	C	0.492654	0.882799	0.875867
	C144	C	0.383260	0.888480	0.673188
	C145	C	0.621043	0.118425	0.674031
	C146	C	0.621289	0.889293	0.319820
	C147	C	0.381891	0.118772	0.321329
	C148	C	0.676884	0.385776	0.883681
	C149	C	0.677579	0.625078	0.112384
	C150	C	0.322186	0.624183	0.884059
	C151	C	0.323715	0.385293	0.113184
	C152	C	0.885342	0.680136	0.381198
	C153	C	0.114600	0.681351	0.619118
	C154	C	0.885699	0.326816	0.617532
	C155	C	0.114692	0.327590	0.379958
	C156	C	0.885091	0.385416	0.674910
	C157	C	0.114379	0.623278	0.676405
	C158	C	0.885429	0.623021	0.322572
	C159	C	0.114112	0.383966	0.321772
	C160	C	0.381270	0.680549	0.882976
	C161	C	0.619489	0.682271	0.112133
	C162	C	0.618895	0.328847	0.883380
	C163	C	0.380291	0.326925	0.112306
	C164	C	0.678918	0.889040	0.377703
	C165	C	0.678419	0.118278	0.616144
	C166	C	0.325091	0.888834	0.615934
	C167	C	0.323594	0.118547	0.377967
	C168	C	0.880661	0.388759	0.175189
	C169	C	0.118694	0.617879	0.176012
	C170	C	0.118371	0.389198	0.822876
	C171	C	0.880115	0.618203	0.822061
	C172	C	0.177999	0.884035	0.382981
	C173	C	0.178847	0.123270	0.612164
	C174	C	0.824298	0.123577	0.383787
	C175	C	0.823775	0.884913	0.611888
	C176	C	0.385601	0.181378	0.878121
	C177	C	0.614922	0.182664	0.117250
	C178	C	0.386577	0.828093	0.116425
	C179	C	0.615015	0.827060	0.878047
	C180	C	0.386635	0.885227	0.174216
	C181	C	0.615187	0.125063	0.175230
	C182	C	0.386438	0.123821	0.819749
	C183	C	0.615605	0.885320	0.821111
	C184	C	0.882347	0.180653	0.383771
	C185	C	0.121352	0.181062	0.612666
	C186	C	0.120654	0.825746	0.383616
	C187	C	0.881679	0.828453	0.612763
	C188	C	0.176548	0.389499	0.879900
	C189	C	0.176970	0.618018	0.118895
	C190	C	0.822086	0.389560	0.118746
	C191	C	0.823673	0.618623	0.880066
	C192	C	0.402510	0.097502	0.596553
	C193	C	0.601340	0.909427	0.597062
	C194	C	0.600785	0.097272	0.398870
	C195	C	0.401756	0.910138	0.398048
	C196	C	0.599086	0.406354	0.092122
	C197	C	0.599946	0.603082	0.904031
	C198	C	0.401221	0.604597	0.091729
	C199	C	0.400054	0.405665	0.904353
	C200	C	0.093615	0.602810	0.399281
	C201	C	0.906129	0.605048	0.599017
	C202	C	0.093757	0.404908	0.598653
	C203	C	0.906167	0.403901	0.399322
	C204	C	0.900917	0.597712	0.098630
	C205	C	0.100039	0.409172	0.098149
	C206	C	0.098359	0.597692	0.900943
	C207	C	0.900268	0.409684	0.899487
	C208	C	0.100988	0.905516	0.591569
	C209	C	0.100685	0.104068	0.403668
	C210	C	0.902068	0.102989	0.592041
	C211	C	0.903151	0.904358	0.404162
	C212	C	0.594524	0.105151	0.898372
	C213	C	0.407412	0.103827	0.097474
	C214	C	0.594239	0.906449	0.095859
	C215	C	0.407124	0.905372	0.897813
	Zn216	Zn	0.501399	0.003896	0.747496
	Zn217	Zn	0.500972	0.004101	0.247850
	Zn218	Zn	0.750256	0.504177	-0.001320
	Zn219	Zn	0.250040	0.504390	-0.001083
	Zn220	Zn	0.000560	0.754454	0.499032
	Zn221	Zn	0.001253	0.254123	0.498615
	Zn222	Zn	-0.000501	0.504168	0.749267
	Zn223	Zn	-0.000212	0.502923	0.248927
	Zn224	Zn	0.500341	0.754770	-0.002868
	Zn225	Zn	0.499871	0.255526	-0.002170
	Zn226	Zn	0.752172	0.003335	0.497433
	Zn227	Zn	0.251230	0.004102	0.497561
	N228	N	0.416922	0.965937	0.674873
	N229	N	0.587499	0.041028	0.675953
	N230	N	0.587414	0.966670	0.318734
	N231	N	0.415934	0.041403	0.319922
	N232	N	0.678295	0.419301	0.961209
	N233	N	0.679471	0.591000	0.035246
	N234	N	0.320407	0.591443	0.961716
	N235	N	0.322316	0.419601	0.036019
	N236	N	0.962673	0.681507	0.414704
	N237	N	0.037355	0.683472	0.585590
	N238	N	0.963317	0.324901	0.584664
	N239	N	0.037606	0.326100	0.413797
	N240	N	0.962201	0.419163	0.676766
	N241	N	0.036918	0.590293	0.678114
	N242	N	0.962748	0.589552	0.320058
	N243	N	0.036688	0.416968	0.319981
	N244	N	0.415365	0.682300	0.960045
	N245	N	0.585738	0.682964	0.034764
	N246	N	0.584956	0.327553	0.960733
	N247	N	0.413432	0.325685	0.034790
	N248	N	0.680148	0.966117	0.412074
	N249	N	0.679775	0.040744	0.582468
	N250	N	0.322957	0.966572	0.582809
	N251	N	0.322082	0.041114	0.411522
	N252	N	0.915000	0.465954	0.176592
	N253	N	0.085021	0.540447	0.176985
	N254	N	0.084595	0.466572	0.821437
	N255	N	0.913874	0.540727	0.820717
	N256	N	0.179514	0.918438	0.460242
	N257	N	0.180100	0.089752	0.534548
	N258	N	0.822304	0.090102	0.461227
	N259	N	0.822896	0.918221	0.534423
	N260	N	0.462722	0.183184	0.912457
	N261	N	0.537685	0.183840	0.083524
	N262	N	0.463539	0.827082	0.082318
	N263	N	0.537693	0.825573	0.911467
	N264	N	0.463780	0.919090	0.175644
	N265	N	0.538180	0.091016	0.177096
	N266	N	0.463764	0.090453	0.818439
	N267	N	0.538411	0.919379	0.819751
	N268	N	0.916067	0.182011	0.461036
	N269	N	0.087564	0.182908	0.535466
	N270	N	0.087160	0.824596	0.460976
	N271	N	0.915906	0.826855	0.535768
	N272	N	0.178077	0.466888	0.913646
	N273	N	0.179191	0.540533	0.085399
	N274	N	0.820507	0.467207	0.085503
	N275	N	0.822564	0.541497	0.914095
	O276	O	1.391908	0.484113	0.511125
	H277	H	1.390805	0.485778	0.507135
	H278	H	1.399916	0.485055	0.506819
	O279	O	0.065837	-0.049783	-0.092209
	H280	H	0.062235	-0.042321	-0.096068
	H281	H	0.068494	-0.053524	-0.093915
	O282	O	0.000190	-0.029802	0.911124
	H283	H	-0.000171	-0.032330	0.899393
	H284	H	0.005162	-0.025218	0.916706
	O285	O	0.415237	0.482126	0.464087
	H286	H	0.419089	0.490297	0.469495
	H287	H	0.399290	0.476026	0.460057
	O288	O	0.512057	0.382403	0.508389
	H289	H	0.512737	0.375010	0.506183
	H290	H	0.503448	0.372116	0.514166
	O291	O	0.119161	0.803967	0.844803
	H292	H	0.135207	0.789047	0.844017
	H293	H	0.116615	0.803358	0.847073
	O294	O	0.014600	-0.027780	-0.034872
	H295	H	0.017082	-0.023484	-0.042487
	H296	H	0.010718	-0.028655	-0.040232
	O297	O	0.497402	0.408942	0.445520
	H298	H	0.498169	0.401394	0.440382
	H299	H	0.497093	0.404506	0.431887
	O300	O	0.030964	0.969611	0.936763
	H301	H	0.019825	0.959668	0.936409
	H302	H	0.017621	0.967238	0.926840
	O303	O	0.491407	0.448313	0.433534
	H304	H	0.491369	0.445937	0.428822
	H305	H	0.495509	0.441559	0.441546
	O306	O	0.028584	-0.117537	0.962284
	H307	H	0.038957	-0.125138	0.961657
	H308	H	0.038887	-0.118254	0.950938
	O309	O	0.962086	0.969773	0.960773
	H310	H	0.966089	0.967353	0.962064
	H311	H	0.950075	0.961052	0.965535
	O312	O	0.488030	0.381936	0.463546
	H313	H	0.491955	0.381457	0.470443
	H314	H	0.479274	0.379770	0.465926
	O315	O	0.486520	0.424395	0.446634
	H316	H	0.494582	0.416008	0.440867
	H317	H	0.482978	0.436497	0.448345
	O318	O	0.016408	0.964458	0.017426
	H319	H	0.017156	0.965631	0.022200
	H320	H	0.021655	0.965811	0.018950
	O321	O	1.049538	1.015519	-0.055578
	H322	H	1.053832	1.021794	-0.051703
	H323	H	1.041333	1.016098	-0.040678
