data_Molecule from HDF5

_cell_length_a		16.501212
_cell_length_b		16.490729
_cell_length_c		16.393824
_cell_angle_alpha	90.152775
_cell_angle_beta	90.013452
_cell_angle_gamma	89.904923
_symmetry_space_group_name_H-M	'P 1'
_symmetry_Int_Tables_number		1

loop_
	_symmetry_equiv_pos_as_xyz
	x,y,z

loop_
	_atom_site_label
	_atom_site_type_symbol
	_atom_site_fract_x
	_atom_site_fract_y
	_atom_site_fract_z
	H0	H	0.406670	0.853569	0.727638
	H1	H	0.622977	0.166896	0.730046
	H2	H	0.623577	0.855207	0.278548
	H3	H	0.406414	0.166737	0.279561
	H4	H	0.741090	0.400584	0.847575
	H5	H	0.740941	0.621250	0.159884
	H6	H	0.284634	0.623823	0.851108
	H7	H	0.289959	0.401258	0.161368
	H8	H	0.858695	0.736269	0.394490
	H9	H	0.170043	0.736786	0.614196
	H10	H	0.858096	0.287129	0.614318
	H11	H	0.170672	0.284844	0.397479
	H12	H	0.856834	0.407050	0.726175
	H13	H	0.170705	0.621468	0.730538
	H14	H	0.856665	0.615680	0.282888
	H15	H	0.170810	0.399599	0.280555
	H16	H	0.404493	0.734370	0.847673
	H17	H	0.624130	0.735508	0.160175
	H18	H	0.627491	0.283674	0.848201
	H19	H	0.405202	0.285536	0.159191
	H20	H	0.741429	0.856442	0.392901
	H21	H	0.741071	0.166455	0.616162
	H22	H	0.289506	0.854210	0.613223
	H23	H	0.289675	0.166207	0.394996
	H24	H	0.905285	0.353567	0.228844
	H25	H	0.124373	0.664604	0.234102
	H26	H	0.124129	0.355448	0.779494
	H27	H	0.908425	0.669064	0.782884
	H28	H	0.238532	0.901595	0.346612
	H29	H	0.240915	0.120134	0.660368
	H30	H	0.790668	0.120106	0.348029
	H31	H	0.786390	0.899522	0.659070
	H32	H	0.361293	0.240295	0.889557
	H33	H	0.670458	0.236898	0.113733
	H34	H	0.358586	0.787197	0.111642
	H35	H	0.669104	0.781680	0.890843
	H36	H	0.357867	0.905161	0.225368
	H37	H	0.671026	0.118768	0.227469
	H38	H	0.358205	0.117801	0.780705
	H39	H	0.670132	0.900619	0.778503
	H40	H	0.904805	0.235957	0.349418
	H41	H	0.123387	0.232902	0.662630
	H42	H	0.124733	0.784657	0.347385
	H43	H	0.905136	0.786718	0.660888
	H44	H	0.240383	0.355982	0.895375
	H45	H	0.239823	0.665762	0.118401
	H46	H	0.786948	0.355853	0.116078
	H47	H	0.790403	0.667808	0.896868
	H48	H	0.428627	0.119162	0.586234
	H49	H	0.597475	0.902250	0.588031
	H50	H	0.601170	0.124701	0.411549
	H51	H	0.428648	0.898021	0.414282
	H52	H	0.602903	0.418642	0.118131
	H53	H	0.609110	0.596070	0.889357
	H54	H	0.425714	0.595857	0.116483
	H55	H	0.431091	0.423220	0.892740
	H56	H	0.124933	0.597685	0.420323
	H57	H	0.902505	0.598448	0.592870
	H58	H	0.125434	0.424614	0.591806
	H59	H	0.902823	0.418380	0.421969
	H60	H	0.129000	0.420697	0.596127
	H61	H	0.902084	0.599106	0.592815
	H62	H	0.124676	0.595534	0.420039
	H63	H	0.905291	0.426916	0.420389
	H64	H	0.430914	0.599369	0.116316
	H65	H	0.598836	0.589260	0.895617
	H66	H	0.605602	0.431164	0.115039
	H67	H	0.424485	0.426560	0.890945
	H68	H	0.598603	0.121568	0.419518
	H69	H	0.603691	0.900228	0.586125
	H70	H	0.423344	0.123458	0.591848
	H71	H	0.426573	0.898855	0.417122
	H72	H	0.926141	0.621676	0.091028
	H73	H	0.099645	0.400056	0.090112
	H74	H	0.098318	0.619806	0.922392
	H75	H	0.928552	0.400791	0.918581
	H76	H	0.100360	0.923131	0.616655
	H77	H	0.104285	0.091026	0.393291
	H78	H	0.926048	0.102686	0.619588
	H79	H	0.922985	0.930638	0.392644
	H80	H	0.624621	0.094837	0.918524
	H81	H	0.401511	0.099475	0.094567
	H82	H	0.627627	0.916989	0.085827
	H83	H	0.403917	0.920139	0.921908
	H84	H	0.624488	0.928666	0.087502
	H85	H	0.403437	0.103121	0.086536
	H86	H	0.626713	0.097807	0.916875
	H87	H	0.404651	0.926622	0.915758
	H88	H	0.923187	0.092724	0.617908
	H89	H	0.095099	0.098461	0.393458
	H90	H	0.103264	0.923763	0.616681
	H91	H	0.936135	0.924922	0.396128
	H92	H	0.105069	0.623843	0.919514
	H93	H	0.104870	0.398819	0.088299
	H94	H	0.929533	0.621480	0.094251
	H95	H	0.925723	0.399056	0.916990
	H96	H	0.431045	0.121402	0.594191
	H97	H	0.601482	0.898778	0.592354
	H98	H	0.607740	0.124151	0.418619
	H99	H	0.425356	0.896869	0.414602
	H100	H	0.593948	0.426207	0.112285
	H101	H	0.596681	0.602377	0.891296
	H102	H	0.425714	0.601996	0.119148
	H103	H	0.430096	0.430401	0.894687
	H104	H	0.125803	0.596507	0.418532
	H105	H	0.903256	0.599142	0.591882
	H106	H	0.127100	0.418242	0.589979
	H107	H	0.901132	0.421961	0.413931
	H108	H	0.929949	0.619530	0.089615
	H109	H	0.102976	0.397375	0.093879
	H110	H	0.098201	0.623599	0.914587
	H111	H	0.928868	0.398557	0.915183
	H112	H	0.101724	0.925446	0.615092
	H113	H	0.105728	0.102469	0.389182
	H114	H	0.932671	0.096136	0.615243
	H115	H	0.926330	0.916924	0.389056
	H116	H	0.624845	0.097740	0.920701
	H117	H	0.405571	0.094242	0.088002
	H118	H	0.629430	0.922515	0.096577
	H119	H	0.400656	0.918632	0.913935
	C120	C	0.393553	0.018133	0.624718
	C121	C	0.636334	1.002553	0.625716
	C122	C	0.636433	0.020181	0.382108
	C123	C	0.393400	1.001859	0.381600
	C124	C	0.636582	0.389822	0.012305
	C125	C	0.635955	0.630780	0.995485
	C126	C	0.392473	0.633000	0.013936
	C127	C	0.393817	0.390769	0.995728
	C128	C	0.022230	0.630995	0.384104
	C129	C	1.006140	0.632951	0.626269
	C130	C	0.023221	0.389069	0.626446
	C131	C	1.005880	0.387592	0.384128
	C132	C	0.893608	0.518048	0.125659
	C133	C	0.136656	0.501443	0.127299
	C134	C	0.136158	0.520179	0.883610
	C135	C	0.893903	0.503126	0.883598
	C136	C	0.136097	0.889275	0.512346
	C137	C	0.136175	0.131435	0.495862
	C138	C	0.893197	0.131673	0.513748
	C139	C	0.893413	0.889877	0.495576
	C140	C	0.522819	0.131820	0.883311
	C141	C	0.506229	0.133267	0.124946
	C142	C	0.523875	0.889574	0.124036
	C143	C	0.505664	0.886839	0.881230
	C144	C	0.389385	0.900665	0.686846
	C145	C	0.640971	0.119609	0.689574
	C146	C	0.641134	0.902476	0.319296
	C147	C	0.389106	0.119538	0.319893
	C148	C	0.700110	0.383830	0.894817
	C149	C	0.699283	0.637223	0.113144
	C150	C	0.327377	0.639525	0.897267
	C151	C	0.331138	0.384594	0.113569
	C152	C	0.905310	0.694188	0.378356
	C153	C	0.123490	0.695516	0.631019
	C154	C	0.905310	0.327694	0.631200
	C155	C	0.123615	0.325237	0.379779
	C156	C	0.904874	0.387208	0.687345
	C157	C	0.123817	0.637846	0.688921
	C158	C	0.904433	0.634328	0.322486
	C159	C	0.123359	0.382492	0.321385
	C160	C	0.387287	0.694692	0.895684
	C161	C	0.641435	0.694648	0.112962
	C162	C	0.643037	0.325706	0.895063
	C163	C	0.388766	0.326921	0.112831
	C164	C	0.699761	0.902919	0.376433
	C165	C	0.699757	0.119483	0.632476
	C166	C	0.330776	0.901175	0.629703
	C167	C	0.330992	0.119206	0.377672
	C168	C	0.888269	0.400670	0.187851
	C169	C	0.141627	0.617739	0.192822
	C170	C	0.141247	0.402508	0.820288
	C171	C	0.890541	0.621485	0.822569
	C172	C	0.198201	0.884196	0.394238
	C173	C	0.199827	0.136466	0.613373
	C174	C	0.831015	0.136892	0.395582
	C175	C	0.828674	0.883501	0.612371
	C176	C	0.407364	0.197245	0.874776
	C177	C	0.623403	0.195774	0.130421
	C178	C	0.405655	0.828165	0.128421
	C179	C	0.622204	0.823156	0.874677
	C180	C	0.405327	0.886626	0.185482
	C181	C	0.623708	0.136767	0.187179
	C182	C	0.405498	0.135959	0.820553
	C183	C	0.622847	0.882468	0.818394
	C184	C	0.888044	0.194818	0.396400
	C185	C	0.140876	0.192642	0.614704
	C186	C	0.141244	0.826029	0.394566
	C187	C	0.887934	0.827296	0.613352
	C188	C	0.199313	0.402954	0.878123
	C189	C	0.199099	0.618612	0.134581
	C190	C	0.829061	0.401985	0.131649
	C191	C	0.831752	0.620859	0.879674
	C192	C	0.420207	0.100103	0.598241
	C193	C	0.609134	0.921691	0.597063
	C194	C	0.610092	0.101705	0.408914
	C195	C	0.419507	0.919411	0.407671
	C196	C	0.608798	0.417579	0.093974
	C197	C	0.609140	0.603520	0.913541
	C198	C	0.419513	0.606585	0.095852
	C199	C	0.420835	0.418591	0.914326
	C200	C	0.103902	0.604320	0.411663
	C201	C	0.924298	0.606496	0.600060
	C202	C	0.105485	0.414057	0.600124
	C203	C	0.924276	0.414444	0.411114
	C204	C	0.920916	0.599544	0.099201
	C205	C	0.110115	0.420253	0.098810
	C206	C	0.108717	0.601250	0.911221
	C207	C	0.920273	0.420906	0.909604
	C208	C	0.109346	0.916322	0.594510
	C209	C	0.109120	0.105047	0.413590
	C210	C	0.919673	0.104753	0.596043
	C211	C	0.920557	0.916647	0.413960
	C212	C	0.604134	0.104575	0.910823
	C213	C	0.424826	0.106693	0.097496
	C214	C	0.605578	0.915271	0.097688
	C215	C	0.424380	0.914158	0.908965
	Zn216	Zn	0.514290	0.010148	0.754192
	Zn217	Zn	0.514818	0.010618	0.253148
	Zn218	Zn	0.764881	0.510555	0.004249
	Zn219	Zn	0.265181	0.511378	0.005654
	Zn220	Zn	0.014733	0.760973	0.504376
	Zn221	Zn	0.014429	0.259372	0.505803
	Zn222	Zn	0.014881	0.511597	0.754375
	Zn223	Zn	0.013970	0.508810	0.255242
	Zn224	Zn	0.515228	0.759918	0.003968
	Zn225	Zn	0.514807	0.262028	0.003203
	Zn226	Zn	0.764808	0.011689	0.504018
	Zn227	Zn	0.264676	0.010191	0.503403
	N228	N	0.427982	0.974404	0.683716
	N229	N	0.602321	0.045913	0.685509
	N230	N	0.602699	0.976479	0.322462
	N231	N	0.427250	0.045375	0.322285
	N232	N	0.696290	0.422895	0.968928
	N233	N	0.696022	0.598388	0.038952
	N234	N	0.330175	0.602079	0.971932
	N235	N	0.334080	0.423656	0.039687
	N236	N	0.979873	0.692299	0.415722
	N237	N	0.049283	0.692695	0.592997
	N238	N	0.980198	0.328550	0.594322
	N239	N	0.049358	0.328106	0.417881
	N240	N	0.979221	0.424632	0.684612
	N241	N	0.049906	0.599584	0.686077
	N242	N	0.978381	0.595931	0.325663
	N243	N	0.049279	0.420681	0.324048
	N244	N	0.427365	0.690513	0.969111
	N245	N	0.602537	0.690861	0.038863
	N246	N	0.604135	0.329301	0.969186
	N247	N	0.426997	0.330657	0.038516
	N248	N	0.697301	0.977120	0.414618
	N249	N	0.697184	0.045554	0.593646
	N250	N	0.333478	0.975344	0.591624
	N251	N	0.333611	0.044887	0.415249
	N252	N	0.927734	0.473773	0.184330
	N253	N	0.103712	0.543665	0.188728
	N254	N	0.102949	0.476572	0.823261
	N255	N	0.928559	0.547172	0.825024
	N256	N	0.195265	0.922602	0.468529
	N257	N	0.197127	0.099074	0.538277
	N258	N	0.834278	0.098330	0.469669
	N259	N	0.831764	0.921648	0.538059
	N260	N	0.481300	0.194805	0.913019
	N261	N	0.549163	0.193738	0.092418
	N262	N	0.480244	0.829746	0.090957
	N263	N	0.548259	0.825713	0.913009
	N264	N	0.479833	0.923770	0.183245
	N265	N	0.549833	0.098619	0.183961
	N266	N	0.478515	0.095892	0.825642
	N267	N	0.549326	0.921427	0.822492
	N268	N	0.925843	0.191767	0.471064
	N269	N	0.101763	0.189559	0.540800
	N270	N	0.103124	0.829016	0.469121
	N271	N	0.927622	0.831083	0.539754
	N272	N	0.196597	0.477168	0.916544
	N273	N	0.196268	0.545175	0.094789
	N274	N	0.832213	0.476156	0.093598
	N275	N	0.833769	0.546151	0.916730
	O276	O	0.696228	0.686174	0.683036
	H277	H	0.650773	0.696649	0.690417
	H278	H	0.702597	0.696979	0.633785
	O279	O	0.803669	-0.197203	1.023916
	H280	H	0.809908	-0.200221	1.004034
	H281	H	0.796515	-0.202629	1.010469
	O282	O	0.515164	0.338106	0.287777
	H283	H	0.540921	0.346610	0.295861
	H284	H	0.508624	0.326723	0.269093
	O285	O	0.341114	0.691527	0.322648
	H286	H	0.327201	0.642500	0.313819
	H287	H	0.329546	0.700664	0.374216
	O288	O	1.224987	1.033410	0.215303
	H289	H	1.246912	1.029727	0.235144
	H290	H	1.219069	1.006679	0.201464
	O291	O	0.726106	0.293843	0.486100
	H292	H	0.730779	0.304432	0.474916
	H293	H	0.741521	0.277908	0.489957
	O294	O	-0.049441	0.072367	1.221168
	H295	H	-0.033892	0.106333	1.221358
	H296	H	-0.023609	0.066271	1.212026
	O297	O	0.462680	0.729899	0.552423
	H298	H	0.455683	0.720716	0.553627
	H299	H	0.471967	0.730893	0.592992
	O300	O	1.225323	0.950444	1.065943
	H301	H	1.229402	0.905716	1.047151
	H302	H	1.229467	0.974785	1.055577
	O303	O	0.303944	0.303382	0.522758
	H304	H	0.317080	0.288956	0.507545
	H305	H	0.307002	0.285279	0.507990
	O306	O	0.432390	0.440201	0.450836
	H307	H	0.432738	0.430767	0.443816
	H308	H	0.456603	0.440150	0.460185
	O309	O	0.562566	0.604436	0.337619
	H310	H	0.537333	0.621869	0.339142
	H311	H	0.539518	0.581087	0.325834
	O312	O	0.061871	0.950223	1.215693
	H313	H	0.056751	0.941175	1.213818
	H314	H	0.055539	0.928981	1.221872
	O315	O	0.690686	0.335278	0.328979
	H316	H	0.702330	0.383864	0.324215
	H317	H	0.675289	0.328489	0.349401
	O318	O	1.031752	-0.199798	-0.209316
	H319	H	1.058793	-0.201021	-0.219663
	H320	H	1.061782	-0.212283	-0.221039
	O321	O	-0.200442	0.031398	-0.211744
	H322	H	-0.177984	0.003350	-0.199162
	H323	H	-0.237124	0.033304	-0.250152
	O324	O	0.518840	0.546470	0.649216
	H325	H	0.512654	0.531550	0.642116
	H326	H	0.518065	0.525835	0.630543
	O327	O	0.461008	0.309369	0.374023
	H328	H	0.471836	0.299304	0.356504
	H329	H	0.465388	0.326377	0.370436
	O330	O	-0.033562	1.229399	0.050105
	H331	H	-0.029016	1.222464	0.064835
	H332	H	-0.058902	1.234363	0.055280
	O333	O	0.497635	0.301381	0.712595
	H334	H	0.507962	0.282898	0.731022
	H335	H	0.518270	0.332988	0.726300
	O336	O	-0.919549	-0.219505	1.063566
	H337	H	-0.938203	-0.202372	1.092319
	H338	H	-0.953667	-0.223585	1.059771
	O339	O	0.030314	1.227594	1.224856
	H340	H	0.061305	1.240807	1.232986
	H341	H	0.047998	1.243563	1.230808
	O342	O	-0.045041	0.960879	0.781479
	H343	H	-0.042287	0.953392	0.788820
	H344	H	-0.037067	0.943958	0.784381
	O345	O	1.229263	0.795705	-0.013799
	H346	H	1.254617	0.756745	-0.013309
	H347	H	1.187810	0.780795	0.011027
	O348	O	0.498580	0.730470	0.287858
	H349	H	0.465408	0.731847	0.283751
	H350	H	0.474522	0.746186	0.268546
	O351	O	0.479484	0.564592	0.522194
	H352	H	0.483206	0.546305	0.530043
	H353	H	0.494781	0.576441	0.523500
	O354	O	-0.199845	1.064992	0.056487
	H355	H	-0.197776	1.086283	0.071805
	H356	H	-0.206143	1.064294	0.066100
	O357	O	-0.159312	-0.168558	1.181770
	H358	H	-0.170716	-0.156180	1.149295
	H359	H	-0.173096	-0.140226	1.169603
	O360	O	0.513238	0.535597	0.332313
	H361	H	0.495052	0.524195	0.332282
	H362	H	0.496452	0.548122	0.328652
	O363	O	0.039457	0.018034	1.030943
	H364	H	0.015947	0.025069	1.046753
	H365	H	0.069270	0.009324	1.028098
	O366	O	0.240790	0.068727	-0.046371
	H367	H	0.228560	0.074078	-0.065166
	H368	H	0.251718	0.079305	-0.035317
	O369	O	0.699879	0.508139	0.299160
	H370	H	0.662562	0.525790	0.290753
	H371	H	0.713284	0.520211	0.278145
	O372	O	1.066335	0.189821	0.912270
	H373	H	1.052230	0.201067	0.902235
	H374	H	1.056178	0.176529	0.940751
	O375	O	0.297301	0.493708	0.725859
	H376	H	0.272061	0.476581	0.752441
	H377	H	0.298401	0.451744	0.724940
	O378	O	0.711827	0.514508	0.499369
	H379	H	0.725600	0.532120	0.503554
	H380	H	0.707968	0.534205	0.471302
	O381	O	0.335701	0.338816	0.684558
	H382	H	0.323689	0.324305	0.631611
	H383	H	0.389162	0.324295	0.692778
	O384	O	0.304141	0.529530	0.289483
	H385	H	0.276634	0.523421	0.284709
	H386	H	0.289373	0.514824	0.305928
	O387	O	0.231381	0.224756	1.020127
	H388	H	0.209817	0.231800	1.003534
	H389	H	0.255309	0.244688	1.024199
	O390	O	0.015915	0.034259	-0.008855
	H391	H	0.013507	0.046965	0.000702
	H392	H	0.005266	0.023504	-0.005418
	O393	O	1.182141	1.188789	1.177638
	H394	H	1.189834	1.145392	1.192353
	H395	H	1.188497	1.191239	1.129564
	O396	O	0.644323	-0.279772	0.458737
	H397	H	0.613628	-0.275675	0.459266
	H398	H	0.640960	-0.267412	0.433318
	O399	O	0.306943	-0.283385	0.483089
	H400	H	0.289209	-0.249649	0.488759
	H401	H	0.319296	-0.306329	0.511523
	O402	O	0.835090	1.191409	0.829953
	H403	H	0.868262	1.202364	0.835475
	H404	H	0.823797	1.138138	0.816795
	O405	O	1.047372	1.060210	-0.149589
	H406	H	1.022596	1.040294	-0.149350
	H407	H	1.045973	1.070484	-0.118017
	O408	O	0.958631	-0.198326	-0.052802
	H409	H	0.968926	-0.186922	-0.052470
	H410	H	0.963212	-0.200909	-0.086813
	O411	O	0.993685	1.228358	-0.213395
	H412	H	0.997255	1.252315	-0.223142
	H413	H	0.987945	1.221990	-0.226066
	O414	O	-0.201018	-0.009953	0.218053
	H415	H	-0.169512	0.011073	0.224710
	H416	H	-0.222448	-0.007097	0.254509
	O417	O	0.575957	0.456085	0.718657
	H418	H	0.596087	0.465674	0.701375
	H419	H	0.596584	0.472902	0.709197
	O420	O	-0.005027	-0.211855	0.221887
	H421	H	-0.010730	-0.246022	0.261228
	H422	H	-0.057130	-0.198438	0.208962
	O423	O	0.353799	0.571324	0.628172
	H424	H	0.343561	0.561429	0.643698
	H425	H	0.360211	0.550114	0.635906
	O426	O	0.723592	0.524479	0.715483
	H427	H	0.751351	0.538013	0.730940
	H428	H	0.724911	0.554325	0.702416
	O429	O	0.518402	0.282795	0.518450
	H430	H	0.531525	0.286982	0.544632
	H431	H	0.533395	0.286911	0.502882
	O432	O	0.650083	0.403924	0.568092
	H433	H	0.659727	0.424465	0.580649
	H434	H	0.665305	0.418946	0.564948
	O435	O	0.309479	0.478096	0.472117
	H436	H	0.321673	0.493627	0.502787
	H437	H	0.304059	0.460454	0.490100
	O438	O	0.213823	-0.003239	-0.199846
	H439	H	0.173502	0.021545	-0.207825
	H440	H	0.232291	0.009305	-0.207030
	O441	O	0.791554	-0.049716	-0.062278
	H442	H	0.798034	-0.029676	-0.064171
	H443	H	0.792310	-0.053164	-0.053056
	O444	O	0.190050	0.833546	0.824306
	H445	H	0.202855	0.886718	0.815242
	H446	H	0.204403	0.823407	0.876377
	O447	O	-0.198025	1.223552	-0.008370
	H448	H	-0.222422	1.243241	-0.020946
	H449	H	-0.187787	1.222521	-0.023734
	O450	O	0.728332	0.665289	0.495879
	H451	H	0.744036	0.701819	0.496277
	H452	H	0.701981	0.668071	0.465024
	O453	O	0.533618	0.725078	0.714325
	H454	H	0.531951	0.740314	0.750773
	H455	H	0.511710	0.691323	0.730461
