data_Molecule from HDF5

_cell_length_a		16.298969
_cell_length_b		16.361246
_cell_length_c		16.302921
_cell_angle_alpha	90.087456
_cell_angle_beta	90.041595
_cell_angle_gamma	90.014006
_symmetry_space_group_name_H-M	'P 1'
_symmetry_Int_Tables_number		1

loop_
	_symmetry_equiv_pos_as_xyz
	x,y,z

loop_
	_atom_site_label
	_atom_site_type_symbol
	_atom_site_fract_x
	_atom_site_fract_y
	_atom_site_fract_z
	H0	H	0.415222	0.831804	0.715265
	H1	H	0.612785	0.158512	0.717119
	H2	H	0.611786	0.832088	0.286529
	H3	H	0.416760	0.159028	0.288182
	H4	H	0.727180	0.396518	0.837266
	H5	H	0.727977	0.593869	0.164366
	H6	H	0.298584	0.594031	0.837096
	H7	H	0.300125	0.399750	0.164897
	H8	H	0.850238	0.710507	0.401154
	H9	H	0.176613	0.709748	0.599805
	H10	H	0.850461	0.279944	0.600226
	H11	H	0.177175	0.280854	0.402148
	H12	H	0.850016	0.396843	0.714709
	H13	H	0.176600	0.593623	0.716193
	H14	H	0.849476	0.593273	0.285854
	H15	H	0.176601	0.395686	0.285731
	H16	H	0.413481	0.710781	0.837959
	H17	H	0.611934	0.711004	0.164261
	H18	H	0.611937	0.279598	0.837870
	H19	H	0.413004	0.280609	0.164176
	H20	H	0.728095	0.832197	0.402890
	H21	H	0.728835	0.158931	0.599568
	H22	H	0.297641	0.832567	0.599773
	H23	H	0.298555	0.158644	0.402400
	H24	H	0.914760	0.331740	0.214605
	H25	H	0.111511	0.657729	0.216162
	H26	H	0.111505	0.331985	0.786428
	H27	H	0.915089	0.658097	0.786333
	H28	H	0.228142	0.896601	0.337732
	H29	H	0.227500	0.093364	0.664665
	H30	H	0.799691	0.092358	0.337057
	H31	H	0.799957	0.898729	0.664328
	H32	H	0.349322	0.209327	0.902431
	H33	H	0.676508	0.211021	0.100580
	H34	H	0.349495	0.781157	0.099715
	H35	H	0.676543	0.780623	0.902180
	H36	H	0.349488	0.898133	0.214898
	H37	H	0.677618	0.092291	0.214548
	H38	H	0.350597	0.093794	0.785550
	H39	H	0.677878	0.898291	0.788296
	H40	H	0.914351	0.209994	0.337254
	H41	H	0.113023	0.210742	0.663662
	H42	H	0.111313	0.780723	0.337756
	H43	H	0.913705	0.779964	0.664113
	H44	H	0.228677	0.332876	0.902021
	H45	H	0.227316	0.658779	0.099142
	H46	H	0.797978	0.332511	0.098620
	H47	H	0.798987	0.658272	0.903248
	H48	H	0.426935	0.106885	0.588529
	H49	H	0.609281	0.877936	0.601362
	H50	H	0.608792	0.109456	0.414939
	H51	H	0.424556	0.882435	0.411798
	H52	H	0.604761	0.396532	0.118701
	H53	H	0.611798	0.597303	0.880106
	H54	H	0.423105	0.590293	0.115916
	H55	H	0.417212	0.395391	0.882323
	H56	H	0.125850	0.581596	0.413212
	H57	H	0.895952	0.599555	0.584987
	H58	H	0.125433	0.407839	0.584286
	H59	H	0.894783	0.402257	0.400776
	H60	H	0.131861	0.407365	0.605352
	H61	H	0.902568	0.575962	0.588847
	H62	H	0.131312	0.586877	0.399577
	H63	H	0.897049	0.396117	0.412114
	H64	H	0.417755	0.592010	0.118243
	H65	H	0.610630	0.577976	0.886551
	H66	H	0.611969	0.405399	0.117659
	H67	H	0.416326	0.408697	0.885031
	H68	H	0.612109	0.113927	0.403495
	H69	H	0.601405	0.882647	0.593290
	H70	H	0.412818	0.112219	0.591232
	H71	H	0.415389	0.878652	0.409699
	H72	H	0.922916	0.608514	0.088340
	H73	H	0.097605	0.383184	0.088790
	H74	H	0.109048	0.611326	0.909266
	H75	H	0.919646	0.378715	0.905741
	H76	H	0.114906	0.906960	0.618803
	H77	H	0.115725	0.086508	0.382576
	H78	H	0.924579	0.085799	0.614636
	H79	H	0.921057	0.907109	0.385996
	H80	H	0.629142	0.089174	0.908125
	H81	H	0.400544	0.089287	0.083776
	H82	H	0.629297	0.899430	0.091530
	H83	H	0.396864	0.898162	0.910096
	H84	H	0.627704	0.905938	0.092330
	H85	H	0.398387	0.078971	0.099165
	H86	H	0.629114	0.089523	0.910162
	H87	H	0.398845	0.906416	0.909584
	H88	H	0.922901	0.093947	0.618171
	H89	H	0.100812	0.081111	0.388439
	H90	H	0.098408	0.908431	0.612649
	H91	H	0.924638	0.898064	0.384978
	H92	H	0.104801	0.611514	0.904558
	H93	H	0.117121	0.378323	0.087726
	H94	H	0.913393	0.612748	0.094479
	H95	H	0.920628	0.379710	0.907184
	H96	H	0.422925	0.112319	0.602301
	H97	H	0.612303	0.879513	0.589767
	H98	H	0.600643	0.109363	0.405219
	H99	H	0.422256	0.878384	0.402863
	H100	H	0.601133	0.406494	0.113963
	H101	H	0.594531	0.590028	0.888064
	H102	H	0.418648	0.586239	0.116441
	H103	H	0.427988	0.401929	0.887351
	H104	H	0.130338	0.596069	0.411975
	H105	H	0.893050	0.589431	0.607650
	H106	H	0.133386	0.389596	0.593298
	H107	H	0.900330	0.408793	0.410964
	H108	H	0.923965	0.611430	0.100593
	H109	H	0.106806	0.376099	0.105118
	H110	H	0.102963	0.609280	0.910458
	H111	H	0.918429	0.378824	0.907682
	H112	H	0.103665	0.892641	0.619565
	H113	H	0.102949	0.097167	0.382956
	H114	H	0.915869	0.087314	0.617315
	H115	H	0.915283	0.900009	0.382606
	H116	H	0.629177	0.087848	0.909587
	H117	H	0.393358	0.097314	0.099307
	H118	H	0.629998	0.901862	0.097588
	H119	H	0.395523	0.902169	0.902271
	C120	C	0.392014	0.003169	0.622639
	C121	C	0.636000	0.987612	0.623110
	C122	C	0.635338	0.003219	0.379464
	C123	C	0.392014	0.987616	0.379639
	C124	C	0.634434	0.373734	0.009018
	C125	C	0.634511	0.617098	0.992818
	C126	C	0.391222	0.617614	0.009011
	C127	C	0.391975	0.374486	0.993071
	C128	C	0.021248	0.616462	0.379471
	C129	C	1.005050	0.616761	0.622987
	C130	C	0.022006	0.373432	0.622338
	C131	C	1.005361	0.373628	0.379585
	C132	C	0.891576	0.503084	0.122361
	C133	C	0.135213	0.487079	0.122419
	C134	C	0.134702	0.503328	0.879359
	C135	C	0.891317	0.486791	0.878727
	C136	C	0.134642	0.873821	0.509280
	C137	C	0.134847	0.116818	0.492746
	C138	C	0.892100	0.117372	0.508766
	C139	C	0.892171	0.874033	0.492900
	C140	C	0.521462	0.117148	0.880164
	C141	C	0.504967	0.117265	0.122954
	C142	C	0.521134	0.873954	0.122451
	C143	C	0.505075	0.873671	0.879417
	C144	C	0.394557	0.880598	0.677541
	C145	C	0.633206	0.110148	0.678476
	C146	C	0.632454	0.880657	0.324475
	C147	C	0.395118	0.110076	0.325124
	C148	C	0.689158	0.376183	0.885959
	C149	C	0.689676	0.614437	0.115739
	C150	C	0.336090	0.614636	0.886038
	C151	C	0.336837	0.377799	0.115881
	C152	C	0.898780	0.672265	0.381041
	C153	C	0.127911	0.671689	0.620317
	C154	C	0.899136	0.318337	0.620220
	C155	C	0.128434	0.318688	0.381915
	C156	C	0.899004	0.376563	0.677172
	C157	C	0.128023	0.614072	0.677920
	C158	C	0.898559	0.613938	0.323605
	C159	C	0.128297	0.375986	0.324369
	C160	C	0.393260	0.672804	0.886397
	C161	C	0.632037	0.672434	0.115760
	C162	C	0.631958	0.317888	0.886400
	C163	C	0.393195	0.318917	0.115624
	C164	C	0.690039	0.880544	0.382357
	C165	C	0.690841	0.110314	0.620280
	C166	C	0.336334	0.880875	0.619886
	C167	C	0.336717	0.109903	0.382282
	C168	C	0.893839	0.380507	0.177402
	C169	C	0.132353	0.609389	0.178093
	C170	C	0.132158	0.380726	0.824277
	C171	C	0.893930	0.609399	0.823779
	C172	C	0.190158	0.876133	0.386548
	C173	C	0.189803	0.113920	0.615751
	C174	C	0.837350	0.113741	0.385852
	C175	C	0.837663	0.877498	0.615752
	C176	C	0.398471	0.172084	0.881829
	C177	C	0.628064	0.172334	0.120644
	C178	C	0.398200	0.818899	0.120258
	C179	C	0.628001	0.818531	0.881663
	C180	C	0.398302	0.876687	0.177624
	C181	C	0.628585	0.113688	0.177378
	C182	C	0.398882	0.114456	0.824127
	C183	C	0.628618	0.877122	0.825258
	C184	C	0.894259	0.172034	0.386011
	C185	C	0.132757	0.172114	0.615383
	C186	C	0.132201	0.818694	0.386474
	C187	C	0.894322	0.818775	0.615577
	C188	C	0.190484	0.381229	0.881534
	C189	C	0.189725	0.609833	0.119967
	C190	C	0.835916	0.380808	0.119639
	C191	C	0.836519	0.609571	0.882091
	C192	C	0.414449	0.088681	0.600617
	C193	C	0.614088	0.902289	0.601296
	C194	C	0.613495	0.088764	0.401327
	C195	C	0.414294	0.901898	0.401756
	C196	C	0.612395	0.396116	0.094850
	C197	C	0.612104	0.595046	0.907240
	C198	C	0.413516	0.596084	0.094754
	C199	C	0.413890	0.395900	0.907151
	C200	C	0.107073	0.594602	0.401607
	C201	C	0.919218	0.594678	0.600392
	C202	C	0.108099	0.395048	0.600679
	C203	C	0.919707	0.395582	0.401558
	C204	C	0.913597	0.588727	0.100696
	C205	C	0.113513	0.401418	0.100268
	C206	C	0.112112	0.588552	0.901739
	C207	C	0.913295	0.401154	0.900433
	C208	C	0.112273	0.896254	0.594879
	C209	C	0.112811	0.094867	0.406902
	C210	C	0.914584	0.095462	0.594524
	C211	C	0.913904	0.895565	0.406836
	C212	C	0.606985	0.095172	0.902761
	C213	C	0.419641	0.095095	0.100588
	C214	C	0.606882	0.895946	0.100463
	C215	C	0.419303	0.895768	0.901061
	Zn216	Zn	0.513727	-0.004793	0.751920
	Zn217	Zn	0.513507	-0.004658	0.250976
	Zn218	Zn	0.763051	0.495083	0.000663
	Zn219	Zn	0.263515	0.495821	0.000976
	Zn220	Zn	0.013415	0.745159	0.501022
	Zn221	Zn	0.013672	0.245565	0.500542
	Zn222	Zn	0.013664	0.494990	0.750571
	Zn223	Zn	0.013367	0.494110	0.250997
	Zn224	Zn	0.512662	0.746042	0.000842
	Zn225	Zn	0.512708	0.245465	0.001521
	Zn226	Zn	0.764090	-0.004358	0.500496
	Zn227	Zn	0.263193	-0.004483	0.501106
	N228	N	0.428620	0.957629	0.679288
	N229	N	0.599676	0.033082	0.680384
	N230	N	0.599139	0.957848	0.322667
	N231	N	0.428525	0.032879	0.323339
	N232	N	0.690691	0.410292	0.963175
	N233	N	0.691450	0.580806	0.038331
	N234	N	0.334790	0.581043	0.963346
	N235	N	0.336052	0.411586	0.038652
	N236	N	0.976060	0.673888	0.415095
	N237	N	0.050449	0.673377	0.586713
	N238	N	0.976530	0.316318	0.586823
	N239	N	0.050996	0.317215	0.415469
	N240	N	0.976539	0.410010	0.678680
	N241	N	0.050656	0.580751	0.679684
	N242	N	0.975652	0.579727	0.322670
	N243	N	0.050985	0.409350	0.322657
	N244	N	0.426790	0.674684	0.963772
	N245	N	0.598372	0.674225	0.038375
	N246	N	0.598830	0.316164	0.963932
	N247	N	0.426810	0.316780	0.038183
	N248	N	0.691904	0.957767	0.415907
	N249	N	0.692774	0.033172	0.586715
	N250	N	0.334884	0.958075	0.586563
	N251	N	0.334976	0.032717	0.415667
	N252	N	0.927919	0.457406	0.178971
	N253	N	0.099413	0.531896	0.180082
	N254	N	0.098283	0.457672	0.822743
	N255	N	0.927211	0.532109	0.821643
	N256	N	0.191672	0.909940	0.463919
	N257	N	0.191179	0.080105	0.538456
	N258	N	0.835978	0.080373	0.463134
	N259	N	0.836439	0.911158	0.538578
	N260	N	0.475766	0.173961	0.915748
	N261	N	0.550465	0.174626	0.087471
	N262	N	0.475544	0.817331	0.086438
	N263	N	0.550375	0.816579	0.914779
	N264	N	0.475639	0.910247	0.178999
	N265	N	0.551086	0.080185	0.179111
	N266	N	0.476223	0.080818	0.823083
	N267	N	0.551118	0.910571	0.823485
	N268	N	0.927403	0.174532	0.463580
	N269	N	0.099380	0.173850	0.537960
	N270	N	0.098607	0.817144	0.463689
	N271	N	0.927433	0.816377	0.537918
	N272	N	0.192130	0.458425	0.915014
	N273	N	0.191425	0.532886	0.086127
	N274	N	0.834555	0.458005	0.086142
	N275	N	0.834765	0.532350	0.915476
	O276	O	0.578886	0.524460	0.453651
	H277	H	0.581573	0.539063	0.447863
	H278	H	0.581449	0.521994	0.452913
	O279	O	-0.017289	-0.004846	0.023930
	H280	H	-0.022952	0.000283	0.020899
	H281	H	-0.021259	-0.006269	0.030463
	O282	O	0.524152	0.504522	0.491133
	H283	H	0.537911	0.500431	0.493627
	H284	H	0.525126	0.508983	0.493734
	O285	O	0.045108	0.988316	0.982405
	H286	H	0.045126	0.985579	0.980989
	H287	H	0.039743	0.991683	0.972447
	O288	O	0.992431	0.017758	-0.041700
	H289	H	0.997491	0.013607	-0.040609
	H290	H	0.993412	0.017536	-0.048042
	O291	O	-0.491661	0.520212	-0.530516
	H292	H	-0.490680	0.521863	-0.525547
	H293	H	-0.488003	0.525546	-0.527537
	O294	O	0.551805	0.513650	0.442196
	H295	H	0.545557	0.521663	0.435497
	H296	H	0.547226	0.511666	0.432005
	O297	O	0.000271	0.991172	-0.037732
	H298	H	0.005223	0.987448	-0.037323
	H299	H	-0.000503	0.993670	-0.035734
	O300	O	0.517025	0.501911	0.510989
	H301	H	0.516202	0.494852	0.505360
	H302	H	0.518149	0.500327	0.509598
	O303	O	0.047703	0.986893	0.989284
	H304	H	0.052463	0.989871	0.991873
	H305	H	0.045768	0.989486	0.996580
	O306	O	0.042188	1.007427	1.018205
	H307	H	0.047795	1.003912	1.013362
	H308	H	0.037210	1.006309	1.011673
	O309	O	0.543575	0.524129	0.503934
	H310	H	0.546827	0.522107	0.511210
	H311	H	0.533116	0.517930	0.512706
