data_Molecule from HDF5

_cell_length_a		16.443343
_cell_length_b		16.244589
_cell_length_c		16.486789
_cell_angle_alpha	89.894277
_cell_angle_beta	90.191750
_cell_angle_gamma	89.909310
_symmetry_space_group_name_H-M	'P 1'
_symmetry_Int_Tables_number		1

loop_
	_symmetry_equiv_pos_as_xyz
	x,y,z

loop_
	_atom_site_label
	_atom_site_type_symbol
	_atom_site_fract_x
	_atom_site_fract_y
	_atom_site_fract_z
	H0	H	0.384233	0.848610	0.720367
	H1	H	0.589180	0.171458	0.718540
	H2	H	0.590977	0.849159	0.281183
	H3	H	0.379302	0.169543	0.280160
	H4	H	0.706540	0.404815	0.841943
	H5	H	0.708354	0.615321	0.158831
	H6	H	0.263582	0.616039	0.842287
	H7	H	0.262140	0.400785	0.157966
	H8	H	0.826325	0.729179	0.397896
	H9	H	0.145809	0.728244	0.605596
	H10	H	0.826159	0.290187	0.601427
	H11	H	0.144821	0.288453	0.398254
	H12	H	0.828401	0.401178	0.722313
	H13	H	0.144128	0.613798	0.723738
	H14	H	0.827062	0.615181	0.278935
	H15	H	0.143174	0.401140	0.278773
	H16	H	0.384710	0.727976	0.840748
	H17	H	0.590220	0.729329	0.160079
	H18	H	0.586787	0.291437	0.840436
	H19	H	0.381163	0.288008	0.159060
	H20	H	0.702884	0.847216	0.399556
	H21	H	0.704646	0.170177	0.603806
	H22	H	0.268983	0.847641	0.606095
	H23	H	0.265877	0.168855	0.396733
	H24	H	0.879116	0.349246	0.221941
	H25	H	0.089893	0.669693	0.221837
	H26	H	0.090519	0.347527	0.783080
	H27	H	0.881914	0.669135	0.779362
	H28	H	0.210375	0.899415	0.344299
	H29	H	0.207249	0.112057	0.659060
	H30	H	0.761854	0.116552	0.343694
	H31	H	0.766505	0.904488	0.659814
	H32	H	0.325052	0.228389	0.898667
	H33	H	0.645246	0.228948	0.104196
	H34	H	0.326060	0.791533	0.103258
	H35	H	0.645719	0.790648	0.900341
	H36	H	0.327400	0.903399	0.222064
	H37	H	0.643125	0.117892	0.224789
	H38	H	0.327181	0.115476	0.778924
	H39	H	0.644613	0.904507	0.780993
	H40	H	0.881432	0.228682	0.341574
	H41	H	0.089732	0.227501	0.660032
	H42	H	0.087607	0.790033	0.341912
	H43	H	0.886851	0.790850	0.661356
	H44	H	0.204585	0.348617	0.899351
	H45	H	0.205199	0.670278	0.105946
	H46	H	0.765112	0.349709	0.105206
	H47	H	0.767240	0.670683	0.895887
	H48	H	0.393333	0.125390	0.591416
	H49	H	0.572810	0.895338	0.590123
	H50	H	0.566609	0.122588	0.408666
	H51	H	0.400049	0.892364	0.406107
	H52	H	0.572907	0.421263	0.112014
	H53	H	0.575835	0.595877	0.889240
	H54	H	0.394739	0.600193	0.113768
	H55	H	0.388149	0.425753	0.887190
	H56	H	0.097594	0.590579	0.406935
	H57	H	0.872001	0.602238	0.590494
	H58	H	0.098944	0.419943	0.591559
	H59	H	0.875220	0.421080	0.417780
	H60	H	0.100905	0.418846	0.593462
	H61	H	0.874675	0.595306	0.586998
	H62	H	0.102025	0.603433	0.408442
	H63	H	0.871913	0.426361	0.404586
	H64	H	0.394399	0.598104	0.113909
	H65	H	0.572895	0.602694	0.888243
	H66	H	0.576200	0.417643	0.113956
	H67	H	0.401438	0.425413	0.892009
	H68	H	0.574543	0.120840	0.420562
	H69	H	0.581984	0.892716	0.591003
	H70	H	0.399040	0.124086	0.591148
	H71	H	0.402158	0.897181	0.415129
	H72	H	0.897588	0.622513	0.086443
	H73	H	0.070404	0.394381	0.097205
	H74	H	0.080998	0.626997	0.907131
	H75	H	0.889047	0.391124	0.908347
	H76	H	0.080774	0.919187	0.615478
	H77	H	0.075594	0.092414	0.389522
	H78	H	0.889388	0.099101	0.615896
	H79	H	0.894354	0.916747	0.386653
	H80	H	0.595962	0.092797	0.912794
	H81	H	0.375036	0.089416	0.091926
	H82	H	0.598308	0.920878	0.089622
	H83	H	0.370350	0.915019	0.909317
	H84	H	0.598287	0.923528	0.091355
	H85	H	0.368891	0.102823	0.096928
	H86	H	0.601633	0.099610	0.902289
	H87	H	0.374050	0.923354	0.913130
	H88	H	0.895882	0.092039	0.611286
	H89	H	0.072075	0.098887	0.388224
	H90	H	0.076627	0.921873	0.613131
	H91	H	0.891402	0.920711	0.387044
	H92	H	0.065460	0.623229	0.906073
	H93	H	0.070491	0.398429	0.083187
	H94	H	0.893273	0.626153	0.091005
	H95	H	0.901943	0.394683	0.906470
	H96	H	0.395773	0.123147	0.586802
	H97	H	0.575409	0.892217	0.598482
	H98	H	0.580648	0.127587	0.408956
	H99	H	0.393281	0.893298	0.413582
	H100	H	0.578466	0.422151	0.112670
	H101	H	0.579859	0.601065	0.885736
	H102	H	0.395744	0.598719	0.113607
	H103	H	0.395934	0.414099	0.886696
	H104	H	0.096189	0.597070	0.418993
	H105	H	0.872406	0.595048	0.594535
	H106	H	0.099814	0.417446	0.591317
	H107	H	0.868901	0.412360	0.407652
	H108	H	0.899882	0.624066	0.093019
	H109	H	0.082453	0.392549	0.089059
	H110	H	0.073369	0.621496	0.920104
	H111	H	0.896228	0.396745	0.918183
	H112	H	0.075832	0.916494	0.614605
	H113	H	0.079365	0.098186	0.386495
	H114	H	0.899537	0.101705	0.613906
	H115	H	0.895727	0.920716	0.389243
	H116	H	0.599995	0.105592	0.914357
	H117	H	0.374122	0.101247	0.082474
	H118	H	0.599843	0.920801	0.092948
	H119	H	0.371277	0.922293	0.903942
	C120	C	0.365493	0.017775	0.622060
	C121	C	0.607245	1.000581	0.622893
	C122	C	0.606199	0.017795	0.380734
	C123	C	0.364988	1.000146	0.379777
	C124	C	0.607174	0.388238	0.008244
	C125	C	0.608017	0.631593	0.992602
	C126	C	0.363396	0.631505	0.009034
	C127	C	0.363634	0.388527	0.992871
	C128	C	-0.006141	0.630071	0.379244
	C129	C	0.978009	0.629577	0.622685
	C130	C	-0.005144	0.386581	0.622747
	C131	C	0.976806	0.387021	0.378760
	C132	C	0.864888	0.518093	0.121765
	C133	C	0.106726	0.500800	0.122541
	C134	C	0.105816	0.517559	0.880378
	C135	C	0.864401	0.500486	0.878942
	C136	C	0.108958	0.886730	0.509948
	C137	C	0.107605	0.128955	0.492510
	C138	C	0.863347	0.129934	0.509043
	C139	C	0.863984	0.887521	0.492896
	C140	C	0.494094	0.131422	0.878579
	C141	C	0.477305	0.130875	0.122601
	C142	C	0.493994	0.888811	0.122688
	C143	C	0.477652	0.888388	0.879079
	C144	C	0.365284	0.896780	0.681175
	C145	C	0.607677	0.122476	0.679984
	C146	C	0.608795	0.897060	0.321184
	C147	C	0.361915	0.121111	0.320301
	C148	C	0.666579	0.386623	0.889295
	C149	C	0.667991	0.633592	0.111552
	C150	C	0.303993	0.633754	0.889641
	C151	C	0.303141	0.384410	0.111095
	C152	C	0.874082	0.689644	0.378555
	C153	C	0.097819	0.688807	0.624192
	C154	C	0.874575	0.328026	0.622103
	C155	C	0.096633	0.327240	0.378585
	C156	C	0.875531	0.383701	0.681856
	C157	C	0.097107	0.631995	0.683083
	C158	C	0.874409	0.632840	0.319548
	C159	C	0.095837	0.383424	0.319055
	C160	C	0.364116	0.689620	0.889024
	C161	C	0.608809	0.690155	0.112339
	C162	C	0.607362	0.329773	0.888627
	C163	C	0.362355	0.327784	0.111672
	C164	C	0.664500	0.896191	0.380081
	C165	C	0.665141	0.122077	0.622618
	C166	C	0.307734	0.896297	0.624161
	C167	C	0.305247	0.120873	0.378340
	C168	C	0.861798	0.397374	0.181594
	C169	C	0.108590	0.621537	0.182130
	C170	C	0.108294	0.395992	0.822344
	C171	C	0.863103	0.621204	0.819185
	C172	C	0.169052	0.882827	0.391080
	C173	C	0.167755	0.131082	0.611525
	C174	C	0.802439	0.133812	0.390617
	C175	C	0.805867	0.885764	0.612380
	C176	C	0.373352	0.189582	0.878778
	C177	C	0.597047	0.190054	0.123591
	C178	C	0.374244	0.830184	0.122870
	C179	C	0.597705	0.829746	0.880168
	C180	C	0.374982	0.886173	0.181949
	C181	C	0.596000	0.134908	0.183761
	C182	C	0.374381	0.133649	0.819163
	C183	C	0.597307	0.886671	0.821195
	C184	C	0.862124	0.189668	0.389556
	C185	C	0.108898	0.188302	0.611930
	C186	C	0.108368	0.828101	0.389866
	C187	C	0.865916	0.829453	0.613332
	C188	C	0.165133	0.396442	0.880273
	C189	C	0.165687	0.622000	0.124314
	C190	C	0.804880	0.397536	0.123586
	C191	C	0.806265	0.622134	0.877336
	C192	C	0.389289	0.102286	0.597150
	C193	C	0.583486	0.915505	0.599969
	C194	C	0.581030	0.101785	0.405392
	C195	C	0.390866	0.916149	0.404518
	C196	C	0.582932	0.413020	0.091249
	C197	C	0.583198	0.606951	0.909322
	C198	C	0.387820	0.606293	0.092257
	C199	C	0.388297	0.414363	0.910380
	C200	C	0.076970	0.604343	0.404154
	C201	C	0.894763	0.604666	0.597793
	C202	C	0.078186	0.411528	0.598960
	C203	C	0.893703	0.412666	0.402939
	C204	C	0.889733	0.602250	0.097189
	C205	C	0.081754	0.416980	0.097369
	C206	C	0.080359	0.601946	0.904109
	C207	C	0.888586	0.416175	0.903834
	C208	C	0.084924	0.911843	0.592683
	C209	C	0.082782	0.103760	0.409673
	C210	C	0.888038	0.104805	0.592158
	C211	C	0.887093	0.912226	0.409244
	C212	C	0.577621	0.106420	0.902905
	C213	C	0.394290	0.105137	0.097750
	C214	C	0.577370	0.914391	0.098492
	C215	C	0.393853	0.913119	0.902230
	Zn216	Zn	0.485830	0.010092	0.750218
	Zn217	Zn	0.485914	0.009472	0.251930
	Zn218	Zn	0.736715	0.510165	0.000649
	Zn219	Zn	0.233835	0.510198	0.000799
	Zn220	Zn	-0.013634	0.758810	0.501282
	Zn221	Zn	-0.014605	0.258245	0.500220
	Zn222	Zn	-0.013869	0.507861	0.751560
	Zn223	Zn	-0.014507	0.508508	0.250110
	Zn224	Zn	0.485631	0.760237	0.001504
	Zn225	Zn	0.485291	0.259047	0.000321
	Zn226	Zn	0.734436	0.008934	0.501196
	Zn227	Zn	0.237579	0.007355	0.500761
	N228	N	0.400432	0.973384	0.680000
	N229	N	0.572566	0.045737	0.680488
	N230	N	0.573449	0.973735	0.321162
	N231	N	0.398600	0.045024	0.321098
	N232	N	0.666845	0.422104	0.964972
	N233	N	0.667536	0.597958	0.036122
	N234	N	0.303403	0.598350	0.965517
	N235	N	0.303865	0.421701	0.036316
	N236	N	0.949316	0.688071	0.415096
	N237	N	0.022688	0.687424	0.587215
	N238	N	0.949854	0.329530	0.586187
	N239	N	0.021593	0.329430	0.414919
	N240	N	0.951270	0.419074	0.682584
	N241	N	0.021737	0.595773	0.682126
	N242	N	0.949942	0.596527	0.319951
	N243	N	0.020315	0.419863	0.318924
	N244	N	0.400304	0.688377	0.964236
	N245	N	0.572052	0.689027	0.037186
	N246	N	0.571094	0.330800	0.963470
	N247	N	0.399637	0.330484	0.037263
	N248	N	0.663264	0.972359	0.416235
	N249	N	0.665120	0.045203	0.588019
	N250	N	0.307965	0.972514	0.587743
	N251	N	0.307019	0.044558	0.414431
	N252	N	0.898339	0.473385	0.180593
	N253	N	0.072598	0.545225	0.181134
	N254	N	0.072154	0.472391	0.822352
	N255	N	0.898338	0.544498	0.819994
	N256	N	0.169489	0.918433	0.466437
	N257	N	0.167258	0.094972	0.536162
	N258	N	0.802952	0.097452	0.466046
	N259	N	0.804749	0.921062	0.536529
	N260	N	0.448866	0.188133	0.914991
	N261	N	0.522132	0.187881	0.086436
	N262	N	0.449282	0.831816	0.086683
	N263	N	0.522181	0.830886	0.915458
	N264	N	0.450743	0.922096	0.181930
	N265	N	0.520514	0.098677	0.183297
	N266	N	0.450260	0.098306	0.818896
	N267	N	0.521313	0.922106	0.820127
	N268	N	0.899537	0.187168	0.464114
	N269	N	0.072239	0.187320	0.536890
	N270	N	0.071545	0.830364	0.464581
	N271	N	0.901062	0.830276	0.537931
	N272	N	0.163649	0.473070	0.915533
	N273	N	0.164607	0.545866	0.087973
	N274	N	0.806770	0.473550	0.086996
	N275	N	0.806745	0.545911	0.913722
	O276	O	0.647694	0.509354	0.364276
	H277	H	0.646548	0.522730	0.380149
	H278	H	0.667990	0.521568	0.349132
	O279	O	0.797752	0.033223	-0.183981
	H280	H	0.802830	0.021096	-0.179195
	H281	H	0.776623	0.026577	-0.189776
	O282	O	0.464485	0.521859	0.346802
	H283	H	0.480170	0.529652	0.347966
	H284	H	0.478805	0.510991	0.348730
	O285	O	0.916310	0.072941	0.113511
	H286	H	0.922991	0.075977	0.112330
	H287	H	0.929219	0.076131	0.106634
	O288	O	0.077216	-0.039047	1.008533
	H289	H	0.065376	-0.040784	1.004593
	H290	H	0.072892	-0.042921	1.006461
	O291	O	0.647551	0.509148	0.517397
	H292	H	0.643780	0.496786	0.506514
	H293	H	0.662911	0.516358	0.516665
	O294	O	0.386155	0.380270	0.408173
	H295	H	0.397131	0.379061	0.391451
	H296	H	0.374517	0.365932	0.411047
	O297	O	1.019926	0.955654	1.090204
	H298	H	1.024169	0.959853	1.091641
	H299	H	1.029668	0.951258	1.089684
	O300	O	0.048876	-0.107364	-0.171937
	H301	H	0.030462	-0.106251	-0.177103
	H302	H	0.057750	-0.095832	-0.176616
	O303	O	0.347672	0.514554	0.409947
	H304	H	0.335564	0.523289	0.416529
	H305	H	0.346729	0.501069	0.413020
	O306	O	1.081514	0.024597	-0.109245
	H307	H	1.078473	0.042724	-0.109519
	H308	H	1.077188	0.030006	-0.106438
	O309	O	0.599846	0.490119	0.548481
	H310	H	0.602824	0.486778	0.544559
	H311	H	0.589575	0.488841	0.554947
	O312	O	0.491892	1.609747	-0.499100
	H313	H	0.490776	1.610319	-0.503461
	H314	H	0.485705	1.600930	-0.491012
	O315	O	0.619614	0.361065	0.429222
	H316	H	0.619849	0.377455	0.421266
	H317	H	0.621828	0.371120	0.452556
	O318	O	0.295526	0.427697	0.641897
	H319	H	0.315053	0.416382	0.649441
	H320	H	0.284726	0.417240	0.633382
	O321	O	0.787197	-0.005627	1.132497
	H322	H	0.773874	0.004636	1.122707
	H323	H	0.796133	-0.009347	1.129923
	O324	O	0.175983	0.146368	0.983268
	H325	H	0.180549	0.140556	0.977133
	H326	H	0.167320	0.137530	0.995929
	O327	O	1.095154	1.063361	1.029281
	H328	H	1.086301	1.066330	1.027770
	H329	H	1.103044	1.076059	1.030512
	O330	O	0.652767	0.768359	0.338490
	H331	H	0.634055	0.766665	0.352805
	H332	H	0.638266	0.772863	0.337275
	O333	O	1.025513	1.176193	1.182305
	H334	H	1.026073	1.180692	1.192028
	H335	H	1.031864	1.159762	1.183250
	O336	O	0.398608	0.568419	0.521597
	H337	H	0.384515	0.564721	0.512103
	H338	H	0.398856	0.588329	0.528410
	O339	O	1.294031	-0.428955	1.347164
	H340	H	1.272546	-0.420332	1.326956
	H341	H	1.316476	-0.429373	1.352900
	O342	O	-0.009680	0.951416	1.061742
	H343	H	-0.010084	0.948305	1.058275
	H344	H	-0.015353	0.944784	1.071843
	O345	O	0.007623	1.177638	0.827381
	H346	H	-0.015318	1.182106	0.830669
	H347	H	0.003470	1.189403	0.823638
	O348	O	1.015954	0.249637	0.819090
	H349	H	1.018378	0.238146	0.838775
	H350	H	1.009576	0.262532	0.797295
	O351	O	-0.156616	-0.050622	-0.022632
	H352	H	-0.150093	-0.044142	-0.003809
	H353	H	-0.154056	-0.057859	-0.012665
	O354	O	0.901424	1.107422	-0.060575
	H355	H	0.911503	1.114047	-0.062018
	H356	H	0.915705	1.117135	-0.052260
	O357	O	-0.193094	0.906677	0.128029
	H358	H	-0.206367	0.904284	0.128577
	H359	H	-0.180417	0.903446	0.137468
	O360	O	0.888386	0.124696	1.061791
	H361	H	0.888829	0.125183	1.077940
	H362	H	0.893733	0.138770	1.057071
	O363	O	0.158622	-0.073943	-0.068028
	H364	H	0.146279	-0.066806	-0.070373
	H365	H	0.158020	-0.062170	-0.057243
	O366	O	-0.117904	1.204694	-0.148987
	H367	H	-0.139809	1.192003	-0.148559
	H368	H	-0.125096	1.221455	-0.139320
	O369	O	0.430586	0.531330	0.562707
	H370	H	0.420183	0.518788	0.567073
	H371	H	0.438053	0.511520	0.567738
	O372	O	0.440427	0.523680	0.643505
	H373	H	0.446630	0.519978	0.648002
	H374	H	0.441247	0.530245	0.649364
	O375	O	0.378921	0.528353	0.609178
	H376	H	0.384115	0.527679	0.601356
	H377	H	0.355673	0.531145	0.601960
	O378	O	0.363620	0.406111	0.619712
	H379	H	0.379854	0.413951	0.622577
	H380	H	0.366561	0.410144	0.610789
	O381	O	0.495417	0.543785	0.597652
	H382	H	0.494541	0.557324	0.591787
	H383	H	0.492353	0.534466	0.614937
	O384	O	-0.005605	0.964777	0.972285
	H385	H	0.017166	0.954240	0.966820
	H386	H	-0.014025	0.960599	0.958098
	O387	O	1.672463	0.515337	-0.463033
	H388	H	1.679229	0.506021	-0.461859
	H389	H	1.664384	0.533815	-0.463509
	O390	O	0.467401	0.705106	0.575358
	H391	H	0.453533	0.721632	0.589017
	H392	H	0.480430	0.703422	0.567340
	O393	O	1.004205	-0.062898	0.879940
	H394	H	0.996863	-0.055831	0.889916
	H395	H	1.009727	-0.059605	0.877137
	O396	O	0.508351	0.342283	0.342988
	H397	H	0.512966	0.322162	0.328318
	H398	H	0.521587	0.355506	0.342591
	O399	O	0.452795	0.659153	0.324659
	H400	H	0.443899	0.640521	0.331277
	H401	H	0.456925	0.664587	0.310940
	O402	O	0.966056	-0.140177	0.963397
	H403	H	0.973672	-0.150113	0.972155
	H404	H	0.958057	-0.144699	0.963206
	O405	O	0.555914	-0.349956	0.418914
	H406	H	0.532056	-0.341783	0.420475
	H407	H	0.554176	-0.343066	0.431976
	O408	O	1.110223	0.897667	1.103610
	H409	H	1.110720	0.884858	1.099703
	H410	H	1.105801	0.890454	1.100299
	O411	O	0.588196	0.506695	0.494152
	H412	H	0.586384	0.503730	0.510074
	H413	H	0.580734	0.521965	0.493309
	O414	O	0.162439	0.142560	1.190306
	H415	H	0.143229	0.131369	1.195119
	H416	H	0.171333	0.144141	1.179575
	O417	O	0.411797	0.377421	0.473291
	H418	H	0.405014	0.382892	0.476899
	H419	H	0.408964	0.378040	0.466231
	O420	O	0.519286	1.365792	-0.490098
	H421	H	0.525712	1.361423	-0.498856
	H422	H	0.511819	1.367940	-0.491649
	O423	O	1.008660	-0.047978	0.076747
	H424	H	1.023037	-0.046083	0.062201
	H425	H	0.999847	-0.040743	0.076773
	O426	O	-0.054101	-0.140208	1.049918
	H427	H	-0.034377	-0.126455	1.039967
	H428	H	-0.059769	-0.161061	1.056305
	O429	O	0.682916	0.593944	0.612148
	H430	H	0.692306	0.592053	0.610844
	H431	H	0.673885	0.583831	0.610735
