data_Molecule from HDF5

_cell_length_a		16.264928
_cell_length_b		16.350180
_cell_length_c		16.362610
_cell_angle_alpha	90.032250
_cell_angle_beta	90.115020
_cell_angle_gamma	89.884418
_symmetry_space_group_name_H-M	'P 1'
_symmetry_Int_Tables_number		1

loop_
	_symmetry_equiv_pos_as_xyz
	x,y,z

loop_
	_atom_site_label
	_atom_site_type_symbol
	_atom_site_fract_x
	_atom_site_fract_y
	_atom_site_fract_z
	H0	H	0.408027	0.834136	0.719835
	H1	H	0.603701	0.160069	0.720020
	H2	H	0.604959	0.834963	0.288758
	H3	H	0.405082	0.159879	0.288367
	H4	H	0.719774	0.400081	0.840345
	H5	H	0.718885	0.593206	0.168083
	H6	H	0.291316	0.595322	0.841353
	H7	H	0.291795	0.400091	0.167973
	H8	H	0.840923	0.710649	0.407408
	H9	H	0.168784	0.712022	0.603344
	H10	H	0.841847	0.282616	0.603444
	H11	H	0.169342	0.282021	0.406129
	H12	H	0.841680	0.400298	0.717949
	H13	H	0.169342	0.595035	0.718071
	H14	H	0.841388	0.595233	0.290489
	H15	H	0.169387	0.398071	0.290479
	H16	H	0.406066	0.712998	0.841925
	H17	H	0.605427	0.712668	0.167202
	H18	H	0.604669	0.281477	0.841335
	H19	H	0.408082	0.282396	0.168012
	H20	H	0.718222	0.833133	0.408042
	H21	H	0.718880	0.160493	0.602906
	H22	H	0.293945	0.832810	0.600302
	H23	H	0.289924	0.160804	0.405991
	H24	H	0.908781	0.334020	0.218481
	H25	H	0.104949	0.660474	0.221005
	H26	H	0.105158	0.334653	0.789852
	H27	H	0.906962	0.660438	0.789563
	H28	H	0.219483	0.898550	0.341437
	H29	H	0.219476	0.094323	0.667580
	H30	H	0.789454	0.094885	0.341243
	H31	H	0.792078	0.900828	0.668398
	H32	H	0.342061	0.212334	0.906134
	H33	H	0.670339	0.210489	0.102958
	H34	H	0.341650	0.782678	0.102776
	H35	H	0.669721	0.783191	0.907110
	H36	H	0.341078	0.899541	0.218558
	H37	H	0.669137	0.094786	0.219957
	H38	H	0.341441	0.096458	0.790233
	H39	H	0.669503	0.899313	0.791253
	H40	H	0.905345	0.213086	0.342049
	H41	H	0.105198	0.212585	0.666802
	H42	H	0.102802	0.781999	0.341529
	H43	H	0.907304	0.782938	0.667800
	H44	H	0.219315	0.333793	0.907657
	H45	H	0.220890	0.660865	0.103680
	H46	H	0.793258	0.333575	0.101516
	H47	H	0.792657	0.661442	0.907810
	H48	H	0.410795	0.112870	0.598475
	H49	H	0.592747	0.882369	0.599317
	H50	H	0.602160	0.113242	0.415345
	H51	H	0.420291	0.883034	0.407536
	H52	H	0.597518	0.405632	0.117832
	H53	H	0.607582	0.594148	0.885280
	H54	H	0.410890	0.595374	0.122419
	H55	H	0.412508	0.403417	0.889361
	H56	H	0.122175	0.598500	0.420111
	H57	H	0.890253	0.580502	0.603770
	H58	H	0.122104	0.402575	0.595840
	H59	H	0.886296	0.399207	0.406683
	H60	H	0.121292	0.405268	0.597895
	H61	H	0.883868	0.600412	0.604102
	H62	H	0.117722	0.579790	0.414706
	H63	H	0.891081	0.402787	0.418902
	H64	H	0.410677	0.584441	0.118875
	H65	H	0.598136	0.582670	0.891053
	H66	H	0.599249	0.400261	0.120891
	H67	H	0.413011	0.404002	0.889867
	H68	H	0.596415	0.114452	0.406018
	H69	H	0.603797	0.881752	0.593659
	H70	H	0.413011	0.112984	0.600066
	H71	H	0.410828	0.883562	0.419102
	H72	H	0.908244	0.615594	0.100149
	H73	H	0.092107	0.384474	0.100334
	H74	H	0.108818	0.615117	0.915681
	H75	H	0.917986	0.381323	0.904103
	H76	H	0.104461	0.901351	0.622442
	H77	H	0.090546	0.087422	0.391377
	H78	H	0.912192	0.093199	0.620546
	H79	H	0.910865	0.905194	0.389296
	H80	H	0.620406	0.090074	0.916790
	H81	H	0.390225	0.088620	0.095639
	H82	H	0.618026	0.908357	0.092031
	H83	H	0.389926	0.911957	0.906821
	H84	H	0.622629	0.906881	0.105471
	H85	H	0.388806	0.090019	0.099789
	H86	H	0.620543	0.085493	0.909683
	H87	H	0.386015	0.897136	0.908818
	H88	H	0.910088	0.089211	0.619763
	H89	H	0.098072	0.097018	0.386226
	H90	H	0.098149	0.910523	0.617653
	H91	H	0.913574	0.903035	0.389434
	H92	H	0.098640	0.616544	0.900205
	H93	H	0.101026	0.383990	0.091291
	H94	H	0.916168	0.612624	0.101932
	H95	H	0.917328	0.385171	0.918185
	H96	H	0.413206	0.112154	0.597335
	H97	H	0.602813	0.878394	0.605321
	H98	H	0.591630	0.110391	0.414969
	H99	H	0.406205	0.878839	0.405568
	H100	H	0.603100	0.405090	0.119846
	H101	H	0.591977	0.597058	0.888716
	H102	H	0.420596	0.590241	0.118175
	H103	H	0.413836	0.403560	0.888636
	H104	H	0.125393	0.592787	0.401763
	H105	H	0.891712	0.592026	0.586252
	H106	H	0.122427	0.402761	0.599430
	H107	H	0.891173	0.411085	0.408652
	H108	H	0.912943	0.611774	0.094108
	H109	H	0.103598	0.379733	0.102577
	H110	H	0.090873	0.609087	0.915141
	H111	H	0.904840	0.379656	0.911605
	H112	H	0.092986	0.899449	0.619480
	H113	H	0.103588	0.085255	0.388638
	H114	H	0.915112	0.089793	0.618742
	H115	H	0.910416	0.902267	0.388487
	H116	H	0.623458	0.093109	0.909772
	H117	H	0.388849	0.092906	0.095726
	H118	H	0.623483	0.896100	0.096691
	H119	H	0.391725	0.904985	0.920650
	C120	C	0.384288	0.004942	0.626489
	C121	C	0.627655	0.988849	0.627323
	C122	C	0.625935	0.005041	0.383677
	C123	C	0.383121	0.989347	0.382327
	C124	C	0.628395	0.375018	0.012176
	C125	C	0.627426	0.619030	0.996254
	C126	C	0.384624	0.618857	0.012408
	C127	C	0.384909	0.375721	0.997026
	C128	C	0.013365	0.618579	0.383629
	C129	C	0.996830	0.619181	0.626195
	C130	C	0.013878	0.375429	0.626380
	C131	C	0.997682	0.375818	0.383233
	C132	C	0.884115	0.505611	0.126791
	C133	C	0.127976	0.489817	0.127149
	C134	C	0.127736	0.505664	0.882572
	C135	C	0.884740	0.489631	0.883051
	C136	C	0.127189	0.874876	0.512535
	C137	C	0.126645	0.118495	0.496157
	C138	C	0.882998	0.119446	0.512578
	C139	C	0.883680	0.875696	0.496728
	C140	C	0.513540	0.118652	0.883391
	C141	C	0.497489	0.118683	0.126070
	C142	C	0.513488	0.875496	0.126304
	C143	C	0.497416	0.876046	0.883715
	C144	C	0.387253	0.882410	0.681183
	C145	C	0.624271	0.111519	0.682160
	C146	C	0.624373	0.882719	0.328159
	C147	C	0.384859	0.111498	0.326685
	C148	C	0.682753	0.378337	0.889397
	C149	C	0.682163	0.615310	0.119087
	C150	C	0.329094	0.616348	0.889887
	C151	C	0.329847	0.379121	0.119487
	C152	C	0.889941	0.673437	0.386137
	C153	C	0.120067	0.673955	0.623587
	C154	C	0.890682	0.320828	0.623679
	C155	C	0.120487	0.320226	0.385591
	C156	C	0.890742	0.379102	0.680805
	C157	C	0.120345	0.615905	0.680435
	C158	C	0.890118	0.615766	0.328392
	C159	C	0.120346	0.377732	0.327987
	C160	C	0.386389	0.674422	0.890201
	C161	C	0.625253	0.674219	0.118693
	C162	C	0.625848	0.319408	0.889940
	C163	C	0.387628	0.320886	0.119534
	C164	C	0.680717	0.882174	0.387294
	C165	C	0.681610	0.111779	0.623863
	C166	C	0.330259	0.881986	0.622413
	C167	C	0.327755	0.111949	0.385213
	C168	C	0.887836	0.382841	0.181028
	C169	C	0.125635	0.611888	0.183080
	C170	C	0.125313	0.383203	0.827800
	C171	C	0.886943	0.612083	0.827904
	C172	C	0.181421	0.877879	0.390028
	C173	C	0.181799	0.115299	0.618837
	C174	C	0.827478	0.115998	0.389940
	C175	C	0.829878	0.879904	0.619781
	C176	C	0.390529	0.173849	0.886115
	C177	C	0.621108	0.173104	0.123584
	C178	C	0.390377	0.820516	0.123695
	C179	C	0.620691	0.821090	0.886726
	C180	C	0.390052	0.878723	0.180798
	C181	C	0.620631	0.115701	0.181568
	C182	C	0.390215	0.116415	0.828329
	C183	C	0.620427	0.878472	0.828768
	C184	C	0.885077	0.174514	0.390304
	C185	C	0.125011	0.173880	0.618529
	C186	C	0.123683	0.819742	0.390172
	C187	C	0.886853	0.821244	0.619543
	C188	C	0.182199	0.382830	0.886451
	C189	C	0.183076	0.612223	0.124529
	C190	C	0.830482	0.382486	0.122813
	C191	C	0.829881	0.612342	0.886447
	C192	C	0.406049	0.090636	0.605045
	C193	C	0.606162	0.903120	0.605799
	C194	C	0.603435	0.090517	0.405716
	C195	C	0.405684	0.903846	0.404415
	C196	C	0.606339	0.396967	0.097346
	C197	C	0.605635	0.597669	0.910488
	C198	C	0.407455	0.596501	0.097830
	C199	C	0.406663	0.397157	0.911408
	C200	C	0.099396	0.596785	0.406000
	C201	C	0.910876	0.597247	0.604539
	C202	C	0.099898	0.397112	0.604300
	C203	C	0.911724	0.397767	0.405223
	C204	C	0.905915	0.591358	0.105129
	C205	C	0.105556	0.404604	0.104642
	C206	C	0.105922	0.591560	0.903995
	C207	C	0.907009	0.403957	0.904764
	C208	C	0.105084	0.897281	0.597998
	C209	C	0.103933	0.096576	0.410880
	C210	C	0.905719	0.097370	0.597733
	C211	C	0.905138	0.897127	0.411257
	C212	C	0.599443	0.096154	0.905525
	C213	C	0.411648	0.096965	0.103665
	C214	C	0.599390	0.897415	0.104536
	C215	C	0.411266	0.898237	0.905659
	Zn216	Zn	0.505248	-0.002782	0.755384
	Zn217	Zn	0.505331	-0.002818	0.254165
	Zn218	Zn	0.756044	0.497131	0.004230
	Zn219	Zn	0.255912	0.497698	0.004417
	Zn220	Zn	0.004730	0.746706	0.505011
	Zn221	Zn	0.005560	0.247437	0.504271
	Zn222	Zn	0.006117	0.497693	0.754138
	Zn223	Zn	0.005888	0.497401	0.255525
	Zn224	Zn	0.505290	0.747569	0.004689
	Zn225	Zn	0.505885	0.246549	0.004696
	Zn226	Zn	0.754922	-0.003027	0.504582
	Zn227	Zn	0.255547	-0.002753	0.504484
	N228	N	0.419928	0.959886	0.683850
	N229	N	0.591347	0.034122	0.684214
	N230	N	0.591039	0.960053	0.325743
	N231	N	0.418447	0.034180	0.324634
	N232	N	0.684433	0.412181	0.966367
	N233	N	0.683409	0.581596	0.042030
	N234	N	0.327759	0.582638	0.966889
	N235	N	0.328109	0.412728	0.042284
	N236	N	0.967516	0.675237	0.419682
	N237	N	0.042314	0.676030	0.590495
	N238	N	0.968345	0.318302	0.590609
	N239	N	0.043150	0.318964	0.419304
	N240	N	0.968492	0.412125	0.682715
	N241	N	0.042947	0.582526	0.682101
	N242	N	0.967966	0.582474	0.326782
	N243	N	0.042842	0.411575	0.326557
	N244	N	0.420164	0.675892	0.967441
	N245	N	0.591839	0.676589	0.041411
	N246	N	0.592692	0.317220	0.967090
	N247	N	0.420979	0.318813	0.042482
	N248	N	0.681915	0.959285	0.420914
	N249	N	0.683729	0.034560	0.590441
	N250	N	0.328377	0.959209	0.589010
	N251	N	0.326493	0.034919	0.418878
	N252	N	0.920388	0.460435	0.183436
	N253	N	0.092145	0.534740	0.184792
	N254	N	0.092025	0.460571	0.825617
	N255	N	0.920391	0.534744	0.825814
	N256	N	0.183398	0.911521	0.466886
	N257	N	0.182651	0.081374	0.541903
	N258	N	0.826112	0.082571	0.467098
	N259	N	0.827872	0.912950	0.542550
	N260	N	0.468181	0.175255	0.919430
	N261	N	0.543565	0.175026	0.089782
	N262	N	0.467963	0.818522	0.090421
	N263	N	0.543011	0.819317	0.919846
	N264	N	0.467688	0.912087	0.182573
	N265	N	0.542926	0.082825	0.183200
	N266	N	0.467843	0.082736	0.826432
	N267	N	0.542817	0.912179	0.827056
	N268	N	0.918971	0.176532	0.467283
	N269	N	0.091224	0.175867	0.541320
	N270	N	0.090736	0.817621	0.467617
	N271	N	0.919774	0.818643	0.542247
	N272	N	0.183705	0.460044	0.919892
	N273	N	0.184522	0.535340	0.090418
	N274	N	0.827898	0.459801	0.089885
	N275	N	0.828586	0.535308	0.920218
	O276	O	-0.040048	0.094297	0.971774
	H277	H	-0.041851	0.089700	0.969088
	H278	H	-0.035514	0.096637	0.971010
	O279	O	0.506261	0.505424	0.453475
	H280	H	0.486684	0.500035	0.459796
	H281	H	0.509665	0.515264	0.449816
	O282	O	0.458895	0.466313	0.423783
	H283	H	0.451533	0.459511	0.422149
	H284	H	0.452773	0.468140	0.422546
	O285	O	0.482915	0.442287	0.424381
	H286	H	0.497853	0.438944	0.420613
	H287	H	0.488515	0.436132	0.412597
	O288	O	-0.014220	1.087172	-0.039591
	H289	H	-0.000117	1.095926	-0.042981
	H290	H	-0.022905	1.080625	-0.040174
	O291	O	-0.033777	1.092220	0.961100
	H292	H	-0.031545	1.102693	0.958493
	H293	H	-0.045296	1.092131	0.961013
	O294	O	0.475657	0.463820	0.414756
	H295	H	0.490286	0.469283	0.420371
	H296	H	0.466544	0.465510	0.413748
	O297	O	0.981051	0.078702	-0.025907
	H298	H	0.982822	0.076130	-0.031593
	H299	H	0.975353	0.080942	-0.017430
