data_Molecule from HDF5

_cell_length_a		16.359777
_cell_length_b		16.244587
_cell_length_c		16.318760
_cell_angle_alpha	89.618439
_cell_angle_beta	90.300519
_cell_angle_gamma	90.028393
_symmetry_space_group_name_H-M	'P 1'
_symmetry_Int_Tables_number		1

loop_
	_symmetry_equiv_pos_as_xyz
	x,y,z

loop_
	_atom_site_label
	_atom_site_type_symbol
	_atom_site_fract_x
	_atom_site_fract_y
	_atom_site_fract_z
	H0	H	0.399774	0.847493	0.729368
	H1	H	0.600798	0.173838	0.729946
	H2	H	0.598198	0.846353	0.298034
	H3	H	0.397176	0.173774	0.294707
	H4	H	0.711299	0.411018	0.851475
	H5	H	0.716387	0.614984	0.174361
	H6	H	0.278475	0.613046	0.850213
	H7	H	0.278625	0.408020	0.174869
	H8	H	0.836756	0.730176	0.410315
	H9	H	0.162170	0.722504	0.610503
	H10	H	0.837619	0.292323	0.614591
	H11	H	0.161479	0.297067	0.414310
	H12	H	0.834826	0.411198	0.727547
	H13	H	0.158984	0.611550	0.730964
	H14	H	0.835408	0.614887	0.293567
	H15	H	0.158310	0.409939	0.294212
	H16	H	0.394046	0.729415	0.850430
	H17	H	0.595581	0.725315	0.176160
	H18	H	0.590099	0.300408	0.849368
	H19	H	0.393229	0.290661	0.174750
	H20	H	0.715882	0.847240	0.413092
	H21	H	0.718330	0.172824	0.614412
	H22	H	0.282595	0.847989	0.614832
	H23	H	0.281079	0.173328	0.408936
	H24	H	0.894225	0.349084	0.230650
	H25	H	0.097522	0.674210	0.227857
	H26	H	0.092929	0.347436	0.801348
	H27	H	0.896537	0.675547	0.795839
	H28	H	0.213932	0.912937	0.349966
	H29	H	0.216006	0.110384	0.675389
	H30	H	0.780770	0.114236	0.350623
	H31	H	0.784664	0.908949	0.675741
	H32	H	0.333304	0.224753	0.912565
	H33	H	0.658698	0.227723	0.112675
	H34	H	0.333722	0.795270	0.112446
	H35	H	0.658375	0.794755	0.916033
	H36	H	0.335437	0.909509	0.230297
	H37	H	0.660273	0.111114	0.229419
	H38	H	0.336207	0.111546	0.793604
	H39	H	0.659311	0.908912	0.798901
	H40	H	0.898786	0.229276	0.350018
	H41	H	0.099077	0.223869	0.676401
	H42	H	0.099450	0.795238	0.350089
	H43	H	0.902587	0.794738	0.675476
	H44	H	0.212778	0.349196	0.912134
	H45	H	0.213677	0.673936	0.113047
	H46	H	0.780448	0.348233	0.113727
	H47	H	0.779181	0.675362	0.910938
	H48	H	0.406405	0.126464	0.601602
	H49	H	0.594466	0.898073	0.595141
	H50	H	0.586364	0.124571	0.421174
	H51	H	0.403609	0.894686	0.424455
	H52	H	0.589257	0.411811	0.131406
	H53	H	0.580232	0.602557	0.901878
	H54	H	0.398419	0.602821	0.129952
	H55	H	0.401815	0.417137	0.896691
	H56	H	0.109499	0.602790	0.428545
	H57	H	0.885449	0.594463	0.603055
	H58	H	0.111814	0.419342	0.602983
	H59	H	0.884442	0.419470	0.426399
	H60	H	0.114003	0.422878	0.612808
	H61	H	0.879525	0.607074	0.613111
	H62	H	0.112213	0.595719	0.414015
	H63	H	0.885208	0.424595	0.422215
	H64	H	0.405227	0.595752	0.125846
	H65	H	0.588876	0.610549	0.895435
	H66	H	0.594875	0.424759	0.129360
	H67	H	0.400611	0.421935	0.897713
	H68	H	0.590763	0.124359	0.425501
	H69	H	0.599500	0.889916	0.613521
	H70	H	0.407670	0.126885	0.605008
	H71	H	0.406041	0.893992	0.418561
	H72	H	0.903132	0.628135	0.102521
	H73	H	0.078749	0.397847	0.104977
	H74	H	0.079570	0.624062	0.924993
	H75	H	0.912937	0.400683	0.923219
	H76	H	0.098481	0.916091	0.630533
	H77	H	0.089301	0.100439	0.398664
	H78	H	0.901934	0.094859	0.628436
	H79	H	0.906345	0.917224	0.396232
	H80	H	0.611650	0.101335	0.921436
	H81	H	0.381519	0.099953	0.108546
	H82	H	0.601322	0.938902	0.093275
	H83	H	0.378995	0.915007	0.918253
	H84	H	0.619362	0.919540	0.132279
	H85	H	0.381580	0.104390	0.102923
	H86	H	0.614420	0.106273	0.917722
	H87	H	0.384345	0.921793	0.926404
	H88	H	0.917621	0.097626	0.623706
	H89	H	0.088882	0.107696	0.397309
	H90	H	0.091192	0.921934	0.626168
	H91	H	0.903854	0.923004	0.396333
	H92	H	0.096372	0.628857	0.925726
	H93	H	0.090968	0.397377	0.096741
	H94	H	0.907742	0.626982	0.103906
	H95	H	0.892949	0.394741	0.928726
	H96	H	0.410672	0.125854	0.602484
	H97	H	0.580290	0.897250	0.610670
	H98	H	0.592487	0.126521	0.418723
	H99	H	0.409167	0.896289	0.423133
	H100	H	0.581866	0.422407	0.126304
	H101	H	0.591890	0.597607	0.897544
	H102	H	0.408870	0.605850	0.128394
	H103	H	0.405712	0.420054	0.898831
	H104	H	0.116317	0.611269	0.415700
	H105	H	0.882376	0.610076	0.597096
	H106	H	0.116053	0.412735	0.610649
	H107	H	0.882739	0.418711	0.420214
	H108	H	0.905979	0.626319	0.099089
	H109	H	0.091436	0.392542	0.110922
	H110	H	0.087595	0.630862	0.911276
	H111	H	0.900346	0.391200	0.908867
	H112	H	0.089528	0.912776	0.629819
	H113	H	0.094699	0.104211	0.396058
	H114	H	0.907807	0.110308	0.630878
	H115	H	0.909417	0.921754	0.398593
	H116	H	0.612010	0.107509	0.924414
	H117	H	0.384356	0.097981	0.102039
	H118	H	0.615728	0.894184	0.093366
	H119	H	0.381848	0.925696	0.915452
	C120	C	0.378150	0.018958	0.633708
	C121	C	0.621603	1.002423	0.635935
	C122	C	0.619755	0.017583	0.392295
	C123	C	0.376663	1.002555	0.391255
	C124	C	0.616646	0.390797	0.021596
	C125	C	0.617351	0.632817	1.005236
	C126	C	0.374259	0.632289	0.020727
	C127	C	0.372926	0.388574	1.004614
	C128	C	0.006049	0.633987	0.389403
	C129	C	0.989892	0.632271	0.633847
	C130	C	0.006729	0.389035	0.636597
	C131	C	0.990375	0.390894	0.392590
	C132	C	0.875589	0.519708	0.132862
	C133	C	0.117642	0.503297	0.134204
	C134	C	0.116944	0.520273	0.891925
	C135	C	0.873151	0.503582	0.890393
	C136	C	0.121243	0.889029	0.521091
	C137	C	0.121068	0.133222	0.504447
	C138	C	0.878256	0.132457	0.520772
	C139	C	0.878176	0.889848	0.504632
	C140	C	0.505542	0.133783	0.890789
	C141	C	0.488993	0.131933	0.134755
	C142	C	0.505036	0.888246	0.135334
	C143	C	0.488628	0.890334	0.892147
	C144	C	0.379653	0.896154	0.690790
	C145	C	0.621028	0.124827	0.691853
	C146	C	0.618316	0.895253	0.336372
	C147	C	0.377757	0.125015	0.333617
	C148	C	0.672239	0.392210	0.899371
	C149	C	0.676267	0.633099	0.126338
	C150	C	0.317327	0.632272	0.898738
	C151	C	0.316859	0.388564	0.126478
	C152	C	0.884791	0.691509	0.390527
	C153	C	0.112675	0.686284	0.631692
	C154	C	0.885429	0.331562	0.634404
	C155	C	0.112516	0.334976	0.393993
	C156	C	0.884287	0.390430	0.690771
	C157	C	0.111171	0.630905	0.691525
	C158	C	0.884086	0.633947	0.332489
	C159	C	0.110944	0.390967	0.334345
	C160	C	0.374754	0.690235	0.898764
	C161	C	0.616078	0.688165	0.127335
	C162	C	0.612401	0.336678	0.898677
	C163	C	0.373938	0.330170	0.126351
	C164	C	0.676984	0.895656	0.393423
	C165	C	0.679193	0.124557	0.634293
	C166	C	0.321796	0.896564	0.633464
	C167	C	0.320018	0.124869	0.390626
	C168	C	0.875338	0.397719	0.191542
	C169	C	0.116685	0.625818	0.189378
	C170	C	0.114150	0.396760	0.837888
	C171	C	0.875679	0.626585	0.833908
	C172	C	0.176148	0.892187	0.398529
	C173	C	0.178003	0.130811	0.626684
	C174	C	0.820321	0.133157	0.398992
	C175	C	0.822782	0.889562	0.627008
	C176	C	0.382650	0.187935	0.891970
	C177	C	0.610622	0.189193	0.133251
	C178	C	0.382611	0.832979	0.133026
	C179	C	0.610234	0.833059	0.895002
	C180	C	0.383713	0.889518	0.191891
	C181	C	0.611354	0.131134	0.191209
	C182	C	0.384126	0.131559	0.832842
	C183	C	0.610865	0.890194	0.837268
	C184	C	0.879100	0.190293	0.398715
	C185	C	0.119423	0.187004	0.627381
	C186	C	0.118917	0.833883	0.398487
	C187	C	0.881478	0.833049	0.627037
	C188	C	0.173607	0.397642	0.893155
	C189	C	0.174832	0.625509	0.132421
	C190	C	0.818736	0.397202	0.133119
	C191	C	0.817345	0.626540	0.891137
	C192	C	0.401548	0.104125	0.609992
	C193	C	0.598288	0.917229	0.613224
	C194	C	0.596469	0.103103	0.415008
	C195	C	0.399666	0.917219	0.415085
	C196	C	0.595055	0.413218	0.106888
	C197	C	0.593725	0.610185	0.920216
	C198	C	0.397505	0.608520	0.105846
	C199	C	0.396131	0.412625	0.919804
	C200	C	0.090829	0.610164	0.412455
	C201	C	0.904341	0.610339	0.611104
	C202	C	0.091942	0.411734	0.615135
	C203	C	0.905884	0.414210	0.416173
	C204	C	0.898843	0.605041	0.108696
	C205	C	0.093868	0.418020	0.110913
	C206	C	0.094437	0.605800	0.914085
	C207	C	0.895485	0.417874	0.913626
	C208	C	0.099484	0.910644	0.606631
	C209	C	0.097697	0.110862	0.419233
	C210	C	0.902137	0.108200	0.605783
	C211	C	0.900063	0.913648	0.419234
	C212	C	0.590646	0.111505	0.914454
	C213	C	0.404437	0.107844	0.111268
	C214	C	0.590169	0.910801	0.112869
	C215	C	0.403746	0.913874	0.913854
	Zn216	Zn	0.498594	0.011025	0.763397
	Zn217	Zn	0.497739	0.010150	0.263462
	Zn218	Zn	0.746236	0.511720	0.013034
	Zn219	Zn	0.245300	0.511047	0.012666
	Zn220	Zn	-0.000508	0.760778	0.512570
	Zn221	Zn	-0.000267	0.261412	0.513709
	Zn222	Zn	-0.003278	0.511835	0.763835
	Zn223	Zn	-0.003645	0.511539	0.262170
	Zn224	Zn	0.495464	0.760955	0.012644
	Zn225	Zn	0.495657	0.261697	0.013134
	Zn226	Zn	0.749277	0.010453	0.513056
	Zn227	Zn	0.249061	0.011304	0.512689
	N228	N	0.414212	0.973262	0.691023
	N229	N	0.585910	0.048016	0.692896
	N230	N	0.583220	0.972145	0.335838
	N231	N	0.412480	0.047917	0.333869
	N232	N	0.674969	0.425447	0.976774
	N233	N	0.677197	0.599334	0.049190
	N234	N	0.316812	0.597093	0.975569
	N235	N	0.315979	0.424051	0.049826
	N236	N	0.961645	0.691746	0.425050
	N237	N	0.036173	0.687170	0.596668
	N238	N	0.962563	0.330517	0.601498
	N239	N	0.036473	0.335049	0.429710
	N240	N	0.960827	0.425354	0.692409
	N241	N	0.033723	0.597861	0.692848
	N242	N	0.960495	0.598853	0.331761
	N243	N	0.033892	0.424878	0.333182
	N244	N	0.409569	0.690260	0.975651
	N245	N	0.580152	0.688040	0.051070
	N246	N	0.578697	0.335793	0.975609
	N247	N	0.407966	0.330071	0.049456
	N248	N	0.677892	0.972900	0.427368
	N249	N	0.679715	0.047357	0.600277
	N250	N	0.320843	0.973952	0.598555
	N251	N	0.319389	0.047869	0.425943
	N252	N	0.910170	0.474896	0.191309
	N253	N	0.082082	0.548751	0.190557
	N254	N	0.079739	0.473953	0.836943
	N255	N	0.909401	0.549086	0.833248
	N256	N	0.177779	0.925515	0.475777
	N257	N	0.179211	0.098041	0.549115
	N258	N	0.819438	0.098110	0.476060
	N259	N	0.820604	0.924133	0.549915
	N260	N	0.459237	0.189610	0.927145
	N261	N	0.533553	0.189894	0.099112
	N262	N	0.459108	0.832039	0.098682
	N263	N	0.533170	0.832895	0.928203
	N264	N	0.460801	0.923213	0.193284
	N265	N	0.534705	0.096313	0.192279
	N266	N	0.461693	0.098824	0.831783
	N267	N	0.534236	0.924965	0.835102
	N268	N	0.914202	0.190178	0.475602
	N269	N	0.084904	0.188777	0.550478
	N270	N	0.085535	0.831875	0.475664
	N271	N	0.915010	0.832970	0.549835
	N272	N	0.175629	0.475327	0.925878
	N273	N	0.175594	0.548054	0.098938
	N274	N	0.818899	0.474019	0.097364
	N275	N	0.815561	0.549006	0.925380
	O276	O	0.948519	-0.035117	1.088703
	H277	H	0.941413	-0.031938	1.086489
	H278	H	0.948762	-0.036559	1.088767
	O279	O	0.056097	1.133444	-0.034504
	H280	H	0.034775	1.118510	-0.026456
	H281	H	0.060462	1.151395	-0.038919
	O282	O	0.444432	0.401802	0.627709
	H283	H	0.455991	0.393180	0.638355
	H284	H	0.446153	0.401679	0.627054
	O285	O	0.608251	0.503581	0.503358
	H286	H	0.604909	0.509713	0.501687
	H287	H	0.595421	0.504577	0.518940
	O288	O	0.432900	0.446955	0.533916
	H289	H	0.435999	0.443957	0.540410
	H290	H	0.425898	0.440174	0.530203
	O291	O	-0.449343	0.672743	0.645483
	H292	H	-0.448543	0.682290	0.624524
	H293	H	-0.442723	0.660051	0.653851
	O294	O	1.668283	0.337284	-0.528619
	H295	H	1.680657	0.335346	-0.540247
	H296	H	1.659794	0.335498	-0.545367
	O297	O	0.994164	1.111231	0.054191
	H298	H	0.994105	1.104984	0.053106
	H299	H	0.985646	1.114764	0.036052
	O300	O	0.584549	0.523759	0.596771
	H301	H	0.579827	0.520049	0.596747
	H302	H	0.591988	0.523618	0.600558
	O303	O	0.428019	0.617997	0.515448
	H304	H	0.417355	0.624544	0.512011
	H305	H	0.429015	0.624174	0.513614
	O306	O	0.470875	0.569189	0.514224
	H307	H	0.456668	0.578643	0.511499
	H308	H	0.465588	0.574116	0.525431
	O309	O	0.923462	0.102303	1.101839
	H310	H	0.932738	0.102352	1.107027
	H311	H	0.934245	0.092121	1.098492
	O312	O	1.065789	1.137794	0.910520
	H313	H	1.058800	1.140782	0.907107
	H314	H	1.075026	1.144791	0.923016
	O315	O	0.386678	0.573734	0.381657
	H316	H	0.391405	0.571848	0.374380
	H317	H	0.382724	0.566823	0.368482
	O318	O	0.345830	0.524120	0.489779
	H319	H	0.349063	0.513673	0.481381
	H320	H	0.346517	0.521010	0.495049
	O321	O	0.458343	0.513604	0.664709
	H322	H	0.448201	0.521057	0.665632
	H323	H	0.456263	0.527782	0.654703
	O324	O	0.005969	1.041424	1.057921
	H325	H	0.006640	1.027365	1.062369
	H326	H	0.000715	1.038274	1.047115
	O327	O	-0.023303	0.942874	0.978626
	H328	H	-0.034260	0.947806	0.967321
	H329	H	-0.016726	0.954605	0.974181
	O330	O	0.084642	-0.007582	-0.043699
	H331	H	0.083724	-0.011183	-0.038888
	H332	H	0.085982	-0.003223	-0.039748
	O333	O	0.589016	0.559791	0.643933
	H334	H	0.592786	0.558925	0.646495
	H335	H	0.589943	0.565069	0.653501
	O336	O	-0.078006	-0.114048	0.105065
	H337	H	-0.071009	-0.116401	0.099118
	H338	H	-0.082869	-0.115877	0.097211
	O339	O	-0.090037	-0.064964	-0.044216
	H340	H	-0.096880	-0.055613	-0.046617
	H341	H	-0.086197	-0.050181	-0.036783
	O342	O	0.613679	0.430344	0.538083
	H343	H	0.613378	0.426035	0.525403
	H344	H	0.605694	0.428547	0.546928
	O345	O	-0.030424	0.983763	0.886807
	H346	H	-0.028196	0.992553	0.885638
	H347	H	-0.037062	0.985164	0.879663
	O348	O	1.072524	-0.020745	0.094101
	H349	H	1.064071	-0.018512	0.086446
	H350	H	1.065190	-0.020141	0.091880
	O351	O	0.604822	0.555550	0.461998
	H352	H	0.606331	0.551061	0.463138
	H353	H	0.601273	0.554974	0.460801
	O354	O	-0.028828	0.963931	-0.037188
	H355	H	-0.033099	0.970963	-0.044927
	H356	H	-0.025702	0.961305	-0.034578
	O357	O	0.447513	-0.610472	0.364868
	H358	H	0.444183	-0.614870	0.361987
	H359	H	0.439814	-0.605615	0.375994
	O360	O	1.599014	0.546675	0.451970
	H361	H	1.601368	0.555168	0.456025
	H362	H	1.598986	0.564379	0.463529
	O363	O	0.442395	0.505767	0.539465
	H364	H	0.449063	0.500821	0.540777
	H365	H	0.449119	0.502090	0.539283
	O366	O	0.363796	0.600337	0.447840
	H367	H	0.372059	0.598690	0.445587
	H368	H	0.359788	0.602944	0.446846
	O369	O	0.909123	0.187849	-0.129530
	H370	H	0.905016	0.177509	-0.116300
	H371	H	0.893958	0.204025	-0.130036
	O372	O	0.570427	0.591712	0.467145
	H373	H	0.571422	0.594040	0.467164
	H374	H	0.573864	0.593779	0.469291
	O375	O	0.742062	0.232556	0.688497
	H376	H	0.750248	0.231457	0.676310
	H377	H	0.746911	0.255940	0.681344
	O378	O	-0.003483	0.933819	0.016085
	H379	H	-0.001662	0.928781	0.023306
	H380	H	-0.005025	0.932362	0.017221
	O381	O	0.343551	0.338591	0.610338
	H382	H	0.348802	0.331413	0.632841
	H383	H	0.327646	0.334837	0.616123
	O384	O	1.087525	1.034859	-0.012311
	H385	H	1.088263	1.040432	-0.010355
	H386	H	1.077329	1.021463	-0.011837
	O387	O	0.425425	-0.552740	0.505971
	H388	H	0.422319	-0.539318	0.509482
	H389	H	0.421172	-0.554487	0.499957
	O390	O	0.986294	0.955985	0.060862
	H391	H	0.988592	0.958409	0.056829
	H392	H	0.989790	0.960592	0.068971
	O393	O	0.544681	0.529878	0.365510
	H394	H	0.536160	0.527616	0.364498
	H395	H	0.547859	0.535466	0.354920
