data_Molecule from HDF5

_cell_length_a		16.398244
_cell_length_b		16.300857
_cell_length_c		16.284062
_cell_angle_alpha	89.875085
_cell_angle_beta	90.083985
_cell_angle_gamma	90.013281
_symmetry_space_group_name_H-M	'P 1'
_symmetry_Int_Tables_number		1

loop_
	_symmetry_equiv_pos_as_xyz
	x,y,z

loop_
	_atom_site_label
	_atom_site_type_symbol
	_atom_site_fract_x
	_atom_site_fract_y
	_atom_site_fract_z
	H0	H	0.413924	0.841371	0.716625
	H1	H	0.609568	0.168054	0.717327
	H2	H	0.610353	0.841630	0.288132
	H3	H	0.413816	0.168034	0.288240
	H4	H	0.726566	0.405838	0.840256
	H5	H	0.727575	0.603296	0.166434
	H6	H	0.295653	0.605001	0.839586
	H7	H	0.295153	0.402840	0.165954
	H8	H	0.848527	0.721184	0.402212
	H9	H	0.173049	0.720632	0.601846
	H10	H	0.848467	0.289202	0.602348
	H11	H	0.172969	0.289563	0.404522
	H12	H	0.848712	0.406630	0.718240
	H13	H	0.173338	0.604520	0.718366
	H14	H	0.848498	0.603657	0.287371
	H15	H	0.173828	0.406982	0.289611
	H16	H	0.414191	0.717771	0.839195
	H17	H	0.609958	0.718789	0.166173
	H18	H	0.609523	0.290845	0.839767
	H19	H	0.412921	0.288946	0.166606
	H20	H	0.727382	0.842081	0.403853
	H21	H	0.725741	0.168301	0.601354
	H22	H	0.296092	0.842542	0.603161
	H23	H	0.296107	0.167744	0.402216
	H24	H	0.914422	0.340833	0.217188
	H25	H	0.109265	0.668418	0.216861
	H26	H	0.109490	0.341600	0.789289
	H27	H	0.913449	0.668296	0.789327
	H28	H	0.227498	0.904940	0.339806
	H29	H	0.228038	0.104931	0.665125
	H30	H	0.794950	0.106440	0.340568
	H31	H	0.796672	0.905255	0.665841
	H32	H	0.349195	0.220689	0.902495
	H33	H	0.673498	0.219348	0.101989
	H34	H	0.348991	0.788323	0.101657
	H35	H	0.673710	0.790088	0.904332
	H36	H	0.348599	0.905515	0.217870
	H37	H	0.673075	0.104960	0.219736
	H38	H	0.349547	0.103241	0.786593
	H39	H	0.673881	0.907019	0.789367
	H40	H	0.913738	0.218473	0.339590
	H41	H	0.109076	0.217955	0.666807
	H42	H	0.109318	0.790635	0.338937
	H43	H	0.913168	0.790133	0.666173
	H44	H	0.225856	0.341959	0.905172
	H45	H	0.227986	0.667366	0.103063
	H46	H	0.795347	0.341595	0.104865
	H47	H	0.795115	0.666668	0.902844
	H48	H	0.418051	0.121606	0.595298
	H49	H	0.600845	0.889284	0.597451
	H50	H	0.605213	0.120967	0.411178
	H51	H	0.420194	0.888083	0.406461
	H52	H	0.595515	0.402498	0.120033
	H53	H	0.606683	0.605831	0.883740
	H54	H	0.419934	0.587852	0.116711
	H55	H	0.427250	0.403942	0.887097
	H56	H	0.125407	0.600757	0.413841
	H57	H	0.890379	0.605604	0.602310
	H58	H	0.125662	0.409282	0.593256
	H59	H	0.895131	0.414884	0.406911
	H60	H	0.124567	0.415582	0.595063
	H61	H	0.897404	0.600435	0.585765
	H62	H	0.125042	0.593841	0.410209
	H63	H	0.894756	0.407937	0.409444
	H64	H	0.426128	0.600981	0.118577
	H65	H	0.611474	0.588340	0.887039
	H66	H	0.616858	0.408859	0.124054
	H67	H	0.406732	0.410388	0.883751
	H68	H	0.603564	0.120468	0.409427
	H69	H	0.605895	0.889106	0.591438
	H70	H	0.419870	0.121581	0.594931
	H71	H	0.420746	0.890589	0.414969
	H72	H	0.918953	0.621515	0.098398
	H73	H	0.099700	0.392464	0.088287
	H74	H	0.093667	0.617229	0.913185
	H75	H	0.921284	0.391967	0.918477
	H76	H	0.101575	0.912617	0.616945
	H77	H	0.103097	0.099435	0.386170
	H78	H	0.915838	0.092832	0.618299
	H79	H	0.918543	0.916878	0.388315
	H80	H	0.629087	0.099457	0.903292
	H81	H	0.398218	0.095054	0.089085
	H82	H	0.626751	0.919402	0.102875
	H83	H	0.394580	0.912381	0.904384
	H84	H	0.629632	0.902196	0.096877
	H85	H	0.396104	0.091682	0.099185
	H86	H	0.627091	0.102612	0.914616
	H87	H	0.394560	0.905935	0.910298
	H88	H	0.922645	0.098691	0.618878
	H89	H	0.106262	0.096896	0.386351
	H90	H	0.104595	0.908676	0.619356
	H91	H	0.921855	0.912365	0.387550
	H92	H	0.112694	0.620723	0.919038
	H93	H	0.114625	0.386084	0.095665
	H94	H	0.922915	0.618211	0.092349
	H95	H	0.910768	0.386019	0.910789
	H96	H	0.418228	0.120566	0.593107
	H97	H	0.608400	0.887064	0.598571
	H98	H	0.603180	0.120710	0.411684
	H99	H	0.413554	0.887863	0.411476
	H100	H	0.601712	0.424083	0.115324
	H101	H	0.594299	0.593963	0.890731
	H102	H	0.411285	0.599182	0.121996
	H103	H	0.421378	0.424511	0.892051
	H104	H	0.127275	0.600217	0.406787
	H105	H	0.898130	0.588317	0.600290
	H106	H	0.126897	0.411498	0.599466
	H107	H	0.896867	0.412903	0.413569
	H108	H	0.915171	0.620008	0.091532
	H109	H	0.100127	0.387144	0.106304
	H110	H	0.107500	0.625526	0.900518
	H111	H	0.923865	0.388007	0.904583
	H112	H	0.106907	0.913915	0.618945
	H113	H	0.102990	0.096003	0.388047
	H114	H	0.914126	0.101094	0.621747
	H115	H	0.916318	0.912737	0.385166
	H116	H	0.624278	0.091559	0.910840
	H117	H	0.394451	0.101865	0.096313
	H118	H	0.621496	0.914741	0.085474
	H119	H	0.397063	0.914147	0.912633
	C120	C	0.390508	0.013285	0.623548
	C121	C	0.633220	0.996449	0.624576
	C122	C	0.632937	0.013035	0.381736
	C123	C	0.389754	0.996567	0.381617
	C124	C	0.632845	0.383122	0.011776
	C125	C	0.633410	0.625580	0.994597
	C126	C	0.390182	0.625143	0.011124
	C127	C	0.389836	0.383296	0.995304
	C128	C	0.018869	0.627190	0.380770
	C129	C	1.002719	0.626909	0.624610
	C130	C	0.018865	0.383199	0.625075
	C131	C	1.002640	0.383226	0.381599
	C132	C	0.890485	0.512486	0.124089
	C133	C	0.133726	0.496482	0.125337
	C134	C	0.132877	0.513447	0.881994
	C135	C	0.889908	0.496263	0.881950
	C136	C	0.132948	0.883200	0.510565
	C137	C	0.132569	0.126119	0.494699
	C138	C	0.889259	0.126268	0.511572
	C139	C	0.890112	0.884188	0.494705
	C140	C	0.519726	0.126745	0.880487
	C141	C	0.503398	0.125563	0.124345
	C142	C	0.519118	0.882470	0.124617
	C143	C	0.502690	0.882481	0.880876
	C144	C	0.393219	0.890405	0.679051
	C145	C	0.630050	0.119385	0.679486
	C146	C	0.630610	0.890309	0.326280
	C147	C	0.392688	0.119261	0.325906
	C148	C	0.688602	0.385300	0.889027
	C149	C	0.689235	0.623710	0.117537
	C150	C	0.334133	0.624264	0.888395
	C151	C	0.333946	0.383926	0.117567
	C152	C	0.897085	0.683164	0.382128
	C153	C	0.124742	0.682437	0.621982
	C154	C	0.896926	0.327459	0.622796
	C155	C	0.124433	0.327378	0.383808
	C156	C	0.896988	0.385705	0.680445
	C157	C	0.124717	0.625081	0.680349
	C158	C	0.897010	0.624592	0.325165
	C159	C	0.125064	0.385998	0.326936
	C160	C	0.392850	0.680441	0.888046
	C161	C	0.631154	0.681128	0.117474
	C162	C	0.629957	0.328605	0.888549
	C163	C	0.392267	0.326975	0.117808
	C164	C	0.688652	0.890539	0.383682
	C165	C	0.687922	0.119455	0.622069
	C166	C	0.334668	0.890966	0.622531
	C167	C	0.334356	0.119080	0.382553
	C168	C	0.893308	0.389798	0.180025
	C169	C	0.130433	0.619661	0.179515
	C170	C	0.130177	0.390616	0.826670
	C171	C	0.892350	0.619251	0.826737
	C172	C	0.188902	0.885082	0.388324
	C173	C	0.189046	0.124759	0.616833
	C174	C	0.833535	0.125653	0.389005
	C175	C	0.834823	0.885325	0.617319
	C176	C	0.397466	0.182339	0.882537
	C177	C	0.625136	0.181194	0.122177
	C178	C	0.397367	0.826491	0.122396
	C179	C	0.625055	0.827629	0.883562
	C180	C	0.397253	0.884496	0.180247
	C181	C	0.624757	0.124570	0.180942
	C182	C	0.397549	0.124286	0.824810
	C183	C	0.625309	0.886073	0.826631
	C184	C	0.892159	0.181655	0.388537
	C185	C	0.130076	0.180927	0.617679
	C186	C	0.130294	0.828302	0.387836
	C187	C	0.892591	0.828197	0.617393
	C188	C	0.187838	0.390692	0.884332
	C189	C	0.189313	0.619021	0.122902
	C190	C	0.834530	0.389827	0.123773
	C191	C	0.833530	0.618359	0.882960
	C192	C	0.412416	0.099128	0.601166
	C193	C	0.611402	0.910700	0.602380
	C194	C	0.610719	0.098738	0.404270
	C195	C	0.411742	0.910924	0.404338
	C196	C	0.611011	0.405205	0.097630
	C197	C	0.610828	0.602650	0.909012
	C198	C	0.412588	0.602599	0.096899
	C199	C	0.412053	0.406137	0.909780
	C200	C	0.103887	0.604891	0.403499
	C201	C	0.917246	0.604696	0.602539
	C202	C	0.103734	0.405570	0.602621
	C203	C	0.917447	0.405530	0.403633
	C204	C	0.912546	0.597786	0.100937
	C205	C	0.111313	0.410809	0.103339
	C206	C	0.111078	0.599052	0.904308
	C207	C	0.912226	0.410878	0.904601
	C208	C	0.110992	0.905446	0.596247
	C209	C	0.110437	0.103956	0.408913
	C210	C	0.911153	0.103916	0.597427
	C211	C	0.912526	0.907275	0.409242
	C212	C	0.604645	0.104504	0.902902
	C213	C	0.418123	0.102805	0.101539
	C214	C	0.604093	0.905430	0.101772
	C215	C	0.417524	0.904317	0.902753
	Zn216	Zn	0.511363	0.004536	0.752478
	Zn217	Zn	0.511156	0.004551	0.253574
	Zn218	Zn	0.761469	0.503907	0.003274
	Zn219	Zn	0.261376	0.504672	0.003248
	Zn220	Zn	0.010759	0.755393	0.502309
	Zn221	Zn	0.010677	0.253924	0.503234
	Zn222	Zn	0.011234	0.505290	0.753684
	Zn223	Zn	0.011348	0.505122	0.252897
	Zn224	Zn	0.511340	0.753577	0.002729
	Zn225	Zn	0.511231	0.254714	0.003184
	Zn226	Zn	0.761626	0.005101	0.502866
	Zn227	Zn	0.261281	0.004889	0.502749
	N228	N	0.427573	0.967491	0.679409
	N229	N	0.596956	0.041931	0.681258
	N230	N	0.596790	0.967532	0.324797
	N231	N	0.426407	0.042224	0.325288
	N232	N	0.690281	0.418651	0.966494
	N233	N	0.690824	0.590124	0.040100
	N234	N	0.332308	0.590493	0.965976
	N235	N	0.332344	0.418280	0.040377
	N236	N	0.973886	0.684698	0.416186
	N237	N	0.047769	0.683605	0.588122
	N238	N	0.973809	0.325679	0.589243
	N239	N	0.047483	0.325691	0.417248
	N240	N	0.973795	0.419451	0.682194
	N241	N	0.047945	0.590998	0.681817
	N242	N	0.973768	0.590673	0.324135
	N243	N	0.048313	0.420076	0.325362
	N244	N	0.426962	0.681164	0.965237
	N245	N	0.597148	0.682344	0.040219
	N246	N	0.596379	0.326832	0.965947
	N247	N	0.426473	0.326558	0.040790
	N248	N	0.690279	0.968000	0.417215
	N249	N	0.690144	0.041958	0.588688
	N250	N	0.332870	0.968284	0.588644
	N251	N	0.332343	0.041660	0.416478
	N252	N	0.927405	0.466938	0.180267
	N253	N	0.096729	0.542378	0.181198
	N254	N	0.096573	0.467955	0.825243
	N255	N	0.926702	0.542326	0.825997
	N256	N	0.190694	0.918447	0.465810
	N257	N	0.190702	0.091492	0.539449
	N258	N	0.831470	0.092153	0.466496
	N259	N	0.833142	0.919408	0.540038
	N260	N	0.474425	0.183972	0.916544
	N261	N	0.548514	0.181728	0.087590
	N262	N	0.474260	0.825139	0.088526
	N263	N	0.548104	0.825405	0.916879
	N264	N	0.474095	0.918529	0.181644
	N265	N	0.548079	0.090495	0.182009
	N266	N	0.474344	0.090608	0.823491
	N267	N	0.548351	0.919555	0.824787
	N268	N	0.926452	0.181939	0.465669
	N269	N	0.095844	0.182136	0.540496
	N270	N	0.096150	0.826998	0.464775
	N271	N	0.926237	0.827365	0.540085
	N272	N	0.189701	0.467940	0.917794
	N273	N	0.191436	0.541309	0.090225
	N274	N	0.832738	0.466982	0.089487
	N275	N	0.832061	0.540899	0.916836
	O276	O	0.490758	0.550993	0.508990
	H277	H	0.498881	0.545227	0.506701
	H278	H	0.491884	0.548136	0.503909
	O279	O	-0.077092	0.000419	-0.004900
	H280	H	-0.078543	-0.003289	0.001597
	H281	H	-0.076737	-0.000773	0.008363
	O282	O	0.461579	0.513137	0.504139
	H283	H	0.459513	0.507388	0.500408
	H284	H	0.454085	0.512635	0.501245
	O285	O	0.409431	0.473662	0.461373
	H286	H	0.396580	0.474796	0.463371
	H287	H	0.407870	0.474361	0.460767
	O288	O	0.947127	-0.010024	-0.003385
	H289	H	0.945243	-0.007491	-0.013668
	H290	H	0.938073	-0.014642	-0.008267
	O291	O	-0.594314	0.536346	-0.482651
	H292	H	-0.589808	0.540134	-0.476995
	H293	H	-0.592401	0.542659	-0.480436
	O294	O	0.447899	0.530828	0.507564
	H295	H	0.444450	0.521944	0.508318
	H296	H	0.451323	0.525474	0.506493
	O297	O	-0.094589	0.973149	-0.006550
	H298	H	-0.097417	0.960210	-0.013968
	H299	H	-0.100629	0.971531	-0.009063
	O300	O	0.903762	-0.015137	1.041216
	H301	H	0.891345	-0.007446	1.040228
	H302	H	0.915537	-0.015632	1.045444
	O303	O	0.398238	0.503516	0.506901
	H304	H	0.397691	0.498346	0.518910
	H305	H	0.394798	0.511015	0.505962
	O306	O	-0.083266	1.003724	1.011949
	H307	H	-0.085062	1.012167	1.005135
	H308	H	-0.079585	1.000698	1.018046
	O309	O	0.437388	0.598847	0.458606
	H310	H	0.437310	0.604454	0.447596
	H311	H	0.425484	0.608507	0.460575
