data_Molecule from HDF5

_cell_length_a		16.284415
_cell_length_b		16.355762
_cell_length_c		16.354738
_cell_angle_alpha	89.924762
_cell_angle_beta	89.842491
_cell_angle_gamma	90.217651
_symmetry_space_group_name_H-M	'P 1'
_symmetry_Int_Tables_number		1

loop_
	_symmetry_equiv_pos_as_xyz
	x,y,z

loop_
	_atom_site_label
	_atom_site_type_symbol
	_atom_site_fract_x
	_atom_site_fract_y
	_atom_site_fract_z
	H0	H	0.395668	0.839520	0.719888
	H1	H	0.603394	0.161428	0.718458
	H2	H	0.604907	0.839327	0.282159
	H3	H	0.401783	0.162094	0.281747
	H4	H	0.720654	0.397508	0.839371
	H5	H	0.716340	0.597690	0.163228
	H6	H	0.283527	0.601507	0.839594
	H7	H	0.284963	0.398385	0.162963
	H8	H	0.837850	0.717628	0.399695
	H9	H	0.163636	0.718275	0.600275
	H10	H	0.839261	0.282033	0.603655
	H11	H	0.164007	0.283833	0.397458
	H12	H	0.839379	0.398527	0.718829
	H13	H	0.163191	0.603940	0.718058
	H14	H	0.838470	0.602496	0.282965
	H15	H	0.163386	0.401832	0.282938
	H16	H	0.399963	0.716961	0.839049
	H17	H	0.602382	0.715467	0.162490
	H18	H	0.603692	0.282709	0.838503
	H19	H	0.399141	0.280546	0.161637
	H20	H	0.719346	0.839104	0.398987
	H21	H	0.718874	0.162512	0.601518
	H22	H	0.282952	0.838901	0.601047
	H23	H	0.286592	0.163189	0.399230
	H24	H	0.898720	0.338145	0.219909
	H25	H	0.102337	0.662674	0.216212
	H26	H	0.104957	0.339192	0.780969
	H27	H	0.898636	0.660522	0.782456
	H28	H	0.217994	0.901461	0.337888
	H29	H	0.218905	0.102169	0.662389
	H30	H	0.785290	0.103362	0.338348
	H31	H	0.782577	0.899211	0.661975
	H32	H	0.339680	0.217331	0.897690
	H33	H	0.663769	0.217878	0.100583
	H34	H	0.339726	0.780965	0.102127
	H35	H	0.664731	0.783538	0.898376
	H36	H	0.339564	0.897954	0.218006
	H37	H	0.665259	0.099781	0.215249
	H38	H	0.338568	0.100500	0.784043
	H39	H	0.662508	0.898249	0.780604
	H40	H	0.901118	0.219109	0.339305
	H41	H	0.103353	0.217606	0.662191
	H42	H	0.102514	0.783568	0.338826
	H43	H	0.897596	0.782363	0.662032
	H44	H	0.218370	0.338071	0.899646
	H45	H	0.221046	0.660869	0.102544
	H46	H	0.784169	0.337089	0.102511
	H47	H	0.784859	0.660781	0.901194
	H48	H	0.406500	0.116514	0.589697
	H49	H	0.600703	0.883800	0.589032
	H50	H	0.594800	0.115751	0.407866
	H51	H	0.405796	0.884190	0.404225
	H52	H	0.580949	0.409524	0.111593
	H53	H	0.593039	0.593154	0.885748
	H54	H	0.421139	0.588467	0.111201
	H55	H	0.412719	0.402451	0.884418
	H56	H	0.118103	0.598535	0.407256
	H57	H	0.883371	0.591560	0.599554
	H58	H	0.117272	0.409651	0.594853
	H59	H	0.885574	0.404154	0.412042
	H60	H	0.116039	0.406926	0.588779
	H61	H	0.885508	0.597501	0.586593
	H62	H	0.113890	0.591699	0.412952
	H63	H	0.888966	0.411800	0.414856
	H64	H	0.407740	0.599842	0.119287
	H65	H	0.595912	0.589040	0.885169
	H66	H	0.594961	0.397768	0.118640
	H67	H	0.404374	0.409098	0.883942
	H68	H	0.591881	0.115606	0.406273
	H69	H	0.587796	0.884455	0.599495
	H70	H	0.410913	0.116541	0.598511
	H71	H	0.415599	0.887893	0.407455
	H72	H	0.913896	0.615385	0.099218
	H73	H	0.087724	0.385562	0.095584
	H74	H	0.090815	0.613336	0.912342
	H75	H	0.913113	0.387742	0.916185
	H76	H	0.090578	0.907223	0.615745
	H77	H	0.096121	0.105349	0.381097
	H78	H	0.902151	0.086778	0.615712
	H79	H	0.914390	0.904320	0.385797
	H80	H	0.617966	0.096268	0.906961
	H81	H	0.385011	0.086484	0.099752
	H82	H	0.620620	0.903171	0.097404
	H83	H	0.386862	0.908030	0.912810
	H84	H	0.616798	0.904607	0.083993
	H85	H	0.385210	0.098096	0.088491
	H86	H	0.614331	0.090122	0.914942
	H87	H	0.386886	0.909564	0.907500
	H88	H	0.917444	0.088365	0.611643
	H89	H	0.103594	0.084092	0.385543
	H90	H	0.095285	0.911847	0.615690
	H91	H	0.904875	0.910363	0.384020
	H92	H	0.095817	0.615054	0.909674
	H93	H	0.090013	0.387266	0.088103
	H94	H	0.911423	0.612097	0.085975
	H95	H	0.905675	0.383319	0.908442
	H96	H	0.414826	0.112932	0.590522
	H97	H	0.585895	0.890186	0.583699
	H98	H	0.592733	0.114251	0.409457
	H99	H	0.407959	0.886319	0.414382
	H100	H	0.599040	0.416040	0.114470
	H101	H	0.590757	0.589105	0.886924
	H102	H	0.403534	0.581910	0.114828
	H103	H	0.413558	0.412422	0.888462
	H104	H	0.116315	0.589827	0.403817
	H105	H	0.889886	0.583863	0.589301
	H106	H	0.115534	0.413355	0.590036
	H107	H	0.885739	0.411128	0.406799
	H108	H	0.901814	0.616833	0.093499
	H109	H	0.094915	0.384077	0.093412
	H110	H	0.091027	0.614281	0.906488
	H111	H	0.916415	0.384873	0.905578
	H112	H	0.089454	0.913202	0.612818
	H113	H	0.082478	0.089640	0.390152
	H114	H	0.909661	0.100159	0.618124
	H115	H	0.913953	0.915413	0.388539
	H116	H	0.616023	0.086422	0.905549
	H117	H	0.390649	0.083493	0.084706
	H118	H	0.615229	0.915231	0.093127
	H119	H	0.384831	0.904388	0.908750
	C120	C	0.379492	0.008625	0.622341
	C121	C	0.622586	0.992484	0.621708
	C122	C	0.623373	0.008688	0.378381
	C123	C	0.380428	0.992773	0.378385
	C124	C	0.623149	0.377468	0.008605
	C125	C	0.623163	0.620477	0.992568
	C126	C	0.380142	0.620831	0.008970
	C127	C	0.379550	0.377292	0.992312
	C128	C	0.008797	0.623043	0.378670
	C129	C	0.993055	0.622027	0.621743
	C130	C	0.009739	0.378734	0.622224
	C131	C	0.993701	0.379833	0.380023
	C132	C	0.878907	0.507754	0.123223
	C133	C	0.122422	0.491909	0.122464
	C134	C	0.123382	0.507959	0.878806
	C135	C	0.880378	0.491266	0.879696
	C136	C	0.122124	0.880463	0.508012
	C137	C	0.124129	0.122794	0.492249
	C138	C	0.879971	0.122533	0.508612
	C139	C	0.879477	0.879428	0.492485
	C140	C	0.509003	0.120613	0.879274
	C141	C	0.493816	0.120264	0.120927
	C142	C	0.510478	0.877518	0.122111
	C143	C	0.493164	0.877472	0.878500
	C144	C	0.377855	0.887428	0.680099
	C145	C	0.622938	0.113223	0.679980
	C146	C	0.623645	0.887400	0.321376
	C147	C	0.381941	0.113960	0.320728
	C148	C	0.681460	0.378019	0.887601
	C149	C	0.678883	0.618353	0.114503
	C150	C	0.322695	0.620838	0.887614
	C151	C	0.322879	0.378324	0.114181
	C152	C	0.886744	0.679437	0.379525
	C153	C	0.114904	0.679663	0.620614
	C154	C	0.887998	0.320913	0.622674
	C155	C	0.115487	0.322998	0.379089
	C156	C	0.887772	0.379235	0.679868
	C157	C	0.114816	0.622609	0.678986
	C158	C	0.886844	0.621972	0.321632
	C159	C	0.115394	0.381467	0.321997
	C160	C	0.380480	0.678363	0.887595
	C161	C	0.622297	0.677056	0.114096
	C162	C	0.623260	0.320814	0.887114
	C163	C	0.379806	0.319838	0.113486
	C164	C	0.681086	0.887699	0.379355
	C165	C	0.680083	0.113978	0.621207
	C166	C	0.321602	0.887188	0.621069
	C167	C	0.324724	0.114707	0.379518
	C168	C	0.879131	0.386415	0.181086
	C169	C	0.122493	0.613778	0.178649
	C170	C	0.123867	0.387411	0.820224
	C171	C	0.879866	0.612555	0.821880
	C172	C	0.179228	0.881470	0.386326
	C173	C	0.180820	0.122030	0.613775
	C174	C	0.823359	0.122696	0.386914
	C175	C	0.821291	0.879674	0.613630
	C176	C	0.387654	0.178132	0.879197
	C177	C	0.615802	0.178311	0.120164
	C178	C	0.388208	0.820175	0.121742
	C179	C	0.615456	0.821075	0.878391
	C180	C	0.388229	0.878114	0.179360
	C181	C	0.616427	0.119712	0.176959
	C182	C	0.387437	0.120243	0.822312
	C183	C	0.614513	0.878295	0.819872
	C184	C	0.880991	0.180335	0.387442
	C185	C	0.123288	0.179565	0.613767
	C186	C	0.121769	0.822865	0.386894
	C187	C	0.878584	0.821487	0.613737
	C188	C	0.179988	0.386442	0.879768
	C189	C	0.181182	0.613015	0.121725
	C190	C	0.822009	0.386045	0.122777
	C191	C	0.823109	0.612517	0.880749
	C192	C	0.403592	0.093355	0.599392
	C193	C	0.598319	0.908047	0.597716
	C194	C	0.599820	0.093333	0.401182
	C195	C	0.403120	0.907998	0.401856
	C196	C	0.598769	0.400780	0.093025
	C197	C	0.599625	0.597378	0.907784
	C198	C	0.403858	0.596933	0.093251
	C199	C	0.403310	0.401054	0.907695
	C200	C	0.094003	0.600056	0.401450
	C201	C	0.908245	0.598008	0.598482
	C202	C	0.094508	0.402851	0.598164
	C203	C	0.908927	0.402624	0.404108
	C204	C	0.902420	0.592657	0.099873
	C205	C	0.098107	0.407691	0.099161
	C206	C	0.099534	0.592416	0.902816
	C207	C	0.904800	0.407020	0.903272
	C208	C	0.098617	0.903958	0.592791
	C209	C	0.100887	0.099769	0.407557
	C210	C	0.902915	0.098768	0.593132
	C211	C	0.904069	0.903235	0.408079
	C212	C	0.594105	0.097453	0.902493
	C213	C	0.409021	0.096380	0.097718
	C214	C	0.595349	0.900766	0.098544
	C215	C	0.408288	0.900464	0.902645
	Zn216	Zn	0.500742	0.000014	0.750577
	Zn217	Zn	0.502361	-0.000229	0.249634
	Zn218	Zn	0.751643	0.498669	0.000898
	Zn219	Zn	0.251723	0.498979	0.001156
	Zn220	Zn	0.000468	0.751134	0.500548
	Zn221	Zn	0.001981	0.250290	0.500777
	Zn222	Zn	0.001484	0.500486	0.750528
	Zn223	Zn	0.000634	0.500940	0.251022
	Zn224	Zn	0.502025	0.749122	0.000424
	Zn225	Zn	0.501270	0.249191	-0.000302
	Zn226	Zn	0.751863	0.001518	0.500143
	Zn227	Zn	0.251890	0.001399	0.500360
	N228	N	0.413173	0.963731	0.680891
	N229	N	0.587890	0.036627	0.680175
	N230	N	0.588685	0.963701	0.320509
	N231	N	0.415876	0.037158	0.319957
	N232	N	0.681478	0.412354	0.964267
	N233	N	0.679618	0.583925	0.037806
	N234	N	0.322294	0.585684	0.964153
	N235	N	0.322323	0.412936	0.037582
	N236	N	0.963513	0.680174	0.414231
	N237	N	0.038170	0.679477	0.585881
	N238	N	0.964932	0.320380	0.587799
	N239	N	0.038850	0.321884	0.414516
	N240	N	0.964587	0.414485	0.679732
	N241	N	0.038026	0.587420	0.679837
	N242	N	0.963851	0.587724	0.320769
	N243	N	0.038661	0.415955	0.322438
	N244	N	0.415308	0.678695	0.964100
	N245	N	0.588521	0.678551	0.037165
	N246	N	0.587473	0.320472	0.963325
	N247	N	0.414129	0.318930	0.036698
	N248	N	0.680788	0.964169	0.414328
	N249	N	0.680168	0.037811	0.585945
	N250	N	0.322568	0.963575	0.585782
	N251	N	0.323830	0.038309	0.414647
	N252	N	0.913739	0.463328	0.181555
	N253	N	0.086574	0.537617	0.179192
	N254	N	0.089425	0.464153	0.819651
	N255	N	0.914781	0.536183	0.821094
	N256	N	0.179613	0.916441	0.462708
	N257	N	0.181521	0.087629	0.537176
	N258	N	0.822556	0.087484	0.463347
	N259	N	0.821547	0.914702	0.537091
	N260	N	0.464492	0.178605	0.913852
	N261	N	0.538576	0.179050	0.086196
	N262	N	0.465072	0.819587	0.086983
	N263	N	0.538882	0.820499	0.914170
	N264	N	0.465224	0.912993	0.179712
	N265	N	0.539634	0.084578	0.177721
	N266	N	0.463858	0.085026	0.822496
	N267	N	0.537578	0.912548	0.819911
	N268	N	0.915530	0.180161	0.463979
	N269	N	0.088599	0.180030	0.537245
	N270	N	0.087325	0.821957	0.463755
	N271	N	0.914183	0.821441	0.537489
	N272	N	0.179826	0.462517	0.915367
	N273	N	0.181329	0.536390	0.087521
	N274	N	0.821789	0.462457	0.087709
	N275	N	0.823389	0.536103	0.915892
	O276	O	0.093903	0.011179	0.130658
	H277	H	0.096278	0.028588	0.135565
	H278	H	0.102920	0.011652	0.145748
	O279	O	0.553312	0.591183	0.565894
	H280	H	0.561657	0.585893	0.581560
	H281	H	0.550202	0.595392	0.565802
	O282	O	1.470074	0.572845	0.601535
	H283	H	1.468505	0.579052	0.603210
	H284	H	1.469126	0.571765	0.600315
	O285	O	-0.046671	0.990152	0.017355
	H286	H	-0.047065	1.004970	0.030225
	H287	H	-0.049510	1.000705	0.003021
	O288	O	0.529856	0.457048	0.485762
	H289	H	0.530989	0.450678	0.491723
	H290	H	0.520732	0.458691	0.475069
	O291	O	0.482806	0.529122	0.430567
	H292	H	0.478389	0.523926	0.435118
	H293	H	0.494900	0.539612	0.422465
	O294	O	0.895220	0.972333	1.115618
	H295	H	0.892541	0.955283	1.123961
	H296	H	0.879553	0.972677	1.113640
	O297	O	0.044699	-0.107877	-0.096099
	H298	H	0.037308	-0.097363	-0.089002
	H299	H	0.052640	-0.125906	-0.095625
	O300	O	0.333330	0.415996	0.619361
	H301	H	0.328079	0.407767	0.625655
	H302	H	0.344357	0.404825	0.622126
	O303	O	-0.026210	0.979300	1.022926
	H304	H	-0.018620	0.982498	1.024966
	H305	H	-0.024049	0.966050	1.015362
	O306	O	0.467350	0.583745	0.515740
	H307	H	0.483050	0.589987	0.509106
	H308	H	0.469599	0.583817	0.522666
	O309	O	0.946820	0.027228	-0.005594
	H310	H	0.941854	0.023475	-0.011229
	H311	H	0.952751	0.020968	-0.006514
	O312	O	-0.102728	-0.038613	0.908303
	H313	H	-0.097926	-0.033527	0.905575
	H314	H	-0.105710	-0.036304	0.898273
	O315	O	0.562174	0.412422	0.460931
	H316	H	0.566688	0.408844	0.452505
	H317	H	0.555818	0.412699	0.448277
	O318	O	0.501748	0.548897	0.568650
	H319	H	0.508716	0.546134	0.582389
	H320	H	0.498200	0.555162	0.561777
	O321	O	0.384074	0.400203	0.621429
	H322	H	0.385360	0.387806	0.620873
	H323	H	0.389753	0.404673	0.617256
	O324	O	0.599097	0.553089	0.535167
	H325	H	0.607146	0.555378	0.531799
	H326	H	0.593421	0.546790	0.519583
	O327	O	0.163410	1.109154	1.062105
	H328	H	0.155122	1.101061	1.060001
	H329	H	0.162634	1.117121	1.061236
	O330	O	0.527035	0.382851	0.428271
	H331	H	0.526582	0.374040	0.418079
	H332	H	0.520008	0.384815	0.430112
	O333	O	-0.036405	0.949200	0.899137
	H334	H	-0.044733	0.956360	0.896552
	H335	H	-0.024680	0.935844	0.899024
	O336	O	0.955202	0.964721	1.047161
	H337	H	0.959991	0.965013	1.046327
	H338	H	0.953176	0.956328	1.049197
	O339	O	0.422253	0.504956	0.470778
	H340	H	0.414915	0.512961	0.478574
	H341	H	0.427572	0.503407	0.469041
	O342	O	0.871523	-0.038093	-0.101384
	H343	H	0.889286	-0.052907	-0.096781
	H344	H	0.868180	-0.028266	-0.111043
	O345	O	0.451960	0.510085	0.365574
	H346	H	0.442035	0.499509	0.372414
	H347	H	0.451740	0.518647	0.358466
	O348	O	1.105961	0.952102	0.973527
	H349	H	1.111106	0.956824	0.973802
	H350	H	1.104885	0.969652	0.980234
	O351	O	1.081580	0.971075	-0.067504
	H352	H	1.088734	0.958695	-0.055835
	H353	H	1.088313	0.972844	-0.075564
	O354	O	0.465026	0.601174	0.513137
	H355	H	0.451108	0.599849	0.526035
	H356	H	0.462215	0.607402	0.505765
	O357	O	-0.037698	-0.103851	0.129997
	H358	H	-0.041525	-0.109918	0.124095
	H359	H	-0.031802	-0.107305	0.131024
	O360	O	0.129218	0.003697	0.001840
	H361	H	0.128960	0.002778	0.017170
	H362	H	0.135141	0.000639	0.001017
	O363	O	0.575250	0.403633	0.443312
	H364	H	0.575442	0.410309	0.445002
	H365	H	0.587547	0.408850	0.430800
	O366	O	0.058866	0.098810	-0.081978
	H367	H	0.061195	0.102774	-0.088511
	H368	H	0.057080	0.098331	-0.078968
	O369	O	0.392778	0.462734	0.482437
	H370	H	0.392964	0.453788	0.492095
	H371	H	0.380041	0.468685	0.496280
	O372	O	0.475262	0.530410	0.456479
	H373	H	0.487191	0.527556	0.461531
	H374	H	0.467421	0.532660	0.459383
	O375	O	0.466931	0.538929	0.528515
	H376	H	0.474640	0.552482	0.534853
	H377	H	0.473294	0.530926	0.528651
	O378	O	0.555732	0.536975	0.598123
	H379	H	0.549867	0.540237	0.603281
	H380	H	0.550705	0.525823	0.594694
	O381	O	0.542287	0.497952	0.350043
	H382	H	0.553226	0.503347	0.352840
	H383	H	0.522660	0.506568	0.348053
	O384	O	-0.061233	1.013878	-0.079156
	H385	H	-0.062834	1.012878	-0.084399
	H386	H	-0.067075	1.014995	-0.085718
	O387	O	1.036902	0.006198	0.917548
	H388	H	1.044568	-0.002274	0.917190
	H389	H	1.036228	0.007918	0.924588
	O390	O	0.029472	1.036251	-0.042149
	H391	H	0.028909	1.030669	-0.046598
	H392	H	0.020856	1.039511	-0.050088
	O393	O	0.949270	1.056739	0.050024
	H394	H	0.946605	1.065654	0.044182
	H395	H	0.950904	1.055098	0.046217
	O396	O	0.597540	0.617959	0.548381
	H397	H	0.592740	0.631279	0.538098
	H398	H	0.601504	0.620017	0.548277
	O399	O	0.100183	0.965503	1.071843
	H400	H	0.094738	0.961803	1.083324
	H401	H	0.102963	0.969460	1.071185
	O402	O	0.899998	1.112260	1.048593
	H403	H	0.895004	1.111247	1.051375
	H404	H	0.889680	1.112922	1.036626
	O405	O	0.623664	0.463316	0.511225
	H406	H	0.635216	0.478454	0.495298
	H407	H	0.615665	0.457653	0.512384
