data_Molecule from HDF5

_cell_length_a		16.710070
_cell_length_b		16.631778
_cell_length_c		16.562517
_cell_angle_alpha	89.989715
_cell_angle_beta	89.866425
_cell_angle_gamma	89.774724
_symmetry_space_group_name_H-M	'P 1'
_symmetry_Int_Tables_number		1

loop_
	_symmetry_equiv_pos_as_xyz
	x,y,z

loop_
	_atom_site_label
	_atom_site_type_symbol
	_atom_site_fract_x
	_atom_site_fract_y
	_atom_site_fract_z
	H0	H	0.395483	0.847565	0.719186
	H1	H	0.602303	0.160993	0.716991
	H2	H	0.602743	0.848240	0.277704
	H3	H	0.394194	0.160865	0.278608
	H4	H	0.720458	0.399113	0.840422
	H5	H	0.715873	0.605321	0.155855
	H6	H	0.279509	0.608904	0.840639
	H7	H	0.278286	0.399230	0.153000
	H8	H	0.846703	0.730517	0.388091
	H9	H	0.150850	0.728960	0.606643
	H10	H	0.846274	0.279077	0.608632
	H11	H	0.153666	0.281548	0.392812
	H12	H	0.844708	0.397283	0.723348
	H13	H	0.149777	0.614099	0.724369
	H14	H	0.845170	0.610376	0.275125
	H15	H	0.153049	0.397155	0.274745
	H16	H	0.397420	0.722225	0.839365
	H17	H	0.599356	0.720725	0.156019
	H18	H	0.603015	0.285472	0.839478
	H19	H	0.394919	0.284261	0.153235
	H20	H	0.722069	0.850535	0.390931
	H21	H	0.718731	0.160966	0.601226
	H22	H	0.276388	0.849740	0.606883
	H23	H	0.276786	0.159852	0.394207
	H24	H	0.895946	0.347893	0.217891
	H25	H	0.104471	0.657997	0.220401
	H26	H	0.106397	0.349613	0.774284
	H27	H	0.894560	0.659452	0.777090
	H28	H	0.222872	0.897234	0.343187
	H29	H	0.220736	0.109933	0.654884
	H30	H	0.778877	0.111036	0.341752
	H31	H	0.777235	0.899158	0.652021
	H32	H	0.343470	0.224629	0.894055
	H33	H	0.654867	0.223718	0.100882
	H34	H	0.341233	0.787119	0.099860
	H35	H	0.656140	0.783861	0.894081
	H36	H	0.341490	0.904084	0.215570
	H37	H	0.654059	0.107373	0.217372
	H38	H	0.342495	0.105035	0.779664
	H39	H	0.656227	0.901283	0.778264
	H40	H	0.894732	0.225475	0.342085
	H41	H	0.104629	0.225565	0.654909
	H42	H	0.107788	0.781487	0.342821
	H43	H	0.894064	0.783334	0.652397
	H44	H	0.223648	0.350321	0.889580
	H45	H	0.220955	0.658407	0.105238
	H46	H	0.778713	0.347805	0.102675
	H47	H	0.776904	0.659068	0.892690
	H48	H	0.405410	0.114039	0.580420
	H49	H	0.583694	0.893675	0.590934
	H50	H	0.590315	0.114691	0.413932
	H51	H	0.410961	0.893798	0.410834
	H52	H	0.590954	0.410291	0.110508
	H53	H	0.589101	0.596942	0.883824
	H54	H	0.407904	0.597888	0.111139
	H55	H	0.415943	0.412646	0.885640
	H56	H	0.104247	0.583219	0.414192
	H57	H	0.887601	0.594051	0.585254
	H58	H	0.108960	0.417551	0.586587
	H59	H	0.888018	0.416804	0.406503
	H60	H	0.108382	0.414102	0.585158
	H61	H	0.889297	0.591839	0.581366
	H62	H	0.113262	0.592053	0.398453
	H63	H	0.886976	0.412174	0.408588
	H64	H	0.404753	0.592899	0.110509
	H65	H	0.591692	0.591247	0.885533
	H66	H	0.591294	0.417471	0.109114
	H67	H	0.405952	0.413392	0.882821
	H68	H	0.591581	0.118482	0.404819
	H69	H	0.588207	0.895790	0.578493
	H70	H	0.406297	0.117477	0.593277
	H71	H	0.406682	0.891713	0.408160
	H72	H	0.910722	0.613177	0.084706
	H73	H	0.089748	0.393827	0.082068
	H74	H	0.088096	0.617078	0.906032
	H75	H	0.902534	0.389559	0.911158
	H76	H	0.091068	0.913813	0.611607
	H77	H	0.084913	0.089146	0.390768
	H78	H	0.911042	0.086735	0.607224
	H79	H	0.912615	0.915784	0.386288
	H80	H	0.609528	0.089162	0.903934
	H81	H	0.388200	0.096256	0.083783
	H82	H	0.610380	0.912067	0.086841
	H83	H	0.388693	0.915400	0.905209
	H84	H	0.610460	0.912576	0.089091
	H85	H	0.388480	0.092389	0.087967
	H86	H	0.612717	0.098931	0.904236
	H87	H	0.387070	0.909701	0.906677
	H88	H	0.912785	0.096831	0.610672
	H89	H	0.087001	0.097515	0.385392
	H90	H	0.087937	0.920723	0.608145
	H91	H	0.910292	0.918238	0.385889
	H92	H	0.082042	0.612305	0.911742
	H93	H	0.091267	0.390714	0.087049
	H94	H	0.904509	0.615742	0.084892
	H95	H	0.914405	0.391603	0.902332
	H96	H	0.416756	0.112684	0.586889
	H97	H	0.596091	0.890375	0.587776
	H98	H	0.583589	0.114436	0.407070
	H99	H	0.411307	0.892478	0.406154
	H100	H	0.584828	0.413847	0.107721
	H101	H	0.585711	0.592853	0.887316
	H102	H	0.410345	0.593370	0.108443
	H103	H	0.410237	0.421933	0.886519
	H104	H	0.110314	0.601838	0.415498
	H105	H	0.889832	0.589995	0.585624
	H106	H	0.107018	0.416970	0.583907
	H107	H	0.889805	0.415382	0.411587
	H108	H	0.908877	0.616360	0.090318
	H109	H	0.085959	0.393790	0.086470
	H110	H	0.090782	0.614080	0.915105
	H111	H	0.914343	0.396404	0.916612
	H112	H	0.083401	0.913580	0.608428
	H113	H	0.094006	0.090171	0.386348
	H114	H	0.903396	0.092237	0.611776
	H115	H	0.913460	0.919085	0.387227
	H116	H	0.609291	0.094458	0.913147
	H117	H	0.385980	0.097186	0.088680
	H118	H	0.611079	0.910549	0.088630
	H119	H	0.389300	0.913329	0.910909
	C120	C	0.377977	0.012065	0.619487
	C121	C	0.620525	0.996372	0.617966
	C122	C	0.620413	0.012942	0.375971
	C123	C	0.377776	0.996234	0.377361
	C124	C	0.620242	0.382684	0.005009
	C125	C	0.619404	0.624300	0.989722
	C126	C	0.377300	0.625672	0.005915
	C127	C	0.378784	0.384013	0.988604
	C128	C	0.007783	0.625774	0.375824
	C129	C	0.990073	0.625343	0.618342
	C130	C	0.006973	0.382976	0.619521
	C131	C	0.990451	0.382043	0.376431
	C132	C	0.877018	0.512091	0.118954
	C133	C	0.120971	0.495028	0.118814
	C134	C	0.120299	0.512415	0.876802
	C135	C	0.877774	0.495366	0.877305
	C136	C	0.121010	0.882833	0.506580
	C137	C	0.120420	0.124628	0.490678
	C138	C	0.877778	0.125297	0.506700
	C139	C	0.878897	0.884460	0.488816
	C140	C	0.507208	0.125536	0.875702
	C141	C	0.490346	0.126439	0.118773
	C142	C	0.506754	0.882557	0.118861
	C143	C	0.491668	0.882225	0.876060
	C144	C	0.376749	0.894762	0.679341
	C145	C	0.621280	0.113969	0.677337
	C146	C	0.621922	0.895455	0.316886
	C147	C	0.375729	0.113916	0.318376
	C148	C	0.680029	0.381022	0.887315
	C149	C	0.676623	0.624221	0.108435
	C150	C	0.319795	0.626441	0.887244
	C151	C	0.318867	0.381554	0.106131
	C152	C	0.892253	0.688321	0.371492
	C153	C	0.104951	0.687577	0.623525
	C154	C	0.891628	0.320842	0.624766
	C155	C	0.107163	0.321810	0.374191
	C156	C	0.891143	0.379363	0.681995
	C157	C	0.104365	0.630435	0.682076
	C158	C	0.891402	0.628779	0.315402
	C159	C	0.106880	0.379225	0.315613
	C160	C	0.377955	0.683214	0.886917
	C161	C	0.618597	0.681586	0.108600
	C162	C	0.621722	0.324460	0.886703
	C163	C	0.376965	0.324308	0.106258
	C164	C	0.681159	0.896518	0.373010
	C165	C	0.679167	0.113996	0.619807
	C166	C	0.317695	0.895551	0.623280
	C167	C	0.317591	0.113373	0.376014
	C168	C	0.876566	0.394675	0.178363
	C169	C	0.122688	0.611550	0.179886
	C170	C	0.123975	0.396023	0.815244
	C171	C	0.875895	0.612733	0.817285
	C172	C	0.182587	0.879196	0.390002
	C173	C	0.180548	0.127569	0.608008
	C174	C	0.818647	0.128729	0.388818
	C175	C	0.817579	0.880901	0.605424
	C176	C	0.389792	0.184366	0.875216
	C177	C	0.607797	0.184396	0.119668
	C178	C	0.388545	0.826109	0.118927
	C179	C	0.609203	0.823713	0.875434
	C180	C	0.388631	0.884173	0.176537
	C181	C	0.607465	0.126667	0.177768
	C182	C	0.389459	0.125149	0.818419
	C183	C	0.609274	0.881823	0.817653
	C184	C	0.876462	0.185527	0.389219
	C185	C	0.122913	0.185374	0.607911
	C186	C	0.125113	0.821854	0.389767
	C187	C	0.875660	0.823528	0.605618
	C188	C	0.182335	0.396284	0.872390
	C189	C	0.180790	0.611748	0.122677
	C190	C	0.818400	0.394674	0.121220
	C191	C	0.817398	0.612501	0.874447
	C192	C	0.402568	0.093576	0.594020
	C193	C	0.596386	0.914578	0.592733
	C194	C	0.595496	0.094801	0.401365
	C195	C	0.402575	0.913843	0.401581
	C196	C	0.595822	0.406835	0.087401
	C197	C	0.595651	0.600409	0.907076
	C198	C	0.400808	0.601742	0.088533
	C199	C	0.403547	0.408897	0.906473
	C200	C	0.088494	0.599795	0.401799
	C201	C	0.909636	0.599158	0.591597
	C202	C	0.087137	0.408864	0.592768
	C203	C	0.909326	0.407547	0.401886
	C204	C	0.901007	0.593861	0.093833
	C205	C	0.096110	0.413769	0.092683
	C206	C	0.094417	0.593431	0.903405
	C207	C	0.903155	0.413820	0.902644
	C208	C	0.094906	0.908656	0.588213
	C209	C	0.095525	0.099358	0.408891
	C210	C	0.902200	0.099465	0.588624
	C211	C	0.904803	0.910443	0.407666
	C212	C	0.588999	0.101260	0.900177
	C213	C	0.408902	0.102041	0.094060
	C214	C	0.589055	0.905284	0.095017
	C215	C	0.409600	0.905990	0.900402
	Zn216	Zn	0.499639	0.003577	0.747068
	Zn217	Zn	0.498548	0.004421	0.247834
	Zn218	Zn	0.748357	0.502982	-0.001821
	Zn219	Zn	0.249444	0.504682	-0.002967
	Zn220	Zn	-0.000844	0.754953	0.497090
	Zn221	Zn	-0.000948	0.253102	0.498687
	Zn222	Zn	-0.001168	0.504034	0.748278
	Zn223	Zn	-0.001317	0.503587	0.247210
	Zn224	Zn	0.498682	0.753562	-0.002343
	Zn225	Zn	0.499527	0.254609	-0.003379
	Zn226	Zn	0.749457	0.005218	0.496809
	Zn227	Zn	0.249172	0.003351	0.498974
	N228	N	0.413554	0.968356	0.677243
	N229	N	0.585485	0.039855	0.676319
	N230	N	0.584907	0.969085	0.318515
	N231	N	0.412381	0.039868	0.319107
	N232	N	0.679518	0.416466	0.962040
	N233	N	0.677403	0.589382	0.033244
	N234	N	0.318961	0.591580	0.962423
	N235	N	0.319793	0.417904	0.031837
	N236	N	0.965582	0.686614	0.408455
	N237	N	0.032670	0.684586	0.584500
	N238	N	0.964643	0.322855	0.586417
	N239	N	0.033592	0.323354	0.411310
	N240	N	0.963724	0.417339	0.678864
	N241	N	0.031826	0.592191	0.678833
	N242	N	0.964385	0.590765	0.317650
	N243	N	0.033208	0.415878	0.316775
	N244	N	0.413029	0.683022	0.961758
	N245	N	0.583868	0.681971	0.033570
	N246	N	0.585170	0.325439	0.960850
	N247	N	0.413609	0.325592	0.031979
	N248	N	0.680501	0.970776	0.409026
	N249	N	0.679262	0.039643	0.583750
	N250	N	0.318162	0.969543	0.586834
	N251	N	0.318647	0.038900	0.411967
	N252	N	0.912510	0.468672	0.177032
	N253	N	0.086082	0.537885	0.177667
	N254	N	0.086157	0.469308	0.817735
	N255	N	0.912341	0.538749	0.818749
	N256	N	0.180240	0.916367	0.463935
	N257	N	0.179389	0.090733	0.533907
	N258	N	0.819270	0.091852	0.463066
	N259	N	0.819039	0.917814	0.531518
	N260	N	0.464361	0.185016	0.909677
	N261	N	0.533778	0.184759	0.083978
	N262	N	0.463133	0.824556	0.084049
	N263	N	0.534834	0.823409	0.910661
	N264	N	0.463358	0.918249	0.177079
	N265	N	0.533319	0.091501	0.177547
	N266	N	0.463628	0.089602	0.818269
	N267	N	0.535011	0.917384	0.817874
	N268	N	0.912290	0.183931	0.463689
	N269	N	0.086457	0.184005	0.533779
	N270	N	0.087462	0.823816	0.463502
	N271	N	0.913130	0.825617	0.532037
	N272	N	0.180322	0.469888	0.909814
	N273	N	0.180184	0.538035	0.085431
	N274	N	0.818440	0.468719	0.085137
	N275	N	0.818080	0.538239	0.910958
	O276	O	0.033263	1.217030	0.214568
	H277	H	0.038298	1.220777	0.192764
	H278	H	0.038460	1.238234	0.233087
	O279	O	0.723932	0.472870	0.277081
	H280	H	0.731859	0.447609	0.262374
	H281	H	0.732531	0.446943	0.265075
	O282	O	0.800105	0.076984	1.201241
	H283	H	0.796142	0.077696	1.210786
	H284	H	0.798895	0.067560	1.212934
	O285	O	0.579984	0.530554	0.326320
	H286	H	0.597609	0.517410	0.321896
	H287	H	0.584786	0.542427	0.332328
	O288	O	0.559673	0.455161	0.711645
	H289	H	0.586521	0.471437	0.718999
	H290	H	0.561380	0.444874	0.703464
	O291	O	0.443883	0.695498	0.605092
	H292	H	0.448670	0.700446	0.623681
	H293	H	0.436159	0.689946	0.612291
	O294	O	0.976106	-0.216903	1.215930
	H295	H	0.967610	-0.239366	1.235395
	H296	H	0.962773	-0.202341	1.224049
	O297	O	0.293485	0.712530	0.290307
	H298	H	0.308605	0.689398	0.290734
	H299	H	0.262094	0.740142	0.267036
	O300	O	0.295686	0.301503	0.699985
	H301	H	0.300295	0.289114	0.672213
	H302	H	0.294197	0.293794	0.709384
	O303	O	0.460030	0.733198	0.279320
	H304	H	0.462104	0.770156	0.246790
	H305	H	0.439045	0.721165	0.293121
	O306	O	0.547127	0.445265	0.442494
	H307	H	0.547059	0.445197	0.428552
	H308	H	0.531618	0.443866	0.449646
	O309	O	0.424563	0.488945	0.656579
	H310	H	0.435452	0.479353	0.666190
	H311	H	0.414347	0.487191	0.660349
	O312	O	0.443199	0.632239	0.448767
	H313	H	0.445313	0.638660	0.465089
	H314	H	0.432362	0.635045	0.445688
	O315	O	0.781306	1.083405	0.780509
	H316	H	0.796040	1.065157	0.785518
	H317	H	0.758569	1.090301	0.752616
	O318	O	0.364975	0.305426	0.360153
	H319	H	0.381113	0.312640	0.365537
	H320	H	0.363486	0.327382	0.378084
	O321	O	0.303154	0.692839	0.685800
	H322	H	0.312111	0.676647	0.671927
	H323	H	0.303982	0.696667	0.689455
	O324	O	1.206242	1.068205	-0.075180
	H325	H	1.186946	1.071206	-0.070870
	H326	H	1.207474	1.073329	-0.065667
	O327	O	-0.201677	0.212970	0.828550
	H328	H	-0.212296	0.213535	0.808627
	H329	H	-0.199117	0.199776	0.818691
	O330	O	1.038169	0.062475	0.781512
	H331	H	1.047232	0.062846	0.789129
	H332	H	1.045303	0.074559	0.774049
	O333	O	0.729790	0.533656	0.721544
	H334	H	0.741507	0.556596	0.737153
	H335	H	0.740266	0.562837	0.734000
	O336	O	0.460653	0.278364	0.722287
	H337	H	0.452817	0.295196	0.719596
	H338	H	0.461897	0.250805	0.756741
	O339	O	1.193315	-0.023773	0.853711
	H340	H	1.190421	-0.035262	0.859974
	H341	H	1.206536	-0.032935	0.849504
	O342	O	0.218239	-0.222502	-0.037360
	H343	H	0.241225	-0.242245	-0.048542
	H344	H	0.220493	-0.224468	-0.071855
	O345	O	0.062374	1.117513	0.909263
	H346	H	0.063106	1.119716	0.908753
	H347	H	0.064869	1.140878	0.910688
	O348	O	0.154808	0.013689	-0.190533
	H349	H	0.164576	0.007231	-0.173177
	H350	H	0.167213	0.016408	-0.193531
	O351	O	0.665229	0.328306	0.666111
	H352	H	0.661936	0.347967	0.642989
	H353	H	0.642138	0.334152	0.652897
	O354	O	-0.057627	-0.220040	0.929025
	H355	H	-0.060214	-0.226702	0.957525
	H356	H	-0.063315	-0.214027	0.956079
	O357	O	0.721449	0.720616	0.529387
	H358	H	0.723290	0.728391	0.522920
	H359	H	0.716768	0.724150	0.517219
	O360	O	0.273560	0.478946	0.710393
	H361	H	0.283892	0.471918	0.720882
	H362	H	0.258635	0.451854	0.729491
	O363	O	-0.076263	-0.021923	-0.001411
	H364	H	-0.070124	-0.020955	0.006001
	H365	H	-0.071583	-0.015922	-0.005026
	O366	O	0.276475	0.285303	0.535843
	H367	H	0.274003	0.312037	0.527417
	H368	H	0.248082	0.260346	0.532999
	O369	O	0.888313	0.211723	0.120689
	H370	H	0.875392	0.217722	0.124311
	H371	H	0.877884	0.193508	0.106176
	O372	O	0.791595	0.792224	0.202461
	H373	H	0.779595	0.782969	0.205731
	H374	H	0.788411	0.789868	0.223255
	O375	O	1.032359	-0.208209	-0.214424
	H376	H	1.013548	-0.214578	-0.196362
	H377	H	1.020784	-0.218051	-0.219631
	O378	O	0.712266	0.452012	0.577273
	H379	H	0.712232	0.473723	0.583047
	H380	H	0.719197	0.461370	0.582487
	O381	O	-0.149679	0.960390	1.141150
	H382	H	-0.140219	0.956220	1.139998
	H383	H	-0.167334	0.955350	1.152956
	O384	O	0.812561	-0.186437	0.804639
	H385	H	0.826113	-0.175470	0.836051
	H386	H	0.838415	-0.162813	0.810617
	O387	O	1.224310	1.026735	0.103205
	H388	H	1.220859	1.050173	0.098584
	H389	H	1.237670	1.013330	0.105334
	O390	O	0.708183	0.297368	0.293059
	H391	H	0.655552	0.291483	0.288503
	H392	H	0.719042	0.286820	0.329303
	O393	O	0.439451	0.353875	0.469595
	H394	H	0.442775	0.347604	0.485942
	H395	H	0.433357	0.361322	0.479293
	O396	O	0.017791	1.205114	1.014140
	H397	H	0.001879	1.209630	0.996330
	H398	H	0.018591	1.211941	1.031041
	O399	O	0.123327	-0.057071	1.072635
	H400	H	0.117005	-0.036901	1.083788
	H401	H	0.139781	-0.061621	1.053568
	O402	O	0.537425	0.284272	0.274972
	H403	H	0.516655	0.286817	0.264919
	H404	H	0.521380	0.265790	0.268473
	O405	O	1.153710	0.049640	1.174148
	H406	H	1.157378	0.054093	1.166671
	H407	H	1.168403	0.053054	1.165148
	O408	O	0.096674	0.126033	-0.015692
	H409	H	0.081917	0.136822	-0.012221
	H410	H	0.085431	0.126950	-0.010335
	O411	O	0.712639	0.714170	0.706883
	H412	H	0.738678	0.742804	0.720999
	H413	H	0.716248	0.728457	0.679495
	O414	O	0.549891	0.593351	0.623650
	H415	H	0.562667	0.600049	0.626214
	H416	H	0.554251	0.602476	0.634698
	O417	O	0.724073	0.294523	0.467494
	H418	H	0.717302	0.320198	0.479590
	H419	H	0.750464	0.270618	0.472026
	O420	O	0.463524	0.493935	0.451229
	H421	H	0.459962	0.503437	0.459897
	H422	H	0.462870	0.495187	0.461981
	O423	O	-0.215350	-0.068895	0.947149
	H424	H	-0.216006	-0.062029	0.966401
	H425	H	-0.213103	-0.071453	0.954808
	O426	O	0.734300	0.563943	0.444278
	H427	H	0.733303	0.558401	0.431448
	H428	H	0.733727	0.556523	0.438906
	O429	O	1.183073	0.814347	1.183845
	H430	H	1.175082	0.827757	1.150813
	H431	H	1.156596	0.837232	1.183473
	O432	O	0.255518	0.561092	0.550272
	H433	H	0.258006	0.573572	0.552552
	H434	H	0.253257	0.559357	0.576260
	O435	O	0.206257	0.797505	-0.208352
	H436	H	0.181917	0.820646	-0.210539
	H437	H	0.198160	0.779794	-0.226668
	O438	O	-0.055881	0.040345	0.223098
	H439	H	-0.048398	0.058675	0.219250
	H440	H	-0.060849	0.038669	0.221716
	O441	O	0.218902	0.217233	0.087617
	H442	H	0.229004	0.233811	0.086444
	H443	H	0.229539	0.235944	0.116908
	O444	O	0.488203	0.383604	0.398656
	H445	H	0.496208	0.394706	0.406441
	H446	H	0.479040	0.388133	0.411890
	O447	O	-0.120399	1.209077	0.911472
	H448	H	-0.130595	1.219923	0.887478
	H449	H	-0.136608	1.208669	0.914796
	O450	O	0.035316	0.952314	1.227881
	H451	H	0.031043	0.964615	1.237458
	H452	H	0.047520	0.963893	1.226621
	O453	O	0.574397	0.630600	0.537891
	H454	H	0.551218	0.641457	0.534921
	H455	H	0.572703	0.625214	0.544166
	O456	O	-0.226391	0.054144	1.054763
	H457	H	-0.227351	0.079737	1.055124
	H458	H	-0.225807	0.049046	1.058263
	O459	O	0.692384	0.697110	0.311455
	H460	H	0.667534	0.677508	0.325930
	H461	H	0.682382	0.684241	0.339599
	O462	O	0.420972	0.493928	0.295528
	H463	H	0.416333	0.496032	0.293405
	H464	H	0.436019	0.511037	0.299723
	O465	O	0.779893	-0.218873	0.033319
	H466	H	0.766681	-0.221964	0.048258
	H467	H	0.767845	-0.222435	0.047554
	O468	O	0.281476	0.533774	0.284274
	H469	H	0.286117	0.529352	0.284948
	H470	H	0.272434	0.550590	0.269573
	O471	O	0.559235	0.711390	0.407439
	H472	H	0.549551	0.712275	0.425553
	H473	H	0.537205	0.718110	0.403560
	O474	O	0.277273	0.725823	0.477032
	H475	H	0.263366	0.735232	0.451348
	H476	H	0.259785	0.729221	0.466529
	O477	O	0.552116	0.292715	1.564627
	H478	H	0.551041	0.305067	1.565984
	H479	H	0.562218	0.297796	1.567190
	O480	O	0.238760	0.248080	0.234306
	H481	H	0.235705	0.257400	0.249857
	H482	H	0.248010	0.262152	0.261184
	O483	O	0.262974	0.441313	0.440591
	H484	H	0.260725	0.457565	0.446914
	H485	H	0.267425	0.454727	0.437087
	O486	O	0.854289	0.163226	0.948113
	H487	H	0.853686	0.155543	0.936406
	H488	H	0.849861	0.173357	0.950485
	O489	O	1.037060	0.769955	0.055566
	H490	H	1.067034	0.777882	0.054669
	H491	H	1.026053	0.773979	0.076544
	O492	O	0.028057	-0.008067	-0.051854
	H493	H	0.019148	-0.008383	-0.046113
	H494	H	0.030497	-0.005720	-0.056986
	O495	O	0.063247	1.210951	0.788854
	H496	H	0.052204	1.206343	0.814681
	H497	H	0.057777	1.214138	0.776408
	O498	O	0.886648	0.967127	0.781126
	H499	H	0.901898	0.961064	0.787238
	H500	H	0.889794	0.977197	0.787150
	O501	O	0.502745	0.687882	0.718366
	H502	H	0.502339	0.714740	0.748454
	H503	H	0.524084	0.669237	0.715049
