data_Molecule from HDF5

_cell_length_a		16.503470
_cell_length_b		16.408490
_cell_length_c		16.536428
_cell_angle_alpha	89.882113
_cell_angle_beta	90.087388
_cell_angle_gamma	90.051053
_symmetry_space_group_name_H-M	'P 1'
_symmetry_Int_Tables_number		1

loop_
	_symmetry_equiv_pos_as_xyz
	x,y,z

loop_
	_atom_site_label
	_atom_site_type_symbol
	_atom_site_fract_x
	_atom_site_fract_y
	_atom_site_fract_z
	H0	H	0.405793	0.840006	0.704810
	H1	H	0.618061	0.154673	0.704907
	H2	H	0.615913	0.841225	0.262269
	H3	H	0.400729	0.156017	0.257402
	H4	H	0.732898	0.392857	0.827470
	H5	H	0.735821	0.605232	0.140745
	H6	H	0.289057	0.605405	0.826716
	H7	H	0.288831	0.390878	0.140128
	H8	H	0.853548	0.720236	0.376095
	H9	H	0.168908	0.718200	0.586408
	H10	H	0.855392	0.276188	0.588827
	H11	H	0.168381	0.274856	0.375580
	H12	H	0.856353	0.390222	0.707773
	H13	H	0.167755	0.605311	0.706276
	H14	H	0.854874	0.606359	0.257819
	H15	H	0.168560	0.389021	0.258949
	H16	H	0.407267	0.720846	0.826323
	H17	H	0.617004	0.719399	0.142305
	H18	H	0.615113	0.277242	0.827000
	H19	H	0.403003	0.273253	0.139164
	H20	H	0.732834	0.841453	0.375772
	H21	H	0.733496	0.155501	0.588922
	H22	H	0.290831	0.839425	0.587095
	H23	H	0.285376	0.155575	0.373897
	H24	H	0.904204	0.340480	0.206587
	H25	H	0.119984	0.654172	0.206415
	H26	H	0.115943	0.341116	0.763369
	H27	H	0.903560	0.656146	0.760116
	H28	H	0.234823	0.890124	0.328126
	H29	H	0.236038	0.107540	0.639052
	H30	H	0.786274	0.108063	0.327089
	H31	H	0.789875	0.892224	0.639961
	H32	H	0.353927	0.218554	0.877745
	H33	H	0.668279	0.222855	0.091976
	H34	H	0.356429	0.775453	0.090037
	H35	H	0.669024	0.775803	0.877155
	H36	H	0.356316	0.890966	0.207301
	H37	H	0.666452	0.110178	0.210403
	H38	H	0.356095	0.105791	0.758047
	H39	H	0.668029	0.889603	0.759095
	H40	H	0.902833	0.224304	0.326579
	H41	H	0.117492	0.221768	0.640250
	H42	H	0.117331	0.775090	0.327634
	H43	H	0.904503	0.775189	0.638544
	H44	H	0.233893	0.341249	0.876964
	H45	H	0.234495	0.655272	0.088851
	H46	H	0.788161	0.339999	0.091028
	H47	H	0.787800	0.656393	0.876065
	H48	H	0.428517	0.110032	0.572654
	H49	H	0.605919	0.882710	0.569616
	H50	H	0.599222	0.112116	0.398142
	H51	H	0.426054	0.888453	0.394829
	H52	H	0.599891	0.405791	0.097536
	H53	H	0.603627	0.585494	0.871996
	H54	H	0.426109	0.588832	0.095057
	H55	H	0.420851	0.407352	0.869978
	H56	H	0.122460	0.583941	0.391543
	H57	H	0.899432	0.580843	0.571713
	H58	H	0.125194	0.410153	0.572274
	H59	H	0.904372	0.417425	0.399286
	H60	H	0.123645	0.412035	0.572812
	H61	H	0.895894	0.587568	0.577484
	H62	H	0.124004	0.589605	0.394288
	H63	H	0.899917	0.414257	0.388964
	H64	H	0.419298	0.587078	0.097248
	H65	H	0.597415	0.585216	0.873453
	H66	H	0.603159	0.413960	0.096452
	H67	H	0.420278	0.411740	0.871921
	H68	H	0.599706	0.111832	0.394807
	H69	H	0.599219	0.882652	0.577496
	H70	H	0.424045	0.109423	0.566784
	H71	H	0.423502	0.888355	0.398036
	H72	H	0.923074	0.610247	0.070207
	H73	H	0.103904	0.383536	0.070414
	H74	H	0.092283	0.611063	0.888030
	H75	H	0.925110	0.386066	0.893870
	H76	H	0.104332	0.907341	0.597965
	H77	H	0.093987	0.081654	0.374950
	H78	H	0.925686	0.091715	0.594561
	H79	H	0.925690	0.907347	0.370636
	H80	H	0.623837	0.087724	0.896247
	H81	H	0.401561	0.080914	0.071872
	H82	H	0.624910	0.908914	0.072503
	H83	H	0.401819	0.912069	0.897512
	H84	H	0.624495	0.911863	0.071961
	H85	H	0.398547	0.087668	0.072783
	H86	H	0.622936	0.083855	0.894068
	H87	H	0.399458	0.913307	0.890113
	H88	H	0.917879	0.085584	0.595314
	H89	H	0.095536	0.090285	0.372080
	H90	H	0.100097	0.913025	0.594932
	H91	H	0.918232	0.908768	0.368423
	H92	H	0.098589	0.608085	0.904673
	H93	H	0.097577	0.384740	0.073419
	H94	H	0.926815	0.609410	0.071456
	H95	H	0.922222	0.387349	0.898184
	H96	H	0.421247	0.112178	0.572831
	H97	H	0.596383	0.887385	0.567939
	H98	H	0.597045	0.111166	0.396091
	H99	H	0.422600	0.886568	0.394790
	H100	H	0.595010	0.411866	0.094009
	H101	H	0.599648	0.590671	0.871590
	H102	H	0.423545	0.581697	0.093696
	H103	H	0.424123	0.409426	0.872401
	H104	H	0.121296	0.584840	0.398133
	H105	H	0.898944	0.589942	0.568430
	H106	H	0.125365	0.410977	0.574542
	H107	H	0.899393	0.406730	0.397744
	H108	H	0.925296	0.608407	0.067521
	H109	H	0.098368	0.386488	0.067156
	H110	H	0.109228	0.616100	0.892454
	H111	H	0.920032	0.384715	0.893991
	H112	H	0.097434	0.906292	0.595668
	H113	H	0.102796	0.083984	0.372416
	H114	H	0.926387	0.082285	0.591614
	H115	H	0.922619	0.914635	0.372102
	H116	H	0.625362	0.086756	0.892330
	H117	H	0.401777	0.085860	0.066519
	H118	H	0.625466	0.911497	0.074224
	H119	H	0.398467	0.905600	0.893114
	C120	C	0.390948	0.006395	0.603799
	C121	C	0.633232	0.988686	0.604322
	C122	C	0.631617	0.007683	0.362955
	C123	C	0.389226	0.990927	0.361045
	C124	C	0.631737	0.377628	-0.007632
	C125	C	0.633771	0.620344	0.975827
	C126	C	0.390550	0.619588	-0.008106
	C127	C	0.388907	0.375868	0.974734
	C128	C	0.019411	0.620000	0.360542
	C129	C	1.001912	0.619599	0.605088
	C130	C	0.020804	0.377877	0.605136
	C131	C	1.004155	0.377953	0.361726
	C132	C	0.891101	0.505867	0.103993
	C133	C	0.133076	0.488958	0.103733
	C134	C	0.132705	0.507603	0.862514
	C135	C	0.889494	0.490480	0.862214
	C136	C	0.132488	0.876794	0.492343
	C137	C	0.132203	0.119717	0.475532
	C138	C	0.889326	0.120976	0.491094
	C139	C	0.889549	0.877018	0.473973
	C140	C	0.520360	0.118951	0.861343
	C141	C	0.503213	0.119973	0.105164
	C142	C	0.521212	0.877714	0.105386
	C143	C	0.503618	0.877008	0.861281
	C144	C	0.387922	0.887296	0.664267
	C145	C	0.635994	0.107665	0.664747
	C146	C	0.634363	0.888883	0.302052
	C147	C	0.383896	0.108714	0.298454
	C148	C	0.692456	0.374628	0.874416
	C149	C	0.694965	0.623293	0.093864
	C150	C	0.330059	0.623051	0.873702
	C151	C	0.328514	0.372786	0.092715
	C152	C	0.900972	0.680329	0.357817
	C153	C	0.121049	0.679460	0.606185
	C154	C	0.902467	0.316546	0.607329
	C155	C	0.121509	0.315563	0.358236
	C156	C	0.902887	0.373197	0.666506
	C157	C	0.120500	0.623215	0.665723
	C158	C	0.901991	0.623908	0.298450
	C159	C	0.121529	0.372954	0.300089
	C160	C	0.388534	0.680711	0.873581
	C161	C	0.635909	0.680119	0.094572
	C162	C	0.633827	0.317255	0.874137
	C163	C	0.385752	0.314349	0.092385
	C164	C	0.692474	0.888903	0.358886
	C165	C	0.693440	0.107890	0.607007
	C166	C	0.330324	0.887375	0.606233
	C167	C	0.326126	0.108290	0.356258
	C168	C	0.886710	0.387761	0.166108
	C169	C	0.137307	0.607217	0.165346
	C170	C	0.134738	0.388742	0.802743
	C171	C	0.886101	0.608952	0.800952
	C172	C	0.193784	0.873308	0.374933
	C173	C	0.194723	0.124479	0.592567
	C174	C	0.827300	0.125435	0.373855
	C175	C	0.829511	0.874169	0.592185
	C176	C	0.401718	0.179203	0.858947
	C177	C	0.620813	0.182511	0.109378
	C178	C	0.403307	0.816008	0.108164
	C179	C	0.621549	0.815732	0.858712
	C180	C	0.403351	0.873650	0.166408
	C181	C	0.620335	0.126165	0.168396
	C182	C	0.402687	0.122966	0.799457
	C183	C	0.620993	0.872471	0.799718
	C184	C	0.885322	0.183536	0.373833
	C185	C	0.135857	0.181487	0.593052
	C186	C	0.135129	0.815936	0.374599
	C187	C	0.886548	0.815733	0.591880
	C188	C	0.193551	0.388780	0.859242
	C189	C	0.194451	0.607798	0.107157
	C190	C	0.829006	0.387590	0.108225
	C191	C	0.828236	0.608801	0.858587
	C192	C	0.416992	0.089035	0.577995
	C193	C	0.607736	0.905942	0.578846
	C194	C	0.605911	0.090258	0.388823
	C195	C	0.416312	0.909261	0.388029
	C196	C	0.606603	0.403169	0.074538
	C197	C	0.607822	0.594608	0.893926
	C198	C	0.415849	0.593449	0.073928
	C199	C	0.414467	0.401898	0.892696
	C200	C	0.101257	0.593734	0.386951
	C201	C	0.919740	0.593859	0.579694
	C202	C	0.103131	0.403714	0.580287
	C203	C	0.922295	0.404912	0.387953
	C204	C	0.917679	0.588104	0.077498
	C205	C	0.107221	0.406369	0.077765
	C206	C	0.107346	0.590343	0.887933
	C207	C	0.915190	0.407665	0.887976
	C208	C	0.107601	0.901838	0.574586
	C209	C	0.105208	0.092889	0.394439
	C210	C	0.915753	0.094240	0.572576
	C211	C	0.915131	0.902817	0.391854
	C212	C	0.602654	0.093482	0.886989
	C213	C	0.421991	0.092630	0.078262
	C214	C	0.603290	0.903545	0.080101
	C215	C	0.421340	0.902948	0.886564
	Zn216	Zn	0.512158	-0.002007	0.732306
	Zn217	Zn	0.511644	-0.000253	0.233729
	Zn218	Zn	0.761839	0.498263	-0.015637
	Zn219	Zn	0.261339	0.497987	-0.016778
	Zn220	Zn	0.010017	0.747821	0.482913
	Zn221	Zn	0.011971	0.249659	0.482966
	Zn222	Zn	0.011350	0.498757	0.734067
	Zn223	Zn	0.012186	0.497911	0.232444
	Zn224	Zn	0.512359	0.749003	-0.016164
	Zn225	Zn	0.511290	0.247602	-0.016813
	Zn226	Zn	0.760987	-0.001915	0.482720
	Zn227	Zn	0.261216	-0.001013	0.483835
	N228	N	0.424623	0.962521	0.663082
	N229	N	0.599198	0.032507	0.663169
	N230	N	0.597401	0.963864	0.304217
	N231	N	0.422285	0.034653	0.301335
	N232	N	0.691422	0.411327	0.948995
	N233	N	0.694045	0.587060	0.018919
	N234	N	0.330935	0.586061	0.948277
	N235	N	0.330431	0.410406	0.018511
	N236	N	0.975027	0.678102	0.395747
	N237	N	0.046379	0.677289	0.569179
	N238	N	0.976720	0.319276	0.569954
	N239	N	0.047419	0.318695	0.395963
	N240	N	0.977438	0.410409	0.665429
	N241	N	0.045410	0.586948	0.665342
	N242	N	0.977040	0.587580	0.299592
	N243	N	0.047371	0.410829	0.302140
	N244	N	0.425616	0.678662	0.948077
	N245	N	0.598791	0.678461	0.020150
	N246	N	0.596969	0.318897	0.948563
	N247	N	0.422553	0.316061	0.017985
	N248	N	0.690770	0.963686	0.396061
	N249	N	0.691786	0.032989	0.570104
	N250	N	0.332129	0.962471	0.569363
	N251	N	0.329168	0.033965	0.394678
	N252	N	0.924576	0.462337	0.163557
	N253	N	0.100028	0.532320	0.163380
	N254	N	0.097558	0.463535	0.804638
	N255	N	0.923570	0.534210	0.803106
	N256	N	0.192451	0.910348	0.449248
	N257	N	0.192431	0.086794	0.518575
	N258	N	0.829617	0.087265	0.447729
	N259	N	0.831400	0.911673	0.517790
	N260	N	0.475919	0.176983	0.896690
	N261	N	0.547038	0.178784	0.070739
	N262	N	0.477574	0.818312	0.071034
	N263	N	0.547385	0.818298	0.896215
	N264	N	0.477608	0.911380	0.164793
	N265	N	0.546306	0.088075	0.165937
	N266	N	0.477417	0.086465	0.800823
	N267	N	0.546518	0.909768	0.801098
	N268	N	0.923518	0.180769	0.447810
	N269	N	0.097850	0.178847	0.519123
	N270	N	0.097765	0.817749	0.448705
	N271	N	0.923067	0.817297	0.517272
	N272	N	0.192331	0.463862	0.895791
	N273	N	0.191893	0.533194	0.069677
	N274	N	0.831700	0.462109	0.070212
	N275	N	0.830340	0.533996	0.895901
	O276	O	0.466329	0.484379	0.446126
	H277	H	0.460867	0.472413	0.428198
	H278	H	0.477615	0.460312	0.453208
	O279	O	0.873790	1.025029	1.017493
	H280	H	0.880271	1.045439	1.023869
	H281	H	0.866141	1.027684	1.024998
	O282	O	0.790984	0.981845	0.200840
	H283	H	0.765475	0.971614	0.225400
	H284	H	0.800747	0.950211	0.193514
	O285	O	-0.200895	-0.033479	0.965825
	H286	H	-0.206352	-0.014288	0.983594
	H287	H	-0.200141	-0.014429	0.959136
	O288	O	0.223599	0.019918	0.199636
	H289	H	0.205567	0.006460	0.212913
	H290	H	0.235791	0.028872	0.225231
	O291	O	0.796078	0.781632	0.014752
	H292	H	0.790285	0.787661	0.008192
	H293	H	0.783044	0.758937	0.002757
	O294	O	0.633687	0.608782	-0.329330
	H295	H	0.638498	0.573689	-0.322686
	H296	H	0.605604	0.599964	-0.324276
	O297	O	0.505205	0.592579	0.326457
	H298	H	0.513855	0.579066	0.325302
	H299	H	0.506959	0.600685	0.328656
	O300	O	0.479134	0.586790	0.635024
	H301	H	0.476820	0.601699	0.643271
	H302	H	0.474575	0.594525	0.629197
	O303	O	0.933079	-0.038948	-0.177507
	H304	H	0.934987	-0.025970	-0.154183
	H305	H	0.939959	-0.044921	-0.176090
	O306	O	0.195365	1.182630	1.164650
	H307	H	0.179947	1.184336	1.146121
	H308	H	0.193660	1.154035	1.164657
	O309	O	0.326035	0.475456	0.684028
	H310	H	0.330454	0.497686	0.653629
	H311	H	0.313148	0.473888	0.701153
	O312	O	0.611868	0.366685	0.646565
	H313	H	0.598248	0.363379	0.646229
	H314	H	0.600778	0.361713	0.648839
	O315	O	0.472541	-0.335910	1.272110
	H316	H	0.493096	-0.331649	1.259170
	H317	H	0.479666	-0.330342	1.269774
	O318	O	-0.983711	0.158401	-0.236522
	H319	H	-0.991467	0.170399	-0.253512
	H320	H	-0.987538	0.149538	-0.227070
	O321	O	0.790526	0.211758	0.956956
	H322	H	0.763750	0.237641	0.957890
	H323	H	0.797684	0.204025	0.924811
	O324	O	0.691171	0.321026	0.305118
	H325	H	0.663871	0.311136	0.314121
	H326	H	0.686990	0.318274	0.336970
	O327	O	0.800799	0.022788	0.772349
	H328	H	0.801132	0.017692	0.770463
	H329	H	0.792927	0.018315	0.762962
	O330	O	0.029811	0.053773	-0.199010
	H331	H	0.024337	0.044426	-0.190806
	H332	H	0.032009	0.044953	-0.191315
	O333	O	0.873567	1.193958	0.789278
	H334	H	0.871365	1.183117	0.785571
	H335	H	0.891078	1.190691	0.794441
	O336	O	1.192973	-0.185407	0.834224
	H337	H	1.173494	-0.171947	0.837193
	H338	H	1.215220	-0.208032	0.851855
	O339	O	0.298473	0.708852	0.452772
	H340	H	0.279238	0.724923	0.443600
	H341	H	0.291207	0.699899	0.438751
	O342	O	0.552870	0.704237	0.422973
	H343	H	0.562500	0.707404	0.436629
	H344	H	0.573515	0.710471	0.411627
	O345	O	-0.011181	0.170017	-0.010309
	H346	H	-0.023748	0.168413	0.011564
	H347	H	-0.023094	0.175756	-0.031242
	O348	O	0.721209	0.291104	0.463888
	H349	H	0.735209	0.273135	0.470655
	H350	H	0.723825	0.305382	0.483717
	O351	O	1.036238	1.208523	0.200544
	H352	H	1.040101	1.210108	0.210844
	H353	H	1.031946	1.220914	0.204760
	O354	O	0.563271	0.371528	0.598795
	H355	H	0.551322	0.377900	0.614240
	H356	H	0.547994	0.357091	0.595980
	O357	O	0.823693	0.820164	1.175915
	H358	H	0.809069	0.809059	1.145484
	H359	H	0.866303	0.809869	1.178134
	O360	O	-0.007508	0.783642	1.199318
	H361	H	0.002055	0.767190	1.184621
	H362	H	-0.009951	0.759760	1.202341
	O363	O	0.399282	0.711623	0.598111
	H364	H	0.395926	0.712203	0.569600
	H365	H	0.398133	0.692198	0.580487
	O366	O	1.118518	0.196785	0.876907
	H367	H	1.096713	0.195219	0.881181
	H368	H	1.111363	0.188902	0.887718
	O369	O	0.556918	0.312392	0.527221
	H370	H	0.555835	0.315911	0.512038
	H371	H	0.557132	0.310802	0.521176
	O372	O	0.231695	-0.026136	0.766703
	H373	H	0.255733	-0.042617	0.737945
	H374	H	0.215009	-0.048660	0.767598
	O375	O	0.071827	0.942799	1.207108
	H376	H	0.049655	0.925121	1.200851
	H377	H	0.057188	0.956497	1.209308
	O378	O	1.176791	0.952516	0.031082
	H379	H	1.174834	0.970688	0.022314
	H380	H	1.186113	0.968105	0.035320
	O381	O	1.369435	-0.630947	0.397164
	H382	H	1.365952	-0.628769	0.377312
	H383	H	1.367837	-0.623878	0.399039
	O384	O	-0.027671	0.019354	0.901357
	H385	H	-0.028702	0.031959	0.914691
	H386	H	-0.026412	0.031394	0.921864
	O387	O	-0.467074	1.281734	1.269817
	H388	H	-0.489329	1.304112	1.260267
	H389	H	-0.458446	1.261151	1.241237
	O390	O	0.719459	0.591036	1.688282
	H391	H	0.732902	0.585220	1.716108
	H392	H	0.691386	0.581944	1.691282
	O393	O	0.195970	0.814051	0.158922
	H394	H	0.179224	0.829029	0.145713
	H395	H	0.176182	0.830946	0.152014
	O396	O	0.711945	0.481933	0.520204
	H397	H	0.719278	0.505764	0.524757
	H398	H	0.705932	0.478415	0.524741
	O399	O	0.688638	0.593831	0.378480
	H400	H	0.686573	0.593151	0.380333
	H401	H	0.692325	0.603086	0.385888
	O402	O	0.237321	0.054841	0.926825
	H403	H	0.241946	0.044450	0.892174
	H404	H	0.231394	0.054491	0.931620
	O405	O	0.401109	0.490109	-0.546287
	H406	H	0.408393	0.481387	-0.569347
	H407	H	0.404242	0.500104	-0.549466
	O408	O	0.969460	1.040914	1.114872
	H409	H	0.956230	1.043789	1.105491
	H410	H	0.968020	1.057999	1.116930
	O411	O	0.531048	0.702598	0.688781
	H412	H	0.528040	0.700815	0.693260
	H413	H	0.521696	0.717183	0.673889
	O414	O	0.312104	0.668939	0.286214
	H415	H	0.303809	0.702595	0.261684
	H416	H	0.326109	0.661232	0.295050
	O417	O	0.721046	0.478942	0.270830
	H418	H	0.714380	0.439466	0.282154
	H419	H	0.742597	0.480716	0.258058
	O420	O	0.295425	0.285983	0.502222
	H421	H	0.284307	0.265067	0.507371
	H422	H	0.291503	0.293115	0.504835
	O423	O	-0.006068	0.991895	-0.094707
	H424	H	-0.010098	1.000349	-0.087430
	H425	H	0.006419	0.999888	-0.101773
	O426	O	1.226244	0.835554	0.985164
	H427	H	1.250890	0.802672	0.979876
	H428	H	1.229187	0.860707	1.015602
	O429	O	0.753078	0.353419	0.722946
	H430	H	0.762839	0.357944	0.720979
	H431	H	0.747507	0.360017	0.717949
	O432	O	0.036207	-0.219258	0.767671
	H433	H	0.060420	-0.217612	0.767688
	H434	H	0.029594	-0.235035	0.755394
	O435	O	0.335916	-0.380319	0.623073
	H436	H	0.343907	-0.399567	0.601502
	H437	H	0.353242	-0.385508	0.614500
	O438	O	0.932566	0.104022	0.122617
	H439	H	0.925791	0.107447	0.129809
	H440	H	0.948690	0.094219	0.126974
	O441	O	0.295728	0.516583	0.290286
	H442	H	0.298351	0.538540	0.291906
	H443	H	0.280082	0.521974	0.264568
	O444	O	0.034065	0.787610	1.033600
	H445	H	0.035645	0.789855	1.015387
	H446	H	0.028091	0.801793	1.016158
	O447	O	0.435919	0.300962	0.678732
	H448	H	0.406038	0.299791	0.671135
	H449	H	0.441343	0.279914	0.699189
	O450	O	0.473233	0.462673	0.342995
	H451	H	0.455510	0.468060	0.353742
	H452	H	0.483487	0.478564	0.340876
	O453	O	-0.024659	0.780915	-0.063853
	H454	H	-0.031112	0.773299	-0.083526
	H455	H	-0.021060	0.797510	-0.061086
	O456	O	0.217915	1.208681	0.003313
	H457	H	0.226656	1.206891	0.012673
	H458	H	0.232115	1.208128	-0.008385
	O459	O	0.537719	0.450289	0.439351
	H460	H	0.529947	0.441258	0.433309
	H461	H	0.555749	0.452816	0.425127
	O462	O	0.718967	0.708522	0.483957
	H463	H	0.725316	0.710375	0.518155
	H464	H	0.735411	0.717324	0.500001
	O465	O	0.334349	0.317646	0.681070
	H466	H	0.329507	0.349065	0.682884
	H467	H	0.315330	0.301396	0.672985
