data_Molecule from HDF5

_cell_length_a		16.297911
_cell_length_b		16.279148
_cell_length_c		16.030013
_cell_angle_alpha	90.537594
_cell_angle_beta	89.818433
_cell_angle_gamma	89.609967
_symmetry_space_group_name_H-M	'P 1'
_symmetry_Int_Tables_number		1

loop_
	_symmetry_equiv_pos_as_xyz
	x,y,z

loop_
	_atom_site_label
	_atom_site_type_symbol
	_atom_site_fract_x
	_atom_site_fract_y
	_atom_site_fract_z
	H0	H	0.411381	0.838467	0.702962
	H1	H	0.602509	0.167185	0.707002
	H2	H	0.605848	0.838183	0.276827
	H3	H	0.410262	0.167360	0.283750
	H4	H	0.722787	0.400776	0.828082
	H5	H	0.717889	0.603028	0.158733
	H6	H	0.289540	0.603608	0.829423
	H7	H	0.293533	0.405346	0.159038
	H8	H	0.844971	0.720279	0.393320
	H9	H	0.170673	0.718054	0.595367
	H10	H	0.844592	0.286841	0.595314
	H11	H	0.170958	0.284581	0.391283
	H12	H	0.841566	0.409770	0.704915
	H13	H	0.171094	0.598619	0.707323
	H14	H	0.842194	0.598577	0.283727
	H15	H	0.170628	0.402293	0.278568
	H16	H	0.407171	0.714727	0.826491
	H17	H	0.603726	0.717796	0.157624
	H18	H	0.607909	0.287208	0.827120
	H19	H	0.407456	0.290999	0.157505
	H20	H	0.725887	0.840073	0.388080
	H21	H	0.722343	0.165807	0.594854
	H22	H	0.292551	0.840180	0.592382
	H23	H	0.289503	0.164933	0.392689
	H24	H	0.909109	0.337725	0.206542
	H25	H	0.100850	0.666270	0.208715
	H26	H	0.105158	0.338937	0.779158
	H27	H	0.909508	0.668118	0.785015
	H28	H	0.221636	0.901253	0.327239
	H29	H	0.219226	0.101985	0.658655
	H30	H	0.794358	0.101316	0.326982
	H31	H	0.790199	0.902998	0.657083
	H32	H	0.343806	0.220586	0.891768
	H33	H	0.669877	0.219872	0.094073
	H34	H	0.343655	0.790105	0.092782
	H35	H	0.668384	0.783432	0.887642
	H36	H	0.343067	0.909305	0.204716
	H37	H	0.671359	0.100530	0.206187
	H38	H	0.341671	0.099563	0.781382
	H39	H	0.670144	0.902434	0.775938
	H40	H	0.909576	0.215288	0.327348
	H41	H	0.105289	0.216101	0.658571
	H42	H	0.109535	0.783961	0.329109
	H43	H	0.909876	0.794148	0.660621
	H44	H	0.224355	0.340503	0.890486
	H45	H	0.219756	0.665741	0.096672
	H46	H	0.788709	0.340067	0.095279
	H47	H	0.788600	0.665179	0.894137
	H48	H	0.409405	0.123816	0.594336
	H49	H	0.607712	0.885402	0.579833
	H50	H	0.600888	0.120710	0.397713
	H51	H	0.416564	0.884430	0.395553
	H52	H	0.586511	0.419843	0.105274
	H53	H	0.596548	0.588727	0.875820
	H54	H	0.414500	0.596390	0.111256
	H55	H	0.419318	0.400224	0.872328
	H56	H	0.124910	0.589023	0.395251
	H57	H	0.890313	0.600635	0.586185
	H58	H	0.125952	0.400308	0.587636
	H59	H	0.890474	0.412565	0.396919
	H60	H	0.120836	0.409556	0.578147
	H61	H	0.889286	0.597719	0.591385
	H62	H	0.126014	0.601611	0.402160
	H63	H	0.888788	0.401587	0.401875
	H64	H	0.413679	0.600569	0.112492
	H65	H	0.596318	0.597227	0.872470
	H66	H	0.595973	0.396740	0.115314
	H67	H	0.403346	0.413127	0.870261
	H68	H	0.597528	0.118126	0.403405
	H69	H	0.600481	0.884340	0.587639
	H70	H	0.420507	0.117500	0.584701
	H71	H	0.414428	0.886327	0.401908
	H72	H	0.915786	0.617897	0.090594
	H73	H	0.095288	0.388827	0.077915
	H74	H	0.092984	0.617175	0.906191
	H75	H	0.917426	0.387513	0.903489
	H76	H	0.100582	0.902356	0.615136
	H77	H	0.094954	0.083538	0.378083
	H78	H	0.913847	0.103781	0.613237
	H79	H	0.915351	0.904641	0.372918
	H80	H	0.622659	0.092952	0.901896
	H81	H	0.391562	0.098421	0.082342
	H82	H	0.622917	0.913284	0.083962
	H83	H	0.389233	0.907238	0.900792
	H84	H	0.625810	0.905215	0.084420
	H85	H	0.390858	0.095679	0.091369
	H86	H	0.623201	0.094615	0.899204
	H87	H	0.389055	0.910044	0.898250
	H88	H	0.908347	0.090230	0.612890
	H89	H	0.094829	0.104264	0.371073
	H90	H	0.108911	0.914622	0.614591
	H91	H	0.913932	0.914416	0.375607
	H92	H	0.105328	0.620210	0.907038
	H93	H	0.112544	0.382646	0.081742
	H94	H	0.909239	0.617840	0.083301
	H95	H	0.909303	0.385361	0.902975
	H96	H	0.405664	0.119673	0.579920
	H97	H	0.597430	0.888760	0.577623
	H98	H	0.605131	0.119283	0.403401
	H99	H	0.410901	0.883605	0.398106
	H100	H	0.611381	0.418108	0.114097
	H101	H	0.604312	0.591817	0.872829
	H102	H	0.410655	0.598131	0.112665
	H103	H	0.421025	0.419803	0.878869
	H104	H	0.120309	0.590557	0.409916
	H105	H	0.888175	0.604094	0.590719
	H106	H	0.124549	0.414541	0.591569
	H107	H	0.893436	0.410867	0.408563
	H108	H	0.907827	0.620462	0.091834
	H109	H	0.099013	0.383464	0.094419
	H110	H	0.099528	0.621826	0.896797
	H111	H	0.914877	0.384664	0.896019
	H112	H	0.094600	0.915616	0.608752
	H113	H	0.112403	0.092177	0.370162
	H114	H	0.921817	0.092550	0.607413
	H115	H	0.922864	0.910063	0.376440
	H116	H	0.622659	0.096073	0.902861
	H117	H	0.388265	0.104490	0.088336
	H118	H	0.622619	0.908515	0.077404
	H119	H	0.388099	0.906344	0.896864
	C120	C	0.384656	0.011687	0.614048
	C121	C	0.629293	0.994353	0.613240
	C122	C	0.630477	0.011396	0.370196
	C123	C	0.385718	0.993466	0.371203
	C124	C	0.628273	0.381203	0.001980
	C125	C	0.627178	0.622977	0.983205
	C126	C	0.384439	0.625592	0.002272
	C127	C	0.386069	0.383312	0.983522
	C128	C	0.015556	0.623510	0.373284
	C129	C	0.998414	0.626537	0.616937
	C130	C	0.015506	0.380828	0.615041
	C131	C	0.998704	0.379094	0.371971
	C132	C	0.883447	0.510715	0.116372
	C133	C	0.128677	0.493365	0.115261
	C134	C	0.128997	0.511871	0.872470
	C135	C	0.884750	0.494082	0.872629
	C136	C	0.129861	0.880875	0.502640
	C137	C	0.128189	0.122508	0.483430
	C138	C	0.886331	0.123653	0.501916
	C139	C	0.887630	0.882198	0.484395
	C140	C	0.514486	0.123812	0.872065
	C141	C	0.498581	0.127014	0.115723
	C142	C	0.515672	0.882156	0.112109
	C143	C	0.497473	0.879310	0.868938
	C144	C	0.389653	0.887671	0.666526
	C145	C	0.624463	0.117935	0.669639
	C146	C	0.627838	0.887888	0.313378
	C147	C	0.388883	0.117746	0.319125
	C148	C	0.684604	0.381315	0.877307
	C149	C	0.680817	0.622246	0.108854
	C150	C	0.328518	0.622896	0.878061
	C151	C	0.331068	0.385669	0.109040
	C152	C	0.893482	0.680980	0.374298
	C153	C	0.121802	0.679951	0.614855
	C154	C	0.892896	0.325510	0.614298
	C155	C	0.121884	0.323102	0.372281
	C156	C	0.891456	0.386323	0.669160
	C157	C	0.122026	0.620998	0.670844
	C158	C	0.892002	0.620252	0.319733
	C159	C	0.121841	0.381317	0.316080
	C160	C	0.386961	0.678260	0.876614
	C161	C	0.624117	0.679471	0.108262
	C162	C	0.627279	0.325197	0.876715
	C163	C	0.387470	0.328699	0.108303
	C164	C	0.687247	0.888478	0.369126
	C165	C	0.684016	0.117293	0.613692
	C166	C	0.330690	0.888611	0.611352
	C167	C	0.328850	0.116363	0.373517
	C168	C	0.887784	0.387015	0.169722
	C169	C	0.122811	0.617074	0.171225
	C170	C	0.126442	0.388310	0.816390
	C171	C	0.887980	0.618036	0.820152
	C172	C	0.184550	0.881143	0.377176
	C173	C	0.182184	0.121258	0.608867
	C174	C	0.831627	0.121294	0.376579
	C175	C	0.830116	0.884533	0.608586
	C176	C	0.392302	0.180952	0.872913
	C177	C	0.621137	0.181936	0.113755
	C178	C	0.392583	0.828095	0.111721
	C179	C	0.620027	0.822450	0.868885
	C180	C	0.392161	0.887304	0.167501
	C181	C	0.621908	0.122560	0.169842
	C182	C	0.391099	0.120933	0.817879
	C183	C	0.620925	0.881759	0.813442
	C184	C	0.889009	0.177837	0.376685
	C185	C	0.125619	0.178109	0.608887
	C186	C	0.128790	0.823118	0.378226
	C187	C	0.888912	0.829517	0.610194
	C188	C	0.185961	0.389201	0.871824
	C189	C	0.182014	0.616817	0.115454
	C190	C	0.827737	0.388317	0.114755
	C191	C	0.827795	0.616684	0.874598
	C192	C	0.405695	0.098070	0.592750
	C193	C	0.608259	0.908429	0.589062
	C194	C	0.607836	0.097050	0.394341
	C195	C	0.407713	0.907162	0.392148
	C196	C	0.604904	0.404772	0.088905
	C197	C	0.605457	0.599577	0.896132
	C198	C	0.406572	0.604670	0.089673
	C199	C	0.408141	0.404805	0.896350
	C200	C	0.101584	0.600541	0.395708
	C201	C	0.911589	0.606574	0.595668
	C202	C	0.101535	0.401917	0.592462
	C203	C	0.913092	0.401624	0.395473
	C204	C	0.904714	0.596614	0.094936
	C205	C	0.108192	0.407322	0.091627
	C206	C	0.105982	0.597587	0.896302
	C207	C	0.907299	0.407975	0.894434
	C208	C	0.107682	0.903951	0.590091
	C209	C	0.106913	0.100031	0.395802
	C210	C	0.908081	0.102005	0.588676
	C211	C	0.910678	0.903254	0.397491
	C212	C	0.600570	0.101079	0.894753
	C213	C	0.412340	0.105804	0.093607
	C214	C	0.601460	0.902899	0.088869
	C215	C	0.411123	0.901548	0.891873
	Zn216	Zn	0.506330	0.002450	0.742178
	Zn217	Zn	0.507325	0.003086	0.242706
	Zn218	Zn	0.754895	0.502197	-0.006848
	Zn219	Zn	0.257740	0.503384	-0.005890
	Zn220	Zn	0.007701	0.754350	0.494646
	Zn221	Zn	0.007772	0.250540	0.492892
	Zn222	Zn	0.006358	0.503577	0.743896
	Zn223	Zn	0.006407	0.500862	0.244086
	Zn224	Zn	0.506653	0.751786	-0.008449
	Zn225	Zn	0.506969	0.254923	-0.007381
	Zn226	Zn	0.759055	0.002483	0.492325
	Zn227	Zn	0.256316	0.002503	0.492707
	N228	N	0.422543	0.965186	0.668516
	N229	N	0.591415	0.040432	0.669643
	N230	N	0.593305	0.965326	0.313865
	N231	N	0.423927	0.040478	0.317723
	N232	N	0.685286	0.415349	0.956194
	N233	N	0.682694	0.587668	0.030095
	N234	N	0.326709	0.591059	0.957197
	N235	N	0.330252	0.419162	0.030449
	N236	N	0.971413	0.683077	0.407040
	N237	N	0.043833	0.683629	0.582265
	N238	N	0.971058	0.322000	0.581312
	N239	N	0.044363	0.321797	0.406684
	N240	N	0.968643	0.419968	0.669795
	N241	N	0.044180	0.588521	0.672185
	N242	N	0.969101	0.585285	0.318911
	N243	N	0.044383	0.415380	0.315473
	N244	N	0.421153	0.679903	0.954936
	N245	N	0.591483	0.680124	0.029258
	N246	N	0.593094	0.324728	0.955379
	N247	N	0.421432	0.327245	0.029683
	N248	N	0.689156	0.966209	0.403630
	N249	N	0.687243	0.039384	0.579502
	N250	N	0.327569	0.966762	0.579332
	N251	N	0.326652	0.038111	0.405158
	N252	N	0.921787	0.464089	0.170829
	N253	N	0.090252	0.539228	0.171282
	N254	N	0.091574	0.465498	0.816526
	N255	N	0.922827	0.540752	0.818911
	N256	N	0.185326	0.916455	0.455493
	N257	N	0.183894	0.087293	0.529856
	N258	N	0.829679	0.088362	0.455352
	N259	N	0.829113	0.916410	0.529394
	N260	N	0.470244	0.182822	0.905876
	N261	N	0.543301	0.184801	0.080759
	N262	N	0.470387	0.824638	0.078087
	N263	N	0.542245	0.820907	0.902720
	N264	N	0.469694	0.920571	0.167673
	N265	N	0.544571	0.089619	0.171436
	N266	N	0.468303	0.085904	0.817374
	N267	N	0.543641	0.916190	0.813161
	N268	N	0.922299	0.179536	0.455430
	N269	N	0.092832	0.179045	0.529999
	N270	N	0.095430	0.822742	0.457302
	N271	N	0.924344	0.828251	0.532098
	N272	N	0.187515	0.467063	0.906191
	N273	N	0.185829	0.538963	0.081510
	N274	N	0.824702	0.466190	0.082150
	N275	N	0.825814	0.538507	0.906427
	O276	O	0.951498	0.929158	0.024321
	H277	H	0.949542	0.921504	0.013963
	H278	H	0.951891	0.930247	0.023100
	O279	O	-0.118285	0.026672	0.928169
	H280	H	-0.121108	0.018178	0.929982
	H281	H	-0.126072	0.031235	0.919933
	O282	O	-0.045080	0.008113	-0.013250
	H283	H	-0.050947	0.001796	-0.010834
	H284	H	-0.047848	0.012898	-0.022771
	O285	O	0.553678	0.498354	0.424501
	H286	H	0.565224	0.495609	0.429099
	H287	H	0.553766	0.508638	0.425892
	O288	O	0.049497	-0.102902	-0.017376
	H289	H	0.056020	-0.108052	-0.017301
	H290	H	0.056053	-0.100545	-0.023613
	O291	O	0.015091	0.994684	0.008744
	H292	H	0.015804	0.999759	0.013748
	H293	H	0.014420	1.005192	0.012469
	O294	O	-0.011656	1.031164	-0.003408
	H295	H	-0.010096	1.031757	0.002146
	H296	H	-0.017340	1.036916	-0.003309
	O297	O	0.513296	0.438046	0.503413
	H298	H	0.519658	0.435132	0.502466
	H299	H	0.521505	0.438598	0.501243
	O300	O	0.497711	0.517910	0.474167
	H301	H	0.489553	0.516466	0.479885
	H302	H	0.491178	0.508759	0.467830
	O303	O	0.972369	-0.056668	0.958938
	H304	H	0.972448	-0.066626	0.958959
	H305	H	0.964060	-0.052893	0.964752
	O306	O	-0.078002	1.073412	0.903288
	H307	H	-0.089086	1.079273	0.898409
	H308	H	-0.082004	1.076496	0.895037
	O309	O	0.037231	1.030258	0.978737
	H310	H	0.037073	1.026517	0.983433
	H311	H	0.034307	1.035751	0.984494
	O312	O	-0.046077	-0.061322	1.013756
	H313	H	-0.042828	-0.066553	1.005180
	H314	H	-0.049359	-0.069805	1.009927
	O315	O	0.502360	0.466202	0.507563
	H316	H	0.495044	0.461344	0.501278
	H317	H	0.504885	0.471471	0.509018
	O318	O	0.045075	0.059121	0.981170
	H319	H	0.046013	0.055233	0.986995
	H320	H	0.049408	0.052829	0.986358
	O321	O	-0.450387	0.539726	0.445689
	H322	H	-0.455580	0.542213	0.442914
	H323	H	-0.456044	0.541063	0.443520
	O324	O	0.917039	-0.019435	1.041179
	H325	H	0.920117	-0.017364	1.040424
	H326	H	0.919417	-0.026705	1.043925
	O327	O	1.032771	0.978485	1.024008
	H328	H	1.049931	0.978172	1.021215
	H329	H	1.029053	0.968503	1.021149
	O330	O	1.021319	0.022488	0.936240
	H331	H	1.018895	0.026274	0.935385
	H332	H	1.014177	0.034154	0.945962
	O333	O	0.454964	0.434567	0.509852
	H334	H	0.456920	0.439343	0.514267
	H335	H	0.445091	0.431173	0.508370
	O336	O	0.526256	0.446023	0.523009
	H337	H	0.526603	0.444941	0.521220
	H338	H	0.527403	0.438023	0.513294
	O339	O	0.517753	0.493546	0.488826
	H340	H	0.512712	0.482545	0.486327
	H341	H	0.522197	0.491035	0.485803
	O342	O	0.555656	0.534463	0.539149
	H343	H	0.545935	0.538682	0.531812
	H344	H	0.562737	0.539833	0.541998
	O345	O	0.557078	0.473188	0.461401
	H346	H	0.563555	0.472347	0.466446
	H347	H	0.564941	0.473939	0.458611
