data_Molecule from HDF5

_cell_length_a		16.124192
_cell_length_b		16.273520
_cell_length_c		16.203581
_cell_angle_alpha	89.216243
_cell_angle_beta	89.976153
_cell_angle_gamma	90.358962
_symmetry_space_group_name_H-M	'P 1'
_symmetry_Int_Tables_number		1

loop_
	_symmetry_equiv_pos_as_xyz
	x,y,z

loop_
	_atom_site_label
	_atom_site_type_symbol
	_atom_site_fract_x
	_atom_site_fract_y
	_atom_site_fract_z
	H0	H	0.405522	0.833174	0.708856
	H1	H	0.605303	0.161214	0.701483
	H2	H	0.602860	0.831349	0.279784
	H3	H	0.407558	0.159416	0.272633
	H4	H	0.719120	0.403844	0.825528
	H5	H	0.722885	0.593583	0.155755
	H6	H	0.297547	0.594516	0.825689
	H7	H	0.293172	0.395649	0.156317
	H8	H	0.840553	0.711478	0.389402
	H9	H	0.171037	0.711571	0.586600
	H10	H	0.842398	0.279599	0.592763
	H11	H	0.170863	0.284435	0.390622
	H12	H	0.841500	0.396489	0.705461
	H13	H	0.172341	0.593779	0.699608
	H14	H	0.841520	0.596420	0.274380
	H15	H	0.172325	0.403212	0.280131
	H16	H	0.409978	0.712623	0.828086
	H17	H	0.608822	0.709954	0.156516
	H18	H	0.606951	0.285883	0.826469
	H19	H	0.406836	0.279039	0.155230
	H20	H	0.719674	0.832049	0.395680
	H21	H	0.720456	0.160810	0.585877
	H22	H	0.291498	0.832545	0.590890
	H23	H	0.295038	0.161494	0.391481
	H24	H	0.904768	0.334553	0.209941
	H25	H	0.106417	0.662074	0.200598
	H26	H	0.105290	0.332614	0.777404
	H27	H	0.910418	0.660575	0.773675
	H28	H	0.218362	0.902968	0.326083
	H29	H	0.220072	0.092895	0.655469
	H30	H	0.794881	0.096677	0.325825
	H31	H	0.794400	0.897654	0.655996
	H32	H	0.341569	0.211704	0.890239
	H33	H	0.671934	0.210770	0.089687
	H34	H	0.342526	0.778268	0.093548
	H35	H	0.672321	0.786407	0.894062
	H36	H	0.341076	0.894428	0.206068
	H37	H	0.671617	0.094026	0.203157
	H38	H	0.341144	0.095060	0.776971
	H39	H	0.672329	0.902964	0.779910
	H40	H	0.906493	0.215017	0.327565
	H41	H	0.106302	0.210227	0.655046
	H42	H	0.103929	0.787496	0.325722
	H43	H	0.903945	0.778047	0.653516
	H44	H	0.219749	0.331792	0.895796
	H45	H	0.222094	0.660775	0.085392
	H46	H	0.792808	0.333048	0.091211
	H47	H	0.796441	0.662171	0.890831
	H48	H	0.406716	0.113576	0.576308
	H49	H	0.600676	0.879312	0.585197
	H50	H	0.601064	0.112184	0.398326
	H51	H	0.405072	0.874609	0.391643
	H52	H	0.599353	0.397940	0.109939
	H53	H	0.598962	0.590630	0.876534
	H54	H	0.419199	0.584103	0.107408
	H55	H	0.425932	0.403001	0.876949
	H56	H	0.123886	0.594673	0.398140
	H57	H	0.889249	0.578985	0.586737
	H58	H	0.123837	0.402053	0.578794
	H59	H	0.887282	0.400909	0.399208
	H60	H	0.123456	0.409320	0.585305
	H61	H	0.883119	0.597239	0.587942
	H62	H	0.124255	0.593022	0.394298
	H63	H	0.891115	0.407718	0.405368
	H64	H	0.415387	0.594275	0.111156
	H65	H	0.597827	0.598833	0.872711
	H66	H	0.603165	0.404621	0.108449
	H67	H	0.406939	0.393863	0.868295
	H68	H	0.600938	0.114411	0.393018
	H69	H	0.599836	0.877839	0.590122
	H70	H	0.410195	0.118235	0.591370
	H71	H	0.421893	0.881860	0.397610
	H72	H	0.919868	0.608064	0.065212
	H73	H	0.095347	0.378663	0.094476
	H74	H	0.100510	0.614499	0.888582
	H75	H	0.912544	0.379129	0.898733
	H76	H	0.095352	0.906427	0.607216
	H77	H	0.098676	0.102206	0.370728
	H78	H	0.918512	0.089990	0.608340
	H79	H	0.913876	0.892658	0.368985
	H80	H	0.623859	0.088869	0.896732
	H81	H	0.388171	0.086406	0.084099
	H82	H	0.627322	0.907129	0.097930
	H83	H	0.389090	0.909619	0.898314
	H84	H	0.627574	0.892415	0.080524
	H85	H	0.387682	0.091239	0.083175
	H86	H	0.627052	0.094799	0.892783
	H87	H	0.385847	0.898512	0.896698
	H88	H	0.910005	0.092161	0.610102
	H89	H	0.107150	0.089324	0.372268
	H90	H	0.094333	0.898388	0.609043
	H91	H	0.900561	0.911426	0.370872
	H92	H	0.099866	0.612407	0.897440
	H93	H	0.093703	0.383119	0.079787
	H94	H	0.899645	0.619634	0.084547
	H95	H	0.913121	0.379549	0.897829
	H96	H	0.421644	0.111183	0.582025
	H97	H	0.596120	0.880210	0.587328
	H98	H	0.596337	0.112198	0.395249
	H99	H	0.407091	0.880901	0.409512
	H100	H	0.594956	0.404551	0.106428
	H101	H	0.606800	0.594541	0.871584
	H102	H	0.408170	0.585095	0.111305
	H103	H	0.408077	0.415467	0.874254
	H104	H	0.126196	0.597388	0.394974
	H105	H	0.890775	0.590650	0.571439
	H106	H	0.127620	0.400216	0.587929
	H107	H	0.888802	0.410124	0.396227
	H108	H	0.927389	0.613745	0.093733
	H109	H	0.108109	0.377914	0.084834
	H110	H	0.107829	0.615342	0.894296
	H111	H	0.913184	0.379927	0.897815
	H112	H	0.102015	0.902177	0.610061
	H113	H	0.092394	0.088475	0.376352
	H114	H	0.911710	0.084122	0.608522
	H115	H	0.922586	0.911622	0.377439
	H116	H	0.624598	0.096437	0.899639
	H117	H	0.388929	0.088292	0.078793
	H118	H	0.619048	0.912529	0.076294
	H119	H	0.389692	0.902297	0.905936
	C120	C	0.383745	0.005631	0.613420
	C121	C	0.628048	0.987894	0.613234
	C122	C	0.627889	0.004499	0.368675
	C123	C	0.383689	0.987511	0.369034
	C124	C	0.628114	0.376234	-0.000779
	C125	C	0.630154	0.620562	0.982896
	C126	C	0.386512	0.617514	0.000613
	C127	C	0.384966	0.374161	0.982286
	C128	C	0.015496	0.621723	0.367073
	C129	C	0.997167	0.617765	0.609831
	C130	C	0.015531	0.374348	0.613234
	C131	C	0.997773	0.377810	0.371048
	C132	C	0.885648	0.505856	0.111865
	C133	C	0.128726	0.488399	0.112700
	C134	C	0.129961	0.504921	0.867495
	C135	C	0.885783	0.488439	0.868703
	C136	C	0.126058	0.876285	0.499588
	C137	C	0.128060	0.119916	0.482052
	C138	C	0.884917	0.118435	0.499961
	C139	C	0.883547	0.875120	0.481437
	C140	C	0.515430	0.120660	0.868065
	C141	C	0.497881	0.117258	0.110926
	C142	C	0.515496	0.874007	0.113713
	C143	C	0.497642	0.876486	0.871411
	C144	C	0.385494	0.882264	0.670216
	C145	C	0.625670	0.111946	0.665059
	C146	C	0.624544	0.880663	0.315981
	C147	C	0.386965	0.110798	0.311590
	C148	C	0.682398	0.381868	0.874971
	C149	C	0.685552	0.615066	0.106667
	C150	C	0.333654	0.615084	0.875551
	C151	C	0.330463	0.375477	0.106775
	C152	C	0.890280	0.674650	0.369062
	C153	C	0.121714	0.673521	0.606834
	C154	C	0.891507	0.318252	0.612068
	C155	C	0.121796	0.322693	0.371931
	C156	C	0.891203	0.375931	0.668387
	C157	C	0.122521	0.614739	0.662904
	C158	C	0.890765	0.617840	0.311670
	C159	C	0.122558	0.381812	0.316854
	C160	C	0.389524	0.673844	0.876723
	C161	C	0.628409	0.672895	0.107195
	C162	C	0.626573	0.323091	0.875513
	C163	C	0.386807	0.317521	0.106138
	C164	C	0.682421	0.881114	0.373667
	C165	C	0.682984	0.111703	0.607489
	C166	C	0.328497	0.881921	0.611722
	C167	C	0.331088	0.111806	0.370804
	C168	C	0.885748	0.382998	0.170285
	C169	C	0.126540	0.612477	0.164444
	C170	C	0.126089	0.381509	0.814566
	C171	C	0.889270	0.611853	0.811788
	C172	C	0.181064	0.881659	0.375468
	C173	C	0.182794	0.114670	0.606260
	C174	C	0.830991	0.116757	0.375680
	C175	C	0.830039	0.876750	0.605959
	C176	C	0.390855	0.174172	0.870652
	C177	C	0.622508	0.172602	0.109048
	C178	C	0.391571	0.816902	0.112981
	C179	C	0.622782	0.823554	0.873996
	C180	C	0.390711	0.874629	0.168947
	C181	C	0.622387	0.114416	0.165583
	C182	C	0.390685	0.116409	0.814028
	C183	C	0.622700	0.881487	0.817007
	C184	C	0.886545	0.175796	0.376431
	C185	C	0.126609	0.173190	0.605896
	C186	C	0.124105	0.824197	0.375117
	C187	C	0.884746	0.817312	0.604718
	C188	C	0.182971	0.381139	0.873437
	C189	C	0.184277	0.611912	0.107222
	C190	C	0.829704	0.382367	0.111499
	C191	C	0.832817	0.612554	0.870208
	C192	C	0.406287	0.091971	0.590243
	C193	C	0.605451	0.901569	0.593553
	C194	C	0.605953	0.090558	0.389103
	C195	C	0.404949	0.901353	0.392638
	C196	C	0.605783	0.396389	0.085846
	C197	C	0.607752	0.600566	0.896132
	C198	C	0.408110	0.594688	0.087431
	C199	C	0.407163	0.397099	0.895620
	C200	C	0.102436	0.601016	0.389073
	C201	C	0.910114	0.595410	0.588504
	C202	C	0.102476	0.397240	0.590602
	C203	C	0.911361	0.399692	0.393786
	C204	C	0.908814	0.591448	0.088132
	C205	C	0.105821	0.402124	0.092501
	C206	C	0.108929	0.591630	0.887465
	C207	C	0.906738	0.401915	0.891535
	C208	C	0.103823	0.896395	0.586318
	C209	C	0.105836	0.099529	0.395516
	C210	C	0.907087	0.095547	0.586461
	C211	C	0.905928	0.898388	0.394732
	C212	C	0.602754	0.099701	0.889933
	C213	C	0.410757	0.095170	0.088750
	C214	C	0.602146	0.897158	0.091297
	C215	C	0.410757	0.897239	0.893536
	Zn216	Zn	0.506382	-0.002284	0.742058
	Zn217	Zn	0.505721	-0.004158	0.239836
	Zn218	Zn	0.757151	0.497403	-0.009517
	Zn219	Zn	0.258034	0.495954	-0.008484
	Zn220	Zn	0.005146	0.747606	0.489409
	Zn221	Zn	0.006405	0.247540	0.491196
	Zn222	Zn	0.006718	0.496327	0.739218
	Zn223	Zn	0.006388	0.498104	0.241164
	Zn224	Zn	0.507347	0.747075	-0.007038
	Zn225	Zn	0.506938	0.246814	-0.009437
	Zn226	Zn	0.756460	-0.003339	0.491208
	Zn227	Zn	0.254938	-0.003078	0.491120
	N228	N	0.418831	0.960408	0.671428
	N229	N	0.592032	0.034176	0.668749
	N230	N	0.591181	0.958394	0.312802
	N231	N	0.418874	0.032562	0.310351
	N232	N	0.683388	0.414084	0.952899
	N233	N	0.686717	0.583391	0.028332
	N234	N	0.331722	0.580584	0.953649
	N235	N	0.329248	0.410045	0.028749
	N236	N	0.968681	0.677325	0.402655
	N237	N	0.042740	0.675359	0.574528
	N238	N	0.970057	0.316840	0.578640
	N239	N	0.043168	0.320102	0.405113
	N240	N	0.969347	0.410373	0.668889
	N241	N	0.044184	0.580610	0.664881
	N242	N	0.969473	0.585659	0.310053
	N243	N	0.044484	0.415372	0.316046
	N244	N	0.421641	0.675378	0.955376
	N245	N	0.594739	0.676437	0.029212
	N246	N	0.593209	0.319475	0.953774
	N247	N	0.419742	0.316426	0.027728
	N248	N	0.684778	0.959158	0.405389
	N249	N	0.684564	0.033484	0.576006
	N250	N	0.327434	0.959497	0.576907
	N251	N	0.328781	0.034240	0.405944
	N252	N	0.919834	0.460756	0.170733
	N253	N	0.092418	0.534635	0.167783
	N254	N	0.093948	0.459828	0.810576
	N255	N	0.921463	0.533749	0.810789
	N256	N	0.182569	0.913143	0.453976
	N257	N	0.183975	0.082336	0.528166
	N258	N	0.829947	0.081705	0.453578
	N259	N	0.829444	0.912139	0.528229
	N260	N	0.469608	0.176744	0.903610
	N261	N	0.543856	0.174439	0.075979
	N262	N	0.470136	0.816226	0.079551
	N263	N	0.544180	0.820084	0.907104
	N264	N	0.468720	0.909704	0.169510
	N265	N	0.543890	0.080611	0.166666
	N266	N	0.469137	0.083874	0.812220
	N267	N	0.544046	0.913822	0.815443
	N268	N	0.919197	0.177236	0.454741
	N269	N	0.093383	0.176540	0.527757
	N270	N	0.090569	0.820711	0.453238
	N271	N	0.917158	0.816168	0.526119
	N272	N	0.185270	0.458810	0.905758
	N273	N	0.185513	0.533909	0.075679
	N274	N	0.829856	0.459453	0.075532
	N275	N	0.830496	0.534745	0.904941
	O276	O	0.999317	0.986685	0.021408
	H277	H	1.006600	0.985929	0.017215
	H278	H	1.004097	0.989670	0.020125
	O279	O	-0.005224	-0.113903	1.021263
	H280	H	-0.001019	-0.109999	1.032560
	H281	H	-0.012608	-0.106388	1.020695
	O282	O	-0.046008	0.048858	0.067832
	H283	H	-0.050993	0.039761	0.068013
	H284	H	-0.048875	0.044294	0.071004
	O285	O	0.493918	0.477652	0.540784
	H286	H	0.500222	0.471926	0.530270
	H287	H	0.500119	0.483430	0.540425
	O288	O	0.044300	-0.053501	0.010130
	H289	H	0.051901	-0.054667	0.007987
	H290	H	0.052708	-0.055117	0.012281
	O291	O	-0.095046	0.969775	-0.022855
	H292	H	-0.097781	0.960133	-0.020117
	H293	H	-0.084311	0.960754	-0.014971
	O294	O	-0.031426	1.030508	-0.045341
	H295	H	-0.037415	1.023695	-0.048694
	H296	H	-0.034791	1.031130	-0.044767
	O297	O	0.499898	0.477825	0.531523
	H298	H	0.495341	0.484777	0.534766
	H299	H	0.501024	0.465951	0.541379
	O300	O	0.510229	0.469856	0.477072
	H301	H	0.512061	0.466228	0.462301
	H302	H	0.510460	0.476702	0.478393
	O303	O	1.060566	-0.026121	0.999601
	H304	H	1.067796	-0.028295	1.004759
	H305	H	1.060640	-0.023020	1.004210
	O306	O	-0.089346	1.106944	0.934609
	H307	H	-0.105746	1.111235	0.937619
	H308	H	-0.090583	1.113318	0.921467
	O309	O	0.084364	1.046320	1.069757
	H310	H	0.085598	1.044732	1.070021
	H311	H	0.087014	1.042518	1.065687
	O312	O	0.005114	0.046918	0.904847
	H313	H	0.002476	0.046362	0.914107
	H314	H	0.003264	0.044773	0.900568
	O315	O	0.470449	0.501309	0.475364
	H316	H	0.465814	0.500331	0.480047
	H317	H	0.471086	0.501987	0.465863
	O318	O	-0.047836	-0.113011	1.053082
	H319	H	-0.057014	-0.111460	1.051181
	H320	H	-0.046126	-0.111848	1.057125
	O321	O	0.024308	0.983284	0.999029
	H322	H	0.021712	0.989847	0.993432
	H323	H	0.025066	0.983070	0.995663
	O324	O	1.064750	0.012492	0.997990
	H325	H	1.051418	0.013034	0.991105
	H326	H	1.062957	0.008495	1.006938
	O327	O	1.000671	0.994676	0.984799
	H328	H	1.014586	1.013163	0.986137
	H329	H	1.003309	0.998652	0.987083
	O330	O	0.508712	0.448500	0.499962
	H331	H	0.510234	0.451777	0.495757
	H332	H	0.517985	0.447922	0.507591
	O333	O	0.487922	0.511246	0.432898
	H334	H	0.482448	0.514538	0.434944
	H335	H	0.488886	0.510918	0.439478
	O336	O	0.505317	0.429530	0.490042
	H337	H	0.500498	0.423130	0.488273
	H338	H	0.507440	0.430265	0.509044
	O339	O	0.511403	0.478934	0.517128
	H340	H	0.505666	0.473533	0.523822
	H341	H	0.514607	0.483456	0.513086
	O342	O	0.539339	0.461407	0.500219
	H343	H	0.532919	0.454564	0.501871
	H344	H	0.545518	0.463540	0.499032
	O345	O	0.532271	0.430114	0.526720
	H346	H	0.519754	0.423741	0.530817
	H347	H	0.531791	0.430738	0.517702
