data_Molecule from HDF5

_cell_length_a		16.551372
_cell_length_b		16.446698
_cell_length_c		16.473278
_cell_angle_alpha	89.978939
_cell_angle_beta	90.020244
_cell_angle_gamma	90.202311
_symmetry_space_group_name_H-M	'P 1'
_symmetry_Int_Tables_number		1

loop_
	_symmetry_equiv_pos_as_xyz
	x,y,z

loop_
	_atom_site_label
	_atom_site_type_symbol
	_atom_site_fract_x
	_atom_site_fract_y
	_atom_site_fract_z
	H0	H	0.395284	0.838003	0.717945
	H1	H	0.606433	0.154043	0.720961
	H2	H	0.599306	0.837339	0.280975
	H3	H	0.395778	0.155034	0.278770
	H4	H	0.721051	0.389617	0.842523
	H5	H	0.716741	0.600310	0.155514
	H6	H	0.273819	0.604048	0.839404
	H7	H	0.275221	0.390468	0.153957
	H8	H	0.842943	0.718051	0.395169
	H9	H	0.153619	0.722022	0.610670
	H10	H	0.842723	0.271761	0.604214
	H11	H	0.157341	0.280060	0.397937
	H12	H	0.841580	0.388924	0.720781
	H13	H	0.153833	0.604117	0.725271
	H14	H	0.842428	0.602446	0.277233
	H15	H	0.155226	0.393983	0.278423
	H16	H	0.392793	0.718084	0.838491
	H17	H	0.598184	0.714811	0.155750
	H18	H	0.601158	0.276266	0.840114
	H19	H	0.392091	0.274805	0.154476
	H20	H	0.718995	0.839784	0.391551
	H21	H	0.723323	0.153702	0.604632
	H22	H	0.277842	0.838433	0.603397
	H23	H	0.280122	0.154977	0.395390
	H24	H	0.892728	0.336356	0.218454
	H25	H	0.097815	0.656005	0.214596
	H26	H	0.101438	0.337204	0.777837
	H27	H	0.890561	0.652578	0.775522
	H28	H	0.214155	0.897476	0.339710
	H29	H	0.221428	0.103455	0.655538
	H30	H	0.778429	0.102139	0.338468
	H31	H	0.772014	0.888894	0.653394
	H32	H	0.341190	0.218149	0.892013
	H33	H	0.656120	0.219925	0.103343
	H34	H	0.338683	0.779708	0.096507
	H35	H	0.656343	0.777726	0.894597
	H36	H	0.339392	0.895936	0.214079
	H37	H	0.657406	0.101608	0.218116
	H38	H	0.343448	0.105926	0.772301
	H39	H	0.656880	0.894386	0.778063
	H40	H	0.896240	0.216536	0.338236
	H41	H	0.103353	0.217485	0.657193
	H42	H	0.099569	0.778177	0.341272
	H43	H	0.891196	0.775621	0.656791
	H44	H	0.219235	0.338473	0.891183
	H45	H	0.215924	0.655194	0.099134
	H46	H	0.775347	0.337608	0.103862
	H47	H	0.779255	0.654960	0.895423
	H48	H	0.408184	0.110619	0.588774
	H49	H	0.579791	0.886756	0.587814
	H50	H	0.595112	0.112347	0.407983
	H51	H	0.415582	0.886431	0.411266
	H52	H	0.587381	0.406119	0.111926
	H53	H	0.591933	0.587111	0.882404
	H54	H	0.407200	0.588890	0.110022
	H55	H	0.406521	0.409107	0.884468
	H56	H	0.111474	0.588753	0.411745
	H57	H	0.883651	0.592712	0.588711
	H58	H	0.112855	0.402669	0.590717
	H59	H	0.885838	0.406132	0.408512
	H60	H	0.108269	0.408044	0.582288
	H61	H	0.892072	0.582140	0.577501
	H62	H	0.109067	0.582750	0.412733
	H63	H	0.884581	0.404315	0.408174
	H64	H	0.404098	0.584919	0.108946
	H65	H	0.587580	0.584369	0.884120
	H66	H	0.587359	0.411542	0.110127
	H67	H	0.410169	0.410367	0.885995
	H68	H	0.585670	0.111299	0.401901
	H69	H	0.586255	0.888471	0.578439
	H70	H	0.413435	0.107797	0.586769
	H71	H	0.396209	0.880613	0.412240
	H72	H	0.911886	0.610030	0.094995
	H73	H	0.094547	0.380069	0.088739
	H74	H	0.083695	0.608231	0.909487
	H75	H	0.909039	0.382760	0.910480
	H76	H	0.083716	0.909450	0.610907
	H77	H	0.087207	0.089613	0.385883
	H78	H	0.903763	0.079853	0.609298
	H79	H	0.907243	0.908670	0.385297
	H80	H	0.605548	0.083633	0.917974
	H81	H	0.386637	0.090733	0.083774
	H82	H	0.611056	0.907468	0.089733
	H83	H	0.384185	0.902590	0.906142
	H84	H	0.613453	0.903146	0.092935
	H85	H	0.389464	0.080429	0.087003
	H86	H	0.609957	0.079121	0.904834
	H87	H	0.387862	0.908897	0.912798
	H88	H	0.916409	0.080569	0.606348
	H89	H	0.093553	0.089395	0.383628
	H90	H	0.089545	0.904363	0.616217
	H91	H	0.911484	0.910478	0.387742
	H92	H	0.084485	0.606596	0.913124
	H93	H	0.083875	0.380278	0.094805
	H94	H	0.909817	0.605928	0.082140
	H95	H	0.911147	0.383896	0.912496
	H96	H	0.408394	0.109102	0.582912
	H97	H	0.590580	0.883343	0.588052
	H98	H	0.585758	0.108247	0.413224
	H99	H	0.406247	0.879064	0.394687
	H100	H	0.582682	0.408894	0.108949
	H101	H	0.587420	0.589520	0.882952
	H102	H	0.409161	0.584944	0.107911
	H103	H	0.410012	0.406092	0.884243
	H104	H	0.111478	0.584746	0.406138
	H105	H	0.887810	0.576548	0.593866
	H106	H	0.109856	0.413550	0.591554
	H107	H	0.885511	0.404550	0.410132
	H108	H	0.899870	0.611472	0.089391
	H109	H	0.084366	0.384460	0.083032
	H110	H	0.087195	0.608154	0.911273
	H111	H	0.908029	0.384057	0.912632
	H112	H	0.092318	0.912842	0.612528
	H113	H	0.090106	0.083788	0.386421
	H114	H	0.910638	0.090837	0.611593
	H115	H	0.911257	0.905392	0.385720
	H116	H	0.612526	0.093247	0.909443
	H117	H	0.384305	0.087127	0.093691
	H118	H	0.612145	0.902174	0.086933
	H119	H	0.386366	0.912237	0.903534
	C120	C	0.377550	0.005171	0.619117
	C121	C	0.619368	0.989401	0.617966
	C122	C	0.619608	0.005599	0.376588
	C123	C	0.376777	0.987640	0.376339
	C124	C	0.618334	0.375971	0.006589
	C125	C	0.618882	0.617569	0.988518
	C126	C	0.375396	0.618250	0.004640
	C127	C	0.376251	0.375289	0.988678
	C128	C	0.007251	0.617596	0.378322
	C129	C	0.990105	0.617706	0.621471
	C130	C	0.006473	0.374926	0.620004
	C131	C	0.989541	0.374382	0.377287
	C132	C	0.875130	0.504265	0.121053
	C133	C	0.118202	0.487317	0.118834
	C134	C	0.117926	0.503923	0.877751
	C135	C	0.876786	0.487784	0.878530
	C136	C	0.119134	0.876930	0.508115
	C137	C	0.121681	0.119439	0.489689
	C138	C	0.878214	0.116698	0.504769
	C139	C	0.876402	0.875278	0.489868
	C140	C	0.506266	0.117854	0.877185
	C141	C	0.490578	0.119040	0.120345
	C142	C	0.506914	0.874660	0.119032
	C143	C	0.490336	0.876049	0.876141
	C144	C	0.375850	0.885698	0.678885
	C145	C	0.623888	0.107287	0.679754
	C146	C	0.619228	0.885620	0.319083
	C147	C	0.376829	0.107371	0.318279
	C148	C	0.679650	0.372340	0.888700
	C149	C	0.676916	0.618911	0.108233
	C150	C	0.314701	0.621463	0.886559
	C151	C	0.315592	0.372401	0.106921
	C152	C	0.889845	0.678087	0.376317
	C153	C	0.107042	0.680474	0.627115
	C154	C	0.889035	0.313027	0.622379
	C155	C	0.109345	0.318122	0.377673
	C156	C	0.888653	0.371198	0.680201
	C157	C	0.106958	0.621960	0.684368
	C158	C	0.889541	0.620458	0.317733
	C159	C	0.108262	0.374818	0.318472
	C160	C	0.373880	0.678246	0.885876
	C161	C	0.618368	0.675861	0.108222
	C162	C	0.620199	0.315864	0.887802
	C163	C	0.373437	0.314866	0.107272
	C164	C	0.678500	0.886725	0.374608
	C165	C	0.681910	0.107129	0.622031
	C166	C	0.317554	0.885917	0.621842
	C167	C	0.319319	0.107463	0.376421
	C168	C	0.873666	0.384662	0.179803
	C169	C	0.117979	0.607925	0.176281
	C170	C	0.120135	0.384929	0.817391
	C171	C	0.873382	0.605738	0.816610
	C172	C	0.176025	0.877077	0.387812
	C173	C	0.181208	0.121508	0.608520
	C174	C	0.818804	0.119702	0.385857
	C175	C	0.813719	0.871439	0.607149
	C176	C	0.388525	0.178497	0.873786
	C177	C	0.609021	0.179417	0.121717
	C178	C	0.386612	0.818231	0.116962
	C179	C	0.609097	0.817123	0.875200
	C180	C	0.386965	0.875939	0.175460
	C181	C	0.609729	0.120520	0.178888
	C182	C	0.389710	0.122399	0.814299
	C183	C	0.609318	0.875186	0.817332
	C184	C	0.877210	0.177043	0.386125
	C185	C	0.122175	0.177933	0.609472
	C186	C	0.119102	0.818059	0.388546
	C187	C	0.873326	0.815354	0.608790
	C188	C	0.178592	0.385417	0.873965
	C189	C	0.176520	0.607441	0.118975
	C190	C	0.815143	0.385238	0.122561
	C191	C	0.817677	0.606895	0.875998
	C192	C	0.402709	0.087651	0.593463
	C193	C	0.593030	0.907514	0.591933
	C194	C	0.595830	0.089152	0.400765
	C195	C	0.399537	0.903768	0.399452
	C196	C	0.593190	0.401622	0.089003
	C197	C	0.595583	0.593713	0.905120
	C198	C	0.400011	0.593486	0.087443
	C199	C	0.401547	0.401151	0.906265
	C200	C	0.089436	0.592417	0.403193
	C201	C	0.909052	0.591217	0.594605
	C202	C	0.088951	0.400652	0.595347
	C203	C	0.906631	0.398142	0.401794
	C204	C	0.900135	0.587333	0.096257
	C205	C	0.094673	0.403551	0.095523
	C206	C	0.092564	0.586272	0.903741
	C207	C	0.902038	0.405191	0.904460
	C208	C	0.095345	0.901595	0.591446
	C209	C	0.097226	0.094812	0.406832
	C210	C	0.902999	0.090949	0.587437
	C211	C	0.902389	0.900868	0.407645
	C212	C	0.588137	0.092485	0.903249
	C213	C	0.408382	0.093466	0.095407
	C214	C	0.590367	0.897611	0.096399
	C215	C	0.407524	0.900562	0.900579
	Zn216	Zn	0.498727	-0.002688	0.747534
	Zn217	Zn	0.499144	-0.003355	0.248422
	Zn218	Zn	0.747441	0.496588	-0.001599
	Zn219	Zn	0.247029	0.496333	-0.002952
	Zn220	Zn	-0.001167	0.747404	0.500527
	Zn221	Zn	-0.000966	0.245854	0.498681
	Zn222	Zn	-0.002882	0.495838	0.749807
	Zn223	Zn	-0.002395	0.495939	0.248535
	Zn224	Zn	0.497807	0.746372	-0.003839
	Zn225	Zn	0.497585	0.246865	-0.001792
	Zn226	Zn	0.748282	-0.002560	0.496596
	Zn227	Zn	0.248984	-0.003325	0.499052
	N228	N	0.412390	0.960860	0.677594
	N229	N	0.585606	0.033259	0.677303
	N230	N	0.583279	0.960770	0.320083
	N231	N	0.411778	0.031841	0.317945
	N232	N	0.678609	0.408748	0.963609
	N233	N	0.677642	0.583805	0.032682
	N234	N	0.315736	0.584595	0.961311
	N235	N	0.317223	0.409494	0.032165
	N236	N	0.964187	0.676559	0.413396
	N237	N	0.033424	0.678252	0.588722
	N238	N	0.963505	0.315127	0.585735
	N239	N	0.034315	0.317690	0.413255
	N240	N	0.962637	0.408921	0.678690
	N241	N	0.033197	0.583534	0.680940
	N242	N	0.963603	0.583558	0.318870
	N243	N	0.032543	0.408734	0.317934
	N244	N	0.410988	0.676313	0.960352
	N245	N	0.583049	0.675425	0.032774
	N246	N	0.582751	0.318070	0.962195
	N247	N	0.410469	0.316588	0.032837
	N248	N	0.678587	0.962445	0.409685
	N249	N	0.679198	0.032932	0.584072
	N250	N	0.318400	0.961064	0.585541
	N251	N	0.319025	0.031822	0.411782
	N252	N	0.910038	0.459907	0.179229
	N253	N	0.082548	0.532142	0.176603
	N254	N	0.083061	0.459525	0.819576
	N255	N	0.909186	0.530393	0.817759
	N256	N	0.176224	0.912544	0.463286
	N257	N	0.181188	0.085932	0.533046
	N258	N	0.819317	0.083013	0.460851
	N259	N	0.815228	0.907736	0.532106
	N260	N	0.462076	0.175628	0.912415
	N261	N	0.533779	0.178843	0.086431
	N262	N	0.462289	0.816909	0.082957
	N263	N	0.534036	0.817443	0.910767
	N264	N	0.462797	0.910168	0.177090
	N265	N	0.534848	0.084001	0.178551
	N266	N	0.463742	0.085107	0.816594
	N267	N	0.534295	0.910759	0.817668
	N268	N	0.913647	0.175174	0.461099
	N269	N	0.085752	0.176612	0.534572
	N270	N	0.084974	0.817645	0.464621
	N271	N	0.911645	0.817662	0.534884
	N272	N	0.177503	0.460428	0.910563
	N273	N	0.177247	0.531426	0.084646
	N274	N	0.815743	0.460822	0.086904
	N275	N	0.819670	0.532475	0.913753
	O276	O	0.672498	0.358164	0.295419
	H277	H	0.696088	0.353945	0.312347
	H278	H	0.680614	0.356982	0.288375
	O279	O	0.719991	0.712844	0.720882
	H280	H	0.709450	0.720214	0.730969
	H281	H	0.726154	0.711353	0.681029
	O282	O	0.976527	0.990976	0.173561
	H283	H	0.983598	0.991428	0.177201
	H284	H	0.967417	0.994419	0.160448
	O285	O	0.293545	0.293316	0.554864
	H286	H	0.282611	0.294509	0.562383
	H287	H	0.296173	0.285004	0.549150
	O288	O	-0.211519	-0.156298	0.139876
	H289	H	-0.224150	-0.175668	0.152981
	H290	H	-0.177489	-0.157858	0.148031
	O291	O	1.036319	1.185243	-0.196987
	H292	H	1.049851	1.151411	-0.195095
	H293	H	1.039091	1.200084	-0.219328
	O294	O	-0.016374	1.093327	-0.126910
	H295	H	-0.017659	1.088731	-0.125681
	H296	H	-0.003666	1.093756	-0.121004
	O297	O	0.704781	0.522380	0.316880
	H298	H	0.712326	0.521298	0.347774
	H299	H	0.722036	0.508643	0.299510
	O300	O	0.334358	0.473787	0.515861
	H301	H	0.322260	0.466000	0.509625
	H302	H	0.332871	0.461381	0.509595
	O303	O	0.281367	0.496606	0.667027
	H304	H	0.272689	0.499982	0.647550
	H305	H	0.270628	0.485734	0.684117
	O306	O	0.013327	0.785152	0.798343
	H307	H	0.027560	0.774544	0.785245
	H308	H	0.001215	0.781166	0.806652
	O309	O	0.704868	0.710287	0.514141
	H310	H	0.709667	0.722658	0.513754
	H311	H	0.687289	0.727193	0.512145
	O312	O	0.453401	0.713049	0.278183
	H313	H	0.459278	0.726253	0.267469
	H314	H	0.470171	0.704625	0.264474
	O315	O	0.293191	-0.307846	1.303035
	H316	H	0.280868	-0.277684	1.282460
	H317	H	0.327358	-0.307945	1.315038
	O318	O	-0.074480	0.933199	0.023323
	H319	H	-0.082422	0.921081	0.048956
	H320	H	-0.075671	0.925422	0.027663
	O321	O	0.328970	0.705304	0.489873
	H322	H	0.299937	0.727605	0.484918
	H323	H	0.333648	0.702218	0.449076
	O324	O	0.698017	0.264337	0.659315
	H325	H	0.726192	0.251767	0.658874
	H326	H	0.697212	0.254719	0.672446
	O327	O	0.969079	0.111390	1.082077
	H328	H	0.972628	0.106504	1.062956
	H329	H	0.971768	0.094355	1.085064
	O330	O	1.162764	-0.189016	0.167619
	H331	H	1.148859	-0.179480	0.160269
	H332	H	1.152637	-0.163505	0.158288
	O333	O	0.966200	0.807885	1.188573
	H334	H	0.964852	0.818501	1.194820
	H335	H	0.965758	0.802026	1.190521
	O336	O	1.162433	-0.171330	0.841372
	H337	H	1.154635	-0.169875	0.860410
	H338	H	1.155375	-0.185939	0.849414
	O339	O	0.373843	0.309712	0.375977
	H340	H	0.394505	0.318114	0.385599
	H341	H	0.382550	0.314112	0.395626
	O342	O	0.577204	0.603949	0.426218
	H343	H	0.571018	0.580277	0.423992
	H344	H	0.575076	0.605654	0.438201
	O345	O	-0.111553	-0.054605	-0.023742
	H346	H	-0.112882	-0.054834	-0.023535
	H347	H	-0.119793	-0.059359	-0.020494
	O348	O	0.920150	0.116588	0.860413
	H349	H	0.942803	0.112831	0.866610
	H350	H	0.902424	0.115559	0.857985
	O351	O	1.195246	1.141385	-0.032290
	H352	H	1.206517	1.166026	-0.012927
	H353	H	1.198191	1.147309	-0.027627
	O354	O	0.597150	0.487554	0.506826
	H355	H	0.590363	0.490072	0.520736
	H356	H	0.596587	0.480322	0.504860
	O357	O	0.856940	1.036124	0.946257
	H358	H	0.850938	1.030115	0.969703
	H359	H	0.866273	1.038122	0.950111
	O360	O	0.321205	0.721719	0.654678
	H361	H	0.326449	0.721930	0.650365
	H362	H	0.320199	0.727968	0.644439
	O363	O	0.389142	0.456545	0.382815
	H364	H	0.389489	0.473376	0.378459
	H365	H	0.392073	0.445971	0.388496
	O366	O	0.849266	0.115483	0.987868
	H367	H	0.863451	0.115396	0.986335
	H368	H	0.844475	0.099661	0.989049
	O369	O	0.603584	0.402107	0.704277
	H370	H	0.613227	0.400930	0.686313
	H371	H	0.633831	0.398009	0.723063
	O372	O	0.507388	0.509944	0.669763
	H373	H	0.497973	0.488885	0.678472
	H374	H	0.508624	0.495362	0.661832
	O375	O	0.178660	0.987129	0.924838
	H376	H	0.192093	0.987883	0.912267
	H377	H	0.184009	0.991771	0.925294
	O378	O	0.518202	0.305832	0.276486
	H379	H	0.529842	0.321349	0.270645
	H380	H	0.530633	0.278806	0.251674
	O381	O	1.187461	0.116515	0.098647
	H382	H	1.192860	0.126077	0.112442
	H383	H	1.193319	0.137986	0.112546
	O384	O	-0.007360	-0.023422	0.869161
	H385	H	-0.002415	-0.041520	0.872354
	H386	H	-0.003999	-0.033666	0.849883
	O387	O	-0.208918	0.902767	1.204482
	H388	H	-0.228323	0.882930	1.230410
	H389	H	-0.214884	0.882131	1.190354
	O390	O	-0.190934	-0.062572	0.893825
	H391	H	-0.192871	-0.068653	0.892281
	H392	H	-0.189128	-0.036712	0.887574
	O393	O	0.823587	1.134555	-0.220184
	H394	H	0.820002	1.139668	-0.195442
	H395	H	0.849018	1.134288	-0.217081
	O396	O	0.626956	0.290229	0.497597
	H397	H	0.635515	0.297035	0.522960
	H398	H	0.622402	0.289525	0.510377
	O399	O	0.638514	0.517864	0.534782
	H400	H	0.633702	0.511869	0.549251
	H401	H	0.625050	0.528928	0.550195
	O402	O	0.109416	0.011286	0.911119
	H403	H	0.113928	0.038997	0.918603
	H404	H	0.118467	-0.001886	0.895566
	O405	O	0.474515	0.293620	-0.297280
	H406	H	0.462862	0.301096	-0.297220
	H407	H	0.490713	0.282818	-0.284243
	O408	O	0.812422	0.811965	0.967155
	H409	H	0.809901	0.807590	0.980600
	H410	H	0.807918	0.814247	0.981372
	O411	O	0.277488	0.525377	0.274941
	H412	H	0.250759	0.532853	0.241683
	H413	H	0.283520	0.567742	0.284534
	O414	O	0.376217	0.452351	0.533444
	H415	H	0.383155	0.437044	0.540812
	H416	H	0.391718	0.448132	0.504682
	O417	O	0.485040	0.482478	0.311054
	H418	H	0.505419	0.484223	0.304578
	H419	H	0.455897	0.476992	0.305723
	O420	O	0.305266	0.626883	0.558953
	H421	H	0.299103	0.654665	0.553842
	H422	H	0.298991	0.610799	0.562643
	O423	O	0.001096	1.200472	-0.124773
	H424	H	0.004003	1.213848	-0.133036
	H425	H	0.012781	1.189818	-0.118542
	O426	O	1.127045	0.854013	0.999131
	H427	H	1.125641	0.872829	1.003210
	H428	H	1.123314	0.857295	0.992328
	O429	O	0.540505	0.465311	0.495382
	H430	H	0.531376	0.463142	0.497239
	H431	H	0.536694	0.460121	0.483591
	O432	O	0.301399	0.339231	0.695368
	H433	H	0.330732	0.342534	0.697167
	H434	H	0.295575	0.362242	0.700174
	O435	O	0.201805	-0.044214	0.082357
	H436	H	0.202959	-0.024734	0.091127
	H437	H	0.205109	-0.027196	0.071428
	O438	O	1.204910	0.197876	0.200757
	H439	H	1.164928	0.207233	0.213941
	H440	H	1.229133	0.214226	0.229280
	O441	O	0.430422	0.345746	0.409208
	H442	H	0.435306	0.357797	0.416385
	H443	H	0.422819	0.352021	0.425835
	O444	O	0.007038	0.896203	1.043855
	H445	H	0.003588	0.899466	1.038911
	H446	H	0.015771	0.891046	1.045071
	O447	O	0.530053	0.711782	0.714128
	H448	H	0.522428	0.737336	0.742014
	H449	H	0.527554	0.693069	0.709560
	O450	O	0.037183	0.211011	0.216714
	H451	H	0.027791	0.230040	0.229828
	H452	H	0.015034	0.210009	0.212336
	O453	O	0.565314	0.659178	0.478951
	H454	H	0.555533	0.643765	0.487168
	H455	H	0.546351	0.661966	0.474340
	O456	O	0.690389	0.383601	0.470902
	H457	H	0.680579	0.388212	0.488045
	H458	H	0.680308	0.385742	0.491731
	O459	O	0.671160	0.679766	0.341440
	H460	H	0.656126	0.666433	0.363121
	H461	H	0.667968	0.660762	0.355567
	O462	O	0.719989	0.511400	0.645181
	H463	H	0.706339	0.536869	0.639861
	H464	H	0.744278	0.522890	0.665059
	O465	O	1.025518	0.007487	0.209223
	H466	H	1.027367	0.006952	0.210479
	H467	H	1.028654	0.008189	0.214871
