data_Molecule from HDF5

_cell_length_a		16.282748
_cell_length_b		16.284216
_cell_length_c		16.206492
_cell_angle_alpha	89.914503
_cell_angle_beta	89.983825
_cell_angle_gamma	90.012182
_symmetry_space_group_name_H-M	'P 1'
_symmetry_Int_Tables_number		1

loop_
	_symmetry_equiv_pos_as_xyz
	x,y,z

loop_
	_atom_site_label
	_atom_site_type_symbol
	_atom_site_fract_x
	_atom_site_fract_y
	_atom_site_fract_z
	H0	H	0.403094	0.835619	0.712753
	H1	H	0.597471	0.164150	0.712854
	H2	H	0.597491	0.835471	0.285949
	H3	H	0.402133	0.163846	0.284917
	H4	H	0.714187	0.402636	0.836293
	H5	H	0.713903	0.598573	0.164293
	H6	H	0.285225	0.598783	0.836569
	H7	H	0.286781	0.401316	0.164390
	H8	H	0.836354	0.715543	0.401780
	H9	H	0.163269	0.714588	0.598241
	H10	H	0.836983	0.285620	0.599440
	H11	H	0.162919	0.285157	0.400777
	H12	H	0.836278	0.403365	0.713713
	H13	H	0.164031	0.598374	0.713895
	H14	H	0.836080	0.597901	0.286863
	H15	H	0.164155	0.403299	0.287180
	H16	H	0.401757	0.713193	0.835445
	H17	H	0.597193	0.713054	0.164035
	H18	H	0.598655	0.286678	0.834666
	H19	H	0.401735	0.284557	0.163622
	H20	H	0.715606	0.836920	0.400089
	H21	H	0.714968	0.162899	0.598078
	H22	H	0.284602	0.837016	0.599292
	H23	H	0.286174	0.163606	0.400856
	H24	H	0.902358	0.336415	0.214943
	H25	H	0.096178	0.664383	0.212649
	H26	H	0.098047	0.336781	0.786727
	H27	H	0.902506	0.663968	0.787175
	H28	H	0.212408	0.903102	0.334908
	H29	H	0.214779	0.098092	0.663884
	H30	H	0.786259	0.098768	0.335747
	H31	H	0.785899	0.901167	0.663498
	H32	H	0.336757	0.214941	0.899711
	H33	H	0.663309	0.213418	0.097271
	H34	H	0.337111	0.784015	0.099287
	H35	H	0.662563	0.783706	0.900095
	H36	H	0.336464	0.902239	0.213472
	H37	H	0.664081	0.097332	0.212973
	H38	H	0.336226	0.097054	0.786184
	H39	H	0.663844	0.902308	0.785842
	H40	H	0.901638	0.215224	0.335891
	H41	H	0.098581	0.213537	0.664304
	H42	H	0.099041	0.785704	0.335637
	H43	H	0.902571	0.786656	0.664696
	H44	H	0.214217	0.336714	0.902520
	H45	H	0.215223	0.663132	0.099590
	H46	H	0.784523	0.336759	0.101008
	H47	H	0.786255	0.663469	0.903032
	H48	H	0.398224	0.119221	0.591281
	H49	H	0.606584	0.878192	0.597303
	H50	H	0.588739	0.114394	0.408566
	H51	H	0.407471	0.885887	0.414845
	H52	H	0.592476	0.412938	0.114472
	H53	H	0.583601	0.582923	0.888788
	H54	H	0.404696	0.586992	0.116278
	H55	H	0.408032	0.421472	0.886571
	H56	H	0.117374	0.595493	0.407291
	H57	H	0.881514	0.603256	0.588916
	H58	H	0.118515	0.403056	0.595497
	H59	H	0.882315	0.403871	0.409748
	H60	H	0.115490	0.407147	0.588460
	H61	H	0.886705	0.585658	0.588947
	H62	H	0.116930	0.592528	0.407272
	H63	H	0.884604	0.410244	0.409385
	H64	H	0.412964	0.594152	0.116488
	H65	H	0.589185	0.605057	0.879780
	H66	H	0.585623	0.401800	0.116415
	H67	H	0.418652	0.397029	0.882725
	H68	H	0.598767	0.117180	0.409016
	H69	H	0.582697	0.883576	0.601585
	H70	H	0.412121	0.117353	0.600515
	H71	H	0.397783	0.880350	0.405233
	H72	H	0.906472	0.618776	0.101106
	H73	H	0.094562	0.383041	0.094026
	H74	H	0.089355	0.612127	0.922285
	H75	H	0.903857	0.384660	0.916027
	H76	H	0.094823	0.896809	0.619609
	H77	H	0.091810	0.084924	0.385647
	H78	H	0.895334	0.084405	0.618532
	H79	H	0.909894	0.904592	0.382268
	H80	H	0.616901	0.086578	0.899937
	H81	H	0.380746	0.101018	0.091458
	H82	H	0.615847	0.903329	0.085421
	H83	H	0.382952	0.902571	0.909359
	H84	H	0.615933	0.913240	0.095618
	H85	H	0.386420	0.088088	0.085503
	H86	H	0.620514	0.102094	0.904378
	H87	H	0.384272	0.909896	0.908063
	H88	H	0.919388	0.088004	0.612132
	H89	H	0.086284	0.099375	0.383013
	H90	H	0.101417	0.914340	0.617761
	H91	H	0.904289	0.907105	0.381180
	H92	H	0.106758	0.622067	0.905007
	H93	H	0.094339	0.382126	0.095422
	H94	H	0.912497	0.614009	0.089115
	H95	H	0.900163	0.378681	0.901114
	H96	H	0.412088	0.112811	0.584421
	H97	H	0.592230	0.887633	0.579056
	H98	H	0.593063	0.118536	0.400224
	H99	H	0.412069	0.882816	0.400847
	H100	H	0.598140	0.402227	0.120579
	H101	H	0.606907	0.587518	0.880059
	H102	H	0.403235	0.596653	0.119862
	H103	H	0.392786	0.402131	0.876892
	H104	H	0.116988	0.593959	0.404945
	H105	H	0.880816	0.593654	0.604102
	H106	H	0.116835	0.411306	0.596136
	H107	H	0.881913	0.406459	0.403919
	H108	H	0.898917	0.618115	0.089222
	H109	H	0.093383	0.383112	0.094524
	H110	H	0.082167	0.615737	0.897240
	H111	H	0.915272	0.385019	0.905216
	H112	H	0.083019	0.910474	0.613555
	H113	H	0.100621	0.096114	0.379423
	H114	H	0.905883	0.107056	0.621929
	H115	H	0.908513	0.910658	0.383884
	H116	H	0.614210	0.091916	0.915465
	H117	H	0.382262	0.088219	0.100199
	H118	H	0.620042	0.900223	0.097910
	H119	H	0.381771	0.905762	0.902126
	C120	C	0.378462	0.008423	0.621193
	C121	C	0.621673	0.991533	0.620749
	C122	C	0.621735	0.008122	0.377913
	C123	C	0.378286	0.991586	0.378283
	C124	C	0.621017	0.378163	0.008267
	C125	C	0.621355	0.620591	0.991522
	C126	C	0.378323	0.621228	0.008873
	C127	C	0.378534	0.378371	0.991031
	C128	C	0.008691	0.622221	0.378677
	C129	C	0.991335	0.622303	0.622133
	C130	C	0.008919	0.379022	0.621952
	C131	C	0.991151	0.378661	0.378955
	C132	C	0.877897	0.508762	0.121832
	C133	C	0.121653	0.491447	0.122108
	C134	C	0.121423	0.508640	0.879595
	C135	C	0.878318	0.491365	0.879334
	C136	C	0.121133	0.878890	0.508304
	C137	C	0.121438	0.121750	0.491159
	C138	C	0.878747	0.121835	0.508590
	C139	C	0.878896	0.878754	0.491332
	C140	C	0.508787	0.121558	0.877857
	C141	C	0.491425	0.121136	0.121040
	C142	C	0.508989	0.877511	0.121563
	C143	C	0.491333	0.877983	0.878071
	C144	C	0.381588	0.884954	0.675670
	C145	C	0.618555	0.114999	0.675346
	C146	C	0.618633	0.884792	0.323405
	C147	C	0.381602	0.114818	0.322854
	C148	C	0.676582	0.381369	0.884944
	C149	C	0.675840	0.618434	0.115198
	C150	C	0.323295	0.619007	0.885370
	C151	C	0.324223	0.380930	0.115048
	C152	C	0.885288	0.677375	0.381453
	C153	C	0.114380	0.677294	0.619437
	C154	C	0.885620	0.323883	0.619680
	C155	C	0.114522	0.323822	0.381177
	C156	C	0.885366	0.382202	0.676546
	C157	C	0.114823	0.619270	0.676674
	C158	C	0.884804	0.618968	0.324513
	C159	C	0.114803	0.382255	0.324479
	C160	C	0.381372	0.675595	0.884736
	C161	C	0.618400	0.675694	0.114994
	C162	C	0.618933	0.323987	0.884245
	C163	C	0.381199	0.322919	0.114673
	C164	C	0.677227	0.885197	0.380114
	C165	C	0.676483	0.114553	0.618112
	C166	C	0.322849	0.885414	0.619105
	C167	C	0.323712	0.114877	0.380118
	C168	C	0.881209	0.385248	0.176976
	C169	C	0.117875	0.615217	0.175967
	C170	C	0.118861	0.385431	0.824586
	C171	C	0.881778	0.615073	0.824886
	C172	C	0.175556	0.882052	0.384216
	C173	C	0.176730	0.118751	0.614982
	C174	C	0.823795	0.119498	0.385020
	C175	C	0.823714	0.881288	0.614834
	C176	C	0.385478	0.176673	0.879696
	C177	C	0.614710	0.175908	0.118269
	C178	C	0.385559	0.822597	0.119316
	C179	C	0.614445	0.822974	0.880512
	C180	C	0.385422	0.880977	0.176125
	C181	C	0.614896	0.117929	0.175388
	C182	C	0.385296	0.118190	0.823185
	C183	C	0.614905	0.881260	0.823484
	C184	C	0.881254	0.177180	0.384956
	C185	C	0.119349	0.176225	0.615246
	C186	C	0.118821	0.824028	0.384604
	C187	C	0.881539	0.824367	0.615181
	C188	C	0.176795	0.385588	0.881650
	C189	C	0.176537	0.614594	0.119473
	C190	C	0.822670	0.385480	0.120550
	C191	C	0.823846	0.614685	0.882203
	C192	C	0.400895	0.094268	0.598670
	C193	C	0.600131	0.905287	0.599185
	C194	C	0.600131	0.094555	0.399558
	C195	C	0.399465	0.905236	0.400468
	C196	C	0.598553	0.399366	0.094725
	C197	C	0.599603	0.598377	0.905240
	C198	C	0.400313	0.599276	0.095297
	C199	C	0.400057	0.400432	0.904442
	C200	C	0.094827	0.600295	0.400266
	C201	C	0.905013	0.600659	0.600436
	C202	C	0.094853	0.400741	0.599877
	C203	C	0.905152	0.400449	0.401319
	C204	C	0.899641	0.594771	0.099780
	C205	C	0.100421	0.405039	0.100904
	C206	C	0.099316	0.594511	0.901668
	C207	C	0.900044	0.405098	0.900955
	C208	C	0.099300	0.900639	0.594785
	C209	C	0.099430	0.099934	0.405000
	C210	C	0.900300	0.099729	0.595157
	C211	C	0.901151	0.900912	0.404721
	C212	C	0.595041	0.099981	0.899987
	C213	C	0.405535	0.099023	0.098953
	C214	C	0.595018	0.899096	0.099393
	C215	C	0.405320	0.899717	0.900010
	Zn216	Zn	0.500290	-0.000018	0.749769
	Zn217	Zn	0.499937	-0.000339	0.250051
	Zn218	Zn	0.749520	0.499850	0.000698
	Zn219	Zn	0.250229	0.500338	0.000568
	Zn220	Zn	0.000045	0.750499	0.500015
	Zn221	Zn	0.000181	0.250184	0.500354
	Zn222	Zn	0.000365	0.500180	0.750507
	Zn223	Zn	-0.000380	0.500394	0.250463
	Zn224	Zn	0.499896	0.749174	-0.000455
	Zn225	Zn	0.499472	0.249720	-0.000932
	Zn226	Zn	0.750712	-0.000367	0.499617
	Zn227	Zn	0.249769	0.000271	0.499476
	N228	N	0.415450	0.962259	0.677014
	N229	N	0.585226	0.037388	0.676997
	N230	N	0.584709	0.962187	0.322132
	N231	N	0.414697	0.037067	0.321650
	N232	N	0.677970	0.414250	0.963065
	N233	N	0.677854	0.585188	0.037321
	N234	N	0.321640	0.585784	0.963310
	N235	N	0.322645	0.414821	0.037241
	N236	N	0.963320	0.679299	0.414293
	N237	N	0.036791	0.678935	0.586171
	N238	N	0.963459	0.321772	0.586427
	N239	N	0.036659	0.321434	0.414095
	N240	N	0.962956	0.415572	0.678234
	N241	N	0.037160	0.585681	0.678601
	N242	N	0.962345	0.585389	0.322493
	N243	N	0.037070	0.415625	0.322904
	N244	N	0.414876	0.677151	0.962639
	N245	N	0.584835	0.677018	0.037094
	N246	N	0.584933	0.321915	0.961964
	N247	N	0.414195	0.321228	0.036507
	N248	N	0.679315	0.963033	0.413129
	N249	N	0.678277	0.036932	0.584734
	N250	N	0.321020	0.963283	0.585718
	N251	N	0.321515	0.037304	0.413826
	N252	N	0.914918	0.462812	0.177880
	N253	N	0.084329	0.537691	0.177597
	N254	N	0.085129	0.462795	0.823250
	N255	N	0.914928	0.537325	0.822855
	N256	N	0.177015	0.915752	0.462121
	N257	N	0.178132	0.085581	0.536995
	N258	N	0.822210	0.085827	0.462812
	N259	N	0.822160	0.914549	0.536625
	N260	N	0.463356	0.178821	0.913015
	N261	N	0.537057	0.177681	0.084861
	N262	N	0.463272	0.820296	0.085993
	N263	N	0.536735	0.820809	0.913848
	N264	N	0.463080	0.914358	0.177592
	N265	N	0.537244	0.084563	0.177425
	N266	N	0.462770	0.084610	0.822071
	N267	N	0.537485	0.914896	0.822090
	N268	N	0.914538	0.178819	0.463003
	N269	N	0.085378	0.178044	0.537426
	N270	N	0.085769	0.822181	0.462561
	N271	N	0.915014	0.822688	0.537379
	N272	N	0.178457	0.463157	0.915169
	N273	N	0.179183	0.536612	0.087004
	N274	N	0.820747	0.462972	0.086798
	N275	N	0.821786	0.536901	0.915292
