data_Molecule from HDF5

_cell_length_a		16.322082
_cell_length_b		16.158266
_cell_length_c		16.223302
_cell_angle_alpha	89.648405
_cell_angle_beta	89.682015
_cell_angle_gamma	90.333518
_symmetry_space_group_name_H-M	'P 1'
_symmetry_Int_Tables_number		1

loop_
	_symmetry_equiv_pos_as_xyz
	x,y,z

loop_
	_atom_site_label
	_atom_site_type_symbol
	_atom_site_fract_x
	_atom_site_fract_y
	_atom_site_fract_z
	H0	H	0.401635	0.834496	0.716301
	H1	H	0.601435	0.163841	0.711921
	H2	H	0.600755	0.833165	0.287870
	H3	H	0.405719	0.162346	0.285129
	H4	H	0.720943	0.397555	0.837980
	H5	H	0.720084	0.600502	0.163216
	H6	H	0.289797	0.596348	0.837133
	H7	H	0.285546	0.391378	0.162807
	H8	H	0.840561	0.714639	0.401275
	H9	H	0.167253	0.714854	0.598140
	H10	H	0.839818	0.281797	0.601795
	H11	H	0.166473	0.285806	0.403067
	H12	H	0.840507	0.396603	0.719802
	H13	H	0.167096	0.598060	0.715480
	H14	H	0.840805	0.600006	0.283995
	H15	H	0.165059	0.398615	0.284307
	H16	H	0.404321	0.713314	0.838326
	H17	H	0.602251	0.711641	0.165017
	H18	H	0.601450	0.286611	0.836126
	H19	H	0.405196	0.282878	0.164905
	H20	H	0.720180	0.835535	0.398686
	H21	H	0.719632	0.162215	0.600329
	H22	H	0.283904	0.836020	0.602881
	H23	H	0.290597	0.163470	0.399766
	H24	H	0.901137	0.334180	0.218149
	H25	H	0.104349	0.662321	0.214224
	H26	H	0.102861	0.333600	0.785968
	H27	H	0.904783	0.662045	0.785142
	H28	H	0.218615	0.899239	0.337829
	H29	H	0.220484	0.102345	0.662562
	H30	H	0.787044	0.102978	0.339016
	H31	H	0.784446	0.894930	0.663462
	H32	H	0.339979	0.213666	0.902590
	H33	H	0.666626	0.214107	0.098662
	H34	H	0.341161	0.778242	0.103233
	H35	H	0.666357	0.782711	0.899398
	H36	H	0.341218	0.893408	0.220637
	H37	H	0.666341	0.099232	0.216313
	H38	H	0.340731	0.100373	0.784353
	H39	H	0.665194	0.898828	0.782173
	H40	H	0.905539	0.214267	0.337756
	H41	H	0.100775	0.211105	0.665255
	H42	H	0.104217	0.784751	0.337512
	H43	H	0.901997	0.781603	0.664123
	H44	H	0.217622	0.332314	0.900466
	H45	H	0.223207	0.659328	0.101656
	H46	H	0.784675	0.335315	0.104242
	H47	H	0.788907	0.661624	0.899224
	H48	H	0.414995	0.118999	0.609545
	H49	H	0.594300	0.884010	0.585402
	H50	H	0.595538	0.115651	0.405209
	H51	H	0.416125	0.880529	0.402570
	H52	H	0.599290	0.404908	0.118818
	H53	H	0.590746	0.585254	0.888334
	H54	H	0.424583	0.581167	0.111237
	H55	H	0.415956	0.405455	0.885001
	H56	H	0.119841	0.587538	0.400253
	H57	H	0.890521	0.586525	0.589770
	H58	H	0.117347	0.406700	0.588102
	H59	H	0.887313	0.403970	0.413672
	H60	H	0.119025	0.410297	0.600102
	H61	H	0.887629	0.586163	0.598803
	H62	H	0.121988	0.599979	0.407260
	H63	H	0.887614	0.409964	0.410334
	H64	H	0.410067	0.599789	0.122333
	H65	H	0.596397	0.598076	0.881302
	H66	H	0.593567	0.409550	0.116159
	H67	H	0.406963	0.400914	0.880899
	H68	H	0.593842	0.114793	0.409757
	H69	H	0.599268	0.878722	0.594747
	H70	H	0.423508	0.109206	0.581147
	H71	H	0.413134	0.885432	0.421235
	H72	H	0.918088	0.613861	0.092513
	H73	H	0.093238	0.380297	0.097015
	H74	H	0.110126	0.616515	0.914323
	H75	H	0.908630	0.379700	0.911203
	H76	H	0.099484	0.908282	0.618782
	H77	H	0.094821	0.087088	0.385702
	H78	H	0.914515	0.075388	0.613019
	H79	H	0.918704	0.903847	0.385246
	H80	H	0.618246	0.090750	0.908475
	H81	H	0.385827	0.095449	0.092883
	H82	H	0.620129	0.902641	0.094926
	H83	H	0.389861	0.908977	0.912423
	H84	H	0.617030	0.905895	0.088635
	H85	H	0.390098	0.085340	0.088511
	H86	H	0.619989	0.091243	0.903541
	H87	H	0.386260	0.905178	0.906110
	H88	H	0.919137	0.100434	0.618671
	H89	H	0.093771	0.098110	0.382279
	H90	H	0.090870	0.912806	0.614702
	H91	H	0.904749	0.905485	0.381736
	H92	H	0.094772	0.617107	0.897335
	H93	H	0.090919	0.380967	0.091197
	H94	H	0.909641	0.613864	0.086907
	H95	H	0.913062	0.381457	0.910347
	H96	H	0.394471	0.119830	0.585855
	H97	H	0.588025	0.881761	0.595275
	H98	H	0.598668	0.116300	0.409258
	H99	H	0.398043	0.877234	0.410144
	H100	H	0.592299	0.402465	0.118117
	H101	H	0.604627	0.585895	0.883372
	H102	H	0.399861	0.576483	0.118888
	H103	H	0.407533	0.410419	0.884052
	H104	H	0.115858	0.588934	0.414221
	H105	H	0.887003	0.594753	0.593925
	H106	H	0.122111	0.399095	0.596768
	H107	H	0.884288	0.404514	0.406810
	H108	H	0.908859	0.617605	0.096304
	H109	H	0.097019	0.379590	0.092145
	H110	H	0.088337	0.608644	0.916919
	H111	H	0.911480	0.381703	0.914517
	H112	H	0.090719	0.902623	0.617981
	H113	H	0.103496	0.092254	0.381170
	H114	H	0.896364	0.090284	0.623474
	H115	H	0.911273	0.916518	0.387331
	H116	H	0.619965	0.096080	0.906641
	H117	H	0.387479	0.086017	0.100204
	H118	H	0.618844	0.909582	0.094896
	H119	H	0.387568	0.900980	0.912917
	C120	C	0.380251	0.007987	0.622383
	C121	C	0.623706	0.990011	0.620931
	C122	C	0.624660	0.007126	0.379330
	C123	C	0.381700	0.989732	0.380369
	C124	C	0.624788	0.376974	0.009536
	C125	C	0.626030	0.619676	0.992441
	C126	C	0.382277	0.616820	0.009790
	C127	C	0.381158	0.374801	0.991392
	C128	C	0.011753	0.621226	0.378427
	C129	C	0.995819	0.619485	0.622638
	C130	C	0.011664	0.375563	0.624575
	C131	C	0.994078	0.377276	0.380626
	C132	C	0.881126	0.507081	0.122839
	C133	C	0.124570	0.488700	0.122359
	C134	C	0.125627	0.505530	0.879951
	C135	C	0.882785	0.489527	0.881178
	C136	C	0.123928	0.878603	0.509182
	C137	C	0.125298	0.121110	0.491560
	C138	C	0.881499	0.119646	0.510327
	C139	C	0.881049	0.877334	0.492274
	C140	C	0.511563	0.121219	0.878151
	C141	C	0.495430	0.119007	0.122054
	C142	C	0.511628	0.874971	0.123538
	C143	C	0.494951	0.876041	0.879488
	C144	C	0.380963	0.884139	0.679081
	C145	C	0.622090	0.114116	0.675218
	C146	C	0.621930	0.882910	0.324549
	C147	C	0.385163	0.113380	0.323475
	C148	C	0.681713	0.378587	0.886655
	C149	C	0.682128	0.619631	0.114622
	C150	C	0.327448	0.616340	0.886286
	C151	C	0.324405	0.373329	0.114332
	C152	C	0.889283	0.676855	0.380739
	C153	C	0.118424	0.676171	0.619300
	C154	C	0.888835	0.319472	0.622717
	C155	C	0.117475	0.322950	0.382493
	C156	C	0.889066	0.376658	0.681139
	C157	C	0.118452	0.618146	0.677506
	C158	C	0.889336	0.619733	0.322401
	C159	C	0.116594	0.378898	0.323270
	C160	C	0.384651	0.674033	0.886800
	C161	C	0.623058	0.674518	0.115781
	C162	C	0.622532	0.323119	0.885646
	C163	C	0.383879	0.319123	0.115307
	C164	C	0.681113	0.884051	0.379916
	C165	C	0.680698	0.113396	0.619535
	C166	C	0.322776	0.884817	0.622211
	C167	C	0.328184	0.114101	0.380889
	C168	C	0.881529	0.383600	0.179893
	C169	C	0.124184	0.612453	0.177109
	C170	C	0.123110	0.382369	0.823896
	C171	C	0.884813	0.613033	0.823691
	C172	C	0.180459	0.879732	0.386512
	C173	C	0.181655	0.120619	0.614240
	C174	C	0.825603	0.121005	0.387586
	C175	C	0.823421	0.876242	0.614698
	C176	C	0.389031	0.176281	0.881554
	C177	C	0.617851	0.175841	0.119396
	C178	C	0.389880	0.816833	0.123101
	C179	C	0.617368	0.820594	0.879871
	C180	C	0.389608	0.874424	0.181321
	C181	C	0.617830	0.118364	0.177698
	C182	C	0.389181	0.119587	0.823068
	C183	C	0.616944	0.878324	0.821372
	C184	C	0.884287	0.176583	0.387152
	C185	C	0.121642	0.174832	0.615503
	C186	C	0.123087	0.823199	0.386220
	C187	C	0.881816	0.819670	0.615019
	C188	C	0.180318	0.381789	0.880738
	C189	C	0.183515	0.611105	0.121226
	C190	C	0.823368	0.384300	0.123432
	C191	C	0.827258	0.612919	0.880352
	C192	C	0.404036	0.093842	0.599111
	C193	C	0.600605	0.903837	0.598409
	C194	C	0.602719	0.093286	0.401470
	C195	C	0.402812	0.903579	0.404363
	C196	C	0.601778	0.399002	0.095357
	C197	C	0.603768	0.596736	0.906571
	C198	C	0.404852	0.592793	0.095417
	C199	C	0.403507	0.398571	0.905544
	C200	C	0.097121	0.598877	0.400751
	C201	C	0.910443	0.596086	0.600539
	C202	C	0.097287	0.398624	0.601848
	C203	C	0.908657	0.399675	0.403509
	C204	C	0.905176	0.593002	0.098836
	C205	C	0.100603	0.402506	0.099906
	C206	C	0.103952	0.591537	0.902926
	C207	C	0.904697	0.403469	0.904935
	C208	C	0.100432	0.901248	0.594980
	C209	C	0.103716	0.098925	0.405406
	C210	C	0.903356	0.095692	0.595965
	C211	C	0.904581	0.901722	0.406855
	C212	C	0.597178	0.099169	0.899799
	C213	C	0.409863	0.095751	0.100212
	C214	C	0.596716	0.899101	0.099833
	C215	C	0.409957	0.898561	0.903336
	Zn216	Zn	0.502776	-0.000850	0.749716
	Zn217	Zn	0.502947	-0.002525	0.251925
	Zn218	Zn	0.753673	0.498590	0.000953
	Zn219	Zn	0.253441	0.495608	0.000622
	Zn220	Zn	0.003402	0.749839	0.500441
	Zn221	Zn	0.003103	0.247920	0.501249
	Zn222	Zn	0.003644	0.497877	0.753294
	Zn223	Zn	0.002566	0.498343	0.250726
	Zn224	Zn	0.503793	0.745800	0.001634
	Zn225	Zn	0.503436	0.249038	0.000670
	Zn226	Zn	0.752778	-0.001182	0.500517
	Zn227	Zn	0.252352	-0.000582	0.500146
	N228	N	0.415810	0.961695	0.679507
	N229	N	0.587304	0.036271	0.676288
	N230	N	0.587772	0.960519	0.323863
	N231	N	0.417704	0.035086	0.322911
	N232	N	0.683182	0.411301	0.964610
	N233	N	0.683795	0.586141	0.036860
	N234	N	0.326098	0.581263	0.963704
	N235	N	0.322377	0.407373	0.036328
	N236	N	0.966391	0.678076	0.414559
	N237	N	0.041101	0.677223	0.585991
	N238	N	0.966214	0.318732	0.588237
	N239	N	0.040388	0.321640	0.417275
	N240	N	0.966402	0.410738	0.682418
	N241	N	0.041156	0.583650	0.679764
	N242	N	0.966423	0.585862	0.320940
	N243	N	0.039041	0.411885	0.321980
	N244	N	0.417831	0.674610	0.964565
	N245	N	0.588923	0.674742	0.038595
	N246	N	0.587712	0.322062	0.963004
	N247	N	0.418401	0.319941	0.038017
	N248	N	0.682894	0.962190	0.413208
	N249	N	0.681852	0.035172	0.586467
	N250	N	0.321883	0.962855	0.588018
	N251	N	0.325915	0.036162	0.415486
	N252	N	0.916873	0.461102	0.179740
	N253	N	0.088390	0.535254	0.177938
	N254	N	0.089727	0.460245	0.823358
	N255	N	0.918565	0.535307	0.824189
	N256	N	0.180929	0.913646	0.464073
	N257	N	0.183953	0.087783	0.536161
	N258	N	0.823701	0.086072	0.465139
	N259	N	0.822665	0.911203	0.537122
	N260	N	0.466166	0.177245	0.915307
	N261	N	0.540752	0.176134	0.085400
	N262	N	0.466664	0.817351	0.087790
	N263	N	0.540528	0.818922	0.915166
	N264	N	0.466254	0.910150	0.181552
	N265	N	0.540678	0.083737	0.179519
	N266	N	0.466411	0.086089	0.820597
	N267	N	0.539734	0.911989	0.820855
	N268	N	0.918397	0.175811	0.464405
	N269	N	0.087545	0.175443	0.538239
	N270	N	0.088374	0.822520	0.463615
	N271	N	0.916856	0.820220	0.537886
	N272	N	0.182122	0.459406	0.914896
	N273	N	0.183991	0.532918	0.087938
	N274	N	0.823107	0.462141	0.088499
	N275	N	0.825788	0.535199	0.915302
	O276	O	0.926754	0.833617	0.010623
	H277	H	0.930416	0.834951	-0.014185
	H278	H	0.923037	0.852690	0.010523
	O279	O	0.522930	0.499346	0.528310
	H280	H	0.524658	0.509597	0.527363
	H281	H	0.520283	0.494669	0.527420
	O282	O	0.965561	1.074301	-0.147839
	H283	H	0.966419	1.091464	-0.149125
	H284	H	0.945758	1.069875	-0.155883
	O285	O	1.028260	0.123130	1.026718
	H286	H	1.030654	0.125041	1.024707
	H287	H	1.035346	0.127339	1.026910
	O288	O	0.485619	0.520770	0.521543
	H289	H	0.495766	0.514286	0.510542
	H290	H	0.491823	0.517978	0.522233
	O291	O	0.535510	0.550817	0.473828
	H292	H	0.537442	0.542730	0.465543
	H293	H	0.548217	0.551672	0.479748
	O294	O	0.550077	0.467508	0.514935
	H295	H	0.551724	0.458766	0.520720
	H296	H	0.540477	0.473800	0.526644
	O297	O	0.048818	0.121916	0.990425
	H298	H	0.053325	0.129497	0.986538
	H299	H	0.051780	0.100337	0.995134
	O300	O	0.496213	0.553846	0.512358
	H301	H	0.499044	0.545051	0.508130
	H302	H	0.486247	0.558511	0.519539
	O303	O	0.957747	0.975158	-0.106004
	H304	H	0.963332	0.963817	-0.088890
	H305	H	0.948832	0.998404	-0.093401
	O306	O	0.130662	0.952056	0.952542
	H307	H	0.129148	0.958615	0.952375
	H308	H	0.137890	0.951697	0.954806
	O309	O	0.048269	0.072816	1.101001
	H310	H	0.045688	0.066201	1.095954
	H311	H	0.056109	0.063033	1.094444
	O312	O	0.087899	-0.117402	0.009226
	H313	H	0.089417	-0.130090	0.000798
	H314	H	0.091938	-0.142372	0.004153
	O315	O	0.926821	-0.080213	-0.110518
	H316	H	0.940662	-0.071653	-0.105139
	H317	H	0.918703	-0.083362	-0.123809
	O318	O	0.999017	1.115132	1.066300
	H319	H	0.985684	1.107369	1.064312
	H320	H	1.010712	1.121501	1.069283
	O321	O	-0.181179	-0.110781	1.057262
	H322	H	-0.176014	-0.117359	1.050414
	H323	H	-0.190053	-0.109816	1.056981
	O324	O	0.560119	0.494894	0.418524
	H325	H	0.556819	0.492973	0.411024
	H326	H	0.558129	0.485664	0.408157
	O327	O	-0.046866	-0.072191	-0.026223
	H328	H	-0.036627	-0.059018	-0.023839
	H329	H	-0.053619	-0.067136	-0.036891
	O330	O	0.505881	0.411602	0.519564
	H331	H	0.507843	0.408842	0.519870
	H332	H	0.503614	0.411143	0.509562
	O333	O	0.149084	0.898415	1.044927
	H334	H	0.160078	0.891554	1.037808
	H335	H	0.148309	0.901930	1.044760
	O336	O	0.077717	0.033837	-0.081683
	H337	H	0.079732	0.034873	-0.061898
	H338	H	0.075671	0.027514	-0.090764
	O339	O	0.492423	0.509242	0.527830
	H340	H	0.485668	0.512828	0.532913
	H341	H	0.502185	0.512005	0.522151
	O342	O	1.014313	1.044075	0.913692
	H343	H	1.025080	1.041335	0.911904
	H344	H	1.005787	1.042992	0.920600
	O345	O	1.029196	1.026887	-0.143821
	H346	H	1.035862	1.015125	-0.155602
	H347	H	1.016970	1.022514	-0.133609
	O348	O	0.477533	0.539394	0.576228
	H349	H	0.475086	0.535479	0.579061
	H350	H	0.484744	0.539197	0.572795
	O351	O	0.024991	1.089592	-0.041070
	H352	H	0.026204	1.101321	-0.039928
	H353	H	0.019593	1.086762	-0.060553
	O354	O	0.441781	0.558179	0.494834
	H355	H	0.455268	0.570656	0.503899
	H356	H	0.440699	0.562690	0.497571
	O357	O	1.040748	0.096323	1.146472
	H358	H	1.050905	0.101802	1.153853
	H359	H	1.050685	0.100138	1.138261
	O360	O	0.426409	0.520947	0.488303
	H361	H	0.409699	0.530103	0.491527
	H362	H	0.434332	0.529216	0.502916
	O363	O	0.496752	0.549439	0.592289
	H364	H	0.505405	0.535973	0.593836
	H365	H	0.501741	0.557600	0.593982
	O366	O	1.010734	0.961826	1.095398
	H367	H	1.013546	0.974156	1.105338
	H368	H	1.016184	0.935370	1.083676
	O369	O	0.938908	-0.083230	1.099840
	H370	H	0.917732	-0.092164	1.099752
	H371	H	0.935878	-0.084686	1.104777
	O372	O	-0.153738	-0.074537	0.168215
	H373	H	-0.167026	-0.061244	0.180106
	H374	H	-0.144523	-0.081449	0.176909
	O375	O	1.081387	-0.096965	0.021341
	H376	H	1.079295	-0.085249	0.020936
	H377	H	1.072567	-0.099628	0.037954
	O378	O	0.532412	0.416685	0.458179
	H379	H	0.513978	0.413775	0.456492
	H380	H	0.530699	0.423199	0.458272
	O381	O	0.484794	0.527567	0.593484
	H382	H	0.478876	0.532071	0.591514
	H383	H	0.483933	0.525395	0.593718
