data_Molecule from HDF5

_cell_length_a		16.152537
_cell_length_b		16.113697
_cell_length_c		16.349879
_cell_angle_alpha	90.025595
_cell_angle_beta	89.481966
_cell_angle_gamma	89.708767
_symmetry_space_group_name_H-M	'P 1'
_symmetry_Int_Tables_number		1

loop_
	_symmetry_equiv_pos_as_xyz
	x,y,z

loop_
	_atom_site_label
	_atom_site_type_symbol
	_atom_site_fract_x
	_atom_site_fract_y
	_atom_site_fract_z
	H0	H	0.421604	0.833744	0.717131
	H1	H	0.620612	0.162420	0.715220
	H2	H	0.625709	0.834452	0.281601
	H3	H	0.419446	0.161620	0.286732
	H4	H	0.737671	0.398586	0.838703
	H5	H	0.730140	0.599928	0.164455
	H6	H	0.304326	0.597969	0.836462
	H7	H	0.301212	0.400409	0.163737
	H8	H	0.854742	0.712679	0.409438
	H9	H	0.185892	0.706552	0.595883
	H10	H	0.853081	0.286606	0.599757
	H11	H	0.184931	0.285315	0.402496
	H12	H	0.854375	0.398236	0.718037
	H13	H	0.183646	0.596626	0.714639
	H14	H	0.854771	0.603537	0.288221
	H15	H	0.182417	0.395456	0.283274
	H16	H	0.421706	0.713380	0.836453
	H17	H	0.613359	0.713949	0.163617
	H18	H	0.619348	0.283938	0.836990
	H19	H	0.417838	0.284858	0.163810
	H20	H	0.735441	0.832012	0.401671
	H21	H	0.730526	0.164677	0.595051
	H22	H	0.309800	0.831703	0.600191
	H23	H	0.307608	0.162139	0.404019
	H24	H	0.916385	0.334350	0.219415
	H25	H	0.116682	0.663309	0.215990
	H26	H	0.120023	0.334236	0.785632
	H27	H	0.916833	0.662637	0.786571
	H28	H	0.238054	0.897803	0.338754
	H29	H	0.234103	0.095844	0.664672
	H30	H	0.808222	0.096448	0.336920
	H31	H	0.803621	0.899190	0.664011
	H32	H	0.353570	0.210674	0.906977
	H33	H	0.684363	0.212211	0.096228
	H34	H	0.353029	0.789183	0.097691
	H35	H	0.683796	0.783737	0.901231
	H36	H	0.357145	0.897502	0.220077
	H37	H	0.684915	0.098459	0.213071
	H38	H	0.356824	0.101415	0.785451
	H39	H	0.684495	0.897157	0.785298
	H40	H	0.923798	0.212778	0.337334
	H41	H	0.115856	0.211838	0.664848
	H42	H	0.122226	0.780678	0.339384
	H43	H	0.923360	0.787555	0.665937
	H44	H	0.231566	0.333560	0.903129
	H45	H	0.226681	0.665710	0.095693
	H46	H	0.804584	0.333167	0.099918
	H47	H	0.807506	0.665161	0.906280
	H48	H	0.424630	0.115668	0.589373
	H49	H	0.613633	0.879523	0.595078
	H50	H	0.616582	0.118555	0.398397
	H51	H	0.432328	0.877902	0.402904
	H52	H	0.604666	0.400039	0.116662
	H53	H	0.606561	0.589792	0.886488
	H54	H	0.420719	0.599467	0.118434
	H55	H	0.424868	0.406010	0.884619
	H56	H	0.137423	0.584849	0.402356
	H57	H	0.894917	0.601943	0.605859
	H58	H	0.138813	0.407994	0.603537
	H59	H	0.899858	0.403895	0.406915
	H60	H	0.139116	0.395034	0.592763
	H61	H	0.903403	0.595386	0.583542
	H62	H	0.139153	0.593538	0.405884
	H63	H	0.902548	0.405260	0.415416
	H64	H	0.417458	0.589979	0.116209
	H65	H	0.614849	0.596697	0.881276
	H66	H	0.617623	0.405663	0.119472
	H67	H	0.426788	0.404462	0.884013
	H68	H	0.607194	0.114130	0.407399
	H69	H	0.612812	0.879554	0.593493
	H70	H	0.426144	0.118234	0.599265
	H71	H	0.435993	0.881075	0.411006
	H72	H	0.922395	0.616624	0.096933
	H73	H	0.109989	0.379457	0.097578
	H74	H	0.118984	0.623217	0.898388
	H75	H	0.934452	0.382602	0.909809
	H76	H	0.120973	0.910784	0.618571
	H77	H	0.106977	0.088741	0.387369
	H78	H	0.927609	0.085011	0.614544
	H79	H	0.917388	0.907488	0.382155
	H80	H	0.637147	0.088726	0.907395
	H81	H	0.404012	0.085432	0.096052
	H82	H	0.640780	0.892991	0.089001
	H83	H	0.402200	0.911409	0.905586
	H84	H	0.631793	0.913653	0.081436
	H85	H	0.399255	0.094862	0.101926
	H86	H	0.638876	0.090649	0.903246
	H87	H	0.399266	0.904490	0.904045
	H88	H	0.928901	0.097093	0.617967
	H89	H	0.117762	0.097597	0.382581
	H90	H	0.105923	0.903470	0.615671
	H91	H	0.936581	0.914243	0.390150
	H92	H	0.098581	0.614891	0.902737
	H93	H	0.105828	0.381291	0.091804
	H94	H	0.926403	0.617280	0.100006
	H95	H	0.924501	0.380927	0.915023
	H96	H	0.433679	0.113415	0.593080
	H97	H	0.614521	0.878743	0.593248
	H98	H	0.619304	0.116660	0.410967
	H99	H	0.427007	0.877598	0.410461
	H100	H	0.607521	0.414070	0.113587
	H101	H	0.617933	0.585954	0.884418
	H102	H	0.426310	0.592693	0.115166
	H103	H	0.424517	0.405738	0.883701
	H104	H	0.135525	0.586353	0.410834
	H105	H	0.903552	0.579115	0.601564
	H106	H	0.133360	0.410728	0.588387
	H107	H	0.902532	0.411682	0.409237
	H108	H	0.926607	0.615767	0.094328
	H109	H	0.112540	0.381244	0.090389
	H110	H	0.112744	0.615035	0.918333
	H111	H	0.925648	0.378059	0.903665
	H112	H	0.119459	0.894395	0.622472
	H113	H	0.120989	0.084258	0.385572
	H114	H	0.917950	0.091329	0.619095
	H115	H	0.933712	0.893329	0.383885
	H116	H	0.638315	0.093632	0.907523
	H117	H	0.402018	0.094593	0.089993
	H118	H	0.638556	0.911408	0.102952
	H119	H	0.401115	0.905573	0.910447
	C120	C	0.400105	0.006255	0.622801
	C121	C	0.641432	0.989110	0.621549
	C122	C	0.643759	0.007023	0.377117
	C123	C	0.401534	0.988210	0.380054
	C124	C	0.640626	0.376983	0.009165
	C125	C	0.639926	0.620543	0.992173
	C126	C	0.394651	0.621864	0.008500
	C127	C	0.395740	0.377007	0.992076
	C128	C	0.028160	0.619255	0.380037
	C129	C	1.010300	0.619301	0.623760
	C130	C	0.027364	0.376514	0.623407
	C131	C	1.010426	0.377228	0.380553
	C132	C	0.895484	0.508032	0.125518
	C133	C	0.137786	0.490224	0.121478
	C134	C	0.139496	0.507890	0.878692
	C135	C	0.898534	0.489926	0.881344
	C136	C	0.144529	0.874185	0.511086
	C137	C	0.142602	0.118869	0.492827
	C138	C	0.897493	0.120404	0.509346
	C139	C	0.899697	0.876931	0.492966
	C140	C	0.528737	0.120186	0.878825
	C141	C	0.510929	0.120166	0.122762
	C142	C	0.528123	0.877728	0.121199
	C143	C	0.510467	0.877912	0.878682
	C144	C	0.401879	0.882744	0.678930
	C145	C	0.639794	0.113415	0.676727
	C146	C	0.643913	0.883085	0.321043
	C147	C	0.401164	0.112391	0.324858
	C148	C	0.698230	0.378611	0.886942
	C149	C	0.692961	0.619377	0.115363
	C150	C	0.341471	0.618671	0.885460
	C151	C	0.339264	0.379604	0.114651
	C152	C	0.904068	0.675673	0.386151
	C153	C	0.135597	0.671376	0.618469
	C154	C	0.902804	0.323006	0.620392
	C155	C	0.135059	0.321934	0.381823
	C156	C	0.903499	0.378593	0.679425
	C157	C	0.134463	0.616585	0.677447
	C158	C	0.904169	0.621105	0.326236
	C159	C	0.133678	0.376899	0.322458
	C160	C	0.399987	0.675970	0.885341
	C161	C	0.634808	0.676134	0.114983
	C162	C	0.639361	0.321618	0.886096
	C163	C	0.397528	0.322457	0.114799
	C164	C	0.698819	0.882055	0.380381
	C165	C	0.694319	0.114511	0.616764
	C166	C	0.346395	0.881641	0.620526
	C167	C	0.345395	0.112625	0.383283
	C168	C	0.896609	0.383462	0.180942
	C169	C	0.135966	0.614501	0.177011
	C170	C	0.139095	0.383482	0.823685
	C171	C	0.898404	0.613835	0.825312
	C172	C	0.200166	0.876687	0.387770
	C173	C	0.196559	0.116511	0.615950
	C174	C	0.844963	0.117453	0.386026
	C175	C	0.842939	0.879533	0.615676
	C176	C	0.403631	0.174309	0.884345
	C177	C	0.635142	0.174928	0.117814
	C178	C	0.403292	0.824659	0.119128
	C179	C	0.634658	0.821674	0.880828
	C180	C	0.405154	0.879051	0.179367
	C181	C	0.635395	0.118430	0.175917
	C182	C	0.405321	0.120133	0.823888
	C183	C	0.634902	0.878182	0.823266
	C184	C	0.902553	0.174890	0.386227
	C185	C	0.137435	0.173753	0.616152
	C186	C	0.142469	0.818908	0.387911
	C187	C	0.902458	0.823932	0.616755
	C188	C	0.194522	0.383145	0.881950
	C189	C	0.190895	0.615528	0.117341
	C190	C	0.841226	0.382984	0.121607
	C191	C	0.843909	0.615068	0.884771
	C192	C	0.421818	0.093433	0.600539
	C193	C	0.619855	0.901766	0.600371
	C194	C	0.621028	0.093745	0.399078
	C195	C	0.424965	0.901251	0.401784
	C196	C	0.616943	0.399895	0.094404
	C197	C	0.619353	0.597629	0.906218
	C198	C	0.415542	0.600437	0.094468
	C199	C	0.418621	0.398917	0.906220
	C200	C	0.114900	0.595262	0.400347
	C201	C	0.923178	0.598419	0.603124
	C202	C	0.114572	0.398097	0.601299
	C203	C	0.923962	0.400260	0.403726
	C204	C	0.918265	0.594319	0.103691
	C205	C	0.115848	0.403254	0.099777
	C206	C	0.116922	0.595078	0.900098
	C207	C	0.921429	0.403116	0.903088
	C208	C	0.122199	0.896201	0.596779
	C209	C	0.121618	0.096590	0.407345
	C210	C	0.918705	0.097855	0.595067
	C211	C	0.922584	0.898486	0.407614
	C212	C	0.615562	0.097750	0.899754
	C213	C	0.424165	0.097993	0.102268
	C214	C	0.614617	0.899613	0.098011
	C215	C	0.423297	0.900571	0.900427
	Zn216	Zn	0.520701	-0.001228	0.750332
	Zn217	Zn	0.521430	-0.001880	0.250604
	Zn218	Zn	0.769815	0.499631	0.001853
	Zn219	Zn	0.266267	0.498899	-0.000085
	Zn220	Zn	0.020791	0.746907	0.502363
	Zn221	Zn	0.019764	0.248835	0.501501
	Zn222	Zn	0.018517	0.498561	0.751617
	Zn223	Zn	0.018147	0.498451	0.252126
	Zn224	Zn	0.518402	0.749791	0.000077
	Zn225	Zn	0.518682	0.248065	0.000765
	Zn226	Zn	0.769170	-0.002008	0.499964
	Zn227	Zn	0.272928	-0.003436	0.501528
	N228	N	0.434686	0.961334	0.680164
	N229	N	0.607653	0.034489	0.679642
	N230	N	0.610534	0.961755	0.318639
	N231	N	0.435490	0.034088	0.322963
	N232	N	0.699025	0.412505	0.964262
	N233	N	0.696390	0.585520	0.038053
	N234	N	0.338098	0.585751	0.963057
	N235	N	0.338107	0.412944	0.037277
	N236	N	0.982279	0.674748	0.418846
	N237	N	0.057390	0.673356	0.585865
	N238	N	0.980997	0.321587	0.586295
	N239	N	0.057565	0.322091	0.417500
	N240	N	0.982150	0.410939	0.681564
	N241	N	0.055509	0.584832	0.680867
	N242	N	0.982505	0.586905	0.322478
	N243	N	0.055188	0.410713	0.321691
	N244	N	0.432273	0.677966	0.962922
	N245	N	0.602437	0.676861	0.037420
	N246	N	0.604301	0.320411	0.963078
	N247	N	0.432126	0.320961	0.037582
	N248	N	0.698992	0.960078	0.414340
	N249	N	0.695614	0.036032	0.583282
	N250	N	0.344925	0.959788	0.586441
	N251	N	0.345359	0.034218	0.416852
	N252	N	0.929349	0.462077	0.183774
	N253	N	0.103738	0.535595	0.179505
	N254	N	0.105467	0.462032	0.821708
	N255	N	0.931659	0.534996	0.822966
	N256	N	0.201382	0.910514	0.465015
	N257	N	0.199816	0.083071	0.538396
	N258	N	0.841948	0.083999	0.463421
	N259	N	0.840987	0.911693	0.537924
	N260	N	0.481474	0.174487	0.917725
	N261	N	0.556770	0.176316	0.085678
	N262	N	0.480664	0.823984	0.083395
	N263	N	0.556257	0.821172	0.914475
	N264	N	0.483852	0.911125	0.180729
	N265	N	0.557090	0.085055	0.179105
	N266	N	0.484142	0.087188	0.820444
	N267	N	0.556539	0.912361	0.821830
	N268	N	0.934512	0.176765	0.463976
	N269	N	0.104907	0.175647	0.538749
	N270	N	0.108447	0.817308	0.465470
	N271	N	0.937323	0.822034	0.539534
	N272	N	0.195119	0.461520	0.915071
	N273	N	0.192301	0.537278	0.083466
	N274	N	0.840092	0.461280	0.088087
	N275	N	0.844055	0.537074	0.919126
	O276	O	-0.483735	0.453132	-0.479314
	H277	H	-0.477613	0.458286	-0.468920
	H278	H	-0.486391	0.463886	-0.485375
	O279	O	0.024561	1.068099	1.073979
	H280	H	0.025019	1.069131	1.082634
	H281	H	0.021550	1.059982	1.074358
	O282	O	0.489941	0.443408	0.462856
	H283	H	0.484274	0.443236	0.480661
	H284	H	0.503867	0.429639	0.464929
	O285	O	0.507646	-0.490093	1.488587
	H286	H	0.512427	-0.487307	1.497211
	H287	H	0.495035	-0.489273	1.491171
	O288	O	1.041128	-0.034096	-0.016445
	H289	H	1.046424	-0.039985	-0.019381
	H290	H	1.041834	-0.036642	-0.019405
	O291	O	0.578139	0.471011	0.387086
	H292	H	0.585190	0.459057	0.371485
	H293	H	0.591947	0.463439	0.396214
	O294	O	1.032951	-0.113731	1.065470
	H295	H	1.029839	-0.105829	1.073019
	H296	H	1.038710	-0.120575	1.064632
	O297	O	0.039223	0.083354	0.060709
	H298	H	0.046176	0.078807	0.063771
	H299	H	0.031493	0.083449	0.063764
	O300	O	0.452002	0.498565	0.520569
	H301	H	0.454362	0.497400	0.515534
	H302	H	0.444576	0.514430	0.522956
	O303	O	0.395025	0.453237	0.508025
	H304	H	0.390645	0.454333	0.512710
	H305	H	0.391179	0.464317	0.513123
	O306	O	1.033261	-0.027880	-0.016683
	H307	H	1.021483	-0.026326	-0.012048
	H308	H	1.034199	-0.022638	-0.014444
	O309	O	-0.026461	-0.048569	1.100720
	H310	H	-0.018368	-0.052010	1.107615
	H311	H	-0.027330	-0.045759	1.098455
	O312	O	1.022193	1.036783	0.976957
	H313	H	1.003895	1.039194	0.967742
	H314	H	1.027602	1.045750	0.984066
	O315	O	0.592753	0.410133	0.362103
	H316	H	0.593214	0.406022	0.366777
	H317	H	0.589843	0.405531	0.361692
	O318	O	0.043278	0.952995	-0.027871
	H319	H	0.046288	0.949164	-0.033734
	H320	H	0.039232	0.956306	-0.025651
	O321	O	0.057524	1.031908	1.049124
	H322	H	0.053307	1.033602	1.045365
	H323	H	0.055132	1.030792	1.061996
	O324	O	0.496065	0.395623	0.597513
	H325	H	0.476415	0.384775	0.596656
	H326	H	0.481395	0.393648	0.604527
	O327	O	-0.085485	0.922973	0.020879
	H328	H	-0.069180	0.923466	0.036236
	H329	H	-0.085803	0.906778	0.021484
	O330	O	0.576673	0.487990	0.473584
	H331	H	0.582652	0.488451	0.470505
	H332	H	0.578450	0.488711	0.458796
	O333	O	0.470145	0.530201	0.432341
	H334	H	0.474642	0.521064	0.426963
	H335	H	0.484982	0.529153	0.423006
	O336	O	0.422880	0.447098	0.515246
	H337	H	0.423039	0.442892	0.516283
	H338	H	0.420553	0.452577	0.510371
	O339	O	1.032862	1.006997	0.028565
	H340	H	1.024639	1.001504	0.024430
	H341	H	1.027072	1.018169	0.027567
	O342	O	0.625047	0.395440	0.360773
	H343	H	0.620547	0.389004	0.364456
	H344	H	0.622286	0.379285	0.361107
	O345	O	0.533893	0.546402	0.495618
	H346	H	0.524973	0.548764	0.491389
	H347	H	0.541635	0.544901	0.479010
	O348	O	-0.029399	0.082013	-0.043971
	H349	H	-0.031412	0.073526	-0.043864
	H350	H	-0.036584	0.079486	-0.045272
	O351	O	0.035249	1.026842	0.884914
	H352	H	0.029515	1.028728	0.876529
	H353	H	0.047251	1.025135	0.884822
	O354	O	0.582310	0.516727	0.451615
	H355	H	0.575543	0.514310	0.463983
	H356	H	0.584170	0.520078	0.440468
	O357	O	-0.062739	1.020335	1.061316
	H358	H	-0.065868	1.012751	1.057186
	H359	H	-0.062047	1.013093	1.057301
