data_Molecule from HDF5

_cell_length_a		16.334627
_cell_length_b		16.223568
_cell_length_c		16.230561
_cell_angle_alpha	89.970833
_cell_angle_beta	89.877576
_cell_angle_gamma	89.960212
_symmetry_space_group_name_H-M	'P 1'
_symmetry_Int_Tables_number		1

loop_
	_symmetry_equiv_pos_as_xyz
	x,y,z

loop_
	_atom_site_label
	_atom_site_type_symbol
	_atom_site_fract_x
	_atom_site_fract_y
	_atom_site_fract_z
	H0	H	0.402006	0.836057	0.714533
	H1	H	0.596054	0.164978	0.712754
	H2	H	0.597705	0.836328	0.286955
	H3	H	0.403774	0.164943	0.287324
	H4	H	0.714196	0.401042	0.835811
	H5	H	0.713969	0.598943	0.163609
	H6	H	0.286090	0.598819	0.835464
	H7	H	0.284699	0.401238	0.163388
	H8	H	0.836564	0.713880	0.403512
	H9	H	0.163906	0.713062	0.597488
	H10	H	0.835933	0.286751	0.597995
	H11	H	0.163326	0.286519	0.403263
	H12	H	0.836044	0.403167	0.713642
	H13	H	0.163520	0.597054	0.713508
	H14	H	0.836397	0.597197	0.287385
	H15	H	0.162359	0.401178	0.285282
	H16	H	0.403515	0.712292	0.835588
	H17	H	0.595268	0.711653	0.164486
	H18	H	0.596184	0.287568	0.835340
	H19	H	0.403601	0.288501	0.165034
	H20	H	0.715537	0.836718	0.400128
	H21	H	0.713433	0.164922	0.597587
	H22	H	0.286287	0.836111	0.598714
	H23	H	0.285192	0.164000	0.400601
	H24	H	0.903475	0.335574	0.213052
	H25	H	0.096076	0.664188	0.212135
	H26	H	0.096184	0.335664	0.787150
	H27	H	0.903966	0.665342	0.788767
	H28	H	0.215538	0.900619	0.335895
	H29	H	0.214143	0.098457	0.664343
	H30	H	0.786113	0.100070	0.335734
	H31	H	0.786813	0.903316	0.663829
	H32	H	0.336005	0.213306	0.903376
	H33	H	0.663460	0.214006	0.097984
	H34	H	0.336053	0.785906	0.098658
	H35	H	0.663012	0.785478	0.902211
	H36	H	0.336773	0.902667	0.214511
	H37	H	0.663601	0.096825	0.213211
	H38	H	0.336565	0.097458	0.786686
	H39	H	0.663471	0.901276	0.785974
	H40	H	0.903703	0.213756	0.335136
	H41	H	0.095633	0.212565	0.664839
	H42	H	0.098355	0.787046	0.335795
	H43	H	0.904694	0.789221	0.665056
	H44	H	0.213820	0.335832	0.900388
	H45	H	0.213392	0.663974	0.097684
	H46	H	0.785779	0.335963	0.099593
	H47	H	0.786119	0.664283	0.902357
	H48	H	0.412201	0.115438	0.591166
	H49	H	0.589751	0.884962	0.592254
	H50	H	0.584033	0.117071	0.399167
	H51	H	0.406851	0.881549	0.403933
	H52	H	0.587223	0.390353	0.120851
	H53	H	0.592697	0.581776	0.886115
	H54	H	0.404424	0.591383	0.117216
	H55	H	0.403278	0.403899	0.880791
	H56	H	0.116383	0.596625	0.408558
	H57	H	0.883284	0.596848	0.592094
	H58	H	0.112991	0.408629	0.586790
	H59	H	0.880808	0.403466	0.401275
	H60	H	0.116967	0.410183	0.600506
	H61	H	0.884162	0.592144	0.595658
	H62	H	0.114791	0.589574	0.407338
	H63	H	0.883200	0.402822	0.412390
	H64	H	0.406309	0.592986	0.117053
	H65	H	0.585927	0.600098	0.882520
	H66	H	0.610515	0.410275	0.120615
	H67	H	0.405189	0.410039	0.882863
	H68	H	0.593095	0.113963	0.418984
	H69	H	0.597704	0.882936	0.589109
	H70	H	0.402262	0.117302	0.588703
	H71	H	0.411418	0.884584	0.409411
	H72	H	0.904254	0.619110	0.094340
	H73	H	0.098737	0.381045	0.092709
	H74	H	0.091669	0.615314	0.913141
	H75	H	0.903223	0.383131	0.910697
	H76	H	0.093395	0.908977	0.615949
	H77	H	0.092944	0.099285	0.381138
	H78	H	0.898601	0.087157	0.617501
	H79	H	0.909634	0.912696	0.384273
	H80	H	0.618449	0.103857	0.910642
	H81	H	0.382532	0.096941	0.095240
	H82	H	0.620251	0.902753	0.104958
	H83	H	0.385387	0.903885	0.915937
	H84	H	0.617003	0.896445	0.085649
	H85	H	0.385009	0.093215	0.091932
	H86	H	0.612702	0.085590	0.911119
	H87	H	0.385244	0.915623	0.902689
	H88	H	0.913537	0.089113	0.613410
	H89	H	0.099858	0.089185	0.382720
	H90	H	0.093637	0.903224	0.618111
	H91	H	0.910864	0.901500	0.381983
	H92	H	0.101651	0.620410	0.904931
	H93	H	0.089453	0.381837	0.097599
	H94	H	0.907863	0.617064	0.093512
	H95	H	0.904159	0.380384	0.902923
	H96	H	0.405098	0.118948	0.598663
	H97	H	0.595981	0.881406	0.596428
	H98	H	0.604995	0.122444	0.402474
	H99	H	0.404114	0.883246	0.410432
	H100	H	0.583731	0.419908	0.110571
	H101	H	0.604315	0.596079	0.878396
	H102	H	0.403896	0.593820	0.117817
	H103	H	0.409534	0.405213	0.883016
	H104	H	0.117938	0.593387	0.402310
	H105	H	0.882529	0.596925	0.597636
	H106	H	0.118754	0.397629	0.594005
	H107	H	0.884546	0.412372	0.406652
	H108	H	0.904880	0.616608	0.091004
	H109	H	0.090645	0.384474	0.087201
	H110	H	0.089384	0.618443	0.900208
	H111	H	0.910797	0.383716	0.907363
	H112	H	0.098524	0.907330	0.618695
	H113	H	0.088148	0.089587	0.385812
	H114	H	0.905885	0.101339	0.619552
	H115	H	0.900777	0.906391	0.380609
	H116	H	0.619342	0.093128	0.895614
	H117	H	0.382859	0.091696	0.096935
	H118	H	0.612271	0.915773	0.090781
	H119	H	0.379767	0.899306	0.900284
	C120	C	0.378686	0.008675	0.621136
	C121	C	0.621995	0.991865	0.621169
	C122	C	0.621997	0.009250	0.378389
	C123	C	0.379078	0.991656	0.379243
	C124	C	0.621513	0.378791	0.008418
	C125	C	0.621624	0.620813	0.991403
	C126	C	0.377651	0.621262	0.008636
	C127	C	0.378250	0.378409	0.990963
	C128	C	0.008347	0.621674	0.378259
	C129	C	0.991604	0.622224	0.622346
	C130	C	0.008126	0.377912	0.622091
	C131	C	0.991074	0.377963	0.378426
	C132	C	0.878040	0.508921	0.121485
	C133	C	0.120865	0.491022	0.120955
	C134	C	0.121538	0.508882	0.878422
	C135	C	0.878438	0.491369	0.879002
	C136	C	0.122910	0.878484	0.508668
	C137	C	0.121599	0.121190	0.491680
	C138	C	0.878192	0.121764	0.508245
	C139	C	0.879065	0.879124	0.491047
	C140	C	0.508238	0.121787	0.878274
	C141	C	0.491506	0.122030	0.122374
	C142	C	0.508331	0.877669	0.121817
	C143	C	0.491398	0.877971	0.877960
	C144	C	0.381619	0.884903	0.676427
	C145	C	0.617490	0.115995	0.675280
	C146	C	0.618560	0.885251	0.324251
	C147	C	0.382435	0.115759	0.324498
	C148	C	0.676423	0.380851	0.884959
	C149	C	0.675659	0.618498	0.114847
	C150	C	0.323861	0.618618	0.884704
	C151	C	0.323291	0.381049	0.114785
	C152	C	0.885393	0.676361	0.382171
	C153	C	0.114946	0.676054	0.618499
	C154	C	0.884815	0.323948	0.619040
	C155	C	0.114212	0.323677	0.381758
	C156	C	0.884910	0.381760	0.676422
	C157	C	0.114797	0.618294	0.675999
	C158	C	0.885129	0.618066	0.324822
	C159	C	0.113802	0.380726	0.323176
	C160	C	0.381915	0.675306	0.884567
	C161	C	0.616948	0.674584	0.115303
	C162	C	0.617694	0.324407	0.884699
	C163	C	0.382156	0.324803	0.115422
	C164	C	0.676451	0.885368	0.381039
	C165	C	0.676090	0.115811	0.618658
	C166	C	0.324283	0.884967	0.618862
	C167	C	0.323545	0.115254	0.380595
	C168	C	0.882004	0.384629	0.175775
	C169	C	0.117229	0.615217	0.175091
	C170	C	0.117817	0.384861	0.823984
	C171	C	0.882789	0.615951	0.825673
	C172	C	0.177613	0.880809	0.385103
	C173	C	0.176347	0.118862	0.615266
	C174	C	0.823929	0.119950	0.384500
	C175	C	0.824326	0.882247	0.614649
	C176	C	0.385135	0.176154	0.881774
	C177	C	0.614601	0.176164	0.118894
	C178	C	0.384967	0.823859	0.119085
	C179	C	0.614150	0.822991	0.881126
	C180	C	0.385350	0.881596	0.176922
	C181	C	0.614916	0.117856	0.175796
	C182	C	0.385404	0.118643	0.823757
	C183	C	0.614586	0.880814	0.823506
	C184	C	0.882268	0.176448	0.384301
	C185	C	0.117479	0.175304	0.615738
	C186	C	0.119376	0.824315	0.384790
	C187	C	0.883240	0.826017	0.615582
	C188	C	0.176071	0.384974	0.880364
	C189	C	0.175406	0.614820	0.118200
	C190	C	0.824175	0.384727	0.118866
	C191	C	0.824257	0.615520	0.882016
	C192	C	0.400172	0.095017	0.599212
	C193	C	0.600843	0.905326	0.599256
	C194	C	0.600557	0.095714	0.400313
	C195	C	0.400832	0.905395	0.401271
	C196	C	0.600022	0.400622	0.095043
	C197	C	0.600482	0.599161	0.904543
	C198	C	0.398757	0.599326	0.095254
	C199	C	0.399699	0.399991	0.904610
	C200	C	0.094332	0.599673	0.399734
	C201	C	0.905639	0.601454	0.601345
	C202	C	0.094014	0.399248	0.600249
	C203	C	0.904968	0.399634	0.400463
	C204	C	0.899404	0.595280	0.099567
	C205	C	0.099230	0.404531	0.099030
	C206	C	0.100546	0.595512	0.899746
	C207	C	0.899750	0.404767	0.900495
	C208	C	0.101411	0.899959	0.595244
	C209	C	0.099926	0.099221	0.405533
	C210	C	0.899674	0.099267	0.594506
	C211	C	0.900794	0.900508	0.404490
	C212	C	0.594637	0.100492	0.899639
	C213	C	0.405515	0.100452	0.100772
	C214	C	0.594214	0.898723	0.100068
	C215	C	0.405486	0.899965	0.899877
	Zn216	Zn	0.500419	0.000025	0.749540
	Zn217	Zn	0.500071	0.000070	0.250702
	Zn218	Zn	0.750247	0.499990	0.000190
	Zn219	Zn	0.249405	0.499676	-0.000288
	Zn220	Zn	0.001034	0.750774	0.499906
	Zn221	Zn	-0.000436	0.249258	0.500301
	Zn222	Zn	-0.000122	0.500001	0.750531
	Zn223	Zn	-0.000477	0.499778	0.249444
	Zn224	Zn	0.499562	0.748689	-0.000149
	Zn225	Zn	0.499896	0.250279	0.000305
	Zn226	Zn	0.750118	0.000723	0.499004
	Zn227	Zn	0.250292	-0.000101	0.499866
	N228	N	0.415206	0.962580	0.677629
	N229	N	0.584629	0.037931	0.677048
	N230	N	0.585148	0.963096	0.322704
	N231	N	0.416275	0.038033	0.323691
	N232	N	0.678866	0.413955	0.962983
	N233	N	0.678730	0.585977	0.036674
	N234	N	0.320872	0.585761	0.962947
	N235	N	0.320863	0.413769	0.036590
	N236	N	0.963037	0.678613	0.414814
	N237	N	0.037476	0.678400	0.585486
	N238	N	0.962338	0.321327	0.585866
	N239	N	0.036907	0.322081	0.415525
	N240	N	0.962468	0.414694	0.678416
	N241	N	0.037341	0.585497	0.678399
	N242	N	0.962749	0.585060	0.322214
	N243	N	0.036189	0.413759	0.321034
	N244	N	0.414542	0.677129	0.962549
	N245	N	0.583836	0.675969	0.037428
	N246	N	0.584378	0.322977	0.962502
	N247	N	0.415553	0.323043	0.037531
	N248	N	0.678889	0.963462	0.413719
	N249	N	0.678701	0.037796	0.585467
	N250	N	0.322184	0.962906	0.585480
	N251	N	0.321251	0.037207	0.413714
	N252	N	0.914972	0.462497	0.177267
	N253	N	0.083890	0.537372	0.176722
	N254	N	0.084501	0.462850	0.822611
	N255	N	0.915763	0.537854	0.823736
	N256	N	0.179644	0.913826	0.463025
	N257	N	0.178833	0.085895	0.537195
	N258	N	0.821528	0.086761	0.462537
	N259	N	0.821780	0.914600	0.536300
	N260	N	0.462556	0.178141	0.914863
	N261	N	0.536937	0.178554	0.086183
	N262	N	0.462420	0.821070	0.085609
	N263	N	0.536657	0.821139	0.914342
	N264	N	0.462887	0.914182	0.178942
	N265	N	0.537174	0.085174	0.178403
	N266	N	0.463030	0.085733	0.821395
	N267	N	0.537181	0.914258	0.821534
	N268	N	0.915599	0.177375	0.462154
	N269	N	0.084271	0.176989	0.537915
	N270	N	0.085925	0.822589	0.462646
	N271	N	0.916429	0.823601	0.537643
	N272	N	0.178364	0.462920	0.913635
	N273	N	0.177655	0.536728	0.085252
	N274	N	0.821341	0.462998	0.086080
	N275	N	0.821291	0.537092	0.914384
