data_Molecule from HDF5

_cell_length_a		16.168592
_cell_length_b		16.255885
_cell_length_c		16.170335
_cell_angle_alpha	90.114350
_cell_angle_beta	89.935722
_cell_angle_gamma	90.606815
_symmetry_space_group_name_H-M	'P 1'
_symmetry_Int_Tables_number		1

loop_
	_symmetry_equiv_pos_as_xyz
	x,y,z

loop_
	_atom_site_label
	_atom_site_type_symbol
	_atom_site_fract_x
	_atom_site_fract_y
	_atom_site_fract_z
	H0	H	0.399003	0.833590	0.707497
	H1	H	0.601858	0.161401	0.711647
	H2	H	0.597341	0.833542	0.280849
	H3	H	0.402865	0.161704	0.279437
	H4	H	0.712108	0.400221	0.828489
	H5	H	0.714646	0.600281	0.156948
	H6	H	0.290215	0.592236	0.827489
	H7	H	0.280243	0.394954	0.155589
	H8	H	0.834297	0.711418	0.393649
	H9	H	0.161839	0.716926	0.593460
	H10	H	0.834943	0.282027	0.593332
	H11	H	0.163363	0.285207	0.392318
	H12	H	0.834273	0.400552	0.706532
	H13	H	0.163440	0.600997	0.705151
	H14	H	0.834243	0.596428	0.278961
	H15	H	0.163010	0.400256	0.276347
	H16	H	0.399303	0.710810	0.829842
	H17	H	0.600432	0.713403	0.156926
	H18	H	0.599759	0.280719	0.830427
	H19	H	0.396699	0.280775	0.157882
	H20	H	0.712941	0.834011	0.395999
	H21	H	0.719093	0.160900	0.596464
	H22	H	0.280122	0.836353	0.595342
	H23	H	0.289420	0.163779	0.396990
	H24	H	0.896587	0.335295	0.206996
	H25	H	0.100700	0.662603	0.206654
	H26	H	0.095649	0.335731	0.775722
	H27	H	0.903181	0.663969	0.778987
	H28	H	0.213362	0.902082	0.330120
	H29	H	0.213340	0.101371	0.659388
	H30	H	0.787091	0.096100	0.330058
	H31	H	0.784737	0.898618	0.657844
	H32	H	0.335899	0.209400	0.893374
	H33	H	0.662772	0.216546	0.097241
	H34	H	0.335156	0.779625	0.094821
	H35	H	0.664705	0.785631	0.896800
	H36	H	0.334278	0.897001	0.208659
	H37	H	0.665343	0.095609	0.206147
	H38	H	0.335019	0.093214	0.781324
	H39	H	0.663847	0.898711	0.779146
	H40	H	0.899296	0.212135	0.330171
	H41	H	0.099736	0.217324	0.656778
	H42	H	0.098228	0.785259	0.329488
	H43	H	0.896753	0.782011	0.657425
	H44	H	0.210457	0.334309	0.891104
	H45	H	0.217115	0.661182	0.090166
	H46	H	0.782237	0.335206	0.090444
	H47	H	0.785324	0.662867	0.893877
	H48	H	0.404811	0.117318	0.589695
	H49	H	0.594848	0.882724	0.579923
	H50	H	0.604155	0.117985	0.400860
	H51	H	0.410892	0.885293	0.409374
	H52	H	0.589237	0.412643	0.108589
	H53	H	0.586578	0.594571	0.875540
	H54	H	0.403217	0.592090	0.113664
	H55	H	0.411355	0.395725	0.875018
	H56	H	0.118725	0.595144	0.394770
	H57	H	0.880380	0.590925	0.585473
	H58	H	0.116738	0.410861	0.587028
	H59	H	0.882231	0.401644	0.405557
	H60	H	0.117074	0.404541	0.583198
	H61	H	0.880190	0.590099	0.586962
	H62	H	0.115708	0.596092	0.404809
	H63	H	0.883014	0.410315	0.400499
	H64	H	0.405822	0.582883	0.109836
	H65	H	0.597322	0.593989	0.872760
	H66	H	0.584756	0.402209	0.110752
	H67	H	0.398596	0.400539	0.872577
	H68	H	0.588726	0.114818	0.393483
	H69	H	0.595143	0.878395	0.592829
	H70	H	0.410252	0.115243	0.592688
	H71	H	0.394808	0.879778	0.405532
	H72	H	0.919287	0.609738	0.078977
	H73	H	0.097616	0.381565	0.073817
	H74	H	0.101716	0.616764	0.905392
	H75	H	0.902252	0.383408	0.906216
	H76	H	0.081668	0.903821	0.610896
	H77	H	0.092561	0.098542	0.374695
	H78	H	0.906977	0.096061	0.614227
	H79	H	0.896234	0.911335	0.374652
	H80	H	0.614671	0.081441	0.906428
	H81	H	0.379826	0.088224	0.095099
	H82	H	0.618086	0.907715	0.095170
	H83	H	0.383027	0.906794	0.902916
	H84	H	0.619116	0.895526	0.086537
	H85	H	0.381384	0.094527	0.083134
	H86	H	0.620156	0.090854	0.895721
	H87	H	0.379448	0.900553	0.896117
	H88	H	0.906516	0.086631	0.612820
	H89	H	0.099752	0.091577	0.375156
	H90	H	0.095150	0.902571	0.614699
	H91	H	0.916371	0.909434	0.380810
	H92	H	0.100142	0.620773	0.890116
	H93	H	0.092031	0.377134	0.095718
	H94	H	0.893478	0.618056	0.078806
	H95	H	0.900192	0.379319	0.893479
	H96	H	0.409929	0.115415	0.586340
	H97	H	0.583734	0.884064	0.587580
	H98	H	0.589963	0.111194	0.410465
	H99	H	0.406456	0.878793	0.393252
	H100	H	0.595760	0.404861	0.113361
	H101	H	0.592049	0.585674	0.876742
	H102	H	0.412625	0.590246	0.110434
	H103	H	0.408773	0.408225	0.878329
	H104	H	0.115398	0.587431	0.399209
	H105	H	0.879790	0.591684	0.586939
	H106	H	0.115014	0.411140	0.580134
	H107	H	0.879881	0.401947	0.395711
	H108	H	0.907750	0.620401	0.101545
	H109	H	0.076271	0.386304	0.082783
	H110	H	0.088522	0.613853	0.898320
	H111	H	0.913456	0.384457	0.897042
	H112	H	0.092036	0.914805	0.609173
	H113	H	0.090421	0.089583	0.378286
	H114	H	0.913302	0.090971	0.610440
	H115	H	0.905992	0.892914	0.371405
	H116	H	0.618087	0.096658	0.909270
	H117	H	0.385432	0.081348	0.083906
	H118	H	0.614061	0.908332	0.081145
	H119	H	0.380795	0.897472	0.905121
	C120	C	0.377638	0.007570	0.617647
	C121	C	0.621942	0.989502	0.616771
	C122	C	0.621832	0.006441	0.373008
	C123	C	0.377743	0.989891	0.373568
	C124	C	0.619486	0.377026	0.002519
	C125	C	0.621133	0.620267	0.983930
	C126	C	0.379383	0.617011	0.002286
	C127	C	0.376106	0.372879	0.984037
	C128	C	0.007646	0.620433	0.371195
	C129	C	0.989403	0.620762	0.614409
	C130	C	0.007871	0.378369	0.613433
	C131	C	0.990152	0.376522	0.370888
	C132	C	0.876526	0.507660	0.114600
	C133	C	0.120193	0.489843	0.113205
	C134	C	0.122122	0.507978	0.869574
	C135	C	0.877527	0.490839	0.870823
	C136	C	0.119132	0.878742	0.502933
	C137	C	0.122433	0.122384	0.485168
	C138	C	0.879721	0.119164	0.503412
	C139	C	0.877343	0.876202	0.484609
	C140	C	0.508942	0.117338	0.874179
	C141	C	0.490650	0.118528	0.116471
	C142	C	0.508203	0.874295	0.116825
	C143	C	0.490177	0.874450	0.872688
	C144	C	0.378620	0.883453	0.671113
	C145	C	0.621597	0.112328	0.673377
	C146	C	0.618118	0.882716	0.318119
	C147	C	0.381890	0.112774	0.317456
	C148	C	0.674900	0.379338	0.878232
	C149	C	0.676870	0.619208	0.107639
	C150	C	0.326546	0.613409	0.877301
	C151	C	0.318859	0.374986	0.107014
	C152	C	0.883591	0.674142	0.373428
	C153	C	0.113014	0.678046	0.612729
	C154	C	0.884289	0.320938	0.612908
	C155	C	0.113980	0.322084	0.371703
	C156	C	0.883859	0.379810	0.669202
	C157	C	0.113796	0.620432	0.668309
	C158	C	0.883526	0.616719	0.316445
	C159	C	0.113775	0.379500	0.314193
	C160	C	0.380660	0.672705	0.878787
	C161	C	0.619996	0.675816	0.107689
	C162	C	0.618983	0.320217	0.879141
	C163	C	0.376927	0.318072	0.108061
	C164	C	0.675474	0.882904	0.375639
	C165	C	0.679586	0.112487	0.615781
	C166	C	0.319407	0.884892	0.615269
	C167	C	0.325295	0.114041	0.376043
	C168	C	0.876915	0.384287	0.169461
	C169	C	0.120250	0.613342	0.168498
	C170	C	0.116687	0.384577	0.813909
	C171	C	0.881597	0.614830	0.816528
	C172	C	0.175229	0.881340	0.379195
	C173	C	0.176564	0.121012	0.609531
	C174	C	0.824252	0.116678	0.379376
	C175	C	0.822220	0.878458	0.608777
	C176	C	0.384864	0.171681	0.874749
	C177	C	0.614189	0.176671	0.115736
	C178	C	0.384328	0.817782	0.115116
	C179	C	0.614974	0.821971	0.875666
	C180	C	0.384024	0.876385	0.171650
	C181	C	0.615438	0.116909	0.170225
	C182	C	0.384728	0.114134	0.818437
	C183	C	0.614683	0.878602	0.817452
	C184	C	0.880486	0.173919	0.379341
	C185	C	0.120420	0.179012	0.608330
	C186	C	0.117769	0.823409	0.378720
	C187	C	0.877948	0.820196	0.608184
	C188	C	0.174033	0.383911	0.871115
	C189	C	0.177938	0.612588	0.110385
	C190	C	0.819988	0.384267	0.111635
	C191	C	0.822861	0.614099	0.873313
	C192	C	0.401413	0.093803	0.595886
	C193	C	0.598264	0.903916	0.593464
	C194	C	0.600638	0.092382	0.395090
	C195	C	0.398095	0.903678	0.395955
	C196	C	0.596580	0.399944	0.088551
	C197	C	0.598737	0.598057	0.897316
	C198	C	0.400839	0.594823	0.088750
	C199	C	0.399402	0.394994	0.897754
	C200	C	0.094073	0.599130	0.393227
	C201	C	0.902471	0.597545	0.592963
	C202	C	0.094149	0.401822	0.590019
	C203	C	0.904041	0.398132	0.393840
	C204	C	0.899974	0.593682	0.092873
	C205	C	0.095818	0.403851	0.090696
	C206	C	0.102541	0.594669	0.891543
	C207	C	0.898773	0.404895	0.892557
	C208	C	0.096305	0.900540	0.589333
	C209	C	0.100615	0.099728	0.398497
	C210	C	0.902220	0.097484	0.590004
	C211	C	0.899704	0.898278	0.397960
	C212	C	0.595131	0.095976	0.897007
	C213	C	0.404463	0.094921	0.094087
	C214	C	0.594835	0.897154	0.094394
	C215	C	0.403452	0.895393	0.894760
	Zn216	Zn	0.499647	-0.003015	0.745570
	Zn217	Zn	0.499939	-0.003113	0.244137
	Zn218	Zn	0.748281	0.499011	-0.006999
	Zn219	Zn	0.249908	0.496814	-0.008537
	Zn220	Zn	-0.001743	0.748402	0.493386
	Zn221	Zn	-0.000423	0.248374	0.493038
	Zn222	Zn	-0.000298	0.500412	0.741769
	Zn223	Zn	-0.001209	0.498602	0.242617
	Zn224	Zn	0.498939	0.746231	-0.005702
	Zn225	Zn	0.499203	0.246125	-0.005408
	Zn226	Zn	0.750979	-0.001676	0.494516
	Zn227	Zn	0.248961	0.000084	0.495326
	N228	N	0.414287	0.960654	0.672492
	N229	N	0.586467	0.034988	0.674049
	N230	N	0.585402	0.960469	0.316430
	N231	N	0.413785	0.034626	0.315758
	N232	N	0.675161	0.414141	0.955852
	N233	N	0.677557	0.585169	0.029643
	N234	N	0.325140	0.579486	0.955139
	N235	N	0.318114	0.408323	0.028851
	N236	N	0.961739	0.676599	0.406971
	N237	N	0.034482	0.678655	0.580033
	N238	N	0.962417	0.319987	0.578876
	N239	N	0.036128	0.320067	0.406239
	N240	N	0.961704	0.414954	0.669644
	N241	N	0.035756	0.585627	0.669429
	N242	N	0.961670	0.584059	0.314641
	N243	N	0.035861	0.412513	0.313357
	N244	N	0.412948	0.674994	0.957463
	N245	N	0.585940	0.676646	0.029793
	N246	N	0.585131	0.318612	0.957369
	N247	N	0.411787	0.316669	0.030565
	N248	N	0.678043	0.960803	0.409241
	N249	N	0.679935	0.035041	0.581095
	N250	N	0.318652	0.963194	0.582826
	N251	N	0.322385	0.036621	0.410161
	N252	N	0.911474	0.462023	0.171450
	N253	N	0.084909	0.535940	0.170313
	N254	N	0.085227	0.462886	0.812647
	N255	N	0.914874	0.537378	0.814767
	N256	N	0.175871	0.915325	0.457137
	N257	N	0.178145	0.086643	0.531636
	N258	N	0.823728	0.083019	0.457468
	N259	N	0.821491	0.912461	0.530919
	N260	N	0.462952	0.173987	0.908630
	N261	N	0.535636	0.177811	0.082955
	N262	N	0.462532	0.816561	0.081702
	N263	N	0.536757	0.819325	0.909381
	N264	N	0.462224	0.910693	0.172845
	N265	N	0.537728	0.081589	0.171039
	N266	N	0.462733	0.080955	0.817855
	N267	N	0.536036	0.910149	0.815125
	N268	N	0.914257	0.175688	0.457432
	N269	N	0.087607	0.180204	0.529949
	N270	N	0.083498	0.821649	0.456644
	N271	N	0.911438	0.818641	0.529971
	N272	N	0.177625	0.461652	0.904911
	N273	N	0.177933	0.534714	0.076721
	N274	N	0.819504	0.462096	0.078399
	N275	N	0.820489	0.536321	0.906695
	O276	O	0.006900	-0.015936	-0.008972
	H277	H	0.004075	-0.012188	0.000846
	H278	H	0.005180	-0.015724	-0.011750
	O279	O	0.492425	0.513704	0.538712
	H280	H	0.499207	0.509259	0.536566
	H281	H	0.492128	0.521232	0.544127
	O282	O	0.558339	0.653502	0.578124
	H283	H	0.561461	0.654863	0.585457
	H284	H	0.565435	0.647019	0.575945
	O285	O	0.093602	1.030601	1.006057
	H286	H	0.096590	1.033277	1.014432
	H287	H	0.095047	1.043213	1.009064
	O288	O	0.403199	0.515195	0.387044
	H289	H	0.405949	0.521137	0.382015
	H290	H	0.407859	0.513018	0.387773
	O291	O	0.964333	1.002459	1.019851
	H292	H	0.961051	1.007289	1.018415
	H293	H	0.965498	1.000715	1.020151
	O294	O	0.965913	0.974811	1.059699
	H295	H	0.959624	0.973209	1.059240
	H296	H	0.972101	0.975284	1.053308
	O297	O	1.048911	0.017251	0.977865
	H298	H	1.052288	0.010131	0.985857
	H299	H	1.056235	0.024110	0.979649
	O300	O	0.362309	0.455355	0.489019
	H301	H	0.368495	0.457120	0.499395
	H302	H	0.355800	0.448308	0.479171
	O303	O	1.018933	0.033612	0.038306
	H304	H	1.011168	0.040374	0.045893
	H305	H	1.027898	0.021114	0.036636
	O306	O	0.021876	1.065921	1.041229
	H307	H	0.021955	1.060687	1.038329
	H308	H	0.025923	1.062270	1.044718
	O309	O	0.436584	0.428202	0.555668
	H310	H	0.433038	0.428046	0.551607
	H311	H	0.433004	0.420811	0.547361
	O312	O	1.524783	0.484918	0.567089
	H313	H	1.522088	0.486514	0.556192
	H314	H	1.530466	0.477686	0.575394
	O315	O	0.575585	0.503826	0.471899
	H316	H	0.568432	0.501846	0.480674
	H317	H	0.564240	0.495437	0.466684
	O318	O	0.439873	0.548062	0.401156
	H319	H	0.423854	0.545076	0.382526
	H320	H	0.449819	0.557768	0.400506
	O321	O	1.037249	0.982850	1.011135
	H322	H	1.041992	0.985721	1.011235
	H323	H	1.031692	0.974730	1.013212
	O324	O	0.452026	0.507519	0.461503
	H325	H	0.444886	0.503192	0.459324
	H326	H	0.457093	0.515958	0.467654
	O327	O	0.536916	0.473157	0.535742
	H328	H	0.535027	0.482145	0.534714
	H329	H	0.534034	0.470163	0.542202
	O330	O	0.929815	-0.064950	1.079441
	H331	H	0.921956	-0.073754	1.070782
	H332	H	0.929830	-0.065191	1.081982
	O333	O	0.983022	0.943674	-0.078388
	H334	H	0.990028	0.955041	-0.079633
	H335	H	0.979588	0.942927	-0.083276
	O336	O	0.472106	0.642999	0.501913
	H337	H	0.481778	0.644130	0.486500
	H338	H	0.471581	0.647025	0.503366
	O339	O	0.524777	0.421876	0.517202
	H340	H	0.509814	0.416703	0.520532
	H341	H	0.524873	0.426953	0.523323
	O342	O	-0.032588	0.990863	0.035616
	H343	H	-0.034880	0.983149	0.037107
	H344	H	-0.033302	0.987531	0.033832
	O345	O	0.053630	0.104961	0.020404
	H346	H	0.053409	0.108874	0.022087
	H347	H	0.058829	0.107082	0.023266
	O348	O	-0.013964	1.000913	0.868994
	H349	H	-0.011922	1.015082	0.865001
	H350	H	-0.020149	1.003974	0.862547
	O351	O	0.410024	0.436614	0.563116
	H352	H	0.417729	0.448242	0.556336
	H353	H	0.412675	0.442902	0.560867
	O354	O	0.506047	0.400766	0.415610
	H355	H	0.513057	0.401188	0.420153
	H356	H	0.505052	0.389159	0.409624
	O357	O	0.520872	0.555897	0.384439
	H358	H	0.531471	0.553561	0.388096
	H359	H	0.528941	0.553452	0.397199
	O360	O	0.110555	0.073008	0.057625
	H361	H	0.112844	0.067141	0.057085
	H362	H	0.118922	0.073700	0.071500
	O363	O	0.603495	0.501679	0.485221
	H364	H	0.594300	0.498066	0.481192
	H365	H	0.602832	0.503172	0.483398
	O366	O	-0.374922	-0.527077	1.316189
	H367	H	-0.369994	-0.528717	1.324144
	H368	H	-0.371324	-0.528712	1.318194
	O369	O	0.447675	0.464574	0.541721
	H370	H	0.435441	0.473138	0.549547
	H371	H	0.450716	0.461558	0.541659
