data_Molecule from HDF5

_cell_length_a		16.160543
_cell_length_b		16.418554
_cell_length_c		16.300570
_cell_angle_alpha	89.946791
_cell_angle_beta	90.196559
_cell_angle_gamma	90.536659
_symmetry_space_group_name_H-M	'P 1'
_symmetry_Int_Tables_number		1

loop_
	_symmetry_equiv_pos_as_xyz
	x,y,z

loop_
	_atom_site_label
	_atom_site_type_symbol
	_atom_site_fract_x
	_atom_site_fract_y
	_atom_site_fract_z
	H0	H	0.387734	0.818552	0.728817
	H1	H	0.599354	0.139315	0.732131
	H2	H	0.592969	0.820171	0.292957
	H3	H	0.388508	0.139865	0.288766
	H4	H	0.703236	0.383636	0.848738
	H5	H	0.709412	0.583974	0.172434
	H6	H	0.275817	0.577526	0.847610
	H7	H	0.272651	0.377482	0.174189
	H8	H	0.830339	0.700799	0.407850
	H9	H	0.155723	0.698748	0.614451
	H10	H	0.830176	0.261929	0.616224
	H11	H	0.154853	0.268186	0.411705
	H12	H	0.826201	0.381368	0.723917
	H13	H	0.153986	0.582404	0.730210
	H14	H	0.828731	0.584386	0.294375
	H15	H	0.153395	0.382493	0.295097
	H16	H	0.384956	0.700250	0.850935
	H17	H	0.594612	0.699571	0.172909
	H18	H	0.594606	0.262646	0.851193
	H19	H	0.385210	0.257728	0.171178
	H20	H	0.708717	0.819650	0.410432
	H21	H	0.711548	0.141713	0.612090
	H22	H	0.271467	0.820797	0.611341
	H23	H	0.278252	0.143200	0.409162
	H24	H	0.883378	0.322005	0.233870
	H25	H	0.094283	0.642913	0.229106
	H26	H	0.088528	0.319482	0.796343
	H27	H	0.886919	0.641473	0.792287
	H28	H	0.205011	0.885424	0.347782
	H29	H	0.211479	0.082682	0.673475
	H30	H	0.776108	0.082149	0.349722
	H31	H	0.775543	0.880695	0.673687
	H32	H	0.328485	0.196509	0.905699
	H33	H	0.653374	0.201596	0.115236
	H34	H	0.328024	0.760951	0.114891
	H35	H	0.654197	0.765357	0.911119
	H36	H	0.327562	0.878416	0.227345
	H37	H	0.654777	0.083745	0.227558
	H38	H	0.328943	0.077182	0.793470
	H39	H	0.655005	0.878879	0.796878
	H40	H	0.888279	0.202164	0.352083
	H41	H	0.096946	0.199973	0.675022
	H42	H	0.100245	0.760412	0.353167
	H43	H	0.889877	0.762731	0.673085
	H44	H	0.204025	0.319013	0.911621
	H45	H	0.212247	0.640934	0.114632
	H46	H	0.770423	0.320290	0.112753
	H47	H	0.776958	0.643737	0.913170
	H48	H	0.406017	0.094316	0.604408
	H49	H	0.579876	0.866462	0.602997
	H50	H	0.578385	0.095751	0.412334
	H51	H	0.395806	0.864370	0.415192
	H52	H	0.574555	0.396840	0.123315
	H53	H	0.586568	0.576870	0.893646
	H54	H	0.391931	0.567449	0.128530
	H55	H	0.390263	0.386629	0.893170
	H56	H	0.108462	0.568137	0.415490
	H57	H	0.873521	0.568979	0.611526
	H58	H	0.108354	0.392505	0.606361
	H59	H	0.877107	0.391405	0.429207
	H60	H	0.109001	0.391144	0.604617
	H61	H	0.872535	0.583703	0.599813
	H62	H	0.110924	0.582274	0.422129
	H63	H	0.875927	0.396393	0.421856
	H64	H	0.408331	0.563926	0.121469
	H65	H	0.580918	0.569952	0.897181
	H66	H	0.574727	0.383801	0.127679
	H67	H	0.399360	0.394557	0.898221
	H68	H	0.581184	0.092428	0.426113
	H69	H	0.584800	0.866179	0.600663
	H70	H	0.406702	0.092680	0.600953
	H71	H	0.404405	0.867148	0.417808
	H72	H	0.901322	0.594252	0.099977
	H73	H	0.073416	0.368994	0.103305
	H74	H	0.081506	0.596269	0.919840
	H75	H	0.902552	0.369155	0.920742
	H76	H	0.081315	0.883106	0.629510
	H77	H	0.086098	0.082696	0.393921
	H78	H	0.897627	0.063584	0.625997
	H79	H	0.899164	0.891576	0.395750
	H80	H	0.610801	0.071796	0.911948
	H81	H	0.372795	0.080913	0.097489
	H82	H	0.607394	0.889378	0.103240
	H83	H	0.372198	0.878028	0.922280
	H84	H	0.606872	0.888168	0.100980
	H85	H	0.381210	0.062369	0.088898
	H86	H	0.610006	0.082893	0.925854
	H87	H	0.378944	0.894036	0.927376
	H88	H	0.914758	0.072283	0.624503
	H89	H	0.085875	0.072223	0.397069
	H90	H	0.090131	0.896655	0.628324
	H91	H	0.904397	0.893346	0.398869
	H92	H	0.081660	0.595305	0.920392
	H93	H	0.081427	0.367297	0.099907
	H94	H	0.896943	0.595962	0.103490
	H95	H	0.889945	0.365355	0.923291
	H96	H	0.403522	0.094834	0.601868
	H97	H	0.584340	0.864292	0.605437
	H98	H	0.592200	0.098405	0.418692
	H99	H	0.397142	0.867402	0.424486
	H100	H	0.585360	0.391732	0.129223
	H101	H	0.577157	0.578297	0.895266
	H102	H	0.404457	0.579884	0.128312
	H103	H	0.402712	0.382486	0.896089
	H104	H	0.104475	0.570520	0.430352
	H105	H	0.878846	0.567129	0.594048
	H106	H	0.107903	0.393479	0.604735
	H107	H	0.873562	0.387761	0.421367
	H108	H	0.902543	0.596091	0.105539
	H109	H	0.079902	0.365617	0.108292
	H110	H	0.082393	0.596181	0.921009
	H111	H	0.894780	0.363695	0.911274
	H112	H	0.074522	0.896008	0.622447
	H113	H	0.077888	0.078259	0.398194
	H114	H	0.899447	0.082489	0.631203
	H115	H	0.904412	0.887252	0.395753
	H116	H	0.604238	0.066470	0.928329
	H117	H	0.374481	0.063333	0.110560
	H118	H	0.606932	0.890868	0.101717
	H119	H	0.373086	0.891677	0.910913
	C120	C	0.372024	-0.011699	0.632637
	C121	C	0.614696	0.971611	0.633486
	C122	C	0.613926	-0.010767	0.388903
	C123	C	0.370045	0.972718	0.388450
	C124	C	0.609657	0.361182	0.019929
	C125	C	0.612359	0.604360	1.002529
	C126	C	0.369885	0.600767	0.019677
	C127	C	0.366965	0.357073	1.002642
	C128	C	0.000798	0.604321	0.390861
	C129	C	0.982659	0.603689	0.633535
	C130	C	0.000396	0.361277	0.634056
	C131	C	0.982894	0.362294	0.392944
	C132	C	0.867743	0.489918	0.134134
	C133	C	0.111546	0.473119	0.134328
	C134	C	0.110701	0.489236	0.890534
	C135	C	0.867113	0.472708	0.889155
	C136	C	0.113080	0.861869	0.520228
	C137	C	0.115122	0.106681	0.503528
	C138	C	0.872271	0.103397	0.520705
	C139	C	0.871566	0.860149	0.503350
	C140	C	0.500617	0.102014	0.890130
	C141	C	0.483191	0.101503	0.131337
	C142	C	0.499362	0.858834	0.132583
	C143	C	0.482690	0.858919	0.890706
	C144	C	0.369252	0.867208	0.689868
	C145	C	0.617371	0.091582	0.692510
	C146	C	0.612826	0.868231	0.331792
	C147	C	0.370329	0.092726	0.329482
	C148	C	0.666069	0.363075	0.897784
	C149	C	0.670188	0.603265	0.124310
	C150	C	0.312866	0.598984	0.896962
	C151	C	0.310325	0.357421	0.124968
	C152	C	0.878775	0.661889	0.389298
	C153	C	0.106212	0.660452	0.633989
	C154	C	0.878089	0.301982	0.634214
	C155	C	0.105493	0.305935	0.392325
	C156	C	0.876088	0.361840	0.687655
	C157	C	0.105434	0.602489	0.691413
	C158	C	0.877936	0.603857	0.332687
	C159	C	0.105103	0.363057	0.334500
	C160	C	0.367735	0.659712	0.898537
	C161	C	0.613299	0.661087	0.124481
	C162	C	0.611792	0.302804	0.898898
	C163	C	0.366453	0.298011	0.123551
	C164	C	0.670180	0.868006	0.390396
	C165	C	0.673193	0.092930	0.632667
	C166	C	0.311318	0.868267	0.631473
	C167	C	0.315033	0.094305	0.388989
	C168	C	0.865385	0.369545	0.193282
	C169	C	0.113313	0.594411	0.190774
	C170	C	0.108543	0.367858	0.834480
	C171	C	0.868206	0.593636	0.831916
	C172	C	0.168408	0.864207	0.397282
	C173	C	0.173076	0.103823	0.625164
	C174	C	0.814642	0.102336	0.398531
	C175	C	0.814043	0.860660	0.625222
	C176	C	0.377602	0.157788	0.888037
	C177	C	0.604957	0.161704	0.133426
	C178	C	0.376768	0.800357	0.133418
	C179	C	0.605556	0.803255	0.891847
	C180	C	0.376488	0.858839	0.189561
	C181	C	0.605643	0.102683	0.189117
	C182	C	0.377855	0.098552	0.832024
	C183	C	0.605827	0.859503	0.834721
	C184	C	0.870299	0.162213	0.399746
	C185	C	0.116101	0.162234	0.625971
	C186	C	0.116163	0.802010	0.399967
	C187	C	0.870934	0.802184	0.624850
	C188	C	0.166156	0.367450	0.892041
	C189	C	0.172142	0.593337	0.133961
	C190	C	0.808975	0.368824	0.133284
	C191	C	0.813324	0.594836	0.892104
	C192	C	0.397950	0.072243	0.609154
	C193	C	0.590097	0.887390	0.609924
	C194	C	0.590830	0.073553	0.412303
	C195	C	0.392680	0.888310	0.412078
	C196	C	0.585249	0.384042	0.104736
	C197	C	0.588357	0.581790	0.917584
	C198	C	0.394307	0.577177	0.104203
	C199	C	0.390618	0.380825	0.917765
	C200	C	0.085858	0.580647	0.415351
	C201	C	0.897167	0.580317	0.608967
	C202	C	0.086176	0.385219	0.611796
	C203	C	0.897750	0.385249	0.417113
	C204	C	0.893037	0.573759	0.110147
	C205	C	0.085494	0.389096	0.110817
	C206	C	0.088323	0.573917	0.913728
	C207	C	0.889258	0.387969	0.911799
	C208	C	0.089134	0.885228	0.604638
	C209	C	0.090449	0.084396	0.418428
	C210	C	0.896833	0.079593	0.605322
	C211	C	0.895618	0.883946	0.418897
	C212	C	0.586195	0.080212	0.914749
	C213	C	0.398226	0.076150	0.106127
	C214	C	0.584916	0.882574	0.108895
	C215	C	0.396933	0.881497	0.913616
	Zn216	Zn	0.492994	-0.021219	0.763078
	Zn217	Zn	0.491476	-0.019479	0.259631
	Zn218	Zn	0.738769	0.481479	0.010928
	Zn219	Zn	0.240067	0.480349	0.011655
	Zn220	Zn	-0.006877	0.731839	0.511987
	Zn221	Zn	-0.007798	0.233814	0.514161
	Zn222	Zn	-0.010478	0.480892	0.761254
	Zn223	Zn	-0.009192	0.482271	0.263374
	Zn224	Zn	0.490644	0.731565	0.011330
	Zn225	Zn	0.490897	0.230799	0.010969
	Zn226	Zn	0.743208	-0.018880	0.511312
	Zn227	Zn	0.241721	-0.017194	0.510319
	N228	N	0.406432	0.942822	0.690565
	N229	N	0.581996	0.015073	0.693333
	N230	N	0.578720	0.944733	0.330592
	N231	N	0.403741	0.016066	0.328943
	N232	N	0.664971	0.398579	0.974210
	N233	N	0.669893	0.568772	0.047535
	N234	N	0.314175	0.563065	0.973192
	N235	N	0.310218	0.393231	0.048671
	N236	N	0.956126	0.662352	0.424596
	N237	N	0.028922	0.661121	0.598643
	N238	N	0.956395	0.301340	0.601675
	N239	N	0.028433	0.305189	0.427688
	N240	N	0.953033	0.398127	0.687622
	N241	N	0.027411	0.568228	0.691673
	N242	N	0.954841	0.568728	0.333478
	N243	N	0.027710	0.397264	0.334545
	N244	N	0.402428	0.661058	0.975820
	N245	N	0.578127	0.661915	0.047633
	N246	N	0.577369	0.301692	0.975849
	N247	N	0.400642	0.297473	0.046436
	N248	N	0.671197	0.944349	0.424858
	N249	N	0.671675	0.017343	0.596715
	N250	N	0.312716	0.944628	0.596788
	N251	N	0.314724	0.018661	0.424968
	N252	N	0.901074	0.445881	0.194230
	N253	N	0.076246	0.518657	0.190862
	N254	N	0.074842	0.444541	0.833359
	N255	N	0.900872	0.516649	0.829824
	N256	N	0.166538	0.900925	0.472884
	N257	N	0.172886	0.070232	0.547908
	N258	N	0.815715	0.066433	0.474773
	N259	N	0.814255	0.895946	0.548684
	N260	N	0.455052	0.160127	0.923476
	N261	N	0.527477	0.161237	0.098340
	N262	N	0.454237	0.800002	0.099090
	N263	N	0.527923	0.802615	0.926028
	N264	N	0.453837	0.894417	0.189299
	N265	N	0.528967	0.065641	0.187681
	N266	N	0.455356	0.064872	0.833079
	N267	N	0.528478	0.893537	0.833927
	N268	N	0.905399	0.162852	0.476672
	N269	N	0.080997	0.164229	0.549120
	N270	N	0.082257	0.800407	0.477264
	N271	N	0.905903	0.801704	0.548013
	N272	N	0.167636	0.443906	0.926294
	N273	N	0.171300	0.516831	0.099699
	N274	N	0.810113	0.444641	0.097597
	N275	N	0.812353	0.518564	0.926772
	O276	O	0.441410	0.484574	0.558764
	H277	H	0.448665	0.494999	0.546311
	H278	H	0.435914	0.483957	0.564881
	O279	O	0.571614	0.586513	0.558283
	H280	H	0.572091	0.599138	0.563560
	H281	H	0.576571	0.578538	0.562191
	O282	O	1.019639	-0.079540	0.870091
	H283	H	1.031180	-0.067110	0.873752
	H284	H	1.019150	-0.075668	0.873061
	O285	O	0.535573	0.513526	0.486024
	H286	H	0.544484	0.515965	0.457031
	H287	H	0.524615	0.505168	0.493261
	O288	O	1.161581	0.933413	0.981733
	H289	H	1.161233	0.930345	0.984444
	H290	H	1.149679	0.922290	0.984864
	O291	O	0.556132	1.623647	-0.405093
	H292	H	0.558441	1.620948	-0.401363
	H293	H	0.555504	1.619130	-0.401704
	O294	O	0.600364	0.400519	0.336468
	H295	H	0.608387	0.403625	0.359616
	H296	H	0.598023	0.389648	0.326148
	O297	O	0.553455	0.525156	0.592453
	H298	H	0.549496	0.513620	0.587926
	H299	H	0.558165	0.520486	0.593801
	O300	O	0.545576	0.551578	0.665000
	H301	H	0.534130	0.558263	0.668689
	H302	H	0.547114	0.538919	0.654987
	O303	O	0.907660	0.902629	-0.135267
	H304	H	0.908356	0.907092	-0.134054
	H305	H	0.890072	0.899854	-0.134766
	O306	O	0.586174	0.608598	0.497186
	H307	H	0.580603	0.611311	0.508612
	H308	H	0.585693	0.604704	0.503237
	O309	O	0.356228	0.337110	0.653048
	H310	H	0.349917	0.349284	0.660098
	H311	H	0.340796	0.336543	0.644393
	O312	O	-0.073830	-0.064170	-0.064632
	H313	H	-0.079914	-0.067740	-0.065468
	H314	H	-0.050392	-0.066395	-0.063515
	O315	O	0.490699	0.578093	0.429646
	H316	H	0.500005	0.577644	0.431781
	H317	H	0.502383	0.588475	0.430258
	O318	O	0.046632	0.998786	0.931960
	H319	H	0.057977	1.000950	0.934066
	H320	H	0.055026	1.001557	0.931917
	O321	O	0.534588	0.302036	0.373531
	H322	H	0.524707	0.298680	0.378500
	H323	H	0.526784	0.310114	0.377657
	O324	O	-0.027275	1.092301	-0.095538
	H325	H	-0.017873	1.088946	-0.079336
	H326	H	-0.035657	1.096157	-0.097896
	O327	O	0.011282	0.119439	0.074899
	H328	H	0.003933	0.112265	0.080500
	H329	H	0.001731	0.127859	0.079569
	O330	O	0.068054	-0.116134	1.061004
	H331	H	0.069403	-0.122133	1.060725
	H332	H	0.067037	-0.115128	1.062102
	O333	O	-0.049118	0.009022	0.998081
	H334	H	-0.048792	0.012023	0.997825
	H335	H	-0.049543	0.016905	0.989792
	O336	O	0.416034	0.601419	0.447742
	H337	H	0.414411	0.601845	0.448347
	H338	H	0.423669	0.599215	0.435839
	O339	O	1.086482	-0.070706	-0.010364
	H340	H	1.086745	-0.081470	-0.016480
	H341	H	1.077954	-0.079085	-0.002463
	O342	O	-0.120608	0.001622	0.116034
	H343	H	-0.122871	-0.016820	0.116561
	H344	H	-0.119155	-0.007816	0.131524
	O345	O	0.930303	-0.121885	1.000134
	H346	H	0.922467	-0.122091	0.998048
	H347	H	0.938051	-0.104847	0.989745
	O348	O	0.894755	1.098221	-0.120315
	H349	H	0.901332	1.102793	-0.116540
	H350	H	0.894331	1.103811	-0.115243
	O351	O	0.408908	0.494583	0.517342
	H352	H	0.410812	0.502901	0.512669
	H353	H	0.401208	0.482291	0.518566
	O354	O	1.033396	-0.062545	0.951299
	H355	H	1.019505	-0.052207	0.950782
	H356	H	1.039189	-0.053292	0.962194
	O357	O	0.517753	0.561213	0.626063
	H358	H	0.522322	0.563407	0.629083
	H359	H	0.523064	0.574760	0.634126
	O360	O	0.923422	0.953672	1.160189
	H361	H	0.907685	0.959849	1.171717
	H362	H	0.921657	0.932964	1.156629
	O363	O	0.019501	1.073817	1.005045
	H364	H	0.015559	1.058365	1.012214
	H365	H	0.025290	1.065289	0.997936
	O366	O	0.485698	0.367020	0.333742
	H367	H	0.476265	0.359542	0.326297
	H368	H	0.492162	0.388384	0.334197
	O369	O	-0.026810	0.933219	0.075076
	H370	H	-0.035556	0.938298	0.059434
	H371	H	-0.033583	0.925572	0.079028
	O372	O	0.555935	0.324024	0.471518
	H373	H	0.547261	0.332802	0.488193
	H374	H	0.557367	0.322603	0.478573
	O375	O	0.473427	0.487767	0.459891
	H376	H	0.481469	0.478467	0.447763
	H377	H	0.478011	0.476773	0.465401
	O378	O	1.028862	1.130089	0.171631
	H379	H	1.018967	1.128971	0.178164
	H380	H	1.006002	1.141955	0.166631
	O381	O	0.725687	0.284706	-0.249560
	H382	H	0.719919	0.277651	-0.245710
	H383	H	0.737429	0.285382	-0.232056
	O384	O	1.570396	1.349915	-0.411876
	H385	H	1.552227	1.335183	-0.405032
	H386	H	1.563428	1.341695	-0.409870
	O387	O	0.104331	-0.021553	0.057729
	H388	H	0.105468	-0.017983	0.062144
	H389	H	0.097092	-0.021168	0.071132
	O390	O	-0.125931	0.807085	0.085188
	H391	H	-0.122865	0.796146	0.083037
	H392	H	-0.118340	0.799630	0.067437
	O393	O	0.377271	0.484406	0.382925
	H394	H	0.391157	0.481517	0.381932
	H395	H	0.364429	0.480867	0.386153
	O396	O	0.362553	0.372733	0.509849
	H397	H	0.376835	0.372700	0.512152
	H398	H	0.370900	0.390603	0.494743
	O399	O	0.397084	1.289041	1.620428
	H400	H	0.380149	1.278799	1.619137
	H401	H	0.398134	1.279159	1.625143
	O402	O	0.573259	0.554985	0.423616
	H403	H	0.576478	0.563232	0.432873
	H404	H	0.575005	0.547158	0.418874
	O405	O	1.127270	1.078195	0.182860
	H406	H	1.103158	1.090449	0.189242
	H407	H	1.131944	1.062858	0.189492
	O408	O	1.194233	1.101836	0.060347
	H409	H	1.206991	1.111540	0.072237
	H410	H	1.207979	1.103802	0.086277
	O411	O	0.855306	-0.074949	0.991035
	H412	H	0.858357	-0.073190	0.994980
	H413	H	0.868547	-0.073361	0.987561
	O414	O	0.301927	0.426876	0.536338
	H415	H	0.302783	0.425198	0.534832
	H416	H	0.302700	0.424265	0.533231
	O417	O	0.560605	0.644319	0.588556
	H418	H	0.558762	0.644746	0.599694
	H419	H	0.538760	0.646731	0.584085
