data_Molecule from HDF5

_cell_length_a		16.458780
_cell_length_b		16.337545
_cell_length_c		16.484226
_cell_angle_alpha	89.941627
_cell_angle_beta	89.919630
_cell_angle_gamma	90.089080
_symmetry_space_group_name_H-M	'P 1'
_symmetry_Int_Tables_number		1

loop_
	_symmetry_equiv_pos_as_xyz
	x,y,z

loop_
	_atom_site_label
	_atom_site_type_symbol
	_atom_site_fract_x
	_atom_site_fract_y
	_atom_site_fract_z
	H0	H	0.393965	0.847102	0.727381
	H1	H	0.608932	0.163828	0.722285
	H2	H	0.610602	0.847416	0.276928
	H3	H	0.392042	0.160751	0.278685
	H4	H	0.728632	0.394657	0.847156
	H5	H	0.726623	0.612040	0.159652
	H6	H	0.278232	0.613249	0.844703
	H7	H	0.277058	0.394027	0.158319
	H8	H	0.845610	0.725560	0.395757
	H9	H	0.159410	0.726837	0.610968
	H10	H	0.845525	0.277243	0.610615
	H11	H	0.161034	0.280806	0.395871
	H12	H	0.845835	0.391911	0.727858
	H13	H	0.158520	0.611486	0.727504
	H14	H	0.847696	0.612999	0.277158
	H15	H	0.158410	0.393474	0.277135
	H16	H	0.397077	0.728175	0.844346
	H17	H	0.610054	0.728156	0.159531
	H18	H	0.610245	0.281547	0.845378
	H19	H	0.396599	0.281911	0.160286
	H20	H	0.723223	0.844872	0.394534
	H21	H	0.728511	0.160401	0.611000
	H22	H	0.279434	0.845558	0.612718
	H23	H	0.279676	0.161556	0.396498
	H24	H	0.893326	0.346474	0.228137
	H25	H	0.110659	0.661028	0.224949
	H26	H	0.111950	0.345354	0.777997
	H27	H	0.891150	0.657882	0.775420
	H28	H	0.229571	0.891682	0.347933
	H29	H	0.225889	0.111818	0.659712
	H30	H	0.777986	0.111060	0.345868
	H31	H	0.772619	0.888309	0.656586
	H32	H	0.345377	0.228665	0.895870
	H33	H	0.659152	0.228691	0.111778
	H34	H	0.346705	0.778172	0.111405
	H35	H	0.660867	0.781148	0.893635
	H36	H	0.345715	0.894170	0.227032
	H37	H	0.656275	0.117768	0.231981
	H38	H	0.346403	0.116618	0.776577
	H39	H	0.659643	0.897221	0.777577
	H40	H	0.896469	0.226077	0.345116
	H41	H	0.112016	0.228925	0.658144
	H42	H	0.108164	0.782032	0.345283
	H43	H	0.892960	0.777148	0.658111
	H44	H	0.229293	0.346746	0.891155
	H45	H	0.224907	0.662456	0.108466
	H46	H	0.779394	0.345952	0.112342
	H47	H	0.778398	0.659767	0.892751
	H48	H	0.414994	0.118007	0.592352
	H49	H	0.585531	0.893212	0.586201
	H50	H	0.586902	0.116195	0.415755
	H51	H	0.415511	0.890989	0.417788
	H52	H	0.594689	0.413135	0.117858
	H53	H	0.587989	0.585654	0.893551
	H54	H	0.413716	0.593363	0.114414
	H55	H	0.423159	0.411705	0.892205
	H56	H	0.118120	0.595570	0.411820
	H57	H	0.891226	0.588887	0.588988
	H58	H	0.113433	0.417748	0.589237
	H59	H	0.890010	0.415018	0.411947
	H60	H	0.114624	0.416954	0.591399
	H61	H	0.890741	0.588455	0.589611
	H62	H	0.113624	0.592185	0.419159
	H63	H	0.890408	0.412935	0.418077
	H64	H	0.412458	0.588293	0.113116
	H65	H	0.588179	0.597537	0.889869
	H66	H	0.592760	0.420845	0.113945
	H67	H	0.407789	0.414017	0.886274
	H68	H	0.587969	0.114749	0.419622
	H69	H	0.591655	0.888993	0.589822
	H70	H	0.415896	0.115887	0.587591
	H71	H	0.414459	0.889354	0.414633
	H72	H	0.916883	0.617236	0.090802
	H73	H	0.087738	0.391672	0.085855
	H74	H	0.086888	0.616209	0.909673
	H75	H	0.915312	0.390657	0.919677
	H76	H	0.086811	0.910422	0.616363
	H77	H	0.092126	0.089031	0.390529
	H78	H	0.911187	0.084848	0.614706
	H79	H	0.913378	0.908628	0.387065
	H80	H	0.617060	0.096597	0.911762
	H81	H	0.390485	0.088071	0.094397
	H82	H	0.613202	0.919509	0.087209
	H83	H	0.391766	0.918412	0.916167
	H84	H	0.614132	0.921267	0.092235
	H85	H	0.388715	0.095850	0.091137
	H86	H	0.612941	0.091909	0.917106
	H87	H	0.391077	0.917631	0.914141
	H88	H	0.919104	0.085942	0.611334
	H89	H	0.090309	0.089579	0.390599
	H90	H	0.095835	0.915107	0.617240
	H91	H	0.907008	0.919137	0.388865
	H92	H	0.086160	0.613058	0.919222
	H93	H	0.093113	0.389003	0.088558
	H94	H	0.917098	0.615782	0.089024
	H95	H	0.913074	0.388109	0.914363
	H96	H	0.411126	0.118188	0.588527
	H97	H	0.584917	0.891055	0.594407
	H98	H	0.590992	0.117056	0.416959
	H99	H	0.417562	0.891456	0.414616
	H100	H	0.586567	0.414942	0.114329
	H101	H	0.598498	0.590481	0.888238
	H102	H	0.417055	0.590451	0.112367
	H103	H	0.415791	0.426462	0.894311
	H104	H	0.115076	0.586638	0.411782
	H105	H	0.890177	0.589031	0.589622
	H106	H	0.114159	0.415326	0.589494
	H107	H	0.892062	0.419170	0.416823
	H108	H	0.915319	0.616682	0.089839
	H109	H	0.087712	0.390300	0.092201
	H110	H	0.094411	0.616482	0.915692
	H111	H	0.918607	0.390027	0.914544
	H112	H	0.088153	0.920505	0.613106
	H113	H	0.091501	0.090891	0.390210
	H114	H	0.915189	0.092554	0.615108
	H115	H	0.918681	0.918143	0.393597
	H116	H	0.614693	0.088949	0.909788
	H117	H	0.392383	0.089581	0.086138
	H118	H	0.615212	0.915868	0.090649
	H119	H	0.391472	0.916470	0.915608
	C120	C	0.380515	0.013126	0.624497
	C121	C	0.623006	0.995236	0.623581
	C122	C	0.622505	0.012311	0.381931
	C123	C	0.381221	0.994906	0.382137
	C124	C	0.624811	0.382297	0.011875
	C125	C	0.624874	0.625565	0.994119
	C126	C	0.381336	0.625517	0.009794
	C127	C	0.381254	0.382957	0.994199
	C128	C	0.011760	0.624546	0.380907
	C129	C	0.993863	0.623998	0.624325
	C130	C	0.010723	0.381159	0.624029
	C131	C	0.994377	0.381939	0.381433
	C132	C	0.882132	0.512304	0.124171
	C133	C	0.123619	0.494561	0.122837
	C134	C	0.124198	0.511636	0.880427
	C135	C	0.881056	0.493488	0.881282
	C136	C	0.124321	0.881360	0.511995
	C137	C	0.124297	0.124094	0.494148
	C138	C	0.881438	0.122938	0.510401
	C139	C	0.879112	0.880537	0.493314
	C140	C	0.511167	0.126847	0.880095
	C141	C	0.493355	0.126368	0.125151
	C142	C	0.511090	0.883234	0.124368
	C143	C	0.494997	0.883918	0.881085
	C144	C	0.376698	0.894533	0.687087
	C145	C	0.626908	0.115476	0.682902
	C146	C	0.627328	0.894437	0.318305
	C147	C	0.375988	0.113651	0.320139
	C148	C	0.686890	0.378096	0.893766
	C149	C	0.686242	0.629918	0.112250
	C150	C	0.319620	0.630096	0.891810
	C151	C	0.318128	0.377053	0.111449
	C152	C	0.893047	0.685435	0.377880
	C153	C	0.111977	0.686557	0.628542
	C154	C	0.892792	0.318036	0.628369
	C155	C	0.113115	0.320966	0.378272
	C156	C	0.892857	0.375471	0.686628
	C157	C	0.111440	0.629063	0.686921
	C158	C	0.894196	0.629100	0.318796
	C159	C	0.111722	0.377012	0.318745
	C160	C	0.378501	0.687705	0.891624
	C161	C	0.628001	0.687605	0.112217
	C162	C	0.627974	0.321456	0.892945
	C163	C	0.377863	0.321168	0.112448
	C164	C	0.683640	0.893067	0.376909
	C165	C	0.686764	0.113542	0.627808
	C166	C	0.319491	0.893743	0.629720
	C167	C	0.319432	0.113743	0.378597
	C168	C	0.876553	0.393993	0.187062
	C169	C	0.127882	0.613565	0.184626
	C170	C	0.129176	0.393059	0.818303
	C171	C	0.875117	0.611047	0.817364
	C172	C	0.187359	0.875652	0.394873
	C173	C	0.185721	0.129036	0.612191
	C174	C	0.819471	0.127872	0.392599
	C175	C	0.814733	0.873190	0.609904
	C176	C	0.393009	0.188841	0.877173
	C177	C	0.611317	0.188868	0.129694
	C178	C	0.393697	0.819342	0.128791
	C179	C	0.613300	0.822004	0.876677
	C180	C	0.393142	0.877406	0.186296
	C181	C	0.609912	0.133219	0.189538
	C182	C	0.393420	0.132511	0.817970
	C183	C	0.612671	0.879769	0.818441
	C184	C	0.878354	0.185219	0.392276
	C185	C	0.128723	0.187473	0.611511
	C186	C	0.127052	0.820592	0.393384
	C187	C	0.874912	0.817657	0.610725
	C188	C	0.187849	0.393887	0.874814
	C189	C	0.184774	0.614174	0.126312
	C190	C	0.819781	0.393505	0.129089
	C191	C	0.818546	0.611930	0.875799
	C192	C	0.406351	0.095613	0.597197
	C193	C	0.595600	0.912816	0.597607
	C194	C	0.596190	0.094653	0.409447
	C195	C	0.407984	0.912292	0.408242
	C196	C	0.598857	0.408524	0.093955
	C197	C	0.599024	0.598947	0.912094
	C198	C	0.407024	0.598494	0.091672
	C199	C	0.407750	0.409861	0.912174
	C200	C	0.094043	0.598781	0.406842
	C201	C	0.912340	0.596603	0.597439
	C202	C	0.092580	0.408614	0.597630
	C203	C	0.912217	0.408259	0.407901
	C204	C	0.908854	0.594849	0.097474
	C205	C	0.097058	0.412041	0.096628
	C206	C	0.097058	0.593886	0.907311
	C207	C	0.907996	0.411037	0.908395
	C208	C	0.097883	0.907775	0.594021
	C209	C	0.098680	0.097416	0.412155
	C210	C	0.907528	0.095640	0.592268
	C211	C	0.905462	0.907753	0.411250
	C212	C	0.593324	0.100007	0.905670
	C213	C	0.411862	0.099026	0.098294
	C214	C	0.592700	0.911047	0.097682
	C215	C	0.412927	0.910070	0.907695
	Zn216	Zn	0.502315	0.005298	0.751456
	Zn217	Zn	0.501300	0.004169	0.253515
	Zn218	Zn	0.753959	0.503336	0.003500
	Zn219	Zn	0.251651	0.503732	0.002104
	Zn220	Zn	0.002400	0.752833	0.502622
	Zn221	Zn	0.002715	0.252483	0.502428
	Zn222	Zn	0.002187	0.502028	0.753151
	Zn223	Zn	0.003308	0.503252	0.252056
	Zn224	Zn	0.503331	0.754908	0.002605
	Zn225	Zn	0.503021	0.254192	0.002789
	Zn226	Zn	0.751146	0.002580	0.502447
	Zn227	Zn	0.253109	0.002789	0.503208
	N228	N	0.413679	0.970024	0.684177
	N229	N	0.588065	0.040925	0.680506
	N230	N	0.590172	0.969812	0.321094
	N231	N	0.413560	0.038822	0.322176
	N232	N	0.685150	0.415017	0.968633
	N233	N	0.684766	0.592226	0.037707
	N234	N	0.321215	0.592227	0.966372
	N235	N	0.320027	0.414656	0.036837
	N236	N	0.967217	0.682774	0.415851
	N237	N	0.037848	0.683480	0.590338
	N238	N	0.967123	0.321360	0.590347
	N239	N	0.038945	0.323784	0.416548
	N240	N	0.967283	0.413874	0.684194
	N241	N	0.036947	0.591142	0.684565
	N242	N	0.968888	0.591908	0.320574
	N243	N	0.036750	0.414090	0.320474
	N244	N	0.416080	0.684978	0.965994
	N245	N	0.590828	0.685160	0.037707
	N246	N	0.590088	0.323925	0.967304
	N247	N	0.416108	0.324503	0.038329
	N248	N	0.680689	0.967264	0.415853
	N249	N	0.684607	0.037636	0.591830
	N250	N	0.321644	0.968431	0.591516
	N251	N	0.322694	0.038732	0.416579
	N252	N	0.914439	0.468870	0.184285
	N253	N	0.090932	0.538016	0.182812
	N254	N	0.090081	0.467274	0.821724
	N255	N	0.912939	0.536246	0.820382
	N256	N	0.185948	0.912666	0.469771
	N257	N	0.183091	0.090123	0.538297
	N258	N	0.821065	0.090200	0.467192
	N259	N	0.817255	0.911596	0.535672
	N260	N	0.467295	0.185522	0.915163
	N261	N	0.537966	0.184637	0.090191
	N262	N	0.467993	0.822849	0.090850
	N263	N	0.539121	0.824406	0.914893
	N264	N	0.467140	0.916454	0.183511
	N265	N	0.535498	0.095092	0.187129
	N266	N	0.467904	0.094712	0.819763
	N267	N	0.537997	0.917447	0.820989
	N268	N	0.916088	0.182210	0.466604
	N269	N	0.091371	0.184586	0.537065
	N270	N	0.088786	0.823746	0.467374
	N271	N	0.914279	0.822202	0.537337
	N272	N	0.184997	0.468777	0.912535
	N273	N	0.182571	0.539094	0.088933
	N274	N	0.822986	0.468201	0.090647
	N275	N	0.822109	0.537655	0.914811
	O276	O	0.486365	0.572851	0.518404
	H277	H	0.495998	0.562373	0.504286
	H278	H	0.495252	0.570510	0.512948
	O279	O	0.822599	0.182024	0.830199
	H280	H	0.867420	0.185552	0.831054
	H281	H	0.808148	0.130952	0.813691
	O282	O	0.714026	0.488937	0.299281
	H283	H	0.741516	0.495369	0.303026
	H284	H	0.726962	0.502772	0.316387
	O285	O	0.712743	0.499188	0.503266
	H286	H	0.719891	0.500122	0.515922
	H287	H	0.691412	0.488689	0.517088
	O288	O	0.295185	0.525367	0.593466
	H289	H	0.302459	0.498902	0.578436
	H290	H	0.292739	0.523737	0.608683
	O291	O	0.292633	0.459738	0.450397
	H292	H	0.302643	0.469705	0.437301
	H293	H	0.288357	0.467423	0.431527
	O294	O	0.017059	0.034819	0.955673
	H295	H	0.026897	0.034417	0.957440
	H296	H	0.013125	0.037849	0.965486
	O297	O	0.592467	0.305624	0.310427
	H298	H	0.579513	0.295205	0.293512
	H299	H	0.570955	0.312776	0.321114
	O300	O	0.344191	0.502958	0.696727
	H301	H	0.381009	0.525112	0.702413
	H302	H	0.329414	0.505693	0.716035
	O303	O	0.523744	0.718879	0.720314
	H304	H	0.533047	0.745792	0.738435
	H305	H	0.570321	0.714883	0.717060
	O306	O	0.523241	0.431036	0.301847
	H307	H	0.502122	0.403896	0.310494
	H308	H	0.536463	0.411139	0.303582
	O309	O	1.154578	0.955966	0.012266
	H310	H	1.162781	0.940852	0.017368
	H311	H	1.153034	0.959072	0.033358
	O312	O	-0.002908	1.105635	1.156312
	H313	H	-0.014993	1.104673	1.141156
	H314	H	-0.002549	1.115105	1.162369
	O315	O	-0.052945	-0.049325	0.804327
	H316	H	-0.033118	-0.044891	0.818186
	H317	H	-0.030609	-0.064660	0.801580
	O318	O	1.211467	0.215566	0.027090
	H319	H	1.208434	0.205792	0.005678
	H320	H	1.232614	0.235115	0.018918
	O321	O	0.112316	0.112919	0.000552
	H322	H	0.110871	0.092193	-0.024084
	H323	H	0.107855	0.090340	0.004521
	O324	O	0.512881	0.434342	0.504326
	H325	H	0.500866	0.432997	0.528156
	H326	H	0.525694	0.434497	0.480523
	O327	O	0.403097	0.698131	0.311460
	H328	H	0.439274	0.689868	0.304469
	H329	H	0.402835	0.713954	0.323084
	O330	O	-0.216122	0.784343	0.021771
	H331	H	-0.234999	0.764908	0.046611
	H332	H	-0.221345	0.778948	0.054935
	O333	O	0.680228	0.683007	0.683698
	H334	H	0.693259	0.648497	0.675291
	H335	H	0.690343	0.671960	0.648400
	O336	O	0.069150	0.185682	0.193732
	H337	H	0.061412	0.184898	0.162405
	H338	H	0.037035	0.199979	0.199663
	O339	O	0.082273	0.876622	1.190286
	H340	H	0.092317	0.896562	1.192977
	H341	H	0.095531	0.893350	1.187750
	O342	O	-0.211210	0.984166	1.213514
	H343	H	-0.223332	1.008497	1.177532
	H344	H	-0.237921	0.990827	1.234364
	O345	O	1.155519	0.985226	0.177454
	H346	H	1.163392	1.005614	0.181419
	H347	H	1.160173	0.995669	0.187865
	O348	O	0.283939	0.522420	0.283483
	H349	H	0.253609	0.540455	0.256771
	H350	H	0.294107	0.563468	0.288422
	O351	O	0.221955	0.982892	0.786389
	H352	H	0.247524	0.987819	0.769841
	H353	H	0.210687	1.000885	0.781652
	O354	O	0.216721	0.790569	-0.021337
	H355	H	0.207761	0.791025	-0.055224
	H356	H	0.244329	0.770234	-0.018080
	O357	O	-0.033847	-0.036143	1.103069
	H358	H	-0.024195	-0.048439	1.110930
	H359	H	-0.032308	-0.021109	1.115345
	O360	O	0.557649	0.692926	0.458792
	H361	H	0.531838	0.695571	0.461051
	H362	H	0.541297	0.675987	0.438646
	O363	O	-0.653630	0.310368	0.633577
	H364	H	-0.656324	0.303054	0.622036
	H365	H	-0.665104	0.339935	0.640001
	O366	O	0.029273	1.175061	-0.142731
	H367	H	0.026444	1.183385	-0.138640
	H368	H	0.022561	1.169698	-0.130166
	O369	O	0.443884	0.451078	0.307556
	H370	H	0.445087	0.421180	0.315768
	H371	H	0.416777	0.456881	0.293821
	O372	O	1.100523	0.178832	0.940387
	H373	H	1.104564	0.182400	0.952383
	H374	H	1.087027	0.173502	0.969687
	O375	O	0.700999	0.305611	0.393634
	H376	H	0.689854	0.286182	0.385161
	H377	H	0.697404	0.338130	0.364532
	O378	O	1.019657	0.788330	0.786592
	H379	H	1.029361	0.779159	0.778860
	H380	H	1.012647	0.764867	0.791109
	O381	O	0.558192	0.398801	0.662264
	H382	H	0.531075	0.422847	0.662453
	H383	H	0.567131	0.377601	0.654975
	O384	O	0.835237	0.058201	0.027027
	H385	H	0.838763	0.026433	0.002142
	H386	H	0.829481	0.086939	0.015522
	O387	O	0.035235	-0.207398	1.100923
	H388	H	0.034249	-0.201464	1.087828
	H389	H	0.049768	-0.216646	1.107832
	O390	O	0.202526	0.091800	0.204304
	H391	H	0.208817	0.105882	0.199813
	H392	H	0.189819	0.121087	0.197449
	O393	O	1.180691	0.821219	0.820403
	H394	H	1.152492	0.816260	0.826042
	H395	H	1.188476	0.868535	0.810595
	O396	O	0.815221	-0.180173	0.182752
	H397	H	0.868757	-0.189339	0.192671
	H398	H	0.805502	-0.126811	0.195326
	O399	O	0.333806	0.668640	0.543026
	H400	H	0.324104	0.647105	0.560394
	H401	H	0.327077	0.690758	0.556071
	O402	O	0.986443	0.904206	0.980765
	H403	H	0.962512	0.898098	0.996700
	H404	H	0.999508	0.901064	0.996917
	O405	O	0.789139	0.952172	-0.053476
	H406	H	0.792100	0.923637	-0.056265
	H407	H	0.783819	0.938803	-0.077575
	O408	O	1.713486	-0.648674	-0.480782
	H409	H	1.724823	-0.665144	-0.474605
	H410	H	1.712265	-0.659291	-0.518777
	O411	O	1.650755	1.589454	0.352312
	H412	H	1.670494	1.596359	0.357664
	H413	H	1.638181	1.558014	0.362513
	O414	O	0.597425	0.703592	0.409404
	H415	H	0.612833	0.709471	0.411819
	H416	H	0.581455	0.714635	0.379704
	O417	O	0.057043	-0.008692	0.165948
	H418	H	0.051073	0.006295	0.170588
	H419	H	0.058986	-0.021993	0.161309
	O420	O	0.580219	0.697296	0.537181
	H421	H	0.570139	0.693574	0.523611
	H422	H	0.574986	0.708039	0.531914
	O423	O	0.715909	0.519703	0.712956
	H424	H	0.715564	0.499354	0.716686
	H425	H	0.727572	0.506267	0.725404
	O426	O	0.453136	0.297994	0.525459
	H427	H	0.439827	0.318926	0.538276
	H428	H	0.467652	0.286718	0.560945
	O429	O	0.313569	0.691851	0.408972
	H430	H	0.300619	0.706059	0.435867
	H431	H	0.348778	0.705022	0.419684
	O432	O	0.359248	0.290692	0.509055
	H433	H	0.334340	0.280918	0.524355
	H434	H	0.362585	0.316174	0.505163
	O435	O	-0.217105	0.217119	0.986752
	H436	H	-0.226563	0.229324	0.970063
	H437	H	-0.223196	0.226569	0.951882
	O438	O	-0.073195	-0.179671	-0.093266
	H439	H	-0.085741	-0.183825	-0.095280
	H440	H	-0.069481	-0.181531	-0.091246
	O441	O	0.786145	0.023597	-0.215251
	H442	H	0.801759	0.003126	-0.226745
	H443	H	0.781902	0.013972	-0.246224
	O444	O	0.026455	1.151135	0.786109
	H445	H	0.023358	1.164615	0.789033
	H446	H	0.011794	1.153701	0.782340
	O447	O	0.908249	0.165989	1.108548
	H448	H	0.903051	0.147616	1.105366
	H449	H	0.883201	0.169623	1.095961
	O450	O	0.450840	0.329483	0.705355
	H451	H	0.466081	0.309623	0.721357
	H452	H	0.421590	0.354516	0.704435
	O453	O	0.475877	0.531537	0.663145
	H454	H	0.489070	0.538201	0.672391
	H455	H	0.480562	0.547692	0.637985
