data_Molecule from HDF5

_cell_length_a		16.657668
_cell_length_b		16.424949
_cell_length_c		16.498224
_cell_angle_alpha	90.021312
_cell_angle_beta	90.070675
_cell_angle_gamma	89.946749
_symmetry_space_group_name_H-M	'P 1'
_symmetry_Int_Tables_number		1

loop_
	_symmetry_equiv_pos_as_xyz
	x,y,z

loop_
	_atom_site_label
	_atom_site_type_symbol
	_atom_site_fract_x
	_atom_site_fract_y
	_atom_site_fract_z
	H0	H	0.418889	0.872065	0.729051
	H1	H	0.624723	0.189192	0.732330
	H2	H	0.622473	0.872643	0.290978
	H3	H	0.416065	0.189106	0.291386
	H4	H	0.739745	0.424731	0.852565
	H5	H	0.738991	0.634701	0.167686
	H6	H	0.298737	0.635512	0.853015
	H7	H	0.299926	0.428493	0.168719
	H8	H	0.861997	0.751725	0.407898
	H9	H	0.175748	0.750313	0.612152
	H10	H	0.862702	0.307762	0.615563
	H11	H	0.176352	0.313736	0.409065
	H12	H	0.862128	0.424415	0.732592
	H13	H	0.174136	0.635363	0.731114
	H14	H	0.860939	0.635021	0.290538
	H15	H	0.175162	0.428559	0.290466
	H16	H	0.417307	0.749860	0.852101
	H17	H	0.620384	0.749065	0.169248
	H18	H	0.619339	0.312705	0.851347
	H19	H	0.420227	0.315900	0.170843
	H20	H	0.740733	0.873634	0.405699
	H21	H	0.743273	0.187925	0.618926
	H22	H	0.300205	0.872866	0.614430
	H23	H	0.297815	0.187929	0.404455
	H24	H	0.916899	0.372122	0.228141
	H25	H	0.119693	0.691416	0.227260
	H26	H	0.121072	0.372700	0.790775
	H27	H	0.915836	0.690166	0.791105
	H28	H	0.239927	0.927049	0.352340
	H29	H	0.240182	0.135977	0.666877
	H30	H	0.797074	0.136970	0.353491
	H31	H	0.795960	0.923191	0.665680
	H32	H	0.361639	0.248960	0.908877
	H33	H	0.674936	0.252815	0.116922
	H34	H	0.362450	0.809066	0.115364
	H35	H	0.675175	0.808085	0.905560
	H36	H	0.363250	0.924476	0.234364
	H37	H	0.673678	0.137199	0.234898
	H38	H	0.363566	0.134595	0.789326
	H39	H	0.674813	0.923746	0.787930
	H40	H	0.917390	0.248512	0.351202
	H41	H	0.120997	0.248991	0.668506
	H42	H	0.119291	0.815034	0.350388
	H43	H	0.917262	0.812273	0.668062
	H44	H	0.238912	0.373818	0.905024
	H45	H	0.239041	0.689888	0.114295
	H46	H	0.798118	0.373384	0.115291
	H47	H	0.798078	0.689253	0.905481
	H48	H	0.424405	0.148281	0.604728
	H49	H	0.605733	0.920147	0.597687
	H50	H	0.606532	0.141269	0.429530
	H51	H	0.429219	0.917521	0.423621
	H52	H	0.602550	0.442168	0.121354
	H53	H	0.601771	0.617532	0.900473
	H54	H	0.429889	0.624933	0.125117
	H55	H	0.427013	0.440978	0.896532
	H56	H	0.130663	0.622558	0.419704
	H57	H	0.904365	0.617807	0.608728
	H58	H	0.129756	0.437920	0.597785
	H59	H	0.906389	0.441169	0.417419
	H60	H	0.126294	0.445672	0.597326
	H61	H	0.904064	0.630752	0.597087
	H62	H	0.131633	0.621121	0.415848
	H63	H	0.905278	0.437802	0.417909
	H64	H	0.422465	0.617051	0.124385
	H65	H	0.611173	0.626077	0.894583
	H66	H	0.613899	0.436509	0.126177
	H67	H	0.427153	0.440553	0.897104
	H68	H	0.613462	0.146316	0.422729
	H69	H	0.610135	0.919363	0.595967
	H70	H	0.436745	0.142943	0.601530
	H71	H	0.429053	0.916976	0.421691
	H72	H	0.923777	0.648974	0.106571
	H73	H	0.114959	0.416647	0.098017
	H74	H	0.109851	0.645714	0.919868
	H75	H	0.928531	0.417889	0.922087
	H76	H	0.110716	0.940516	0.623796
	H77	H	0.110114	0.113075	0.398729
	H78	H	0.928192	0.118999	0.623265
	H79	H	0.924969	0.948680	0.397168
	H80	H	0.631345	0.122326	0.923039
	H81	H	0.406837	0.120322	0.101595
	H82	H	0.631418	0.936570	0.100556
	H83	H	0.408121	0.946203	0.916899
	H84	H	0.627801	0.944199	0.096104
	H85	H	0.406794	0.122256	0.101188
	H86	H	0.630508	0.118853	0.921438
	H87	H	0.406736	0.937931	0.919144
	H88	H	0.930806	0.116225	0.621698
	H89	H	0.103894	0.125034	0.397479
	H90	H	0.112486	0.941466	0.622875
	H91	H	0.935567	0.945440	0.400301
	H92	H	0.107789	0.645212	0.919812
	H93	H	0.107930	0.416562	0.105041
	H94	H	0.936905	0.642973	0.100183
	H95	H	0.929734	0.417743	0.920232
	H96	H	0.426674	0.143074	0.591959
	H97	H	0.608983	0.917995	0.600464
	H98	H	0.603568	0.143788	0.419413
	H99	H	0.430307	0.917934	0.422831
	H100	H	0.613940	0.449082	0.121979
	H101	H	0.613839	0.612628	0.897407
	H102	H	0.432751	0.615253	0.120428
	H103	H	0.427354	0.440539	0.896692
	H104	H	0.132056	0.625381	0.417003
	H105	H	0.910527	0.615762	0.593012
	H106	H	0.130617	0.443464	0.604481
	H107	H	0.906219	0.440062	0.420532
	H108	H	0.923933	0.644164	0.091150
	H109	H	0.106629	0.420567	0.096537
	H110	H	0.108524	0.645191	0.921745
	H111	H	0.930328	0.418982	0.921700
	H112	H	0.110107	0.942348	0.623165
	H113	H	0.116615	0.123323	0.393449
	H114	H	0.931805	0.120153	0.622224
	H115	H	0.928415	0.938086	0.395048
	H116	H	0.632587	0.121296	0.919795
	H117	H	0.408183	0.120874	0.100256
	H118	H	0.630193	0.944929	0.105115
	H119	H	0.410043	0.943634	0.925261
	C120	C	0.398553	0.039692	0.631297
	C121	C	0.641166	1.022943	0.631759
	C122	C	0.639967	0.039474	0.390371
	C123	C	0.397739	1.021828	0.389867
	C124	C	0.640784	0.410176	0.018691
	C125	C	0.640000	0.651266	1.001772
	C126	C	0.397347	0.651819	0.018975
	C127	C	0.397182	0.410099	1.001966
	C128	C	0.027087	0.653820	0.387377
	C129	C	1.009816	0.652888	0.631129
	C130	C	0.025987	0.409555	0.631610
	C131	C	1.009863	0.409220	0.388191
	C132	C	0.897287	0.540048	0.130858
	C133	C	0.139848	0.523121	0.131160
	C134	C	0.139775	0.540533	0.888732
	C135	C	0.897679	0.522967	0.889529
	C136	C	0.141260	0.910058	0.518579
	C137	C	0.141057	0.152229	0.501003
	C138	C	0.898311	0.151131	0.518341
	C139	C	0.898108	0.911069	0.501395
	C140	C	0.528108	0.152437	0.889218
	C141	C	0.510504	0.152686	0.133121
	C142	C	0.526874	0.909386	0.132706
	C143	C	0.511319	0.909389	0.888699
	C144	C	0.398875	0.919783	0.689818
	C145	C	0.643601	0.141734	0.692572
	C146	C	0.641392	0.920099	0.330827
	C147	C	0.396813	0.141339	0.330608
	C148	C	0.699759	0.407099	0.899765
	C149	C	0.698878	0.652943	0.120797
	C150	C	0.338502	0.654079	0.900119
	C151	C	0.339597	0.409869	0.121468
	C152	C	0.908673	0.712050	0.388079
	C153	C	0.128325	0.711190	0.631653
	C154	C	0.909080	0.348559	0.633526
	C155	C	0.128643	0.352100	0.388963
	C156	C	0.908786	0.406404	0.691886
	C157	C	0.127582	0.654164	0.690852
	C158	C	0.908450	0.654286	0.329637
	C159	C	0.128177	0.409531	0.330174
	C160	C	0.397472	0.710658	0.899623
	C161	C	0.639859	0.709594	0.121527
	C162	C	0.640065	0.351402	0.899136
	C163	C	0.399188	0.353735	0.122381
	C164	C	0.700274	0.920644	0.387410
	C165	C	0.702335	0.140969	0.636065
	C166	C	0.340158	0.920132	0.632933
	C167	C	0.338008	0.140687	0.386758
	C168	C	0.897303	0.420167	0.189236
	C169	C	0.139423	0.643418	0.188654
	C170	C	0.140420	0.420795	0.829855
	C171	C	0.896717	0.642474	0.830544
	C172	C	0.199479	0.908820	0.399455
	C173	C	0.200056	0.154018	0.619889
	C174	C	0.838107	0.154167	0.400014
	C175	C	0.837494	0.906744	0.619336
	C176	C	0.409444	0.210640	0.888864
	C177	C	0.627852	0.212744	0.135362
	C178	C	0.409165	0.849281	0.134264
	C179	C	0.628472	0.848743	0.887178
	C180	C	0.409774	0.906543	0.193386
	C181	C	0.627505	0.155011	0.193814
	C182	C	0.410262	0.153794	0.829543
	C183	C	0.628221	0.905927	0.828285
	C184	C	0.897637	0.209928	0.399155
	C185	C	0.140981	0.210318	0.620594
	C186	C	0.139827	0.852980	0.398414
	C187	C	0.897255	0.851076	0.620356
	C188	C	0.199206	0.421475	0.886571
	C189	C	0.198554	0.642615	0.132329
	C190	C	0.838322	0.420556	0.132961
	C191	C	0.838440	0.641916	0.887565
	C192	C	0.422439	0.123055	0.606557
	C193	C	0.615405	0.940637	0.605502
	C194	C	0.615018	0.122288	0.416451
	C195	C	0.422490	0.938785	0.415254
	C196	C	0.617173	0.435294	0.101400
	C197	C	0.615787	0.626213	0.918987
	C198	C	0.421549	0.626465	0.101821
	C199	C	0.420260	0.433846	0.918395
	C200	C	0.109811	0.629837	0.410793
	C201	C	0.927759	0.628296	0.606581
	C202	C	0.107603	0.435036	0.607058
	C203	C	0.927305	0.432814	0.411797
	C204	C	0.921065	0.623501	0.106401
	C205	C	0.116494	0.439640	0.106955
	C206	C	0.115579	0.623728	0.913430
	C207	C	0.922396	0.439839	0.914326
	C208	C	0.117885	0.934321	0.601714
	C209	C	0.117054	0.127493	0.418139
	C210	C	0.923060	0.125725	0.600882
	C211	C	0.922675	0.936724	0.418933
	C212	C	0.610174	0.127759	0.914205
	C213	C	0.428541	0.128168	0.108157
	C214	C	0.608394	0.934741	0.107666
	C215	C	0.429526	0.935066	0.913534
	Zn216	Zn	0.519980	0.031135	0.759545
	Zn217	Zn	0.518854	0.030833	0.262481
	Zn218	Zn	0.769100	0.530928	0.009895
	Zn219	Zn	0.268174	0.531487	0.010176
	Zn220	Zn	0.018524	0.782510	0.509518
	Zn221	Zn	0.018844	0.279797	0.510328
	Zn222	Zn	0.017829	0.531236	0.760638
	Zn223	Zn	0.018109	0.531957	0.258990
	Zn224	Zn	0.518637	0.780226	0.010517
	Zn225	Zn	0.519242	0.281761	0.010996
	Zn226	Zn	0.768968	0.031354	0.510389
	Zn227	Zn	0.269871	0.031076	0.510534
	N228	N	0.434349	0.995271	0.688981
	N229	N	0.606264	0.067257	0.689887
	N230	N	0.604969	0.995116	0.332334
	N231	N	0.433207	0.066271	0.332388
	N232	N	0.700374	0.442722	0.975128
	N233	N	0.699222	0.617666	0.045224
	N234	N	0.338114	0.618500	0.975445
	N235	N	0.337845	0.443675	0.045286
	N236	N	0.983530	0.712114	0.422827
	N237	N	0.054160	0.710618	0.595426
	N238	N	0.982987	0.350396	0.596756
	N239	N	0.053920	0.351448	0.424016
	N240	N	0.982507	0.443606	0.690837
	N241	N	0.052921	0.618588	0.690592
	N242	N	0.983205	0.618814	0.329187
	N243	N	0.053124	0.444008	0.329090
	N244	N	0.433030	0.709556	0.974765
	N245	N	0.604121	0.708810	0.046510
	N246	N	0.604238	0.352946	0.974032
	N247	N	0.434083	0.353572	0.046927
	N248	N	0.699470	0.996013	0.423636
	N249	N	0.701170	0.066007	0.599151
	N250	N	0.339628	0.995873	0.597590
	N251	N	0.338322	0.065224	0.422626
	N252	N	0.933160	0.495462	0.188190
	N253	N	0.103814	0.568049	0.188193
	N254	N	0.104336	0.496088	0.830803
	N255	N	0.933004	0.567370	0.831661
	N256	N	0.200577	0.943330	0.475185
	N257	N	0.200347	0.118754	0.544492
	N258	N	0.838227	0.118627	0.475269
	N259	N	0.838061	0.943262	0.544535
	N260	N	0.483842	0.210157	0.925006
	N261	N	0.554049	0.211531	0.098340
	N262	N	0.483028	0.850716	0.097451
	N263	N	0.554713	0.850804	0.924028
	N264	N	0.483982	0.943021	0.192657
	N265	N	0.553496	0.118540	0.192624
	N266	N	0.485043	0.118440	0.829533
	N267	N	0.554416	0.943344	0.829476
	N268	N	0.934261	0.208268	0.473767
	N269	N	0.105090	0.209466	0.545601
	N270	N	0.104273	0.853447	0.473640
	N271	N	0.934451	0.853731	0.546057
	N272	N	0.199047	0.496902	0.922308
	N273	N	0.199129	0.566707	0.097503
	N274	N	0.838072	0.496212	0.097511
	N275	N	0.838959	0.566498	0.923348
	O276	O	1.273599	1.287606	0.755041
	H277	H	1.268364	1.271392	0.754911
	H278	H	1.253660	1.277009	0.767189
	O279	O	-0.149224	0.244020	1.000500
	H280	H	-0.160077	0.257678	1.003243
	H281	H	-0.154287	0.227098	1.012438
	O282	O	0.534462	0.440537	0.602754
	H283	H	0.531863	0.425399	0.598793
	H284	H	0.537649	0.440552	0.590591
	O285	O	0.228831	-0.164495	0.810145
	H286	H	0.178534	-0.168950	0.803210
	H287	H	0.255904	-0.199811	0.775474
	O288	O	1.000154	-0.165998	0.842470
	H289	H	0.981013	-0.172938	0.847193
	H290	H	0.978974	-0.166217	0.844328
	O291	O	0.231490	0.240440	0.219813
	H292	H	0.230647	0.255634	0.225326
	H293	H	0.225708	0.194483	0.223689
	O294	O	-0.082708	0.159190	-0.021408
	H295	H	-0.090293	0.160577	-0.013556
	H296	H	-0.087114	0.148206	-0.029730
	O297	O	0.926620	-0.171197	0.011315
	H298	H	0.920953	-0.175792	0.012539
	H299	H	0.917810	-0.170952	0.023194
	O300	O	0.243044	-0.185910	-0.019881
	H301	H	0.248759	-0.195625	-0.047593
	H302	H	0.257231	-0.202745	-0.046266
	O303	O	-0.173472	0.171971	0.160369
	H304	H	-0.155892	0.158782	0.148981
	H305	H	-0.175401	0.155637	0.155259
	O306	O	0.920144	-0.130071	0.047311
	H307	H	0.910206	-0.137343	0.059409
	H308	H	0.924422	-0.135586	0.055685
	O309	O	0.550456	0.527049	0.468181
	H310	H	0.534800	0.512793	0.460781
	H311	H	0.544990	0.524657	0.459342
	O312	O	-0.586860	-0.671219	0.716919
	H313	H	-0.564125	-0.686215	0.728002
	H314	H	-0.612057	-0.687806	0.732484
	O315	O	0.586001	0.600107	0.458085
	H316	H	0.589298	0.591419	0.453481
	H317	H	0.567542	0.610224	0.460708
	O318	O	0.954873	1.230240	-0.197268
	H319	H	0.960593	1.244518	-0.201632
	H320	H	0.971317	1.230607	-0.189980
	O321	O	0.037160	1.053632	1.113685
	H322	H	0.033667	1.058084	1.115428
	H323	H	0.045424	1.049841	1.106906
	O324	O	1.093438	0.232072	0.928249
	H325	H	1.096487	0.238322	0.951759
	H326	H	1.083942	0.230391	0.931480
	O327	O	0.585555	0.408003	0.582130
	H328	H	0.597478	0.410260	0.577288
	H329	H	0.580035	0.399135	0.571306
	O330	O	0.317215	0.725374	0.706199
	H331	H	0.329239	0.698505	0.693294
	H332	H	0.338363	0.710624	0.684728
	O333	O	0.727466	0.626162	0.515386
	H334	H	0.731652	0.641625	0.528303
	H335	H	0.726346	0.619305	0.530230
	O336	O	0.317742	0.728768	0.309249
	H337	H	0.317440	0.731400	0.350879
	H338	H	0.306074	0.758072	0.290192
	O339	O	0.574969	0.581868	0.304948
	H340	H	0.563071	0.576875	0.302985
	H341	H	0.550874	0.600589	0.303782
	O342	O	-0.293935	0.679175	-0.631187
	H343	H	-0.298086	0.660129	-0.610880
	H344	H	-0.310487	0.680113	-0.614754
	O345	O	0.330688	0.345771	0.327410
	H346	H	0.341531	0.355574	0.350902
	H347	H	0.328209	0.333849	0.316130
	O348	O	0.296079	0.587510	0.564255
	H349	H	0.292221	0.576435	0.552124
	H350	H	0.290338	0.568652	0.584026
	O351	O	-0.698859	-0.440115	1.296159
	H352	H	-0.719355	-0.428878	1.281257
	H353	H	-0.697466	-0.405313	1.292474
	O354	O	1.126512	-0.060032	0.905267
	H355	H	1.117986	-0.040927	0.898818
	H356	H	1.125426	-0.073159	0.879482
	O357	O	0.307089	0.317166	0.537020
	H358	H	0.301123	0.307429	0.547729
	H359	H	0.306067	0.309117	0.537582
	O360	O	0.640939	0.625900	0.643181
	H361	H	0.649955	0.613348	0.646541
	H362	H	0.629098	0.611338	0.629850
	O363	O	1.232025	0.040697	0.167642
	H364	H	1.244774	0.013592	0.155090
	H365	H	1.235194	0.028729	0.178565
	O366	O	0.146643	0.112910	1.004187
	H367	H	0.131566	0.094856	0.993294
	H368	H	0.141647	0.119269	1.024155
	O369	O	-0.189849	0.241084	0.863775
	H370	H	-0.197145	0.235208	0.899154
	H371	H	-0.180963	0.256262	0.856612
	O372	O	-0.127374	0.883312	0.806532
	H373	H	-0.132836	0.909220	0.811687
	H374	H	-0.115499	0.887652	0.811071
	O375	O	0.967245	0.057947	-0.122388
	H376	H	0.969472	0.051783	-0.122848
	H377	H	0.978657	0.055361	-0.119894
	O378	O	0.488659	0.744939	0.295967
	H379	H	0.475840	0.769176	0.273861
	H380	H	0.473956	0.748514	0.308894
	O381	O	0.207672	0.887211	0.142916
	H382	H	0.206815	0.882309	0.118787
	H383	H	0.197891	0.909326	0.120487
	O384	O	0.301069	0.496680	0.710407
	H385	H	0.299905	0.464940	0.711291
	H386	H	0.292562	0.489295	0.732235
	O387	O	0.718329	0.360320	0.315567
	H388	H	0.743208	0.343335	0.299856
	H389	H	0.731017	0.395375	0.319591
	O390	O	0.127664	0.995173	1.000855
	H391	H	0.128427	0.982361	0.996909
	H392	H	0.138004	0.998578	1.003630
	O393	O	0.867724	0.112420	0.114525
	H394	H	0.870885	0.092895	0.134008
	H395	H	0.872124	0.102966	0.111192
	O396	O	0.462806	0.406441	0.370845
	H397	H	0.456426	0.393596	0.357061
	H398	H	0.467229	0.389653	0.378846
	O399	O	0.311746	0.488507	0.454841
	H400	H	0.312266	0.488964	0.439081
	H401	H	0.307920	0.476542	0.446525
	O402	O	1.002756	0.074148	1.004765
	H403	H	0.996836	0.080171	1.024292
	H404	H	0.996517	0.052022	1.008339
	O405	O	0.997551	0.022994	0.197331
	H406	H	0.985722	0.020789	0.201213
	H407	H	0.991644	0.024323	0.191734
	O408	O	0.800741	1.003772	1.222677
	H409	H	0.786405	0.983875	1.236125
	H410	H	0.801402	0.979115	1.233985
	O411	O	0.545952	1.320142	0.452782
	H412	H	0.544871	1.330123	0.447649
	H413	H	0.533618	1.323447	0.454112
	O414	O	0.056291	-0.060281	0.152896
	H415	H	0.045210	-0.055779	0.137283
	H416	H	0.043703	-0.048969	0.144936
	O417	O	0.308442	0.742840	0.474273
	H418	H	0.298086	0.748859	0.488405
	H419	H	0.314433	0.741366	0.484527
	O420	O	0.592666	-0.261251	0.666080
	H421	H	0.607881	-0.252324	0.677425
	H422	H	0.586993	-0.270686	0.673272
	O423	O	1.234866	1.007231	-0.202809
	H424	H	1.234338	0.973814	-0.202525
	H425	H	1.251754	0.994167	-0.222659
	O426	O	0.566191	0.599431	0.613303
	H427	H	0.554805	0.593664	0.624367
	H428	H	0.568983	0.595953	0.625742
	O429	O	0.806163	0.065811	0.799113
	H430	H	0.805950	0.098781	0.789424
	H431	H	0.798836	0.077716	0.792012
	O432	O	1.053746	0.249588	1.224170
	H433	H	1.062108	0.250184	1.217164
	H434	H	1.044256	0.277825	1.239260
	O435	O	0.453456	0.675430	0.642193
	H436	H	0.472619	0.671459	0.655720
	H437	H	0.458538	0.661526	0.628046
	O438	O	0.844560	0.831930	0.214414
	H439	H	0.844155	0.807095	0.226326
	H440	H	0.882005	0.832970	0.221903
	O441	O	0.488095	0.554478	0.713595
	H442	H	0.510398	0.546154	0.714147
	H443	H	0.491530	0.542694	0.716525
	O444	O	0.685344	0.599016	0.665756
	H445	H	0.680897	0.581825	0.653078
	H446	H	0.692184	0.596130	0.662676
	O447	O	-0.091439	0.966949	0.002485
	H448	H	-0.091988	0.967181	-0.000283
	H449	H	-0.087686	0.946345	-0.001778
	O450	O	0.888563	-0.125583	-0.205417
	H451	H	0.879398	-0.118126	-0.204308
	H452	H	0.872136	-0.117062	-0.216573
	O453	O	0.722321	0.538274	0.307633
	H454	H	0.703269	0.550720	0.308036
	H455	H	0.725591	0.546631	0.302126
	O456	O	-0.352434	0.471369	0.687923
	H457	H	-0.350876	0.473800	0.689881
	H458	H	-0.337233	0.462252	0.703554
	O459	O	0.547664	0.321125	0.302356
	H460	H	0.547423	0.309569	0.288839
	H461	H	0.579345	0.320357	0.299170
	O462	O	0.547747	0.734162	0.444229
	H463	H	0.532811	0.736053	0.430042
	H464	H	0.541253	0.722480	0.452588
	O465	O	0.684584	0.396366	0.656088
	H466	H	0.681497	0.390843	0.635978
	H467	H	0.694075	0.394240	0.653523
	O468	O	0.101827	0.052575	-0.081605
	H469	H	0.090072	0.058185	-0.072691
	H470	H	0.109373	0.046034	-0.087275
	O471	O	0.240774	0.252422	0.049536
	H472	H	0.258189	0.267404	0.071481
	H473	H	0.247851	0.262080	0.057588
	O474	O	1.001567	0.818702	0.194834
	H475	H	1.013518	0.821891	0.189753
	H476	H	1.019299	0.806687	0.191840
	O477	O	0.733898	0.316064	0.486362
	H478	H	0.735335	0.320050	0.467440
	H479	H	0.749600	0.304321	0.476694
