data_Molecule from HDF5

_cell_length_a		16.097910
_cell_length_b		16.463773
_cell_length_c		16.111107
_cell_angle_alpha	89.874185
_cell_angle_beta	90.024036
_cell_angle_gamma	89.937317
_symmetry_space_group_name_H-M	'P 1'
_symmetry_Int_Tables_number		1

loop_
	_symmetry_equiv_pos_as_xyz
	x,y,z

loop_
	_atom_site_label
	_atom_site_type_symbol
	_atom_site_fract_x
	_atom_site_fract_y
	_atom_site_fract_z
	H0	H	0.388488	0.831806	0.707285
	H1	H	0.587633	0.156795	0.709692
	H2	H	0.588117	0.831768	0.278589
	H3	H	0.388562	0.155658	0.274487
	H4	H	0.700769	0.394831	0.827594
	H5	H	0.699273	0.590613	0.156362
	H6	H	0.275559	0.589656	0.826014
	H7	H	0.273728	0.394431	0.157472
	H8	H	0.826919	0.716033	0.386133
	H9	H	0.153211	0.711200	0.594801
	H10	H	0.825884	0.277031	0.597535
	H11	H	0.152669	0.279788	0.389998
	H12	H	0.822558	0.399245	0.702851
	H13	H	0.153687	0.592162	0.705574
	H14	H	0.822676	0.594001	0.279196
	H15	H	0.153658	0.398741	0.279457
	H16	H	0.382487	0.713150	0.829539
	H17	H	0.592860	0.709352	0.154335
	H18	H	0.591850	0.275282	0.829782
	H19	H	0.384895	0.274717	0.155986
	H20	H	0.706133	0.833814	0.392693
	H21	H	0.703784	0.158131	0.591552
	H22	H	0.272371	0.833660	0.591129
	H23	H	0.274592	0.157897	0.392884
	H24	H	0.886862	0.333935	0.210503
	H25	H	0.087543	0.656855	0.206192
	H26	H	0.087901	0.333413	0.775117
	H27	H	0.885267	0.655982	0.774882
	H28	H	0.201478	0.899897	0.326740
	H29	H	0.200490	0.092216	0.658030
	H30	H	0.774681	0.095353	0.326644
	H31	H	0.775141	0.897426	0.657357
	H32	H	0.324850	0.210615	0.888537
	H33	H	0.651081	0.210749	0.097143
	H34	H	0.325168	0.775449	0.095226
	H35	H	0.652191	0.775424	0.887991
	H36	H	0.323227	0.895057	0.205855
	H37	H	0.654324	0.088992	0.203007
	H38	H	0.321366	0.088343	0.781968
	H39	H	0.652594	0.894226	0.777327
	H40	H	0.886469	0.213873	0.328400
	H41	H	0.093439	0.212839	0.655577
	H42	H	0.095477	0.777516	0.329694
	H43	H	0.886237	0.777407	0.654729
	H44	H	0.203376	0.332816	0.891856
	H45	H	0.205200	0.655413	0.092360
	H46	H	0.771471	0.332306	0.092348
	H47	H	0.769214	0.655075	0.890866
	H48	H	0.390796	0.110348	0.582803
	H49	H	0.584329	0.880733	0.581671
	H50	H	0.578484	0.107184	0.405777
	H51	H	0.397886	0.881077	0.406304
	H52	H	0.574609	0.390237	0.112572
	H53	H	0.576996	0.591105	0.870955
	H54	H	0.390560	0.576727	0.108645
	H55	H	0.397975	0.399856	0.874628
	H56	H	0.102719	0.578461	0.403811
	H57	H	0.871716	0.589112	0.577814
	H58	H	0.107082	0.395623	0.577142
	H59	H	0.871653	0.402353	0.408824
	H60	H	0.103773	0.410315	0.581652
	H61	H	0.871648	0.586209	0.583177
	H62	H	0.110368	0.590633	0.389692
	H63	H	0.872140	0.408185	0.400856
	H64	H	0.409162	0.585144	0.106092
	H65	H	0.582234	0.582391	0.873585
	H66	H	0.587486	0.403530	0.112311
	H67	H	0.396546	0.399193	0.874304
	H68	H	0.590053	0.113739	0.395633
	H69	H	0.582665	0.879845	0.587854
	H70	H	0.393131	0.111843	0.592591
	H71	H	0.388275	0.877912	0.399494
	H72	H	0.897052	0.610835	0.090613
	H73	H	0.081481	0.380417	0.080346
	H74	H	0.084026	0.610276	0.901248
	H75	H	0.889553	0.378128	0.898107
	H76	H	0.083298	0.908404	0.609538
	H77	H	0.080298	0.084683	0.375066
	H78	H	0.897313	0.087684	0.610422
	H79	H	0.901156	0.910841	0.376669
	H80	H	0.606636	0.089240	0.904851
	H81	H	0.370576	0.087442	0.080487
	H82	H	0.605767	0.901311	0.083267
	H83	H	0.371757	0.904387	0.901440
	H84	H	0.607863	0.897446	0.086412
	H85	H	0.371728	0.081092	0.080490
	H86	H	0.604930	0.082623	0.903423
	H87	H	0.369710	0.897534	0.899984
	H88	H	0.899639	0.088371	0.608629
	H89	H	0.075438	0.092201	0.374784
	H90	H	0.071488	0.902939	0.606927
	H91	H	0.904027	0.900967	0.374817
	H92	H	0.080010	0.610922	0.895293
	H93	H	0.082902	0.376927	0.089344
	H94	H	0.895698	0.606698	0.078374
	H95	H	0.896618	0.378122	0.893629
	H96	H	0.400533	0.107962	0.585501
	H97	H	0.578148	0.882215	0.583580
	H98	H	0.574245	0.110035	0.389780
	H99	H	0.398843	0.879070	0.394546
	H100	H	0.570797	0.407052	0.105594
	H101	H	0.572261	0.583277	0.875734
	H102	H	0.393162	0.595722	0.114159
	H103	H	0.395633	0.401327	0.875341
	H104	H	0.107264	0.596715	0.408076
	H105	H	0.869070	0.591856	0.583445
	H106	H	0.110216	0.400510	0.590913
	H107	H	0.869040	0.399667	0.400253
	H108	H	0.885468	0.611097	0.084908
	H109	H	0.074385	0.381052	0.087220
	H110	H	0.076615	0.608212	0.900692
	H111	H	0.896703	0.381543	0.901343
	H112	H	0.081086	0.895720	0.612594
	H113	H	0.084124	0.092171	0.372854
	H114	H	0.899113	0.089206	0.609544
	H115	H	0.894321	0.903083	0.372843
	H116	H	0.607437	0.086298	0.898008
	H117	H	0.369249	0.084492	0.086084
	H118	H	0.606842	0.895389	0.082112
	H119	H	0.371808	0.898891	0.906754
	C120	C	0.365548	0.003210	0.615175
	C121	C	0.610690	0.987823	0.614118
	C122	C	0.610654	0.003202	0.369340
	C123	C	0.365982	0.986438	0.369667
	C124	C	0.608645	0.371224	0.001828
	C125	C	0.607994	0.614255	0.982135
	C126	C	0.367213	0.614764	0.000760
	C127	C	0.366463	0.370793	0.983426
	C128	C	-0.002002	0.617665	0.370419
	C129	C	0.979929	0.617388	0.612396
	C130	C	-0.002363	0.373759	0.613039
	C131	C	0.979729	0.374673	0.372555
	C132	C	0.864336	0.502820	0.114274
	C133	C	0.109397	0.486123	0.114337
	C134	C	0.109522	0.502992	0.869464
	C135	C	0.864473	0.485838	0.868738
	C136	C	0.109865	0.874056	0.501077
	C137	C	0.109892	0.117711	0.483349
	C138	C	0.868197	0.117761	0.500843
	C139	C	0.869056	0.874862	0.483236
	C140	C	0.497100	0.114566	0.872044
	C141	C	0.479333	0.113615	0.112640
	C142	C	0.497772	0.869857	0.113954
	C143	C	0.479331	0.871141	0.871617
	C144	C	0.368113	0.880731	0.669722
	C145	C	0.608164	0.108646	0.671004
	C146	C	0.608833	0.880828	0.315419
	C147	C	0.368151	0.107588	0.312913
	C148	C	0.664389	0.373861	0.877425
	C149	C	0.663302	0.611366	0.106645
	C150	C	0.311811	0.611514	0.876100
	C151	C	0.311068	0.373667	0.107810
	C152	C	0.875070	0.675849	0.368590
	C153	C	0.103942	0.672702	0.612978
	C154	C	0.874474	0.316729	0.614547
	C155	C	0.103508	0.318529	0.371798
	C156	C	0.872825	0.377599	0.667127
	C157	C	0.104036	0.613963	0.668692
	C158	C	0.873060	0.615145	0.315449
	C159	C	0.103879	0.377669	0.316523
	C160	C	0.365442	0.672569	0.877719
	C161	C	0.609747	0.670199	0.105796
	C162	C	0.610107	0.314236	0.878635
	C163	C	0.366177	0.313934	0.107016
	C164	C	0.667357	0.881723	0.372654
	C165	C	0.666270	0.109400	0.612197
	C166	C	0.310039	0.881581	0.612033
	C167	C	0.311744	0.108843	0.372223
	C168	C	0.866812	0.381677	0.171398
	C169	C	0.107840	0.608044	0.168987
	C170	C	0.107951	0.381667	0.813585
	C171	C	0.865581	0.607414	0.812893
	C172	C	0.165338	0.877893	0.376631
	C173	C	0.164712	0.113807	0.608072
	C174	C	0.812271	0.115859	0.376355
	C175	C	0.812801	0.876826	0.607625
	C176	C	0.373520	0.171151	0.870932
	C177	C	0.602582	0.170696	0.114046
	C178	C	0.374069	0.813944	0.113900
	C179	C	0.603085	0.814462	0.870200
	C180	C	0.373178	0.873726	0.168770
	C181	C	0.604202	0.110339	0.167081
	C182	C	0.371737	0.110734	0.817717
	C183	C	0.603415	0.873500	0.815088
	C184	C	0.867477	0.175191	0.377447
	C185	C	0.111077	0.173752	0.606851
	C186	C	0.112141	0.817321	0.377884
	C187	C	0.867717	0.816794	0.606068
	C188	C	0.165636	0.381303	0.871528
	C189	C	0.166309	0.607322	0.112079
	C190	C	0.809222	0.380979	0.112678
	C191	C	0.807758	0.607001	0.870961
	C192	C	0.388161	0.088232	0.593220
	C193	C	0.588303	0.902943	0.591058
	C194	C	0.587687	0.088314	0.390754
	C195	C	0.388252	0.901526	0.393171
	C196	C	0.584699	0.393790	0.087850
	C197	C	0.584205	0.592167	0.896012
	C198	C	0.390674	0.592327	0.087183
	C199	C	0.390048	0.393341	0.897058
	C200	C	0.084285	0.595184	0.393710
	C201	C	0.893402	0.595531	0.588411
	C202	C	0.084522	0.395724	0.589956
	C203	C	0.893286	0.396815	0.396388
	C204	C	0.886296	0.587453	0.091321
	C205	C	0.086305	0.401483	0.092268
	C206	C	0.086806	0.587987	0.892326
	C207	C	0.887639	0.401269	0.891137
	C208	C	0.085804	0.896085	0.587241
	C209	C	0.086733	0.096184	0.396634
	C210	C	0.891757	0.095021	0.587268
	C211	C	0.892864	0.898073	0.397261
	C212	C	0.583699	0.092427	0.895160
	C213	C	0.392918	0.091153	0.089111
	C214	C	0.584407	0.891518	0.090746
	C215	C	0.393185	0.893412	0.895716
	Zn216	Zn	0.487662	-0.006297	0.744870
	Zn217	Zn	0.488663	-0.006991	0.240027
	Zn218	Zn	0.734915	0.493759	-0.008415
	Zn219	Zn	0.238992	0.493365	-0.008118
	Zn220	Zn	-0.010035	0.745612	0.491256
	Zn221	Zn	-0.010748	0.245857	0.492883
	Zn222	Zn	-0.012161	0.494961	0.739816
	Zn223	Zn	-0.012469	0.495722	0.243892
	Zn224	Zn	0.488934	0.742318	-0.008265
	Zn225	Zn	0.488127	0.242236	-0.007519
	Zn226	Zn	0.740735	-0.003670	0.491313
	Zn227	Zn	0.236534	-0.003964	0.492277
	N228	N	0.402187	0.957284	0.671609
	N229	N	0.574600	0.031787	0.672563
	N230	N	0.574216	0.957263	0.313298
	N231	N	0.401135	0.030496	0.311288
	N232	N	0.663790	0.408621	0.955101
	N233	N	0.662608	0.577089	0.028840
	N234	N	0.312844	0.576348	0.953646
	N235	N	0.310975	0.408234	0.029871
	N236	N	0.953755	0.677669	0.402130
	N237	N	0.025540	0.675129	0.578929
	N238	N	0.953195	0.314223	0.581613
	N239	N	0.025118	0.316504	0.405752
	N240	N	0.950418	0.412416	0.666130
	N241	N	0.025894	0.580215	0.668514
	N242	N	0.950503	0.579914	0.316197
	N243	N	0.025902	0.411990	0.316855
	N244	N	0.399008	0.674897	0.956338
	N245	N	0.576142	0.672367	0.027361
	N246	N	0.576233	0.312335	0.956882
	N247	N	0.399832	0.311991	0.028543
	N248	N	0.668867	0.958955	0.405145
	N249	N	0.667727	0.033130	0.577485
	N250	N	0.308217	0.958635	0.579026
	N251	N	0.310134	0.032400	0.407020
	N252	N	0.900313	0.458377	0.172768
	N253	N	0.073159	0.531661	0.170569
	N254	N	0.073773	0.458408	0.812220
	N255	N	0.900075	0.531058	0.811410
	N256	N	0.164324	0.912515	0.454326
	N257	N	0.164272	0.079661	0.530162
	N258	N	0.812503	0.081096	0.454129
	N259	N	0.813246	0.912212	0.530060
	N260	N	0.452580	0.173956	0.903655
	N261	N	0.523667	0.173087	0.081105
	N262	N	0.452649	0.811467	0.080481
	N263	N	0.524792	0.812818	0.904550
	N264	N	0.451037	0.907858	0.168972
	N265	N	0.526506	0.075388	0.166460
	N266	N	0.449658	0.076269	0.818058
	N267	N	0.525667	0.907937	0.815666
	N268	N	0.901657	0.176355	0.455888
	N269	N	0.077697	0.176336	0.528268
	N270	N	0.078490	0.814821	0.456205
	N271	N	0.901773	0.815390	0.527748
	N272	N	0.166773	0.457846	0.905619
	N273	N	0.167845	0.530457	0.079021
	N274	N	0.807372	0.457389	0.078239
	N275	N	0.806920	0.530578	0.905245
	O276	O	0.909397	0.053041	0.889377
	H277	H	0.906891	0.059414	0.881227
	H278	H	0.910932	0.062475	0.905317
	O279	O	0.561176	0.577004	0.439366
	H280	H	0.557525	0.572949	0.440155
	H281	H	0.570267	0.579597	0.439045
	O282	O	0.452099	0.597728	0.418963
	H283	H	0.442732	0.599436	0.404925
	H284	H	0.451383	0.591304	0.423124
	O285	O	0.530230	0.489886	0.502465
	H286	H	0.533284	0.500174	0.514149
	H287	H	0.532693	0.480017	0.501809
	O288	O	0.534892	0.614439	0.519470
	H289	H	0.542821	0.601138	0.508415
	H290	H	0.553318	0.623734	0.517613
	O291	O	0.093936	0.031479	1.015487
	H292	H	0.088022	0.041789	1.026741
	H293	H	0.098216	0.035780	1.018083
	O294	O	0.537083	1.477863	0.523707
	H295	H	0.538927	1.485883	0.518859
	H296	H	0.528681	1.478498	0.521965
	O297	O	0.937198	1.077456	0.012266
	H298	H	0.945116	1.074521	0.004640
	H299	H	0.939365	1.072455	0.013827
	O300	O	0.610125	0.424041	0.379789
	H301	H	0.611341	0.422222	0.370764
	H302	H	0.616157	0.415249	0.389848
	O303	O	0.439518	0.399419	0.548528
	H304	H	0.452316	0.403298	0.524153
	H305	H	0.446754	0.396696	0.552782
	O306	O	1.027690	1.024941	1.035633
	H307	H	1.024452	1.028770	1.037252
	H308	H	1.030372	1.032742	1.028098
	O309	O	0.476037	0.545644	0.379835
	H310	H	0.463878	0.553915	0.381285
	H311	H	0.471169	0.558466	0.369012
	O312	O	0.896219	0.940246	0.995174
	H313	H	0.896089	0.948343	0.997597
	H314	H	0.900602	0.933688	0.999850
	O315	O	1.137382	1.081904	0.078381
	H316	H	1.144402	1.065962	0.081676
	H317	H	1.147136	1.071027	0.079479
	O318	O	0.484657	0.489133	0.484271
	H319	H	0.485980	0.482401	0.496014
	H320	H	0.500078	0.485799	0.490234
	O321	O	0.488101	0.560930	0.530447
	H322	H	0.479526	0.558209	0.530391
	H323	H	0.489732	0.563421	0.540084
	O324	O	-0.016071	1.169107	0.980311
	H325	H	-0.004378	1.162652	0.984822
	H326	H	-0.020580	1.165366	0.976714
	O327	O	0.039669	0.832370	1.070454
	H328	H	0.029965	0.823814	1.074681
	H329	H	0.040097	0.830065	1.078130
	O330	O	-0.049193	-0.146961	0.034622
	H331	H	-0.050191	-0.151242	0.038348
	H332	H	-0.062288	-0.146690	0.026454
	O333	O	0.413394	0.450070	0.582939
	H334	H	0.422907	0.448956	0.571070
	H335	H	0.410109	0.452286	0.589249
	O336	O	-0.135425	0.040735	-0.057406
	H337	H	-0.149354	0.040649	-0.058826
	H338	H	-0.129812	0.047397	-0.060015
	O339	O	-0.002749	0.061733	0.084153
	H340	H	-0.005257	0.067309	0.082800
	H341	H	-0.001582	0.057916	0.082120
	O342	O	0.560410	0.435054	0.521446
	H343	H	0.561864	0.434989	0.533046
	H344	H	0.547831	0.438859	0.523658
	O345	O	-0.071836	0.945065	0.964093
	H346	H	-0.060649	0.948877	0.941915
	H347	H	-0.070005	0.946494	0.972647
	O348	O	-0.005215	-0.038248	0.819102
	H349	H	-0.010446	-0.026142	0.822867
	H350	H	-0.009487	-0.048961	0.808726
	O351	O	0.466934	0.470894	0.593280
	H352	H	0.461134	0.468515	0.589088
	H353	H	0.457753	0.463864	0.599052
	O354	O	0.350146	0.439903	0.484964
	H355	H	0.357126	0.453826	0.484991
	H356	H	0.353067	0.448774	0.494831
	O357	O	0.876933	0.930280	0.049558
	H358	H	0.874926	0.938331	0.046776
	H359	H	0.880975	0.935102	0.048020
	O360	O	1.075781	-0.056291	1.023563
	H361	H	1.066222	-0.069851	1.021449
	H362	H	1.071061	-0.051169	1.022972
	O363	O	0.371017	0.577353	0.380917
	H364	H	0.368102	0.588407	0.373566
	H365	H	0.371296	0.580130	0.386733
	O366	O	0.921388	1.055094	0.023170
	H367	H	0.911586	1.041814	0.033880
	H368	H	0.928360	1.055423	0.037904
	O369	O	1.456941	0.403727	0.477858
	H370	H	1.438498	0.412597	0.482277
	H371	H	1.463416	0.390046	0.481828
	O372	O	0.523329	0.592963	0.441771
	H373	H	0.534747	0.590430	0.437115
	H374	H	0.511624	0.581640	0.456105
	O375	O	1.070265	0.001748	0.986114
	H376	H	1.082620	0.007078	0.993020
	H377	H	1.069721	0.006628	0.992931
	O378	O	-0.122987	0.961373	-0.058338
	H379	H	-0.122384	0.957861	-0.055870
	H380	H	-0.118723	0.967660	-0.049905
	O381	O	0.597555	0.450438	0.540254
	H382	H	0.593970	0.445206	0.536585
	H383	H	0.607644	0.461132	0.542703
	O384	O	1.123351	0.918933	-0.151923
	H385	H	1.124475	0.922512	-0.168166
	H386	H	1.122290	0.920467	-0.151584
	O387	O	1.018111	0.086549	1.070316
	H388	H	1.030016	0.091987	1.075475
	H389	H	1.021947	0.078314	1.075520
	O390	O	0.949659	0.838816	0.000908
	H391	H	0.945449	0.847866	-0.001126
	H392	H	0.959929	0.834477	-0.014224
	O393	O	0.414811	0.431768	0.629412
	H394	H	0.405111	0.434022	0.626984
	H395	H	0.416776	0.426947	0.632421
