data_Molecule from HDF5

_cell_length_a		16.179271
_cell_length_b		16.265130
_cell_length_c		16.302828
_cell_angle_alpha	89.472197
_cell_angle_beta	90.055403
_cell_angle_gamma	90.133475
_symmetry_space_group_name_H-M	'P 1'
_symmetry_Int_Tables_number		1

loop_
	_symmetry_equiv_pos_as_xyz
	x,y,z

loop_
	_atom_site_label
	_atom_site_type_symbol
	_atom_site_fract_x
	_atom_site_fract_y
	_atom_site_fract_z
	H0	H	0.403937	0.839073	0.717470
	H1	H	0.604495	0.166012	0.712298
	H2	H	0.602927	0.838455	0.285464
	H3	H	0.404199	0.165647	0.282494
	H4	H	0.716939	0.408909	0.835172
	H5	H	0.716845	0.597628	0.163623
	H6	H	0.289869	0.602553	0.835191
	H7	H	0.290780	0.404606	0.163540
	H8	H	0.839027	0.714400	0.402370
	H9	H	0.168700	0.714421	0.596932
	H10	H	0.839619	0.285942	0.598918
	H11	H	0.169294	0.290474	0.403623
	H12	H	0.839340	0.399637	0.715155
	H13	H	0.168876	0.597826	0.711276
	H14	H	0.839341	0.601483	0.284167
	H15	H	0.168242	0.403972	0.286650
	H16	H	0.405447	0.719076	0.835980
	H17	H	0.602767	0.715861	0.163256
	H18	H	0.601563	0.291460	0.834757
	H19	H	0.404551	0.286222	0.162593
	H20	H	0.715552	0.836647	0.404888
	H21	H	0.719351	0.165067	0.595361
	H22	H	0.291597	0.836883	0.596770
	H23	H	0.289567	0.165885	0.399473
	H24	H	0.905782	0.337665	0.215002
	H25	H	0.102698	0.665416	0.213434
	H26	H	0.103090	0.337233	0.786966
	H27	H	0.904593	0.664426	0.782002
	H28	H	0.217079	0.905620	0.334944
	H29	H	0.217784	0.096461	0.663233
	H30	H	0.790599	0.099411	0.335345
	H31	H	0.789958	0.900988	0.662668
	H32	H	0.338799	0.215866	0.901472
	H33	H	0.669321	0.214979	0.096309
	H34	H	0.338673	0.787471	0.098295
	H35	H	0.668175	0.791101	0.903023
	H36	H	0.339001	0.902513	0.214108
	H37	H	0.668412	0.099680	0.211773
	H38	H	0.339152	0.103339	0.783433
	H39	H	0.668628	0.906678	0.787850
	H40	H	0.904291	0.218108	0.336317
	H41	H	0.103752	0.214581	0.663168
	H42	H	0.102887	0.788612	0.335399
	H43	H	0.905258	0.785537	0.662843
	H44	H	0.216476	0.337607	0.904535
	H45	H	0.215837	0.667150	0.094124
	H46	H	0.790368	0.338023	0.097889
	H47	H	0.792323	0.666593	0.900927
	H48	H	0.419145	0.116689	0.590624
	H49	H	0.593004	0.886211	0.593420
	H50	H	0.600171	0.117766	0.410136
	H51	H	0.409401	0.885206	0.408525
	H52	H	0.597578	0.410312	0.115858
	H53	H	0.597725	0.602757	0.881882
	H54	H	0.418524	0.597705	0.114287
	H55	H	0.410251	0.409266	0.882381
	H56	H	0.120595	0.588849	0.404220
	H57	H	0.888621	0.586682	0.591811
	H58	H	0.119838	0.413213	0.593120
	H59	H	0.884254	0.402155	0.407608
	H60	H	0.123800	0.405994	0.598962
	H61	H	0.884145	0.596459	0.596629
	H62	H	0.123937	0.599946	0.400901
	H63	H	0.889292	0.412620	0.412091
	H64	H	0.404635	0.599492	0.118940
	H65	H	0.601622	0.596948	0.882059
	H66	H	0.593596	0.405593	0.115501
	H67	H	0.409398	0.409778	0.883005
	H68	H	0.601154	0.121545	0.399928
	H69	H	0.599476	0.883974	0.593266
	H70	H	0.406660	0.117586	0.583641
	H71	H	0.410299	0.884115	0.404250
	H72	H	0.907732	0.622733	0.101300
	H73	H	0.093758	0.388076	0.088428
	H74	H	0.103173	0.621524	0.899137
	H75	H	0.914502	0.383927	0.899468
	H76	H	0.089234	0.910765	0.612371
	H77	H	0.096214	0.094476	0.383261
	H78	H	0.925516	0.093085	0.612018
	H79	H	0.906496	0.908029	0.380938
	H80	H	0.619397	0.095894	0.910171
	H81	H	0.386981	0.086172	0.097070
	H82	H	0.617740	0.913682	0.087085
	H83	H	0.386214	0.914703	0.906751
	H84	H	0.622457	0.912490	0.100810
	H85	H	0.382453	0.103427	0.096392
	H86	H	0.621946	0.092576	0.900308
	H87	H	0.384022	0.908631	0.904485
	H88	H	0.906341	0.103762	0.619899
	H89	H	0.095528	0.099092	0.382380
	H90	H	0.097829	0.895293	0.619158
	H91	H	0.911110	0.912215	0.384336
	H92	H	0.089949	0.617642	0.900441
	H93	H	0.104786	0.383149	0.094326
	H94	H	0.920300	0.616739	0.093163
	H95	H	0.915783	0.388239	0.915001
	H96	H	0.407262	0.121687	0.597389
	H97	H	0.595802	0.884101	0.598734
	H98	H	0.591367	0.116800	0.403103
	H99	H	0.413235	0.886225	0.406877
	H100	H	0.599313	0.405143	0.117136
	H101	H	0.594725	0.596839	0.883338
	H102	H	0.409124	0.586949	0.113738
	H103	H	0.410064	0.409836	0.882341
	H104	H	0.120727	0.598172	0.411951
	H105	H	0.886692	0.595992	0.585676
	H106	H	0.120459	0.404733	0.589193
	H107	H	0.885365	0.411630	0.401070
	H108	H	0.905987	0.618337	0.086086
	H109	H	0.093560	0.383865	0.100784
	H110	H	0.097768	0.616861	0.911123
	H111	H	0.901268	0.382463	0.909028
	H112	H	0.107283	0.911005	0.616974
	H113	H	0.100210	0.097370	0.381765
	H114	H	0.904575	0.081231	0.614788
	H115	H	0.913323	0.905614	0.381791
	H116	H	0.623689	0.103156	0.902582
	H117	H	0.388709	0.095368	0.081222
	H118	H	0.623003	0.900978	0.092684
	H119	H	0.386722	0.909317	0.910783
	C120	C	0.382562	0.010356	0.620428
	C121	C	0.625462	0.993163	0.621664
	C122	C	0.625613	0.010120	0.377538
	C123	C	0.382599	0.993723	0.377372
	C124	C	0.625121	0.380868	0.007647
	C125	C	0.626051	0.625113	0.991061
	C126	C	0.382457	0.624210	0.007418
	C127	C	0.381756	0.380706	0.990910
	C128	C	0.012744	0.623557	0.377685
	C129	C	0.995315	0.621583	0.619953
	C130	C	0.012276	0.378996	0.622026
	C131	C	0.995353	0.381010	0.379221
	C132	C	0.882750	0.510707	0.121781
	C133	C	0.126057	0.493412	0.121906
	C134	C	0.125228	0.510086	0.877010
	C135	C	0.882827	0.493425	0.878521
	C136	C	0.126022	0.879186	0.507614
	C137	C	0.125790	0.123652	0.490972
	C138	C	0.882718	0.122485	0.507605
	C139	C	0.881996	0.879368	0.490632
	C140	C	0.512601	0.125356	0.876241
	C141	C	0.495404	0.123082	0.119603
	C142	C	0.512061	0.880100	0.121994
	C143	C	0.494982	0.883102	0.879281
	C144	C	0.384343	0.887445	0.678017
	C145	C	0.624009	0.117033	0.674509
	C146	C	0.623032	0.886853	0.323619
	C147	C	0.384768	0.117025	0.321500
	C148	C	0.679745	0.386301	0.884144
	C149	C	0.679820	0.619761	0.114627
	C150	C	0.327869	0.622604	0.884161
	C151	C	0.328019	0.383515	0.114597
	C152	C	0.888425	0.677785	0.380608
	C153	C	0.119709	0.676352	0.617033
	C154	C	0.888514	0.323747	0.619406
	C155	C	0.119857	0.327375	0.382732
	C156	C	0.888569	0.380429	0.677143
	C157	C	0.119730	0.618496	0.673956
	C158	C	0.888545	0.620996	0.322627
	C159	C	0.119450	0.383504	0.324497
	C160	C	0.384940	0.680718	0.884682
	C161	C	0.623151	0.678459	0.114338
	C162	C	0.622186	0.328210	0.883982
	C163	C	0.384311	0.324576	0.113805
	C164	C	0.679378	0.886199	0.382600
	C165	C	0.681268	0.116433	0.616727
	C166	C	0.328470	0.886307	0.618364
	C167	C	0.327501	0.117073	0.379363
	C168	C	0.885279	0.386766	0.177025
	C169	C	0.123030	0.616753	0.175636
	C170	C	0.122984	0.386402	0.824306
	C171	C	0.884977	0.616214	0.821314
	C172	C	0.180273	0.883847	0.383966
	C173	C	0.180373	0.118235	0.614454
	C174	C	0.827597	0.120580	0.384521
	C175	C	0.827279	0.880681	0.613861
	C176	C	0.388274	0.179329	0.879743
	C177	C	0.619784	0.177533	0.116467
	C178	C	0.387780	0.825285	0.118554
	C179	C	0.619107	0.828955	0.882580
	C180	C	0.388169	0.882089	0.176513
	C181	C	0.619729	0.120140	0.173930
	C182	C	0.388586	0.123539	0.820963
	C183	C	0.619470	0.886577	0.825641
	C184	C	0.884454	0.179179	0.385002
	C185	C	0.123785	0.177103	0.614117
	C186	C	0.123161	0.825979	0.384192
	C187	C	0.884398	0.822989	0.613788
	C188	C	0.179917	0.386722	0.882375
	C189	C	0.179324	0.617691	0.116604
	C190	C	0.828022	0.386746	0.118955
	C191	C	0.828978	0.617229	0.880358
	C192	C	0.404406	0.096241	0.597264
	C193	C	0.602779	0.907043	0.601065
	C194	C	0.604071	0.096475	0.398168
	C195	C	0.404488	0.907529	0.399821
	C196	C	0.603217	0.401031	0.093727
	C197	C	0.604494	0.604809	0.904775
	C198	C	0.404328	0.601357	0.093400
	C199	C	0.403529	0.403085	0.904832
	C200	C	0.099297	0.601910	0.399308
	C201	C	0.908757	0.599287	0.597982
	C202	C	0.098877	0.401449	0.600237
	C203	C	0.908614	0.402476	0.400583
	C204	C	0.904785	0.596998	0.099933
	C205	C	0.104084	0.407274	0.100795
	C206	C	0.103402	0.596532	0.897488
	C207	C	0.904229	0.407162	0.901357
	C208	C	0.104568	0.899693	0.593825
	C209	C	0.103760	0.103059	0.404737
	C210	C	0.905182	0.099313	0.593328
	C211	C	0.903837	0.902043	0.404594
	C212	C	0.599244	0.103513	0.897858
	C213	C	0.408533	0.101163	0.097957
	C214	C	0.598877	0.902435	0.100142
	C215	C	0.408053	0.904562	0.900865
	Zn216	Zn	0.503879	0.003153	0.749983
	Zn217	Zn	0.503852	0.002005	0.248922
	Zn218	Zn	0.754370	0.502691	-0.000307
	Zn219	Zn	0.253823	0.502692	-0.001000
	Zn220	Zn	0.003931	0.751038	0.499120
	Zn221	Zn	0.004098	0.252288	0.499850
	Zn222	Zn	0.003620	0.500647	0.748943
	Zn223	Zn	0.004099	0.501422	0.250489
	Zn224	Zn	0.503663	0.753199	-0.000244
	Zn225	Zn	0.503775	0.251847	-0.001480
	Zn226	Zn	0.753825	0.000825	0.499685
	Zn227	Zn	0.254109	0.001160	0.498529
	N228	N	0.417288	0.965616	0.679410
	N229	N	0.589880	0.039516	0.677566
	N230	N	0.590394	0.964766	0.320454
	N231	N	0.418255	0.039424	0.320311
	N232	N	0.681796	0.418328	0.962048
	N233	N	0.681898	0.587514	0.036959
	N234	N	0.326140	0.588241	0.961537
	N235	N	0.326136	0.417611	0.037005
	N236	N	0.966467	0.679446	0.414112
	N237	N	0.041314	0.678524	0.584311
	N238	N	0.966462	0.322691	0.585980
	N239	N	0.041699	0.325662	0.415934
	N240	N	0.966690	0.414175	0.678863
	N241	N	0.041469	0.585125	0.675832
	N242	N	0.966936	0.588095	0.320434
	N243	N	0.041131	0.416181	0.322354
	N244	N	0.418210	0.681753	0.962406
	N245	N	0.590497	0.682056	0.036376
	N246	N	0.589064	0.324940	0.961616
	N247	N	0.416882	0.322564	0.035870
	N248	N	0.680974	0.963864	0.415439
	N249	N	0.682331	0.038472	0.584719
	N250	N	0.327341	0.963471	0.583193
	N251	N	0.326092	0.039342	0.413526
	N252	N	0.918485	0.464722	0.178871
	N253	N	0.090726	0.538378	0.179240
	N254	N	0.089917	0.464172	0.820849
	N255	N	0.917732	0.538219	0.820084
	N256	N	0.182256	0.916206	0.461801
	N257	N	0.181983	0.085793	0.536774
	N258	N	0.826825	0.085665	0.461760
	N259	N	0.825629	0.914939	0.536507
	N260	N	0.466272	0.180629	0.913170
	N261	N	0.541465	0.179301	0.083404
	N262	N	0.466056	0.823811	0.085592
	N263	N	0.540729	0.826928	0.915473
	N264	N	0.466327	0.915618	0.178438
	N265	N	0.541354	0.087099	0.176208
	N266	N	0.466945	0.090510	0.818904
	N267	N	0.541175	0.919261	0.823392
	N268	N	0.917940	0.180687	0.462562
	N269	N	0.090882	0.180588	0.536329
	N270	N	0.090183	0.822989	0.461928
	N271	N	0.917958	0.822081	0.536163
	N272	N	0.181388	0.464684	0.914631
	N273	N	0.181311	0.540061	0.083934
	N274	N	0.826477	0.464628	0.085211
	N275	N	0.827882	0.539968	0.915495
	O276	O	-0.031719	0.039471	1.017590
	H277	H	-0.032007	0.040793	1.019163
	H278	H	-0.032966	0.042408	1.015846
	O279	O	0.440330	0.476255	0.453977
	H280	H	0.434814	0.473409	0.455497
	H281	H	0.435588	0.468934	0.471840
	O282	O	0.460024	0.481814	0.471989
	H283	H	0.472514	0.490960	0.467271
	H284	H	0.467780	0.483380	0.465436
	O285	O	0.404503	0.493481	0.448368
	H286	H	0.407751	0.492695	0.437690
	H287	H	0.398098	0.494288	0.448824
	O288	O	0.438060	0.492196	0.468889
	H289	H	0.423263	0.489187	0.465135
	H290	H	0.424296	0.483619	0.480093
	O291	O	-0.059923	1.025544	1.020263
	H292	H	-0.069516	1.028737	1.019990
	H293	H	-0.054734	1.026529	1.027789
	O294	O	0.416293	0.481033	0.496731
	H295	H	0.411031	0.486237	0.498980
	H296	H	0.428189	0.487374	0.491856
	O297	O	0.995987	0.026675	0.008745
	H298	H	0.994330	0.021378	0.007654
	H299	H	0.996021	0.029883	0.011173
