data_Molecule from HDF5

_cell_length_a		16.236621
_cell_length_b		16.313763
_cell_length_c		16.320986
_cell_angle_alpha	90.158522
_cell_angle_beta	89.839202
_cell_angle_gamma	90.664514
_symmetry_space_group_name_H-M	'P 1'
_symmetry_Int_Tables_number		1

loop_
	_symmetry_equiv_pos_as_xyz
	x,y,z

loop_
	_atom_site_label
	_atom_site_type_symbol
	_atom_site_fract_x
	_atom_site_fract_y
	_atom_site_fract_z
	H0	H	0.389028	0.819882	0.732159
	H1	H	0.598613	0.142619	0.730785
	H2	H	0.598109	0.819930	0.293693
	H3	H	0.391480	0.140001	0.293872
	H4	H	0.707280	0.380796	0.849550
	H5	H	0.711776	0.583165	0.173496
	H6	H	0.275838	0.582458	0.851274
	H7	H	0.268973	0.375568	0.173062
	H8	H	0.829767	0.695356	0.411360
	H9	H	0.153601	0.700360	0.615263
	H10	H	0.830397	0.259576	0.612440
	H11	H	0.153427	0.261288	0.405107
	H12	H	0.828888	0.375527	0.728008
	H13	H	0.153712	0.585395	0.729999
	H14	H	0.828769	0.579457	0.296342
	H15	H	0.151799	0.375121	0.288994
	H16	H	0.392436	0.698972	0.852041
	H17	H	0.600245	0.701162	0.173395
	H18	H	0.594570	0.261768	0.852155
	H19	H	0.386407	0.260038	0.174010
	H20	H	0.705448	0.816864	0.414996
	H21	H	0.712761	0.142087	0.614521
	H22	H	0.272837	0.820027	0.617716
	H23	H	0.275802	0.140062	0.408950
	H24	H	0.883186	0.319053	0.230740
	H25	H	0.095906	0.640347	0.231170
	H26	H	0.091146	0.318358	0.793530
	H27	H	0.892003	0.641918	0.793958
	H28	H	0.212944	0.876513	0.352124
	H29	H	0.212017	0.085324	0.673584
	H30	H	0.777279	0.077933	0.349700
	H31	H	0.775790	0.879676	0.676434
	H32	H	0.330822	0.195454	0.912055
	H33	H	0.654031	0.203412	0.117630
	H34	H	0.333698	0.759947	0.118363
	H35	H	0.657746	0.767714	0.911985
	H36	H	0.333594	0.875712	0.232841
	H37	H	0.656791	0.084237	0.229864
	H38	H	0.332858	0.084143	0.793601
	H39	H	0.655899	0.881300	0.794388
	H40	H	0.890180	0.196693	0.350920
	H41	H	0.097213	0.201875	0.672177
	H42	H	0.095436	0.762033	0.350979
	H43	H	0.889325	0.760724	0.674518
	H44	H	0.208531	0.319015	0.907783
	H45	H	0.211252	0.640885	0.115776
	H46	H	0.772285	0.318502	0.110654
	H47	H	0.779151	0.643821	0.912104
	H48	H	0.417125	0.088272	0.593921
	H49	H	0.587225	0.863762	0.604106
	H50	H	0.588197	0.098852	0.414623
	H51	H	0.404009	0.863927	0.419890
	H52	H	0.577382	0.385780	0.127104
	H53	H	0.590457	0.567456	0.897357
	H54	H	0.400525	0.570048	0.128585
	H55	H	0.400559	0.386102	0.896451
	H56	H	0.106079	0.568849	0.424101
	H57	H	0.875844	0.574116	0.599719
	H58	H	0.108570	0.395096	0.606127
	H59	H	0.877841	0.395205	0.417831
	H60	H	0.108814	0.387694	0.601228
	H61	H	0.877940	0.564592	0.600400
	H62	H	0.108340	0.568984	0.416262
	H63	H	0.873004	0.380375	0.418094
	H64	H	0.404193	0.566911	0.126464
	H65	H	0.576773	0.574445	0.898946
	H66	H	0.588496	0.392590	0.129751
	H67	H	0.400417	0.391642	0.899330
	H68	H	0.579716	0.093833	0.424619
	H69	H	0.581555	0.863875	0.610116
	H70	H	0.388539	0.098882	0.597996
	H71	H	0.407487	0.866770	0.425314
	H72	H	0.907194	0.591684	0.099470
	H73	H	0.074486	0.369464	0.092804
	H74	H	0.086654	0.597134	0.919186
	H75	H	0.897487	0.364023	0.917064
	H76	H	0.088316	0.893285	0.628505
	H77	H	0.080839	0.068201	0.399204
	H78	H	0.890572	0.064918	0.628710
	H79	H	0.905878	0.886812	0.400414
	H80	H	0.609519	0.068496	0.918012
	H81	H	0.378551	0.066177	0.107883
	H82	H	0.605940	0.897012	0.093708
	H83	H	0.378471	0.890216	0.922378
	H84	H	0.612494	0.898183	0.115736
	H85	H	0.376332	0.072362	0.104991
	H86	H	0.611207	0.079047	0.922581
	H87	H	0.378462	0.887873	0.925252
	H88	H	0.913741	0.062125	0.622003
	H89	H	0.084363	0.072902	0.396007
	H90	H	0.076487	0.895198	0.623333
	H91	H	0.896484	0.879403	0.393843
	H92	H	0.080367	0.594812	0.919081
	H93	H	0.087410	0.362005	0.099991
	H94	H	0.896912	0.596918	0.102679
	H95	H	0.902203	0.364954	0.919291
	H96	H	0.408790	0.100912	0.620744
	H97	H	0.580039	0.867037	0.602887
	H98	H	0.592789	0.096075	0.427548
	H99	H	0.400558	0.865597	0.426478
	H100	H	0.578078	0.398242	0.124635
	H101	H	0.588809	0.582077	0.893139
	H102	H	0.405089	0.573032	0.127861
	H103	H	0.404997	0.388068	0.900585
	H104	H	0.108623	0.575965	0.420971
	H105	H	0.874300	0.569859	0.607640
	H106	H	0.105132	0.394675	0.598134
	H107	H	0.879498	0.387168	0.430962
	H108	H	0.905727	0.596127	0.109816
	H109	H	0.073452	0.363867	0.108301
	H110	H	0.083520	0.593523	0.924636
	H111	H	0.897398	0.364948	0.922804
	H112	H	0.079235	0.883385	0.628597
	H113	H	0.087221	0.067448	0.397164
	H114	H	0.906437	0.083860	0.630383
	H115	H	0.893816	0.892156	0.397623
	H116	H	0.606233	0.070837	0.928903
	H117	H	0.379956	0.067710	0.102001
	H118	H	0.614883	0.878606	0.104108
	H119	H	0.379809	0.891476	0.926079
	C120	C	0.372281	-0.010325	0.635520
	C121	C	0.615230	0.971810	0.635585
	C122	C	0.615809	-0.010938	0.392208
	C123	C	0.373152	0.971428	0.392082
	C124	C	0.612181	0.360610	0.020699
	C125	C	0.616630	0.604521	1.003368
	C126	C	0.372798	0.601068	0.021220
	C127	C	0.369074	0.357105	1.004606
	C128	C	0.000274	0.600755	0.390750
	C129	C	0.983075	0.601542	0.633269
	C130	C	0.000357	0.359654	0.632177
	C131	C	0.983250	0.357367	0.389877
	C132	C	0.869940	0.488721	0.133696
	C133	C	0.111331	0.471346	0.132579
	C134	C	0.113394	0.488856	0.889556
	C135	C	0.870294	0.471828	0.889913
	C136	C	0.113107	0.859339	0.520695
	C137	C	0.115876	0.102320	0.503536
	C138	C	0.872668	0.100027	0.520258
	C139	C	0.869174	0.856421	0.504678
	C140	C	0.502173	0.102297	0.892578
	C141	C	0.485119	0.101779	0.135620
	C142	C	0.504012	0.859335	0.135867
	C143	C	0.485921	0.860420	0.892750
	C144	C	0.370601	0.868391	0.693534
	C145	C	0.616913	0.093958	0.692363
	C146	C	0.616182	0.867765	0.333550
	C147	C	0.372567	0.091905	0.333205
	C148	C	0.669232	0.360956	0.898417
	C149	C	0.674258	0.603445	0.124838
	C150	C	0.315020	0.601577	0.899936
	C151	C	0.308710	0.356179	0.125038
	C152	C	0.878271	0.657253	0.391651
	C153	C	0.104910	0.661049	0.634006
	C154	C	0.878532	0.299552	0.631851
	C155	C	0.104841	0.299736	0.386828
	C156	C	0.877723	0.357249	0.689358
	C157	C	0.104849	0.603697	0.691152
	C158	C	0.877686	0.599420	0.334410
	C159	C	0.103915	0.356561	0.328934
	C160	C	0.373260	0.659788	0.900358
	C161	C	0.618516	0.662130	0.124972
	C162	C	0.612799	0.301765	0.899759
	C163	C	0.367371	0.298912	0.125617
	C164	C	0.669504	0.866179	0.394118
	C165	C	0.673919	0.093732	0.634537
	C166	C	0.312116	0.868490	0.636770
	C167	C	0.315054	0.092031	0.390855
	C168	C	0.866468	0.367332	0.191133
	C169	C	0.114414	0.592045	0.192149
	C170	C	0.111790	0.367281	0.831783
	C171	C	0.872037	0.593760	0.832807
	C172	C	0.172898	0.858175	0.400006
	C173	C	0.173506	0.104123	0.624883
	C174	C	0.815532	0.097895	0.398402
	C175	C	0.813184	0.858466	0.627278
	C176	C	0.379707	0.158123	0.892623
	C177	C	0.606344	0.162772	0.135966
	C178	C	0.382078	0.799730	0.136718
	C179	C	0.608610	0.805163	0.892415
	C180	C	0.382075	0.857365	0.193897
	C181	C	0.607616	0.103618	0.192012
	C182	C	0.380962	0.102635	0.833669
	C183	C	0.607625	0.861705	0.833871
	C184	C	0.871867	0.157287	0.398863
	C185	C	0.116531	0.162385	0.624084
	C186	C	0.114221	0.801234	0.399327
	C187	C	0.870013	0.799372	0.626265
	C188	C	0.170199	0.367442	0.888719
	C189	C	0.171958	0.592291	0.134734
	C190	C	0.810920	0.366983	0.131544
	C191	C	0.816267	0.594691	0.891910
	C192	C	0.397404	0.073945	0.611157
	C193	C	0.590442	0.887013	0.612497
	C194	C	0.593316	0.074185	0.415345
	C195	C	0.397086	0.887381	0.416770
	C196	C	0.588136	0.384953	0.105088
	C197	C	0.592404	0.581454	0.918736
	C198	C	0.396341	0.577000	0.105667
	C199	C	0.394459	0.381591	0.920579
	C200	C	0.085549	0.577895	0.413690
	C201	C	0.898196	0.576655	0.609411
	C202	C	0.085357	0.385189	0.608569
	C203	C	0.898719	0.380870	0.415188
	C204	C	0.895890	0.573106	0.110630
	C205	C	0.085807	0.387099	0.107554
	C206	C	0.090330	0.573111	0.914018
	C207	C	0.892707	0.386834	0.912978
	C208	C	0.088346	0.883551	0.604815
	C209	C	0.091413	0.076933	0.419318
	C210	C	0.896569	0.076955	0.605059
	C211	C	0.892047	0.879406	0.419434
	C212	C	0.587103	0.079512	0.916412
	C213	C	0.400471	0.076190	0.111919
	C214	C	0.589031	0.884179	0.111657
	C215	C	0.401182	0.883219	0.917318
	Zn216	Zn	0.494047	-0.018304	0.763792
	Zn217	Zn	0.495263	-0.019694	0.264176
	Zn218	Zn	0.742276	0.481305	0.011440
	Zn219	Zn	0.241200	0.480021	0.012540
	Zn220	Zn	-0.007858	0.729051	0.512052
	Zn221	Zn	-0.006583	0.230257	0.511642
	Zn222	Zn	-0.008870	0.480251	0.761390
	Zn223	Zn	-0.009079	0.479057	0.262461
	Zn224	Zn	0.494940	0.731532	0.013728
	Zn225	Zn	0.492249	0.229710	0.013561
	Zn226	Zn	0.742294	-0.020252	0.513650
	Zn227	Zn	0.243963	-0.019818	0.513253
	N228	N	0.406903	0.944847	0.693216
	N229	N	0.581170	0.017051	0.693301
	N230	N	0.583282	0.945154	0.332277
	N231	N	0.407964	0.015846	0.333947
	N232	N	0.668906	0.396983	0.974507
	N233	N	0.673149	0.568483	0.048196
	N234	N	0.314700	0.565661	0.976062
	N235	N	0.309666	0.391552	0.048749
	N236	N	0.955648	0.658298	0.425729
	N237	N	0.028032	0.659841	0.598672
	N238	N	0.955910	0.300707	0.597293
	N239	N	0.028860	0.300101	0.424003
	N240	N	0.954592	0.393812	0.689707
	N241	N	0.028170	0.567292	0.690839
	N242	N	0.954593	0.565008	0.333795
	N243	N	0.027247	0.391326	0.330496
	N244	N	0.408234	0.659785	0.976976
	N245	N	0.583212	0.662961	0.048492
	N246	N	0.578288	0.301479	0.976835
	N247	N	0.404206	0.299481	0.049736
	N248	N	0.669487	0.942601	0.429798
	N249	N	0.673107	0.016928	0.600168
	N250	N	0.312835	0.944980	0.601542
	N251	N	0.315301	0.016025	0.426911
	N252	N	0.902457	0.444009	0.192612
	N253	N	0.077542	0.515766	0.191061
	N254	N	0.077392	0.443798	0.831993
	N255	N	0.904645	0.516345	0.831348
	N256	N	0.172286	0.893852	0.476444
	N257	N	0.173368	0.067665	0.548821
	N258	N	0.815897	0.063020	0.475143
	N259	N	0.812443	0.892986	0.550523
	N260	N	0.456172	0.158062	0.928515
	N261	N	0.529044	0.161824	0.101781
	N262	N	0.459164	0.800575	0.101647
	N263	N	0.531854	0.804082	0.928326
	N264	N	0.459000	0.893456	0.193465
	N265	N	0.531283	0.066503	0.192169
	N266	N	0.458088	0.068792	0.833399
	N267	N	0.530378	0.895284	0.833966
	N268	N	0.907004	0.158226	0.475312
	N269	N	0.081661	0.161502	0.547436
	N270	N	0.077710	0.801845	0.475264
	N271	N	0.903863	0.797951	0.548956
	N272	N	0.171418	0.444084	0.923961
	N273	N	0.170043	0.516188	0.098307
	N274	N	0.813020	0.443392	0.096519
	N275	N	0.814956	0.517960	0.926577
	O276	O	0.581186	0.434824	0.432343
	H277	H	0.576016	0.441039	0.444454
	H278	H	0.590364	0.430335	0.441810
	O279	O	0.469011	0.384642	0.552959
	H280	H	0.469286	0.387490	0.559424
	H281	H	0.467421	0.383741	0.546800
	O282	O	0.918269	-0.088311	1.043874
	H283	H	0.927379	-0.084203	1.041979
	H284	H	0.909952	-0.086798	1.048271
	O285	O	0.535395	0.583694	0.404741
	H286	H	0.523998	0.592571	0.387865
	H287	H	0.522871	0.570918	0.406302
	O288	O	0.879566	0.935500	0.971746
	H289	H	0.882534	0.942000	0.989720
	H290	H	0.871386	0.926860	0.978078
	O291	O	0.521883	1.551137	-0.587385
	H292	H	0.529459	1.545749	-0.594924
	H293	H	0.512053	1.539486	-0.595896
	O294	O	0.384087	0.309136	0.623392
	H295	H	0.406277	0.306800	0.641343
	H296	H	0.368003	0.315828	0.628837
	O297	O	0.633366	0.362302	0.422442
	H298	H	0.620540	0.360591	0.425930
	H299	H	0.632123	0.373740	0.418461
	O300	O	0.552792	0.480226	0.645830
	H301	H	0.543890	0.482187	0.652484
	H302	H	0.564400	0.484578	0.661078
	O303	O	1.037030	0.872077	-0.009499
	H304	H	1.043537	0.863195	-0.019448
	H305	H	1.041161	0.876477	-0.009620
	O306	O	0.355664	0.318830	0.514954
	H307	H	0.362479	0.329140	0.538938
	H308	H	0.337213	0.300282	0.518306
	O309	O	0.388772	0.415965	0.505722
	H310	H	0.388783	0.417753	0.512175
	H311	H	0.404096	0.429233	0.512154
	O312	O	-0.044140	0.048129	0.102662
	H313	H	-0.031655	0.047024	0.104771
	H314	H	-0.040423	0.043482	0.104561
	O315	O	0.434151	0.525325	0.364494
	H316	H	0.426641	0.537740	0.347768
	H317	H	0.412048	0.516851	0.375441
	O318	O	-0.092250	1.125412	1.029548
	H319	H	-0.104072	1.131667	1.029013
	H320	H	-0.081494	1.114738	1.020928
	O321	O	0.452482	0.382580	0.526070
	H322	H	0.453694	0.393269	0.517945
	H323	H	0.447000	0.370874	0.530783
	O324	O	0.161844	1.069301	0.102865
	H325	H	0.157684	1.067958	0.105959
	H326	H	0.156875	1.082106	0.105767
	O327	O	-0.045828	-0.002531	0.125047
	H328	H	-0.027689	0.013478	0.117378
	H329	H	-0.055557	-0.014289	0.119304
	O330	O	0.088898	-0.147927	0.879143
	H331	H	0.095266	-0.146934	0.879097
	H332	H	0.088318	-0.147336	0.875008
	O333	O	-0.047685	-0.063609	1.149628
	H334	H	-0.064737	-0.058271	1.142636
	H335	H	-0.052174	-0.061647	1.170906
	O336	O	0.464251	0.516507	0.593715
	H337	H	0.469780	0.512528	0.603181
	H338	H	0.465365	0.512353	0.598980
	O339	O	0.940094	-0.067387	0.030358
	H340	H	0.934042	-0.068217	0.046013
	H341	H	0.936774	-0.073687	0.032336
	O342	O	-0.013984	0.082185	-0.075073
	H343	H	-0.012928	0.084498	-0.084308
	H344	H	-0.009751	0.072506	-0.068879
	O345	O	1.095559	0.040736	0.849465
	H346	H	1.104688	0.044907	0.841797
	H347	H	1.095454	0.031589	0.854019
	O348	O	1.158701	1.004380	0.100266
	H349	H	1.142889	1.000001	0.117333
	H350	H	1.164493	1.001733	0.087712
	O351	O	0.565596	0.667716	0.582305
	H352	H	0.560412	0.659485	0.567946
	H353	H	0.576605	0.677678	0.586437
	O354	O	0.994976	0.011325	0.866610
	H355	H	0.992239	0.003201	0.866213
	H356	H	0.990678	0.004524	0.864823
	O357	O	0.397868	0.647171	0.345856
	H358	H	0.388028	0.645554	0.348485
	H359	H	0.383599	0.641726	0.350438
	O360	O	1.076557	0.837717	0.992488
	H361	H	1.078311	0.828143	0.983878
	H362	H	1.056637	0.833097	0.985485
	O363	O	0.153436	1.009516	0.926531
	H364	H	0.156895	1.023159	0.928546
	H365	H	0.132301	1.007235	0.927119
	O366	O	0.650709	0.655248	0.592405
	H367	H	0.639374	0.670505	0.576066
	H368	H	0.643570	0.656368	0.581863
	O369	O	-0.024593	0.785453	0.098260
	H370	H	-0.019895	0.779393	0.098637
	H371	H	-0.022352	0.780741	0.114885
	O372	O	0.550642	0.434526	0.688467
	H373	H	0.546658	0.458935	0.688632
	H374	H	0.572951	0.442945	0.709491
	O375	O	0.457963	0.477097	0.378273
	H376	H	0.460023	0.450806	0.385049
	H377	H	0.460541	0.470538	0.362938
	O378	O	0.860383	0.961124	0.039452
	H379	H	0.875871	0.964865	0.048970
	H380	H	0.846333	0.963284	0.052747
	O381	O	0.459677	0.477911	-0.514477
	H382	H	0.446346	0.463802	-0.500491
	H383	H	0.442569	0.479990	-0.511646
	O384	O	1.560049	1.420322	-0.561507
	H385	H	1.558739	1.410752	-0.568747
	H386	H	1.560430	1.437755	-0.559474
	O387	O	0.032531	-0.054895	0.125579
	H388	H	0.041418	-0.056535	0.119807
	H389	H	0.036577	-0.055790	0.149936
	O390	O	-0.087217	1.131931	-0.084732
	H391	H	-0.092027	1.134629	-0.085531
	H392	H	-0.088602	1.125911	-0.078520
	O393	O	0.383803	0.600485	0.469915
	H394	H	0.382097	0.588440	0.472326
	H395	H	0.381681	0.596675	0.479488
	O396	O	0.518871	0.628927	0.654901
	H397	H	0.517567	0.627889	0.658741
	H398	H	0.526576	0.630623	0.639700
	O399	O	0.512598	1.309288	1.428217
	H400	H	0.535243	1.320648	1.427960
	H401	H	0.509526	1.301364	1.409053
	O402	O	0.453438	0.495151	0.685023
	H403	H	0.467518	0.496791	0.670756
	H404	H	0.466871	0.497792	0.678831
	O405	O	1.111843	1.165108	0.141993
	H406	H	1.114615	1.176798	0.144245
	H407	H	1.109916	1.164319	0.143931
	O408	O	0.874137	0.985282	-0.004459
	H409	H	0.863731	0.987772	-0.009706
	H410	H	0.885779	0.985471	-0.013658
	O411	O	1.060906	-0.127439	0.957034
	H412	H	1.061200	-0.134646	0.960915
	H413	H	1.058099	-0.123616	0.945314
	O414	O	0.434730	0.570074	0.610890
	H415	H	0.446399	0.572796	0.628518
	H416	H	0.434116	0.562010	0.598177
	O417	O	0.450107	0.377841	0.487451
	H418	H	0.443172	0.370892	0.470981
	H419	H	0.438926	0.372140	0.501146
