data_Molecule from HDF5

_cell_length_a		16.262293
_cell_length_b		16.227698
_cell_length_c		16.170974
_cell_angle_alpha	89.890273
_cell_angle_beta	90.049637
_cell_angle_gamma	90.118142
_symmetry_space_group_name_H-M	'P 1'
_symmetry_Int_Tables_number		1

loop_
	_symmetry_equiv_pos_as_xyz
	x,y,z

loop_
	_atom_site_label
	_atom_site_type_symbol
	_atom_site_fract_x
	_atom_site_fract_y
	_atom_site_fract_z
	H0	H	0.406342	0.852225	0.710712
	H1	H	0.603683	0.181533	0.711353
	H2	H	0.600445	0.852415	0.286636
	H3	H	0.406045	0.182624	0.283859
	H4	H	0.718529	0.419299	0.831532
	H5	H	0.722477	0.618112	0.159562
	H6	H	0.293097	0.616922	0.832044
	H7	H	0.291944	0.418465	0.161218
	H8	H	0.839965	0.731401	0.396312
	H9	H	0.168264	0.731607	0.594477
	H10	H	0.839914	0.305079	0.595109
	H11	H	0.167381	0.301391	0.396924
	H12	H	0.841473	0.417817	0.711837
	H13	H	0.169071	0.615595	0.709393
	H14	H	0.841309	0.616639	0.278924
	H15	H	0.169370	0.419585	0.282592
	H16	H	0.408733	0.731062	0.831727
	H17	H	0.605551	0.731146	0.161398
	H18	H	0.605217	0.302150	0.832949
	H19	H	0.407813	0.303747	0.161800
	H20	H	0.719107	0.854101	0.398862
	H21	H	0.719850	0.181786	0.597259
	H22	H	0.288793	0.853232	0.598193
	H23	H	0.288647	0.181236	0.397929
	H24	H	0.907021	0.353740	0.210056
	H25	H	0.104016	0.681685	0.209650
	H26	H	0.102463	0.352098	0.782996
	H27	H	0.910147	0.681884	0.783470
	H28	H	0.218244	0.918694	0.332920
	H29	H	0.218289	0.116352	0.662878
	H30	H	0.790669	0.117400	0.333096
	H31	H	0.791292	0.919851	0.662416
	H32	H	0.341515	0.233174	0.898190
	H33	H	0.669941	0.232060	0.097338
	H34	H	0.341557	0.801659	0.096836
	H35	H	0.669847	0.805072	0.900331
	H36	H	0.340028	0.918986	0.211004
	H37	H	0.669347	0.116104	0.212957
	H38	H	0.340883	0.116581	0.782077
	H39	H	0.668777	0.919825	0.784027
	H40	H	0.905838	0.231108	0.332643
	H41	H	0.102627	0.232657	0.662137
	H42	H	0.101275	0.805437	0.332035
	H43	H	0.905217	0.802234	0.661773
	H44	H	0.219635	0.352770	0.898834
	H45	H	0.219865	0.681315	0.095292
	H46	H	0.790020	0.354291	0.095963
	H47	H	0.790255	0.681261	0.894081
	H48	H	0.417065	0.134088	0.596691
	H49	H	0.601557	0.901045	0.585835
	H50	H	0.600068	0.134848	0.406104
	H51	H	0.415893	0.899720	0.396024
	H52	H	0.590625	0.421366	0.112428
	H53	H	0.609342	0.613447	0.875039
	H54	H	0.409793	0.611004	0.116116
	H55	H	0.413180	0.430818	0.880735
	H56	H	0.122286	0.618529	0.404977
	H57	H	0.886341	0.610709	0.593367
	H58	H	0.123356	0.426348	0.595678
	H59	H	0.886124	0.421134	0.399584
	H60	H	0.123165	0.417302	0.587459
	H61	H	0.887299	0.612588	0.586979
	H62	H	0.118615	0.606707	0.409160
	H63	H	0.889012	0.425241	0.407857
	H64	H	0.411935	0.606479	0.113554
	H65	H	0.596113	0.600751	0.882360
	H66	H	0.606157	0.421106	0.117517
	H67	H	0.418202	0.422832	0.880479
	H68	H	0.598587	0.135685	0.402927
	H69	H	0.602086	0.898299	0.594959
	H70	H	0.414820	0.130971	0.581292
	H71	H	0.415096	0.904619	0.413866
	H72	H	0.904018	0.637896	0.088983
	H73	H	0.091751	0.402701	0.088077
	H74	H	0.105507	0.637832	0.897079
	H75	H	0.916363	0.403595	0.910243
	H76	H	0.094543	0.919960	0.615625
	H77	H	0.107557	0.108071	0.378186
	H78	H	0.904590	0.107794	0.616567
	H79	H	0.913456	0.924912	0.379921
	H80	H	0.621243	0.111952	0.907913
	H81	H	0.388337	0.111039	0.092273
	H82	H	0.621811	0.920016	0.085716
	H83	H	0.388110	0.926017	0.902310
	H84	H	0.620027	0.930484	0.093173
	H85	H	0.388203	0.111633	0.089473
	H86	H	0.620109	0.106223	0.904497
	H87	H	0.386608	0.920078	0.901751
	H88	H	0.917716	0.106323	0.612343
	H89	H	0.090079	0.101978	0.385786
	H90	H	0.100599	0.924083	0.616418
	H91	H	0.909795	0.922961	0.378583
	H92	H	0.094460	0.633191	0.900869
	H93	H	0.104442	0.399964	0.083008
	H94	H	0.919814	0.635324	0.093956
	H95	H	0.903223	0.398153	0.905034
	H96	H	0.402660	0.136481	0.590184
	H97	H	0.593215	0.901137	0.590997
	H98	H	0.596281	0.134446	0.405638
	H99	H	0.399824	0.897126	0.405764
	H100	H	0.599011	0.434386	0.111548
	H101	H	0.590534	0.619483	0.878248
	H102	H	0.415294	0.611626	0.114969
	H103	H	0.409145	0.422699	0.876876
	H104	H	0.122636	0.608741	0.396280
	H105	H	0.888277	0.606493	0.589033
	H106	H	0.118756	0.428334	0.584003
	H107	H	0.888586	0.430022	0.399942
	H108	H	0.915647	0.630914	0.077958
	H109	H	0.102077	0.396859	0.096718
	H110	H	0.103191	0.632577	0.908492
	H111	H	0.915011	0.398647	0.896129
	H112	H	0.093937	0.927689	0.613440
	H113	H	0.092244	0.120710	0.378687
	H114	H	0.911980	0.119197	0.617618
	H115	H	0.909412	0.927327	0.380191
	H116	H	0.623345	0.111912	0.901488
	H117	H	0.388891	0.108937	0.089597
	H118	H	0.625003	0.920883	0.098295
	H119	H	0.388136	0.921952	0.907809
	C120	C	0.383185	0.025020	0.618552
	C121	C	0.626988	1.008978	0.619029
	C122	C	0.626086	0.026414	0.376927
	C123	C	0.381985	1.009150	0.376110
	C124	C	0.627401	0.396309	0.005408
	C125	C	0.627140	0.639234	0.987657
	C126	C	0.384575	0.638489	0.005547
	C127	C	0.384516	0.396210	0.988184
	C128	C	0.013023	0.639352	0.374274
	C129	C	0.996051	0.638607	0.617898
	C130	C	0.013278	0.395686	0.618011
	C131	C	0.996052	0.396308	0.374438
	C132	C	0.884444	0.526461	0.116622
	C133	C	0.127400	0.508734	0.117623
	C134	C	0.128141	0.525410	0.874141
	C135	C	0.883580	0.508649	0.874583
	C136	C	0.125309	0.895830	0.505929
	C137	C	0.125558	0.139409	0.489540
	C138	C	0.883000	0.139441	0.506351
	C139	C	0.882494	0.896091	0.488753
	C140	C	0.513717	0.139314	0.875243
	C141	C	0.497034	0.139367	0.119548
	C142	C	0.513559	0.894819	0.120337
	C143	C	0.496484	0.895612	0.876178
	C144	C	0.386060	0.901378	0.673247
	C145	C	0.624022	0.132539	0.673665
	C146	C	0.622048	0.901928	0.323450
	C147	C	0.385077	0.132949	0.321094
	C148	C	0.681829	0.398384	0.881214
	C149	C	0.683412	0.637471	0.111109
	C150	C	0.330930	0.636419	0.881267
	C151	C	0.329527	0.398176	0.112058
	C152	C	0.889177	0.694094	0.375982
	C153	C	0.119424	0.693915	0.614702
	C154	C	0.889480	0.341695	0.615813
	C155	C	0.119052	0.340420	0.377026
	C156	C	0.890113	0.397895	0.673656
	C157	C	0.119939	0.636129	0.671993
	C158	C	0.889784	0.636939	0.317715
	C159	C	0.120005	0.398910	0.319987
	C160	C	0.388649	0.693249	0.881273
	C161	C	0.625564	0.693906	0.111893
	C162	C	0.625145	0.340522	0.881764
	C163	C	0.386916	0.341103	0.112337
	C164	C	0.681174	0.902919	0.379127
	C165	C	0.682099	0.132576	0.617331
	C166	C	0.327239	0.901992	0.617477
	C167	C	0.326958	0.132422	0.378140
	C168	C	0.886509	0.402795	0.172357
	C169	C	0.124640	0.632614	0.172311
	C170	C	0.124113	0.401398	0.820011
	C171	C	0.887931	0.632622	0.820026
	C172	C	0.180330	0.898732	0.382056
	C173	C	0.180752	0.136981	0.613451
	C174	C	0.828155	0.137784	0.382289
	C175	C	0.828229	0.898828	0.612929
	C176	C	0.390323	0.195014	0.877506
	C177	C	0.620559	0.194472	0.117383
	C178	C	0.390225	0.839648	0.117519
	C179	C	0.620639	0.842122	0.879609
	C180	C	0.389623	0.897967	0.174381
	C181	C	0.620446	0.136933	0.175088
	C182	C	0.390047	0.137259	0.819759
	C183	C	0.620169	0.899204	0.821750
	C184	C	0.885475	0.194217	0.382062
	C185	C	0.123276	0.194751	0.613243
	C186	C	0.122383	0.842228	0.381584
	C187	C	0.885038	0.840514	0.612611
	C188	C	0.182369	0.401819	0.877236
	C189	C	0.182212	0.632383	0.115320
	C190	C	0.828363	0.402973	0.115990
	C191	C	0.828725	0.632265	0.875635
	C192	C	0.405103	0.111437	0.596113
	C193	C	0.605280	0.922495	0.597196
	C194	C	0.604724	0.112514	0.398569
	C195	C	0.403749	0.922792	0.398521
	C196	C	0.605010	0.418967	0.091697
	C197	C	0.604905	0.617575	0.900898
	C198	C	0.406037	0.616308	0.092448
	C199	C	0.406879	0.418737	0.901964
	C200	C	0.098963	0.617663	0.396927
	C201	C	0.909669	0.616338	0.596256
	C202	C	0.099512	0.417605	0.595667
	C203	C	0.910222	0.418757	0.396072
	C204	C	0.906708	0.612362	0.093868
	C205	C	0.105759	0.422249	0.095775
	C206	C	0.107133	0.612214	0.895648
	C207	C	0.905181	0.422462	0.897082
	C208	C	0.102956	0.917582	0.592779
	C209	C	0.103037	0.116977	0.403229
	C210	C	0.904948	0.117479	0.592966
	C211	C	0.904244	0.918615	0.401893
	C212	C	0.599280	0.116732	0.897876
	C213	C	0.410780	0.117089	0.097054
	C214	C	0.599966	0.917133	0.098665
	C215	C	0.410072	0.916481	0.897667
	Zn216	Zn	0.504584	0.016845	0.746814
	Zn217	Zn	0.504741	0.017341	0.248191
	Zn218	Zn	0.755174	0.517703	-0.003905
	Zn219	Zn	0.256248	0.517256	-0.003407
	Zn220	Zn	0.004025	0.767687	0.496380
	Zn221	Zn	0.003466	0.267864	0.497178
	Zn222	Zn	0.005142	0.516455	0.745868
	Zn223	Zn	0.005519	0.517842	0.245255
	Zn224	Zn	0.505712	0.766811	-0.002128
	Zn225	Zn	0.505921	0.268136	-0.002676
	Zn226	Zn	0.755099	0.018356	0.497585
	Zn227	Zn	0.253249	0.016898	0.498197
	N228	N	0.420394	0.978879	0.673846
	N229	N	0.590463	0.054546	0.675159
	N230	N	0.588439	0.979458	0.321938
	N231	N	0.418673	0.055145	0.319831
	N232	N	0.683308	0.432231	0.959089
	N233	N	0.684586	0.604223	0.032942
	N234	N	0.328432	0.602887	0.959441
	N235	N	0.327929	0.431769	0.033931
	N236	N	0.966643	0.695796	0.410369
	N237	N	0.041308	0.695715	0.581859
	N238	N	0.966904	0.340245	0.581983
	N239	N	0.041174	0.338732	0.410097
	N240	N	0.968359	0.430602	0.675429
	N241	N	0.042261	0.602555	0.674104
	N242	N	0.967640	0.603602	0.316616
	N243	N	0.042647	0.433084	0.318323
	N244	N	0.421249	0.694537	0.959716
	N245	N	0.591049	0.694875	0.034167
	N246	N	0.591940	0.339170	0.960040
	N247	N	0.420404	0.339662	0.034286
	N248	N	0.683757	0.981178	0.411828
	N249	N	0.683862	0.054810	0.583819
	N250	N	0.325177	0.980071	0.584125
	N251	N	0.324850	0.054516	0.411592
	N252	N	0.920652	0.480390	0.172910
	N253	N	0.091551	0.554581	0.174041
	N254	N	0.091276	0.479378	0.817935
	N255	N	0.921296	0.554831	0.819289
	N256	N	0.182122	0.931143	0.460607
	N257	N	0.182231	0.103237	0.535473
	N258	N	0.826502	0.104428	0.460618
	N259	N	0.826801	0.932802	0.534819
	N260	N	0.468144	0.196548	0.911167
	N261	N	0.542812	0.195992	0.083703
	N262	N	0.468386	0.837628	0.084846
	N263	N	0.542976	0.839742	0.912802
	N264	N	0.467387	0.931711	0.176281
	N265	N	0.542609	0.103287	0.176510
	N266	N	0.467564	0.103301	0.818258
	N267	N	0.542072	0.931947	0.819614
	N268	N	0.918855	0.195337	0.460214
	N269	N	0.089648	0.196315	0.535196
	N270	N	0.089007	0.840299	0.459717
	N271	N	0.917877	0.838609	0.534245
	N272	N	0.185110	0.480031	0.909923
	N273	N	0.184195	0.554265	0.082218
	N274	N	0.826900	0.480733	0.081888
	N275	N	0.825758	0.554096	0.908816
	O276	O	0.575721	0.479838	0.496963
	H277	H	0.574889	0.478751	0.489693
	H278	H	0.582478	0.472807	0.503084
	O279	O	0.447931	0.463177	0.425248
	H280	H	0.435069	0.467294	0.423279
	H281	H	0.450810	0.460220	0.419401
	O282	O	0.526918	0.461958	0.437001
	H283	H	0.529746	0.466540	0.434753
	H284	H	0.524233	0.466032	0.435662
	O285	O	0.081939	0.964200	1.095575
	H286	H	0.088735	0.966058	1.102013
	H287	H	0.085342	0.959933	1.090474
	O288	O	0.462361	0.542305	0.504285
	H289	H	0.456592	0.552251	0.506901
	H290	H	0.464584	0.550719	0.501684
	O291	O	-0.016649	0.030429	1.109988
	H292	H	-0.020949	0.035259	1.107414
	H293	H	-0.017803	0.031871	1.106964
	O294	O	0.494187	0.507250	0.471629
	H295	H	0.491739	0.510868	0.472427
	H296	H	0.494510	0.500246	0.470422
	O297	O	0.528130	0.427615	0.556970
	H298	H	0.530102	0.430764	0.558425
	H299	H	0.537650	0.426334	0.548436
	O300	O	0.511083	0.487734	0.487969
	H301	H	0.508137	0.484891	0.483161
	H302	H	0.510932	0.478054	0.496133
	O303	O	0.441817	0.495092	0.475748
	H304	H	0.450601	0.504135	0.484547
	H305	H	0.431651	0.490374	0.475011
	O306	O	0.759266	-0.196540	1.234515
	H307	H	0.755649	-0.195177	1.232902
	H308	H	0.755530	-0.203341	1.242873
	O309	O	-0.317317	0.367903	0.271106
	H310	H	-0.313076	0.363110	0.260489
	H311	H	-0.322973	0.376713	0.264792
	O312	O	0.443010	0.510855	0.534269
	H313	H	0.443641	0.522076	0.527388
	H314	H	0.436894	0.505623	0.526048
	O315	O	1.031161	0.023394	1.091963
	H316	H	1.036429	0.035588	1.102396
	H317	H	1.021591	0.024816	1.103313
	O318	O	-0.001425	0.041835	0.044311
	H319	H	0.005501	0.037208	0.048269
	H320	H	0.001085	0.041098	0.044115
	O321	O	0.420507	0.448010	0.489527
	H322	H	0.417871	0.459272	0.490436
	H323	H	0.416388	0.448763	0.502559
	O324	O	1.512324	-0.460942	-0.569564
	H325	H	1.513740	-0.460141	-0.559829
	H326	H	1.509006	-0.451998	-0.566946
	O327	O	0.423657	0.619021	0.535460
	H328	H	0.429247	0.609380	0.533883
	H329	H	0.429261	0.623344	0.534965
	O330	O	0.463641	0.471120	0.480891
	H331	H	0.469788	0.465633	0.478894
	H332	H	0.456909	0.469606	0.478212
	O333	O	0.513765	-0.461921	0.538800
	H334	H	0.501489	-0.468301	0.528346
	H335	H	0.510396	-0.472605	0.554699
