data_Molecule from HDF5

_cell_length_a		16.238960
_cell_length_b		16.142261
_cell_length_c		16.221651
_cell_angle_alpha	89.822563
_cell_angle_beta	90.569035
_cell_angle_gamma	90.011216
_symmetry_space_group_name_H-M	'P 1'
_symmetry_Int_Tables_number		1

loop_
	_symmetry_equiv_pos_as_xyz
	x,y,z

loop_
	_atom_site_label
	_atom_site_type_symbol
	_atom_site_fract_x
	_atom_site_fract_y
	_atom_site_fract_z
	H0	H	0.397784	0.835563	0.714407
	H1	H	0.597404	0.164643	0.714250
	H2	H	0.595659	0.835852	0.284773
	H3	H	0.395645	0.164976	0.283736
	H4	H	0.707782	0.401505	0.835784
	H5	H	0.713910	0.600801	0.163052
	H6	H	0.276257	0.602074	0.837133
	H7	H	0.282105	0.397459	0.163132
	H8	H	0.831307	0.713135	0.400827
	H9	H	0.160100	0.714885	0.603568
	H10	H	0.832025	0.283006	0.597838
	H11	H	0.160476	0.284780	0.405110
	H12	H	0.830464	0.399937	0.712449
	H13	H	0.159798	0.597477	0.718208
	H14	H	0.832863	0.600853	0.281960
	H15	H	0.159705	0.397749	0.287685
	H16	H	0.395196	0.713544	0.835019
	H17	H	0.596748	0.715257	0.163602
	H18	H	0.591004	0.287887	0.834793
	H19	H	0.398192	0.284929	0.163114
	H20	H	0.709040	0.834581	0.401405
	H21	H	0.712181	0.163930	0.599155
	H22	H	0.283268	0.835055	0.598804
	H23	H	0.280090	0.163618	0.398130
	H24	H	0.897674	0.333726	0.214057
	H25	H	0.096755	0.663731	0.216562
	H26	H	0.091935	0.333911	0.789260
	H27	H	0.894887	0.663563	0.784698
	H28	H	0.208547	0.899774	0.335031
	H29	H	0.214470	0.098848	0.662925
	H30	H	0.779848	0.099402	0.336518
	H31	H	0.781720	0.897101	0.663284
	H32	H	0.330996	0.213713	0.900429
	H33	H	0.660015	0.213883	0.098624
	H34	H	0.331522	0.785156	0.095889
	H35	H	0.659192	0.785644	0.900625
	H36	H	0.331826	0.900220	0.212216
	H37	H	0.659550	0.100896	0.216805
	H38	H	0.333389	0.102083	0.780593
	H39	H	0.659855	0.902294	0.788115
	H40	H	0.896076	0.213503	0.336770
	H41	H	0.096210	0.210369	0.665374
	H42	H	0.092908	0.784330	0.336390
	H43	H	0.898330	0.784829	0.664318
	H44	H	0.208108	0.334546	0.903149
	H45	H	0.212728	0.663361	0.101583
	H46	H	0.781746	0.334235	0.098592
	H47	H	0.782127	0.664408	0.899970
	H48	H	0.417140	0.116233	0.598656
	H49	H	0.586003	0.886092	0.583086
	H50	H	0.578482	0.117053	0.398670
	H51	H	0.396075	0.879472	0.402800
	H52	H	0.591037	0.410045	0.117184
	H53	H	0.587430	0.596460	0.880981
	H54	H	0.401070	0.597256	0.119718
	H55	H	0.396588	0.407258	0.881149
	H56	H	0.110475	0.592930	0.419107
	H57	H	0.878270	0.584338	0.600163
	H58	H	0.113205	0.404512	0.598453
	H59	H	0.878607	0.403375	0.410274
	H60	H	0.112036	0.404929	0.595300
	H61	H	0.876655	0.600971	0.592788
	H62	H	0.110766	0.581958	0.406899
	H63	H	0.880339	0.410228	0.408538
	H64	H	0.402779	0.585013	0.115063
	H65	H	0.591866	0.591629	0.881371
	H66	H	0.588654	0.406370	0.116403
	H67	H	0.401404	0.411615	0.882932
	H68	H	0.586611	0.113571	0.419974
	H69	H	0.600780	0.877882	0.595732
	H70	H	0.405866	0.113364	0.575800
	H71	H	0.408156	0.882397	0.400740
	H72	H	0.904418	0.613837	0.082673
	H73	H	0.086630	0.380358	0.100290
	H74	H	0.090917	0.619587	0.904917
	H75	H	0.904153	0.381851	0.907635
	H76	H	0.100513	0.910005	0.619432
	H77	H	0.093896	0.088138	0.381595
	H78	H	0.911555	0.093792	0.616766
	H79	H	0.908778	0.901985	0.383088
	H80	H	0.611091	0.090443	0.909091
	H81	H	0.377440	0.098073	0.089420
	H82	H	0.610138	0.917131	0.093251
	H83	H	0.378300	0.910379	0.899263
	H84	H	0.615593	0.905649	0.100688
	H85	H	0.379837	0.089955	0.087811
	H86	H	0.615400	0.094804	0.901306
	H87	H	0.376317	0.902500	0.904351
	H88	H	0.898011	0.096395	0.622512
	H89	H	0.082368	0.089034	0.384964
	H90	H	0.085952	0.912459	0.613561
	H91	H	0.895106	0.904266	0.379876
	H92	H	0.081328	0.616053	0.906525
	H93	H	0.085725	0.383592	0.089800
	H94	H	0.895913	0.619571	0.095132
	H95	H	0.896583	0.380430	0.909911
	H96	H	0.392894	0.122908	0.595157
	H97	H	0.582210	0.881900	0.602659
	H98	H	0.600326	0.122090	0.403632
	H99	H	0.403969	0.883352	0.412857
	H100	H	0.591865	0.406063	0.118262
	H101	H	0.585793	0.590929	0.883568
	H102	H	0.412550	0.593487	0.114958
	H103	H	0.402479	0.405603	0.881529
	H104	H	0.116546	0.598475	0.403794
	H105	H	0.882959	0.587941	0.582829
	H106	H	0.112689	0.408057	0.597940
	H107	H	0.878039	0.404501	0.402741
	H108	H	0.911861	0.616191	0.096758
	H109	H	0.095384	0.380030	0.094002
	H110	H	0.088023	0.615478	0.914919
	H111	H	0.899879	0.378126	0.902499
	H112	H	0.089226	0.897977	0.618904
	H113	H	0.087952	0.099198	0.379731
	H114	H	0.901588	0.083581	0.616721
	H115	H	0.901951	0.914858	0.384927
	H116	H	0.614432	0.099033	0.910540
	H117	H	0.377474	0.091657	0.096262
	H118	H	0.612115	0.904066	0.085193
	H119	H	0.379358	0.909919	0.909913
	C120	C	0.376129	0.008622	0.619774
	C121	C	0.619018	0.990903	0.622341
	C122	C	0.617292	0.008719	0.378802
	C123	C	0.373717	0.990607	0.376517
	C124	C	0.617347	0.378890	0.008494
	C125	C	0.618375	0.622439	0.990641
	C126	C	0.374352	0.621511	0.008378
	C127	C	0.373294	0.378470	0.990547
	C128	C	0.004176	0.620128	0.379661
	C129	C	0.987262	0.620656	0.622775
	C130	C	0.003916	0.376586	0.623726
	C131	C	0.987413	0.376839	0.379340
	C132	C	0.874840	0.507776	0.121238
	C133	C	0.118705	0.490198	0.123681
	C134	C	0.115359	0.508065	0.880430
	C135	C	0.872549	0.489803	0.877778
	C136	C	0.118967	0.877178	0.508863
	C137	C	0.118002	0.120430	0.491106
	C138	C	0.874520	0.120415	0.509632
	C139	C	0.874289	0.877777	0.491202
	C140	C	0.505082	0.123222	0.877195
	C141	C	0.486664	0.122417	0.121465
	C142	C	0.504180	0.879015	0.120780
	C143	C	0.486503	0.878950	0.877267
	C144	C	0.377817	0.884860	0.676253
	C145	C	0.617048	0.115244	0.676562
	C146	C	0.615564	0.884777	0.323137
	C147	C	0.375742	0.115173	0.321287
	C148	C	0.670683	0.381160	0.884736
	C149	C	0.675405	0.620924	0.113962
	C150	C	0.315716	0.620907	0.885719
	C151	C	0.319431	0.378776	0.114138
	C152	C	0.880630	0.676091	0.380390
	C153	C	0.110879	0.676626	0.622804
	C154	C	0.880734	0.321277	0.619020
	C155	C	0.111131	0.321839	0.383602
	C156	C	0.880037	0.379149	0.676333
	C157	C	0.110777	0.618204	0.679746
	C158	C	0.881443	0.620017	0.321421
	C159	C	0.110653	0.378319	0.325180
	C160	C	0.374950	0.676428	0.884557
	C161	C	0.617097	0.677943	0.114275
	C162	C	0.612522	0.324687	0.884445
	C163	C	0.377060	0.322415	0.113982
	C164	C	0.672150	0.884199	0.380927
	C165	C	0.674506	0.114732	0.619608
	C166	C	0.320909	0.884347	0.618521
	C167	C	0.318159	0.114601	0.378078
	C168	C	0.877156	0.383283	0.176545
	C169	C	0.117133	0.614231	0.179178
	C170	C	0.112598	0.383233	0.826262
	C171	C	0.875262	0.614327	0.822566
	C172	C	0.172052	0.879338	0.384728
	C173	C	0.175676	0.118739	0.614398
	C174	C	0.818189	0.119130	0.385756
	C175	C	0.819440	0.878038	0.614397
	C176	C	0.380615	0.176861	0.879475
	C177	C	0.610579	0.176944	0.119481
	C178	C	0.380765	0.823013	0.117027
	C179	C	0.610249	0.823616	0.880762
	C180	C	0.380811	0.880169	0.174879
	C181	C	0.610477	0.120443	0.177918
	C182	C	0.381892	0.121557	0.819675
	C183	C	0.610730	0.881887	0.824856
	C184	C	0.876083	0.175737	0.385787
	C185	C	0.116627	0.174135	0.615476
	C186	C	0.114364	0.821956	0.385253
	C187	C	0.877504	0.822122	0.614969
	C188	C	0.170717	0.383932	0.882575
	C189	C	0.174613	0.614132	0.121692
	C190	C	0.819513	0.383556	0.119072
	C191	C	0.818716	0.614636	0.879695
	C192	C	0.398814	0.095188	0.596689
	C193	C	0.596269	0.904173	0.600480
	C194	C	0.594950	0.095000	0.400893
	C195	C	0.396239	0.904097	0.398902
	C196	C	0.596536	0.400961	0.094910
	C197	C	0.595173	0.599604	0.904320
	C198	C	0.398289	0.598610	0.094268
	C199	C	0.394110	0.401512	0.904199
	C200	C	0.090102	0.597699	0.403108
	C201	C	0.901503	0.597893	0.599015
	C202	C	0.090423	0.399113	0.603299
	C203	C	0.901371	0.399469	0.400839
	C204	C	0.897529	0.594124	0.098381
	C205	C	0.095957	0.403702	0.101331
	C206	C	0.093283	0.594629	0.902309
	C207	C	0.893894	0.402737	0.899979
	C208	C	0.098165	0.900008	0.594962
	C209	C	0.094962	0.098507	0.404544
	C210	C	0.897222	0.097837	0.596086
	C211	C	0.895621	0.900450	0.404916
	C212	C	0.591292	0.101258	0.900264
	C213	C	0.400636	0.099908	0.098057
	C214	C	0.590220	0.902069	0.099535
	C215	C	0.400328	0.900950	0.898351
	Zn216	Zn	0.497206	0.000232	0.749275
	Zn217	Zn	0.496045	0.000352	0.249870
	Zn218	Zn	0.746272	0.499731	-0.000438
	Zn219	Zn	0.245608	0.499554	0.000566
	Zn220	Zn	-0.004096	0.749453	0.500863
	Zn221	Zn	-0.003633	0.248133	0.501163
	Zn222	Zn	-0.005168	0.499074	0.751809
	Zn223	Zn	-0.003869	0.498606	0.250739
	Zn224	Zn	0.496027	0.750578	-0.000949
	Zn225	Zn	0.495103	0.251286	-0.000422
	Zn226	Zn	0.746267	-0.001223	0.500337
	Zn227	Zn	0.246970	-0.000764	0.499030
	N228	N	0.411472	0.963110	0.676978
	N229	N	0.583245	0.037066	0.678160
	N230	N	0.582133	0.963027	0.321560
	N231	N	0.409693	0.037032	0.320162
	N232	N	0.673802	0.414192	0.962948
	N233	N	0.676334	0.587403	0.036070
	N234	N	0.315317	0.587168	0.963787
	N235	N	0.316950	0.412942	0.036326
	N236	N	0.958003	0.676375	0.416039
	N237	N	0.033046	0.678345	0.588063
	N238	N	0.958726	0.319605	0.587029
	N239	N	0.033337	0.320655	0.416455
	N240	N	0.957736	0.413162	0.679301
	N241	N	0.032937	0.584310	0.680173
	N242	N	0.959218	0.586111	0.320833
	N243	N	0.032857	0.412100	0.322598
	N244	N	0.410828	0.677061	0.961809
	N245	N	0.582051	0.678762	0.036543
	N246	N	0.580196	0.322949	0.962503
	N247	N	0.410105	0.322303	0.036273
	N248	N	0.673326	0.962185	0.414991
	N249	N	0.675745	0.036335	0.586556
	N250	N	0.319956	0.962339	0.583902
	N251	N	0.316625	0.036313	0.411658
	N252	N	0.910804	0.461577	0.178001
	N253	N	0.083174	0.536048	0.180555
	N254	N	0.078912	0.461513	0.824789
	N255	N	0.908023	0.535594	0.820964
	N256	N	0.175037	0.912832	0.462785
	N257	N	0.176658	0.085815	0.536154
	N258	N	0.816972	0.085521	0.463837
	N259	N	0.817230	0.911854	0.536382
	N260	N	0.458064	0.178290	0.914463
	N261	N	0.532650	0.178243	0.084941
	N262	N	0.458619	0.822175	0.084141
	N263	N	0.532150	0.821850	0.912847
	N264	N	0.458645	0.914138	0.177587
	N265	N	0.532320	0.087433	0.179488
	N266	N	0.460232	0.088881	0.817996
	N267	N	0.532928	0.915480	0.822385
	N268	N	0.910197	0.176863	0.463825
	N269	N	0.081277	0.175115	0.537883
	N270	N	0.082245	0.820330	0.463351
	N271	N	0.911084	0.822014	0.537480
	N272	N	0.172664	0.462521	0.915298
	N273	N	0.175722	0.536140	0.088027
	N274	N	0.818050	0.461943	0.085226
	N275	N	0.817160	0.536349	0.913575
	O276	O	-0.033873	-0.074964	-0.019665
	H277	H	-0.037759	-0.078863	-0.024500
	H278	H	-0.034442	-0.075508	-0.015765
	O279	O	0.496320	0.549571	0.550729
	H280	H	0.499255	0.542106	0.555659
	H281	H	0.499807	0.555115	0.559394
	O282	O	0.328556	0.466849	0.467676
	H283	H	0.314972	0.467884	0.449425
	H284	H	0.319300	0.486015	0.470850
	O285	O	0.051541	1.057375	0.970022
	H286	H	0.049944	1.063984	0.972784
	H287	H	0.052529	1.049218	0.967592
	O288	O	0.478015	0.428730	0.573932
	H289	H	0.468978	0.438108	0.572067
	H290	H	0.475435	0.421096	0.572866
	O291	O	0.974976	1.071868	0.997609
	H292	H	0.981897	1.074150	1.000145
	H293	H	0.964236	1.080943	1.013437
	O294	O	0.902563	0.934613	0.982571
	H295	H	0.897452	0.934712	0.993948
	H296	H	0.903087	0.935786	0.981956
	O297	O	1.035613	0.006747	0.908668
	H298	H	1.036712	0.013357	0.912509
	H299	H	1.046105	0.004948	0.907983
	O300	O	0.491082	0.494652	0.393880
	H301	H	0.495649	0.510829	0.399344
	H302	H	0.480048	0.499149	0.371141
	O303	O	1.022814	0.066643	0.044256
	H304	H	1.016901	0.060895	0.039090
	H305	H	1.021324	0.063727	0.037907
	O306	O	0.051321	1.005443	1.003999
	H307	H	0.057805	1.021550	1.008091
	H308	H	0.057367	1.006314	1.007185
	O309	O	0.488194	0.372720	0.486940
	H310	H	0.493441	0.373259	0.486759
	H311	H	0.483372	0.367449	0.477892
	O312	O	1.485865	0.475175	0.563378
	H313	H	1.484096	0.470708	0.564940
	H314	H	1.484395	0.485444	0.576561
	O315	O	0.451697	0.604484	0.405977
	H316	H	0.457947	0.614383	0.408394
	H317	H	0.454763	0.597876	0.401952
	O318	O	0.586623	0.455015	0.591005
	H319	H	0.588403	0.446824	0.590442
	H320	H	0.605752	0.455323	0.580041
	O321	O	0.983805	1.070335	1.065070
	H322	H	0.988391	1.081407	1.062198
	H323	H	0.986321	1.065464	1.064688
	O324	O	0.611592	0.452634	0.504286
	H325	H	0.601802	0.462796	0.508580
	H326	H	0.612045	0.450400	0.502845
	O327	O	0.451814	0.531825	0.511616
	H328	H	0.440781	0.532593	0.513522
	H329	H	0.452523	0.528842	0.506327
	O330	O	0.937115	-0.046543	0.985775
	H331	H	0.935568	-0.044694	0.989938
	H332	H	0.928869	-0.049760	0.996258
	O333	O	0.997006	0.948378	0.006898
	H334	H	0.997896	0.947718	-0.007557
	H335	H	1.004550	0.943383	0.001642
	O336	O	0.585949	0.650561	0.495824
	H337	H	0.602222	0.663794	0.509634
	H338	H	0.592253	0.627224	0.498154
	O339	O	0.537291	0.535201	0.571928
	H340	H	0.533096	0.524228	0.575162
	H341	H	0.530434	0.529256	0.580532
	O342	O	-0.004882	0.895251	-0.035567
	H343	H	-0.005188	0.900508	-0.050903
	H344	H	-0.009565	0.893298	-0.043164
	O345	O	0.013066	-0.036648	0.054376
	H346	H	0.018723	-0.028387	0.059897
	H347	H	0.008280	-0.042788	0.057129
	O348	O	0.588040	0.483159	0.451315
	H349	H	0.596410	0.471875	0.441666
	H350	H	0.572626	0.472566	0.453853
	O351	O	0.426550	0.391206	0.409734
	H352	H	0.426638	0.396664	0.383841
	H353	H	0.436348	0.392855	0.395755
	O354	O	0.445274	0.473110	0.455328
	H355	H	0.447467	0.479455	0.450045
	H356	H	0.451203	0.474752	0.471617
	O357	O	0.460556	0.567924	0.370895
	H358	H	0.447332	0.570222	0.377831
	H359	H	0.474939	0.577775	0.382232
	O360	O	-0.071876	0.002784	-0.003592
	H361	H	-0.078631	0.006498	-0.005965
	H362	H	-0.062107	-0.007015	-0.016771
	O363	O	0.502576	0.494013	0.573317
	H364	H	0.512937	0.484960	0.570108
	H365	H	0.487764	0.494338	0.557834
	O366	O	-0.074627	-0.026351	1.043010
	H367	H	-0.077181	-0.025569	1.049520
	H368	H	-0.082232	-0.024055	1.033757
	O369	O	0.388288	0.595108	0.483144
	H370	H	0.385907	0.601521	0.490876
	H371	H	0.397788	0.592627	0.495037
