data_Molecule from HDF5

_cell_length_a		16.597876
_cell_length_b		16.715473
_cell_length_c		16.550292
_cell_angle_alpha	89.716696
_cell_angle_beta	90.075084
_cell_angle_gamma	89.951352
_symmetry_space_group_name_H-M	'P 1'
_symmetry_Int_Tables_number		1

loop_
	_symmetry_equiv_pos_as_xyz
	x,y,z

loop_
	_atom_site_label
	_atom_site_type_symbol
	_atom_site_fract_x
	_atom_site_fract_y
	_atom_site_fract_z
	H0	H	0.392784	0.850444	0.723887
	H1	H	0.609800	0.155962	0.719210
	H2	H	0.609193	0.848345	0.274082
	H3	H	0.395757	0.156180	0.272686
	H4	H	0.725601	0.396169	0.842050
	H5	H	0.726510	0.609931	0.150429
	H6	H	0.279653	0.607773	0.840493
	H7	H	0.277359	0.390454	0.149153
	H8	H	0.848900	0.726942	0.387836
	H9	H	0.158076	0.723152	0.603944
	H10	H	0.846716	0.280261	0.604560
	H11	H	0.155703	0.277910	0.390520
	H12	H	0.846962	0.396937	0.719817
	H13	H	0.160862	0.601341	0.714276
	H14	H	0.849535	0.611952	0.271750
	H15	H	0.156815	0.395068	0.274386
	H16	H	0.392888	0.726873	0.842173
	H17	H	0.609545	0.725094	0.150844
	H18	H	0.611627	0.278678	0.842507
	H19	H	0.393288	0.274971	0.149642
	H20	H	0.726131	0.847698	0.390441
	H21	H	0.726885	0.154901	0.603889
	H22	H	0.276385	0.850216	0.607940
	H23	H	0.278155	0.155288	0.387878
	H24	H	0.895943	0.348752	0.221748
	H25	H	0.112742	0.654376	0.221220
	H26	H	0.110737	0.347401	0.773115
	H27	H	0.897888	0.657025	0.775316
	H28	H	0.224187	0.896049	0.341898
	H29	H	0.222624	0.104212	0.652949
	H30	H	0.783347	0.105491	0.339800
	H31	H	0.782077	0.897588	0.653872
	H32	H	0.348666	0.225519	0.888486
	H33	H	0.656216	0.223794	0.102840
	H34	H	0.346944	0.779855	0.102600
	H35	H	0.654791	0.776701	0.887541
	H36	H	0.347025	0.895652	0.219011
	H37	H	0.657909	0.104011	0.216278
	H38	H	0.348177	0.108156	0.773210
	H39	H	0.656994	0.896588	0.774711
	H40	H	0.896367	0.224095	0.341432
	H41	H	0.106595	0.220480	0.653944
	H42	H	0.110859	0.778202	0.343855
	H43	H	0.896834	0.780404	0.653787
	H44	H	0.229114	0.348761	0.886891
	H45	H	0.228263	0.654372	0.104377
	H46	H	0.778461	0.348691	0.106193
	H47	H	0.778966	0.655863	0.888447
	H48	H	0.415650	0.111505	0.582244
	H49	H	0.593333	0.890218	0.585032
	H50	H	0.594116	0.112218	0.410797
	H51	H	0.416946	0.892657	0.407324
	H52	H	0.592420	0.409951	0.110027
	H53	H	0.586860	0.588005	0.886618
	H54	H	0.417758	0.590488	0.107202
	H55	H	0.416964	0.412298	0.884924
	H56	H	0.109976	0.585152	0.413354
	H57	H	0.890860	0.592109	0.584706
	H58	H	0.112935	0.410093	0.581333
	H59	H	0.890656	0.411880	0.411238
	H60	H	0.113711	0.415114	0.588432
	H61	H	0.891349	0.590351	0.585480
	H62	H	0.115043	0.589324	0.406102
	H63	H	0.893257	0.416418	0.413129
	H64	H	0.412319	0.589375	0.107932
	H65	H	0.587963	0.592243	0.884552
	H66	H	0.590374	0.415097	0.107773
	H67	H	0.415342	0.416692	0.885255
	H68	H	0.596148	0.115304	0.404152
	H69	H	0.590125	0.891807	0.587876
	H70	H	0.414343	0.112139	0.582033
	H71	H	0.412843	0.892159	0.412289
	H72	H	0.915306	0.610237	0.079545
	H73	H	0.092157	0.389772	0.088069
	H74	H	0.086728	0.611332	0.904221
	H75	H	0.912513	0.390216	0.906456
	H76	H	0.087922	0.912491	0.608065
	H77	H	0.086536	0.093911	0.384657
	H78	H	0.918324	0.081625	0.604379
	H79	H	0.914855	0.910277	0.384071
	H80	H	0.612391	0.086497	0.911747
	H81	H	0.390205	0.089212	0.084226
	H82	H	0.613652	0.914303	0.086709
	H83	H	0.389025	0.915758	0.903365
	H84	H	0.614962	0.910067	0.083722
	H85	H	0.390391	0.090840	0.082982
	H86	H	0.616201	0.090451	0.903278
	H87	H	0.390693	0.907982	0.913794
	H88	H	0.920458	0.100111	0.610684
	H89	H	0.091551	0.091382	0.383908
	H90	H	0.090849	0.913015	0.609819
	H91	H	0.911768	0.915138	0.385454
	H92	H	0.089948	0.609263	0.912599
	H93	H	0.084771	0.393982	0.084386
	H94	H	0.910810	0.613590	0.083599
	H95	H	0.916758	0.392854	0.910062
	H96	H	0.414443	0.111173	0.583406
	H97	H	0.590377	0.892626	0.583886
	H98	H	0.589242	0.112424	0.405249
	H99	H	0.411109	0.889367	0.406114
	H100	H	0.586587	0.410286	0.107589
	H101	H	0.591991	0.589493	0.885715
	H102	H	0.415834	0.585697	0.105414
	H103	H	0.420090	0.415822	0.886669
	H104	H	0.113591	0.594164	0.414381
	H105	H	0.890509	0.591634	0.586763
	H106	H	0.116655	0.406911	0.588347
	H107	H	0.891501	0.416169	0.407540
	H108	H	0.917725	0.611784	0.085592
	H109	H	0.092432	0.393195	0.079536
	H110	H	0.095674	0.613216	0.905994
	H111	H	0.910890	0.391404	0.912081
	H112	H	0.089788	0.915573	0.607851
	H113	H	0.087202	0.088729	0.386820
	H114	H	0.903018	0.090854	0.613439
	H115	H	0.917495	0.914811	0.386982
	H116	H	0.615368	0.095406	0.911147
	H117	H	0.391509	0.089015	0.082174
	H118	H	0.611413	0.913660	0.081619
	H119	H	0.394865	0.920459	0.914005
	C120	C	0.381206	0.010661	0.617709
	C121	C	0.624312	0.993510	0.618058
	C122	C	0.625039	0.010721	0.374804
	C123	C	0.380753	0.993531	0.375223
	C124	C	0.623618	0.379894	0.005539
	C125	C	0.622265	0.622696	0.987902
	C126	C	0.381362	0.622198	0.004430
	C127	C	0.382794	0.380498	0.987570
	C128	C	0.011358	0.623569	0.376361
	C129	C	0.994306	0.622417	0.617686
	C130	C	0.011342	0.379212	0.619521
	C131	C	0.993722	0.381447	0.376985
	C132	C	0.880974	0.510521	0.117930
	C133	C	0.124385	0.493255	0.117773
	C134	C	0.124098	0.509519	0.874682
	C135	C	0.880723	0.493572	0.875420
	C136	C	0.123257	0.880662	0.506157
	C137	C	0.121945	0.122947	0.488272
	C138	C	0.881106	0.123304	0.506133
	C139	C	0.881926	0.880915	0.488869
	C140	C	0.511798	0.123379	0.875213
	C141	C	0.493510	0.122023	0.116430
	C142	C	0.510739	0.880090	0.117536
	C143	C	0.493402	0.881065	0.876117
	C144	C	0.376032	0.896227	0.681918
	C145	C	0.627513	0.109496	0.678751
	C146	C	0.627160	0.894517	0.314719
	C147	C	0.377634	0.109478	0.313410
	C148	C	0.685371	0.377640	0.888978
	C149	C	0.684521	0.626682	0.104419
	C150	C	0.319831	0.626083	0.887346
	C151	C	0.319444	0.374582	0.103290
	C152	C	0.895769	0.686267	0.370611
	C153	C	0.111822	0.681940	0.620723
	C154	C	0.893525	0.320277	0.622302
	C155	C	0.109789	0.319329	0.373100
	C156	C	0.893832	0.378088	0.679729
	C157	C	0.113157	0.621560	0.675806
	C158	C	0.895801	0.628755	0.313022
	C159	C	0.110308	0.377654	0.315572
	C160	C	0.376212	0.684981	0.888215
	C161	C	0.626771	0.684267	0.104378
	C162	C	0.628547	0.319297	0.888984
	C163	C	0.377039	0.316918	0.103475
	C164	C	0.685429	0.894173	0.372382
	C165	C	0.686000	0.109003	0.621634
	C166	C	0.318263	0.895900	0.623981
	C167	C	0.319146	0.109340	0.370737
	C168	C	0.877609	0.395134	0.181003
	C169	C	0.129564	0.608296	0.179948
	C170	C	0.127993	0.393823	0.813778
	C171	C	0.878886	0.610023	0.814784
	C172	C	0.184249	0.877869	0.389159
	C173	C	0.182755	0.123900	0.605922
	C174	C	0.822408	0.124617	0.387517
	C175	C	0.821643	0.878787	0.606607
	C176	C	0.395012	0.184619	0.870926
	C177	C	0.610215	0.182697	0.120399
	C178	C	0.393683	0.819544	0.121182
	C179	C	0.609168	0.818487	0.871013
	C180	C	0.393902	0.877242	0.178781
	C181	C	0.610895	0.123621	0.176829
	C182	C	0.394777	0.126473	0.813812
	C183	C	0.610461	0.878074	0.815092
	C184	C	0.878662	0.183476	0.388187
	C185	C	0.124921	0.181447	0.606387
	C186	C	0.127563	0.819379	0.389832
	C187	C	0.878637	0.820478	0.606614
	C188	C	0.187118	0.394469	0.870225
	C189	C	0.187261	0.608196	0.121881
	C190	C	0.819162	0.395117	0.123441
	C191	C	0.819672	0.609441	0.871226
	C192	C	0.407480	0.090591	0.590240
	C193	C	0.598650	0.912621	0.592722
	C194	C	0.600376	0.092176	0.399709
	C195	C	0.406321	0.912410	0.401400
	C196	C	0.597219	0.404733	0.087179
	C197	C	0.596269	0.597062	0.906691
	C198	C	0.407856	0.595946	0.085866
	C199	C	0.409769	0.407334	0.906589
	C200	C	0.092037	0.597048	0.403541
	C201	C	0.912218	0.598349	0.592632
	C202	C	0.093184	0.403653	0.593501
	C203	C	0.912810	0.407360	0.403180
	C204	C	0.907170	0.590970	0.090592
	C205	C	0.097390	0.413246	0.091482
	C206	C	0.098061	0.590260	0.900455
	C207	C	0.906213	0.412468	0.901890
	C208	C	0.097058	0.906327	0.587518
	C209	C	0.096038	0.098306	0.406408
	C210	C	0.906561	0.098074	0.588210
	C211	C	0.907498	0.906039	0.406872
	C212	C	0.593469	0.097923	0.901383
	C213	C	0.411898	0.097021	0.090572
	C214	C	0.592104	0.905422	0.091367
	C215	C	0.412555	0.907225	0.902673
	Zn216	Zn	0.502781	0.002369	0.747286
	Zn217	Zn	0.502197	0.001449	0.245873
	Zn218	Zn	0.751361	0.502309	-0.003269
	Zn219	Zn	0.253395	0.501098	-0.004167
	Zn220	Zn	0.002440	0.752233	0.497645
	Zn221	Zn	0.001514	0.251593	0.497660
	Zn222	Zn	0.002711	0.501261	0.746636
	Zn223	Zn	0.002881	0.502524	0.247176
	Zn224	Zn	0.501450	0.751639	-0.003347
	Zn225	Zn	0.502745	0.251431	-0.004347
	Zn226	Zn	0.753510	0.001606	0.496842
	Zn227	Zn	0.251448	0.002136	0.496524
	N228	N	0.414834	0.968548	0.678080
	N229	N	0.589909	0.036496	0.676812
	N230	N	0.590219	0.968039	0.315920
	N231	N	0.415194	0.036253	0.316035
	N232	N	0.682587	0.414562	0.962694
	N233	N	0.681722	0.588924	0.031120
	N234	N	0.322850	0.587657	0.960821
	N235	N	0.323093	0.413751	0.030259
	N236	N	0.968707	0.683158	0.409527
	N237	N	0.036818	0.682822	0.585548
	N238	N	0.967710	0.320796	0.585653
	N239	N	0.036263	0.321693	0.410626
	N240	N	0.968151	0.414006	0.678163
	N241	N	0.038941	0.585284	0.674239
	N242	N	0.968829	0.590285	0.316376
	N243	N	0.037085	0.415715	0.317751
	N244	N	0.413587	0.682723	0.962019
	N245	N	0.588684	0.682030	0.030859
	N246	N	0.590755	0.320596	0.962697
	N247	N	0.415958	0.320688	0.030376
	N248	N	0.684398	0.967602	0.408962
	N249	N	0.684167	0.035862	0.584581
	N250	N	0.321201	0.968063	0.584605
	N251	N	0.320686	0.036017	0.408252
	N252	N	0.915311	0.468133	0.177763
	N253	N	0.091377	0.535669	0.177848
	N254	N	0.089535	0.466318	0.816609
	N255	N	0.915990	0.536582	0.816967
	N256	N	0.181929	0.915188	0.462730
	N257	N	0.181156	0.088100	0.531333
	N258	N	0.823409	0.088171	0.462092
	N259	N	0.823297	0.915559	0.532209
	N260	N	0.468986	0.182913	0.908140
	N261	N	0.536021	0.181908	0.083690
	N262	N	0.467438	0.821079	0.083861
	N263	N	0.535361	0.820289	0.908175
	N264	N	0.467673	0.914143	0.176714
	N265	N	0.537240	0.086670	0.174551
	N266	N	0.468494	0.089282	0.816275
	N267	N	0.537319	0.916074	0.817779
	N268	N	0.914225	0.182975	0.463177
	N269	N	0.088183	0.181105	0.532102
	N270	N	0.090401	0.820983	0.463724
	N271	N	0.915047	0.821369	0.532224
	N272	N	0.184968	0.467573	0.907622
	N273	N	0.184606	0.535343	0.084013
	N274	N	0.821102	0.467967	0.084872
	N275	N	0.820565	0.535732	0.908197
	O276	O	0.031546	1.223790	0.213881
	H277	H	0.054394	1.219324	0.213428
	H278	H	0.041270	1.244471	0.231078
	O279	O	0.607732	0.378109	0.350736
	H280	H	0.612860	0.368832	0.370726
	H281	H	0.599819	0.364811	0.346535
	O282	O	0.990257	-0.218022	1.216145
	H283	H	0.961090	-0.223151	1.220892
	H284	H	0.967818	-0.234169	1.222826
	O285	O	0.542381	0.467078	0.722145
	H286	H	0.547866	0.459757	0.714219
	H287	H	0.550971	0.453381	0.715572
	O288	O	0.566498	0.561605	0.335846
	H289	H	0.585570	0.564683	0.340388
	H290	H	0.576290	0.557657	0.330552
	O291	O	0.347989	0.437205	0.663397
	H292	H	0.362772	0.446676	0.678688
	H293	H	0.347528	0.438016	0.666764
	O294	O	1.072936	-0.229716	1.035179
	H295	H	1.070409	-0.236591	1.018482
	H296	H	1.067955	-0.227899	1.043275
	O297	O	0.264762	0.737602	0.264757
	H298	H	0.278561	0.729106	0.301232
	H299	H	0.270370	0.706964	0.265424
	O300	O	0.191391	0.187336	0.812781
	H301	H	0.178832	0.176832	0.839821
	H302	H	0.178395	0.160800	0.825923
	O303	O	0.484974	0.720974	0.281092
	H304	H	0.476756	0.719405	0.268904
	H305	H	0.483190	0.738310	0.287905
	O306	O	0.478851	0.478737	0.260550
	H307	H	0.484462	0.491208	0.249110
	H308	H	0.492625	0.488159	0.269177
	O309	O	0.432227	0.609456	0.442752
	H310	H	0.441683	0.608829	0.450038
	H311	H	0.421709	0.588708	0.436692
	O312	O	0.559558	0.736996	0.434729
	H313	H	0.548226	0.746609	0.444521
	H314	H	0.568399	0.717086	0.439608
	O315	O	1.041098	0.949552	0.783601
	H316	H	1.053341	0.948651	0.795654
	H317	H	1.034170	0.957641	0.791006
	O318	O	0.724439	0.289610	0.478115
	H319	H	0.727510	0.284119	0.469012
	H320	H	0.734743	0.277371	0.490965
	O321	O	0.300793	0.704255	0.696616
	H322	H	0.317448	0.686647	0.687259
	H323	H	0.323816	0.710917	0.683033
	O324	O	1.136605	1.038073	-0.036092
	H325	H	1.142463	1.032808	-0.020871
	H326	H	1.126623	1.035622	-0.039261
	O327	O	0.055416	0.084433	0.778248
	H328	H	0.037881	0.074857	0.777453
	H329	H	0.055161	0.089077	0.790077
	O330	O	0.659219	0.336947	0.691900
	H331	H	0.671331	0.312162	0.701633
	H332	H	0.654129	0.334447	0.684357
	O333	O	0.475812	0.281262	0.715983
	H334	H	0.480016	0.259412	0.735302
	H335	H	0.447850	0.282511	0.709645
	O336	O	0.465498	0.263292	0.453928
	H337	H	0.465652	0.271121	0.461641
	H338	H	0.459814	0.255441	0.467888
	O339	O	1.193377	-0.139043	0.804792
	H340	H	1.211092	-0.138888	0.788754
	H341	H	1.191907	-0.135847	0.814884
	O342	O	-0.222567	-0.010939	-0.096396
	H343	H	-0.235214	-0.017133	-0.113947
	H344	H	-0.210340	-0.015317	-0.084004
	O345	O	0.054881	1.241743	0.931637
	H346	H	0.054868	1.239989	0.954336
	H347	H	0.058941	1.246772	0.937052
	O348	O	-0.055526	0.016464	0.190959
	H349	H	-0.043764	0.037049	0.186877
	H350	H	-0.046673	0.001156	0.186330
	O351	O	0.561247	0.588546	0.612631
	H352	H	0.563663	0.585182	0.605575
	H353	H	0.584915	0.590009	0.611378
	O354	O	-0.012024	0.076171	0.968603
	H355	H	0.004765	0.071277	0.958445
	H356	H	-0.012280	0.094007	0.980497
	O357	O	0.516099	0.709746	0.703072
	H358	H	0.534961	0.711696	0.712347
	H359	H	0.545233	0.720125	0.711571
	O360	O	0.288690	0.285948	0.704812
	H361	H	0.275520	0.264054	0.735788
	H362	H	0.281569	0.317197	0.719562
	O363	O	-0.182572	0.047834	-0.064553
	H364	H	-0.167187	0.043802	-0.078246
	H365	H	-0.178336	0.036750	-0.074853
	O366	O	0.691659	0.493614	0.578017
	H367	H	0.689574	0.492520	0.601350
	H368	H	0.700743	0.511519	0.573351
	O369	O	0.807859	0.193055	0.188093
	H370	H	0.798765	0.203009	0.197813
	H371	H	0.818988	0.178899	0.175844
	O372	O	0.791586	0.790918	0.202548
	H373	H	0.788787	0.824118	0.189955
	H374	H	0.770904	0.790244	0.227933
	O375	O	0.906216	0.043019	0.017949
	H376	H	0.900748	0.045506	0.020228
	H377	H	0.906922	0.054281	0.021513
	O378	O	0.723621	0.727092	0.528401
	H379	H	0.754541	0.744484	0.522421
	H380	H	0.720404	0.717752	0.517801
	O381	O	0.039193	0.777925	0.776229
	H382	H	0.062950	0.783673	0.770472
	H383	H	0.051679	0.763534	0.754937
	O384	O	0.817663	-0.180518	0.822530
	H385	H	0.826676	-0.166988	0.830944
	H386	H	0.821354	-0.182227	0.850312
	O387	O	0.792405	1.001256	-0.016574
	H388	H	0.786241	1.014706	-0.031277
	H389	H	0.795085	0.985379	-0.005860
	O390	O	0.708123	0.291824	0.290609
	H391	H	0.677477	0.294043	0.302508
	H392	H	0.704778	0.282993	0.288037
	O393	O	0.378113	0.518837	0.722108
	H394	H	0.390052	0.523763	0.722871
	H395	H	0.396664	0.531716	0.721290
	O396	O	-0.051976	1.235453	1.058911
	H397	H	-0.049985	1.230610	1.079246
	H398	H	-0.058266	1.234925	1.059323
	O399	O	0.217829	-0.060432	1.058341
	H400	H	0.219520	-0.074035	1.079744
	H401	H	0.220881	-0.077171	1.072249
	O402	O	0.504401	0.338549	0.277089
	H403	H	0.498270	0.326816	0.270927
	H404	H	0.496667	0.352304	0.272684
	O405	O	1.151958	0.078808	1.143261
	H406	H	1.156472	0.068376	1.143457
	H407	H	1.152837	0.086037	1.147523
	O408	O	0.212897	0.221669	0.016543
	H409	H	0.221717	0.216953	0.033358
	H410	H	0.223846	0.231170	0.032874
	O411	O	0.703547	0.705406	0.696900
	H412	H	0.717975	0.717939	0.709902
	H413	H	0.714564	0.693660	0.664506
	O414	O	0.603294	0.302353	0.546343
	H415	H	0.598730	0.290969	0.562192
	H416	H	0.606258	0.315685	0.559509
	O417	O	0.294162	0.543061	0.538537
	H418	H	0.309297	0.545208	0.536396
	H419	H	0.287981	0.547653	0.552492
	O420	O	0.457009	0.578903	0.448581
	H421	H	0.473418	0.579381	0.444063
	H422	H	0.455982	0.560697	0.443394
	O423	O	-0.208808	0.220027	0.976951
	H424	H	-0.223854	0.228969	0.971641
	H425	H	-0.205520	0.218560	0.974515
	O426	O	0.435580	0.438213	0.431088
	H427	H	0.430714	0.440707	0.425069
	H428	H	0.437735	0.433694	0.428098
	O429	O	0.932063	0.846903	1.009584
	H430	H	0.935343	0.857292	1.006994
	H431	H	0.934583	0.838491	1.014542
	O432	O	0.437352	0.538807	0.505711
	H433	H	0.439814	0.531534	0.515183
	H434	H	0.443709	0.544912	0.508333
	O435	O	0.220001	0.779167	-0.082453
	H436	H	0.217713	0.765746	-0.083625
	H437	H	0.231713	0.760330	-0.094977
	O438	O	0.153168	-0.001025	0.210011
	H439	H	0.152716	-0.007012	0.216728
	H440	H	0.156032	-0.031643	0.222736
	O441	O	0.209995	0.216809	0.205020
	H442	H	0.225634	0.236648	0.218667
	H443	H	0.221563	0.191713	0.213830
	O444	O	0.281045	0.274124	0.526537
	H445	H	0.287527	0.284282	0.567373
	H446	H	0.246739	0.240642	0.532367
	O447	O	-0.035496	1.209570	0.787921
	H448	H	-0.026722	1.219546	0.781609
	H449	H	-0.016077	1.222489	0.797436
	O450	O	0.160485	0.850557	1.187093
	H451	H	0.158723	0.834566	1.176999
	H452	H	0.155314	0.824475	1.202618
	O453	O	0.522590	0.399819	0.512398
	H454	H	0.527528	0.397408	0.504990
	H455	H	0.518155	0.386721	0.516863
	O456	O	-0.210329	-0.041636	1.209866
	H457	H	-0.202326	-0.020339	1.203598
	H458	H	-0.214949	-0.027660	1.222754
	O459	O	0.694020	0.695925	0.307881
	H460	H	0.672620	0.688363	0.332452
	H461	H	0.694340	0.685624	0.300649
	O462	O	0.725353	0.489675	0.289343
	H463	H	0.753475	0.476625	0.266583
	H464	H	0.712850	0.451977	0.297187
	O465	O	0.787084	-0.215723	0.015625
	H466	H	0.798734	-0.228427	0.024159
	H467	H	0.776109	-0.220907	0.027608
	O468	O	0.282771	0.521786	0.275505
	H469	H	0.282200	0.506294	0.285782
	H470	H	0.262172	0.520633	0.256901
	O471	O	0.443060	0.744629	0.550789
	H472	H	0.452558	0.736071	0.552791
	H473	H	0.439735	0.751851	0.563853
	O474	O	0.281733	0.728311	0.473702
	H475	H	0.274471	0.728922	0.465678
	H476	H	0.271776	0.738540	0.474671
	O477	O	0.716254	0.493561	1.707353
	H478	H	0.712947	0.481429	1.727546
	H479	H	0.719279	0.511935	1.724126
	O480	O	0.314131	0.311417	0.307421
	H481	H	0.329653	0.327116	0.325608
	H482	H	0.329821	0.331217	0.324087
	O483	O	0.273885	0.432115	0.443635
	H484	H	0.276123	0.435749	0.468322
	H485	H	0.267603	0.422043	0.457431
	O486	O	0.796710	0.210813	0.793213
	H487	H	0.810420	0.183515	0.796613
	H488	H	0.822826	0.207527	0.810656
	O489	O	0.994323	0.948572	0.100784
	H490	H	1.001502	0.944408	0.101205
	H491	H	0.985760	0.949174	0.108509
	O492	O	0.173839	0.021009	-0.130938
	H493	H	0.170082	0.016686	-0.121471
	H494	H	0.180801	0.019263	-0.115960
	O495	O	0.103928	0.940016	0.955708
	H496	H	0.112420	0.925201	0.960038
	H497	H	0.114597	0.942053	0.963965
	O498	O	0.960509	0.838781	0.860964
	H499	H	0.960807	0.839614	0.851846
	H500	H	0.979041	0.826599	0.856254
	O501	O	0.731192	0.569991	0.448947
	H502	H	0.724503	0.562777	0.443831
	H503	H	0.744911	0.556869	0.431179
