data_Molecule from HDF5

_cell_length_a		16.277936
_cell_length_b		16.334784
_cell_length_c		16.068758
_cell_angle_alpha	89.825467
_cell_angle_beta	89.919794
_cell_angle_gamma	90.226796
_symmetry_space_group_name_H-M	'P 1'
_symmetry_Int_Tables_number		1

loop_
	_symmetry_equiv_pos_as_xyz
	x,y,z

loop_
	_atom_site_label
	_atom_site_type_symbol
	_atom_site_fract_x
	_atom_site_fract_y
	_atom_site_fract_z
	H0	H	0.406207	0.832667	0.717439
	H1	H	0.600056	0.160803	0.714353
	H2	H	0.601612	0.831883	0.289766
	H3	H	0.410261	0.159659	0.290372
	H4	H	0.715164	0.400904	0.835635
	H5	H	0.718380	0.594862	0.167302
	H6	H	0.292231	0.593633	0.836132
	H7	H	0.291673	0.398398	0.167627
	H8	H	0.841619	0.711855	0.400268
	H9	H	0.168289	0.710914	0.601567
	H10	H	0.841806	0.279490	0.603029
	H11	H	0.168735	0.280525	0.401442
	H12	H	0.840216	0.398608	0.715251
	H13	H	0.169485	0.591893	0.713482
	H14	H	0.840003	0.591137	0.289413
	H15	H	0.170296	0.401208	0.289144
	H16	H	0.405450	0.710364	0.836485
	H17	H	0.603445	0.709579	0.168158
	H18	H	0.604433	0.282194	0.837498
	H19	H	0.404374	0.281445	0.167071
	H20	H	0.720544	0.833165	0.403348
	H21	H	0.721689	0.158758	0.603075
	H22	H	0.287516	0.833144	0.604712
	H23	H	0.291240	0.158516	0.402410
	H24	H	0.907857	0.331679	0.215305
	H25	H	0.101834	0.660637	0.213467
	H26	H	0.099758	0.331563	0.790042
	H27	H	0.909337	0.659822	0.788596
	H28	H	0.218047	0.899020	0.337153
	H29	H	0.217960	0.093850	0.668836
	H30	H	0.793229	0.094235	0.336851
	H31	H	0.791285	0.897026	0.668575
	H32	H	0.340884	0.212002	0.901160
	H33	H	0.666621	0.212655	0.103046
	H34	H	0.342155	0.778003	0.104670
	H35	H	0.666875	0.780763	0.901101
	H36	H	0.340312	0.897218	0.217272
	H37	H	0.668571	0.092542	0.214122
	H38	H	0.339145	0.091817	0.790273
	H39	H	0.668393	0.900610	0.789528
	H40	H	0.908480	0.208401	0.336997
	H41	H	0.104059	0.209676	0.668458
	H42	H	0.105589	0.782133	0.337334
	H43	H	0.905615	0.780587	0.668613
	H44	H	0.219624	0.332815	0.901832
	H45	H	0.221832	0.658700	0.101825
	H46	H	0.787005	0.332717	0.103135
	H47	H	0.789893	0.658786	0.901352
	H48	H	0.406070	0.112800	0.592282
	H49	H	0.596608	0.881448	0.592213
	H50	H	0.603308	0.113392	0.406815
	H51	H	0.412438	0.878876	0.408627
	H52	H	0.594490	0.402533	0.121130
	H53	H	0.584725	0.592148	0.886426
	H54	H	0.414575	0.589434	0.120372
	H55	H	0.411957	0.404002	0.883728
	H56	H	0.118611	0.592604	0.419824
	H57	H	0.888247	0.586992	0.595329
	H58	H	0.118868	0.407431	0.588840
	H59	H	0.891773	0.407293	0.416192
	H60	H	0.123815	0.404512	0.603364
	H61	H	0.887276	0.591387	0.594687
	H62	H	0.120532	0.581197	0.403694
	H63	H	0.886862	0.403995	0.400071
	H64	H	0.410579	0.587741	0.120667
	H65	H	0.604331	0.600281	0.879810
	H66	H	0.598111	0.402085	0.121811
	H67	H	0.412850	0.401949	0.883007
	H68	H	0.597595	0.111373	0.407987
	H69	H	0.602394	0.878754	0.595445
	H70	H	0.409388	0.114217	0.600003
	H71	H	0.410793	0.879925	0.413492
	H72	H	0.913756	0.610858	0.092227
	H73	H	0.101616	0.379266	0.092591
	H74	H	0.100873	0.613771	0.904489
	H75	H	0.905336	0.375129	0.898740
	H76	H	0.097523	0.897888	0.622459
	H77	H	0.106303	0.088615	0.382010
	H78	H	0.910689	0.103175	0.626516
	H79	H	0.911034	0.904264	0.384378
	H80	H	0.622315	0.091689	0.907310
	H81	H	0.388496	0.093567	0.086695
	H82	H	0.623811	0.894859	0.095194
	H83	H	0.384920	0.892239	0.914113
	H84	H	0.618262	0.904944	0.088790
	H85	H	0.389378	0.080377	0.096394
	H86	H	0.620664	0.093518	0.912442
	H87	H	0.390541	0.908320	0.917159
	H88	H	0.900587	0.078829	0.622610
	H89	H	0.094311	0.082595	0.387545
	H90	H	0.099234	0.907388	0.620229
	H91	H	0.914819	0.904694	0.386164
	H92	H	0.096093	0.611415	0.908694
	H93	H	0.097933	0.379047	0.098640
	H94	H	0.905846	0.612366	0.092387
	H95	H	0.919451	0.382023	0.910530
	H96	H	0.415162	0.111370	0.594293
	H97	H	0.595906	0.879484	0.599786
	H98	H	0.601173	0.112071	0.412370
	H99	H	0.408133	0.878500	0.410263
	H100	H	0.596293	0.405143	0.121025
	H101	H	0.602452	0.578323	0.885531
	H102	H	0.413689	0.584863	0.119262
	H103	H	0.410891	0.402580	0.882538
	H104	H	0.125746	0.600218	0.402845
	H105	H	0.888940	0.588575	0.590948
	H106	H	0.123580	0.392986	0.592673
	H107	H	0.886550	0.391657	0.411835
	H108	H	0.910582	0.613004	0.099222
	H109	H	0.094641	0.381624	0.093263
	H110	H	0.102463	0.612119	0.911334
	H111	H	0.901792	0.379428	0.917781
	H112	H	0.090555	0.903451	0.618628
	H113	H	0.094828	0.096425	0.383347
	H114	H	0.925667	0.083461	0.616487
	H115	H	0.913138	0.900921	0.384374
	H116	H	0.619583	0.087600	0.910638
	H117	H	0.383342	0.094300	0.101480
	H118	H	0.621842	0.906424	0.101629
	H119	H	0.384937	0.904379	0.901036
	C120	C	0.381851	0.004506	0.624995
	C121	C	0.626697	0.987898	0.624786
	C122	C	0.627881	0.004446	0.380488
	C123	C	0.382932	0.987113	0.381325
	C124	C	0.624598	0.375878	0.011276
	C125	C	0.626087	0.618425	0.993469
	C126	C	0.383992	0.616383	0.010719
	C127	C	0.383187	0.374652	0.992811
	C128	C	0.013230	0.618641	0.380016
	C129	C	0.996415	0.617206	0.622616
	C130	C	0.013518	0.373564	0.623770
	C131	C	0.996946	0.373588	0.380349
	C132	C	0.881746	0.504109	0.123719
	C133	C	0.126763	0.487790	0.123234
	C134	C	0.126872	0.504054	0.880259
	C135	C	0.881835	0.487145	0.879927
	C136	C	0.125244	0.875048	0.510935
	C137	C	0.126538	0.117586	0.494105
	C138	C	0.884646	0.116575	0.511704
	C139	C	0.883606	0.873795	0.494276
	C140	C	0.512284	0.118469	0.881125
	C141	C	0.495230	0.117875	0.123598
	C142	C	0.513264	0.873407	0.124717
	C143	C	0.495406	0.874430	0.881452
	C144	C	0.385119	0.881470	0.679965
	C145	C	0.622229	0.111490	0.678165
	C146	C	0.623424	0.881009	0.326849
	C147	C	0.387862	0.110445	0.326835
	C148	C	0.678491	0.379488	0.885648
	C149	C	0.680542	0.615149	0.118115
	C150	C	0.329791	0.614157	0.885695
	C151	C	0.328401	0.377240	0.117880
	C152	C	0.890102	0.673340	0.381321
	C153	C	0.119566	0.672883	0.621275
	C154	C	0.890320	0.317915	0.622702
	C155	C	0.119958	0.318944	0.381912
	C156	C	0.889554	0.377230	0.678217
	C157	C	0.120046	0.613751	0.677218
	C158	C	0.889201	0.613248	0.326238
	C159	C	0.120942	0.378969	0.326090
	C160	C	0.385660	0.672290	0.886061
	C161	C	0.623219	0.672186	0.118476
	C162	C	0.623311	0.320739	0.886609
	C163	C	0.384573	0.319378	0.117682
	C164	C	0.682212	0.881368	0.383481
	C165	C	0.682467	0.110494	0.622675
	C166	C	0.325953	0.881947	0.624129
	C167	C	0.328813	0.109893	0.382912
	C168	C	0.885782	0.380789	0.178245
	C169	C	0.123163	0.611267	0.177055
	C170	C	0.121866	0.380580	0.826833
	C171	C	0.887257	0.610737	0.825703
	C172	C	0.180388	0.878318	0.386378
	C173	C	0.180575	0.114304	0.619337
	C174	C	0.830772	0.114011	0.386458
	C175	C	0.828790	0.876330	0.619079
	C176	C	0.389463	0.173469	0.882202
	C177	C	0.618224	0.173803	0.122406
	C178	C	0.390120	0.817547	0.123483
	C179	C	0.618482	0.819496	0.882108
	C180	C	0.389485	0.876621	0.179647
	C181	C	0.619147	0.113974	0.177414
	C182	C	0.388593	0.113881	0.826852
	C183	C	0.619182	0.878953	0.826530
	C184	C	0.887767	0.171041	0.386522
	C185	C	0.124267	0.172067	0.618924
	C186	C	0.124350	0.820328	0.386607
	C187	C	0.885568	0.818360	0.618861
	C188	C	0.181620	0.381377	0.882335
	C189	C	0.182836	0.610348	0.121554
	C190	C	0.825839	0.381265	0.122522
	C191	C	0.827827	0.610129	0.881650
	C192	C	0.403821	0.090612	0.602198
	C193	C	0.604869	0.902102	0.602464
	C194	C	0.606910	0.090040	0.402399
	C195	C	0.404112	0.901231	0.404235
	C196	C	0.602738	0.397066	0.098614
	C197	C	0.603911	0.596656	0.906305
	C198	C	0.406380	0.593988	0.097601
	C199	C	0.405318	0.396513	0.905579
	C200	C	0.099338	0.597571	0.402194
	C201	C	0.910146	0.595334	0.600192
	C202	C	0.099822	0.395218	0.601439
	C203	C	0.910614	0.394748	0.402690
	C204	C	0.903575	0.589821	0.101049
	C205	C	0.104736	0.402108	0.101236
	C206	C	0.106038	0.590145	0.901963
	C207	C	0.902625	0.401231	0.902441
	C208	C	0.102512	0.896673	0.598121
	C209	C	0.104944	0.095785	0.406854
	C210	C	0.905936	0.094895	0.599288
	C211	C	0.906164	0.896492	0.407418
	C212	C	0.598494	0.097211	0.903354
	C213	C	0.409214	0.095948	0.101455
	C214	C	0.599222	0.895451	0.101972
	C215	C	0.409117	0.895345	0.904176
	Zn216	Zn	0.504114	-0.004021	0.753288
	Zn217	Zn	0.504993	-0.004277	0.252331
	Zn218	Zn	0.752639	0.495968	0.001818
	Zn219	Zn	0.256035	0.495867	0.001475
	Zn220	Zn	0.004786	0.746568	0.502358
	Zn221	Zn	0.005179	0.244756	0.503003
	Zn222	Zn	0.004602	0.495499	0.751619
	Zn223	Zn	0.004744	0.496057	0.252039
	Zn224	Zn	0.504484	0.745338	0.002344
	Zn225	Zn	0.504100	0.247470	0.002366
	Zn226	Zn	0.756573	-0.004015	0.503037
	Zn227	Zn	0.253381	-0.004070	0.502858
	N228	N	0.419081	0.958696	0.680622
	N229	N	0.588263	0.034226	0.679497
	N230	N	0.590203	0.958157	0.325001
	N231	N	0.420807	0.033056	0.325736
	N232	N	0.679297	0.413087	0.963936
	N233	N	0.682376	0.582572	0.039237
	N234	N	0.328614	0.580253	0.964063
	N235	N	0.327519	0.410956	0.039339
	N236	N	0.968193	0.676825	0.413912
	N237	N	0.041681	0.675100	0.588149
	N238	N	0.968278	0.315542	0.589535
	N239	N	0.041923	0.315720	0.414988
	N240	N	0.967167	0.410957	0.679176
	N241	N	0.042476	0.579829	0.678124
	N242	N	0.966731	0.580162	0.325144
	N243	N	0.043369	0.412281	0.325086
	N244	N	0.418751	0.673811	0.964840
	N245	N	0.590068	0.674225	0.039800
	N246	N	0.590634	0.318308	0.965810
	N247	N	0.417997	0.317834	0.039070
	N248	N	0.685255	0.959175	0.416133
	N249	N	0.685238	0.032695	0.590122
	N250	N	0.323982	0.959451	0.590548
	N251	N	0.325678	0.032187	0.416212
	N252	N	0.919840	0.457960	0.179103
	N253	N	0.088680	0.534202	0.178082
	N254	N	0.088548	0.457909	0.825364
	N255	N	0.920038	0.533220	0.824545
	N256	N	0.180800	0.911770	0.464803
	N257	N	0.182397	0.081329	0.540650
	N258	N	0.828521	0.081072	0.465417
	N259	N	0.827546	0.910149	0.540664
	N260	N	0.467313	0.176447	0.915237
	N261	N	0.540210	0.176268	0.089673
	N262	N	0.467985	0.815315	0.090171
	N263	N	0.540549	0.816459	0.915382
	N264	N	0.466937	0.910674	0.180367
	N265	N	0.541902	0.079679	0.178156
	N266	N	0.466000	0.080107	0.826231
	N267	N	0.541629	0.912319	0.826239
	N268	N	0.920588	0.172655	0.465301
	N269	N	0.091320	0.174169	0.540134
	N270	N	0.090843	0.818162	0.465268
	N271	N	0.918695	0.816610	0.540036
	N272	N	0.184698	0.459143	0.914942
	N273	N	0.185100	0.532708	0.088719
	N274	N	0.822973	0.459201	0.089520
	N275	N	0.824277	0.532348	0.914616
	O276	O	1.014892	0.977108	0.014254
	H277	H	1.019071	0.979998	0.015952
	H278	H	1.015535	0.971281	0.023570
	O279	O	-0.001256	-0.132273	0.026338
	H280	H	0.004705	-0.124469	0.015098
	H281	H	-0.001601	-0.133994	0.023901
	O282	O	-0.041228	-0.022629	0.989555
	H283	H	-0.035055	-0.033304	1.004993
	H284	H	-0.049314	-0.020820	1.002678
	O285	O	0.499923	0.521338	0.439945
	H286	H	0.497170	0.528607	0.432899
	H287	H	0.497545	0.527507	0.441462
	O288	O	0.477812	0.483149	0.491293
	H289	H	0.474733	0.478151	0.481842
	H290	H	0.472234	0.484231	0.493339
	O291	O	0.483517	0.525679	0.521817
	H292	H	0.483713	0.520887	0.523169
	H293	H	0.482906	0.519128	0.523817
	O294	O	-0.038434	-0.035196	0.005468
	H295	H	-0.040785	-0.038818	0.016013
	H296	H	-0.035889	-0.041061	0.005506
	O297	O	0.532651	0.545186	0.492537
	H298	H	0.537565	0.550785	0.497989
	H299	H	0.535632	0.546568	0.497939
	O300	O	-0.027628	0.964795	1.032397
	H301	H	-0.024856	0.962690	1.033102
	H302	H	-0.033100	0.957584	1.028756
	O303	O	0.535505	0.533743	0.502101
	H304	H	0.533631	0.532017	0.493990
	H305	H	0.546060	0.530078	0.503269
	O306	O	0.000319	-0.019976	1.051210
	H307	H	-0.001988	-0.029992	1.048507
	H308	H	-0.004030	-0.027865	1.045508
	O309	O	1.023520	0.939810	0.959793
	H310	H	1.014907	0.940922	0.953881
	H311	H	1.023416	0.945060	0.963944
	O312	O	0.505122	0.537314	0.538007
	H313	H	0.502928	0.534677	0.537251
	H314	H	0.504688	0.537626	0.545131
	O315	O	0.000442	1.006198	0.009541
	H316	H	0.003409	1.000859	0.001699
	H317	H	0.006761	1.005608	0.014368
	O318	O	0.040879	0.946547	-0.014548
	H319	H	0.044538	0.953555	-0.016548
	H320	H	0.034849	0.948546	-0.008287
	O321	O	0.954607	0.992439	0.032508
	H322	H	0.950480	1.001298	0.024291
	H323	H	0.954730	0.994642	0.029189
