data_Molecule from HDF5

_cell_length_a		16.232781
_cell_length_b		16.273223
_cell_length_c		16.236097
_cell_angle_alpha	90.130262
_cell_angle_beta	90.060406
_cell_angle_gamma	90.017943
_symmetry_space_group_name_H-M	'P 1'
_symmetry_Int_Tables_number		1

loop_
	_symmetry_equiv_pos_as_xyz
	x,y,z

loop_
	_atom_site_label
	_atom_site_type_symbol
	_atom_site_fract_x
	_atom_site_fract_y
	_atom_site_fract_z
	H0	H	0.398370	0.832705	0.714556
	H1	H	0.594567	0.160524	0.714864
	H2	H	0.595142	0.832429	0.286197
	H3	H	0.398003	0.160822	0.286090
	H4	H	0.709579	0.399415	0.835286
	H5	H	0.711678	0.595552	0.163616
	H6	H	0.282048	0.595918	0.836405
	H7	H	0.283668	0.399134	0.164572
	H8	H	0.833445	0.710595	0.400297
	H9	H	0.160460	0.710452	0.599326
	H10	H	0.833107	0.280632	0.599557
	H11	H	0.161512	0.281140	0.400244
	H12	H	0.832409	0.398591	0.713166
	H13	H	0.161195	0.594392	0.713619
	H14	H	0.833317	0.593299	0.286817
	H15	H	0.161238	0.396798	0.285499
	H16	H	0.399305	0.710169	0.835930
	H17	H	0.595996	0.711602	0.164008
	H18	H	0.594355	0.282948	0.836362
	H19	H	0.397530	0.283496	0.164109
	H20	H	0.710421	0.832064	0.402796
	H21	H	0.712019	0.160172	0.599521
	H22	H	0.283281	0.832362	0.598618
	H23	H	0.282934	0.160484	0.403204
	H24	H	0.898810	0.332084	0.213547
	H25	H	0.095667	0.659652	0.216028
	H26	H	0.095685	0.331947	0.785281
	H27	H	0.899421	0.660138	0.787244
	H28	H	0.210798	0.897691	0.336372
	H29	H	0.211029	0.094074	0.664881
	H30	H	0.783026	0.094065	0.336087
	H31	H	0.784541	0.898641	0.663911
	H32	H	0.332378	0.210356	0.902435
	H33	H	0.660644	0.211858	0.100004
	H34	H	0.332994	0.782829	0.098353
	H35	H	0.660896	0.782685	0.900955
	H36	H	0.332430	0.900034	0.213510
	H37	H	0.661209	0.094691	0.214155
	H38	H	0.332263	0.093948	0.787350
	H39	H	0.660700	0.899331	0.787664
	H40	H	0.898898	0.210048	0.336548
	H41	H	0.097844	0.212350	0.663362
	H42	H	0.096097	0.780837	0.336820
	H43	H	0.898402	0.782565	0.663679
	H44	H	0.212308	0.332087	0.901975
	H45	H	0.211848	0.660205	0.099816
	H46	H	0.782281	0.333253	0.097962
	H47	H	0.785515	0.660504	0.903464
	H48	H	0.406291	0.114154	0.598753
	H49	H	0.589406	0.881028	0.591120
	H50	H	0.594941	0.116383	0.402224
	H51	H	0.408998	0.880348	0.402337
	H52	H	0.586310	0.409117	0.114509
	H53	H	0.591448	0.587060	0.882991
	H54	H	0.398891	0.593814	0.120121
	H55	H	0.400436	0.401000	0.880814
	H56	H	0.112877	0.583631	0.410290
	H57	H	0.879127	0.588956	0.593092
	H58	H	0.111794	0.406462	0.588148
	H59	H	0.879230	0.400052	0.405453
	H60	H	0.114439	0.405579	0.598302
	H61	H	0.878681	0.590408	0.594009
	H62	H	0.115660	0.589119	0.402305
	H63	H	0.881413	0.401743	0.409663
	H64	H	0.403993	0.582610	0.114538
	H65	H	0.587295	0.592167	0.883016
	H66	H	0.588772	0.399177	0.118593
	H67	H	0.404181	0.409289	0.884463
	H68	H	0.583691	0.111162	0.406926
	H69	H	0.595835	0.877691	0.594515
	H70	H	0.406608	0.111228	0.590442
	H71	H	0.407173	0.881969	0.411978
	H72	H	0.894169	0.616312	0.093061
	H73	H	0.102005	0.376554	0.091889
	H74	H	0.093909	0.615448	0.901439
	H75	H	0.892371	0.375659	0.905870
	H76	H	0.092849	0.911177	0.616367
	H77	H	0.082509	0.086167	0.386227
	H78	H	0.898599	0.087342	0.618594
	H79	H	0.907255	0.910747	0.385805
	H80	H	0.611749	0.086239	0.911776
	H81	H	0.381922	0.089295	0.087095
	H82	H	0.611046	0.907253	0.084033
	H83	H	0.379475	0.902323	0.909059
	H84	H	0.615039	0.909825	0.102308
	H85	H	0.379254	0.086270	0.099109
	H86	H	0.615382	0.089604	0.901406
	H87	H	0.380028	0.905192	0.907725
	H88	H	0.909304	0.083797	0.614418
	H89	H	0.092130	0.096860	0.380550
	H90	H	0.082104	0.898694	0.616167
	H91	H	0.910203	0.894767	0.381792
	H92	H	0.083262	0.610455	0.906098
	H93	H	0.085372	0.378278	0.103363
	H94	H	0.909034	0.614736	0.104314
	H95	H	0.909125	0.378236	0.896148
	H96	H	0.398284	0.114881	0.593934
	H97	H	0.589576	0.878516	0.599156
	H98	H	0.593587	0.112632	0.414699
	H99	H	0.400229	0.879222	0.406469
	H100	H	0.596249	0.406651	0.118258
	H101	H	0.593252	0.592754	0.881559
	H102	H	0.411420	0.593798	0.116362
	H103	H	0.409457	0.401626	0.884250
	H104	H	0.115124	0.593724	0.411621
	H105	H	0.879753	0.589744	0.592922
	H106	H	0.115080	0.397617	0.591446
	H107	H	0.880599	0.404204	0.406042
	H108	H	0.910492	0.609393	0.085570
	H109	H	0.084405	0.383880	0.083828
	H110	H	0.093504	0.611935	0.913114
	H111	H	0.908219	0.382543	0.915371
	H112	H	0.097144	0.896856	0.621407
	H113	H	0.096965	0.082613	0.382675
	H114	H	0.907325	0.095320	0.618504
	H115	H	0.894683	0.901258	0.379555
	H116	H	0.615081	0.096927	0.909247
	H117	H	0.377078	0.097591	0.094965
	H118	H	0.617593	0.892518	0.094974
	H119	H	0.379074	0.903094	0.906543
	C120	C	0.375465	0.004741	0.622220
	C121	C	0.619460	0.987935	0.622992
	C122	C	0.618897	0.004750	0.379136
	C123	C	0.375954	0.988236	0.378589
	C124	C	0.618896	0.375553	0.009038
	C125	C	0.619069	0.618732	0.991033
	C126	C	0.375606	0.618852	0.008749
	C127	C	0.375669	0.375676	0.991695
	C128	C	0.006082	0.617042	0.379121
	C129	C	0.987931	0.617808	0.621748
	C130	C	0.005012	0.374469	0.621395
	C131	C	0.989041	0.374047	0.378362
	C132	C	0.875983	0.505109	0.121967
	C133	C	0.119202	0.487477	0.122307
	C134	C	0.118989	0.504269	0.878384
	C135	C	0.875787	0.487562	0.878157
	C136	C	0.119320	0.873900	0.509273
	C137	C	0.119140	0.117188	0.491564
	C138	C	0.876040	0.117177	0.508774
	C139	C	0.876197	0.874438	0.490927
	C140	C	0.505257	0.118975	0.879073
	C141	C	0.488254	0.119117	0.122352
	C142	C	0.505663	0.875105	0.122016
	C143	C	0.488066	0.875416	0.879368
	C144	C	0.377941	0.881551	0.676888
	C145	C	0.615884	0.111532	0.677207
	C146	C	0.615864	0.881424	0.323932
	C147	C	0.377618	0.111858	0.323943
	C148	C	0.672932	0.378170	0.884725
	C149	C	0.674058	0.616248	0.114711
	C150	C	0.320179	0.616285	0.885311
	C151	C	0.320752	0.378746	0.115251
	C152	C	0.882481	0.672529	0.380788
	C153	C	0.111680	0.672364	0.619316
	C154	C	0.881860	0.319031	0.619236
	C155	C	0.112437	0.318998	0.380304
	C156	C	0.881486	0.377685	0.675638
	C157	C	0.111713	0.615018	0.676536
	C158	C	0.882144	0.614124	0.324437
	C159	C	0.112140	0.376473	0.323132
	C160	C	0.378251	0.673097	0.885029
	C161	C	0.616218	0.673542	0.114951
	C162	C	0.615673	0.320650	0.885190
	C163	C	0.377474	0.320985	0.114952
	C164	C	0.673073	0.881048	0.382000
	C165	C	0.674107	0.111222	0.619828
	C166	C	0.320997	0.881213	0.618986
	C167	C	0.320379	0.111671	0.381915
	C168	C	0.878248	0.381441	0.176292
	C169	C	0.116694	0.610922	0.178033
	C170	C	0.116086	0.380896	0.823428
	C171	C	0.878637	0.611039	0.824062
	C172	C	0.173892	0.876745	0.385663
	C173	C	0.173895	0.114865	0.615426
	C174	C	0.820351	0.115083	0.385283
	C175	C	0.821725	0.877847	0.614836
	C176	C	0.381546	0.173297	0.881728
	C177	C	0.611713	0.173984	0.120089
	C178	C	0.381880	0.820500	0.119265
	C179	C	0.611968	0.820861	0.881626
	C180	C	0.381669	0.878726	0.176346
	C181	C	0.612021	0.115719	0.176705
	C182	C	0.381579	0.115548	0.824285
	C183	C	0.611820	0.878585	0.825078
	C184	C	0.878164	0.172304	0.385205
	C185	C	0.117395	0.173184	0.614902
	C186	C	0.116506	0.818982	0.385657
	C187	C	0.878742	0.820378	0.614941
	C188	C	0.173945	0.380963	0.881452
	C189	C	0.173941	0.611359	0.120119
	C190	C	0.820444	0.381926	0.118906
	C191	C	0.822148	0.611331	0.881995
	C192	C	0.397218	0.091008	0.600691
	C193	C	0.597970	0.901401	0.601375
	C194	C	0.597108	0.091121	0.401177
	C195	C	0.398764	0.902636	0.400529
	C196	C	0.596920	0.398048	0.094887
	C197	C	0.597254	0.596989	0.904743
	C198	C	0.398279	0.596803	0.094856
	C199	C	0.398053	0.397785	0.905341
	C200	C	0.092272	0.595180	0.401387
	C201	C	0.901515	0.596172	0.599672
	C202	C	0.091472	0.396665	0.599154
	C203	C	0.902439	0.395662	0.400417
	C204	C	0.898129	0.591307	0.100683
	C205	C	0.097117	0.401745	0.099852
	C206	C	0.096943	0.590406	0.900503
	C207	C	0.896953	0.400874	0.899454
	C208	C	0.097170	0.895807	0.595787
	C209	C	0.097025	0.095015	0.405416
	C210	C	0.898525	0.095310	0.594708
	C211	C	0.897758	0.895810	0.404654
	C212	C	0.591672	0.097340	0.901081
	C213	C	0.401666	0.097573	0.100066
	C214	C	0.592190	0.896864	0.100284
	C215	C	0.401860	0.897207	0.901422
	Zn216	Zn	0.496470	-0.003820	0.751168
	Zn217	Zn	0.497087	-0.002758	0.250004
	Zn218	Zn	0.747525	0.496810	-0.000497
	Zn219	Zn	0.247629	0.496830	0.000609
	Zn220	Zn	-0.002962	0.745839	0.500348
	Zn221	Zn	-0.002678	0.245582	0.499601
	Zn222	Zn	-0.003371	0.496248	0.749603
	Zn223	Zn	-0.002838	0.495872	0.250636
	Zn224	Zn	0.497079	0.747118	-0.000109
	Zn225	Zn	0.496890	0.247584	0.000616
	Zn226	Zn	0.747829	-0.004069	0.499978
	Zn227	Zn	0.247357	-0.004034	0.500494
	N228	N	0.411167	0.959311	0.678957
	N229	N	0.582514	0.033852	0.679242
	N230	N	0.582981	0.959488	0.321992
	N231	N	0.411446	0.034373	0.321867
	N232	N	0.675075	0.411906	0.962658
	N233	N	0.676087	0.582991	0.036695
	N234	N	0.318196	0.583475	0.963233
	N235	N	0.319659	0.412077	0.037302
	N236	N	0.960559	0.674327	0.414197
	N237	N	0.033787	0.674349	0.586133
	N238	N	0.959896	0.317116	0.585861
	N239	N	0.034684	0.317434	0.414123
	N240	N	0.959109	0.411219	0.677043
	N241	N	0.033760	0.581717	0.678023
	N242	N	0.959862	0.580460	0.323291
	N243	N	0.034451	0.410139	0.322103
	N244	N	0.411947	0.674820	0.962852
	N245	N	0.582782	0.675215	0.037145
	N246	N	0.583104	0.318710	0.963264
	N247	N	0.410815	0.319081	0.037125
	N248	N	0.674772	0.958597	0.415730
	N249	N	0.676597	0.033237	0.586949
	N250	N	0.319479	0.958772	0.585603
	N251	N	0.319121	0.033923	0.415172
	N252	N	0.911980	0.459051	0.178270
	N253	N	0.083309	0.533191	0.179462
	N254	N	0.082618	0.458558	0.821510
	N255	N	0.911376	0.533000	0.821807
	N256	N	0.175447	0.910225	0.463496
	N257	N	0.175075	0.080743	0.537802
	N258	N	0.819249	0.081339	0.462967
	N259	N	0.820142	0.911056	0.536935
	N260	N	0.459455	0.175309	0.914965
	N261	N	0.533482	0.176300	0.087070
	N262	N	0.459819	0.818308	0.086295
	N263	N	0.533953	0.818784	0.914727
	N264	N	0.459806	0.911670	0.178386
	N265	N	0.534322	0.082339	0.178086
	N266	N	0.459402	0.082184	0.822777
	N267	N	0.533987	0.911939	0.823670
	N268	N	0.911939	0.173709	0.462813
	N269	N	0.084194	0.174884	0.537043
	N270	N	0.083430	0.816898	0.463725
	N271	N	0.911800	0.818040	0.536988
	N272	N	0.175773	0.458636	0.914964
	N273	N	0.175908	0.533687	0.086391
	N274	N	0.818719	0.459824	0.085934
	N275	N	0.820454	0.533621	0.915186
	O276	O	0.472222	0.473214	0.470746
	H277	H	0.471344	0.474577	0.461032
	H278	H	0.465063	0.472395	0.472052
	O279	O	0.386418	0.487039	0.475376
	H280	H	0.398562	0.485082	0.462540
	H281	H	0.359817	0.493917	0.474023
	O282	O	0.447519	0.487064	0.471414
	H283	H	0.441675	0.492243	0.475837
	H284	H	0.449764	0.490390	0.463372
	O285	O	0.432060	0.470556	0.465453
	H286	H	0.440901	0.467086	0.469905
	H287	H	0.425162	0.460361	0.467901
	O288	O	0.461159	0.449098	0.468156
	H289	H	0.460684	0.447329	0.474491
	H290	H	0.458472	0.454388	0.476920
	O291	O	-0.053663	1.055076	0.989469
	H292	H	-0.057714	1.056851	0.990138
	H293	H	-0.054609	1.057760	0.989333
	O294	O	0.491480	0.465817	0.474463
	H295	H	0.496071	0.460054	0.478059
	H296	H	0.487928	0.469504	0.471783
	O297	O	1.450764	0.461986	0.435293
	H298	H	1.459732	0.455652	0.436783
	H299	H	1.447582	0.457380	0.423635
