data_Molecule from HDF5

_cell_length_a		16.235891
_cell_length_b		16.262844
_cell_length_c		16.230970
_cell_angle_alpha	90.011207
_cell_angle_beta	89.860081
_cell_angle_gamma	90.119460
_symmetry_space_group_name_H-M	'P 1'
_symmetry_Int_Tables_number		1

loop_
	_symmetry_equiv_pos_as_xyz
	x,y,z

loop_
	_atom_site_label
	_atom_site_type_symbol
	_atom_site_fract_x
	_atom_site_fract_y
	_atom_site_fract_z
	H0	H	0.415910	0.832806	0.714308
	H1	H	0.615114	0.160730	0.714661
	H2	H	0.612739	0.831852	0.286435
	H3	H	0.416601	0.160617	0.285106
	H4	H	0.727813	0.399349	0.836774
	H5	H	0.729072	0.595847	0.164890
	H6	H	0.300961	0.595646	0.837282
	H7	H	0.299630	0.398344	0.166348
	H8	H	0.849812	0.710860	0.404008
	H9	H	0.177544	0.712972	0.599747
	H10	H	0.849804	0.284606	0.599719
	H11	H	0.178600	0.283382	0.400687
	H12	H	0.850054	0.399632	0.714995
	H13	H	0.178496	0.597019	0.714703
	H14	H	0.850057	0.594431	0.288250
	H15	H	0.179327	0.401107	0.287124
	H16	H	0.415771	0.711581	0.837609
	H17	H	0.613753	0.712318	0.164764
	H18	H	0.613715	0.283645	0.836939
	H19	H	0.417112	0.283312	0.166387
	H20	H	0.729280	0.833127	0.402254
	H21	H	0.728256	0.160733	0.596874
	H22	H	0.299414	0.833236	0.599110
	H23	H	0.301127	0.161148	0.401843
	H24	H	0.915258	0.333576	0.216175
	H25	H	0.113632	0.661257	0.214222
	H26	H	0.113910	0.333837	0.785090
	H27	H	0.917294	0.661680	0.788040
	H28	H	0.226623	0.900448	0.336469
	H29	H	0.229196	0.096880	0.665064
	H30	H	0.802215	0.095256	0.335775
	H31	H	0.799749	0.899565	0.664874
	H32	H	0.350540	0.211827	0.902446
	H33	H	0.679579	0.209797	0.098565
	H34	H	0.350454	0.782679	0.099624
	H35	H	0.678856	0.782491	0.901167
	H36	H	0.350527	0.898129	0.214086
	H37	H	0.679309	0.094011	0.213386
	H38	H	0.349817	0.095180	0.786744
	H39	H	0.678747	0.899127	0.785719
	H40	H	0.917626	0.211458	0.336496
	H41	H	0.113443	0.212931	0.665364
	H42	H	0.113162	0.783409	0.337550
	H43	H	0.914944	0.783248	0.665154
	H44	H	0.228811	0.332844	0.902950
	H45	H	0.228091	0.661019	0.098953
	H46	H	0.799994	0.332899	0.099929
	H47	H	0.800128	0.660614	0.903391
	H48	H	0.422287	0.113754	0.593442
	H49	H	0.606400	0.877888	0.598632
	H50	H	0.610735	0.115373	0.400372
	H51	H	0.420795	0.882116	0.412024
	H52	H	0.595519	0.415631	0.112052
	H53	H	0.607277	0.601543	0.880759
	H54	H	0.422624	0.581784	0.115262
	H55	H	0.426179	0.414714	0.889235
	H56	H	0.128101	0.581893	0.408251
	H57	H	0.902028	0.576013	0.592782
	H58	H	0.131591	0.400693	0.587692
	H59	H	0.896333	0.406386	0.401504
	H60	H	0.129020	0.411576	0.591904
	H61	H	0.891397	0.595242	0.608068
	H62	H	0.135694	0.594787	0.397584
	H63	H	0.895190	0.397418	0.409395
	H64	H	0.428114	0.595860	0.118314
	H65	H	0.616970	0.583570	0.883718
	H66	H	0.602088	0.384334	0.122520
	H67	H	0.428678	0.395181	0.884728
	H68	H	0.603238	0.112437	0.405682
	H69	H	0.603642	0.881876	0.590295
	H70	H	0.421701	0.113749	0.592808
	H71	H	0.417092	0.877723	0.405662
	H72	H	0.919643	0.614809	0.094146
	H73	H	0.094395	0.384185	0.094952
	H74	H	0.108556	0.615855	0.902552
	H75	H	0.921765	0.378416	0.902266
	H76	H	0.103227	0.901157	0.618747
	H77	H	0.116012	0.098557	0.379471
	H78	H	0.916035	0.078193	0.615733
	H79	H	0.922991	0.902266	0.383817
	H80	H	0.633020	0.091895	0.902221
	H81	H	0.399409	0.091114	0.086713
	H82	H	0.629033	0.911880	0.091669
	H83	H	0.398724	0.908544	0.905623
	H84	H	0.635493	0.900841	0.101720
	H85	H	0.399094	0.083341	0.096029
	H86	H	0.631085	0.093336	0.910473
	H87	H	0.394607	0.899856	0.903633
	H88	H	0.933714	0.094910	0.615287
	H89	H	0.110843	0.080658	0.386138
	H90	H	0.111968	0.903855	0.620644
	H91	H	0.920287	0.904195	0.383089
	H92	H	0.104398	0.612026	0.909008
	H93	H	0.112732	0.381657	0.083417
	H94	H	0.922325	0.613912	0.095655
	H95	H	0.926473	0.382214	0.910268
	H96	H	0.421188	0.113935	0.593419
	H97	H	0.612610	0.878882	0.590858
	H98	H	0.612503	0.114302	0.409768
	H99	H	0.424850	0.880828	0.404848
	H100	H	0.626306	0.407624	0.122304
	H101	H	0.596881	0.584820	0.888529
	H102	H	0.412888	0.592931	0.122089
	H103	H	0.410056	0.403659	0.881981
	H104	H	0.131712	0.598315	0.415327
	H105	H	0.897327	0.600980	0.582426
	H106	H	0.133642	0.403303	0.599392
	H107	H	0.900567	0.408405	0.412810
	H108	H	0.922038	0.613805	0.092797
	H109	H	0.112375	0.375742	0.103948
	H110	H	0.112979	0.615068	0.909858
	H111	H	0.916669	0.380002	0.911461
	H112	H	0.105823	0.909341	0.617101
	H113	H	0.097513	0.095291	0.385887
	H114	H	0.911321	0.101135	0.622787
	H115	H	0.922991	0.905446	0.384440
	H116	H	0.629672	0.085565	0.907535
	H117	H	0.395398	0.094743	0.098463
	H118	H	0.631670	0.897507	0.086603
	H119	H	0.398902	0.901679	0.912218
	C120	C	0.393078	0.005315	0.621655
	C121	C	0.635833	0.988578	0.621344
	C122	C	0.636595	0.005247	0.377878
	C123	C	0.392928	0.988413	0.378724
	C124	C	0.636388	0.374907	0.010034
	C125	C	0.635624	0.618335	0.992686
	C126	C	0.393071	0.618448	0.010199
	C127	C	0.392792	0.375505	0.993610
	C128	C	0.023171	0.619707	0.379176
	C129	C	1.005554	0.619318	0.622659
	C130	C	0.022912	0.376329	0.622447
	C131	C	1.006165	0.376175	0.379058
	C132	C	0.892736	0.505354	0.122573
	C133	C	0.135623	0.488897	0.122497
	C134	C	0.137246	0.505757	0.878445
	C135	C	0.893078	0.488483	0.879365
	C136	C	0.135314	0.876385	0.510139
	C137	C	0.136518	0.120156	0.492645
	C138	C	0.892884	0.119284	0.509170
	C139	C	0.892857	0.875591	0.492264
	C140	C	0.522754	0.119026	0.878661
	C141	C	0.506764	0.117407	0.121695
	C142	C	0.523350	0.875057	0.121851
	C143	C	0.506093	0.875072	0.878516
	C144	C	0.395296	0.881748	0.676516
	C145	C	0.634113	0.111650	0.676388
	C146	C	0.633304	0.881166	0.323953
	C147	C	0.396254	0.111924	0.323641
	C148	C	0.690873	0.378545	0.885972
	C149	C	0.690769	0.615777	0.116134
	C150	C	0.338521	0.616093	0.886227
	C151	C	0.337446	0.377791	0.117218
	C152	C	0.899142	0.673767	0.382969
	C153	C	0.128953	0.674901	0.620198
	C154	C	0.899080	0.321876	0.620044
	C155	C	0.129831	0.321948	0.381336
	C156	C	0.899240	0.378820	0.677569
	C157	C	0.129365	0.616986	0.677002
	C158	C	0.899186	0.615935	0.325620
	C159	C	0.130127	0.380018	0.324539
	C160	C	0.395534	0.673649	0.886378
	C161	C	0.633945	0.674198	0.115907
	C162	C	0.633789	0.321045	0.885959
	C163	C	0.395619	0.320493	0.117232
	C164	C	0.691427	0.881751	0.381240
	C165	C	0.690621	0.112026	0.618091
	C166	C	0.337150	0.882203	0.619620
	C167	C	0.338681	0.112143	0.381404
	C168	C	0.894843	0.382295	0.178194
	C169	C	0.133746	0.612167	0.177021
	C170	C	0.133826	0.382151	0.823966
	C171	C	0.896455	0.612463	0.825433
	C172	C	0.189711	0.879467	0.386016
	C173	C	0.191531	0.117557	0.616120
	C174	C	0.839560	0.115661	0.385099
	C175	C	0.837576	0.878702	0.615950
	C176	C	0.399292	0.173812	0.881935
	C177	C	0.630561	0.172028	0.118408
	C178	C	0.399589	0.820242	0.119613
	C179	C	0.629781	0.820525	0.881133
	C180	C	0.399475	0.877668	0.176672
	C181	C	0.630486	0.114742	0.175927
	C182	C	0.399122	0.116213	0.824183
	C183	C	0.629811	0.878342	0.823708
	C184	C	0.896672	0.173671	0.385441
	C185	C	0.133699	0.174942	0.616309
	C186	C	0.133082	0.821367	0.386428
	C187	C	0.894667	0.821008	0.616181
	C188	C	0.191193	0.381932	0.882067
	C189	C	0.190767	0.611943	0.119732
	C190	C	0.837964	0.381955	0.120086
	C191	C	0.838191	0.611896	0.882489
	C192	C	0.415279	0.091582	0.599584
	C193	C	0.613968	0.901980	0.599474
	C194	C	0.615087	0.091856	0.398993
	C195	C	0.414698	0.902534	0.400884
	C196	C	0.614450	0.396231	0.096683
	C197	C	0.613559	0.596386	0.906532
	C198	C	0.414918	0.596691	0.096132
	C199	C	0.415072	0.397916	0.907629
	C200	C	0.109339	0.598146	0.400648
	C201	C	0.919296	0.597202	0.600885
	C202	C	0.109179	0.398729	0.599776
	C203	C	0.919763	0.397721	0.401245
	C204	C	0.914917	0.591703	0.100706
	C205	C	0.113055	0.402701	0.100630
	C206	C	0.115250	0.592005	0.900547
	C207	C	0.915217	0.402482	0.901227
	C208	C	0.113323	0.898194	0.596415
	C209	C	0.114632	0.098145	0.406201
	C210	C	0.914135	0.097569	0.595789
	C211	C	0.915416	0.897344	0.405956
	C212	C	0.609057	0.096798	0.900421
	C213	C	0.420222	0.095923	0.099986
	C214	C	0.609599	0.896893	0.099988
	C215	C	0.419720	0.896988	0.900653
	Zn216	Zn	0.514444	-0.003117	0.750154
	Zn217	Zn	0.514607	-0.003867	0.249732
	Zn218	Zn	0.764269	0.496512	0.001072
	Zn219	Zn	0.264302	0.497390	0.001611
	Zn220	Zn	0.014349	0.747982	0.501685
	Zn221	Zn	0.014438	0.248267	0.501238
	Zn222	Zn	0.014489	0.497298	0.750510
	Zn223	Zn	0.014407	0.497789	0.250697
	Zn224	Zn	0.514398	0.746881	0.001065
	Zn225	Zn	0.514984	0.247043	0.001088
	Zn226	Zn	0.764883	-0.002943	0.500117
	Zn227	Zn	0.264161	-0.002460	0.500818
	N228	N	0.429351	0.959266	0.677898
	N229	N	0.600789	0.033650	0.678515
	N230	N	0.599882	0.958880	0.321938
	N231	N	0.429170	0.034122	0.321829
	N232	N	0.692711	0.411197	0.964197
	N233	N	0.692052	0.582051	0.038498
	N234	N	0.336761	0.582364	0.963964
	N235	N	0.335562	0.411264	0.039387
	N236	N	0.977310	0.676121	0.415721
	N237	N	0.051103	0.676502	0.587084
	N238	N	0.977031	0.320393	0.586210
	N239	N	0.051831	0.319609	0.414656
	N240	N	0.977184	0.412041	0.678915
	N241	N	0.051630	0.583169	0.678673
	N242	N	0.977030	0.583031	0.323083
	N243	N	0.052192	0.413094	0.323087
	N244	N	0.428559	0.675566	0.964319
	N245	N	0.600524	0.676011	0.038085
	N246	N	0.600803	0.318675	0.963969
	N247	N	0.429390	0.319001	0.039458
	N248	N	0.693642	0.959823	0.413964
	N249	N	0.691622	0.034563	0.584432
	N250	N	0.335638	0.960112	0.586387
	N251	N	0.336399	0.034470	0.414843
	N252	N	0.928433	0.460104	0.179661
	N253	N	0.099944	0.534533	0.178683
	N254	N	0.101056	0.460107	0.821486
	N255	N	0.930047	0.534828	0.823521
	N256	N	0.191021	0.913275	0.463666
	N257	N	0.193233	0.084159	0.538297
	N258	N	0.837061	0.082839	0.463178
	N259	N	0.836293	0.911722	0.537920
	N260	N	0.477295	0.175825	0.914842
	N261	N	0.552465	0.173832	0.085403
	N262	N	0.477339	0.818985	0.085839
	N263	N	0.551797	0.818331	0.914714
	N264	N	0.477373	0.910955	0.178324
	N265	N	0.552610	0.081575	0.178074
	N266	N	0.476851	0.082734	0.822317
	N267	N	0.551954	0.911404	0.822104
	N268	N	0.929222	0.175947	0.463651
	N269	N	0.100483	0.176913	0.538324
	N270	N	0.099852	0.819559	0.464523
	N271	N	0.928239	0.818945	0.538249
	N272	N	0.193337	0.459858	0.915088
	N273	N	0.191690	0.534176	0.086323
	N274	N	0.836810	0.459426	0.086034
	N275	N	0.835892	0.533879	0.915179
	O276	O	0.470785	0.478098	0.603248
	H277	H	0.477388	0.477234	0.609405
	H278	H	0.480189	0.485535	0.604560
	O279	O	-0.475586	0.484043	-0.406410
	H280	H	-0.467886	0.473791	-0.402442
	H281	H	-0.472252	0.485504	-0.406819
	O282	O	0.478461	0.481935	0.561561
	H283	H	0.475533	0.476098	0.554577
	H284	H	0.477145	0.486458	0.561554
	O285	O	0.060559	0.995132	1.049318
	H286	H	0.070863	0.998275	1.052384
	H287	H	0.071919	0.995388	1.040492
	O288	O	1.045665	-0.007016	0.052586
	H289	H	1.038622	-0.006503	0.055630
	H290	H	1.042601	-0.006467	0.063358
	O291	O	-0.964196	0.996489	-0.920546
	H292	H	-0.963709	0.996191	-0.918719
	H293	H	-0.969623	0.995601	-0.922945
	O294	O	0.518652	0.467492	0.566433
	H295	H	0.516832	0.468794	0.560837
	H296	H	0.512958	0.467539	0.571244
	O297	O	0.069956	0.995579	0.059960
	H298	H	0.068394	0.991469	0.058624
	H299	H	0.067665	0.998495	0.068072
	O300	O	0.995884	-0.031905	1.070839
	H301	H	1.007292	-0.030599	1.077058
	H302	H	0.991015	-0.028616	1.071284
	O303	O	0.479615	0.482280	0.601712
	H304	H	0.472600	0.480514	0.598782
	H305	H	0.480439	0.478739	0.602447
	O306	O	0.035806	0.996972	1.055531
	H307	H	0.032805	0.989852	1.060074
	H308	H	0.035716	0.999493	1.043736
	O309	O	0.441569	0.451109	0.543668
	H310	H	0.423834	0.449153	0.545312
	H311	H	0.445324	0.447522	0.558036
