data_Molecule from HDF5

_cell_length_a		16.179941
_cell_length_b		16.406581
_cell_length_c		16.140468
_cell_angle_alpha	89.886469
_cell_angle_beta	89.607852
_cell_angle_gamma	89.705558
_symmetry_space_group_name_H-M	'P 1'
_symmetry_Int_Tables_number		1

loop_
	_symmetry_equiv_pos_as_xyz
	x,y,z

loop_
	_atom_site_label
	_atom_site_type_symbol
	_atom_site_fract_x
	_atom_site_fract_y
	_atom_site_fract_z
	H0	H	0.412271	0.859601	0.701210
	H1	H	0.610321	0.183669	0.699987
	H2	H	0.611856	0.859111	0.268443
	H3	H	0.413314	0.184699	0.269548
	H4	H	0.727225	0.422944	0.820156
	H5	H	0.722135	0.618481	0.150458
	H6	H	0.297901	0.620881	0.819032
	H7	H	0.296304	0.423764	0.149609
	H8	H	0.849206	0.742400	0.382182
	H9	H	0.174543	0.737259	0.585523
	H10	H	0.848294	0.305110	0.588555
	H11	H	0.173716	0.304391	0.380428
	H12	H	0.846463	0.424555	0.699938
	H13	H	0.176307	0.618157	0.696778
	H14	H	0.846241	0.622348	0.272295
	H15	H	0.175476	0.425262	0.270751
	H16	H	0.407595	0.740596	0.821714
	H17	H	0.610188	0.736088	0.148908
	H18	H	0.615298	0.304792	0.820940
	H19	H	0.409640	0.305805	0.148829
	H20	H	0.730423	0.859781	0.382203
	H21	H	0.725217	0.184652	0.582144
	H22	H	0.295073	0.859667	0.586440
	H23	H	0.296043	0.184125	0.386136
	H24	H	0.912329	0.359606	0.201442
	H25	H	0.108065	0.684749	0.198421
	H26	H	0.111479	0.359562	0.768376
	H27	H	0.912373	0.684576	0.770060
	H28	H	0.226833	0.924538	0.319207
	H29	H	0.220917	0.116205	0.650332
	H30	H	0.799635	0.120253	0.318525
	H31	H	0.797647	0.925187	0.648067
	H32	H	0.348918	0.238699	0.883680
	H33	H	0.674767	0.235945	0.084023
	H34	H	0.346906	0.806986	0.087279
	H35	H	0.674612	0.803844	0.882122
	H36	H	0.346707	0.926614	0.198762
	H37	H	0.677940	0.114805	0.192966
	H38	H	0.346210	0.117823	0.773398
	H39	H	0.676015	0.923468	0.769512
	H40	H	0.911521	0.238529	0.320631
	H41	H	0.111069	0.237207	0.647548
	H42	H	0.115916	0.805151	0.320249
	H43	H	0.910922	0.807419	0.647815
	H44	H	0.228374	0.359450	0.884119
	H45	H	0.224474	0.684079	0.081487
	H46	H	0.795771	0.359069	0.085362
	H47	H	0.795210	0.684087	0.886888
	H48	H	0.417978	0.136671	0.578080
	H49	H	0.602986	0.906871	0.575933
	H50	H	0.605667	0.138324	0.388179
	H51	H	0.423001	0.906584	0.388729
	H52	H	0.593455	0.431454	0.098356
	H53	H	0.597291	0.606729	0.871007
	H54	H	0.424964	0.619959	0.101146
	H55	H	0.417518	0.431058	0.866716
	H56	H	0.128692	0.613338	0.389478
	H57	H	0.893116	0.611330	0.586084
	H58	H	0.129672	0.431023	0.583192
	H59	H	0.890517	0.431022	0.383526
	H60	H	0.130187	0.419758	0.571954
	H61	H	0.891985	0.626838	0.574210
	H62	H	0.128999	0.616354	0.392940
	H63	H	0.892349	0.419429	0.401767
	H64	H	0.409272	0.617407	0.105620
	H65	H	0.599569	0.622190	0.866258
	H66	H	0.601517	0.417716	0.105559
	H67	H	0.425026	0.429661	0.869193
	H68	H	0.604414	0.135696	0.389661
	H69	H	0.605737	0.907061	0.574907
	H70	H	0.416066	0.137248	0.576323
	H71	H	0.422126	0.908292	0.395993
	H72	H	0.914201	0.643067	0.096092
	H73	H	0.110068	0.403065	0.079673
	H74	H	0.100872	0.635111	0.895690
	H75	H	0.921347	0.408502	0.898087
	H76	H	0.108449	0.935125	0.601296
	H77	H	0.109468	0.117388	0.363675
	H78	H	0.922234	0.116834	0.601764
	H79	H	0.931274	0.923523	0.366837
	H80	H	0.626930	0.105683	0.889779
	H81	H	0.395598	0.109708	0.075760
	H82	H	0.625461	0.935903	0.072900
	H83	H	0.393794	0.925597	0.897609
	H84	H	0.633052	0.923183	0.086443
	H85	H	0.391963	0.117103	0.082243
	H86	H	0.632652	0.118564	0.886318
	H87	H	0.395861	0.932840	0.894635
	H88	H	0.914882	0.117320	0.602705
	H89	H	0.103683	0.109288	0.368183
	H90	H	0.093017	0.930160	0.597987
	H91	H	0.912835	0.925451	0.361784
	H92	H	0.111472	0.639296	0.890368
	H93	H	0.097809	0.406616	0.082636
	H94	H	0.931151	0.631403	0.070995
	H95	H	0.911795	0.403422	0.891251
	H96	H	0.416021	0.137947	0.578504
	H97	H	0.604991	0.906599	0.576618
	H98	H	0.606236	0.138032	0.390784
	H99	H	0.416396	0.904508	0.391677
	H100	H	0.610055	0.432647	0.103189
	H101	H	0.611830	0.612077	0.865953
	H102	H	0.418886	0.605817	0.098903
	H103	H	0.420692	0.424672	0.866111
	H104	H	0.126932	0.612237	0.393508
	H105	H	0.898780	0.610367	0.567254
	H106	H	0.124241	0.433671	0.568847
	H107	H	0.898674	0.440324	0.401381
	H108	H	0.899764	0.638571	0.067564
	H109	H	0.103020	0.408193	0.070663
	H110	H	0.101252	0.638693	0.883899
	H111	H	0.923108	0.405903	0.886043
	H112	H	0.104848	0.919347	0.604892
	H113	H	0.099369	0.118881	0.366405
	H114	H	0.917595	0.111150	0.601630
	H115	H	0.922862	0.940219	0.369132
	H116	H	0.627323	0.116468	0.899863
	H117	H	0.394196	0.119186	0.072171
	H118	H	0.628928	0.916691	0.067922
	H119	H	0.392651	0.927604	0.889391
	C120	C	0.388449	0.030236	0.607248
	C121	C	0.632954	1.013802	0.605195
	C122	C	0.634761	0.030360	0.360602
	C123	C	0.390756	1.013541	0.363122
	C124	C	0.632458	0.399098	-0.006560
	C125	C	0.630820	0.641814	0.976625
	C126	C	0.389076	0.643212	-0.006966
	C127	C	0.390501	0.399810	0.976065
	C128	C	0.019919	0.643740	0.363348
	C129	C	1.003071	0.643745	0.605113
	C130	C	0.019851	0.400143	0.605579
	C131	C	1.001841	0.400690	0.364247
	C132	C	0.887365	0.530159	0.107792
	C133	C	0.131828	0.513293	0.105757
	C134	C	0.133758	0.530485	0.861418
	C135	C	0.889555	0.513472	0.863427
	C136	C	0.133749	0.899172	0.493046
	C137	C	0.132409	0.143113	0.475290
	C138	C	0.889771	0.143842	0.492913
	C139	C	0.892178	0.901453	0.474938
	C140	C	0.520456	0.142604	0.863240
	C141	C	0.503066	0.142523	0.104784
	C142	C	0.520083	0.898536	0.105965
	C143	C	0.502577	0.899254	0.863430
	C144	C	0.391481	0.907995	0.663064
	C145	C	0.630087	0.135609	0.661222
	C146	C	0.632267	0.907572	0.305927
	C147	C	0.392564	0.135936	0.307306
	C148	C	0.689327	0.402098	0.869574
	C149	C	0.684850	0.639038	0.101036
	C150	C	0.334492	0.641491	0.868831
	C151	C	0.334234	0.402682	0.100112
	C152	C	0.897421	0.702239	0.363708
	C153	C	0.125921	0.699104	0.604542
	C154	C	0.896932	0.343923	0.606937
	C155	C	0.125027	0.343599	0.362740
	C156	C	0.895910	0.403335	0.662126
	C157	C	0.126689	0.639533	0.659941
	C158	C	0.895864	0.642647	0.308861
	C159	C	0.125950	0.403612	0.307921
	C160	C	0.389494	0.700893	0.870161
	C161	C	0.629283	0.697828	0.099990
	C162	C	0.633543	0.343423	0.869880
	C163	C	0.390307	0.343826	0.099611
	C164	C	0.691356	0.908113	0.362518
	C165	C	0.687491	0.135993	0.602723
	C166	C	0.333289	0.908085	0.605933
	C167	C	0.334448	0.135805	0.365328
	C168	C	0.891140	0.408018	0.163557
	C169	C	0.128790	0.636170	0.160568
	C170	C	0.131784	0.407872	0.806511
	C171	C	0.891618	0.635915	0.808094
	C172	C	0.189666	0.902720	0.368756
	C173	C	0.185409	0.138458	0.600135
	C174	C	0.836307	0.141049	0.368342
	C175	C	0.835819	0.904302	0.599051
	C176	C	0.397338	0.199584	0.864311
	C177	C	0.626557	0.197128	0.103038
	C178	C	0.396129	0.844840	0.105848
	C179	C	0.626041	0.843142	0.863408
	C180	C	0.395929	0.903997	0.161563
	C181	C	0.627933	0.137177	0.157379
	C182	C	0.395912	0.139575	0.809642
	C183	C	0.626758	0.902614	0.807721
	C184	C	0.891385	0.200023	0.369511
	C185	C	0.130488	0.198342	0.598894
	C186	C	0.134680	0.843443	0.369399
	C187	C	0.892081	0.845707	0.598835
	C188	C	0.190046	0.408041	0.863714
	C189	C	0.186719	0.635736	0.102706
	C190	C	0.833281	0.407660	0.105596
	C191	C	0.833562	0.635692	0.866078
	C192	C	0.410269	0.115226	0.584400
	C193	C	0.610967	0.928821	0.582491
	C194	C	0.611998	0.115390	0.382908
	C195	C	0.413536	0.928502	0.385667
	C196	C	0.608652	0.420901	0.079862
	C197	C	0.609167	0.619901	0.890037
	C198	C	0.411083	0.620847	0.079592
	C199	C	0.414121	0.422074	0.889730
	C200	C	0.105986	0.620646	0.385539
	C201	C	0.916700	0.622305	0.582523
	C202	C	0.105837	0.422011	0.581619
	C203	C	0.916033	0.423555	0.388544
	C204	C	0.908814	0.615700	0.085010
	C205	C	0.110212	0.428063	0.084051
	C206	C	0.111177	0.615601	0.883359
	C207	C	0.911943	0.428092	0.885376
	C208	C	0.109244	0.921541	0.579156
	C209	C	0.110619	0.121440	0.388325
	C210	C	0.911719	0.121673	0.579656
	C211	C	0.915475	0.923318	0.388410
	C212	C	0.606720	0.120170	0.885447
	C213	C	0.416458	0.121535	0.082986
	C214	C	0.606845	0.919255	0.082760
	C215	C	0.416211	0.921916	0.886851
	Zn216	Zn	0.510934	0.021434	0.735289
	Zn217	Zn	0.512117	0.021918	0.232892
	Zn218	Zn	0.759418	0.521412	-0.014491
	Zn219	Zn	0.261586	0.521375	-0.015738
	Zn220	Zn	0.012283	0.772507	0.483712
	Zn221	Zn	0.010972	0.271390	0.484515
	Zn222	Zn	0.010982	0.521838	0.733530
	Zn223	Zn	0.010533	0.522317	0.236122
	Zn224	Zn	0.510588	0.770544	-0.015330
	Zn225	Zn	0.511798	0.271263	-0.015572
	Zn226	Zn	0.763013	0.021955	0.483304
	Zn227	Zn	0.260276	0.021174	0.484658
	N228	N	0.425157	0.984720	0.663929
	N229	N	0.596840	0.058594	0.662928
	N230	N	0.597686	0.984407	0.304846
	N231	N	0.426770	0.059045	0.305745
	N232	N	0.688812	0.436006	0.947461
	N233	N	0.686048	0.604900	0.023335
	N234	N	0.334203	0.605906	0.946055
	N235	N	0.334077	0.436726	0.022339
	N236	N	0.975499	0.703050	0.396737
	N237	N	0.048129	0.701658	0.570997
	N238	N	0.974864	0.341711	0.572514
	N239	N	0.046862	0.341934	0.397229
	N240	N	0.973322	0.437691	0.661525
	N241	N	0.048924	0.606033	0.660504
	N242	N	0.972880	0.606730	0.308677
	N243	N	0.048580	0.438504	0.308827
	N244	N	0.422533	0.701999	0.948489
	N245	N	0.596357	0.699478	0.021647
	N246	N	0.598889	0.341400	0.947921
	N247	N	0.424785	0.341972	0.021412
	N248	N	0.693084	0.985248	0.395890
	N249	N	0.689280	0.059313	0.568410
	N250	N	0.331119	0.985027	0.571825
	N251	N	0.333249	0.058925	0.399498
	N252	N	0.923727	0.485374	0.165251
	N253	N	0.095353	0.559265	0.162676
	N254	N	0.097715	0.484891	0.804764
	N255	N	0.925445	0.558874	0.806166
	N256	N	0.189330	0.936573	0.446634
	N257	N	0.186521	0.104707	0.522128
	N258	N	0.835029	0.106945	0.446223
	N259	N	0.836014	0.938271	0.521115
	N260	N	0.475650	0.201435	0.897029
	N261	N	0.547899	0.200518	0.071181
	N262	N	0.474269	0.841597	0.071808
	N263	N	0.547818	0.841157	0.897324
	N264	N	0.474085	0.936611	0.161909
	N265	N	0.550170	0.103732	0.158574
	N266	N	0.473452	0.104862	0.808803
	N267	N	0.548911	0.936709	0.807654
	N268	N	0.923991	0.201736	0.448043
	N269	N	0.098280	0.201110	0.520213
	N270	N	0.100907	0.840953	0.447771
	N271	N	0.926428	0.844005	0.520547
	N272	N	0.191523	0.485197	0.897029
	N273	N	0.188887	0.558533	0.069496
	N274	N	0.830760	0.484686	0.071997
	N275	N	0.832183	0.558588	0.899840
	O276	O	0.405369	0.508981	0.570996
	H277	H	0.402519	0.499475	0.570881
	H278	H	0.390472	0.514874	0.563237
	O279	O	0.499356	0.591836	0.441854
	H280	H	0.507231	0.602470	0.461179
	H281	H	0.502687	0.579037	0.445979
	O282	O	0.673253	0.529100	0.519221
	H283	H	0.683473	0.511166	0.519860
	H284	H	0.644623	0.536675	0.517087
	O285	O	0.389868	0.653329	1.374228
	H286	H	0.400940	0.647273	1.366597
	H287	H	0.396811	0.660324	1.364804
	O288	O	0.538790	0.545454	0.386147
	H289	H	0.551260	0.547741	0.394259
	H290	H	0.543407	0.549569	0.387091
	O291	O	-0.471455	-0.553277	1.411898
	H292	H	-0.473296	-0.542733	1.406684
	H293	H	-0.471646	-0.563972	1.421869
	O294	O	0.472432	0.630077	0.510267
	H295	H	0.474348	0.632989	0.499435
	H296	H	0.474668	0.629614	0.491382
	O297	O	0.544754	0.408635	0.456037
	H298	H	0.535726	0.407313	0.460560
	H299	H	0.545578	0.414835	0.463102
	O300	O	0.583760	0.583875	0.474079
	H301	H	0.596823	0.584431	0.469583
	H302	H	0.577129	0.583664	0.478601
	O303	O	0.419963	0.491215	0.408652
	H304	H	0.424276	0.490462	0.404943
	H305	H	0.416759	0.509941	0.420057
	O306	O	0.620488	-0.559096	1.461699
	H307	H	0.623356	-0.560351	1.453484
	H308	H	0.613447	-0.564516	1.462140
	O309	O	-0.418282	0.484729	0.529334
	H310	H	-0.429613	0.481052	0.517367
	H311	H	-0.425031	0.463604	0.534225
	O312	O	0.403033	0.537077	0.562576
	H313	H	0.419565	0.530766	0.568900
	H314	H	0.395458	0.551596	0.538095
	O315	O	0.477677	0.437168	1.524783
	H316	H	0.476189	0.430770	1.514036
	H317	H	0.479900	0.435846	1.532604
	O318	O	-0.469891	-0.379151	0.349424
	H319	H	-0.471745	-0.378959	0.335198
	H320	H	-0.471527	-0.370667	0.345627
	O321	O	0.458884	0.584336	0.608121
	H322	H	0.442443	0.590350	0.617984
	H323	H	0.452416	0.597540	0.600230
	O324	O	1.521962	-0.625526	-0.551615
	H325	H	1.525176	-0.627455	-0.538994
	H326	H	1.524255	-0.616399	-0.548807
	O327	O	0.590371	0.501799	0.473302
	H328	H	0.579747	0.495432	0.475120
	H329	H	0.606074	0.501045	0.476019
	O330	O	0.579721	0.581103	0.564163
	H331	H	0.588660	0.568000	0.572989
	H332	H	0.587015	0.592743	0.570311
	O333	O	0.532650	-0.356699	0.541363
	H334	H	0.523895	-0.366365	0.555326
	H335	H	0.530396	-0.357679	0.554838
