data_Molecule from HDF5

_cell_length_a		16.544372
_cell_length_b		16.417893
_cell_length_c		16.299121
_cell_angle_alpha	90.014012
_cell_angle_beta	90.021678
_cell_angle_gamma	89.938571
_symmetry_space_group_name_H-M	'P 1'
_symmetry_Int_Tables_number		1

loop_
	_symmetry_equiv_pos_as_xyz
	x,y,z

loop_
	_atom_site_label
	_atom_site_type_symbol
	_atom_site_fract_x
	_atom_site_fract_y
	_atom_site_fract_z
	H0	H	0.388007	0.839039	0.716762
	H1	H	0.598473	0.155896	0.717200
	H2	H	0.596783	0.839173	0.275211
	H3	H	0.387846	0.155195	0.270716
	H4	H	0.719231	0.385723	0.837060
	H5	H	0.717251	0.604362	0.152798
	H6	H	0.270064	0.605369	0.836155
	H7	H	0.270049	0.389635	0.153064
	H8	H	0.838492	0.723834	0.385885
	H9	H	0.149531	0.725177	0.605325
	H10	H	0.839268	0.273396	0.602859
	H11	H	0.150616	0.273254	0.384660
	H12	H	0.836543	0.393620	0.715405
	H13	H	0.148309	0.610890	0.722989
	H14	H	0.838207	0.605338	0.270472
	H15	H	0.152813	0.393524	0.273608
	H16	H	0.387114	0.719746	0.834798
	H17	H	0.601431	0.720055	0.151736
	H18	H	0.600867	0.273020	0.836979
	H19	H	0.387414	0.275481	0.154317
	H20	H	0.719039	0.843367	0.384934
	H21	H	0.715788	0.156030	0.602651
	H22	H	0.269566	0.840734	0.603395
	H23	H	0.270105	0.155123	0.383825
	H24	H	0.893142	0.338481	0.214338
	H25	H	0.099000	0.657244	0.213734
	H26	H	0.098378	0.340860	0.772024
	H27	H	0.886411	0.656170	0.773150
	H28	H	0.215565	0.891745	0.335293
	H29	H	0.217796	0.107367	0.652230
	H30	H	0.771835	0.106232	0.334519
	H31	H	0.771327	0.893604	0.653584
	H32	H	0.335872	0.218298	0.890204
	H33	H	0.650946	0.220120	0.103091
	H34	H	0.338308	0.772237	0.101594
	H35	H	0.651947	0.773781	0.886615
	H36	H	0.336816	0.891757	0.215102
	H37	H	0.652215	0.101081	0.215109
	H38	H	0.335019	0.100616	0.774587
	H39	H	0.652179	0.892249	0.773160
	H40	H	0.891123	0.218324	0.333704
	H41	H	0.097353	0.217493	0.654368
	H42	H	0.098133	0.779071	0.335147
	H43	H	0.889328	0.779689	0.654291
	H44	H	0.214454	0.340175	0.886590
	H45	H	0.219100	0.653968	0.103300
	H46	H	0.773261	0.339001	0.102168
	H47	H	0.767692	0.653553	0.885486
	H48	H	0.404113	0.112726	0.588294
	H49	H	0.580842	0.884724	0.584117
	H50	H	0.584652	0.113362	0.406047
	H51	H	0.398821	0.883286	0.406507
	H52	H	0.582281	0.406715	0.108069
	H53	H	0.582129	0.577549	0.882012
	H54	H	0.403193	0.578356	0.106503
	H55	H	0.401378	0.410976	0.881710
	H56	H	0.106992	0.589708	0.406394
	H57	H	0.880154	0.596766	0.579511
	H58	H	0.104226	0.413068	0.580830
	H59	H	0.883139	0.410096	0.407440
	H60	H	0.106527	0.410508	0.584025
	H61	H	0.886230	0.583523	0.576519
	H62	H	0.106517	0.588955	0.406003
	H63	H	0.882592	0.411291	0.403468
	H64	H	0.414318	0.581785	0.104219
	H65	H	0.578065	0.584414	0.881641
	H66	H	0.586499	0.408423	0.109702
	H67	H	0.407620	0.409346	0.882236
	H68	H	0.580832	0.112769	0.403252
	H69	H	0.581824	0.886585	0.577674
	H70	H	0.411215	0.107147	0.580480
	H71	H	0.407655	0.885460	0.402791
	H72	H	0.911316	0.607816	0.078990
	H73	H	0.083792	0.385296	0.079444
	H74	H	0.073242	0.607485	0.911531
	H75	H	0.911255	0.386436	0.907045
	H76	H	0.083253	0.912654	0.608724
	H77	H	0.091994	0.079028	0.379747
	H78	H	0.907177	0.085045	0.606696
	H79	H	0.896954	0.912371	0.377856
	H80	H	0.604846	0.083798	0.907907
	H81	H	0.385190	0.081935	0.077983
	H82	H	0.608363	0.905599	0.084862
	H83	H	0.384108	0.911789	0.906028
	H84	H	0.605503	0.906439	0.080405
	H85	H	0.380930	0.083154	0.087811
	H86	H	0.606673	0.085618	0.903569
	H87	H	0.379801	0.905013	0.902978
	H88	H	0.904626	0.088775	0.608600
	H89	H	0.073610	0.081946	0.385122
	H90	H	0.083293	0.913216	0.608191
	H91	H	0.908097	0.919080	0.384392
	H92	H	0.089716	0.610799	0.916010
	H93	H	0.086951	0.382881	0.084350
	H94	H	0.899589	0.610677	0.076017
	H95	H	0.902502	0.385072	0.909796
	H96	H	0.400640	0.110034	0.577538
	H97	H	0.587409	0.884493	0.580913
	H98	H	0.580825	0.111078	0.407487
	H99	H	0.405615	0.887109	0.411775
	H100	H	0.582717	0.411274	0.107993
	H101	H	0.585698	0.584950	0.879420
	H102	H	0.406205	0.589016	0.109221
	H103	H	0.403272	0.405016	0.879313
	H104	H	0.107108	0.589876	0.405456
	H105	H	0.880782	0.585975	0.589881
	H106	H	0.106221	0.409050	0.579986
	H107	H	0.882150	0.407509	0.404712
	H108	H	0.904389	0.612992	0.087463
	H109	H	0.080400	0.384363	0.085141
	H110	H	0.084145	0.614887	0.899842
	H111	H	0.904873	0.383078	0.902051
	H112	H	0.082446	0.912276	0.608699
	H113	H	0.083450	0.096063	0.376062
	H114	H	0.901884	0.084565	0.607399
	H115	H	0.909760	0.905586	0.379794
	H116	H	0.606634	0.088752	0.907490
	H117	H	0.380534	0.091515	0.080538
	H118	H	0.606614	0.910469	0.084266
	H119	H	0.383202	0.905364	0.910711
	C120	C	0.372178	0.006088	0.615857
	C121	C	0.615121	0.989654	0.615058
	C122	C	0.614410	0.007595	0.372923
	C123	C	0.371553	0.989331	0.372569
	C124	C	0.616256	0.375052	0.003791
	C125	C	0.615698	0.616801	0.985456
	C126	C	0.373831	0.617415	0.002184
	C127	C	0.371793	0.375735	0.986162
	C128	C	0.003090	0.621571	0.372602
	C129	C	0.984988	0.622925	0.617533
	C130	C	0.002249	0.377588	0.614876
	C131	C	0.986448	0.376973	0.372699
	C132	C	0.873546	0.505984	0.115300
	C133	C	0.116339	0.488701	0.115956
	C134	C	0.114687	0.506878	0.874200
	C135	C	0.872256	0.488845	0.872845
	C136	C	0.114912	0.879251	0.503328
	C137	C	0.116052	0.119485	0.485229
	C138	C	0.872377	0.119531	0.502379
	C139	C	0.872261	0.879154	0.485826
	C140	C	0.501970	0.118455	0.873631
	C141	C	0.485906	0.118326	0.115815
	C142	C	0.503054	0.874425	0.115865
	C143	C	0.486017	0.874625	0.872691
	C144	C	0.369181	0.886899	0.677001
	C145	C	0.616773	0.108327	0.676852
	C146	C	0.616287	0.887383	0.313803
	C147	C	0.369473	0.107804	0.310792
	C148	C	0.677961	0.369776	0.884543
	C149	C	0.676802	0.621295	0.104776
	C150	C	0.311498	0.622141	0.883286
	C151	C	0.310676	0.372111	0.105659
	C152	C	0.885355	0.682833	0.368589
	C153	C	0.102171	0.684954	0.622576
	C154	C	0.885351	0.315140	0.619645
	C155	C	0.104115	0.314915	0.368393
	C156	C	0.884156	0.375005	0.675780
	C157	C	0.101545	0.627589	0.681319
	C158	C	0.885432	0.624197	0.310769
	C159	C	0.105197	0.374873	0.312762
	C160	C	0.369746	0.679431	0.882805
	C161	C	0.619213	0.679132	0.104465
	C162	C	0.618977	0.313497	0.884463
	C163	C	0.369133	0.315280	0.106131
	C164	C	0.676698	0.889609	0.368449
	C165	C	0.675540	0.108522	0.619923
	C166	C	0.310448	0.887787	0.620296
	C167	C	0.310947	0.107885	0.367665
	C168	C	0.873417	0.386284	0.175387
	C169	C	0.118275	0.608632	0.175449
	C170	C	0.116847	0.388491	0.812231
	C171	C	0.868422	0.608338	0.812428
	C172	C	0.175334	0.875046	0.383392
	C173	C	0.176979	0.123895	0.604668
	C174	C	0.812152	0.123335	0.382365
	C175	C	0.811719	0.875751	0.605740
	C176	C	0.383383	0.178564	0.871363
	C177	C	0.603835	0.179529	0.120089
	C178	C	0.385125	0.813393	0.119021
	C179	C	0.604470	0.814012	0.869022
	C180	C	0.384470	0.872640	0.175803
	C181	C	0.604610	0.120080	0.176001
	C182	C	0.382839	0.119692	0.814174
	C183	C	0.604783	0.873085	0.812424
	C184	C	0.871574	0.179264	0.381940
	C185	C	0.117314	0.179189	0.605689
	C186	C	0.116683	0.818944	0.383108
	C187	C	0.870697	0.819151	0.606126
	C188	C	0.175072	0.388125	0.869286
	C189	C	0.177596	0.607370	0.119796
	C190	C	0.813954	0.386569	0.119264
	C191	C	0.809179	0.606724	0.868445
	C192	C	0.397978	0.088465	0.589793
	C193	C	0.590341	0.906884	0.588654
	C194	C	0.589279	0.090708	0.398304
	C195	C	0.396882	0.906737	0.399283
	C196	C	0.591057	0.401394	0.086952
	C197	C	0.589472	0.590039	0.902538
	C198	C	0.400347	0.590673	0.085001
	C199	C	0.396991	0.401104	0.902813
	C200	C	0.085447	0.596618	0.398637
	C201	C	0.903508	0.596326	0.590007
	C202	C	0.084290	0.403420	0.588871
	C203	C	0.904181	0.402305	0.398285
	C204	C	0.898000	0.588799	0.088597
	C205	C	0.091084	0.405748	0.090339
	C206	C	0.089373	0.589473	0.901215
	C207	C	0.898654	0.406447	0.898814
	C208	C	0.090123	0.905214	0.586743
	C209	C	0.090389	0.093417	0.401919
	C210	C	0.897256	0.093643	0.585850
	C211	C	0.897546	0.905016	0.402353
	C212	C	0.584451	0.093352	0.898913
	C213	C	0.403715	0.092832	0.089525
	C214	C	0.585309	0.899991	0.090426
	C215	C	0.403831	0.900020	0.899054
	Zn216	Zn	0.493833	-0.003358	0.744079
	Zn217	Zn	0.493901	-0.002844	0.244279
	Zn218	Zn	0.744320	0.496210	-0.005484
	Zn219	Zn	0.244209	0.497305	-0.005508
	Zn220	Zn	-0.005787	0.751239	0.494602
	Zn221	Zn	-0.005403	0.247403	0.493968
	Zn222	Zn	-0.006626	0.499121	0.744450
	Zn223	Zn	-0.004913	0.498355	0.243876
	Zn224	Zn	0.494763	0.745553	-0.006286
	Zn225	Zn	0.493489	0.247838	-0.004302
	Zn226	Zn	0.743052	-0.000443	0.493718
	Zn227	Zn	0.243700	-0.001174	0.494453
	N228	N	0.407049	0.961359	0.674359
	N229	N	0.580045	0.033323	0.673959
	N230	N	0.578272	0.961640	0.316518
	N231	N	0.406405	0.032893	0.313550
	N232	N	0.676429	0.407175	0.959915
	N233	N	0.674775	0.583289	0.029675
	N234	N	0.313827	0.584458	0.958659
	N235	N	0.312177	0.408948	0.029997
	N236	N	0.959675	0.681427	0.406168
	N237	N	0.028595	0.681991	0.583469
	N238	N	0.959811	0.316752	0.582496
	N239	N	0.029266	0.316137	0.405050
	N240	N	0.957901	0.413398	0.672830
	N241	N	0.027619	0.589753	0.678278
	N242	N	0.959762	0.587001	0.313028
	N243	N	0.031204	0.412947	0.315357
	N244	N	0.408046	0.676335	0.957544
	N245	N	0.581891	0.676329	0.029223
	N246	N	0.581177	0.316545	0.959480
	N247	N	0.406828	0.317705	0.031035
	N248	N	0.675791	0.965401	0.404448
	N249	N	0.674492	0.033663	0.582111
	N250	N	0.312247	0.962867	0.582888
	N251	N	0.312275	0.033138	0.405394
	N252	N	0.909692	0.461731	0.173083
	N253	N	0.080796	0.533948	0.173133
	N254	N	0.080388	0.463622	0.814759
	N255	N	0.906853	0.534199	0.814944
	N256	N	0.174451	0.911614	0.459271
	N257	N	0.176691	0.088226	0.528469
	N258	N	0.812522	0.086916	0.458338
	N259	N	0.812335	0.912016	0.529672
	N260	N	0.458470	0.178032	0.907508
	N261	N	0.528800	0.178694	0.083683
	N262	N	0.459908	0.814595	0.082508
	N263	N	0.529572	0.814771	0.905482
	N264	N	0.458969	0.909720	0.174251
	N265	N	0.530270	0.082866	0.173534
	N266	N	0.457686	0.083218	0.815258
	N267	N	0.530026	0.909780	0.814333
	N268	N	0.908207	0.177102	0.457630
	N269	N	0.080207	0.176658	0.530232
	N270	N	0.080108	0.820976	0.458841
	N271	N	0.907443	0.821128	0.530603
	N272	N	0.173818	0.462922	0.907161
	N273	N	0.176683	0.531680	0.083871
	N274	N	0.813805	0.462008	0.082884
	N275	N	0.811219	0.531404	0.905181
	O276	O	0.682830	0.698206	0.503196
	H277	H	0.683750	0.703005	0.538677
	H278	H	0.699001	0.717789	0.516037
	O279	O	0.932252	-0.025770	0.947567
	H280	H	0.933046	-0.020625	0.938517
	H281	H	0.927013	-0.030208	0.947422
	O282	O	0.611993	0.327184	0.436163
	H283	H	0.608528	0.334940	0.458613
	H284	H	0.626918	0.361083	0.434210
	O285	O	0.472039	0.704909	0.283876
	H286	H	0.476886	0.719727	0.286145
	H287	H	0.464185	0.702898	0.272395
	O288	O	0.817785	0.805261	0.183460
	H289	H	0.808248	0.834999	0.174657
	H290	H	0.807015	0.799555	0.202991
	O291	O	0.700824	0.540430	0.696981
	H292	H	0.719343	0.531480	0.718748
	H293	H	0.668065	0.524822	0.697457
	O294	O	0.186741	-0.191746	0.892221
	H295	H	0.196938	-0.177473	0.881157
	H296	H	0.159284	-0.184032	0.864935
	O297	O	0.271579	0.689159	0.476190
	H298	H	0.247367	0.713926	0.470579
	H299	H	0.280089	0.683661	0.429073
	O300	O	0.545200	0.562474	0.292927
	H301	H	0.526490	0.555884	0.288533
	H302	H	0.556536	0.562370	0.300455
	O303	O	0.457036	0.440083	0.333948
	H304	H	0.460493	0.431574	0.344167
	H305	H	0.445725	0.445581	0.325358
	O306	O	0.537381	0.607904	0.458779
	H307	H	0.527007	0.618616	0.462321
	H308	H	0.555190	0.613821	0.463819
	O309	O	0.517628	0.573678	0.447301
	H310	H	0.532932	0.585507	0.449911
	H311	H	0.517408	0.572139	0.448821
	O312	O	-0.005380	0.787671	0.819722
	H313	H	-0.019290	0.767351	0.827272
	H314	H	-0.007069	0.772434	0.833505
	O315	O	0.720876	0.517368	0.468032
	H316	H	0.716681	0.509703	0.471947
	H317	H	0.728902	0.517456	0.472890
	O318	O	1.149290	-0.010079	0.036406
	H319	H	1.142735	-0.018072	0.032179
	H320	H	1.144025	0.001960	0.064094
	O321	O	0.141039	0.018129	0.182899
	H322	H	0.149411	0.025953	0.197136
	H323	H	0.128984	0.012117	0.176252
	O324	O	0.688890	0.606427	0.316202
	H325	H	0.685668	0.607975	0.312317
	H326	H	0.671864	0.599105	0.337187
	O327	O	0.553779	0.289182	0.554075
	H328	H	0.547382	0.290301	0.572441
	H329	H	0.557749	0.295596	0.556682
	O330	O	-0.211999	0.790358	0.025775
	H331	H	-0.217238	0.777451	0.034635
	H332	H	-0.215598	0.787395	0.038289
	O333	O	0.706466	0.419716	0.283337
	H334	H	0.716915	0.425708	0.274042
	H335	H	0.712747	0.451555	0.295816
	O336	O	-0.021666	-0.209847	0.186868
	H337	H	-0.038445	-0.218237	0.189557
	H338	H	-0.027328	-0.229253	0.199168
	O339	O	-0.057615	1.047271	0.945420
	H340	H	-0.068644	1.072494	0.935688
	H341	H	-0.038695	1.047012	0.950258
	O342	O	0.013125	1.138280	1.195110
	H343	H	0.022392	1.140754	1.183641
	H344	H	-0.003897	1.131127	1.211037
	O345	O	1.170251	1.172344	0.168994
	H346	H	1.172201	1.168641	0.142494
	H347	H	1.153604	1.157448	0.177407
	O348	O	0.303369	0.685165	0.307975
	H349	H	0.325366	0.680879	0.303376
	H350	H	0.296257	0.659312	0.290323
	O351	O	0.200595	0.974586	0.817776
	H352	H	0.218877	0.994824	0.822106
	H353	H	0.210949	0.994520	0.825713
	O354	O	0.209014	0.890738	0.004586
	H355	H	0.211511	0.886766	0.011567
	H356	H	0.199679	0.877413	-0.013143
	O357	O	-0.052777	0.192744	0.824160
	H358	H	-0.063236	0.189132	0.806490
	H359	H	-0.051003	0.183750	0.828455
	O360	O	0.521951	0.470392	0.713092
	H361	H	0.502865	0.449963	0.701567
	H362	H	0.492349	0.470982	0.715643
	O363	O	-0.007064	-0.011786	0.786827
	H364	H	-0.008927	-0.041660	0.783178
	H365	H	0.018192	-0.012697	0.783870
	O366	O	0.284534	0.520555	0.286203
	H367	H	0.275983	0.506914	0.292552
	H368	H	0.268968	0.509355	0.283362
	O369	O	0.483178	0.571203	0.574568
	H370	H	0.486315	0.588511	0.576228
	H371	H	0.478144	0.574194	0.584031
	O372	O	1.071672	-0.196827	0.884548
	H373	H	1.077266	-0.176675	0.875873
	H374	H	1.054145	-0.203518	0.900274
	O375	O	0.488539	0.469161	0.505720
	H376	H	0.498157	0.481184	0.507207
	H377	H	0.498987	0.470407	0.493887
	O378	O	0.975061	1.185590	1.038887
	H379	H	0.951215	1.188951	1.039666
	H380	H	0.960264	1.182200	1.036305
	O381	O	0.543154	0.667113	0.695442
	H382	H	0.531443	0.669856	0.705975
	H383	H	0.523812	0.677310	0.690246
	O384	O	0.709275	0.286558	0.474579
	H385	H	0.684873	0.286623	0.466452
	H386	H	0.739051	0.272377	0.476380
	O387	O	0.140559	-0.155960	1.103699
	H388	H	0.147540	-0.153927	1.073157
	H389	H	0.140238	-0.146821	1.105913
	O390	O	0.191153	0.190420	0.004196
	H391	H	0.173298	0.177029	0.014884
	H392	H	0.199807	0.215904	0.013823
	O393	O	1.025273	0.992427	1.097193
	H394	H	1.014817	0.963659	1.088592
	H395	H	1.033356	1.002411	1.101206
	O396	O	0.785783	0.204548	0.005994
	H397	H	0.778146	0.214893	-0.030356
	H398	H	0.771310	0.227193	-0.005357
	O399	O	0.797842	0.013653	1.106459
	H400	H	0.816422	0.024809	1.098206
	H401	H	0.781566	0.027998	1.112925
	O402	O	1.144823	1.164414	0.851970
	H403	H	1.152443	1.158492	0.870758
	H404	H	1.128695	1.179876	0.854503
	O405	O	0.862299	1.029329	0.189628
	H406	H	0.861186	1.047404	0.197878
	H407	H	0.873351	1.024022	0.177794
	O408	O	0.951695	-0.141185	-0.073768
	H409	H	0.948721	-0.137209	-0.059035
	H410	H	0.954318	-0.142775	-0.053775
	O411	O	1.390021	1.304791	0.403043
	H412	H	1.407643	1.305992	0.400636
	H413	H	1.414507	1.299443	0.395497
	O414	O	0.438561	0.649335	0.652410
	H415	H	0.411780	0.634664	0.642254
	H416	H	0.437681	0.650218	0.652105
	O417	O	0.282017	0.569250	0.565483
	H418	H	0.285890	0.563331	0.536849
	H419	H	0.280641	0.590906	0.538216
	O420	O	0.467403	0.280074	0.682214
	H421	H	0.469721	0.247893	0.712089
	H422	H	0.428207	0.295746	0.675515
	O423	O	0.683674	0.683918	0.646996
	H424	H	0.688863	0.644002	0.663826
	H425	H	0.644521	0.687910	0.658639
	O426	O	0.494995	0.322233	0.281474
	H427	H	0.500058	0.308731	0.264560
	H428	H	0.517890	0.334651	0.290333
	O429	O	0.586999	0.569108	0.500077
	H430	H	0.586555	0.568815	0.516261
	H431	H	0.585782	0.579605	0.527349
	O432	O	0.273107	0.281487	0.516622
	H433	H	0.267947	0.259643	0.525838
	H434	H	0.285504	0.259212	0.503307
	O435	O	0.305219	0.309543	0.683515
	H436	H	0.294554	0.333518	0.668222
	H437	H	0.310877	0.323585	0.668269
	O438	O	-0.183571	0.135105	-0.147636
	H439	H	-0.184059	0.107041	-0.159070
	H440	H	-0.191015	0.139179	-0.160763
	O441	O	0.804979	0.008967	-0.154929
	H442	H	0.792671	0.007901	-0.158388
	H443	H	0.819677	-0.009012	-0.149591
	O444	O	-0.084322	0.975735	0.956136
	H445	H	-0.072852	0.969356	0.962919
	H446	H	-0.082021	0.974506	0.961113
	O447	O	0.703958	0.279298	0.721023
	H448	H	0.718751	0.291071	0.716271
	H449	H	0.701419	0.272244	0.703912
	O450	O	0.280099	0.476687	0.704427
	H451	H	0.261658	0.492301	0.690534
	H452	H	0.253229	0.486018	0.700624
	O453	O	0.288878	0.435391	0.446776
	H454	H	0.292209	0.421299	0.446733
	H455	H	0.302702	0.411550	0.451910
