data_Molecule from HDF5

_cell_length_a		16.104939
_cell_length_b		16.263846
_cell_length_c		16.338253
_cell_angle_alpha	90.128976
_cell_angle_beta	90.010787
_cell_angle_gamma	90.184476
_symmetry_space_group_name_H-M	'P 1'
_symmetry_Int_Tables_number		1

loop_
	_symmetry_equiv_pos_as_xyz
	x,y,z

loop_
	_atom_site_label
	_atom_site_type_symbol
	_atom_site_fract_x
	_atom_site_fract_y
	_atom_site_fract_z
	H0	H	0.405639	0.835420	0.718464
	H1	H	0.608716	0.161938	0.717925
	H2	H	0.606785	0.835776	0.285047
	H3	H	0.406753	0.162201	0.286303
	H4	H	0.719576	0.404316	0.837101
	H5	H	0.721537	0.598343	0.165055
	H6	H	0.294672	0.596702	0.837435
	H7	H	0.292953	0.401886	0.165562
	H8	H	0.841935	0.711722	0.402917
	H9	H	0.171606	0.713239	0.599949
	H10	H	0.840794	0.286617	0.597366
	H11	H	0.172662	0.285467	0.402673
	H12	H	0.841655	0.398765	0.715259
	H13	H	0.171452	0.598927	0.714707
	H14	H	0.842522	0.596774	0.287422
	H15	H	0.172765	0.401129	0.287353
	H16	H	0.408981	0.714605	0.838139
	H17	H	0.606704	0.715670	0.164663
	H18	H	0.607455	0.282533	0.838568
	H19	H	0.408026	0.284201	0.164989
	H20	H	0.719086	0.834144	0.404938
	H21	H	0.719055	0.163761	0.597062
	H22	H	0.294290	0.833480	0.597467
	H23	H	0.294519	0.163303	0.405700
	H24	H	0.906921	0.336505	0.215350
	H25	H	0.110506	0.662567	0.218684
	H26	H	0.107540	0.335765	0.784124
	H27	H	0.906439	0.662482	0.785283
	H28	H	0.219091	0.901251	0.337664
	H29	H	0.221267	0.096200	0.665848
	H30	H	0.795083	0.093897	0.337016
	H31	H	0.791980	0.901571	0.665031
	H32	H	0.341854	0.211767	0.904282
	H33	H	0.673611	0.212245	0.098928
	H34	H	0.342076	0.785190	0.099813
	H35	H	0.673391	0.786957	0.903417
	H36	H	0.342568	0.899001	0.215196
	H37	H	0.672112	0.099156	0.215544
	H38	H	0.341473	0.097875	0.787124
	H39	H	0.672652	0.900625	0.787798
	H40	H	0.908292	0.212306	0.337818
	H41	H	0.107919	0.216742	0.664608
	H42	H	0.105455	0.783646	0.338826
	H43	H	0.905990	0.783529	0.664832
	H44	H	0.220219	0.334968	0.904301
	H45	H	0.219711	0.665004	0.097296
	H46	H	0.794705	0.335660	0.096835
	H47	H	0.795646	0.664241	0.904664
	H48	H	0.413434	0.113902	0.590161
	H49	H	0.609048	0.880375	0.589350
	H50	H	0.604210	0.115469	0.412219
	H51	H	0.401770	0.878910	0.408750
	H52	H	0.599410	0.401750	0.118222
	H53	H	0.601408	0.591012	0.886019
	H54	H	0.410947	0.587232	0.115953
	H55	H	0.410636	0.413064	0.887222
	H56	H	0.125673	0.596600	0.415060
	H57	H	0.886218	0.591010	0.601478
	H58	H	0.124944	0.406143	0.592472
	H59	H	0.888601	0.405756	0.406431
	H60	H	0.123148	0.409155	0.592442
	H61	H	0.888254	0.596742	0.588841
	H62	H	0.122783	0.584043	0.410061
	H63	H	0.888918	0.404880	0.404994
	H64	H	0.422257	0.594481	0.115872
	H65	H	0.599269	0.595997	0.884824
	H66	H	0.604923	0.406531	0.119090
	H67	H	0.423547	0.402390	0.887554
	H68	H	0.603000	0.118261	0.401409
	H69	H	0.599263	0.877873	0.607478
	H70	H	0.412575	0.116805	0.599155
	H71	H	0.417106	0.879330	0.395037
	H72	H	0.916087	0.619126	0.101344
	H73	H	0.104073	0.385053	0.084317
	H74	H	0.090551	0.613766	0.904801
	H75	H	0.913880	0.382184	0.907793
	H76	H	0.096606	0.905709	0.617348
	H77	H	0.098794	0.090335	0.386857
	H78	H	0.910605	0.093625	0.619327
	H79	H	0.916749	0.904182	0.386532
	H80	H	0.627354	0.104340	0.915530
	H81	H	0.388684	0.090120	0.097806
	H82	H	0.628138	0.893831	0.087015
	H83	H	0.392249	0.908027	0.914969
	H84	H	0.619045	0.920130	0.085706
	H85	H	0.387563	0.095898	0.093607
	H86	H	0.618812	0.079598	0.915408
	H87	H	0.389011	0.911073	0.903395
	H88	H	0.915347	0.090925	0.616506
	H89	H	0.098201	0.095400	0.385846
	H90	H	0.100832	0.902843	0.619733
	H91	H	0.912893	0.901407	0.384954
	H92	H	0.103216	0.614690	0.915799
	H93	H	0.105645	0.378538	0.103524
	H94	H	0.922119	0.614632	0.093103
	H95	H	0.913248	0.381472	0.905915
	H96	H	0.421171	0.113107	0.596450
	H97	H	0.588054	0.886250	0.590829
	H98	H	0.593966	0.114015	0.407553
	H99	H	0.420865	0.885471	0.413983
	H100	H	0.597986	0.408682	0.115993
	H101	H	0.604138	0.595178	0.884534
	H102	H	0.410501	0.600472	0.121802
	H103	H	0.408512	0.398240	0.881920
	H104	H	0.128621	0.593992	0.401669
	H105	H	0.890964	0.583064	0.591331
	H106	H	0.124970	0.408270	0.595239
	H107	H	0.888183	0.404621	0.407006
	H108	H	0.911870	0.618023	0.091790
	H109	H	0.087805	0.386571	0.096175
	H110	H	0.105857	0.619664	0.899410
	H111	H	0.915859	0.382678	0.906074
	H112	H	0.101907	0.908406	0.618047
	H113	H	0.103166	0.092550	0.384774
	H114	H	0.915639	0.095836	0.618394
	H115	H	0.911304	0.906942	0.385186
	H116	H	0.629717	0.090577	0.894529
	H117	H	0.390473	0.089266	0.091318
	H118	H	0.629059	0.909750	0.109998
	H119	H	0.386959	0.899192	0.907445
	C120	C	0.386080	0.006706	0.623478
	C121	C	0.628137	0.990222	0.623220
	C122	C	0.628565	0.007480	0.379007
	C123	C	0.385109	0.989833	0.378620
	C124	C	0.629544	0.377387	0.009616
	C125	C	0.630361	0.622749	0.992989
	C126	C	0.386283	0.621610	0.009614
	C127	C	0.385507	0.377051	0.993846
	C128	C	0.016163	0.619666	0.380536
	C129	C	0.997700	0.620016	0.622354
	C130	C	0.015157	0.378520	0.621651
	C131	C	0.998375	0.377258	0.378593
	C132	C	0.887102	0.508676	0.122862
	C133	C	0.128733	0.491411	0.123069
	C134	C	0.129100	0.507951	0.878172
	C135	C	0.885898	0.490864	0.878854
	C136	C	0.127945	0.877107	0.510270
	C137	C	0.128998	0.121359	0.493752
	C138	C	0.885446	0.120579	0.509828
	C139	C	0.884451	0.876322	0.493230
	C140	C	0.515945	0.120349	0.879844
	C141	C	0.498707	0.120466	0.122734
	C142	C	0.515987	0.878598	0.122143
	C143	C	0.498940	0.878215	0.880473
	C144	C	0.386595	0.883639	0.679294
	C145	C	0.627536	0.113450	0.678810
	C146	C	0.626506	0.884299	0.323717
	C147	C	0.386720	0.113340	0.324141
	C148	C	0.683274	0.381759	0.886276
	C149	C	0.684524	0.619524	0.116216
	C150	C	0.331856	0.617977	0.886455
	C151	C	0.330443	0.380703	0.116513
	C152	C	0.891122	0.673582	0.383095
	C153	C	0.122217	0.675554	0.620111
	C154	C	0.890468	0.323313	0.618790
	C155	C	0.122988	0.322640	0.381882
	C156	C	0.890999	0.379384	0.677146
	C157	C	0.122110	0.618809	0.677212
	C158	C	0.891809	0.617033	0.325219
	C159	C	0.123370	0.380229	0.324603
	C160	C	0.388859	0.676470	0.886647
	C161	C	0.627635	0.677853	0.115934
	C162	C	0.627668	0.321212	0.887164
	C163	C	0.387504	0.322222	0.116344
	C164	C	0.682247	0.883398	0.383210
	C165	C	0.682694	0.114210	0.618864
	C166	C	0.331263	0.882632	0.619493
	C167	C	0.330968	0.113807	0.383558
	C168	C	0.887524	0.385370	0.177504
	C169	C	0.129060	0.614092	0.179760
	C170	C	0.127403	0.384719	0.822633
	C171	C	0.887218	0.613752	0.823794
	C172	C	0.182202	0.880400	0.386895
	C173	C	0.184029	0.118189	0.616611
	C174	C	0.831812	0.115461	0.386147
	C175	C	0.829568	0.880158	0.616361
	C176	C	0.391010	0.174435	0.883272
	C177	C	0.623629	0.175410	0.119905
	C178	C	0.391413	0.823240	0.119486
	C179	C	0.623794	0.824278	0.883359
	C180	C	0.391793	0.879531	0.177418
	C181	C	0.623008	0.118830	0.177664
	C182	C	0.390944	0.117510	0.825429
	C183	C	0.623399	0.880714	0.825687
	C184	C	0.887844	0.174556	0.386621
	C185	C	0.127413	0.177674	0.616189
	C186	C	0.125598	0.821884	0.387346
	C187	C	0.885884	0.821188	0.616078
	C188	C	0.183247	0.384145	0.882447
	C189	C	0.183322	0.615346	0.119315
	C190	C	0.831672	0.384912	0.118577
	C191	C	0.832334	0.614878	0.883403
	C192	C	0.409027	0.092502	0.601716
	C193	C	0.605470	0.903759	0.602045
	C194	C	0.606745	0.093722	0.400714
	C195	C	0.407062	0.903627	0.399482
	C196	C	0.607359	0.399183	0.095519
	C197	C	0.608018	0.600578	0.907327
	C198	C	0.408223	0.600321	0.095617
	C199	C	0.407787	0.398315	0.907822
	C200	C	0.103159	0.598063	0.402671
	C201	C	0.910913	0.597191	0.600336
	C202	C	0.102019	0.401010	0.599688
	C203	C	0.911218	0.398894	0.399879
	C204	C	0.909857	0.594757	0.101691
	C205	C	0.105887	0.405679	0.101074
	C206	C	0.106501	0.593812	0.900215
	C207	C	0.907813	0.404352	0.900297
	C208	C	0.106066	0.899037	0.596206
	C209	C	0.106577	0.099540	0.407984
	C210	C	0.907455	0.099591	0.595822
	C211	C	0.907088	0.897694	0.407779
	C212	C	0.602779	0.098023	0.901811
	C213	C	0.411494	0.098142	0.100627
	C214	C	0.603100	0.901029	0.100514
	C215	C	0.411858	0.899748	0.902148
	Zn216	Zn	0.507130	-0.001317	0.752163
	Zn217	Zn	0.507088	-0.000796	0.250181
	Zn218	Zn	0.758549	0.500308	0.001463
	Zn219	Zn	0.257041	0.499811	0.001406
	Zn220	Zn	0.006337	0.747719	0.501654
	Zn221	Zn	0.006331	0.250112	0.500927
	Zn222	Zn	0.006638	0.499120	0.749915
	Zn223	Zn	0.007906	0.499625	0.251791
	Zn224	Zn	0.508021	0.750786	0.001328
	Zn225	Zn	0.507442	0.247644	0.001755
	Zn226	Zn	0.756362	-0.001638	0.501282
	Zn227	Zn	0.257447	-0.001897	0.501779
	N228	N	0.419920	0.961705	0.681678
	N229	N	0.594507	0.035484	0.681477
	N230	N	0.593965	0.962403	0.321094
	N231	N	0.419587	0.035243	0.321046
	N232	N	0.684534	0.415819	0.963423
	N233	N	0.686417	0.586000	0.038851
	N234	N	0.330095	0.584793	0.963868
	N235	N	0.329230	0.414105	0.039168
	N236	N	0.969623	0.675736	0.416403
	N237	N	0.043969	0.676237	0.586408
	N238	N	0.968643	0.322730	0.584885
	N239	N	0.044252	0.320632	0.414711
	N240	N	0.969558	0.412921	0.678982
	N241	N	0.043749	0.584866	0.678629
	N242	N	0.970493	0.584173	0.323754
	N243	N	0.044844	0.413099	0.322347
	N244	N	0.421784	0.678952	0.964356
	N245	N	0.594678	0.679958	0.038287
	N246	N	0.594736	0.318546	0.964874
	N247	N	0.421047	0.319637	0.038968
	N248	N	0.683812	0.961111	0.416678
	N249	N	0.683033	0.036604	0.584801
	N250	N	0.330787	0.959975	0.585361
	N251	N	0.329584	0.036177	0.416613
	N252	N	0.921278	0.463086	0.180186
	N253	N	0.095801	0.536123	0.182048
	N254	N	0.094512	0.462721	0.819970
	N255	N	0.919950	0.535660	0.821218
	N256	N	0.183798	0.914120	0.464376
	N257	N	0.185375	0.084233	0.539513
	N258	N	0.830025	0.082686	0.463826
	N259	N	0.828383	0.913453	0.539161
	N260	N	0.469569	0.176336	0.916282
	N261	N	0.545090	0.176380	0.086300
	N262	N	0.469705	0.822638	0.085784
	N263	N	0.545480	0.822881	0.916960
	N264	N	0.470260	0.913460	0.178927
	N265	N	0.544383	0.085543	0.179389
	N266	N	0.469729	0.084827	0.823053
	N267	N	0.544712	0.913517	0.823693
	N268	N	0.920630	0.177775	0.464311
	N269	N	0.093824	0.179751	0.538669
	N270	N	0.092511	0.819801	0.464951
	N271	N	0.919573	0.818776	0.538571
	N272	N	0.184526	0.461755	0.916188
	N273	N	0.183237	0.538193	0.084534
	N274	N	0.831186	0.462650	0.085279
	N275	N	0.831356	0.537337	0.917047
	O276	O	0.999577	0.977846	-0.080974
	H277	H	1.006751	0.976243	-0.079791
	H278	H	1.001441	0.970658	-0.085040
	O279	O	-0.040280	-0.003563	0.111596
	H280	H	-0.042686	-0.006475	0.109116
	H281	H	-0.052110	0.002390	0.108376
	O282	O	0.000677	-0.016255	1.084960
	H283	H	0.000132	-0.022464	1.087629
	H284	H	-0.005358	-0.011026	1.082312
	O285	O	0.472294	0.417314	0.573210
	H286	H	0.472097	0.420492	0.575672
	H287	H	0.474178	0.418566	0.571121
	O288	O	0.453434	0.420943	0.579498
	H289	H	0.462056	0.414305	0.577509
	H290	H	0.442431	0.415655	0.594146
	O291	O	0.478397	0.419626	0.573220
	H292	H	0.473211	0.414942	0.581445
	H293	H	0.471290	0.419031	0.578670
	O294	O	0.006308	0.037945	-0.039669
	H295	H	0.014312	0.045132	-0.035288
	H296	H	0.005131	0.039467	-0.045489
	O297	O	0.083655	-0.017920	0.034797
	H298	H	0.084692	-0.010793	0.034634
	H299	H	0.095577	-0.010166	0.045004
	O300	O	0.032283	1.034607	1.062086
	H301	H	0.036217	1.041556	1.066531
	H302	H	0.024978	1.036151	1.067868
	O303	O	0.465583	0.405085	0.550520
	H304	H	0.465402	0.398400	0.544200
	H305	H	0.471651	0.407354	0.542969
	O306	O	-0.060513	0.002899	1.103705
	H307	H	-0.049426	0.002495	1.091527
	H308	H	-0.065425	-0.002774	1.101595
	O309	O	1.037974	1.070526	1.011346
	H310	H	1.037247	1.079781	1.015340
	H311	H	1.040736	1.063135	1.015683
	O312	O	0.497168	0.424261	0.544502
	H313	H	0.496063	0.424668	0.546827
	H314	H	0.500690	0.427575	0.544337
	O315	O	0.041361	1.040203	0.052030
	H316	H	0.031606	1.039620	0.050326
	H317	H	0.031405	1.036879	0.053227
	O318	O	0.058902	1.036491	0.057494
	H319	H	0.058913	1.027848	0.063122
	H320	H	0.073762	1.038911	0.066054
	O321	O	1.039748	1.024419	0.040920
	H322	H	1.036459	1.034210	0.043083
	H323	H	1.044848	1.023279	0.032787
