data_Molecule from HDF5

_cell_length_a		16.203404
_cell_length_b		16.238525
_cell_length_c		16.184597
_cell_angle_alpha	89.805218
_cell_angle_beta	90.277651
_cell_angle_gamma	89.829952
_symmetry_space_group_name_H-M	'P 1'
_symmetry_Int_Tables_number		1

loop_
	_symmetry_equiv_pos_as_xyz
	x,y,z

loop_
	_atom_site_label
	_atom_site_type_symbol
	_atom_site_fract_x
	_atom_site_fract_y
	_atom_site_fract_z
	H0	H	0.408069	0.829823	0.708107
	H1	H	0.605253	0.158459	0.707201
	H2	H	0.605324	0.829163	0.279186
	H3	H	0.407018	0.157359	0.279285
	H4	H	0.718769	0.395661	0.828479
	H5	H	0.720078	0.592230	0.157870
	H6	H	0.290033	0.593503	0.828032
	H7	H	0.293324	0.396849	0.157528
	H8	H	0.841651	0.708213	0.393861
	H9	H	0.169684	0.706136	0.592981
	H10	H	0.840839	0.278378	0.591193
	H11	H	0.170498	0.279237	0.395437
	H12	H	0.839816	0.395209	0.706544
	H13	H	0.169138	0.590611	0.708462
	H14	H	0.840510	0.592157	0.279434
	H15	H	0.169401	0.394971	0.279197
	H16	H	0.404056	0.710429	0.828965
	H17	H	0.604357	0.707732	0.157458
	H18	H	0.602908	0.280208	0.827500
	H19	H	0.406219	0.279326	0.156221
	H20	H	0.719591	0.829004	0.395725
	H21	H	0.722689	0.157211	0.593980
	H22	H	0.293429	0.828681	0.591010
	H23	H	0.289861	0.156083	0.391424
	H24	H	0.907326	0.329943	0.207133
	H25	H	0.102794	0.658516	0.206941
	H26	H	0.102928	0.330015	0.781920
	H27	H	0.905143	0.657995	0.777830
	H28	H	0.218590	0.894786	0.327166
	H29	H	0.221902	0.090091	0.657195
	H30	H	0.789692	0.092657	0.327908
	H31	H	0.793279	0.894439	0.658039
	H32	H	0.340093	0.207768	0.892780
	H33	H	0.668822	0.209399	0.093599
	H34	H	0.340547	0.780194	0.092491
	H35	H	0.668244	0.777954	0.893643
	H36	H	0.339981	0.897157	0.205398
	H37	H	0.669852	0.091129	0.207295
	H38	H	0.341455	0.094657	0.776518
	H39	H	0.670454	0.896854	0.781929
	H40	H	0.904351	0.208919	0.327974
	H41	H	0.105747	0.205618	0.657333
	H42	H	0.104251	0.778246	0.328605
	H43	H	0.909111	0.779313	0.657624
	H44	H	0.219374	0.330554	0.893971
	H45	H	0.218475	0.658829	0.091305
	H46	H	0.791019	0.330236	0.092161
	H47	H	0.788871	0.658264	0.892662
	H48	H	0.405215	0.114082	0.587875
	H49	H	0.599921	0.876010	0.588778
	H50	H	0.589876	0.107357	0.403281
	H51	H	0.408972	0.875806	0.406723
	H52	H	0.601202	0.410015	0.107995
	H53	H	0.596539	0.584813	0.876683
	H54	H	0.415555	0.590906	0.110416
	H55	H	0.410438	0.407976	0.876234
	H56	H	0.123435	0.597448	0.410594
	H57	H	0.887587	0.587619	0.582707
	H58	H	0.119413	0.409218	0.587454
	H59	H	0.884183	0.392873	0.396954
	H60	H	0.127282	0.394236	0.598693
	H61	H	0.888023	0.583128	0.584418
	H62	H	0.117783	0.571466	0.404756
	H63	H	0.891212	0.400769	0.410043
	H64	H	0.407428	0.589164	0.112584
	H65	H	0.593596	0.587994	0.876855
	H66	H	0.588402	0.397595	0.108036
	H67	H	0.417671	0.398372	0.875421
	H68	H	0.606024	0.110804	0.406153
	H69	H	0.598070	0.878203	0.587073
	H70	H	0.422418	0.109694	0.588979
	H71	H	0.407431	0.872148	0.392181
	H72	H	0.921599	0.608855	0.086823
	H73	H	0.087421	0.379039	0.092591
	H74	H	0.101922	0.613411	0.899929
	H75	H	0.906856	0.375375	0.899682
	H76	H	0.100639	0.889079	0.613468
	H77	H	0.092988	0.086841	0.376225
	H78	H	0.913378	0.088246	0.610241
	H79	H	0.916246	0.901673	0.377287
	H80	H	0.621086	0.083800	0.900176
	H81	H	0.390343	0.081503	0.082524
	H82	H	0.622058	0.897461	0.080595
	H83	H	0.388646	0.909400	0.897550
	H84	H	0.620006	0.907808	0.084992
	H85	H	0.385912	0.086940	0.091964
	H86	H	0.624406	0.089424	0.896662
	H87	H	0.385415	0.897852	0.895408
	H88	H	0.912768	0.082614	0.609532
	H89	H	0.100849	0.089511	0.373438
	H90	H	0.108603	0.905467	0.610871
	H91	H	0.913048	0.896605	0.374358
	H92	H	0.095217	0.612666	0.896855
	H93	H	0.100791	0.380453	0.074535
	H94	H	0.905886	0.610147	0.076826
	H95	H	0.915732	0.377228	0.897603
	H96	H	0.412435	0.107156	0.574115
	H97	H	0.601009	0.877061	0.585684
	H98	H	0.599576	0.112765	0.390800
	H99	H	0.420310	0.877111	0.397160
	H100	H	0.605162	0.394040	0.114408
	H101	H	0.597404	0.588531	0.874670
	H102	H	0.412599	0.583818	0.109233
	H103	H	0.405508	0.398167	0.871571
	H104	H	0.128969	0.587606	0.385539
	H105	H	0.887669	0.587025	0.587468
	H106	H	0.122383	0.391348	0.578951
	H107	H	0.888873	0.408466	0.394353
	H108	H	0.906640	0.615708	0.094757
	H109	H	0.109537	0.372658	0.093829
	H110	H	0.095180	0.610410	0.903792
	H111	H	0.913156	0.379362	0.906342
	H112	H	0.091276	0.903082	0.606258
	H113	H	0.099259	0.081471	0.376261
	H114	H	0.917492	0.085024	0.608402
	H115	H	0.908929	0.902479	0.374406
	H116	H	0.622824	0.089707	0.904187
	H117	H	0.386876	0.093587	0.081722
	H118	H	0.624649	0.898560	0.091527
	H119	H	0.389202	0.900459	0.906261
	C120	C	0.385149	0.001948	0.613389
	C121	C	0.628863	0.985331	0.616087
	C122	C	0.627050	0.001682	0.371794
	C123	C	0.383497	0.983747	0.370172
	C124	C	0.626461	0.372018	0.001364
	C125	C	0.625826	0.615595	0.984319
	C126	C	0.382748	0.616528	0.001773
	C127	C	0.383482	0.373083	0.983649
	C128	C	0.014329	0.614558	0.371665
	C129	C	0.996470	0.614014	0.614302
	C130	C	0.014095	0.370104	0.616300
	C131	C	0.997023	0.372278	0.372163
	C132	C	0.883240	0.503203	0.114707
	C133	C	0.127360	0.485672	0.115231
	C134	C	0.126212	0.503253	0.871975
	C135	C	0.882457	0.485545	0.871157
	C136	C	0.128249	0.870845	0.501303
	C137	C	0.127507	0.113553	0.484147
	C138	C	0.884202	0.114820	0.500825
	C139	C	0.884793	0.871643	0.484408
	C140	C	0.513788	0.116280	0.871142
	C141	C	0.496477	0.115915	0.114823
	C142	C	0.513477	0.872831	0.114616
	C143	C	0.496250	0.873143	0.871419
	C144	C	0.387531	0.878644	0.669743
	C145	C	0.625717	0.109024	0.670051
	C146	C	0.625084	0.878178	0.317041
	C147	C	0.386257	0.107928	0.315956
	C148	C	0.681158	0.374866	0.877394
	C149	C	0.681783	0.612866	0.108626
	C150	C	0.327475	0.614241	0.877501
	C151	C	0.329770	0.375853	0.108021
	C152	C	0.890431	0.670254	0.373483
	C153	C	0.120513	0.668544	0.612934
	C154	C	0.890010	0.315680	0.612599
	C155	C	0.121190	0.317194	0.374842
	C156	C	0.889422	0.373943	0.669513
	C157	C	0.120249	0.611069	0.670208
	C158	C	0.889907	0.612346	0.316980
	C159	C	0.120587	0.374383	0.316828
	C160	C	0.384361	0.672308	0.877827
	C161	C	0.624339	0.670429	0.108444
	C162	C	0.623468	0.317513	0.877110
	C163	C	0.386335	0.317851	0.107414
	C164	C	0.681957	0.877915	0.375017
	C165	C	0.684233	0.108461	0.613582
	C166	C	0.330945	0.877898	0.611460
	C167	C	0.328081	0.107317	0.371822
	C168	C	0.886417	0.379022	0.169619
	C169	C	0.123698	0.609433	0.169468
	C170	C	0.123242	0.379332	0.818741
	C171	C	0.884636	0.609056	0.815740
	C172	C	0.181796	0.874198	0.376875
	C173	C	0.183978	0.110886	0.607739
	C174	C	0.828095	0.112731	0.377014
	C175	C	0.830842	0.874138	0.608607
	C176	C	0.389645	0.170786	0.872611
	C177	C	0.620076	0.170997	0.113063
	C178	C	0.389543	0.818192	0.112214
	C179	C	0.619610	0.816599	0.873528
	C180	C	0.389532	0.876244	0.168708
	C181	C	0.620478	0.112784	0.169934
	C182	C	0.390331	0.114460	0.814695
	C183	C	0.620613	0.875807	0.817951
	C184	C	0.885255	0.170594	0.377047
	C185	C	0.126262	0.168339	0.608015
	C186	C	0.124941	0.816157	0.377373
	C187	C	0.888385	0.816944	0.608472
	C188	C	0.181507	0.379820	0.874462
	C189	C	0.181143	0.609701	0.111999
	C190	C	0.828972	0.379045	0.112228
	C191	C	0.826790	0.609058	0.872724
	C192	C	0.406842	0.087947	0.590363
	C193	C	0.606296	0.899293	0.593640
	C194	C	0.605095	0.087928	0.393539
	C195	C	0.405692	0.897353	0.392208
	C196	C	0.604900	0.394234	0.087772
	C197	C	0.602833	0.593600	0.898496
	C198	C	0.405157	0.594473	0.088399
	C199	C	0.404919	0.395139	0.896924
	C200	C	0.100942	0.592271	0.393872
	C201	C	0.910011	0.592311	0.591591
	C202	C	0.100497	0.391740	0.594832
	C203	C	0.910485	0.394139	0.394057
	C204	C	0.904883	0.589213	0.092575
	C205	C	0.105825	0.399664	0.093378
	C206	C	0.103914	0.589959	0.893665
	C207	C	0.905205	0.399372	0.894450
	C208	C	0.106571	0.892693	0.587939
	C209	C	0.104463	0.092199	0.397585
	C210	C	0.907556	0.092001	0.587221
	C211	C	0.906265	0.893933	0.397692
	C212	C	0.600491	0.094310	0.893726
	C213	C	0.410031	0.093885	0.092082
	C214	C	0.599912	0.894579	0.092299
	C215	C	0.409898	0.895896	0.893246
	Zn216	Zn	0.505882	-0.005094	0.743261
	Zn217	Zn	0.505707	-0.006209	0.242877
	Zn218	Zn	0.754695	0.494313	-0.007030
	Zn219	Zn	0.255096	0.494376	-0.007353
	Zn220	Zn	0.006175	0.742746	0.492579
	Zn221	Zn	0.006006	0.242490	0.492979
	Zn222	Zn	0.004836	0.493565	0.743659
	Zn223	Zn	0.005245	0.494148	0.243259
	Zn224	Zn	0.504679	0.744890	-0.006640
	Zn225	Zn	0.504279	0.243871	-0.007791
	Zn226	Zn	0.756312	-0.006947	0.493143
	Zn227	Zn	0.256660	-0.007529	0.492138
	N228	N	0.420536	0.956684	0.671161
	N229	N	0.592077	0.031432	0.671784
	N230	N	0.591806	0.956184	0.314873
	N231	N	0.419859	0.029989	0.314560
	N232	N	0.683279	0.408064	0.955646
	N233	N	0.682888	0.579291	0.030713
	N234	N	0.326063	0.580688	0.955552
	N235	N	0.327834	0.409550	0.029858
	N236	N	0.968668	0.671590	0.406933
	N237	N	0.042637	0.670466	0.578780
	N238	N	0.968376	0.313227	0.580077
	N239	N	0.043324	0.315703	0.408441
	N240	N	0.967616	0.406890	0.672323
	N241	N	0.042303	0.577827	0.670956
	N242	N	0.967886	0.578573	0.315704
	N243	N	0.042381	0.407804	0.315087
	N244	N	0.418052	0.673898	0.956174
	N245	N	0.590169	0.672291	0.030424
	N246	N	0.590393	0.315384	0.955224
	N247	N	0.418670	0.315911	0.029173
	N248	N	0.683459	0.955705	0.408381
	N249	N	0.686360	0.030341	0.580953
	N250	N	0.329400	0.955434	0.577297
	N251	N	0.326258	0.029198	0.404811
	N252	N	0.919403	0.457012	0.171302
	N253	N	0.091169	0.531303	0.171859
	N254	N	0.089677	0.457342	0.816916
	N255	N	0.918420	0.531334	0.814766
	N256	N	0.184098	0.907299	0.455063
	N257	N	0.184671	0.077481	0.529670
	N258	N	0.827381	0.078756	0.455083
	N259	N	0.828502	0.907406	0.530333
	N260	N	0.467576	0.171977	0.906935
	N261	N	0.541847	0.173237	0.079592
	N262	N	0.467606	0.816223	0.079006
	N263	N	0.541417	0.814884	0.906065
	N264	N	0.467626	0.909341	0.170247
	N265	N	0.542651	0.079052	0.170731
	N266	N	0.468544	0.081269	0.813720
	N267	N	0.542888	0.910363	0.816733
	N268	N	0.919504	0.171840	0.455137
	N269	N	0.092021	0.170283	0.530137
	N270	N	0.092322	0.813883	0.455681
	N271	N	0.921336	0.815397	0.530320
	N272	N	0.183149	0.457896	0.907217
	N273	N	0.183676	0.531831	0.079066
	N274	N	0.826655	0.457150	0.078965
	N275	N	0.825533	0.531082	0.906650
	O276	O	1.009209	1.097483	-0.000652
	H277	H	1.005727	1.106837	-0.004405
	H278	H	1.002973	1.093598	0.001901
	O279	O	-0.000413	0.004495	0.984617
	H280	H	0.001713	0.013317	0.974287
	H281	H	0.002394	0.000290	0.994576
	O282	O	-0.067523	0.048667	-0.132270
	H283	H	-0.072429	0.044625	-0.130333
	H284	H	-0.058162	0.047855	-0.138421
	O285	O	0.533454	0.486674	0.443993
	H286	H	0.533239	0.486353	0.456804
	H287	H	0.541299	0.489574	0.441945
	O288	O	-0.021714	-0.003968	0.004029
	H289	H	-0.015800	0.003299	0.005360
	H290	H	-0.013716	-0.003359	0.011595
	O291	O	0.005096	0.920097	-0.000067
	H292	H	0.004240	0.927150	-0.005355
	H293	H	0.016616	0.916239	-0.004356
	O294	O	0.076722	1.036674	-0.031700
	H295	H	0.084574	1.042310	-0.025897
	H296	H	0.078838	1.037430	-0.017081
	O297	O	0.510305	0.443972	0.502288
	H298	H	0.508838	0.438089	0.507438
	H299	H	0.503150	0.440347	0.504661
	O300	O	0.556857	0.430613	0.488455
	H301	H	0.551846	0.429649	0.480555
	H302	H	0.564556	0.432511	0.492169
	O303	O	0.970072	0.016928	0.950027
	H304	H	0.980549	0.015915	0.944992
	H305	H	0.964693	0.022666	0.941407
	O306	O	-0.008773	1.005615	1.007148
	H307	H	-0.018219	0.995545	1.015547
	H308	H	-0.006790	1.016245	1.001007
	O309	O	-0.011756	1.032799	0.975391
	H310	H	-0.004295	1.043780	0.979347
	H311	H	-0.017357	1.031831	0.973106
	O312	O	0.015432	0.001387	1.042028
	H313	H	0.016895	-0.003537	1.033603
	H314	H	0.011263	0.000806	1.037046
	O315	O	0.526071	0.468095	0.511585
	H316	H	0.523849	0.465926	0.510284
	H317	H	0.536821	0.478459	0.514973
	O318	O	-0.033688	0.066023	0.959581
	H319	H	-0.032864	0.069713	0.954645
	H320	H	-0.046530	0.063718	0.959113
	O321	O	0.081009	1.079640	1.041510
	H322	H	0.083967	1.081133	1.047706
	H323	H	0.081677	1.076755	1.048867
	O324	O	1.004854	0.065585	1.010345
	H325	H	1.003926	0.067440	1.020741
	H326	H	0.986612	0.069843	1.004283
	O327	O	1.022530	1.052359	1.018579
	H328	H	1.017244	1.048882	1.016199
	H329	H	1.024545	1.052524	1.012032
	O330	O	0.558120	0.475183	0.461705
	H331	H	0.559214	0.475331	0.465431
	H332	H	0.564404	0.466787	0.450851
	O333	O	0.449803	0.493106	0.489342
	H334	H	0.448909	0.496533	0.486295
	H335	H	0.449024	0.494557	0.493744
	O336	O	0.553058	0.483992	0.457286
	H337	H	0.554139	0.492985	0.462294
	H338	H	0.563860	0.483130	0.449065
	O339	O	0.497253	0.503507	0.490460
	H340	H	0.499760	0.500718	0.491488
	H341	H	0.497599	0.504928	0.491951
	O342	O	0.482734	0.438418	0.475498
	H343	H	0.475468	0.436141	0.471031
	H344	H	0.484876	0.443526	0.473479
	O345	O	0.498765	0.469448	0.509493
	H346	H	0.491344	0.464132	0.509788
	H347	H	0.496082	0.471863	0.507019
