data_Molecule from HDF5

_cell_length_a		16.279462
_cell_length_b		16.142560
_cell_length_c		16.249197
_cell_angle_alpha	90.156691
_cell_angle_beta	89.672350
_cell_angle_gamma	89.393258
_symmetry_space_group_name_H-M	'P 1'
_symmetry_Int_Tables_number		1

loop_
	_symmetry_equiv_pos_as_xyz
	x,y,z

loop_
	_atom_site_label
	_atom_site_type_symbol
	_atom_site_fract_x
	_atom_site_fract_y
	_atom_site_fract_z
	H0	H	0.400984	0.831826	0.721029
	H1	H	0.601267	0.158478	0.722672
	H2	H	0.601625	0.830717	0.292314
	H3	H	0.398043	0.159300	0.289881
	H4	H	0.721554	0.390078	0.843801
	H5	H	0.714539	0.595464	0.169037
	H6	H	0.285458	0.598884	0.841995
	H7	H	0.284418	0.399987	0.169041
	H8	H	0.836110	0.713325	0.407774
	H9	H	0.163967	0.711816	0.602993
	H10	H	0.835538	0.287733	0.602556
	H11	H	0.162666	0.279395	0.402276
	H12	H	0.838615	0.396662	0.722704
	H13	H	0.163797	0.596446	0.718525
	H14	H	0.836718	0.599637	0.288669
	H15	H	0.163689	0.396947	0.288205
	H16	H	0.402307	0.712758	0.841970
	H17	H	0.595926	0.709177	0.170894
	H18	H	0.603203	0.277584	0.842772
	H19	H	0.402425	0.284311	0.170534
	H20	H	0.719301	0.833513	0.403459
	H21	H	0.709553	0.161274	0.605009
	H22	H	0.283925	0.833354	0.607696
	H23	H	0.282767	0.159584	0.403799
	H24	H	0.902254	0.333454	0.219678
	H25	H	0.098470	0.661360	0.218804
	H26	H	0.104822	0.332964	0.787630
	H27	H	0.899871	0.661212	0.790672
	H28	H	0.219414	0.892998	0.342235
	H29	H	0.216226	0.100578	0.667120
	H30	H	0.781815	0.100577	0.341497
	H31	H	0.783787	0.899873	0.667613
	H32	H	0.336766	0.212582	0.908708
	H33	H	0.663820	0.210757	0.107106
	H34	H	0.336625	0.784639	0.105284
	H35	H	0.663879	0.778398	0.906624
	H36	H	0.338313	0.895364	0.223624
	H37	H	0.663839	0.092806	0.220626
	H38	H	0.338453	0.099456	0.789153
	H39	H	0.662438	0.890328	0.786425
	H40	H	0.901365	0.212852	0.340146
	H41	H	0.095578	0.213029	0.668580
	H42	H	0.099448	0.782035	0.341121
	H43	H	0.899286	0.784538	0.668225
	H44	H	0.220524	0.334548	0.901012
	H45	H	0.211001	0.662153	0.103675
	H46	H	0.786522	0.333176	0.107273
	H47	H	0.781755	0.659923	0.904416
	H48	H	0.410839	0.112382	0.597106
	H49	H	0.592218	0.876437	0.598696
	H50	H	0.581318	0.110997	0.414155
	H51	H	0.407989	0.876568	0.410230
	H52	H	0.586376	0.404069	0.119435
	H53	H	0.581529	0.590179	0.891701
	H54	H	0.394444	0.585768	0.124638
	H55	H	0.406655	0.402328	0.887674
	H56	H	0.119181	0.590912	0.401729
	H57	H	0.881917	0.591991	0.601856
	H58	H	0.113047	0.408096	0.585985
	H59	H	0.882042	0.403067	0.410024
	H60	H	0.117414	0.410831	0.602547
	H61	H	0.883530	0.594546	0.595174
	H62	H	0.117068	0.595829	0.415486
	H63	H	0.884878	0.408968	0.414155
	H64	H	0.411534	0.585873	0.118354
	H65	H	0.600159	0.593424	0.884858
	H66	H	0.596231	0.399337	0.125468
	H67	H	0.408857	0.408974	0.890234
	H68	H	0.597283	0.115157	0.418299
	H69	H	0.591511	0.880642	0.591486
	H70	H	0.406394	0.112290	0.593859
	H71	H	0.414745	0.878619	0.414326
	H72	H	0.910976	0.614679	0.100454
	H73	H	0.095308	0.379578	0.092712
	H74	H	0.093051	0.618138	0.902023
	H75	H	0.920164	0.381881	0.910413
	H76	H	0.086560	0.895635	0.622449
	H77	H	0.099529	0.078500	0.388539
	H78	H	0.905496	0.099783	0.623347
	H79	H	0.903959	0.908549	0.386615
	H80	H	0.616846	0.081607	0.909876
	H81	H	0.378845	0.093572	0.111386
	H82	H	0.617448	0.903327	0.101148
	H83	H	0.385868	0.906613	0.919609
	H84	H	0.618690	0.898130	0.099814
	H85	H	0.384739	0.098851	0.087603
	H86	H	0.618508	0.088841	0.912622
	H87	H	0.384304	0.911042	0.909681
	H88	H	0.896605	0.092447	0.623113
	H89	H	0.081372	0.086328	0.392040
	H90	H	0.103383	0.908793	0.624199
	H91	H	0.910569	0.909193	0.389401
	H92	H	0.083484	0.611876	0.913615
	H93	H	0.096390	0.378906	0.097765
	H94	H	0.908972	0.612472	0.089643
	H95	H	0.911054	0.381467	0.921262
	H96	H	0.406017	0.114540	0.599313
	H97	H	0.598222	0.877719	0.593810
	H98	H	0.591217	0.117549	0.403256
	H99	H	0.408065	0.879238	0.417885
	H100	H	0.596568	0.410701	0.121695
	H101	H	0.595487	0.575803	0.892610
	H102	H	0.404543	0.600278	0.125591
	H103	H	0.414152	0.403548	0.889779
	H104	H	0.113874	0.581982	0.411877
	H105	H	0.885486	0.587260	0.596878
	H106	H	0.120013	0.394982	0.595850
	H107	H	0.882353	0.409746	0.406682
	H108	H	0.900835	0.616843	0.096739
	H109	H	0.091066	0.378907	0.096496
	H110	H	0.099438	0.615609	0.916271
	H111	H	0.906327	0.376222	0.908406
	H112	H	0.084054	0.916612	0.616006
	H113	H	0.095310	0.098487	0.384146
	H114	H	0.906862	0.088217	0.619081
	H115	H	0.907902	0.902684	0.387160
	H116	H	0.614870	0.084162	0.917182
	H117	H	0.389348	0.075728	0.097155
	H118	H	0.617485	0.900776	0.095026
	H119	H	0.382790	0.900104	0.911882
	C120	C	0.378562	0.004889	0.626928
	C121	C	0.621438	0.987101	0.625136
	C122	C	0.621546	0.005600	0.383133
	C123	C	0.379649	0.986495	0.384270
	C124	C	0.623846	0.373312	0.014614
	C125	C	0.620839	0.616291	0.997498
	C126	C	0.376866	0.619891	0.014179
	C127	C	0.379509	0.376159	0.997341
	C128	C	0.008622	0.619815	0.381885
	C129	C	0.991687	0.619855	0.626331
	C130	C	0.009105	0.376067	0.625122
	C131	C	0.991286	0.376432	0.381340
	C132	C	0.879133	0.506004	0.125617
	C133	C	0.121037	0.488473	0.124277
	C134	C	0.123161	0.506578	0.881177
	C135	C	0.880399	0.487866	0.883574
	C136	C	0.121947	0.876191	0.513232
	C137	C	0.120884	0.118622	0.496051
	C138	C	0.875457	0.121669	0.513420
	C139	C	0.877996	0.877957	0.495647
	C140	C	0.509283	0.116811	0.884189
	C141	C	0.492032	0.117528	0.128227
	C142	C	0.509448	0.873586	0.127853
	C143	C	0.491924	0.874334	0.883588
	C144	C	0.380383	0.881111	0.683164
	C145	C	0.619572	0.109992	0.683294
	C146	C	0.621562	0.880903	0.328733
	C147	C	0.379307	0.110395	0.328076
	C148	C	0.681908	0.371865	0.892332
	C149	C	0.676032	0.614956	0.120617
	C150	C	0.323190	0.618471	0.890856
	C151	C	0.322855	0.379029	0.120201
	C152	C	0.885310	0.676076	0.385870
	C153	C	0.114706	0.674471	0.623392
	C154	C	0.885402	0.323170	0.623296
	C155	C	0.113977	0.318359	0.382768
	C156	C	0.886632	0.378028	0.682831
	C157	C	0.114853	0.617001	0.681014
	C158	C	0.885502	0.619199	0.327012
	C159	C	0.114642	0.376899	0.326095
	C160	C	0.381065	0.675453	0.891140
	C161	C	0.617015	0.671382	0.121628
	C162	C	0.623030	0.315788	0.891875
	C163	C	0.381715	0.321654	0.121034
	C164	C	0.679819	0.882188	0.384319
	C165	C	0.673932	0.111423	0.624677
	C166	C	0.322314	0.881910	0.626725
	C167	C	0.322149	0.110549	0.384789
	C168	C	0.882044	0.382488	0.181611
	C169	C	0.118142	0.612403	0.180461
	C170	C	0.123499	0.382383	0.825519
	C171	C	0.879837	0.611755	0.828030
	C172	C	0.180183	0.874734	0.391017
	C173	C	0.177047	0.119079	0.618633
	C174	C	0.820248	0.120091	0.390193
	C175	C	0.822190	0.879981	0.618947
	C176	C	0.386157	0.174646	0.887112
	C177	C	0.615163	0.172605	0.126730
	C178	C	0.385863	0.820760	0.125743
	C179	C	0.614682	0.816416	0.885475
	C180	C	0.386816	0.875881	0.184586
	C181	C	0.614945	0.114129	0.183450
	C182	C	0.386876	0.118169	0.827783
	C183	C	0.614114	0.872052	0.825684
	C184	C	0.879591	0.176061	0.389491
	C185	C	0.117356	0.175343	0.619354
	C186	C	0.120577	0.819396	0.390086
	C187	C	0.879414	0.822341	0.618993
	C188	C	0.181535	0.383439	0.881849
	C189	C	0.174212	0.612815	0.123207
	C190	C	0.824604	0.382271	0.125605
	C191	C	0.821333	0.611048	0.884800
	C192	C	0.401099	0.090807	0.603703
	C193	C	0.600296	0.900581	0.601495
	C194	C	0.597300	0.092129	0.405497
	C195	C	0.403404	0.900554	0.407217
	C196	C	0.600017	0.397575	0.100063
	C197	C	0.598772	0.593235	0.911948
	C198	C	0.397342	0.597232	0.100420
	C199	C	0.402991	0.398412	0.911289
	C200	C	0.094449	0.596540	0.403365
	C201	C	0.905887	0.597652	0.604540
	C202	C	0.094726	0.398137	0.601637
	C203	C	0.905386	0.400222	0.403798
	C204	C	0.900621	0.592341	0.102536
	C205	C	0.100295	0.401606	0.102116
	C206	C	0.099013	0.592819	0.904012
	C207	C	0.905239	0.402044	0.906641
	C208	C	0.098297	0.900206	0.598811
	C209	C	0.098458	0.094736	0.410327
	C210	C	0.896622	0.099888	0.599296
	C211	C	0.900861	0.900176	0.409874
	C212	C	0.594613	0.092113	0.906591
	C213	C	0.406553	0.095609	0.105624
	C214	C	0.595693	0.894604	0.105317
	C215	C	0.406502	0.898994	0.906858
	Zn216	Zn	0.500892	-0.004635	0.753901
	Zn217	Zn	0.500496	-0.005104	0.256112
	Zn218	Zn	0.751449	0.495593	0.005520
	Zn219	Zn	0.249289	0.498353	0.004517
	Zn220	Zn	0.000058	0.748730	0.504819
	Zn221	Zn	-0.001118	0.248449	0.503971
	Zn222	Zn	0.001023	0.497028	0.754227
	Zn223	Zn	0.000460	0.497777	0.252295
	Zn224	Zn	0.499854	0.746523	0.006601
	Zn225	Zn	0.501800	0.246014	0.006213
	Zn226	Zn	0.748106	-0.001779	0.504672
	Zn227	Zn	0.250951	-0.003319	0.505043
	N228	N	0.414634	0.958597	0.683483
	N229	N	0.587686	0.031663	0.683662
	N230	N	0.585877	0.958542	0.327953
	N231	N	0.414354	0.032489	0.327598
	N232	N	0.682522	0.406884	0.969664
	N233	N	0.678588	0.581411	0.042604
	N234	N	0.320309	0.584820	0.968497
	N235	N	0.321311	0.411957	0.042151
	N236	N	0.962798	0.676625	0.419059
	N237	N	0.037193	0.676271	0.590090
	N238	N	0.962473	0.322046	0.587908
	N239	N	0.036225	0.318021	0.416444
	N240	N	0.964632	0.409997	0.684116
	N241	N	0.037201	0.583798	0.683150
	N242	N	0.963289	0.585057	0.324111
	N243	N	0.037411	0.412218	0.324859
	N244	N	0.413525	0.676468	0.968997
	N245	N	0.583275	0.672194	0.044245
	N246	N	0.587689	0.316629	0.968986
	N247	N	0.416358	0.319823	0.043450
	N248	N	0.680038	0.960913	0.417374
	N249	N	0.675219	0.033849	0.589075
	N250	N	0.321068	0.959952	0.592530
	N251	N	0.322266	0.032698	0.419206
	N252	N	0.915332	0.460439	0.181670
	N253	N	0.085775	0.534120	0.181212
	N254	N	0.088032	0.460118	0.824765
	N255	N	0.915757	0.534289	0.827184
	N256	N	0.181095	0.909118	0.468705
	N257	N	0.179367	0.084718	0.540931
	N258	N	0.817139	0.087329	0.468357
	N259	N	0.821131	0.913983	0.541385
	N260	N	0.463368	0.174058	0.921331
	N261	N	0.537697	0.175123	0.093258
	N262	N	0.463127	0.819318	0.091144
	N263	N	0.537688	0.817670	0.920738
	N264	N	0.464747	0.908211	0.185977
	N265	N	0.537565	0.080506	0.184439
	N266	N	0.464463	0.083230	0.825494
	N267	N	0.536748	0.907415	0.824422
	N268	N	0.913252	0.177178	0.466850
	N269	N	0.083182	0.175213	0.542063
	N270	N	0.084842	0.820231	0.467086
	N271	N	0.913707	0.821186	0.541477
	N272	N	0.181524	0.461726	0.915802
	N273	N	0.176146	0.534730	0.088849
	N274	N	0.822755	0.460023	0.091322
	N275	N	0.821559	0.532910	0.918675
	O276	O	1.073875	1.105271	0.090709
	H277	H	1.065348	1.105451	0.087426
	H278	H	1.075482	1.110624	0.089217
	O279	O	0.536478	0.435164	0.549591
	H280	H	0.549691	0.439564	0.535941
	H281	H	0.528852	0.432964	0.552001
	O282	O	1.039517	0.996396	-0.165890
	H283	H	1.058413	0.997410	-0.178988
	H284	H	1.019118	0.985719	-0.174783
	O285	O	1.094369	-0.069804	0.957415
	H286	H	1.077028	-0.070545	0.964437
	H287	H	1.097270	-0.068327	0.960936
	O288	O	0.534202	0.495696	0.433830
	H289	H	0.537424	0.487004	0.443361
	H290	H	0.526010	0.497676	0.445272
	O291	O	0.499765	0.536573	0.577255
	H292	H	0.490233	0.542052	0.579970
	H293	H	0.507937	0.521580	0.571675
	O294	O	0.521731	0.529831	0.465173
	H295	H	0.530528	0.518938	0.460154
	H296	H	0.526550	0.517298	0.457780
	O297	O	-0.077130	0.153606	0.975103
	H298	H	-0.073969	0.159219	0.962948
	H299	H	-0.086055	0.156519	0.965195
	O300	O	0.390861	0.385062	0.484041
	H301	H	0.401963	0.398545	0.499401
	H302	H	0.376109	0.381302	0.490730
	O303	O	0.867585	1.052377	-0.004231
	H304	H	0.856123	1.046964	-0.000967
	H305	H	0.873706	1.048408	0.005964
	O306	O	-0.085192	0.919382	0.989496
	H307	H	-0.095600	0.920935	0.999895
	H308	H	-0.092860	0.928503	0.985648
	O309	O	0.462390	0.514366	0.526647
	H310	H	0.459070	0.509253	0.516349
	H311	H	0.448177	0.511519	0.520312
	O312	O	-0.131097	-0.051614	0.089523
	H313	H	-0.117365	-0.049880	0.092425
	H314	H	-0.139026	-0.060385	0.095129
	O315	O	1.032699	0.051971	0.153953
	H316	H	1.042189	0.054285	0.164232
	H317	H	1.043276	0.061290	0.161201
	O318	O	1.083864	0.995757	0.876645
	H319	H	1.080176	1.002211	0.871188
	H320	H	1.080667	0.988593	0.891497
	O321	O	-0.165233	-0.010364	1.041566
	H322	H	-0.167586	0.004420	1.042899
	H323	H	-0.163608	-0.007171	1.047655
	O324	O	0.429928	0.491567	0.500106
	H325	H	0.432967	0.475590	0.503786
	H326	H	0.428364	0.483186	0.498833
	O327	O	0.000303	-0.081022	0.081265
	H328	H	0.004771	-0.089674	0.079893
	H329	H	0.005092	-0.093045	0.089341
	O330	O	0.484572	0.476293	0.497189
	H331	H	0.476554	0.491296	0.492207
	H332	H	0.486952	0.472522	0.512861
	O333	O	-0.054494	0.946631	1.053458
	H334	H	-0.050327	0.950867	1.058761
	H335	H	-0.060108	0.946082	1.066853
	O336	O	0.099350	0.080497	0.058185
	H337	H	0.107278	0.082667	0.050196
	H338	H	0.107022	0.076444	0.061390
	O339	O	0.658163	0.408689	0.513176
	H340	H	0.671525	0.395635	0.509501
	H341	H	0.653891	0.403255	0.498371
	O342	O	1.133535	0.893598	1.040081
	H343	H	1.137098	0.895184	1.039494
	H344	H	1.139450	0.883948	1.013655
	O345	O	0.994044	0.909162	0.001639
	H346	H	1.000942	0.898443	-0.005762
	H347	H	1.000193	0.911051	0.009862
	O348	O	0.572524	0.569555	0.487678
	H349	H	0.572336	0.574952	0.487281
	H350	H	0.584087	0.569268	0.493611
	O351	O	0.098069	0.969354	-0.109030
	H352	H	0.088881	0.973695	-0.099707
	H353	H	0.102420	0.967529	-0.121457
	O354	O	0.444995	0.509577	0.586784
	H355	H	0.449125	0.513370	0.601142
	H356	H	0.452555	0.507916	0.581125
	O357	O	0.983847	-0.062118	0.844707
	H358	H	0.969550	-0.056647	0.836668
	H359	H	0.984401	-0.075083	0.838618
	O360	O	0.510300	0.360034	0.464458
	H361	H	0.495369	0.373564	0.460817
	H362	H	0.500054	0.367889	0.477620
	O363	O	0.445451	0.486077	0.547646
	H364	H	0.448756	0.493429	0.540614
	H365	H	0.456360	0.487683	0.547143
	O366	O	0.950108	1.002098	0.927477
	H367	H	0.951356	0.998814	0.926436
	H368	H	0.954505	0.994467	0.936318
	O369	O	1.080566	-0.016056	0.972750
	H370	H	1.076643	-0.019424	0.970417
	H371	H	1.082631	-0.018051	0.982028
	O372	O	0.081226	0.058568	0.068309
	H373	H	0.087522	0.059850	0.071693
	H374	H	0.092077	0.062441	0.050954
	O375	O	0.949261	0.126581	-0.051918
	H376	H	0.943285	0.134656	-0.050379
	H377	H	0.959165	0.124413	-0.054241
	O378	O	0.505111	0.428997	0.594838
	H379	H	0.515470	0.425308	0.590991
	H380	H	0.499071	0.425258	0.589562
	O381	O	0.518523	0.490599	0.560671
	H382	H	0.511790	0.477726	0.573035
	H383	H	0.510097	0.486562	0.561792
