data_Molecule from HDF5

_cell_length_a		16.680298
_cell_length_b		16.689527
_cell_length_c		16.531214
_cell_angle_alpha	89.884827
_cell_angle_beta	90.176851
_cell_angle_gamma	90.121933
_symmetry_space_group_name_H-M	'P 1'
_symmetry_Int_Tables_number		1

loop_
	_symmetry_equiv_pos_as_xyz
	x,y,z

loop_
	_atom_site_label
	_atom_site_type_symbol
	_atom_site_fract_x
	_atom_site_fract_y
	_atom_site_fract_z
	H0	H	0.395106	0.848332	0.716249
	H1	H	0.606926	0.156216	0.718654
	H2	H	0.607162	0.850215	0.269973
	H3	H	0.395423	0.158376	0.274767
	H4	H	0.720349	0.396775	0.841113
	H5	H	0.722955	0.611417	0.150140
	H6	H	0.276369	0.610059	0.840883
	H7	H	0.276220	0.396106	0.150845
	H8	H	0.845028	0.727617	0.387437
	H9	H	0.152570	0.726527	0.603741
	H10	H	0.845058	0.279173	0.603055
	H11	H	0.153419	0.283295	0.390767
	H12	H	0.842826	0.397853	0.716365
	H13	H	0.152386	0.609402	0.718980
	H14	H	0.843828	0.609297	0.273179
	H15	H	0.153867	0.401251	0.275824
	H16	H	0.391304	0.727405	0.841783
	H17	H	0.607597	0.726493	0.150831
	H18	H	0.603427	0.282383	0.840998
	H19	H	0.390930	0.280073	0.149861
	H20	H	0.727962	0.853028	0.381204
	H21	H	0.725093	0.155094	0.603977
	H22	H	0.276383	0.849974	0.601982
	H23	H	0.278315	0.158138	0.389493
	H24	H	0.894366	0.349402	0.218096
	H25	H	0.104757	0.659263	0.217247
	H26	H	0.101915	0.349079	0.774906
	H27	H	0.892677	0.657572	0.773162
	H28	H	0.220726	0.896685	0.339223
	H29	H	0.218339	0.106353	0.652091
	H30	H	0.778501	0.108390	0.338993
	H31	H	0.773828	0.893392	0.648587
	H32	H	0.345476	0.226059	0.886530
	H33	H	0.651544	0.226762	0.102310
	H34	H	0.346200	0.778830	0.103354
	H35	H	0.652997	0.779870	0.887279
	H36	H	0.344378	0.896762	0.216954
	H37	H	0.653315	0.106862	0.215660
	H38	H	0.344162	0.107180	0.773791
	H39	H	0.652972	0.896337	0.771808
	H40	H	0.892750	0.224899	0.339533
	H41	H	0.103165	0.222714	0.651973
	H42	H	0.104621	0.782207	0.339436
	H43	H	0.889915	0.779318	0.649871
	H44	H	0.220233	0.349919	0.889745
	H45	H	0.222939	0.657560	0.103583
	H46	H	0.775180	0.350534	0.103562
	H47	H	0.774474	0.657066	0.888235
	H48	H	0.407716	0.115440	0.582674
	H49	H	0.582611	0.896861	0.574069
	H50	H	0.589034	0.114470	0.406522
	H51	H	0.404652	0.889686	0.404002
	H52	H	0.582254	0.415124	0.106409
	H53	H	0.579515	0.593911	0.885320
	H54	H	0.416784	0.592701	0.105415
	H55	H	0.404836	0.415464	0.881951
	H56	H	0.110140	0.594794	0.408572
	H57	H	0.887549	0.592893	0.580910
	H58	H	0.110658	0.414972	0.590058
	H59	H	0.886876	0.413483	0.405205
	H60	H	0.110795	0.410386	0.581932
	H61	H	0.888173	0.591334	0.583842
	H62	H	0.108982	0.592792	0.409014
	H63	H	0.887240	0.412783	0.408218
	H64	H	0.407884	0.592800	0.110456
	H65	H	0.589952	0.596676	0.881121
	H66	H	0.587760	0.413573	0.108417
	H67	H	0.411021	0.417411	0.884958
	H68	H	0.586235	0.112684	0.406726
	H69	H	0.592660	0.890471	0.581098
	H70	H	0.406570	0.116724	0.586783
	H71	H	0.414633	0.893391	0.404953
	H72	H	0.910139	0.615328	0.084340
	H73	H	0.089010	0.392457	0.087876
	H74	H	0.085558	0.612064	0.913647
	H75	H	0.904889	0.391646	0.910324
	H76	H	0.087762	0.917162	0.606264
	H77	H	0.089763	0.089524	0.382602
	H78	H	0.909754	0.093718	0.609240
	H79	H	0.918035	0.913298	0.385082
	H80	H	0.610464	0.091372	0.905345
	H81	H	0.388844	0.087804	0.082316
	H82	H	0.608780	0.918505	0.082379
	H83	H	0.389290	0.919847	0.905259
	H84	H	0.610960	0.914439	0.085218
	H85	H	0.385037	0.093841	0.088084
	H86	H	0.610537	0.095901	0.908410
	H87	H	0.387253	0.910681	0.905847
	H88	H	0.909773	0.087084	0.606167
	H89	H	0.084559	0.095007	0.383360
	H90	H	0.086979	0.913891	0.606373
	H91	H	0.907725	0.915190	0.382175
	H92	H	0.092522	0.616581	0.907581
	H93	H	0.085036	0.394259	0.085354
	H94	H	0.910573	0.614679	0.082817
	H95	H	0.908814	0.391289	0.904139
	H96	H	0.410917	0.115163	0.585775
	H97	H	0.581228	0.893988	0.587668
	H98	H	0.588210	0.112726	0.409082
	H99	H	0.408086	0.893406	0.412953
	H100	H	0.586416	0.419113	0.107352
	H101	H	0.587832	0.585833	0.885930
	H102	H	0.411007	0.584996	0.105501
	H103	H	0.410154	0.411265	0.881622
	H104	H	0.109145	0.593782	0.407171
	H105	H	0.886655	0.594204	0.583435
	H106	H	0.106618	0.418603	0.582733
	H107	H	0.887460	0.415832	0.407461
	H108	H	0.908781	0.614569	0.083140
	H109	H	0.089338	0.392862	0.082851
	H110	H	0.082637	0.614527	0.903187
	H111	H	0.911654	0.395024	0.910091
	H112	H	0.090086	0.915291	0.607636
	H113	H	0.091652	0.096687	0.380101
	H114	H	0.915976	0.091853	0.606328
	H115	H	0.913627	0.922917	0.386786
	H116	H	0.609096	0.090358	0.910639
	H117	H	0.386666	0.096332	0.079836
	H118	H	0.609127	0.913733	0.079770
	H119	H	0.390986	0.914598	0.912935
	C120	C	0.377166	0.012791	0.616887
	C121	C	0.620215	0.994496	0.615748
	C122	C	0.621064	0.012064	0.373231
	C123	C	0.377523	0.994905	0.374561
	C124	C	0.618430	0.383141	0.004605
	C125	C	0.619483	0.624921	0.986979
	C126	C	0.378290	0.624087	0.004319
	C127	C	0.376320	0.381999	0.985955
	C128	C	0.007104	0.625912	0.374933
	C129	C	0.989689	0.625271	0.616758
	C130	C	0.006835	0.382122	0.617049
	C131	C	0.990148	0.382730	0.374564
	C132	C	0.877121	0.512692	0.117129
	C133	C	0.120694	0.495513	0.117796
	C134	C	0.118705	0.512016	0.875564
	C135	C	0.875547	0.494692	0.874233
	C136	C	0.120757	0.882418	0.503670
	C137	C	0.120474	0.124707	0.486114
	C138	C	0.878913	0.123797	0.503945
	C139	C	0.878569	0.882646	0.486544
	C140	C	0.507580	0.124575	0.874481
	C141	C	0.488833	0.125135	0.116648
	C142	C	0.507795	0.882047	0.116382
	C143	C	0.490809	0.882054	0.874428
	C144	C	0.375932	0.895397	0.676558
	C145	C	0.624871	0.109933	0.678048
	C146	C	0.625087	0.896735	0.310580
	C147	C	0.376600	0.111670	0.314522
	C148	C	0.679598	0.379332	0.887867
	C149	C	0.681615	0.628434	0.103852
	C150	C	0.316775	0.628054	0.887687
	C151	C	0.316156	0.378361	0.103488
	C152	C	0.890937	0.686674	0.370476
	C153	C	0.106019	0.685912	0.621050
	C154	C	0.891065	0.320225	0.620471
	C155	C	0.106961	0.323516	0.372333
	C156	C	0.889910	0.379391	0.676759
	C157	C	0.105850	0.627739	0.678543
	C158	C	0.890431	0.628155	0.313524
	C159	C	0.107061	0.381979	0.315151
	C160	C	0.374118	0.686042	0.888002
	C161	C	0.624409	0.685883	0.104126
	C162	C	0.621573	0.322362	0.887599
	C163	C	0.373184	0.320564	0.103119
	C164	C	0.685061	0.898070	0.366234
	C165	C	0.683248	0.109601	0.620967
	C166	C	0.317203	0.896116	0.619411
	C167	C	0.318273	0.111513	0.371507
	C168	C	0.875294	0.395977	0.177688
	C169	C	0.122995	0.612382	0.177451
	C170	C	0.120223	0.395347	0.815377
	C171	C	0.873530	0.611154	0.813344
	C172	C	0.180782	0.879141	0.386514
	C173	C	0.178850	0.125239	0.604956
	C174	C	0.818198	0.126847	0.386414
	C175	C	0.815409	0.876968	0.602498
	C176	C	0.391502	0.184925	0.869803
	C177	C	0.605271	0.186040	0.120050
	C178	C	0.392007	0.820150	0.120454
	C179	C	0.606806	0.820976	0.870500
	C180	C	0.391409	0.878436	0.177406
	C181	C	0.606307	0.126639	0.176336
	C182	C	0.391128	0.126142	0.813384
	C183	C	0.606778	0.878590	0.812694
	C184	C	0.875582	0.184545	0.386504
	C185	C	0.121583	0.182908	0.604828
	C186	C	0.122998	0.821909	0.386656
	C187	C	0.873168	0.820115	0.602980
	C188	C	0.179240	0.395909	0.872128
	C189	C	0.181793	0.611383	0.120801
	C190	C	0.816034	0.396649	0.121073
	C191	C	0.815229	0.610954	0.870711
	C192	C	0.401647	0.094600	0.592147
	C193	C	0.593287	0.914601	0.588549
	C194	C	0.595056	0.092434	0.400124
	C195	C	0.402025	0.913415	0.400038
	C196	C	0.592871	0.408700	0.086215
	C197	C	0.593325	0.599459	0.905355
	C198	C	0.404691	0.597787	0.085918
	C199	C	0.401595	0.407393	0.904241
	C200	C	0.088211	0.600955	0.400967
	C201	C	0.908555	0.599928	0.590324
	C202	C	0.088057	0.407534	0.592148
	C203	C	0.908443	0.407169	0.399807
	C204	C	0.902542	0.593768	0.091085
	C205	C	0.095107	0.414314	0.092716
	C206	C	0.094002	0.593126	0.900886
	C207	C	0.901186	0.413625	0.900684
	C208	C	0.095462	0.908072	0.585504
	C209	C	0.095887	0.100602	0.403703
	C210	C	0.904423	0.098061	0.585781
	C211	C	0.905390	0.909514	0.405761
	C212	C	0.588856	0.099720	0.900845
	C213	C	0.407730	0.099828	0.090849
	C214	C	0.588678	0.908310	0.090040
	C215	C	0.410226	0.907704	0.900385
	Zn216	Zn	0.499794	0.003514	0.745322
	Zn217	Zn	0.498412	0.003001	0.245249
	Zn218	Zn	0.747217	0.503674	-0.004327
	Zn219	Zn	0.248959	0.503758	-0.004194
	Zn220	Zn	-0.001149	0.754954	0.495592
	Zn221	Zn	-0.000704	0.252990	0.495661
	Zn222	Zn	-0.002592	0.503466	0.745760
	Zn223	Zn	-0.001441	0.504909	0.246147
	Zn224	Zn	0.499471	0.753050	-0.004230
	Zn225	Zn	0.498013	0.254005	-0.004946
	Zn226	Zn	0.749853	0.002904	0.495255
	Zn227	Zn	0.248375	0.003946	0.494660
	N228	N	0.412427	0.969155	0.675366
	N229	N	0.586239	0.037436	0.674929
	N230	N	0.585722	0.968758	0.314910
	N231	N	0.412656	0.037978	0.316053
	N232	N	0.677743	0.416457	0.961727
	N233	N	0.678927	0.591167	0.029885
	N234	N	0.319153	0.590347	0.961365
	N235	N	0.317862	0.415935	0.029570
	N236	N	0.964466	0.685623	0.407842
	N237	N	0.032625	0.684730	0.583421
	N238	N	0.964677	0.321922	0.583793
	N239	N	0.033040	0.323812	0.408418
	N240	N	0.962969	0.417289	0.674900
	N241	N	0.032350	0.590815	0.676191
	N242	N	0.963871	0.591175	0.315979
	N243	N	0.033193	0.418231	0.316380
	N244	N	0.411518	0.683826	0.961872
	N245	N	0.586506	0.683855	0.030366
	N246	N	0.584186	0.324447	0.961351
	N247	N	0.409928	0.322445	0.028955
	N248	N	0.682682	0.970806	0.404617
	N249	N	0.680561	0.036826	0.582834
	N250	N	0.317703	0.970215	0.583319
	N251	N	0.318614	0.037766	0.407981
	N252	N	0.912624	0.469221	0.175297
	N253	N	0.085745	0.539123	0.175891
	N254	N	0.083340	0.468711	0.817133
	N255	N	0.910294	0.537721	0.815420
	N256	N	0.179575	0.916140	0.460461
	N257	N	0.178550	0.089994	0.529979
	N258	N	0.819960	0.089723	0.460652
	N259	N	0.818453	0.915237	0.529067
	N260	N	0.465145	0.184260	0.906961
	N261	N	0.531087	0.185656	0.084092
	N262	N	0.465579	0.821996	0.083409
	N263	N	0.533627	0.822700	0.908007
	N264	N	0.464574	0.916153	0.175091
	N265	N	0.532754	0.089658	0.174673
	N266	N	0.464614	0.089367	0.815918
	N267	N	0.533697	0.916142	0.814959
	N268	N	0.912536	0.182978	0.460793
	N269	N	0.086139	0.183055	0.529811
	N270	N	0.086366	0.823551	0.460827
	N271	N	0.911792	0.823550	0.529777
	N272	N	0.178351	0.469486	0.908920
	N273	N	0.180926	0.537456	0.084740
	N274	N	0.817027	0.470337	0.084012
	N275	N	0.816468	0.537363	0.907805
	O276	O	0.034202	1.221753	0.219708
	H277	H	0.051695	1.237609	0.230262
	H278	H	0.037292	1.233079	0.217508
	O279	O	0.717776	0.477733	0.275140
	H280	H	0.737275	0.472866	0.264577
	H281	H	0.723462	0.452081	0.276078
	O282	O	0.947192	-0.193542	1.208251
	H283	H	0.921040	-0.191606	1.205826
	H284	H	0.936598	-0.207313	1.231613
	O285	O	0.592612	0.524236	0.646126
	H286	H	0.602372	0.504863	0.651019
	H287	H	0.587128	0.517194	0.644055
	O288	O	0.510831	0.500770	0.342967
	H289	H	0.514873	0.500741	0.348673
	H290	H	0.509820	0.505798	0.337702
	O291	O	0.306646	0.504641	0.695014
	H292	H	0.305763	0.493780	0.700026
	H293	H	0.296827	0.503226	0.692769
	O294	O	1.104777	-0.219363	1.051894
	H295	H	1.093368	-0.216989	1.054569
	H296	H	1.102013	-0.217434	1.033998
	O297	O	0.295088	0.706671	0.287991
	H298	H	0.329484	0.713951	0.302126
	H299	H	0.285927	0.709746	0.275535
	O300	O	0.227269	0.229967	0.773067
	H301	H	0.235560	0.221847	0.794148
	H302	H	0.200928	0.200563	0.790696
	O303	O	0.472240	0.723613	0.277032
	H304	H	0.491210	0.721934	0.302795
	H305	H	0.474063	0.748649	0.249150
	O306	O	0.484505	0.319239	0.432042
	H307	H	0.484364	0.323068	0.436942
	H308	H	0.483324	0.327905	0.421731
	O309	O	0.399775	0.505758	0.499828
	H310	H	0.410892	0.501950	0.496220
	H311	H	0.400617	0.504336	0.510911
	O312	O	0.466347	0.730365	0.510660
	H313	H	0.453629	0.725718	0.511968
	H314	H	0.481303	0.734166	0.522491
	O315	O	0.863242	1.008306	0.786353
	H316	H	0.865115	1.010417	0.776493
	H317	H	0.866128	1.009344	0.790478
	O318	O	0.697977	0.280115	0.484367
	H319	H	0.707121	0.268509	0.451040
	H320	H	0.709522	0.278022	0.480457
	O321	O	0.307031	0.695800	0.686306
	H322	H	0.312601	0.670565	0.660069
	H323	H	0.335352	0.684899	0.673804
	O324	O	1.168314	0.824146	-0.051503
	H325	H	1.175725	0.817158	-0.042058
	H326	H	1.162688	0.835466	-0.030419
	O327	O	-0.180032	0.213720	0.789011
	H328	H	-0.205806	0.244852	0.758958
	H329	H	-0.174212	0.193197	0.805970
	O330	O	0.793090	0.211744	0.886115
	H331	H	0.802396	0.208360	0.900158
	H332	H	0.769134	0.222503	0.879894
	O333	O	0.586048	0.495527	0.646814
	H334	H	0.577762	0.493965	0.641526
	H335	H	0.606919	0.487193	0.655032
	O336	O	0.477160	0.284150	0.696639
	H337	H	0.472681	0.274570	0.692622
	H338	H	0.482797	0.280098	0.699610
	O339	O	1.226877	-0.030606	0.773330
	H340	H	1.244184	-0.048694	0.753546
	H341	H	1.232778	-0.064602	0.764827
	O342	O	-0.006060	0.006962	0.044268
	H343	H	-0.009495	0.001585	0.050197
	H344	H	-0.003237	-0.002431	0.058968
	O345	O	0.045954	1.157284	0.987169
	H346	H	0.047506	1.156123	0.993942
	H347	H	0.030237	1.168362	0.975473
	O348	O	0.074126	0.003065	-0.068392
	H349	H	0.084098	0.014343	-0.067955
	H350	H	0.087322	-0.002435	-0.067952
	O351	O	0.651737	0.345756	0.648388
	H352	H	0.641959	0.354261	0.634039
	H353	H	0.634178	0.353744	0.630169
	O354	O	-0.048633	-0.083825	0.940924
	H355	H	-0.056012	-0.076967	0.945966
	H356	H	-0.034589	-0.080681	0.944321
	O357	O	0.650144	0.697053	0.501695
	H358	H	0.654306	0.676788	0.527858
	H359	H	0.674600	0.709462	0.511159
	O360	O	0.288098	0.349807	0.704500
	H361	H	0.302647	0.353158	0.706728
	H362	H	0.256041	0.325196	0.735790
	O363	O	-0.194932	-0.029859	-0.048101
	H364	H	-0.195119	-0.036464	-0.059539
	H365	H	-0.194278	-0.044257	-0.048246
	O366	O	0.433750	0.486725	0.620489
	H367	H	0.434420	0.491552	0.638108
	H368	H	0.410980	0.478900	0.619605
	O369	O	0.809695	0.192199	0.180793
	H370	H	0.830818	0.177730	0.159435
	H371	H	0.818885	0.171027	0.161602
	O372	O	0.795975	0.795768	0.196719
	H373	H	0.792291	0.817010	0.193757
	H374	H	0.772136	0.782695	0.215687
	O375	O	0.997912	-0.189447	-0.105074
	H376	H	1.011556	-0.202880	-0.113873
	H377	H	1.019833	-0.178619	-0.093933
	O378	O	0.718096	0.525912	0.532058
	H379	H	0.725800	0.526030	0.525096
	H380	H	0.715872	0.527001	0.544431
	O381	O	0.024273	0.939767	0.857191
	H382	H	0.011121	0.929346	0.843577
	H383	H	0.027435	0.938142	0.854406
	O384	O	0.816037	-0.181160	0.807466
	H385	H	0.837230	-0.174010	0.829978
	H386	H	0.834395	-0.161927	0.816813
	O387	O	1.138830	1.056035	-0.118051
	H388	H	1.138737	1.052736	-0.121626
	H389	H	1.146640	1.029290	-0.124825
	O390	O	0.707884	0.295118	0.288046
	H391	H	0.674558	0.299711	0.283768
	H392	H	0.736768	0.264298	0.259726
	O393	O	0.445839	0.562351	0.696107
	H394	H	0.444981	0.564946	0.700617
	H395	H	0.445329	0.574411	0.693640
	O396	O	0.023049	1.163016	1.055343
	H397	H	0.040566	1.150799	1.057983
	H398	H	0.024512	1.167008	1.044432
	O399	O	0.230487	-0.056725	1.045034
	H400	H	0.233400	-0.047639	1.051613
	H401	H	0.223645	-0.046869	1.055104
	O402	O	0.533142	0.283158	0.274935
	H403	H	0.533960	0.279916	0.252291
	H404	H	0.521412	0.285640	0.266613
	O405	O	1.222822	0.033635	1.217266
	H406	H	1.230684	0.064211	1.230811
	H407	H	1.233612	0.049808	1.229446
	O408	O	0.204927	0.229272	0.010984
	H409	H	0.231601	0.245340	0.011390
	H410	H	0.195723	0.227630	0.019965
	O411	O	0.707522	0.715640	0.704232
	H412	H	0.698646	0.698216	0.700117
	H413	H	0.729248	0.739865	0.729304
	O414	O	0.474000	0.551770	0.360476
	H415	H	0.478581	0.555394	0.362595
	H416	H	0.459894	0.562853	0.344984
	O417	O	0.524855	0.352862	0.527340
	H418	H	0.514052	0.339218	0.521444
	H419	H	0.535418	0.348229	0.530220
	O420	O	0.569459	0.473887	0.433749
	H421	H	0.565805	0.466217	0.439326
	H422	H	0.567569	0.473078	0.433522
	O423	O	-0.216330	0.104108	1.019313
	H424	H	-0.224943	0.100788	0.999306
	H425	H	-0.229261	0.089106	1.012168
	O426	O	0.519165	0.419878	0.458566
	H427	H	0.536909	0.421920	0.443775
	H428	H	0.517969	0.416063	0.456873
	O429	O	0.959864	0.919950	0.982770
	H430	H	0.952473	0.911054	0.995594
	H431	H	0.967614	0.925387	0.981555
	O432	O	0.267932	0.561471	0.540305
	H433	H	0.273742	0.565576	0.537038
	H434	H	0.262416	0.556146	0.534356
	O435	O	0.209204	0.797291	-0.214071
	H436	H	0.198719	0.788760	-0.175287
	H437	H	0.240643	0.761736	-0.243318
	O438	O	-0.059520	0.066974	0.207482
	H439	H	-0.051345	0.061632	0.206386
	H440	H	-0.042772	0.074926	0.210937
	O441	O	0.206269	0.213249	0.206116
	H442	H	0.190146	0.217009	0.178445
	H443	H	0.238477	0.246820	0.237050
	O444	O	0.341698	0.276010	0.489326
	H445	H	0.338038	0.266015	0.495572
	H446	H	0.324620	0.271409	0.504802
	O447	O	-0.009674	1.206085	0.789242
	H448	H	-0.025130	1.222977	0.778383
	H449	H	-0.018598	1.185439	0.792490
	O450	O	0.184695	0.824298	1.177963
	H451	H	0.174544	0.823730	1.143248
	H452	H	0.193495	0.835408	1.184911
	O453	O	0.710771	0.510548	0.494709
	H454	H	0.710797	0.502323	0.501818
	H455	H	0.712752	0.509261	0.506961
	O456	O	-0.211355	-0.024715	1.191214
	H457	H	-0.203373	-0.028390	1.202183
	H458	H	-0.214806	-0.021279	1.198564
	O459	O	0.686903	0.693887	0.305466
	H460	H	0.684415	0.669229	0.326015
	H461	H	0.668951	0.687329	0.327744
	O462	O	0.563536	0.537080	0.274624
	H463	H	0.564182	0.537175	0.283189
	H464	H	0.573103	0.537699	0.271348
	O465	O	0.776860	-0.212737	0.018226
	H466	H	0.766823	-0.230161	0.031369
	H467	H	0.780059	-0.220715	0.031775
	O468	O	0.324431	0.493854	0.289073
	H469	H	0.309980	0.502750	0.283646
	H470	H	0.317068	0.505937	0.291484
	O471	O	0.519491	0.742733	0.469158
	H472	H	0.532406	0.743493	0.466098
	H473	H	0.519005	0.740018	0.482185
	O474	O	0.281823	0.727471	0.471943
	H475	H	0.278816	0.727339	0.449575
	H476	H	0.264636	0.734272	0.464717
	O477	O	0.645180	0.491522	1.720006
	H478	H	0.632301	0.511639	1.717642
	H479	H	0.660196	0.497164	1.730704
	O480	O	0.306649	0.312192	0.305644
	H481	H	0.326561	0.326031	0.324237
	H482	H	0.319607	0.337820	0.323891
	O483	O	0.281797	0.437307	0.445826
	H484	H	0.281919	0.440529	0.444207
	H485	H	0.274035	0.428426	0.458179
	O486	O	0.774926	0.055195	0.857229
	H487	H	0.782579	0.057125	0.853647
	H488	H	0.771915	0.064433	0.849044
	O489	O	1.048036	0.911250	0.188659
	H490	H	1.066377	0.900844	0.191844
	H491	H	1.045573	0.903964	0.192470
	O492	O	-0.061074	0.209418	0.057547
	H493	H	-0.049765	0.205779	0.048819
	H494	H	-0.068104	0.207499	0.062981
	O495	O	0.209188	1.109000	0.887826
	H496	H	0.202376	1.106565	0.887390
	H497	H	0.211682	1.091010	0.901078
	O498	O	0.946075	0.882138	0.824246
	H499	H	0.957759	0.860734	0.832015
	H500	H	0.954102	0.894025	0.829525
	O501	O	0.533757	0.670452	0.664696
	H502	H	0.551345	0.678638	0.670349
	H503	H	0.540204	0.673940	0.674640
