data_Molecule from HDF5

_cell_length_a		16.278517
_cell_length_b		16.376241
_cell_length_c		16.393969
_cell_angle_alpha	90.140198
_cell_angle_beta	89.917754
_cell_angle_gamma	89.933182
_symmetry_space_group_name_H-M	'P 1'
_symmetry_Int_Tables_number		1

loop_
	_symmetry_equiv_pos_as_xyz
	x,y,z

loop_
	_atom_site_label
	_atom_site_type_symbol
	_atom_site_fract_x
	_atom_site_fract_y
	_atom_site_fract_z
	H0	H	0.397252	0.839119	0.714661
	H1	H	0.606402	0.157994	0.712109
	H2	H	0.608633	0.839238	0.270882
	H3	H	0.397762	0.157884	0.272483
	H4	H	0.724345	0.394338	0.831433
	H5	H	0.720488	0.601119	0.152923
	H6	H	0.284770	0.600717	0.831911
	H7	H	0.284670	0.396199	0.152137
	H8	H	0.842698	0.716412	0.390074
	H9	H	0.163831	0.718792	0.597265
	H10	H	0.842309	0.276633	0.597664
	H11	H	0.163428	0.276517	0.387873
	H12	H	0.842551	0.392590	0.713021
	H13	H	0.164222	0.602674	0.712488
	H14	H	0.842445	0.601924	0.273549
	H15	H	0.163372	0.392560	0.271972
	H16	H	0.399321	0.718396	0.832173
	H17	H	0.604940	0.717365	0.152164
	H18	H	0.607686	0.278751	0.832038
	H19	H	0.400567	0.279884	0.152403
	H20	H	0.720928	0.837626	0.388982
	H21	H	0.721647	0.157862	0.594161
	H22	H	0.284106	0.837292	0.596058
	H23	H	0.283910	0.158266	0.390615
	H24	H	0.896149	0.338069	0.213535
	H25	H	0.106209	0.657052	0.212204
	H26	H	0.110608	0.339193	0.769051
	H27	H	0.897965	0.657572	0.771250
	H28	H	0.223837	0.894852	0.332399
	H29	H	0.222983	0.104079	0.652023
	H30	H	0.783185	0.099837	0.331438
	H31	H	0.781505	0.892500	0.650613
	H32	H	0.343906	0.220361	0.887626
	H33	H	0.665440	0.218441	0.096729
	H34	H	0.342799	0.778598	0.096699
	H35	H	0.664951	0.780126	0.890353
	H36	H	0.342775	0.895257	0.212215
	H37	H	0.664969	0.101851	0.211772
	H38	H	0.342686	0.103281	0.772749
	H39	H	0.663042	0.891651	0.771296
	H40	H	0.894447	0.220534	0.333463
	H41	H	0.109313	0.220880	0.649913
	H42	H	0.107870	0.777533	0.332484
	H43	H	0.897213	0.776277	0.651136
	H44	H	0.225499	0.338189	0.885847
	H45	H	0.220413	0.658733	0.093246
	H46	H	0.781744	0.338558	0.095687
	H47	H	0.785301	0.659900	0.891055
	H48	H	0.406630	0.111661	0.576439
	H49	H	0.589072	0.886605	0.576302
	H50	H	0.589596	0.112488	0.400177
	H51	H	0.417622	0.883737	0.397748
	H52	H	0.602275	0.403473	0.110540
	H53	H	0.598943	0.587536	0.876992
	H54	H	0.408240	0.590435	0.108784
	H55	H	0.415521	0.411546	0.880269
	H56	H	0.119273	0.584609	0.397969
	H57	H	0.887403	0.592130	0.583967
	H58	H	0.113033	0.414871	0.574768
	H59	H	0.884355	0.406280	0.394979
	H60	H	0.117876	0.412073	0.586875
	H61	H	0.891501	0.586918	0.575388
	H62	H	0.119680	0.591156	0.402030
	H63	H	0.888689	0.401882	0.408703
	H64	H	0.413590	0.583618	0.104282
	H65	H	0.590035	0.584560	0.879404
	H66	H	0.594348	0.419351	0.102773
	H67	H	0.418173	0.406477	0.878151
	H68	H	0.594311	0.111744	0.405219
	H69	H	0.598622	0.881332	0.582025
	H70	H	0.412676	0.115068	0.591781
	H71	H	0.417205	0.886898	0.406326
	H72	H	0.900278	0.615738	0.081867
	H73	H	0.093293	0.382331	0.084563
	H74	H	0.099796	0.615346	0.897121
	H75	H	0.923798	0.389240	0.906010
	H76	H	0.095455	0.904948	0.607647
	H77	H	0.088121	0.092807	0.377932
	H78	H	0.916746	0.086570	0.604025
	H79	H	0.903598	0.912322	0.377400
	H80	H	0.617390	0.093451	0.909117
	H81	H	0.389452	0.090896	0.082136
	H82	H	0.617357	0.913738	0.085586
	H83	H	0.390452	0.912176	0.906001
	H84	H	0.620794	0.902991	0.085137
	H85	H	0.390383	0.087545	0.079561
	H86	H	0.613988	0.079392	0.906251
	H87	H	0.387465	0.909190	0.899011
	H88	H	0.912708	0.089141	0.605626
	H89	H	0.100527	0.086957	0.376324
	H90	H	0.094520	0.911273	0.604882
	H91	H	0.923326	0.910804	0.382549
	H92	H	0.084417	0.610104	0.898512
	H93	H	0.091304	0.384947	0.081077
	H94	H	0.919527	0.613790	0.096601
	H95	H	0.907246	0.384766	0.909082
	H96	H	0.422474	0.107733	0.580308
	H97	H	0.588092	0.883337	0.588067
	H98	H	0.596259	0.114912	0.398969
	H99	H	0.409493	0.883040	0.402333
	H100	H	0.583485	0.403037	0.104560
	H101	H	0.591543	0.593943	0.876323
	H102	H	0.417703	0.592280	0.105209
	H103	H	0.412525	0.407712	0.876940
	H104	H	0.116947	0.584898	0.405334
	H105	H	0.889983	0.581644	0.584402
	H106	H	0.117578	0.402461	0.577042
	H107	H	0.891321	0.416126	0.404849
	H108	H	0.920606	0.605831	0.073719
	H109	H	0.096123	0.382558	0.080619
	H110	H	0.094350	0.608878	0.910851
	H111	H	0.914139	0.381659	0.893262
	H112	H	0.088875	0.906688	0.605526
	H113	H	0.089944	0.079639	0.381833
	H114	H	0.912617	0.084440	0.604387
	H115	H	0.913667	0.895184	0.374308
	H116	H	0.620676	0.087321	0.895774
	H117	H	0.390036	0.086898	0.084240
	H118	H	0.616091	0.907711	0.075940
	H119	H	0.387911	0.904313	0.906147
	C120	C	0.381501	0.006295	0.614687
	C121	C	0.623907	0.989163	0.613574
	C122	C	0.625103	0.007225	0.370068
	C123	C	0.382525	0.990027	0.370932
	C124	C	0.625954	0.376612	0.000529
	C125	C	0.624679	0.619745	0.983475
	C126	C	0.381863	0.620020	0.000366
	C127	C	0.383017	0.377156	0.983668
	C128	C	0.012038	0.618361	0.371171
	C129	C	0.995108	0.619200	0.613590
	C130	C	0.010844	0.376755	0.612906
	C131	C	0.994445	0.375810	0.370909
	C132	C	0.881224	0.506473	0.115003
	C133	C	0.124460	0.488920	0.113191
	C134	C	0.125591	0.506012	0.869588
	C135	C	0.882348	0.490475	0.871265
	C136	C	0.125052	0.876124	0.500411
	C137	C	0.124645	0.119099	0.484164
	C138	C	0.881201	0.119036	0.499752
	C139	C	0.881571	0.874992	0.483454
	C140	C	0.511617	0.119027	0.871719
	C141	C	0.496022	0.120315	0.114010
	C142	C	0.511914	0.877090	0.113911
	C143	C	0.494656	0.876545	0.871478
	C144	C	0.379093	0.886499	0.674372
	C145	C	0.625599	0.109747	0.672840
	C146	C	0.626686	0.886792	0.310891
	C147	C	0.379854	0.110121	0.312187
	C148	C	0.685255	0.375228	0.880119
	C149	C	0.682245	0.620409	0.104600
	C150	C	0.323756	0.620204	0.879761
	C151	C	0.323929	0.376710	0.104147
	C152	C	0.890818	0.676901	0.371098
	C153	C	0.115754	0.678965	0.615863
	C154	C	0.890575	0.316362	0.615794
	C155	C	0.115230	0.315988	0.368938
	C156	C	0.890593	0.374374	0.673214
	C157	C	0.115868	0.621127	0.673286
	C158	C	0.890660	0.619888	0.313110
	C159	C	0.115223	0.373827	0.311394
	C160	C	0.380508	0.679063	0.880188
	C161	C	0.624697	0.678158	0.104246
	C162	C	0.627319	0.317486	0.880084
	C163	C	0.381583	0.318823	0.104201
	C164	C	0.682518	0.885904	0.369765
	C165	C	0.682700	0.109693	0.614078
	C166	C	0.322407	0.885888	0.615566
	C167	C	0.323249	0.110398	0.371072
	C168	C	0.878520	0.386031	0.173797
	C169	C	0.125339	0.609428	0.172368
	C170	C	0.128440	0.386688	0.809254
	C171	C	0.880039	0.610318	0.811825
	C172	C	0.184575	0.875271	0.380441
	C173	C	0.183907	0.122015	0.603637
	C174	C	0.822028	0.119668	0.379729
	C175	C	0.821441	0.873913	0.603051
	C176	C	0.391386	0.180076	0.869437
	C177	C	0.616981	0.179131	0.115226
	C178	C	0.391053	0.817947	0.115507
	C179	C	0.616161	0.818636	0.870596
	C180	C	0.390914	0.876331	0.172724
	C181	C	0.616885	0.121023	0.172566
	C182	C	0.390887	0.121634	0.812177
	C183	C	0.615279	0.874550	0.811637
	C184	C	0.877535	0.179756	0.380706
	C185	C	0.127172	0.180305	0.602874
	C186	C	0.126680	0.817169	0.380373
	C187	C	0.879152	0.815972	0.603247
	C188	C	0.186062	0.386380	0.867178
	C189	C	0.181910	0.610289	0.113108
	C190	C	0.821116	0.386463	0.115472
	C191	C	0.823853	0.611301	0.871284
	C192	C	0.406634	0.089733	0.590083
	C193	C	0.599144	0.905656	0.589290
	C194	C	0.600646	0.091033	0.394342
	C195	C	0.407620	0.906439	0.395143
	C196	C	0.600714	0.401449	0.084277
	C197	C	0.600626	0.595741	0.899481
	C198	C	0.406006	0.595774	0.084376
	C199	C	0.408129	0.401501	0.900206
	C200	C	0.096534	0.593870	0.395041
	C201	C	0.911437	0.594146	0.588605
	C202	C	0.094187	0.402271	0.587032
	C203	C	0.909940	0.400738	0.395769
	C204	C	0.906269	0.589885	0.091078
	C205	C	0.100502	0.405105	0.089033
	C206	C	0.100241	0.589639	0.895018
	C207	C	0.907884	0.406757	0.895788
	C208	C	0.100189	0.900526	0.584192
	C209	C	0.099771	0.093740	0.400416
	C210	C	0.906820	0.094179	0.583003
	C211	C	0.906473	0.899210	0.399734
	C212	C	0.595379	0.093703	0.896588
	C213	C	0.411927	0.095500	0.089236
	C214	C	0.596351	0.901262	0.089488
	C215	C	0.410493	0.901367	0.896468
	Zn216	Zn	0.503230	-0.002586	0.743378
	Zn217	Zn	0.503824	-0.001226	0.242342
	Zn218	Zn	0.753504	0.499075	-0.007810
	Zn219	Zn	0.253509	0.498105	-0.008200
	Zn220	Zn	0.003817	0.746587	0.491879
	Zn221	Zn	0.002758	0.247298	0.492101
	Zn222	Zn	0.003296	0.498004	0.741572
	Zn223	Zn	0.003062	0.497246	0.242909
	Zn224	Zn	0.503534	0.748463	-0.007935
	Zn225	Zn	0.504557	0.248327	-0.007697
	Zn226	Zn	0.753061	-0.002721	0.491606
	Zn227	Zn	0.253897	-0.001749	0.492929
	N228	N	0.414918	0.962333	0.674183
	N229	N	0.589994	0.033648	0.672835
	N230	N	0.592065	0.963202	0.310705
	N231	N	0.416023	0.034294	0.312124
	N232	N	0.684567	0.411072	0.956120
	N233	N	0.682324	0.584787	0.028431
	N234	N	0.324349	0.584518	0.955481
	N235	N	0.324649	0.412172	0.028249
	N236	N	0.967533	0.676345	0.405976
	N237	N	0.039842	0.677852	0.579453
	N238	N	0.966409	0.317660	0.578991
	N239	N	0.038793	0.316978	0.404886
	N240	N	0.966422	0.411163	0.671575
	N241	N	0.039697	0.584799	0.672031
	N242	N	0.967137	0.584038	0.313109
	N243	N	0.038963	0.410027	0.312584
	N244	N	0.415877	0.679114	0.956377
	N245	N	0.589829	0.677892	0.028062
	N246	N	0.591460	0.318154	0.956019
	N247	N	0.417512	0.318729	0.028256
	N248	N	0.682048	0.961795	0.405753
	N249	N	0.682133	0.033777	0.578299
	N250	N	0.323817	0.961457	0.579327
	N251	N	0.324866	0.034793	0.407093
	N252	N	0.914995	0.461683	0.173845
	N253	N	0.090433	0.533017	0.172615
	N254	N	0.091679	0.462207	0.810614
	N255	N	0.915574	0.534129	0.811644
	N256	N	0.183785	0.911173	0.456164
	N257	N	0.182480	0.084603	0.528429
	N258	N	0.824249	0.082498	0.454765
	N259	N	0.822622	0.909947	0.527510
	N260	N	0.467304	0.178542	0.905848
	N261	N	0.540679	0.178752	0.079460
	N262	N	0.467340	0.818463	0.079270
	N263	N	0.540238	0.819749	0.907022
	N264	N	0.466966	0.912495	0.171570
	N265	N	0.540655	0.085113	0.171695
	N266	N	0.466591	0.084404	0.813459
	N267	N	0.538359	0.909611	0.811890
	N268	N	0.913812	0.179307	0.456296
	N269	N	0.091031	0.178657	0.527412
	N270	N	0.090665	0.817471	0.456160
	N271	N	0.915916	0.816824	0.527872
	N272	N	0.184151	0.461702	0.904171
	N273	N	0.181580	0.534304	0.077104
	N274	N	0.822696	0.462109	0.079611
	N275	N	0.825164	0.535634	0.907211
	O276	O	0.609408	0.427427	0.560355
	H277	H	0.609689	0.444532	0.559482
	H278	H	0.613358	0.418460	0.549706
	O279	O	0.458389	0.316410	0.478594
	H280	H	0.449524	0.311596	0.482552
	H281	H	0.442220	0.335180	0.492141
	O282	O	0.586155	0.320012	0.341346
	H283	H	0.574184	0.305945	0.335861
	H284	H	0.592646	0.323904	0.349688
	O285	O	1.488260	0.617777	0.478703
	H286	H	1.487522	0.605543	0.476276
	H287	H	1.494403	0.613632	0.473710
	O288	O	0.179603	0.048620	1.182370
	H289	H	0.178650	0.030079	1.179251
	H290	H	0.185986	0.037940	1.178179
	O291	O	0.458017	0.583302	0.357910
	H292	H	0.459948	0.587828	0.360788
	H293	H	0.465294	0.598453	0.374763
	O294	O	1.188368	1.039693	0.943694
	H295	H	1.194637	1.043670	0.952787
	H296	H	1.191450	1.049838	0.954293
	O297	O	1.063382	1.126708	0.962412
	H298	H	1.068925	1.137145	0.954517
	H299	H	1.070590	1.130088	0.969369
	O300	O	-0.178540	0.164626	-0.091719
	H301	H	-0.187521	0.184037	-0.087058
	H302	H	-0.145775	0.179755	-0.070482
	O303	O	-0.048795	1.039420	1.202785
	H304	H	-0.053991	1.021779	1.196039
	H305	H	-0.055674	1.038030	1.206890
	O306	O	1.148984	0.183888	0.183420
	H307	H	1.165205	0.140284	0.186192
	H308	H	1.128697	0.200811	0.190985
	O309	O	0.570385	0.431752	0.375577
	H310	H	0.568240	0.416312	0.367029
	H311	H	0.577053	0.425116	0.364504
	O312	O	0.822439	1.100302	-0.039127
	H313	H	0.829887	1.107489	-0.043484
	H314	H	0.818819	1.126026	-0.030885
	O315	O	0.462262	0.372939	0.643519
	H316	H	0.463494	0.363639	0.635772
	H317	H	0.474873	0.386046	0.638591
	O318	O	0.520485	0.374463	0.408994
	H319	H	0.525326	0.370951	0.405213
	H320	H	0.512398	0.377013	0.415437
	O321	O	1.126667	-0.179219	0.808851
	H322	H	1.122002	-0.175109	0.805779
	H323	H	1.134920	-0.159254	0.811177
	O324	O	0.417869	0.536949	1.354044
	H325	H	0.402385	0.549207	1.353070
	H326	H	0.416244	0.527298	1.357182
	O327	O	0.187064	0.884658	1.032382
	H328	H	0.191293	0.866145	1.019907
	H329	H	0.170244	0.893296	1.028260
	O330	O	0.651258	0.594610	0.453342
	H331	H	0.661014	0.612108	0.451147
	H332	H	0.645760	0.587031	0.439882
	O333	O	0.808344	1.089307	0.858113
	H334	H	0.805671	1.092470	0.845119
	H335	H	0.811957	1.116052	0.881718
	O336	O	0.477738	0.558278	0.425696
	H337	H	0.477380	0.550986	0.426878
	H338	H	0.482478	0.563451	0.432428
	O339	O	0.628087	0.539288	0.485495
	H340	H	0.603402	0.545599	0.482505
	H341	H	0.642208	0.550400	0.460001
	O342	O	-0.126331	0.906326	1.009917
	H343	H	-0.126685	0.923205	0.998373
	H344	H	-0.144369	0.899430	0.995620
	O345	O	0.031697	1.118182	0.876008
	H346	H	0.025351	1.117211	0.870348
	H347	H	0.031447	1.108360	0.881407
	O348	O	0.489197	0.622356	0.465794
	H349	H	0.500548	0.620715	0.471888
	H350	H	0.481881	0.610839	0.464385
	O351	O	0.015159	-0.171086	0.020578
	H352	H	0.012079	-0.164360	0.001701
	H353	H	0.008924	-0.173162	0.017720
	O354	O	0.308961	0.514371	-0.519971
	H355	H	0.321858	0.512382	-0.525062
	H356	H	0.288700	0.520150	-0.518585
	O357	O	0.035044	0.919580	0.008394
	H358	H	0.040177	0.922969	0.010839
	H359	H	0.019261	0.903752	0.000197
	O360	O	-0.154704	-0.121495	-0.013578
	H361	H	-0.153939	-0.117359	-0.014648
	H362	H	-0.166987	-0.103054	-0.006463
	O363	O	0.342747	0.676516	0.398733
	H364	H	0.343533	0.689033	0.412694
	H365	H	0.345596	0.685185	0.395433
	O366	O	0.507504	0.489847	0.685268
	H367	H	0.522527	0.500062	0.700878
	H368	H	0.512743	0.490897	0.677938
	O369	O	0.641083	0.390724	0.506023
	H370	H	0.662712	0.381476	0.501193
	H371	H	0.633243	0.391139	0.494194
	O372	O	0.406829	0.493128	0.606861
	H373	H	0.395156	0.488718	0.615403
	H374	H	0.416887	0.499796	0.609876
	O375	O	1.189641	-0.077305	-0.198008
	H376	H	1.198555	-0.067755	-0.164932
	H377	H	1.213958	-0.074338	-0.207885
	O378	O	0.536342	0.539464	0.431278
	H379	H	0.542855	0.514880	0.452389
	H380	H	0.547928	0.525343	0.404799
	O381	O	-0.103425	-0.049006	0.151547
	H382	H	-0.101461	-0.046349	0.164128
	H383	H	-0.100627	-0.042439	0.155566
	O384	O	0.575145	0.456499	1.581375
	H385	H	0.580401	0.450319	1.577193
	H386	H	0.578284	0.448991	1.583603
	O387	O	1.163349	0.803354	0.066951
	H388	H	1.159749	0.797120	0.043996
	H389	H	1.165764	0.792791	0.063983
	O390	O	0.377711	0.419038	0.417406
	H391	H	0.372248	0.424206	0.424955
	H392	H	0.375686	0.438766	0.403850
	O393	O	0.961702	-0.184397	0.797230
	H394	H	0.978069	-0.193074	0.792624
	H395	H	0.955063	-0.172304	0.786969
	O396	O	0.199310	1.142939	1.010766
	H397	H	0.223478	1.167350	1.032985
	H398	H	0.187315	1.142073	1.031222
	O399	O	0.354997	0.649836	0.456544
	H400	H	0.347125	0.648611	0.456533
	H401	H	0.379607	0.648949	0.461269
	O402	O	1.048506	0.139477	0.810846
	H403	H	1.069653	0.123515	0.803963
	H404	H	1.041948	0.151034	0.791744
	O405	O	-0.160692	-0.034144	0.134529
	H406	H	-0.166486	-0.046840	0.111364
	H407	H	-0.184163	-0.040746	0.151177
	O408	O	0.860669	1.004068	0.793410
	H409	H	0.832905	1.020755	0.780077
	H410	H	0.865468	1.027971	0.802121
	O411	O	0.953964	1.100587	0.071629
	H412	H	0.970434	1.097065	0.088202
	H413	H	0.973692	1.096669	0.058278
	O414	O	0.052724	0.054649	0.841807
	H415	H	0.046971	0.044431	0.836181
	H416	H	0.044573	0.042788	0.846249
	O417	O	0.617281	0.450217	0.519525
	H418	H	0.613202	0.451071	0.519461
	H419	H	0.612836	0.452378	0.530916
	O420	O	-0.002814	1.198950	0.170672
	H421	H	0.001428	1.210211	0.199506
	H422	H	0.005336	1.177343	0.173978
	O423	O	0.566033	-0.340995	0.670945
	H424	H	0.556053	-0.328161	0.676895
	H425	H	0.566152	-0.341878	0.681710
	O426	O	-0.088591	-0.173918	1.153796
	H427	H	-0.085402	-0.184712	1.127390
	H428	H	-0.082273	-0.172453	1.142266
	O429	O	0.618057	0.588077	0.592185
	H430	H	0.626968	0.601887	0.593941
	H431	H	0.623722	0.597966	0.600364
