data_Molecule from HDF5

_cell_length_a		16.208164
_cell_length_b		16.183401
_cell_length_c		16.182232
_cell_angle_alpha	89.951189
_cell_angle_beta	90.424127
_cell_angle_gamma	89.426897
_symmetry_space_group_name_H-M	'P 1'
_symmetry_Int_Tables_number		1

loop_
	_symmetry_equiv_pos_as_xyz
	x,y,z

loop_
	_atom_site_label
	_atom_site_type_symbol
	_atom_site_fract_x
	_atom_site_fract_y
	_atom_site_fract_z
	H0	H	0.408060	0.839507	0.712208
	H1	H	0.601873	0.168348	0.712785
	H2	H	0.603445	0.838852	0.285405
	H3	H	0.403002	0.168686	0.283296
	H4	H	0.718866	0.405554	0.832990
	H5	H	0.719723	0.603488	0.162234
	H6	H	0.287318	0.605657	0.834530
	H7	H	0.293486	0.405692	0.162667
	H8	H	0.840271	0.720277	0.398014
	H9	H	0.168713	0.717126	0.600169
	H10	H	0.838767	0.291840	0.594952
	H11	H	0.168484	0.285886	0.401016
	H12	H	0.839344	0.406739	0.711850
	H13	H	0.168900	0.600370	0.714299
	H14	H	0.840895	0.604447	0.283099
	H15	H	0.169746	0.401953	0.287012
	H16	H	0.403547	0.719099	0.832821
	H17	H	0.604264	0.717175	0.162178
	H18	H	0.604821	0.289527	0.832433
	H19	H	0.409623	0.290528	0.161640
	H20	H	0.719487	0.839015	0.399585
	H21	H	0.717434	0.168439	0.598425
	H22	H	0.292825	0.838594	0.596284
	H23	H	0.286039	0.167420	0.395671
	H24	H	0.908720	0.339064	0.212731
	H25	H	0.102603	0.668546	0.214317
	H26	H	0.103642	0.339181	0.787285
	H27	H	0.903146	0.668156	0.783899
	H28	H	0.217900	0.902124	0.332461
	H29	H	0.219702	0.101940	0.660707
	H30	H	0.786590	0.103057	0.333671
	H31	H	0.793460	0.906294	0.663241
	H32	H	0.341187	0.219973	0.896502
	H33	H	0.670444	0.216088	0.097094
	H34	H	0.340183	0.791968	0.094956
	H35	H	0.669925	0.789441	0.902066
	H36	H	0.340037	0.907595	0.210506
	H37	H	0.669428	0.101380	0.214182
	H38	H	0.341338	0.105234	0.782493
	H39	H	0.670047	0.904067	0.786112
	H40	H	0.902215	0.219499	0.333507
	H41	H	0.101189	0.213507	0.663163
	H42	H	0.102935	0.786979	0.334016
	H43	H	0.909628	0.792425	0.663989
	H44	H	0.220562	0.340540	0.900396
	H45	H	0.217553	0.669808	0.099038
	H46	H	0.792509	0.339205	0.096792
	H47	H	0.788317	0.668305	0.898656
	H48	H	0.413691	0.119713	0.590358
	H49	H	0.607699	0.884050	0.588557
	H50	H	0.588710	0.120990	0.399889
	H51	H	0.418196	0.884963	0.397545
	H52	H	0.599555	0.414526	0.113949
	H53	H	0.597518	0.602850	0.877730
	H54	H	0.417556	0.600336	0.114765
	H55	H	0.409332	0.408560	0.877551
	H56	H	0.120784	0.601370	0.418408
	H57	H	0.889512	0.595626	0.586576
	H58	H	0.122575	0.399347	0.587639
	H59	H	0.887254	0.409240	0.407007
	H60	H	0.118384	0.416944	0.590886
	H61	H	0.886052	0.595294	0.596939
	H62	H	0.118463	0.582722	0.407031
	H63	H	0.888443	0.415043	0.406884
	H64	H	0.408247	0.601240	0.118007
	H65	H	0.601731	0.593032	0.878929
	H66	H	0.595065	0.406612	0.115285
	H67	H	0.408192	0.418192	0.879882
	H68	H	0.594984	0.119197	0.414827
	H69	H	0.598489	0.883425	0.600713
	H70	H	0.409335	0.120267	0.585525
	H71	H	0.414301	0.888697	0.412689
	H72	H	0.909613	0.624048	0.099772
	H73	H	0.111084	0.382797	0.091959
	H74	H	0.099179	0.623626	0.904714
	H75	H	0.906229	0.383110	0.902696
	H76	H	0.088583	0.905444	0.613521
	H77	H	0.086426	0.097402	0.381434
	H78	H	0.918320	0.104637	0.615628
	H79	H	0.916188	0.911406	0.382117
	H80	H	0.625045	0.104116	0.909691
	H81	H	0.387189	0.102491	0.087978
	H82	H	0.619419	0.916105	0.089873
	H83	H	0.390424	0.916784	0.908269
	H84	H	0.624118	0.909327	0.100204
	H85	H	0.389303	0.095467	0.087072
	H86	H	0.620184	0.089381	0.908672
	H87	H	0.387097	0.914870	0.898132
	H88	H	0.900803	0.102264	0.620326
	H89	H	0.098804	0.100574	0.376178
	H90	H	0.109061	0.903394	0.620905
	H91	H	0.908017	0.908386	0.378570
	H92	H	0.093472	0.622314	0.902576
	H93	H	0.095953	0.385603	0.101876
	H94	H	0.919109	0.618635	0.089265
	H95	H	0.916230	0.386498	0.900988
	H96	H	0.407860	0.122562	0.591869
	H97	H	0.593261	0.888254	0.587484
	H98	H	0.603390	0.124601	0.402875
	H99	H	0.403488	0.883833	0.402472
	H100	H	0.604572	0.407769	0.117562
	H101	H	0.590967	0.595487	0.882056
	H102	H	0.411935	0.592711	0.114494
	H103	H	0.417426	0.413078	0.882368
	H104	H	0.126737	0.600525	0.397870
	H105	H	0.884812	0.604166	0.591632
	H106	H	0.124723	0.406601	0.604130
	H107	H	0.886150	0.412906	0.401520
	H108	H	0.904724	0.622054	0.085987
	H109	H	0.095622	0.390809	0.084162
	H110	H	0.094638	0.621232	0.909667
	H111	H	0.912307	0.387608	0.911214
	H112	H	0.101932	0.921655	0.612277
	H113	H	0.097055	0.087898	0.380823
	H114	H	0.910475	0.087318	0.612735
	H115	H	0.909376	0.916045	0.381642
	H116	H	0.625916	0.096774	0.895676
	H117	H	0.386626	0.097618	0.093760
	H118	H	0.623949	0.903283	0.088693
	H119	H	0.385930	0.906622	0.905461
	C120	C	0.383078	0.012087	0.618620
	C121	C	0.626513	0.994629	0.620183
	C122	C	0.625200	0.012593	0.377279
	C123	C	0.382075	0.994837	0.375211
	C124	C	0.627977	0.381419	0.006684
	C125	C	0.625812	0.625094	0.988723
	C126	C	0.382524	0.627190	0.006790
	C127	C	0.384155	0.383940	0.988672
	C128	C	0.013564	0.625321	0.377601
	C129	C	0.995633	0.625473	0.620867
	C130	C	0.012856	0.381006	0.621248
	C131	C	0.995828	0.381457	0.377112
	C132	C	0.883788	0.512618	0.119827
	C133	C	0.127941	0.495584	0.121473
	C134	C	0.125305	0.513049	0.877928
	C135	C	0.882286	0.495037	0.876524
	C136	C	0.127791	0.880550	0.506675
	C137	C	0.123794	0.123382	0.488681
	C138	C	0.880449	0.126855	0.507260
	C139	C	0.883647	0.883416	0.489630
	C140	C	0.514380	0.125903	0.875626
	C141	C	0.496373	0.126129	0.119313
	C142	C	0.513533	0.882181	0.119913
	C143	C	0.496556	0.882941	0.876431
	C144	C	0.387155	0.888546	0.674376
	C145	C	0.622895	0.119146	0.675132
	C146	C	0.623487	0.888013	0.323086
	C147	C	0.383203	0.119194	0.320694
	C148	C	0.681671	0.384672	0.882274
	C149	C	0.681642	0.622979	0.112949
	C150	C	0.325784	0.625837	0.883458
	C151	C	0.330486	0.385711	0.112933
	C152	C	0.889668	0.681828	0.378551
	C153	C	0.119529	0.679493	0.619815
	C154	C	0.888307	0.328596	0.616529
	C155	C	0.119426	0.324371	0.380516
	C156	C	0.888542	0.385592	0.674647
	C157	C	0.119632	0.621215	0.676492
	C158	C	0.889852	0.623970	0.321509
	C159	C	0.119910	0.382107	0.323361
	C160	C	0.383996	0.682007	0.882561
	C161	C	0.624153	0.679699	0.112912
	C162	C	0.625076	0.326971	0.882112
	C163	C	0.388263	0.328233	0.112590
	C164	C	0.681405	0.888262	0.379460
	C165	C	0.680032	0.119149	0.617935
	C166	C	0.329899	0.888055	0.616457
	C167	C	0.325191	0.118643	0.376794
	C168	C	0.887792	0.388213	0.174729
	C169	C	0.123705	0.619380	0.176740
	C170	C	0.124047	0.388870	0.823864
	C171	C	0.883447	0.618866	0.821546
	C172	C	0.181195	0.882375	0.382270
	C173	C	0.180486	0.121185	0.612105
	C174	C	0.824791	0.123985	0.382804
	C175	C	0.830330	0.885717	0.613957
	C176	C	0.390633	0.182194	0.876809
	C177	C	0.620982	0.179054	0.117469
	C178	C	0.389386	0.828972	0.115962
	C179	C	0.620678	0.827126	0.880897
	C180	C	0.389396	0.886130	0.173641
	C181	C	0.620249	0.122287	0.176004
	C182	C	0.390563	0.124771	0.820144
	C183	C	0.620608	0.884024	0.823137
	C184	C	0.882098	0.181824	0.382912
	C185	C	0.121956	0.176876	0.613303
	C186	C	0.123901	0.825043	0.382863
	C187	C	0.888123	0.828951	0.614314
	C188	C	0.182031	0.389474	0.880301
	C189	C	0.180830	0.620029	0.119203
	C190	C	0.830290	0.388260	0.117043
	C191	C	0.826319	0.619111	0.878622
	C192	C	0.404093	0.098452	0.596017
	C193	C	0.605911	0.907760	0.598725
	C194	C	0.602493	0.099074	0.399318
	C195	C	0.405210	0.908249	0.397551
	C196	C	0.606335	0.403134	0.093164
	C197	C	0.603422	0.603413	0.902041
	C198	C	0.405756	0.604763	0.093448
	C199	C	0.405405	0.406518	0.902254
	C200	C	0.099870	0.601702	0.400976
	C201	C	0.909162	0.604464	0.598362
	C202	C	0.099461	0.401538	0.600400
	C203	C	0.909477	0.405317	0.398741
	C204	C	0.904847	0.599145	0.098199
	C205	C	0.107087	0.408967	0.099229
	C206	C	0.102450	0.600024	0.899408
	C207	C	0.904917	0.408135	0.898605
	C208	C	0.106217	0.903286	0.593157
	C209	C	0.100771	0.101550	0.402004
	C210	C	0.902960	0.104676	0.593653
	C211	C	0.904841	0.905479	0.403006
	C212	C	0.601466	0.103399	0.898159
	C213	C	0.410007	0.105006	0.096394
	C214	C	0.600167	0.903312	0.099182
	C215	C	0.409945	0.905947	0.897732
	Zn216	Zn	0.505388	0.004267	0.748102
	Zn217	Zn	0.504397	0.004162	0.248494
	Zn218	Zn	0.754622	0.503723	-0.001997
	Zn219	Zn	0.254873	0.505447	-0.001653
	Zn220	Zn	0.004579	0.754096	0.498853
	Zn221	Zn	0.003754	0.252970	0.498589
	Zn222	Zn	0.004230	0.503317	0.749357
	Zn223	Zn	0.005489	0.503589	0.249087
	Zn224	Zn	0.504958	0.753888	-0.002382
	Zn225	Zn	0.505862	0.253909	-0.003391
	Zn226	Zn	0.753754	0.003651	0.498536
	Zn227	Zn	0.254164	0.003467	0.496394
	N228	N	0.419550	0.966738	0.675818
	N229	N	0.590316	0.040902	0.676650
	N230	N	0.589095	0.966176	0.321551
	N231	N	0.417733	0.041255	0.319463
	N232	N	0.683807	0.417580	0.960586
	N233	N	0.682903	0.589621	0.034631
	N234	N	0.324771	0.592408	0.961777
	N235	N	0.327827	0.419605	0.034766
	N236	N	0.967644	0.682743	0.412747
	N237	N	0.041557	0.682220	0.585735
	N238	N	0.966619	0.325578	0.584077
	N239	N	0.041233	0.324001	0.413141
	N240	N	0.966776	0.417663	0.677491
	N241	N	0.041540	0.588340	0.677309
	N242	N	0.967898	0.589699	0.320669
	N243	N	0.042016	0.417099	0.321266
	N244	N	0.418401	0.683204	0.960594
	N245	N	0.590356	0.681401	0.034783
	N246	N	0.592208	0.324700	0.960387
	N247	N	0.421125	0.327072	0.034501
	N248	N	0.682437	0.966548	0.412657
	N249	N	0.682563	0.040784	0.584612
	N250	N	0.327201	0.965901	0.582389
	N251	N	0.324449	0.040151	0.409978
	N252	N	0.920273	0.466400	0.176542
	N253	N	0.091811	0.540887	0.178486
	N254	N	0.089348	0.466800	0.822510
	N255	N	0.917521	0.540676	0.820124
	N256	N	0.183907	0.916119	0.460314
	N257	N	0.181694	0.088720	0.533676
	N258	N	0.823660	0.090469	0.461019
	N259	N	0.827522	0.918833	0.535500
	N260	N	0.468791	0.182888	0.910607
	N261	N	0.543075	0.181723	0.082979
	N262	N	0.467552	0.826239	0.083307
	N263	N	0.542306	0.826313	0.913269
	N264	N	0.467444	0.918765	0.175947
	N265	N	0.541855	0.090014	0.177177
	N266	N	0.468555	0.090348	0.819487
	N267	N	0.542415	0.918045	0.820288
	N268	N	0.915988	0.183722	0.461147
	N269	N	0.087230	0.178387	0.535358
	N270	N	0.091330	0.823961	0.461126
	N271	N	0.920440	0.827202	0.535875
	N272	N	0.183008	0.468003	0.912958
	N273	N	0.183917	0.541897	0.085701
	N274	N	0.827497	0.466632	0.083695
	N275	N	0.825574	0.541054	0.912126
	O276	O	0.053989	-0.022557	-0.084345
	H277	H	0.059853	-0.024443	-0.076230
	H278	H	0.041838	-0.015692	-0.092958
	O279	O	0.551472	0.448302	0.379800
	H280	H	0.556507	0.441155	0.381005
	H281	H	0.560086	0.440855	0.372419
	O282	O	0.510687	0.551784	0.437053
	H283	H	0.512169	0.551438	0.432086
	H284	H	0.501398	0.550354	0.429659
	O285	O	0.999041	-0.003956	0.996392
	H286	H	0.998828	0.006026	0.989571
	H287	H	1.002491	-0.003030	1.002286
	O288	O	0.982161	0.014626	-0.025977
	H289	H	0.977102	0.015862	-0.013834
	H290	H	0.981185	0.017167	-0.021962
	O291	O	0.455520	0.481304	0.457711
	H292	H	0.451802	0.478863	0.462041
	H293	H	0.468224	0.477643	0.463106
	O294	O	0.964082	0.064506	0.929454
	H295	H	0.971795	0.055824	0.932234
	H296	H	0.964443	0.069385	0.919827
	O297	O	0.035324	0.039208	-0.049675
	H298	H	0.036338	0.036773	-0.055250
	H299	H	0.029699	0.037374	-0.050903
	O300	O	0.439005	0.527197	0.505500
	H301	H	0.450172	0.537198	0.502131
	H302	H	0.437213	0.537425	0.501732
	O303	O	0.510150	0.510998	0.481388
	H304	H	0.508049	0.506979	0.483088
	H305	H	0.505628	0.519955	0.473497
	O306	O	1.033457	0.045067	0.032252
	H307	H	1.020697	0.047083	0.019357
	H308	H	1.031134	0.036626	0.036409
	O309	O	0.061981	-0.017332	1.016009
	H310	H	0.056263	-0.026240	1.003802
	H311	H	0.065187	-0.020066	1.013893
	O312	O	1.025189	0.931954	0.977279
	H313	H	1.012210	0.931566	0.981876
	H314	H	1.037667	0.937731	0.973187
	O315	O	0.506174	0.564287	0.364526
	H316	H	0.495758	0.561478	0.353475
	H317	H	0.506984	0.567892	0.365424
	O318	O	0.407468	0.457372	0.526668
	H319	H	0.414454	0.461979	0.531256
	H320	H	0.401286	0.451409	0.538751
	O321	O	0.017217	1.062147	1.018759
	H322	H	0.027498	1.055285	1.023017
	H323	H	0.013928	1.068960	1.021793
	O324	O	0.566217	0.493008	0.439142
	H325	H	0.564246	0.489636	0.443019
	H326	H	0.575458	0.490418	0.437372
	O327	O	0.538513	0.486257	0.578870
	H328	H	0.530162	0.484639	0.586508
	H329	H	0.538711	0.495377	0.579944
	O330	O	0.493472	0.601907	0.580169
	H331	H	0.498059	0.608315	0.582964
	H332	H	0.499883	0.605813	0.571807
	O333	O	0.535647	0.593467	0.496445
	H334	H	0.542097	0.585454	0.501929
	H335	H	0.531379	0.603546	0.482535
	O336	O	0.499994	0.502140	0.531334
	H337	H	0.499984	0.502401	0.537587
	H338	H	0.497696	0.492804	0.528282
	O339	O	1.039892	1.078681	-0.003049
	H340	H	1.035862	1.074190	0.005236
	H341	H	1.048344	1.079056	-0.008806
	O342	O	0.531746	0.413392	0.559790
	H343	H	0.528108	0.416839	0.558088
	H344	H	0.536778	0.405456	0.570242
	O345	O	0.395100	0.467177	0.436088
	H346	H	0.396773	0.467968	0.433293
	H347	H	0.390262	0.475908	0.429325
	O348	O	-0.054305	0.011665	0.008274
	H349	H	-0.045657	0.008467	0.013040
	H350	H	-0.053733	0.019449	0.014940
	O351	O	0.046630	1.024280	1.041953
	H352	H	0.048681	1.028932	1.038803
	H353	H	0.052650	1.019851	1.039734
	O354	O	0.480752	0.407991	0.511190
	H355	H	0.477756	0.409503	0.516400
	H356	H	0.471102	0.405998	0.504412
	O357	O	0.023043	0.998133	1.077469
	H358	H	0.030234	0.994579	1.077611
	H359	H	0.027566	1.003922	1.080298
