data_Molecule from HDF5

_cell_length_a		16.323205
_cell_length_b		16.172201
_cell_length_c		16.195556
_cell_angle_alpha	89.930348
_cell_angle_beta	89.918160
_cell_angle_gamma	90.063742
_symmetry_space_group_name_H-M	'P 1'
_symmetry_Int_Tables_number		1

loop_
	_symmetry_equiv_pos_as_xyz
	x,y,z

loop_
	_atom_site_label
	_atom_site_type_symbol
	_atom_site_fract_x
	_atom_site_fract_y
	_atom_site_fract_z
	H0	H	0.407998	0.831109	0.717538
	H1	H	0.601754	0.160825	0.715594
	H2	H	0.602058	0.830679	0.291727
	H3	H	0.407604	0.160725	0.291442
	H4	H	0.720198	0.397241	0.840557
	H5	H	0.720433	0.597176	0.168725
	H6	H	0.291112	0.596479	0.840636
	H7	H	0.289181	0.396176	0.168497
	H8	H	0.842121	0.709917	0.406595
	H9	H	0.167930	0.710527	0.601891
	H10	H	0.841153	0.282537	0.601722
	H11	H	0.168831	0.281075	0.405234
	H12	H	0.842067	0.397652	0.719119
	H13	H	0.169038	0.593349	0.716350
	H14	H	0.841984	0.593945	0.290343
	H15	H	0.168675	0.396762	0.288912
	H16	H	0.409351	0.708452	0.839777
	H17	H	0.602212	0.709472	0.169146
	H18	H	0.601978	0.285249	0.838638
	H19	H	0.407202	0.283021	0.169349
	H20	H	0.719605	0.831430	0.404069
	H21	H	0.720261	0.159387	0.604716
	H22	H	0.291433	0.831560	0.603765
	H23	H	0.290447	0.159840	0.405328
	H24	H	0.907151	0.331333	0.217407
	H25	H	0.103800	0.660879	0.217210
	H26	H	0.103867	0.331852	0.790964
	H27	H	0.907697	0.660995	0.791984
	H28	H	0.221494	0.894670	0.341262
	H29	H	0.219368	0.095218	0.668444
	H30	H	0.790761	0.094717	0.340437
	H31	H	0.789874	0.894892	0.668370
	H32	H	0.341652	0.210853	0.906210
	H33	H	0.669056	0.211033	0.101618
	H34	H	0.341774	0.781314	0.103603
	H35	H	0.668728	0.782575	0.905703
	H36	H	0.341620	0.898420	0.218090
	H37	H	0.668197	0.096074	0.219045
	H38	H	0.341290	0.094688	0.790464
	H39	H	0.668244	0.898541	0.789243
	H40	H	0.908563	0.208588	0.339946
	H41	H	0.101049	0.206913	0.669776
	H42	H	0.101873	0.783951	0.339624
	H43	H	0.907059	0.782355	0.668682
	H44	H	0.220875	0.332422	0.903275
	H45	H	0.219218	0.660406	0.102807
	H46	H	0.789923	0.332522	0.103615
	H47	H	0.790828	0.659919	0.905275
	H48	H	0.408127	0.113401	0.591717
	H49	H	0.589380	0.876044	0.609496
	H50	H	0.591568	0.113876	0.404116
	H51	H	0.399020	0.873803	0.410888
	H52	H	0.595904	0.410128	0.119720
	H53	H	0.598575	0.585658	0.888223
	H54	H	0.416180	0.590688	0.121241
	H55	H	0.414456	0.404868	0.888417
	H56	H	0.123020	0.591262	0.410375
	H57	H	0.889963	0.586271	0.595464
	H58	H	0.125474	0.392514	0.600571
	H59	H	0.887448	0.405377	0.402113
	H60	H	0.118651	0.403063	0.589754
	H61	H	0.887380	0.587983	0.602225
	H62	H	0.121378	0.588669	0.411148
	H63	H	0.887061	0.393096	0.411959
	H64	H	0.407912	0.591216	0.124644
	H65	H	0.597220	0.591332	0.886689
	H66	H	0.593692	0.399630	0.121758
	H67	H	0.411773	0.401037	0.885642
	H68	H	0.595236	0.109542	0.420955
	H69	H	0.592607	0.882743	0.584795
	H70	H	0.407173	0.116908	0.602733
	H71	H	0.421626	0.877591	0.402082
	H72	H	0.910704	0.614779	0.100025
	H73	H	0.097814	0.381421	0.084551
	H74	H	0.113715	0.617766	0.914989
	H75	H	0.909716	0.379955	0.920976
	H76	H	0.099584	0.906696	0.621114
	H77	H	0.105565	0.090851	0.383905
	H78	H	0.910925	0.089033	0.622905
	H79	H	0.908389	0.905367	0.386300
	H80	H	0.623280	0.094939	0.909697
	H81	H	0.389353	0.083793	0.101638
	H82	H	0.621830	0.902779	0.099209
	H83	H	0.387908	0.906531	0.904860
	H84	H	0.622205	0.901842	0.096765
	H85	H	0.386228	0.095324	0.100009
	H86	H	0.620350	0.089031	0.913723
	H87	H	0.386045	0.894870	0.909792
	H88	H	0.909142	0.086417	0.623159
	H89	H	0.097931	0.079419	0.389093
	H90	H	0.095279	0.902721	0.621515
	H91	H	0.913741	0.905701	0.388074
	H92	H	0.094189	0.616972	0.897238
	H93	H	0.107203	0.374687	0.100902
	H94	H	0.915714	0.613517	0.097253
	H95	H	0.905594	0.374671	0.905963
	H96	H	0.417241	0.112657	0.598223
	H97	H	0.611629	0.873501	0.597323
	H98	H	0.608705	0.116890	0.410461
	H99	H	0.415946	0.882822	0.425370
	H100	H	0.603451	0.403362	0.123734
	H101	H	0.602450	0.589757	0.886035
	H102	H	0.410277	0.583214	0.121564
	H103	H	0.409587	0.405919	0.886567
	H104	H	0.122504	0.589303	0.407940
	H105	H	0.887939	0.592570	0.596777
	H106	H	0.122655	0.408233	0.604996
	H107	H	0.891946	0.407289	0.417561
	H108	H	0.910555	0.614371	0.094647
	H109	H	0.087966	0.379707	0.102173
	H110	H	0.090374	0.607694	0.921718
	H111	H	0.920936	0.379459	0.908554
	H112	H	0.100059	0.901481	0.623850
	H113	H	0.091576	0.091734	0.388146
	H114	H	0.912639	0.087236	0.621126
	H115	H	0.912053	0.900643	0.386029
	H116	H	0.621723	0.088196	0.906369
	H117	H	0.391088	0.089010	0.090604
	H118	H	0.621389	0.904174	0.096875
	H119	H	0.390761	0.904357	0.917510
	C120	C	0.383299	0.005282	0.625828
	C121	C	0.626399	0.986596	0.625746
	C122	C	0.626403	0.004277	0.383167
	C123	C	0.383353	0.986695	0.383344
	C124	C	0.626226	0.375657	0.012812
	C125	C	0.627406	0.618216	0.995521
	C126	C	0.383576	0.617483	0.013795
	C127	C	0.383094	0.374669	0.995843
	C128	C	0.014027	0.617951	0.381768
	C129	C	0.996463	0.617608	0.626015
	C130	C	0.013918	0.373288	0.626869
	C131	C	0.997056	0.373548	0.382068
	C132	C	0.883723	0.505287	0.125657
	C133	C	0.126186	0.487322	0.124992
	C134	C	0.127675	0.505227	0.882665
	C135	C	0.884193	0.487224	0.883718
	C136	C	0.126797	0.874415	0.513456
	C137	C	0.126302	0.116245	0.495854
	C138	C	0.882765	0.116687	0.513747
	C139	C	0.883066	0.874899	0.495626
	C140	C	0.513689	0.118945	0.881988
	C141	C	0.496922	0.118201	0.125728
	C142	C	0.513976	0.874091	0.126480
	C143	C	0.496652	0.874201	0.882630
	C144	C	0.386708	0.880556	0.680461
	C145	C	0.623129	0.111123	0.679341
	C146	C	0.623189	0.880097	0.328607
	C147	C	0.386160	0.111041	0.328175
	C148	C	0.682040	0.377097	0.889478
	C149	C	0.682223	0.616220	0.119577
	C150	C	0.329282	0.615792	0.889586
	C151	C	0.327636	0.376336	0.119471
	C152	C	0.890945	0.672327	0.385571
	C153	C	0.119397	0.672622	0.622631
	C154	C	0.890545	0.319296	0.623438
	C155	C	0.120014	0.318589	0.384678
	C156	C	0.890816	0.376637	0.681514
	C157	C	0.119823	0.614383	0.679662
	C158	C	0.890907	0.614772	0.327968
	C159	C	0.119866	0.376195	0.326685
	C160	C	0.388107	0.671581	0.889259
	C161	C	0.623855	0.672530	0.119856
	C162	C	0.623160	0.321569	0.888509
	C163	C	0.385913	0.319765	0.119903
	C164	C	0.681506	0.880306	0.384711
	C165	C	0.681946	0.110267	0.624017
	C166	C	0.329009	0.880691	0.623634
	C167	C	0.328135	0.110714	0.384714
	C168	C	0.886198	0.380906	0.180581
	C169	C	0.123806	0.611542	0.179771
	C170	C	0.124805	0.381165	0.827915
	C171	C	0.886980	0.611532	0.829061
	C172	C	0.182882	0.875441	0.390117
	C173	C	0.180888	0.114225	0.619786
	C174	C	0.828093	0.115321	0.389796
	C175	C	0.827822	0.875690	0.619256
	C176	C	0.390562	0.173068	0.885312
	C177	C	0.620097	0.173504	0.122853
	C178	C	0.390603	0.819103	0.124129
	C179	C	0.619797	0.819945	0.885205
	C180	C	0.390540	0.877195	0.181000
	C181	C	0.619470	0.116626	0.181345
	C182	C	0.390314	0.115220	0.827926
	C183	C	0.619683	0.877748	0.827720
	C184	C	0.886760	0.171631	0.389452
	C185	C	0.122371	0.170042	0.620212
	C186	C	0.123766	0.820012	0.389271
	C187	C	0.886218	0.819719	0.619558
	C188	C	0.183057	0.381734	0.883781
	C189	C	0.181680	0.611068	0.123427
	C190	C	0.828004	0.381491	0.124051
	C191	C	0.828696	0.610852	0.885183
	C192	C	0.404475	0.091825	0.603913
	C193	C	0.604490	0.899713	0.603822
	C194	C	0.604833	0.091060	0.405292
	C195	C	0.405614	0.900592	0.406056
	C196	C	0.604028	0.397849	0.099334
	C197	C	0.605717	0.595692	0.909247
	C198	C	0.405202	0.594878	0.100230
	C199	C	0.405435	0.397185	0.909171
	C200	C	0.100050	0.596245	0.403395
	C201	C	0.910417	0.595451	0.604454
	C202	C	0.100004	0.394794	0.604984
	C203	C	0.911052	0.395325	0.404085
	C204	C	0.905861	0.591842	0.103744
	C205	C	0.103944	0.400947	0.102737
	C206	C	0.105754	0.591802	0.904847
	C207	C	0.905730	0.400472	0.905372
	C208	C	0.104788	0.896908	0.599917
	C209	C	0.104692	0.093923	0.409424
	C210	C	0.904420	0.094277	0.600044
	C211	C	0.904992	0.897208	0.409156
	C212	C	0.599584	0.097240	0.903559
	C213	C	0.411235	0.095985	0.103874
	C214	C	0.599611	0.896234	0.104334
	C215	C	0.410401	0.895537	0.904334
	Zn216	Zn	0.504841	-0.003722	0.753657
	Zn217	Zn	0.505296	-0.004032	0.254991
	Zn218	Zn	0.755636	0.496097	0.004599
	Zn219	Zn	0.255078	0.496089	0.004262
	Zn220	Zn	0.005031	0.746921	0.504325
	Zn221	Zn	0.005362	0.244535	0.504579
	Zn222	Zn	0.005293	0.496193	0.755277
	Zn223	Zn	0.005406	0.495944	0.253254
	Zn224	Zn	0.505400	0.745624	0.004947
	Zn225	Zn	0.505172	0.247127	0.004264
	Zn226	Zn	0.753986	-0.004911	0.504333
	Zn227	Zn	0.254843	-0.004331	0.504564
	N228	N	0.419795	0.958862	0.682121
	N229	N	0.589051	0.033136	0.680466
	N230	N	0.589501	0.958161	0.327812
	N231	N	0.419594	0.033011	0.326887
	N232	N	0.684044	0.410021	0.967785
	N233	N	0.684658	0.583087	0.041332
	N234	N	0.326280	0.582889	0.967994
	N235	N	0.325666	0.409488	0.041245
	N236	N	0.968575	0.674410	0.418580
	N237	N	0.041674	0.674833	0.590064
	N238	N	0.968015	0.317275	0.590152
	N239	N	0.042424	0.316561	0.418120
	N240	N	0.968619	0.409582	0.683978
	N241	N	0.042246	0.581149	0.681905
	N242	N	0.968376	0.581777	0.325475
	N243	N	0.042344	0.409429	0.324847
	N244	N	0.421154	0.672835	0.967431
	N245	N	0.590316	0.673674	0.042019
	N246	N	0.589111	0.320692	0.966373
	N247	N	0.419904	0.318838	0.041976
	N248	N	0.683668	0.958694	0.417775
	N249	N	0.683914	0.031764	0.591460
	N250	N	0.326678	0.958985	0.590490
	N251	N	0.326109	0.032574	0.418275
	N252	N	0.920042	0.458971	0.181747
	N253	N	0.089962	0.533543	0.180821
	N254	N	0.091023	0.458990	0.826964
	N255	N	0.921041	0.533741	0.828202
	N256	N	0.184896	0.908294	0.468441
	N257	N	0.183345	0.081303	0.541463
	N258	N	0.825468	0.081912	0.467962
	N259	N	0.825936	0.909318	0.541290
	N260	N	0.468159	0.175350	0.918137
	N261	N	0.542863	0.174825	0.089162
	N262	N	0.468187	0.816955	0.090944
	N263	N	0.542289	0.817929	0.918903
	N264	N	0.468011	0.910701	0.182749
	N265	N	0.542018	0.082986	0.183301
	N266	N	0.468046	0.082205	0.825624
	N267	N	0.542041	0.910602	0.825885
	N268	N	0.920161	0.172599	0.467309
	N269	N	0.089159	0.171442	0.542216
	N270	N	0.089476	0.819382	0.466832
	N271	N	0.919879	0.818888	0.541638
	N272	N	0.184855	0.459939	0.917118
	N273	N	0.183232	0.532996	0.089940
	N274	N	0.826392	0.459670	0.090899
	N275	N	0.827085	0.532583	0.918467
	O276	O	1.063417	0.974990	0.087370
	H277	H	1.065806	0.970026	0.093118
	H278	H	1.065902	0.982908	0.087089
	O279	O	-0.051348	-0.030389	0.004983
	H280	H	-0.047439	-0.032690	0.007391
	H281	H	-0.050159	-0.028087	0.008597
	O282	O	0.075855	0.013785	1.037392
	H283	H	0.075576	0.016286	1.035614
	H284	H	0.074883	0.011964	1.031631
	O285	O	0.467445	0.487870	0.459988
	H286	H	0.463873	0.485611	0.465023
	H287	H	0.462350	0.486530	0.453278
	O288	O	0.444328	0.464042	0.430855
	H289	H	0.441353	0.474160	0.423565
	H290	H	0.452263	0.452016	0.418683
	O291	O	0.489701	0.487666	0.403246
	H292	H	0.506477	0.484955	0.409622
	H293	H	0.489515	0.498401	0.391463
	O294	O	-0.010243	0.013239	0.012633
	H295	H	0.001761	0.026595	0.013655
	H296	H	-0.009659	0.009384	0.001649
	O297	O	0.365260	0.297307	0.313910
	H298	H	0.364004	0.308446	0.318150
	H299	H	0.376943	0.293589	0.306914
	O300	O	-0.046160	0.992192	1.003710
	H301	H	-0.043919	0.988162	1.009229
	H302	H	-0.049169	0.981635	1.000977
	O303	O	0.524247	0.511719	0.401381
	H304	H	0.527972	0.519563	0.409036
	H305	H	0.523307	0.509132	0.406614
	O306	O	0.067984	0.000880	1.022178
	H307	H	0.065534	0.001269	1.013485
	H308	H	0.064139	0.003428	1.019904
	O309	O	1.025283	1.033237	0.998664
	H310	H	1.027944	1.036288	0.998495
	H311	H	1.025804	1.032927	1.003136
	O312	O	0.473589	0.503651	0.469341
	H313	H	0.475448	0.489847	0.467088
	H314	H	0.458952	0.499163	0.469154
	O315	O	0.021615	0.967739	0.067576
	H316	H	0.022468	0.971731	0.071998
	H317	H	0.019485	0.977329	0.064325
	O318	O	-0.009165	1.038188	0.005075
	H319	H	-0.019188	1.027063	0.006747
	H320	H	-0.013216	1.035696	0.004812
	O321	O	0.982994	1.000063	0.069229
	H322	H	0.982176	1.001936	0.064864
	H323	H	0.975043	0.995223	0.071919
