data_Molecule from HDF5

_cell_length_a		16.537078
_cell_length_b		16.512724
_cell_length_c		16.680582
_cell_angle_alpha	89.927589
_cell_angle_beta	89.979728
_cell_angle_gamma	89.957383
_symmetry_space_group_name_H-M	'P 1'
_symmetry_Int_Tables_number		1

loop_
	_symmetry_equiv_pos_as_xyz
	x,y,z

loop_
	_atom_site_label
	_atom_site_type_symbol
	_atom_site_fract_x
	_atom_site_fract_y
	_atom_site_fract_z
	H0	H	0.394704	0.848317	0.742501
	H1	H	0.609840	0.158876	0.740618
	H2	H	0.608546	0.845110	0.299999
	H3	H	0.398262	0.158990	0.296557
	H4	H	0.723574	0.400842	0.861884
	H5	H	0.725522	0.608536	0.173966
	H6	H	0.283363	0.606464	0.862806
	H7	H	0.281780	0.396110	0.173571
	H8	H	0.846667	0.722238	0.417749
	H9	H	0.162178	0.722786	0.622498
	H10	H	0.847380	0.283420	0.624098
	H11	H	0.160955	0.283318	0.416534
	H12	H	0.848170	0.397172	0.742371
	H13	H	0.160988	0.608440	0.740624
	H14	H	0.848792	0.610222	0.298003
	H15	H	0.159785	0.397015	0.297676
	H16	H	0.398347	0.724609	0.863404
	H17	H	0.609562	0.725339	0.173182
	H18	H	0.606195	0.284300	0.861037
	H19	H	0.400382	0.281144	0.174421
	H20	H	0.722389	0.844208	0.418272
	H21	H	0.724436	0.160071	0.623101
	H22	H	0.281517	0.847388	0.624327
	H23	H	0.284150	0.160509	0.414470
	H24	H	0.898724	0.346739	0.241060
	H25	H	0.109228	0.660207	0.238748
	H26	H	0.109870	0.345595	0.797954
	H27	H	0.900277	0.659827	0.799451
	H28	H	0.227725	0.896743	0.363918
	H29	H	0.228206	0.109974	0.674522
	H30	H	0.780033	0.112021	0.366701
	H31	H	0.782856	0.897843	0.675556
	H32	H	0.346608	0.224221	0.914085
	H33	H	0.663119	0.220073	0.118982
	H34	H	0.346978	0.781806	0.123810
	H35	H	0.660574	0.783637	0.916921
	H36	H	0.347861	0.896271	0.241522
	H37	H	0.661688	0.106967	0.238514
	H38	H	0.347325	0.109195	0.797062
	H39	H	0.658742	0.896120	0.796485
	H40	H	0.895795	0.228457	0.366623
	H41	H	0.111737	0.226558	0.674584
	H42	H	0.110388	0.781203	0.363749
	H43	H	0.901272	0.782803	0.676486
	H44	H	0.222859	0.344293	0.916291
	H45	H	0.223028	0.660476	0.120038
	H46	H	0.784921	0.345622	0.123280
	H47	H	0.785132	0.660215	0.916962
	H48	H	0.413331	0.115844	0.605638
	H49	H	0.583682	0.892765	0.609094
	H50	H	0.586317	0.113440	0.425213
	H51	H	0.417269	0.890692	0.428932
	H52	H	0.593820	0.407198	0.130524
	H53	H	0.597473	0.595283	0.905150
	H54	H	0.417781	0.591838	0.128625
	H55	H	0.407174	0.415414	0.905574
	H56	H	0.116055	0.589061	0.429231
	H57	H	0.891038	0.593459	0.610936
	H58	H	0.115183	0.414322	0.605913
	H59	H	0.889480	0.415713	0.423761
	H60	H	0.115763	0.418661	0.609112
	H61	H	0.893331	0.593011	0.608936
	H62	H	0.117830	0.592885	0.427688
	H63	H	0.891672	0.410217	0.435023
	H64	H	0.412424	0.594168	0.132081
	H65	H	0.593818	0.588617	0.909311
	H66	H	0.598231	0.412918	0.131266
	H67	H	0.418121	0.416292	0.909991
	H68	H	0.593827	0.113883	0.436391
	H69	H	0.596138	0.892208	0.601095
	H70	H	0.418573	0.116150	0.610740
	H71	H	0.417501	0.891166	0.431880
	H72	H	0.911893	0.615276	0.103498
	H73	H	0.090583	0.391715	0.106517
	H74	H	0.092191	0.612623	0.934182
	H75	H	0.919621	0.392360	0.934236
	H76	H	0.091623	0.920680	0.627193
	H77	H	0.089908	0.092706	0.409635
	H78	H	0.911241	0.089396	0.631392
	H79	H	0.913925	0.917786	0.409805
	H80	H	0.617291	0.089011	0.921792
	H81	H	0.391563	0.094908	0.107282
	H82	H	0.615492	0.919374	0.113216
	H83	H	0.389633	0.915640	0.925880
	H84	H	0.618921	0.907472	0.111175
	H85	H	0.393710	0.088798	0.107557
	H86	H	0.617632	0.097786	0.930279
	H87	H	0.391014	0.911435	0.931358
	H88	H	0.919475	0.089009	0.629418
	H89	H	0.094594	0.093801	0.408045
	H90	H	0.088821	0.908765	0.630474
	H91	H	0.918479	0.911262	0.408818
	H92	H	0.096621	0.616437	0.927888
	H93	H	0.095753	0.388646	0.108854
	H94	H	0.913289	0.617497	0.114396
	H95	H	0.908396	0.387495	0.931090
	H96	H	0.419976	0.113062	0.604333
	H97	H	0.596387	0.887586	0.615038
	H98	H	0.598467	0.118512	0.424633
	H99	H	0.414614	0.890538	0.430293
	H100	H	0.591516	0.413983	0.128909
	H101	H	0.589419	0.595486	0.908088
	H102	H	0.412206	0.588440	0.129403
	H103	H	0.415169	0.406614	0.904741
	H104	H	0.115924	0.592908	0.432087
	H105	H	0.892026	0.591020	0.610681
	H106	H	0.117518	0.413743	0.610295
	H107	H	0.894934	0.422247	0.432914
	H108	H	0.922310	0.613044	0.108247
	H109	H	0.090948	0.390229	0.112767
	H110	H	0.088194	0.614560	0.926530
	H111	H	0.917284	0.388774	0.922439
	H112	H	0.100870	0.912916	0.632012
	H113	H	0.093678	0.089549	0.410572
	H114	H	0.916432	0.096035	0.632059
	H115	H	0.910584	0.911237	0.407207
	H116	H	0.612674	0.086638	0.932699
	H117	H	0.390557	0.091744	0.112309
	H118	H	0.613620	0.914442	0.102608
	H119	H	0.392346	0.918083	0.931993
	C120	C	0.383453	0.011856	0.639506
	C121	C	0.624556	0.994526	0.640286
	C122	C	0.625206	0.011068	0.398087
	C123	C	0.383619	0.994590	0.397801
	C124	C	0.625334	0.381077	0.026405
	C125	C	0.625227	0.624699	1.010432
	C126	C	0.382315	0.623778	0.027136
	C127	C	0.382219	0.380286	1.009775
	C128	C	0.013112	0.624578	0.398143
	C129	C	0.996120	0.624229	0.641191
	C130	C	0.012851	0.382696	0.640834
	C131	C	0.995324	0.382783	0.398717
	C132	C	0.883279	0.511637	0.140763
	C133	C	0.125146	0.493942	0.140583
	C134	C	0.124889	0.510806	0.897778
	C135	C	0.883440	0.493846	0.898427
	C136	C	0.126506	0.881632	0.527489
	C137	C	0.126099	0.125006	0.511470
	C138	C	0.882479	0.124912	0.529142
	C139	C	0.882751	0.881609	0.511725
	C140	C	0.512076	0.124022	0.896757
	C141	C	0.496144	0.123396	0.139488
	C142	C	0.512386	0.881142	0.140766
	C143	C	0.494403	0.882380	0.897755
	C144	C	0.378278	0.894723	0.701081
	C145	C	0.627798	0.112103	0.700337
	C146	C	0.626829	0.892103	0.339886
	C147	C	0.380869	0.112473	0.337408
	C148	C	0.683907	0.381311	0.908630
	C149	C	0.685327	0.626829	0.127219
	C150	C	0.323247	0.625106	0.909442
	C151	C	0.322223	0.377897	0.126996
	C152	C	0.894382	0.683517	0.397972
	C153	C	0.114799	0.683216	0.641842
	C154	C	0.894474	0.323086	0.642691
	C155	C	0.113694	0.323050	0.397504
	C156	C	0.894944	0.379560	0.701507
	C157	C	0.114236	0.626233	0.700464
	C158	C	0.895217	0.627593	0.338564
	C159	C	0.113229	0.379779	0.338715
	C160	C	0.380406	0.683883	0.909953
	C161	C	0.627511	0.684791	0.127040
	C162	C	0.625438	0.323560	0.908154
	C163	C	0.381013	0.320652	0.127309
	C164	C	0.683915	0.892100	0.398136
	C165	C	0.684634	0.112754	0.641759
	C166	C	0.321791	0.894364	0.642461
	C167	C	0.324025	0.113029	0.395947
	C168	C	0.880696	0.393803	0.201031
	C169	C	0.127743	0.612734	0.199391
	C170	C	0.127665	0.392614	0.838047
	C171	C	0.881866	0.612747	0.839740
	C172	C	0.187058	0.878954	0.410629
	C173	C	0.187638	0.128067	0.627933
	C174	C	0.820796	0.129106	0.412944
	C175	C	0.823093	0.879608	0.629079
	C176	C	0.393803	0.183986	0.895554
	C177	C	0.615239	0.181579	0.139154
	C178	C	0.394402	0.821360	0.142775
	C179	C	0.613033	0.822713	0.896771
	C180	C	0.394844	0.878231	0.201368
	C181	C	0.614692	0.125133	0.198379
	C182	C	0.394104	0.127191	0.837081
	C183	C	0.612232	0.878681	0.837331
	C184	C	0.878508	0.187169	0.413139
	C185	C	0.129827	0.186155	0.627890
	C186	C	0.128913	0.821086	0.410512
	C187	C	0.881793	0.822398	0.629407
	C188	C	0.183925	0.391981	0.896904
	C189	C	0.184076	0.612891	0.140318
	C190	C	0.823919	0.393340	0.142501
	C191	C	0.824676	0.613032	0.897965
	C192	C	0.409989	0.093685	0.614080
	C193	C	0.599273	0.912228	0.615533
	C194	C	0.600121	0.093730	0.421892
	C195	C	0.409258	0.912216	0.422977
	C196	C	0.601360	0.404585	0.108681
	C197	C	0.600626	0.600276	0.928744
	C198	C	0.406863	0.598681	0.108651
	C199	C	0.406518	0.405515	0.928032
	C200	C	0.095319	0.599050	0.422804
	C201	C	0.913564	0.599600	0.616982
	C202	C	0.094720	0.408185	0.615803
	C203	C	0.913340	0.408710	0.423473
	C204	C	0.908542	0.593865	0.115815
	C205	C	0.099594	0.411605	0.116362
	C206	C	0.099669	0.593082	0.922388
	C207	C	0.908082	0.410979	0.922479
	C208	C	0.101080	0.906968	0.608794
	C209	C	0.100204	0.099326	0.430655
	C210	C	0.908396	0.098849	0.610011
	C211	C	0.907235	0.906393	0.429963
	C212	C	0.594382	0.098393	0.921393
	C213	C	0.413569	0.098814	0.115845
	C214	C	0.594624	0.906499	0.115974
	C215	C	0.412418	0.907789	0.922585
	Zn216	Zn	0.503027	0.002917	0.768909
	Zn217	Zn	0.504197	0.002386	0.269008
	Zn218	Zn	0.754709	0.502769	0.019174
	Zn219	Zn	0.253363	0.502310	0.018502
	Zn220	Zn	0.004608	0.752730	0.519627
	Zn221	Zn	0.004139	0.253932	0.520157
	Zn222	Zn	0.004406	0.503027	0.769527
	Zn223	Zn	0.004335	0.503882	0.269418
	Zn224	Zn	0.503393	0.753132	0.018844
	Zn225	Zn	0.503978	0.251818	0.018010
	Zn226	Zn	0.753527	0.002493	0.519681
	Zn227	Zn	0.255427	0.003994	0.518898
	N228	N	0.416014	0.968718	0.699247
	N229	N	0.591231	0.037546	0.699582
	N230	N	0.591163	0.967317	0.339320
	N231	N	0.417285	0.037675	0.338364
	N232	N	0.684168	0.416270	0.983272
	N233	N	0.684068	0.589961	0.053697
	N234	N	0.324221	0.588465	0.983269
	N235	N	0.322686	0.414356	0.052977
	N236	N	0.968801	0.681841	0.434298
	N237	N	0.040228	0.682199	0.605707
	N238	N	0.968582	0.325121	0.605520
	N239	N	0.039134	0.324576	0.433968
	N240	N	0.969533	0.415819	0.700628
	N241	N	0.039483	0.590240	0.700143
	N242	N	0.970015	0.591552	0.338592
	N243	N	0.038563	0.416029	0.339136
	N244	N	0.416254	0.683357	0.984176
	N245	N	0.590633	0.683531	0.053401
	N246	N	0.590168	0.322944	0.982573
	N247	N	0.417359	0.321887	0.053314
	N248	N	0.683258	0.967232	0.433395
	N249	N	0.682989	0.038409	0.605219
	N250	N	0.325034	0.968184	0.604704
	N251	N	0.325629	0.038630	0.432544
	N252	N	0.916938	0.468536	0.200058
	N253	N	0.092094	0.537597	0.199886
	N254	N	0.091837	0.467681	0.838344
	N255	N	0.917582	0.537601	0.839632
	N256	N	0.185834	0.915916	0.484374
	N257	N	0.185646	0.090815	0.554433
	N258	N	0.823059	0.090832	0.486010
	N259	N	0.823492	0.915697	0.554901
	N260	N	0.468256	0.182141	0.931781
	N261	N	0.540531	0.180717	0.103347
	N262	N	0.468618	0.822913	0.105969
	N263	N	0.538716	0.824447	0.933419
	N264	N	0.469511	0.914383	0.200600
	N265	N	0.539483	0.089836	0.199166
	N266	N	0.468864	0.090698	0.837565
	N267	N	0.537473	0.914857	0.837657
	N268	N	0.916309	0.184695	0.486323
	N269	N	0.092028	0.184467	0.554629
	N270	N	0.091968	0.822550	0.484275
	N271	N	0.917891	0.823186	0.555313
	N272	N	0.182467	0.466431	0.933351
	N273	N	0.182999	0.537909	0.104721
	N274	N	0.824948	0.467762	0.105889
	N275	N	0.825389	0.537960	0.933570
	O276	O	-0.701157	0.710182	-0.687920
	H277	H	-0.696289	0.711985	-0.643858
	H278	H	-0.669963	0.690631	-0.693616
	O279	O	0.529930	0.283480	0.302255
	H280	H	0.523080	0.269567	0.309876
	H281	H	0.552725	0.269685	0.288225
	O282	O	0.786214	-0.027935	1.243422
	H283	H	0.781249	-0.043473	1.257528
	H284	H	0.790848	-0.019026	1.261311
	O285	O	0.037392	-0.067685	-0.164072
	H286	H	0.027169	-0.052368	-0.155520
	H287	H	0.028178	-0.066295	-0.177385
	O288	O	0.458624	0.494343	0.447050
	H289	H	0.457175	0.495955	0.438254
	H290	H	0.467661	0.498794	0.447447
	O291	O	0.211841	0.209195	0.229555
	H292	H	0.242297	0.241335	0.257770
	H293	H	0.196133	0.206769	0.209202
	O294	O	1.214507	0.036893	1.239726
	H295	H	1.232455	0.047545	1.245975
	H296	H	1.221258	0.056924	1.248238
	O297	O	0.109824	-0.024771	0.846523
	H298	H	0.102439	-0.010677	0.834494
	H299	H	0.093577	-0.028035	0.849853
	O300	O	-0.214319	0.035833	0.795221
	H301	H	-0.207182	0.045280	0.798247
	H302	H	-0.234295	0.036552	0.775908
	O303	O	0.686938	0.593647	0.432328
	H304	H	0.686337	0.599383	0.412659
	H305	H	0.684585	0.573501	0.439587
	O306	O	1.523693	0.721437	0.728243
	H307	H	1.539992	0.740979	0.749444
	H308	H	1.551163	0.718998	0.720905
	O309	O	0.587262	0.409506	0.453475
	H310	H	0.585181	0.400908	0.446964
	H311	H	0.574765	0.404267	0.463581
	O312	O	0.460582	0.457439	0.570342
	H313	H	0.460959	0.453764	0.567028
	H314	H	0.471137	0.469273	0.565845
	O315	O	0.817543	0.817445	0.836250
	H316	H	0.825595	0.826785	0.850899
	H317	H	0.833043	0.833743	0.850243
	O318	O	0.297549	0.689014	0.485242
	H319	H	0.303661	0.712716	0.495376
	H320	H	0.305510	0.694102	0.499014
	O321	O	0.042556	1.215804	0.238706
	H322	H	0.043960	1.238316	0.261938
	H323	H	0.059793	1.207522	0.232734
	O324	O	0.716209	0.716380	-0.269581
	H325	H	0.717790	0.683199	-0.274750
	H326	H	0.744091	0.740911	-0.251530
	O327	O	-0.030539	0.212313	0.801561
	H328	H	-0.031095	0.238558	0.780432
	H329	H	-0.035017	0.215285	0.833624
	O330	O	0.531519	0.526288	0.361910
	H331	H	0.533291	0.507191	0.357053
	H332	H	0.527863	0.541135	0.354525
	O333	O	0.733552	0.732629	0.287907
	H334	H	0.727181	0.732424	0.255285
	H335	H	0.749991	0.745031	0.280412
	O336	O	1.689158	0.332389	-0.308254
	H337	H	1.678332	0.320158	-0.304261
	H338	H	1.681579	0.343720	-0.307704
	O339	O	1.290495	-0.531283	0.728574
	H340	H	1.294581	-0.520007	0.741392
	H341	H	1.281568	-0.518705	0.723755
	O342	O	-0.048424	-0.096504	-0.122765
	H343	H	-0.045570	-0.102930	-0.134596
	H344	H	-0.039609	-0.089825	-0.120833
	O345	O	-0.161487	0.881002	1.177087
	H346	H	-0.142048	0.888010	1.168958
	H347	H	-0.150976	0.875565	1.166270
	O348	O	0.568235	-0.649621	0.488924
	H349	H	0.564886	-0.657989	0.491675
	H350	H	0.550660	-0.644656	0.505124
	O351	O	0.790262	0.976922	0.022542
	H352	H	0.799510	0.986227	0.039774
	H353	H	0.780345	0.978384	0.026915
	O354	O	0.014941	0.004038	1.249576
	H355	H	0.036578	0.006641	1.247614
	H356	H	0.023757	0.010771	1.244399
	O357	O	0.295890	0.324087	0.536663
	H358	H	0.283508	0.323967	0.538848
	H359	H	0.294517	0.327825	0.539262
	O360	O	0.308378	0.303516	0.716809
	H361	H	0.294622	0.312202	0.730775
	H362	H	0.298555	0.321031	0.696511
	O363	O	-0.201415	-0.207211	0.058718
	H364	H	-0.184002	-0.201318	0.038769
	H365	H	-0.216647	-0.218925	0.049532
	O366	O	1.216268	0.917742	0.101678
	H367	H	1.222494	0.908089	0.096861
	H368	H	1.225901	0.915891	0.114464
	O369	O	0.101621	0.852848	0.156208
	H370	H	0.128271	0.825366	0.176452
	H371	H	0.105015	0.861537	0.154447
	O372	O	1.227122	1.095630	0.014329
	H373	H	1.239223	1.116027	0.020806
	H374	H	1.225663	1.072293	-0.000559
	O375	O	0.796136	0.211995	-0.194033
	H376	H	0.791216	0.219873	-0.183733
	H377	H	0.814438	0.190629	-0.189445
	O378	O	0.354184	0.616806	0.593968
	H379	H	0.362923	0.626715	0.608688
	H380	H	0.374504	0.607446	0.583339
	O381	O	0.117714	0.790025	0.806118
	H382	H	0.134843	0.767562	0.786801
	H383	H	0.129829	0.810086	0.811876
	O384	O	1.055632	-0.206163	1.093371
	H385	H	1.061583	-0.206621	1.103077
	H386	H	1.062169	-0.210586	1.109007
	O387	O	0.783854	1.219717	-0.025706
	H388	H	0.759558	1.251120	-0.022310
	H389	H	0.797056	1.212601	-0.019995
	O390	O	0.476536	0.714972	0.300218
	H391	H	0.485943	0.724555	0.323717
	H392	H	0.486050	0.732995	0.278366
	O393	O	0.033378	0.183545	-0.080891
	H394	H	0.032640	0.185770	-0.055468
	H395	H	0.021199	0.186005	-0.082667
	O396	O	-0.437016	1.580083	0.470268
	H397	H	-0.430828	1.590334	0.460922
	H398	H	-0.423892	1.573445	0.475150
	O399	O	0.725201	0.483193	0.300416
	H400	H	0.725019	0.473414	0.300175
	H401	H	0.736868	0.460583	0.282591
	O402	O	0.725308	0.456852	0.587960
	H403	H	0.726885	0.460084	0.582179
	H404	H	0.722051	0.450580	0.585661
	O405	O	1.093317	0.143834	0.871533
	H406	H	1.074527	0.153203	0.891556
	H407	H	1.081138	0.115163	0.874917
	O408	O	0.219887	-0.080016	-0.128651
	H409	H	0.226840	-0.067853	-0.148539
	H410	H	0.217937	-0.071568	-0.127122
	O411	O	-0.683885	1.318243	1.332031
	H412	H	-0.661672	1.326056	1.357261
	H413	H	-0.672058	1.348801	1.344544
	O414	O	0.479395	0.550819	0.746199
	H415	H	0.495422	0.568201	0.750759
	H416	H	0.489211	0.549658	0.742991
	O417	O	0.716075	0.714668	0.557465
	H418	H	0.720172	0.697009	0.574437
	H419	H	0.747689	0.733712	0.549006
	O420	O	0.505271	0.285500	0.512751
	H421	H	0.512768	0.281249	0.541458
	H422	H	0.510758	0.281274	0.498671
	O423	O	0.708825	-0.451915	0.735971
	H424	H	0.711232	-0.449668	0.739395
	H425	H	0.724195	-0.461941	0.727440
	O426	O	-0.032143	-0.136699	-0.002731
	H427	H	-0.013727	-0.146272	0.012420
	H428	H	-0.024238	-0.126666	-0.005173
	O429	O	0.993326	1.015451	1.252652
	H430	H	1.001022	1.007718	1.256585
	H431	H	1.002476	1.009187	1.246530
	O432	O	1.072867	0.956452	-0.167463
	H433	H	1.071873	0.954446	-0.164879
	H434	H	1.076175	0.950826	-0.167073
	O435	O	-0.140341	1.140295	0.076459
	H436	H	-0.139861	1.140197	0.074963
	H437	H	-0.145531	1.131400	0.092363
	O438	O	-0.179848	0.186501	0.205632
	H439	H	-0.164830	0.158642	0.205165
	H440	H	-0.183041	0.195630	0.207047
	O441	O	0.206064	0.202149	-0.011315
	H442	H	0.202158	0.195028	-0.010707
	H443	H	0.211021	0.212251	-0.001626
	O444	O	0.479887	0.280840	0.736514
	H445	H	0.450116	0.277245	0.745968
	H446	H	0.456936	0.273006	0.754553
	O447	O	0.196961	0.784960	0.988798
	H448	H	0.198963	0.785460	0.963800
	H449	H	0.215149	0.768601	0.987095
	O450	O	-0.529455	0.484951	1.299468
	H451	H	-0.532895	0.495897	1.287643
	H452	H	-0.537523	0.487422	1.298884
	O453	O	0.357416	0.639787	0.540958
	H454	H	0.371165	0.644237	0.530854
	H455	H	0.353853	0.641020	0.559279
	O456	O	-0.026653	0.013372	0.897566
	H457	H	-0.034225	0.014315	0.904972
	H458	H	-0.035950	0.018722	0.902485
	O459	O	1.073415	1.045407	0.065848
	H460	H	1.074628	1.044749	0.075303
	H461	H	1.088664	1.036394	0.059174
	O462	O	0.546175	0.484316	0.694768
	H463	H	0.563962	0.487534	0.702458
	H464	H	0.543452	0.479065	0.690125
	O465	O	1.022903	0.213669	0.052045
	H466	H	1.031740	0.217211	0.073469
	H467	H	1.028434	0.203875	0.061117
	O468	O	0.709914	0.295815	0.482096
	H469	H	0.701394	0.303023	0.501738
	H470	H	0.718692	0.285312	0.500345
	O471	O	-0.030266	-0.208134	1.237717
	H472	H	-0.025043	-0.225970	1.246258
	H473	H	-0.043268	-0.195416	1.242830
	O474	O	0.306430	0.482236	0.455458
	H475	H	0.312269	0.498175	0.451377
	H476	H	0.312039	0.482534	0.468287
	O477	O	0.529566	0.692089	1.543740
	H478	H	0.538573	0.689041	1.540356
	H479	H	0.554191	0.687930	1.541703
	O480	O	0.284184	0.532476	0.292797
	H481	H	0.266101	0.549023	0.276068
	H482	H	0.273722	0.531044	0.302174
	O483	O	0.703761	1.296029	1.314425
	H484	H	0.717226	1.297742	1.314649
	H485	H	0.694257	1.292525	1.348521
	O486	O	0.984914	-0.082879	0.994743
	H487	H	0.987122	-0.076696	0.988561
	H488	H	0.992987	-0.068955	0.987967
	O489	O	1.325405	0.688324	-0.300331
	H490	H	1.333794	0.685460	-0.307277
	H491	H	1.346942	0.673051	-0.303654
