data_Molecule from HDF5

_cell_length_a		16.128113
_cell_length_b		16.434508
_cell_length_c		16.476046
_cell_angle_alpha	89.981359
_cell_angle_beta	90.107317
_cell_angle_gamma	90.025217
_symmetry_space_group_name_H-M	'P 1'
_symmetry_Int_Tables_number		1

loop_
	_symmetry_equiv_pos_as_xyz
	x,y,z

loop_
	_atom_site_label
	_atom_site_type_symbol
	_atom_site_fract_x
	_atom_site_fract_y
	_atom_site_fract_z
	H0	H	0.394988	0.838352	0.718077
	H1	H	0.607468	0.155636	0.714825
	H2	H	0.607687	0.836817	0.273040
	H3	H	0.391899	0.153664	0.271279
	H4	H	0.718236	0.393607	0.833048
	H5	H	0.719811	0.597843	0.152647
	H6	H	0.282410	0.597898	0.832905
	H7	H	0.283394	0.397384	0.153876
	H8	H	0.839663	0.714814	0.389287
	H9	H	0.163357	0.714029	0.598231
	H10	H	0.837791	0.278393	0.593583
	H11	H	0.163315	0.276206	0.389767
	H12	H	0.839681	0.389147	0.712126
	H13	H	0.163379	0.598636	0.712549
	H14	H	0.839268	0.599181	0.274349
	H15	H	0.163178	0.390873	0.273555
	H16	H	0.391469	0.720557	0.836185
	H17	H	0.606692	0.716912	0.152018
	H18	H	0.606125	0.273985	0.835395
	H19	H	0.393108	0.275386	0.151611
	H20	H	0.715589	0.833176	0.397550
	H21	H	0.718022	0.157179	0.593663
	H22	H	0.282508	0.835628	0.598908
	H23	H	0.282336	0.156011	0.393997
	H24	H	0.891472	0.338999	0.215873
	H25	H	0.112114	0.652992	0.219029
	H26	H	0.107545	0.337098	0.771539
	H27	H	0.893721	0.654233	0.768584
	H28	H	0.222431	0.892262	0.336486
	H29	H	0.222742	0.100305	0.654907
	H30	H	0.784054	0.092777	0.334212
	H31	H	0.783699	0.892215	0.655207
	H32	H	0.338704	0.216199	0.887828
	H33	H	0.661958	0.213922	0.096551
	H34	H	0.338796	0.776082	0.099428
	H35	H	0.661535	0.777616	0.890901
	H36	H	0.340475	0.887767	0.217409
	H37	H	0.662754	0.097903	0.211416
	H38	H	0.341136	0.103144	0.771958
	H39	H	0.662695	0.891911	0.776977
	H40	H	0.894667	0.215940	0.336415
	H41	H	0.109877	0.220277	0.652180
	H42	H	0.109741	0.772882	0.337087
	H43	H	0.893718	0.770101	0.651292
	H44	H	0.219814	0.336073	0.890842
	H45	H	0.220355	0.656007	0.095929
	H46	H	0.782300	0.336619	0.092089
	H47	H	0.783755	0.657838	0.891015
	H48	H	0.418291	0.106366	0.580834
	H49	H	0.593621	0.882029	0.585887
	H50	H	0.589907	0.111897	0.394605
	H51	H	0.412042	0.881901	0.403183
	H52	H	0.595568	0.400828	0.109803
	H53	H	0.586197	0.587817	0.879549
	H54	H	0.408839	0.588556	0.107989
	H55	H	0.411502	0.410173	0.881125
	H56	H	0.118513	0.583961	0.400846
	H57	H	0.886801	0.580965	0.579683
	H58	H	0.118338	0.406275	0.587123
	H59	H	0.889699	0.407305	0.412039
	H60	H	0.116878	0.403795	0.578750
	H61	H	0.886328	0.583653	0.582508
	H62	H	0.117431	0.586839	0.407236
	H63	H	0.885541	0.412773	0.396098
	H64	H	0.412047	0.584868	0.106032
	H65	H	0.588733	0.591175	0.878811
	H66	H	0.591625	0.411649	0.104729
	H67	H	0.415491	0.403311	0.880853
	H68	H	0.586327	0.106198	0.406987
	H69	H	0.593821	0.879109	0.591919
	H70	H	0.408125	0.110045	0.582673
	H71	H	0.416746	0.883992	0.404061
	H72	H	0.914531	0.611576	0.090491
	H73	H	0.095477	0.381771	0.083079
	H74	H	0.093548	0.611804	0.901734
	H75	H	0.914281	0.384314	0.902846
	H76	H	0.090817	0.899654	0.609722
	H77	H	0.082565	0.081081	0.386796
	H78	H	0.909143	0.089362	0.610207
	H79	H	0.912142	0.898288	0.379666
	H80	H	0.614856	0.087969	0.910866
	H81	H	0.385015	0.082049	0.082688
	H82	H	0.615949	0.901117	0.080122
	H83	H	0.386346	0.909742	0.910432
	H84	H	0.613935	0.912400	0.081593
	H85	H	0.382936	0.085437	0.086489
	H86	H	0.615585	0.081731	0.905422
	H87	H	0.385996	0.912666	0.903897
	H88	H	0.911812	0.084449	0.607547
	H89	H	0.088893	0.094099	0.379629
	H90	H	0.092524	0.909550	0.607577
	H91	H	0.905538	0.906010	0.380288
	H92	H	0.085440	0.609831	0.896821
	H93	H	0.084645	0.383019	0.089347
	H94	H	0.916713	0.607165	0.078806
	H95	H	0.906211	0.382040	0.903094
	H96	H	0.415637	0.110494	0.590202
	H97	H	0.588453	0.881907	0.589259
	H98	H	0.599702	0.111469	0.405558
	H99	H	0.413672	0.883234	0.408128
	H100	H	0.583523	0.402515	0.105536
	H101	H	0.590949	0.587308	0.879829
	H102	H	0.413496	0.589664	0.106238
	H103	H	0.407636	0.403323	0.877438
	H104	H	0.114504	0.580045	0.405822
	H105	H	0.886302	0.584497	0.578515
	H106	H	0.115184	0.412145	0.581520
	H107	H	0.881310	0.396681	0.400935
	H108	H	0.905541	0.612357	0.082313
	H109	H	0.085227	0.385926	0.077065
	H110	H	0.085768	0.606750	0.905467
	H111	H	0.911076	0.381034	0.896425
	H112	H	0.083011	0.905199	0.605361
	H113	H	0.098163	0.081109	0.381186
	H114	H	0.914965	0.089620	0.608142
	H115	H	0.915238	0.907183	0.383280
	H116	H	0.617317	0.089009	0.903423
	H117	H	0.383777	0.087529	0.081574
	H118	H	0.618270	0.906372	0.090203
	H119	H	0.383048	0.906286	0.904460
	C120	C	0.380674	0.004354	0.616786
	C121	C	0.623719	0.987335	0.618219
	C122	C	0.622486	0.003640	0.373011
	C123	C	0.380321	0.987392	0.373089
	C124	C	0.621393	0.374347	0.001426
	C125	C	0.621414	0.619132	0.984602
	C126	C	0.378637	0.619136	0.002086
	C127	C	0.378838	0.374806	0.984672
	C128	C	0.010159	0.616195	0.372513
	C129	C	0.993438	0.614703	0.612800
	C130	C	0.009670	0.374778	0.613584
	C131	C	0.992525	0.374002	0.371686
	C132	C	0.879565	0.505194	0.114383
	C133	C	0.121984	0.488189	0.115277
	C134	C	0.121292	0.504061	0.870950
	C135	C	0.878006	0.487471	0.869079
	C136	C	0.122419	0.873193	0.503199
	C137	C	0.122914	0.117617	0.487163
	C138	C	0.879846	0.117013	0.503299
	C139	C	0.879346	0.872164	0.486037
	C140	C	0.509698	0.118256	0.873222
	C141	C	0.491219	0.116432	0.114933
	C142	C	0.509353	0.874479	0.116058
	C143	C	0.491934	0.876998	0.874425
	C144	C	0.377220	0.885425	0.677598
	C145	C	0.625363	0.107802	0.675357
	C146	C	0.624764	0.883896	0.314053
	C147	C	0.375435	0.106425	0.312219
	C148	C	0.679173	0.374621	0.881102
	C149	C	0.680779	0.617953	0.104549
	C150	C	0.320501	0.618388	0.881388
	C151	C	0.320821	0.376170	0.105292
	C152	C	0.888291	0.675669	0.370563
	C153	C	0.115017	0.674146	0.615853
	C154	C	0.887094	0.316373	0.613717
	C155	C	0.114589	0.315453	0.370827
	C156	C	0.888121	0.371830	0.672631
	C157	C	0.115000	0.616755	0.672875
	C158	C	0.887973	0.618072	0.313593
	C159	C	0.114469	0.372483	0.312872
	C160	C	0.375040	0.679232	0.882870
	C161	C	0.624428	0.677348	0.104278
	C162	C	0.623365	0.314754	0.882450
	C163	C	0.375621	0.315528	0.104364
	C164	C	0.678638	0.882105	0.375831
	C165	C	0.680570	0.108426	0.614963
	C166	C	0.321313	0.884120	0.618037
	C167	C	0.320904	0.107752	0.373502
	C168	C	0.875279	0.385941	0.174372
	C169	C	0.127388	0.606072	0.177183
	C170	C	0.124505	0.384465	0.812033
	C171	C	0.875869	0.607114	0.809129
	C172	C	0.182995	0.872542	0.384127
	C173	C	0.183489	0.119485	0.606634
	C174	C	0.822173	0.114307	0.382274
	C175	C	0.821782	0.872199	0.606579
	C176	C	0.387771	0.177204	0.869937
	C177	C	0.613103	0.175190	0.115952
	C178	C	0.387645	0.814992	0.118017
	C179	C	0.613178	0.816930	0.872461
	C180	C	0.388424	0.870671	0.176769
	C181	C	0.613604	0.117128	0.172752
	C182	C	0.388947	0.120906	0.812033
	C183	C	0.613623	0.874028	0.815645
	C184	C	0.877085	0.175317	0.383320
	C185	C	0.127186	0.179267	0.605395
	C186	C	0.126612	0.813353	0.384226
	C187	C	0.876355	0.811179	0.604504
	C188	C	0.180768	0.384181	0.871253
	C189	C	0.182045	0.607676	0.116220
	C190	C	0.820699	0.384826	0.112996
	C191	C	0.820831	0.608730	0.869933
	C192	C	0.406534	0.087361	0.591761
	C193	C	0.599178	0.902890	0.595685
	C194	C	0.598754	0.087773	0.395644
	C195	C	0.406530	0.904485	0.397960
	C196	C	0.597180	0.398073	0.084972
	C197	C	0.595836	0.595650	0.901057
	C198	C	0.404134	0.594888	0.085032
	C199	C	0.404090	0.398675	0.901619
	C200	C	0.094691	0.590952	0.397379
	C201	C	0.908494	0.589894	0.587386
	C202	C	0.094710	0.400080	0.589274
	C203	C	0.907505	0.398587	0.395870
	C204	C	0.905029	0.588549	0.090730
	C205	C	0.095811	0.405058	0.090305
	C206	C	0.095620	0.587649	0.894586
	C207	C	0.903135	0.404201	0.893496
	C208	C	0.096347	0.897741	0.585876
	C209	C	0.097146	0.092607	0.404264
	C210	C	0.904880	0.094343	0.586835
	C211	C	0.903896	0.896735	0.402800
	C212	C	0.594036	0.093432	0.899167
	C213	C	0.405930	0.091926	0.090626
	C214	C	0.594015	0.899493	0.091112
	C215	C	0.407268	0.902444	0.899203
	Zn216	Zn	0.501777	-0.003073	0.746407
	Zn217	Zn	0.501009	-0.004757	0.243188
	Zn218	Zn	0.750158	0.497123	-0.008021
	Zn219	Zn	0.250032	0.496868	-0.007547
	Zn220	Zn	0.001706	0.743582	0.494164
	Zn221	Zn	0.001327	0.246838	0.493689
	Zn222	Zn	0.000918	0.495520	0.741496
	Zn223	Zn	0.000944	0.495846	0.244261
	Zn224	Zn	0.499994	0.748458	-0.006313
	Zn225	Zn	0.499725	0.245021	-0.006134
	Zn226	Zn	0.751102	-0.005293	0.495501
	Zn227	Zn	0.251263	-0.004645	0.495597
	N228	N	0.413253	0.961143	0.677211
	N229	N	0.591016	0.031192	0.677501
	N230	N	0.590381	0.960502	0.312230
	N231	N	0.411659	0.030682	0.311838
	N232	N	0.678077	0.411294	0.956020
	N233	N	0.679156	0.582595	0.029041
	N234	N	0.322495	0.581764	0.956354
	N235	N	0.322462	0.412241	0.030057
	N236	N	0.965646	0.674967	0.406200
	N237	N	0.038348	0.672917	0.579285
	N238	N	0.963963	0.318213	0.577829
	N239	N	0.037704	0.316330	0.406548
	N240	N	0.965312	0.407480	0.672795
	N241	N	0.038207	0.580525	0.670998
	N242	N	0.964747	0.582289	0.314297
	N243	N	0.037339	0.408191	0.313239
	N244	N	0.410192	0.680079	0.958879
	N245	N	0.588170	0.677990	0.028699
	N246	N	0.587968	0.314653	0.958286
	N247	N	0.410640	0.314143	0.028389
	N248	N	0.677135	0.957494	0.412122
	N249	N	0.679716	0.032272	0.580453
	N250	N	0.323285	0.959063	0.580896
	N251	N	0.323691	0.032773	0.410557
	N252	N	0.911190	0.461784	0.175523
	N253	N	0.090791	0.530494	0.176625
	N254	N	0.088355	0.460175	0.811655
	N255	N	0.910534	0.530581	0.808255
	N256	N	0.180423	0.909249	0.458991
	N257	N	0.181129	0.082044	0.532072
	N258	N	0.823488	0.079204	0.457928
	N259	N	0.823449	0.909379	0.532015
	N260	N	0.463757	0.175404	0.907651
	N261	N	0.535837	0.174860	0.080677
	N262	N	0.463873	0.817171	0.080941
	N263	N	0.536318	0.818456	0.908239
	N264	N	0.464993	0.907112	0.175497
	N265	N	0.536457	0.081541	0.172497
	N266	N	0.465736	0.084955	0.813802
	N267	N	0.537154	0.910892	0.816791
	N268	N	0.912239	0.177303	0.459315
	N269	N	0.090134	0.178075	0.530125
	N270	N	0.089934	0.813344	0.459357
	N271	N	0.911637	0.810981	0.528483
	N272	N	0.178760	0.459634	0.907209
	N273	N	0.178752	0.533348	0.078312
	N274	N	0.823117	0.459954	0.076457
	N275	N	0.822048	0.533480	0.906383
	O276	O	0.458729	0.497457	0.639594
	H277	H	0.470809	0.505560	0.649858
	H278	H	0.447060	0.498773	0.632332
	O279	O	0.650303	0.674628	0.668336
	H280	H	0.643902	0.682742	0.639827
	H281	H	0.624148	0.687955	0.663730
	O282	O	0.496561	0.481533	0.530178
	H283	H	0.504003	0.468774	0.536322
	H284	H	0.502759	0.500811	0.540274
	O285	O	1.425700	0.468575	0.356223
	H286	H	1.409813	0.471939	0.346660
	H287	H	1.433446	0.453983	0.356314
	O288	O	0.189733	-0.209653	0.963786
	H289	H	0.183681	-0.212673	0.942971
	H290	H	0.203228	-0.226020	0.945497
	O291	O	0.686864	0.461349	0.360774
	H292	H	0.683953	0.466899	0.361762
	H293	H	0.696456	0.467879	0.353865
	O294	O	0.814989	1.162463	0.860436
	H295	H	0.831075	1.166076	0.887539
	H296	H	0.842393	1.178968	0.854169
	O297	O	0.874185	1.184012	1.121136
	H298	H	0.890419	1.170350	1.122563
	H299	H	0.879148	1.200118	1.131206
	O300	O	0.081932	-0.021066	-0.213816
	H301	H	0.077200	-0.022469	-0.226828
	H302	H	0.078314	-0.017775	-0.201489
	O303	O	-0.214936	1.017912	0.790532
	H304	H	-0.216974	1.052548	0.794015
	H305	H	-0.241314	1.030406	0.769633
	O306	O	1.167276	-0.187478	-0.190775
	H307	H	1.151448	-0.176412	-0.203268
	H308	H	1.148289	-0.190556	-0.195883
	O309	O	0.522112	0.518635	0.621400
	H310	H	0.520699	0.521003	0.623274
	H311	H	0.519799	0.517615	0.618436
	O312	O	0.892446	1.189796	-0.002326
	H313	H	0.888419	1.195546	0.002708
	H314	H	0.913428	1.183613	0.005041
	O315	O	0.310206	0.612825	0.379292
	H316	H	0.297563	0.607905	0.369267
	H317	H	0.327584	0.622615	0.370818
	O318	O	0.357420	0.530684	0.583296
	H319	H	0.373427	0.524354	0.585350
	H320	H	0.345537	0.538404	0.567003
	O321	O	0.821959	-0.025299	1.155572
	H322	H	0.819629	-0.020049	1.144182
	H323	H	0.811971	-0.016915	1.151847
	O324	O	-0.059409	0.193052	0.799178
	H325	H	-0.061621	0.211435	0.786000
	H326	H	-0.031835	0.182322	0.802389
	O327	O	-0.044558	0.868747	1.022788
	H328	H	-0.059660	0.869835	1.012711
	H329	H	-0.042566	0.869837	1.019152
	O330	O	0.479023	0.372727	0.435166
	H331	H	0.482554	0.376004	0.430968
	H332	H	0.476062	0.368417	0.435466
	O333	O	1.203464	1.210407	1.018322
	H334	H	1.234428	1.231465	1.012002
	H335	H	1.203569	1.188931	1.013643
	O336	O	0.609801	0.631290	0.462211
	H337	H	0.626327	0.622858	0.463091
	H338	H	0.593960	0.618574	0.454746
	O339	O	0.622714	0.375572	0.603776
	H340	H	0.630708	0.389745	0.606132
	H341	H	0.609148	0.393699	0.611336
	O342	O	-0.198821	0.800727	1.012681
	H343	H	-0.207779	0.807499	1.035018
	H344	H	-0.215994	0.793049	1.041103
	O345	O	0.207612	0.953840	1.020430
	H346	H	0.212109	0.940276	1.022063
	H347	H	0.202833	0.926629	1.016333
	O348	O	0.329315	0.454460	0.463576
	H349	H	0.323279	0.455795	0.466548
	H350	H	0.322331	0.443560	0.471010
	O351	O	-0.047218	0.018588	-0.092195
	H352	H	-0.052580	0.008684	-0.084396
	H353	H	-0.030453	0.010473	-0.101858
	O354	O	0.492054	0.602055	-0.524114
	H355	H	0.496222	0.596306	-0.533506
	H356	H	0.493390	0.598870	-0.532865
	O357	O	0.026228	1.210112	0.208669
	H358	H	0.034261	1.236979	0.229578
	H359	H	0.048787	1.203636	0.197506
	O360	O	0.171924	0.158428	0.158983
	H361	H	0.162784	0.159649	0.128498
	H362	H	0.183898	0.133637	0.159523
	O363	O	0.574667	0.326683	0.491583
	H364	H	0.590976	0.321828	0.486390
	H365	H	0.577883	0.327613	0.504139
	O366	O	0.625117	0.576291	0.665893
	H367	H	0.608334	0.604080	0.657455
	H368	H	0.645348	0.585189	0.696714
	O369	O	0.360421	0.627787	0.465898
	H370	H	0.359782	0.627838	0.471368
	H371	H	0.368722	0.639073	0.452039
	O372	O	0.623174	0.317313	0.408285
	H373	H	0.613746	0.331567	0.408849
	H374	H	0.633623	0.320744	0.427041
	O375	O	0.958849	0.091270	0.060003
	H376	H	0.971085	0.081985	0.063215
	H377	H	0.971824	0.083242	0.085867
	O378	O	0.488289	0.580918	0.503054
	H379	H	0.476926	0.579749	0.498239
	H380	H	0.498283	0.583863	0.520094
	O381	O	0.459403	0.573188	0.579856
	H382	H	0.458258	0.558835	0.585544
	H383	H	0.462206	0.584737	0.584396
	O384	O	0.575646	0.387455	1.350053
	H385	H	0.584684	0.366133	1.337082
	H386	H	0.593307	0.390637	1.352353
	O387	O	0.982261	0.797742	0.211449
	H388	H	0.989661	0.768767	0.235234
	H389	H	1.012911	0.807129	0.202491
	O390	O	0.661370	0.466252	0.430078
	H391	H	0.662529	0.451643	0.428510
	H392	H	0.656200	0.461741	0.427889
	O393	O	1.034673	0.019190	1.196904
	H394	H	1.025609	0.019753	1.188183
	H395	H	1.034538	0.036924	1.201288
	O396	O	0.054109	0.837757	0.801231
	H397	H	0.028209	0.847685	0.811011
	H398	H	0.040441	0.835997	0.792895
	O399	O	0.565450	0.506662	0.358223
	H400	H	0.548334	0.503281	0.358689
	H401	H	0.568390	0.510875	0.377616
	O402	O	1.142344	0.004714	1.199303
	H403	H	1.159179	0.004862	1.202318
	H404	H	1.139767	-0.002559	1.204453
	O405	O	0.170145	0.062839	-0.109258
	H406	H	0.166719	0.045299	-0.097743
	H407	H	0.159936	0.042759	-0.107687
	O408	O	0.992924	1.008666	0.872559
	H409	H	1.007719	1.029925	0.875613
	H410	H	0.981590	1.000845	0.875466
	O411	O	0.898690	1.012345	-0.049622
	H412	H	0.889345	1.027768	-0.040638
	H413	H	0.893840	1.010285	-0.064119
	O414	O	-0.055866	-0.185349	0.913457
	H415	H	-0.069938	-0.158783	0.903835
	H416	H	-0.081909	-0.197197	0.936888
	O417	O	0.386502	0.403707	0.577984
	H418	H	0.370283	0.378543	0.571956
	H419	H	0.408592	0.393711	0.566015
	O420	O	0.041500	1.133665	-0.108525
	H421	H	0.051210	1.128527	-0.103392
	H422	H	0.036621	1.121962	-0.107146
	O423	O	1.073792	-0.141611	0.163855
	H424	H	1.068595	-0.119853	0.163934
	H425	H	1.078628	-0.148288	0.138713
	O426	O	-0.187794	-0.183224	1.176716
	H427	H	-0.177579	-0.169790	1.184987
	H428	H	-0.155041	-0.177067	1.186363
	O429	O	0.467965	0.590823	0.309904
	H430	H	0.470012	0.586736	0.298907
	H431	H	0.476824	0.571222	0.317436
