data_Molecule from HDF5

_cell_length_a		16.670374
_cell_length_b		16.553063
_cell_length_c		16.518045
_cell_angle_alpha	90.017501
_cell_angle_beta	90.020146
_cell_angle_gamma	89.954722
_symmetry_space_group_name_H-M	'P 1'
_symmetry_Int_Tables_number		1

loop_
	_symmetry_equiv_pos_as_xyz
	x,y,z

loop_
	_atom_site_label
	_atom_site_type_symbol
	_atom_site_fract_x
	_atom_site_fract_y
	_atom_site_fract_z
	H0	H	0.397088	0.849286	0.734008
	H1	H	0.599479	0.165344	0.733214
	H2	H	0.601767	0.850209	0.296468
	H3	H	0.391798	0.162848	0.292247
	H4	H	0.718487	0.401866	0.859385
	H5	H	0.720377	0.613064	0.172192
	H6	H	0.274171	0.615416	0.861879
	H7	H	0.276473	0.401501	0.172420
	H8	H	0.842531	0.728492	0.410409
	H9	H	0.151182	0.730844	0.623309
	H10	H	0.844896	0.282670	0.620828
	H11	H	0.155729	0.286343	0.409266
	H12	H	0.844460	0.397949	0.739309
	H13	H	0.150097	0.615382	0.740731
	H14	H	0.842042	0.610888	0.294900
	H15	H	0.156518	0.405126	0.295044
	H16	H	0.393803	0.727978	0.859756
	H17	H	0.603992	0.728165	0.172522
	H18	H	0.598513	0.289530	0.857929
	H19	H	0.393737	0.286824	0.172785
	H20	H	0.718592	0.851481	0.411306
	H21	H	0.718083	0.164890	0.619045
	H22	H	0.276424	0.851563	0.621688
	H23	H	0.274604	0.162817	0.407275
	H24	H	0.897088	0.348684	0.233734
	H25	H	0.102630	0.662544	0.236226
	H26	H	0.103660	0.351554	0.792453
	H27	H	0.887408	0.659028	0.789447
	H28	H	0.221949	0.899336	0.361113
	H29	H	0.220882	0.114761	0.670619
	H30	H	0.775331	0.115568	0.359022
	H31	H	0.776934	0.902329	0.670951
	H32	H	0.342789	0.228415	0.909642
	H33	H	0.652347	0.230932	0.123160
	H34	H	0.344107	0.784016	0.121474
	H35	H	0.655002	0.785198	0.911191
	H36	H	0.343871	0.901479	0.237909
	H37	H	0.653224	0.112654	0.238021
	H38	H	0.343416	0.111508	0.793683
	H39	H	0.656028	0.902648	0.795088
	H40	H	0.894293	0.228478	0.357104
	H41	H	0.104927	0.230362	0.670171
	H42	H	0.104999	0.784554	0.359956
	H43	H	0.891537	0.784619	0.669988
	H44	H	0.222031	0.352912	0.906058
	H45	H	0.223684	0.659559	0.125316
	H46	H	0.778626	0.349183	0.120331
	H47	H	0.773673	0.660178	0.907991
	H48	H	0.407897	0.118793	0.602332
	H49	H	0.587030	0.895258	0.605529
	H50	H	0.581913	0.115957	0.432777
	H51	H	0.407448	0.895255	0.429165
	H52	H	0.590448	0.423192	0.128564
	H53	H	0.585786	0.596959	0.903488
	H54	H	0.404757	0.588521	0.127980
	H55	H	0.407404	0.422382	0.903478
	H56	H	0.108889	0.598638	0.429066
	H57	H	0.888590	0.593604	0.598736
	H58	H	0.111127	0.418188	0.608127
	H59	H	0.887472	0.416491	0.421944
	H60	H	0.109168	0.415298	0.598426
	H61	H	0.887508	0.592398	0.603843
	H62	H	0.109055	0.592887	0.426478
	H63	H	0.887015	0.414975	0.424305
	H64	H	0.417730	0.591062	0.124584
	H65	H	0.590306	0.594024	0.903131
	H66	H	0.583357	0.416496	0.127700
	H67	H	0.412539	0.418012	0.905069
	H68	H	0.595586	0.122304	0.429295
	H69	H	0.592171	0.894299	0.601762
	H70	H	0.408637	0.120217	0.606426
	H71	H	0.412498	0.897086	0.426760
	H72	H	0.909056	0.618528	0.104768
	H73	H	0.090610	0.391878	0.106963
	H74	H	0.083696	0.617793	0.927663
	H75	H	0.914245	0.394943	0.926128
	H76	H	0.091592	0.916599	0.630830
	H77	H	0.089424	0.095533	0.401649
	H78	H	0.910681	0.095106	0.626214
	H79	H	0.903517	0.919377	0.400685
	H80	H	0.611766	0.103699	0.925989
	H81	H	0.387212	0.095827	0.105532
	H82	H	0.611585	0.911820	0.103408
	H83	H	0.388658	0.920295	0.925183
	H84	H	0.606599	0.921087	0.099262
	H85	H	0.387031	0.097298	0.102216
	H86	H	0.608142	0.095336	0.929358
	H87	H	0.387046	0.916608	0.922638
	H88	H	0.910094	0.096475	0.625667
	H89	H	0.087313	0.092421	0.403059
	H90	H	0.086849	0.927372	0.624458
	H91	H	0.911399	0.924009	0.405326
	H92	H	0.082931	0.617164	0.931796
	H93	H	0.082116	0.395731	0.104759
	H94	H	0.905572	0.619541	0.102826
	H95	H	0.907611	0.395577	0.933172
	H96	H	0.411850	0.118997	0.604265
	H97	H	0.592404	0.893347	0.608117
	H98	H	0.584173	0.122072	0.418325
	H99	H	0.411689	0.898069	0.431891
	H100	H	0.591187	0.413916	0.131513
	H101	H	0.586099	0.591979	0.905652
	H102	H	0.410504	0.600887	0.129619
	H103	H	0.407068	0.415716	0.902150
	H104	H	0.110802	0.597888	0.423463
	H105	H	0.886261	0.597149	0.602089
	H106	H	0.106416	0.424803	0.600977
	H107	H	0.888021	0.417919	0.425167
	H108	H	0.906479	0.620324	0.106633
	H109	H	0.088681	0.395801	0.097964
	H110	H	0.086535	0.617965	0.930302
	H111	H	0.905559	0.391201	0.924864
	H112	H	0.078875	0.916865	0.625964
	H113	H	0.085272	0.096023	0.402648
	H114	H	0.908807	0.095561	0.626542
	H115	H	0.912285	0.914207	0.401641
	H116	H	0.611860	0.095917	0.920666
	H117	H	0.388394	0.094152	0.102526
	H118	H	0.610723	0.920914	0.110271
	H119	H	0.387681	0.915723	0.927369
	C120	C	0.377583	0.015821	0.636856
	C121	C	0.620981	0.998788	0.636492
	C122	C	0.619135	0.016556	0.394633
	C123	C	0.377085	0.999514	0.394958
	C124	C	0.619474	0.385647	0.025082
	C125	C	0.619666	0.627143	1.007695
	C126	C	0.377268	0.627597	0.024748
	C127	C	0.376757	0.386441	1.007155
	C128	C	0.006636	0.629014	0.393518
	C129	C	0.988853	0.627913	0.635934
	C130	C	0.006871	0.385589	0.635756
	C131	C	0.991212	0.385436	0.392669
	C132	C	0.876691	0.515282	0.136460
	C133	C	0.119582	0.497511	0.136444
	C134	C	0.118203	0.515525	0.895112
	C135	C	0.875526	0.496275	0.893798
	C136	C	0.119167	0.886385	0.524305
	C137	C	0.120254	0.128510	0.505676
	C138	C	0.877389	0.128967	0.522782
	C139	C	0.876794	0.886795	0.506121
	C140	C	0.507321	0.129282	0.893661
	C141	C	0.489762	0.128662	0.137154
	C142	C	0.507316	0.885420	0.136989
	C143	C	0.491064	0.885241	0.893803
	C144	C	0.377125	0.896964	0.695317
	C145	C	0.619643	0.117902	0.694340
	C146	C	0.620461	0.897722	0.336046
	C147	C	0.373624	0.116179	0.332899
	C148	C	0.678117	0.383888	0.906457
	C149	C	0.680148	0.630681	0.125152
	C150	C	0.315648	0.632201	0.908051
	C151	C	0.316771	0.383592	0.125143
	C152	C	0.889422	0.688543	0.391775
	C153	C	0.104726	0.690181	0.640992
	C154	C	0.891067	0.323482	0.638908
	C155	C	0.109045	0.326580	0.391157
	C156	C	0.890817	0.380968	0.697655
	C157	C	0.104331	0.632561	0.699230
	C158	C	0.889127	0.629781	0.334549
	C159	C	0.109331	0.385541	0.334303
	C160	C	0.374754	0.688536	0.907262
	C161	C	0.621796	0.687647	0.125475
	C162	C	0.618801	0.327890	0.905761
	C163	C	0.375198	0.326644	0.125691
	C164	C	0.678703	0.898552	0.393091
	C165	C	0.678615	0.117690	0.637728
	C166	C	0.317292	0.898156	0.639509
	C167	C	0.315533	0.116099	0.390412
	C168	C	0.877221	0.396265	0.194823
	C169	C	0.121741	0.615378	0.196964
	C170	C	0.121827	0.398626	0.833049
	C171	C	0.870699	0.612801	0.831075
	C172	C	0.181225	0.881792	0.407700
	C173	C	0.180807	0.132424	0.623546
	C174	C	0.816056	0.133121	0.405674
	C175	C	0.816580	0.883995	0.623807
	C176	C	0.389808	0.188494	0.891517
	C177	C	0.606059	0.189919	0.141058
	C178	C	0.390517	0.824673	0.139796
	C179	C	0.608396	0.825362	0.892442
	C180	C	0.390271	0.882860	0.197738
	C181	C	0.606311	0.131309	0.198348
	C182	C	0.389922	0.130229	0.833964
	C183	C	0.608670	0.883648	0.834552
	C184	C	0.875241	0.189140	0.404778
	C185	C	0.123044	0.189700	0.623356
	C186	C	0.122704	0.824954	0.407136
	C187	C	0.873879	0.825876	0.623749
	C188	C	0.180605	0.399185	0.889775
	C189	C	0.181598	0.613859	0.141804
	C190	C	0.818371	0.396332	0.138277
	C191	C	0.814035	0.613374	0.889801
	C192	C	0.402386	0.097925	0.611641
	C193	C	0.597483	0.915895	0.612171
	C194	C	0.594205	0.098784	0.419602
	C195	C	0.403097	0.918025	0.421547
	C196	C	0.595296	0.410540	0.107841
	C197	C	0.594579	0.601453	0.925368
	C198	C	0.403380	0.600894	0.106210
	C199	C	0.401691	0.411618	0.924926
	C200	C	0.088422	0.603749	0.419068
	C201	C	0.908391	0.601827	0.609082
	C202	C	0.087890	0.411923	0.609758
	C203	C	0.909034	0.409490	0.416972
	C204	C	0.900205	0.597671	0.111654
	C205	C	0.094353	0.415886	0.110346
	C206	C	0.091902	0.596415	0.922144
	C207	C	0.901759	0.414997	0.920337
	C208	C	0.093182	0.912736	0.606004
	C209	C	0.094693	0.102335	0.423827
	C210	C	0.902719	0.103130	0.604906
	C211	C	0.901968	0.912068	0.423945
	C212	C	0.589333	0.105010	0.918213
	C213	C	0.408545	0.103153	0.110838
	C214	C	0.588386	0.910824	0.111759
	C215	C	0.409293	0.910267	0.918233
	Zn216	Zn	0.499169	0.007385	0.765028
	Zn217	Zn	0.498532	0.007336	0.266205
	Zn218	Zn	0.748373	0.506137	0.016017
	Zn219	Zn	0.247850	0.507174	0.015860
	Zn220	Zn	-0.002178	0.757913	0.515510
	Zn221	Zn	-0.000466	0.256417	0.513729
	Zn222	Zn	-0.002309	0.507039	0.765708
	Zn223	Zn	-0.001522	0.506971	0.264281
	Zn224	Zn	0.498891	0.756226	0.015534
	Zn225	Zn	0.497918	0.257717	0.015872
	Zn226	Zn	0.748814	0.008553	0.514589
	Zn227	Zn	0.248043	0.007582	0.516115
	N228	N	0.413738	0.971204	0.693977
	N229	N	0.584840	0.042764	0.693894
	N230	N	0.584192	0.972135	0.336760
	N231	N	0.411067	0.042492	0.335577
	N232	N	0.678844	0.418756	0.981905
	N233	N	0.678924	0.593576	0.050878
	N234	N	0.317014	0.595153	0.982292
	N235	N	0.317339	0.419644	0.050326
	N236	N	0.963822	0.688261	0.427580
	N237	N	0.031902	0.687478	0.602389
	N238	N	0.964313	0.326339	0.601169
	N239	N	0.034479	0.326216	0.426504
	N240	N	0.964086	0.418664	0.695979
	N241	N	0.031371	0.594573	0.696274
	N242	N	0.963259	0.593508	0.335514
	N243	N	0.034788	0.421154	0.334830
	N244	N	0.412531	0.685773	0.980982
	N245	N	0.584783	0.685539	0.051166
	N246	N	0.583302	0.328730	0.980704
	N247	N	0.411562	0.327874	0.051177
	N248	N	0.678069	0.973595	0.428808
	N249	N	0.679681	0.042539	0.602666
	N250	N	0.317135	0.973273	0.604044
	N251	N	0.317544	0.042359	0.428456
	N252	N	0.912304	0.471306	0.194451
	N253	N	0.083688	0.542109	0.193750
	N254	N	0.083585	0.471896	0.836321
	N255	N	0.908378	0.539053	0.833469
	N256	N	0.179226	0.919321	0.481655
	N257	N	0.179309	0.095347	0.549249
	N258	N	0.817293	0.096461	0.480150
	N259	N	0.818312	0.921319	0.549677
	N260	N	0.463870	0.188082	0.928047
	N261	N	0.532574	0.188486	0.103746
	N262	N	0.464107	0.826075	0.102887
	N263	N	0.534158	0.826114	0.928247
	N264	N	0.463854	0.919867	0.196315
	N265	N	0.532762	0.094090	0.196179
	N266	N	0.464059	0.094096	0.835155
	N267	N	0.534736	0.920327	0.835205
	N268	N	0.912588	0.186970	0.478863
	N269	N	0.086038	0.187358	0.549064
	N270	N	0.084641	0.827675	0.480803
	N271	N	0.910614	0.827320	0.549496
	N272	N	0.178523	0.472897	0.927851
	N273	N	0.180373	0.539571	0.104945
	N274	N	0.817485	0.471565	0.103174
	N275	N	0.816872	0.539859	0.927935
	O276	O	-0.462291	0.657236	-0.700738
	H277	H	-0.443133	0.677518	-0.727424
	H278	H	-0.485722	0.662845	-0.680682
	O279	O	0.412047	0.472757	0.667974
	H280	H	0.399834	0.481666	0.666627
	H281	H	0.412307	0.478848	0.677215
	O282	O	1.204029	-0.016471	0.990190
	H283	H	1.210604	-0.013583	0.989652
	H284	H	1.199394	-0.011037	0.998971
	O285	O	-0.039100	0.095564	0.146921
	H286	H	-0.052138	0.082974	0.143357
	H287	H	-0.032053	0.088032	0.141281
	O288	O	0.276264	0.491972	0.714369
	H289	H	0.265326	0.466805	0.726957
	H290	H	0.272862	0.468203	0.719351
	O291	O	0.649509	0.620884	0.401631
	H292	H	0.650833	0.617576	0.402250
	H293	H	0.642660	0.601198	0.388373
	O294	O	0.957062	-0.006800	1.015749
	H295	H	0.955113	-0.017267	1.008016
	H296	H	0.958276	0.001659	1.020456
	O297	O	0.332343	0.475748	0.339422
	H298	H	0.332452	0.473685	0.340391
	H299	H	0.332149	0.475371	0.355630
	O300	O	0.007380	0.035763	0.802509
	H301	H	0.005119	0.034687	0.803192
	H302	H	0.010074	0.059004	0.807155
	O303	O	0.568939	0.359283	0.581725
	H304	H	0.570866	0.357460	0.595681
	H305	H	0.556960	0.371228	0.568797
	O306	O	1.114341	-0.106847	0.221994
	H307	H	1.125616	-0.109793	0.237048
	H308	H	1.109037	-0.089886	0.214076
	O309	O	0.697241	0.706725	0.710320
	H310	H	0.722349	0.730545	0.708748
	H311	H	0.706046	0.680848	0.689676
	O312	O	0.785603	0.797545	0.227712
	H313	H	0.794014	0.798190	0.242814
	H314	H	0.781327	0.808846	0.199249
	O315	O	1.160567	1.006647	0.810522
	H316	H	1.156379	1.011945	0.809877
	H317	H	1.158272	0.994733	0.810603
	O318	O	0.448593	0.512047	0.427625
	H319	H	0.452023	0.518618	0.442765
	H320	H	0.457845	0.507098	0.423194
	O321	O	0.217423	1.039260	0.229040
	H322	H	0.212788	1.057965	0.232760
	H323	H	0.230167	1.033925	0.235598
	O324	O	1.125955	0.996010	0.052357
	H325	H	1.121005	1.002291	0.055372
	H326	H	1.128468	0.989055	0.066174
	O327	O	0.052611	0.238275	0.960052
	H328	H	0.066673	0.240239	0.956708
	H329	H	0.053881	0.231737	0.957243
	O330	O	0.655490	0.293484	0.494678
	H331	H	0.664589	0.287250	0.509493
	H332	H	0.655525	0.288860	0.492233
	O333	O	0.524446	0.361084	0.362207
	H334	H	0.526547	0.345034	0.352967
	H335	H	0.541201	0.377010	0.360955
	O336	O	0.679900	0.485059	0.293318
	H337	H	0.701977	0.466850	0.274732
	H338	H	0.681932	0.488216	0.286822
	O339	O	1.278873	-0.393282	0.449349
	H340	H	1.273296	-0.398408	0.456728
	H341	H	1.286562	-0.401213	0.459719
	O342	O	-0.042641	0.199665	0.100157
	H343	H	-0.026334	0.203400	0.090414
	H344	H	-0.053040	0.200816	0.091496
	O345	O	-0.008030	0.996632	1.237442
	H346	H	-0.010954	1.002835	1.236985
	H347	H	0.000106	1.002639	1.235641
	O348	O	0.403667	-0.384663	0.477225
	H349	H	0.395338	-0.381262	0.485580
	H350	H	0.400537	-0.378815	0.489243
	O351	O	0.557829	0.704232	0.478327
	H352	H	0.555655	0.691514	0.493879
	H353	H	0.542108	0.698826	0.492892
	O354	O	0.185496	0.175770	0.857856
	H355	H	0.190026	0.157038	0.867487
	H356	H	0.182637	0.179250	0.851474
	O357	O	0.543633	0.485606	0.722117
	H358	H	0.530004	0.503722	0.721480
	H359	H	0.546223	0.499912	0.720849
	O360	O	0.198656	0.202573	0.211051
	H361	H	0.219825	0.221668	0.197768
	H362	H	0.175608	0.186937	0.221412
	O363	O	0.218764	-0.142629	-0.205218
	H364	H	0.212210	-0.131223	-0.199615
	H365	H	0.208850	-0.134863	-0.189932
	O366	O	0.494013	0.717748	0.368272
	H367	H	0.485540	0.721409	0.347417
	H368	H	0.477628	0.713857	0.372234
	O369	O	0.453460	0.523173	0.467067
	H370	H	0.461387	0.531472	0.475058
	H371	H	0.464356	0.511566	0.465881
	O372	O	0.768234	1.052070	0.050151
	H373	H	0.760514	1.056876	0.033949
	H374	H	0.774080	1.039910	0.039934
	O375	O	0.827147	-0.147674	-0.175761
	H376	H	0.843622	-0.154857	-0.166931
	H377	H	0.843699	-0.129078	-0.151737
	O378	O	0.486993	0.514403	0.527105
	H379	H	0.497248	0.504610	0.538126
	H380	H	0.485667	0.521148	0.528086
	O381	O	-0.210189	1.217422	0.807350
	H382	H	-0.220243	1.227978	0.783796
	H383	H	-0.210620	1.191423	0.821507
	O384	O	0.963796	-0.148581	0.961264
	H385	H	0.980954	-0.150101	0.962777
	H386	H	0.971809	-0.154886	0.968887
	O387	O	1.269108	1.282487	-0.264408
	H388	H	1.284234	1.274115	-0.270852
	H389	H	1.274599	1.272247	-0.266001
	O390	O	0.694450	0.312785	0.323769
	H391	H	0.693163	0.299390	0.342277
	H392	H	0.703693	0.306562	0.321007
	O393	O	0.074544	-0.214213	-0.198107
	H394	H	0.090221	-0.238027	-0.219425
	H395	H	0.089538	-0.185962	-0.191080
	O396	O	-0.226041	1.046850	0.791011
	H397	H	-0.228553	1.046530	0.777187
	H398	H	-0.228421	1.033617	0.770355
	O399	O	0.378770	0.481226	0.655477
	H400	H	0.386333	0.498178	0.661729
	H401	H	0.380293	0.480221	0.663644
	O402	O	0.470851	0.292320	0.530508
	H403	H	0.486066	0.294247	0.517784
	H404	H	0.480351	0.291197	0.517705
	O405	O	1.034072	0.226388	1.234723
	H406	H	1.035353	0.254331	1.250991
	H407	H	1.039009	0.220840	1.232228
	O408	O	0.219589	0.228858	0.042440
	H409	H	0.214941	0.235993	0.052895
	H410	H	0.237081	0.245001	0.040433
	O411	O	0.016162	0.864421	0.879887
	H412	H	0.031691	0.868186	0.910039
	H413	H	0.019804	0.878478	0.866174
	O414	O	0.701590	0.362064	0.662368
	H415	H	0.699679	0.389829	0.655923
	H416	H	0.677446	0.377728	0.653918
	O417	O	0.297643	0.534136	0.523850
	H418	H	0.302456	0.522007	0.539951
	H419	H	0.297502	0.528067	0.532137
	O420	O	0.403503	0.423440	0.323122
	H421	H	0.410985	0.429521	0.335542
	H422	H	0.416777	0.442001	0.321976
	O423	O	0.466623	-0.505526	0.411336
	H424	H	0.459141	-0.511475	0.414641
	H425	H	0.477971	-0.501797	0.409627
	O426	O	-0.228510	0.228763	-0.018265
	H427	H	-0.214453	0.218342	-0.035780
	H428	H	-0.262137	0.261753	-0.021074
	O429	O	1.200863	0.793191	0.978588
	H430	H	1.211095	0.788055	0.981473
	H431	H	1.205095	0.793542	0.991479
	O432	O	0.784575	0.977944	0.231508
	H433	H	0.779457	0.988372	0.230840
	H434	H	0.777860	0.965213	0.231499
	O435	O	-0.031669	0.923479	-0.172718
	H436	H	-0.033214	0.930992	-0.163606
	H437	H	-0.021616	0.915788	-0.171621
	O438	O	-0.220186	-0.108592	-0.057718
	H439	H	-0.225131	-0.092054	-0.072531
	H440	H	-0.200499	-0.127544	-0.061464
	O441	O	-0.055507	0.095147	-0.020405
	H442	H	-0.046172	0.106383	-0.018785
	H443	H	-0.055378	0.087194	-0.014925
	O444	O	0.533038	0.725662	0.733732
	H445	H	0.551939	0.749539	0.758770
	H446	H	0.564219	0.721608	0.736400
	O447	O	-0.203247	0.795271	1.068647
	H448	H	-0.219540	0.784395	1.052130
	H449	H	-0.198037	0.783961	1.070475
	O450	O	-0.295844	0.717737	1.540898
	H451	H	-0.295851	0.731583	1.527941
	H452	H	-0.302547	0.716594	1.526768
	O453	O	0.714366	0.530799	0.729107
	H454	H	0.703260	0.536324	0.711794
	H455	H	0.741495	0.534351	0.762198
	O456	O	0.005582	-0.008828	1.059840
	H457	H	0.006761	-0.014217	1.064503
	H458	H	0.002712	-0.013600	1.066658
	O459	O	1.205150	0.857547	0.136541
	H460	H	1.224967	0.852365	0.149334
	H461	H	1.192006	0.873995	0.155454
	O462	O	0.492556	0.325395	0.691311
	H463	H	0.505160	0.334384	0.697643
	H464	H	0.505110	0.325766	0.688729
	O465	O	0.972266	0.217945	-0.206358
	H466	H	0.949638	0.222224	-0.207268
	H467	H	0.973707	0.237285	-0.213568
	O468	O	0.658670	0.538325	0.462120
	H469	H	0.664099	0.540425	0.447349
	H470	H	0.657447	0.540570	0.449211
	O471	O	0.286243	0.717805	0.308248
	H472	H	0.288441	0.715785	0.352255
	H473	H	0.296571	0.679701	0.309588
	O474	O	0.310150	0.689828	0.698638
	H475	H	0.300727	0.709911	0.713214
	H476	H	0.312822	0.665407	0.682766
	O477	O	0.725092	0.394019	1.547193
	H478	H	0.724669	0.401937	1.554866
	H479	H	0.731943	0.392506	1.535769
	O480	O	0.313142	0.296989	0.533453
	H481	H	0.334107	0.296708	0.523803
	H482	H	0.286033	0.275335	0.529757
	O483	O	1.056744	0.779922	1.078623
	H484	H	1.057204	0.778649	1.114967
	H485	H	1.080349	0.781678	1.091313
	O486	O	0.818651	0.167307	1.159305
	H487	H	0.812545	0.142279	1.139756
	H488	H	0.847369	0.156548	1.146607
	O489	O	0.969704	0.787471	0.234005
	H490	H	0.961617	0.764786	0.260764
	H491	H	0.958963	0.807396	0.240155
