data_Molecule from HDF5

_cell_length_a		16.194998
_cell_length_b		16.267617
_cell_length_c		16.203667
_cell_angle_alpha	90.026595
_cell_angle_beta	90.072194
_cell_angle_gamma	90.448558
_symmetry_space_group_name_H-M	'P 1'
_symmetry_Int_Tables_number		1

loop_
	_symmetry_equiv_pos_as_xyz
	x,y,z

loop_
	_atom_site_label
	_atom_site_type_symbol
	_atom_site_fract_x
	_atom_site_fract_y
	_atom_site_fract_z
	H0	H	0.399770	0.830903	0.718724
	H1	H	0.601483	0.157756	0.719507
	H2	H	0.598794	0.830678	0.289201
	H3	H	0.403679	0.158653	0.289700
	H4	H	0.711222	0.396667	0.840420
	H5	H	0.714398	0.595358	0.168672
	H6	H	0.286480	0.590872	0.840167
	H7	H	0.282936	0.394816	0.168971
	H8	H	0.836198	0.707209	0.405172
	H9	H	0.163272	0.710663	0.607066
	H10	H	0.837178	0.276343	0.602266
	H11	H	0.165350	0.280479	0.402943
	H12	H	0.835052	0.392469	0.717727
	H13	H	0.162952	0.594381	0.720948
	H14	H	0.833881	0.591060	0.291919
	H15	H	0.162431	0.395870	0.287278
	H16	H	0.399556	0.707775	0.840655
	H17	H	0.599262	0.710004	0.168873
	H18	H	0.597073	0.280598	0.840690
	H19	H	0.397308	0.277111	0.168578
	H20	H	0.712913	0.829424	0.405581
	H21	H	0.717825	0.157043	0.603777
	H22	H	0.283573	0.831978	0.602806
	H23	H	0.287567	0.159062	0.405156
	H24	H	0.896286	0.330451	0.219920
	H25	H	0.099355	0.657707	0.221509
	H26	H	0.096438	0.330493	0.790059
	H27	H	0.898473	0.657022	0.786981
	H28	H	0.214820	0.895532	0.339871
	H29	H	0.216718	0.096437	0.666905
	H30	H	0.787642	0.091274	0.340178
	H31	H	0.784647	0.893028	0.668854
	H32	H	0.335556	0.207474	0.903789
	H33	H	0.662786	0.212545	0.105174
	H34	H	0.335530	0.777456	0.106571
	H35	H	0.662727	0.779250	0.904502
	H36	H	0.336039	0.894806	0.220122
	H37	H	0.664956	0.096104	0.218743
	H38	H	0.336207	0.093264	0.789989
	H39	H	0.664402	0.896015	0.790879
	H40	H	0.902180	0.207614	0.340665
	H41	H	0.104437	0.210356	0.667242
	H42	H	0.101352	0.776903	0.341245
	H43	H	0.898749	0.776596	0.669018
	H44	H	0.211607	0.330765	0.905284
	H45	H	0.216733	0.656919	0.107168
	H46	H	0.780938	0.330739	0.103408
	H47	H	0.784839	0.658460	0.905014
	H48	H	0.402314	0.112435	0.590802
	H49	H	0.582387	0.878681	0.604250
	H50	H	0.595605	0.112532	0.407198
	H51	H	0.406634	0.879439	0.416513
	H52	H	0.593506	0.392775	0.126538
	H53	H	0.587128	0.588947	0.888903
	H54	H	0.403472	0.584905	0.122962
	H55	H	0.406184	0.411983	0.892497
	H56	H	0.119227	0.592869	0.409756
	H57	H	0.883924	0.587515	0.590117
	H58	H	0.115195	0.407108	0.595058
	H59	H	0.884532	0.396190	0.420374
	H60	H	0.119566	0.402770	0.606029
	H61	H	0.884500	0.578458	0.596656
	H62	H	0.113532	0.586215	0.420239
	H63	H	0.884238	0.405236	0.411111
	H64	H	0.409590	0.584706	0.121887
	H65	H	0.593082	0.591303	0.885520
	H66	H	0.595197	0.414676	0.120367
	H67	H	0.414939	0.390763	0.887924
	H68	H	0.589863	0.108239	0.413729
	H69	H	0.593522	0.879469	0.588722
	H70	H	0.406320	0.115134	0.607580
	H71	H	0.404603	0.877409	0.409792
	H72	H	0.897079	0.614608	0.096818
	H73	H	0.086625	0.379692	0.095967
	H74	H	0.090171	0.610539	0.912908
	H75	H	0.897105	0.377885	0.920243
	H76	H	0.098546	0.907124	0.620947
	H77	H	0.088870	0.088478	0.387220
	H78	H	0.911611	0.085781	0.621052
	H79	H	0.911036	0.898625	0.388899
	H80	H	0.619102	0.090928	0.909821
	H81	H	0.381943	0.086880	0.098803
	H82	H	0.618364	0.901396	0.100791
	H83	H	0.382521	0.890349	0.924165
	H84	H	0.616478	0.898916	0.093142
	H85	H	0.383285	0.085812	0.094308
	H86	H	0.616371	0.090722	0.917553
	H87	H	0.387360	0.914640	0.914324
	H88	H	0.908350	0.086067	0.622491
	H89	H	0.096411	0.090918	0.384539
	H90	H	0.084099	0.905934	0.617724
	H91	H	0.905470	0.898135	0.386807
	H92	H	0.094013	0.610817	0.914553
	H93	H	0.091272	0.378358	0.094318
	H94	H	0.913273	0.611234	0.106560
	H95	H	0.901813	0.374520	0.901871
	H96	H	0.418044	0.108515	0.596536
	H97	H	0.601157	0.871803	0.605159
	H98	H	0.599274	0.111032	0.416122
	H99	H	0.410926	0.879350	0.411486
	H100	H	0.575345	0.403779	0.117761
	H101	H	0.593574	0.584856	0.887503
	H102	H	0.407320	0.589542	0.123040
	H103	H	0.392639	0.395616	0.882876
	H104	H	0.116152	0.579476	0.408713
	H105	H	0.879808	0.587637	0.600548
	H106	H	0.119342	0.395560	0.595491
	H107	H	0.880001	0.393941	0.408868
	H108	H	0.911179	0.605658	0.089178
	H109	H	0.089272	0.377520	0.098435
	H110	H	0.093169	0.611847	0.909974
	H111	H	0.914628	0.381792	0.914977
	H112	H	0.092026	0.894603	0.623704
	H113	H	0.095996	0.083426	0.387014
	H114	H	0.908966	0.083370	0.620450
	H115	H	0.908055	0.903052	0.389434
	H116	H	0.616067	0.084204	0.912609
	H117	H	0.383430	0.082638	0.097910
	H118	H	0.615270	0.905824	0.095303
	H119	H	0.376410	0.895781	0.898432
	C120	C	0.378597	0.003634	0.626704
	C121	C	0.622768	0.984854	0.627650
	C122	C	0.622684	0.002289	0.382960
	C123	C	0.379442	0.986808	0.383562
	C124	C	0.617860	0.374652	0.013056
	C125	C	0.620668	0.616966	0.995897
	C126	C	0.378206	0.614735	0.013824
	C127	C	0.375542	0.370729	0.996216
	C128	C	0.007825	0.614640	0.383779
	C129	C	0.990858	0.614902	0.625948
	C130	C	0.009331	0.371798	0.626639
	C131	C	0.991267	0.370961	0.383049
	C132	C	0.876331	0.502782	0.126823
	C133	C	0.119623	0.486202	0.126491
	C134	C	0.120095	0.502704	0.883385
	C135	C	0.876171	0.485898	0.882140
	C136	C	0.121567	0.872912	0.512894
	C137	C	0.123112	0.116882	0.494781
	C138	C	0.880647	0.113934	0.513114
	C139	C	0.878394	0.870738	0.496615
	C140	C	0.508646	0.116268	0.883726
	C141	C	0.491172	0.116057	0.126698
	C142	C	0.508349	0.872515	0.126392
	C143	C	0.490875	0.872718	0.883668
	C144	C	0.379752	0.880051	0.681220
	C145	C	0.621592	0.108608	0.682104
	C146	C	0.619454	0.879339	0.327032
	C147	C	0.382701	0.109676	0.327723
	C148	C	0.673435	0.376675	0.889495
	C149	C	0.676734	0.615560	0.119523
	C150	C	0.323719	0.611457	0.889523
	C151	C	0.320374	0.373720	0.119914
	C152	C	0.884863	0.669545	0.385272
	C153	C	0.114259	0.671971	0.626053
	C154	C	0.886046	0.314797	0.623451
	C155	C	0.115611	0.317682	0.383764
	C156	C	0.884866	0.372751	0.680676
	C157	C	0.114158	0.614345	0.682732
	C158	C	0.883727	0.611885	0.328806
	C159	C	0.114153	0.374740	0.325897
	C160	C	0.380068	0.669638	0.889731
	C161	C	0.619108	0.672203	0.119725
	C162	C	0.616580	0.318996	0.889641
	C163	C	0.377168	0.315193	0.119643
	C164	C	0.676265	0.878780	0.384977
	C165	C	0.679612	0.108020	0.624612
	C166	C	0.321917	0.880696	0.623774
	C167	C	0.325002	0.110066	0.385136
	C168	C	0.876357	0.379448	0.182331
	C169	C	0.119267	0.608713	0.183335
	C170	C	0.117077	0.379503	0.827970
	C171	C	0.878614	0.608618	0.825817
	C172	C	0.177458	0.874788	0.389399
	C173	C	0.178926	0.115648	0.618017
	C174	C	0.825230	0.111459	0.389403
	C175	C	0.822326	0.872431	0.619693
	C176	C	0.384893	0.170334	0.884682
	C177	C	0.614017	0.173789	0.125398
	C178	C	0.384774	0.815974	0.125706
	C179	C	0.614143	0.817681	0.885232
	C180	C	0.385136	0.874207	0.182517
	C181	C	0.615088	0.115548	0.181852
	C182	C	0.385122	0.113369	0.827890
	C183	C	0.615007	0.875816	0.828702
	C184	C	0.882530	0.169214	0.389701
	C185	C	0.123211	0.172417	0.618158
	C186	C	0.121017	0.815755	0.390048
	C187	C	0.879366	0.814566	0.619848
	C188	C	0.174452	0.379514	0.885145
	C189	C	0.177501	0.608362	0.126296
	C190	C	0.819195	0.379743	0.124176
	C191	C	0.821668	0.609170	0.884193
	C192	C	0.401859	0.089424	0.604775
	C193	C	0.599377	0.898992	0.605853
	C194	C	0.601289	0.088306	0.405603
	C195	C	0.400857	0.900900	0.406091
	C196	C	0.594876	0.397187	0.099255
	C197	C	0.598005	0.595009	0.909623
	C198	C	0.400288	0.592892	0.100275
	C199	C	0.398068	0.392798	0.910025
	C200	C	0.094012	0.592647	0.406327
	C201	C	0.905121	0.591407	0.602626
	C202	C	0.095792	0.394864	0.605251
	C203	C	0.905190	0.391944	0.406550
	C204	C	0.900116	0.588312	0.104184
	C205	C	0.095987	0.400662	0.103081
	C206	C	0.098605	0.588609	0.905874
	C207	C	0.898136	0.400452	0.905459
	C208	C	0.098257	0.895869	0.598372
	C209	C	0.100384	0.094277	0.408580
	C210	C	0.903172	0.091637	0.599158
	C211	C	0.901494	0.893247	0.410656
	C212	C	0.595012	0.094654	0.906648
	C213	C	0.405192	0.092093	0.103751
	C214	C	0.594480	0.895486	0.103156
	C215	C	0.404582	0.894050	0.905689
	Zn216	Zn	0.500019	-0.005318	0.755903
	Zn217	Zn	0.500906	-0.006017	0.254332
	Zn218	Zn	0.747724	0.494951	0.004926
	Zn219	Zn	0.248990	0.494154	0.004575
	Zn220	Zn	0.000126	0.742979	0.504840
	Zn221	Zn	0.002625	0.242878	0.504748
	Zn222	Zn	-0.000807	0.493791	0.754778
	Zn223	Zn	-0.002074	0.493758	0.255494
	Zn224	Zn	0.498752	0.743996	0.004679
	Zn225	Zn	0.498927	0.243963	0.005189
	Zn226	Zn	0.750830	-0.007299	0.504566
	Zn227	Zn	0.249742	-0.004257	0.504324
	N228	N	0.414237	0.957570	0.683191
	N229	N	0.587040	0.031032	0.684375
	N230	N	0.587134	0.957265	0.325438
	N231	N	0.415685	0.032126	0.326589
	N232	N	0.674323	0.410614	0.967222
	N233	N	0.677915	0.581894	0.041629
	N234	N	0.322331	0.578170	0.967576
	N235	N	0.319265	0.407472	0.042093
	N236	N	0.963027	0.671652	0.418535
	N237	N	0.036586	0.672546	0.591535
	N238	N	0.964326	0.314002	0.590934
	N239	N	0.038118	0.315115	0.418688
	N240	N	0.962735	0.407453	0.682971
	N241	N	0.036537	0.579272	0.682756
	N242	N	0.961464	0.578670	0.327497
	N243	N	0.036023	0.407134	0.325369
	N244	N	0.413325	0.671743	0.967934
	N245	N	0.585092	0.673363	0.041814
	N246	N	0.582540	0.317871	0.967496
	N247	N	0.410501	0.313209	0.041770
	N248	N	0.678431	0.956322	0.418820
	N249	N	0.680451	0.030130	0.591533
	N250	N	0.320993	0.958456	0.590612
	N251	N	0.322689	0.032460	0.419130
	N252	N	0.911145	0.456832	0.184222
	N253	N	0.083786	0.531580	0.183438
	N254	N	0.084038	0.457035	0.826689
	N255	N	0.911642	0.530911	0.824261
	N256	N	0.177970	0.909622	0.466732
	N257	N	0.179063	0.081742	0.540339
	N258	N	0.824033	0.077522	0.467203
	N259	N	0.821568	0.906430	0.542093
	N260	N	0.462782	0.172346	0.918846
	N261	N	0.535897	0.174354	0.091838
	N262	N	0.462513	0.814784	0.091418
	N263	N	0.536038	0.815443	0.918781
	N264	N	0.462892	0.908677	0.182702
	N265	N	0.537617	0.080072	0.182623
	N266	N	0.463178	0.080415	0.826961
	N267	N	0.537296	0.909137	0.827431
	N268	N	0.916307	0.171063	0.467701
	N269	N	0.089192	0.173432	0.540339
	N270	N	0.086839	0.814259	0.467693
	N271	N	0.913658	0.813490	0.542144
	N272	N	0.176750	0.457145	0.918907
	N273	N	0.177846	0.531170	0.091549
	N274	N	0.819182	0.457364	0.090369
	N275	N	0.819957	0.531965	0.918554
	O276	O	0.973650	0.980657	0.072400
	H277	H	0.983638	0.971979	0.067154
	H278	H	0.958482	0.986854	0.061169
	O279	O	0.416082	0.569725	0.443453
	H280	H	0.423106	0.573420	0.440933
	H281	H	0.417081	0.570816	0.438728
	O282	O	0.823377	0.970432	0.105925
	H283	H	0.819052	0.961022	0.110346
	H284	H	0.824010	0.959950	0.106651
	O285	O	0.987877	-0.102201	1.073342
	H286	H	0.988041	-0.084087	1.070332
	H287	H	0.994591	-0.102422	1.080007
	O288	O	0.427018	0.492821	0.431536
	H289	H	0.425044	0.491759	0.433704
	H290	H	0.433658	0.489158	0.432981
	O291	O	0.553676	0.585212	0.581897
	H292	H	0.549565	0.589763	0.585388
	H293	H	0.554528	0.597493	0.581164
	O294	O	0.487500	0.428864	0.546729
	H295	H	0.487360	0.434070	0.553400
	H296	H	0.483983	0.436862	0.550000
	O297	O	0.055130	0.007874	0.975125
	H298	H	0.058514	0.000973	0.978820
	H299	H	0.040423	0.005797	0.962515
	O300	O	0.549930	0.455392	0.486794
	H301	H	0.556932	0.453534	0.496181
	H302	H	0.550920	0.449373	0.485085
	O303	O	0.994197	0.981785	0.024465
	H304	H	0.976378	0.979851	0.026263
	H305	H	0.994158	0.974106	0.030320
	O306	O	-0.025438	0.933707	0.893827
	H307	H	-0.010495	0.938745	0.899684
	H308	H	-0.041591	0.944061	0.896125
	O309	O	0.558902	0.512689	0.588541
	H310	H	0.548742	0.519376	0.578807
	H311	H	0.559024	0.517170	0.590911
	O312	O	0.034337	0.068619	-0.024351
	H313	H	0.034518	0.062104	-0.019405
	H314	H	0.036658	0.080149	-0.026552
	O315	O	1.052354	0.080328	-0.008372
	H316	H	1.044627	0.077294	-0.002919
	H317	H	1.057429	0.093757	-0.012122
	O318	O	1.117092	0.886066	0.930291
	H319	H	1.115387	0.886744	0.931830
	H320	H	1.126887	0.874821	0.936456
	O321	O	-0.079669	0.045044	0.878430
	H322	H	-0.095343	0.032839	0.883527
	H323	H	-0.084950	0.041855	0.880232
	O324	O	0.553090	0.556012	0.462962
	H325	H	0.567912	0.560790	0.464780
	H326	H	0.532016	0.560316	0.470988
	O327	O	-0.002585	-0.096503	0.050704
	H328	H	-0.000945	-0.093197	0.044726
	H329	H	-0.000614	-0.087803	0.050341
	O330	O	0.486924	0.521774	0.503388
	H331	H	0.486821	0.533594	0.502848
	H332	H	0.475550	0.521052	0.492581
	O333	O	0.013895	0.941108	1.010915
	H334	H	0.011513	0.955093	1.002035
	H335	H	-0.003531	0.940738	1.014193
	O336	O	-0.016305	-0.012589	0.146081
	H337	H	-0.009444	-0.015577	0.140528
	H338	H	-0.025074	0.005916	0.148718
	O339	O	0.501699	0.393495	0.573447
	H340	H	0.498875	0.395354	0.572028
	H341	H	0.506195	0.397370	0.566076
	O342	O	1.001763	1.025102	1.106707
	H343	H	0.994911	1.029622	1.105456
	H344	H	1.003262	1.036280	1.100822
	O345	O	0.885871	1.110363	-0.164140
	H346	H	0.891536	1.107397	-0.169086
	H347	H	0.891427	1.120600	-0.155771
	O348	O	0.603777	0.515851	0.442458
	H349	H	0.613202	0.501579	0.444159
	H350	H	0.603208	0.510137	0.448224
	O351	O	0.074989	1.108268	0.143281
	H352	H	0.077000	1.115758	0.140374
	H353	H	0.079827	1.098921	0.144267
	O354	O	0.522572	0.491632	0.557558
	H355	H	0.523102	0.488907	0.562390
	H356	H	0.517435	0.500267	0.556402
	O357	O	1.050598	0.104902	0.996096
	H358	H	1.051459	0.110580	1.001531
	H359	H	1.051938	0.099179	1.003996
	O360	O	0.455632	0.565428	0.520005
	H361	H	0.456819	0.551279	0.527557
	H362	H	0.456514	0.562127	0.519075
	O363	O	0.429207	0.468247	0.521310
	H364	H	0.424034	0.463554	0.524714
	H365	H	0.437415	0.476299	0.523171
	O366	O	1.053208	1.016984	1.134537
	H367	H	1.054598	1.013334	1.142245
	H368	H	1.063932	1.010797	1.138606
	O369	O	1.046606	-0.075164	0.843004
	H370	H	1.057872	-0.073292	0.835378
	H371	H	1.050807	-0.082087	0.841568
	O372	O	0.056340	0.013499	-0.030943
	H373	H	0.055770	0.013783	-0.021920
	H374	H	0.066270	0.012059	-0.029351
	O375	O	0.952459	-0.042777	-0.125599
	H376	H	0.957861	-0.042358	-0.126581
	H377	H	0.943153	-0.041160	-0.138760
	O378	O	0.454496	0.500783	0.516869
	H379	H	0.456396	0.505892	0.510803
	H380	H	0.447981	0.493733	0.508365
	O381	O	0.610653	0.527392	0.479293
	H382	H	0.609978	0.533043	0.488307
	H383	H	0.608684	0.519589	0.476619
