data_Molecule from HDF5

_cell_length_a		16.352797
_cell_length_b		16.264211
_cell_length_c		16.172362
_cell_angle_alpha	90.116289
_cell_angle_beta	89.905028
_cell_angle_gamma	90.051941
_symmetry_space_group_name_H-M	'P 1'
_symmetry_Int_Tables_number		1

loop_
	_symmetry_equiv_pos_as_xyz
	x,y,z

loop_
	_atom_site_label
	_atom_site_type_symbol
	_atom_site_fract_x
	_atom_site_fract_y
	_atom_site_fract_z
	H0	H	0.403043	0.835410	0.711307
	H1	H	0.595439	0.164122	0.711097
	H2	H	0.595702	0.835134	0.287020
	H3	H	0.404699	0.164605	0.287422
	H4	H	0.713760	0.401099	0.835189
	H5	H	0.713210	0.598072	0.165347
	H6	H	0.286353	0.597771	0.835760
	H7	H	0.285811	0.400789	0.165375
	H8	H	0.836307	0.713414	0.403157
	H9	H	0.163457	0.715247	0.599438
	H10	H	0.837816	0.284490	0.599606
	H11	H	0.163098	0.285292	0.400365
	H12	H	0.836164	0.403624	0.713125
	H13	H	0.163429	0.597177	0.713903
	H14	H	0.836254	0.596522	0.286664
	H15	H	0.163197	0.402674	0.285672
	H16	H	0.403485	0.712269	0.835112
	H17	H	0.597266	0.713679	0.164944
	H18	H	0.596734	0.287282	0.834768
	H19	H	0.403248	0.287290	0.165323
	H20	H	0.715459	0.836729	0.399447
	H21	H	0.714285	0.163291	0.598740
	H22	H	0.284452	0.836601	0.598323
	H23	H	0.285469	0.163927	0.400609
	H24	H	0.903816	0.335173	0.213359
	H25	H	0.095523	0.665065	0.212117
	H26	H	0.096436	0.334600	0.787796
	H27	H	0.904606	0.664934	0.788612
	H28	H	0.213107	0.901953	0.335141
	H29	H	0.214382	0.100604	0.663637
	H30	H	0.786082	0.098844	0.335090
	H31	H	0.784336	0.901798	0.663402
	H32	H	0.336693	0.213600	0.902271
	H33	H	0.662996	0.214791	0.098924
	H34	H	0.337292	0.785622	0.097713
	H35	H	0.663739	0.784880	0.900783
	H36	H	0.336463	0.902958	0.212382
	H37	H	0.663010	0.096455	0.214151
	H38	H	0.336291	0.095402	0.787233
	H39	H	0.663701	0.902280	0.784257
	H40	H	0.902715	0.213375	0.335011
	H41	H	0.098011	0.213913	0.664394
	H42	H	0.096070	0.787952	0.335395
	H43	H	0.903087	0.789388	0.665571
	H44	H	0.215025	0.336196	0.901390
	H45	H	0.214674	0.663358	0.098981
	H46	H	0.784510	0.336229	0.099482
	H47	H	0.786273	0.663776	0.901899
	H48	H	0.406969	0.114942	0.587377
	H49	H	0.582511	0.883801	0.597465
	H50	H	0.590615	0.113288	0.414168
	H51	H	0.400329	0.882959	0.411566
	H52	H	0.597541	0.402142	0.120459
	H53	H	0.594564	0.587858	0.884006
	H54	H	0.415292	0.591939	0.115411
	H55	H	0.409326	0.410949	0.884152
	H56	H	0.118472	0.592951	0.397332
	H57	H	0.882398	0.598908	0.596541
	H58	H	0.119407	0.401798	0.598422
	H59	H	0.882656	0.402538	0.406862
	H60	H	0.115226	0.404391	0.586946
	H61	H	0.884472	0.595452	0.590673
	H62	H	0.117672	0.603725	0.409296
	H63	H	0.885499	0.407089	0.411739
	H64	H	0.403563	0.600267	0.121066
	H65	H	0.589988	0.594227	0.883615
	H66	H	0.596339	0.414148	0.116820
	H67	H	0.408389	0.400946	0.881814
	H68	H	0.601604	0.119174	0.407179
	H69	H	0.595029	0.886192	0.578547
	H70	H	0.398991	0.119525	0.594421
	H71	H	0.403653	0.880692	0.401026
	H72	H	0.907096	0.614621	0.087947
	H73	H	0.090957	0.381351	0.101382
	H74	H	0.100392	0.618858	0.904602
	H75	H	0.901748	0.384739	0.919005
	H76	H	0.091348	0.898574	0.620120
	H77	H	0.091563	0.090273	0.383841
	H78	H	0.903722	0.092189	0.617227
	H79	H	0.903331	0.909667	0.381391
	H80	H	0.612876	0.087355	0.911519
	H81	H	0.382850	0.100814	0.088789
	H82	H	0.611442	0.915739	0.083352
	H83	H	0.381995	0.894177	0.908373
	H84	H	0.619902	0.910710	0.106344
	H85	H	0.385646	0.088302	0.091806
	H86	H	0.618699	0.092471	0.896242
	H87	H	0.388572	0.911919	0.914515
	H88	H	0.908270	0.089825	0.615804
	H89	H	0.090895	0.095703	0.381728
	H90	H	0.102886	0.910417	0.620282
	H91	H	0.910743	0.907154	0.382939
	H92	H	0.089073	0.616106	0.903387
	H93	H	0.088906	0.386085	0.085438
	H94	H	0.900214	0.619031	0.094486
	H95	H	0.898153	0.377765	0.898021
	H96	H	0.410080	0.117399	0.598686
	H97	H	0.604407	0.877489	0.597534
	H98	H	0.589505	0.117413	0.400748
	H99	H	0.410949	0.885164	0.408585
	H100	H	0.586538	0.405788	0.116087
	H101	H	0.597898	0.595002	0.880465
	H102	H	0.401644	0.585437	0.117276
	H103	H	0.400106	0.406833	0.881797
	H104	H	0.113607	0.588433	0.411890
	H105	H	0.883695	0.592273	0.596914
	H106	H	0.115009	0.412665	0.595434
	H107	H	0.884134	0.410204	0.404698
	H108	H	0.909806	0.616827	0.098268
	H109	H	0.103269	0.380308	0.091249
	H110	H	0.094090	0.614870	0.914042
	H111	H	0.917927	0.385817	0.903974
	H112	H	0.087312	0.913411	0.614716
	H113	H	0.096539	0.093375	0.380918
	H114	H	0.908252	0.094677	0.617227
	H115	H	0.905705	0.902274	0.380501
	H116	H	0.618614	0.103397	0.909472
	H117	H	0.380148	0.095859	0.100961
	H118	H	0.619106	0.893107	0.088681
	H119	H	0.382244	0.909775	0.895442
	C120	C	0.377423	0.008488	0.621406
	C121	C	0.621690	0.990994	0.620283
	C122	C	0.621563	0.008325	0.378282
	C123	C	0.377564	0.991682	0.378489
	C124	C	0.621398	0.378918	0.008389
	C125	C	0.621360	0.620790	0.991980
	C126	C	0.379075	0.620631	0.008928
	C127	C	0.378315	0.378584	0.992012
	C128	C	0.008245	0.622309	0.378782
	C129	C	0.991709	0.622702	0.622883
	C130	C	0.008539	0.378253	0.621918
	C131	C	0.991671	0.378295	0.378647
	C132	C	0.878096	0.508219	0.121960
	C133	C	0.121715	0.491208	0.121439
	C134	C	0.121910	0.507854	0.878835
	C135	C	0.878486	0.491718	0.878887
	C136	C	0.121237	0.879541	0.508890
	C137	C	0.121031	0.121636	0.490994
	C138	C	0.878518	0.121211	0.508226
	C139	C	0.878674	0.878873	0.491099
	C140	C	0.508638	0.121677	0.877860
	C141	C	0.491217	0.122338	0.122032
	C142	C	0.508630	0.878307	0.121151
	C143	C	0.492284	0.877404	0.877486
	C144	C	0.381802	0.884550	0.674428
	C145	C	0.617131	0.114868	0.674266
	C146	C	0.617635	0.884547	0.323711
	C147	C	0.382943	0.115606	0.324848
	C148	C	0.675826	0.381316	0.884275
	C149	C	0.676045	0.618747	0.116003
	C150	C	0.324376	0.618234	0.884767
	C151	C	0.323319	0.380475	0.115845
	C152	C	0.884942	0.676060	0.382495
	C153	C	0.114587	0.677306	0.620256
	C154	C	0.885818	0.323198	0.619225
	C155	C	0.114501	0.323281	0.380311
	C156	C	0.885230	0.381733	0.676151
	C157	C	0.114691	0.618526	0.676935
	C158	C	0.884992	0.617836	0.324945
	C159	C	0.114723	0.381786	0.323414
	C160	C	0.382421	0.674770	0.884359
	C161	C	0.618490	0.675969	0.115913
	C162	C	0.617769	0.324649	0.884039
	C163	C	0.382192	0.324726	0.116341
	C164	C	0.677220	0.885261	0.379351
	C165	C	0.676422	0.114486	0.618647
	C166	C	0.322437	0.885336	0.618661
	C167	C	0.323439	0.115207	0.380636
	C168	C	0.882268	0.384328	0.176146
	C169	C	0.117502	0.615569	0.175358
	C170	C	0.117854	0.384106	0.824525
	C171	C	0.883148	0.615663	0.825637
	C172	C	0.175188	0.881991	0.384408
	C173	C	0.176273	0.120060	0.614779
	C174	C	0.823926	0.119246	0.384184
	C175	C	0.823034	0.881533	0.614796
	C176	C	0.385204	0.175542	0.881540
	C177	C	0.614411	0.176607	0.119183
	C178	C	0.385695	0.823650	0.118133
	C179	C	0.615265	0.822999	0.880083
	C180	C	0.385252	0.881955	0.175051
	C181	C	0.614410	0.117839	0.176144
	C182	C	0.385019	0.116952	0.824456
	C183	C	0.615057	0.881243	0.822294
	C184	C	0.881723	0.176178	0.384302
	C185	C	0.118302	0.176369	0.615150
	C186	C	0.117545	0.824994	0.384490
	C187	C	0.881856	0.825639	0.615768
	C188	C	0.176856	0.384756	0.880988
	C189	C	0.176556	0.614959	0.119394
	C190	C	0.823027	0.384732	0.119908
	C191	C	0.824265	0.615069	0.881785
	C192	C	0.398982	0.095099	0.599746
	C193	C	0.600398	0.904629	0.597798
	C194	C	0.600083	0.094373	0.400665
	C195	C	0.398649	0.905325	0.400552
	C196	C	0.599814	0.400809	0.095329
	C197	C	0.600246	0.598893	0.905142
	C198	C	0.400654	0.599010	0.095425
	C199	C	0.399609	0.399847	0.905044
	C200	C	0.094376	0.601141	0.399880
	C201	C	0.905637	0.601833	0.601024
	C202	C	0.094593	0.400013	0.600181
	C203	C	0.906101	0.400179	0.401140
	C204	C	0.899350	0.594501	0.099980
	C205	C	0.100655	0.405135	0.099315
	C206	C	0.100753	0.594320	0.900900
	C207	C	0.899679	0.405054	0.900550
	C208	C	0.100164	0.901140	0.595936
	C209	C	0.099403	0.099545	0.404472
	C210	C	0.900288	0.098802	0.594504
	C211	C	0.900289	0.900220	0.404119
	C212	C	0.594516	0.100741	0.899218
	C213	C	0.405231	0.101328	0.100348
	C214	C	0.594650	0.900078	0.099267
	C215	C	0.406192	0.898777	0.899660
	Zn216	Zn	0.500111	-0.000222	0.748747
	Zn217	Zn	0.499602	-0.000425	0.249926
	Zn218	Zn	0.749575	0.499546	0.000081
	Zn219	Zn	0.250507	0.500177	0.000719
	Zn220	Zn	0.000434	0.751154	0.500641
	Zn221	Zn	0.000241	0.249288	0.500097
	Zn222	Zn	0.000036	0.499933	0.750691
	Zn223	Zn	0.000261	0.500003	0.250104
	Zn224	Zn	0.500530	0.748779	0.000131
	Zn225	Zn	0.500053	0.250747	-0.000230
	Zn226	Zn	0.750519	0.000116	0.499213
	Zn227	Zn	0.248773	0.000603	0.499854
	N228	N	0.415185	0.962296	0.676243
	N229	N	0.583883	0.037024	0.675323
	N230	N	0.583738	0.961965	0.322977
	N231	N	0.415691	0.037733	0.323294
	N232	N	0.678141	0.414224	0.962719
	N233	N	0.678153	0.585194	0.037779
	N234	N	0.322231	0.585155	0.963045
	N235	N	0.321035	0.413456	0.037468
	N236	N	0.962599	0.678852	0.415373
	N237	N	0.037131	0.679739	0.586996
	N238	N	0.963634	0.320811	0.586423
	N239	N	0.037115	0.321042	0.414015
	N240	N	0.962553	0.415340	0.677690
	N241	N	0.037193	0.585352	0.678545
	N242	N	0.962637	0.585222	0.322521
	N243	N	0.037497	0.415423	0.322494
	N244	N	0.415681	0.676539	0.962551
	N245	N	0.585363	0.677309	0.037780
	N246	N	0.584561	0.323217	0.962305
	N247	N	0.415707	0.323278	0.038185
	N248	N	0.679765	0.963350	0.412490
	N249	N	0.679335	0.036507	0.585690
	N250	N	0.319618	0.963587	0.586390
	N251	N	0.320160	0.037138	0.413425
	N252	N	0.915496	0.462215	0.177887
	N253	N	0.083937	0.537842	0.176726
	N254	N	0.084542	0.461759	0.823105
	N255	N	0.916163	0.537823	0.823899
	N256	N	0.177479	0.915079	0.462818
	N257	N	0.178028	0.086437	0.536581
	N258	N	0.821887	0.085711	0.462167
	N259	N	0.820920	0.913739	0.536213
	N260	N	0.462946	0.178712	0.914188
	N261	N	0.536811	0.179380	0.086154
	N262	N	0.463429	0.821434	0.085111
	N263	N	0.537978	0.820842	0.914196
	N264	N	0.462802	0.915103	0.176983
	N265	N	0.536882	0.084914	0.178020
	N266	N	0.462572	0.084198	0.822230
	N267	N	0.537543	0.914113	0.820749
	N268	N	0.915117	0.177477	0.462474
	N269	N	0.084749	0.177444	0.537189
	N270	N	0.084611	0.823415	0.462860
	N271	N	0.915852	0.824034	0.537805
	N272	N	0.179367	0.462766	0.914280
	N273	N	0.179329	0.536853	0.086717
	N274	N	0.820574	0.462472	0.086549
	N275	N	0.821228	0.536750	0.914184
