data_Molecule from HDF5

_cell_length_a		16.330098
_cell_length_b		16.258152
_cell_length_c		16.548833
_cell_angle_alpha	90.029534
_cell_angle_beta	89.985741
_cell_angle_gamma	89.790304
_symmetry_space_group_name_H-M	'P 1'
_symmetry_Int_Tables_number		1

loop_
	_symmetry_equiv_pos_as_xyz
	x,y,z

loop_
	_atom_site_label
	_atom_site_type_symbol
	_atom_site_fract_x
	_atom_site_fract_y
	_atom_site_fract_z
	H0	H	0.390628	0.838515	0.718785
	H1	H	0.602246	0.157773	0.719542
	H2	H	0.601533	0.838410	0.276632
	H3	H	0.385729	0.157044	0.274719
	H4	H	0.717712	0.389069	0.839831
	H5	H	0.717365	0.602089	0.155236
	H6	H	0.274425	0.600254	0.840048
	H7	H	0.272726	0.391106	0.154806
	H8	H	0.832455	0.713157	0.397688
	H9	H	0.158320	0.708652	0.592729
	H10	H	0.836915	0.276182	0.600856
	H11	H	0.156227	0.273954	0.391387
	H12	H	0.838338	0.386530	0.721290
	H13	H	0.155302	0.600093	0.716154
	H14	H	0.834384	0.602007	0.277305
	H15	H	0.153925	0.386472	0.272626
	H16	H	0.392428	0.716279	0.839019
	H17	H	0.599682	0.719003	0.155135
	H18	H	0.599711	0.275716	0.839187
	H19	H	0.390509	0.277022	0.156246
	H20	H	0.712442	0.835295	0.396708
	H21	H	0.715760	0.157847	0.602551
	H22	H	0.280950	0.835304	0.597588
	H23	H	0.274557	0.158021	0.394882
	H24	H	0.890337	0.336722	0.217918
	H25	H	0.101119	0.655990	0.217665
	H26	H	0.103346	0.335675	0.775050
	H27	H	0.890783	0.656619	0.777952
	H28	H	0.215784	0.893520	0.337719
	H29	H	0.215112	0.100539	0.656017
	H30	H	0.773410	0.102204	0.339263
	H31	H	0.777863	0.894322	0.655839
	H32	H	0.334456	0.218060	0.895310
	H33	H	0.656436	0.213907	0.096780
	H34	H	0.333610	0.779860	0.100701
	H35	H	0.656154	0.780039	0.897487
	H36	H	0.335361	0.894378	0.217834
	H37	H	0.654520	0.104162	0.218254
	H38	H	0.336818	0.107800	0.774205
	H39	H	0.654640	0.892427	0.778160
	H40	H	0.889868	0.220414	0.339813
	H41	H	0.100025	0.217379	0.655545
	H42	H	0.096281	0.779098	0.336552
	H43	H	0.895362	0.779233	0.655861
	H44	H	0.216204	0.335358	0.893691
	H45	H	0.210939	0.658093	0.098549
	H46	H	0.779747	0.334124	0.097245
	H47	H	0.779560	0.657640	0.898094
	H48	H	0.400861	0.114323	0.586798
	H49	H	0.581402	0.885232	0.588076
	H50	H	0.581422	0.113632	0.403073
	H51	H	0.410218	0.887328	0.415019
	H52	H	0.593208	0.410145	0.110871
	H53	H	0.579355	0.590398	0.885875
	H54	H	0.403477	0.582758	0.109800
	H55	H	0.401523	0.410109	0.883993
	H56	H	0.109587	0.588354	0.406211
	H57	H	0.878040	0.589549	0.591169
	H58	H	0.109836	0.409743	0.589035
	H59	H	0.884858	0.415091	0.406074
	H60	H	0.109871	0.406635	0.585929
	H61	H	0.881045	0.586629	0.584420
	H62	H	0.108620	0.583641	0.404332
	H63	H	0.881206	0.406488	0.405383
	H64	H	0.409286	0.590079	0.110710
	H65	H	0.591589	0.592382	0.881522
	H66	H	0.581810	0.410208	0.107427
	H67	H	0.409293	0.414382	0.889254
	H68	H	0.577756	0.109912	0.412403
	H69	H	0.587639	0.883395	0.586570
	H70	H	0.408345	0.113475	0.591416
	H71	H	0.398274	0.879668	0.405567
	H72	H	0.907174	0.610011	0.085901
	H73	H	0.077481	0.382700	0.090010
	H74	H	0.085663	0.609962	0.909040
	H75	H	0.906296	0.378537	0.901113
	H76	H	0.092346	0.904316	0.611058
	H77	H	0.082269	0.087408	0.384987
	H78	H	0.903142	0.088365	0.610160
	H79	H	0.897058	0.906043	0.381017
	H80	H	0.608975	0.087841	0.907326
	H81	H	0.380272	0.090454	0.085574
	H82	H	0.608039	0.911674	0.089006
	H83	H	0.378281	0.906431	0.903676
	H84	H	0.610558	0.907365	0.090032
	H85	H	0.382733	0.082664	0.084206
	H86	H	0.607359	0.084211	0.909895
	H87	H	0.381795	0.908688	0.910778
	H88	H	0.904598	0.082339	0.608039
	H89	H	0.087909	0.083330	0.385116
	H90	H	0.086300	0.905846	0.608659
	H91	H	0.905813	0.910047	0.384850
	H92	H	0.084380	0.611575	0.902667
	H93	H	0.083828	0.383757	0.079345
	H94	H	0.904290	0.612689	0.087029
	H95	H	0.912910	0.382046	0.907414
	H96	H	0.408148	0.111414	0.583008
	H97	H	0.585080	0.881954	0.592259
	H98	H	0.588769	0.112429	0.411403
	H99	H	0.413085	0.882670	0.399228
	H100	H	0.586748	0.400188	0.112161
	H101	H	0.588110	0.580528	0.886642
	H102	H	0.400481	0.590489	0.113405
	H103	H	0.410044	0.404502	0.885321
	H104	H	0.110682	0.587183	0.401880
	H105	H	0.880674	0.582312	0.590628
	H106	H	0.108520	0.410426	0.585022
	H107	H	0.884831	0.409617	0.413571
	H108	H	0.907161	0.612022	0.089536
	H109	H	0.088617	0.378654	0.089082
	H110	H	0.079468	0.609011	0.906232
	H111	H	0.903785	0.380398	0.909994
	H112	H	0.087771	0.899793	0.611770
	H113	H	0.081610	0.080663	0.386757
	H114	H	0.909250	0.087262	0.608091
	H115	H	0.905652	0.900164	0.381424
	H116	H	0.609662	0.083836	0.905650
	H117	H	0.379974	0.084201	0.091655
	H118	H	0.609399	0.908125	0.085366
	H119	H	0.380748	0.914153	0.904776
	C120	C	0.374955	0.006742	0.618489
	C121	C	0.616892	0.989333	0.619815
	C122	C	0.615192	0.006082	0.377396
	C123	C	0.374242	0.989042	0.375597
	C124	C	0.618009	0.374657	0.005460
	C125	C	0.617343	0.618992	0.989357
	C126	C	0.372738	0.619424	0.006651
	C127	C	0.373992	0.375964	0.989491
	C128	C	0.003296	0.618034	0.374316
	C129	C	0.986647	0.616916	0.617914
	C130	C	0.004652	0.375455	0.618702
	C131	C	0.988157	0.375951	0.375851
	C132	C	0.874342	0.505306	0.118571
	C133	C	0.115151	0.487642	0.117751
	C134	C	0.116338	0.504226	0.875116
	C135	C	0.875204	0.487125	0.875349
	C136	C	0.118738	0.873692	0.504906
	C137	C	0.116120	0.116769	0.489773
	C138	C	0.873200	0.119087	0.505210
	C139	C	0.873521	0.875262	0.487944
	C140	C	0.503771	0.119546	0.875395
	C141	C	0.486623	0.118476	0.118552
	C142	C	0.503724	0.876830	0.119491
	C143	C	0.486255	0.877271	0.875996
	C144	C	0.373096	0.886029	0.678094
	C145	C	0.619487	0.109838	0.679350
	C146	C	0.618469	0.885822	0.317285
	C147	C	0.369049	0.109383	0.315548
	C148	C	0.677635	0.371688	0.886938
	C149	C	0.677310	0.620473	0.107793
	C150	C	0.313857	0.619853	0.887376
	C151	C	0.313198	0.373119	0.107992
	C152	C	0.881363	0.675579	0.376700
	C153	C	0.108924	0.672397	0.614713
	C154	C	0.884684	0.315660	0.619642
	C155	C	0.107997	0.314362	0.373264
	C156	C	0.885448	0.370488	0.679740
	C157	C	0.107553	0.618088	0.675857
	C158	C	0.882247	0.619868	0.316980
	C159	C	0.106875	0.370289	0.313790
	C160	C	0.372449	0.677635	0.886820
	C161	C	0.618678	0.678709	0.108003
	C162	C	0.618723	0.314823	0.886842
	C163	C	0.372070	0.316338	0.108413
	C164	C	0.673654	0.884266	0.377131
	C165	C	0.676529	0.109811	0.621288
	C166	C	0.318347	0.884597	0.617893
	C167	C	0.313689	0.109704	0.375242
	C168	C	0.872421	0.384409	0.177625
	C169	C	0.117889	0.608194	0.177446
	C170	C	0.120472	0.383731	0.815374
	C171	C	0.872716	0.608270	0.817370
	C172	C	0.176384	0.874294	0.385297
	C173	C	0.175629	0.118924	0.608607
	C174	C	0.812703	0.121627	0.386804
	C175	C	0.816692	0.875304	0.608044
	C176	C	0.382944	0.179438	0.875321
	C177	C	0.608021	0.176008	0.117581
	C178	C	0.382409	0.818603	0.119763
	C179	C	0.607412	0.818585	0.877186
	C180	C	0.383254	0.875405	0.178473
	C181	C	0.606932	0.121368	0.177882
	C182	C	0.384159	0.124454	0.815103
	C183	C	0.606912	0.874862	0.818052
	C184	C	0.870951	0.180086	0.386908
	C185	C	0.118198	0.177066	0.608367
	C186	C	0.117138	0.817212	0.384629
	C187	C	0.875074	0.818030	0.608242
	C188	C	0.176512	0.383385	0.874510
	C189	C	0.173097	0.609205	0.118148
	C190	C	0.817561	0.383048	0.117530
	C191	C	0.817203	0.608958	0.876683
	C192	C	0.398942	0.091198	0.594240
	C193	C	0.591949	0.905270	0.595665
	C194	C	0.590019	0.090098	0.401873
	C195	C	0.400063	0.904989	0.399525
	C196	C	0.594179	0.399618	0.088580
	C197	C	0.593180	0.594731	0.906299
	C198	C	0.397250	0.594737	0.089635
	C199	C	0.399464	0.402049	0.907422
	C200	C	0.087828	0.593503	0.397357
	C201	C	0.902033	0.593129	0.595234
	C202	C	0.087862	0.401517	0.593795
	C203	C	0.905281	0.402663	0.401066
	C204	C	0.898911	0.589619	0.094590
	C205	C	0.090383	0.403489	0.093451
	C206	C	0.090684	0.588161	0.899153
	C207	C	0.900356	0.402500	0.899253
	C208	C	0.095419	0.896599	0.588775
	C209	C	0.090902	0.091276	0.407239
	C210	C	0.898405	0.093610	0.587360
	C211	C	0.896304	0.898732	0.404354
	C212	C	0.587002	0.093163	0.900368
	C213	C	0.402779	0.093071	0.094275
	C214	C	0.587729	0.901649	0.095091
	C215	C	0.402170	0.902567	0.899475
	Zn216	Zn	0.495159	-0.001602	0.747252
	Zn217	Zn	0.495099	-0.001213	0.247908
	Zn218	Zn	0.747428	0.495988	-0.003167
	Zn219	Zn	0.243886	0.496089	-0.002234
	Zn220	Zn	-0.004922	0.745922	0.496121
	Zn221	Zn	-0.003425	0.247437	0.497190
	Zn222	Zn	-0.004103	0.495958	0.747214
	Zn223	Zn	-0.004876	0.496676	0.246548
	Zn224	Zn	0.494510	0.748797	-0.002390
	Zn225	Zn	0.495062	0.246633	-0.002538
	Zn226	Zn	0.743943	-0.003075	0.497660
	Zn227	Zn	0.246708	-0.002976	0.497533
	N228	N	0.407418	0.963152	0.678706
	N229	N	0.583194	0.033789	0.678696
	N230	N	0.582943	0.962730	0.317123
	N231	N	0.406346	0.033418	0.315907
	N232	N	0.677198	0.408367	0.961708
	N233	N	0.676501	0.583676	0.032884
	N234	N	0.313505	0.584888	0.963000
	N235	N	0.314266	0.409562	0.033093
	N236	N	0.957686	0.674407	0.411540
	N237	N	0.032622	0.671876	0.579436
	N238	N	0.959614	0.318857	0.582026
	N239	N	0.033206	0.317634	0.411155
	N240	N	0.961078	0.407157	0.679160
	N241	N	0.030512	0.584460	0.678048
	N242	N	0.959156	0.585083	0.315308
	N243	N	0.031441	0.408068	0.315413
	N244	N	0.408062	0.677633	0.962058
	N245	N	0.582219	0.677911	0.033356
	N246	N	0.582284	0.316669	0.961580
	N247	N	0.408943	0.317889	0.033817
	N248	N	0.671736	0.959928	0.413809
	N249	N	0.675027	0.033897	0.585066
	N250	N	0.319107	0.960699	0.581897
	N251	N	0.316826	0.034044	0.411906
	N252	N	0.906794	0.461488	0.178373
	N253	N	0.082850	0.531398	0.177557
	N254	N	0.083771	0.459807	0.815786
	N255	N	0.907644	0.531257	0.816180
	N256	N	0.177513	0.908605	0.461152
	N257	N	0.174473	0.081969	0.533908
	N258	N	0.813751	0.084623	0.461364
	N259	N	0.815183	0.909883	0.532230
	N260	N	0.458441	0.176554	0.911975
	N261	N	0.532265	0.174581	0.081673
	N262	N	0.458371	0.819314	0.083723
	N263	N	0.531296	0.820082	0.912510
	N264	N	0.459701	0.910449	0.178718
	N265	N	0.530233	0.086464	0.178587
	N266	N	0.460284	0.088256	0.814826
	N267	N	0.530542	0.910748	0.817110
	N268	N	0.907410	0.178860	0.461615
	N269	N	0.081817	0.175691	0.533560
	N270	N	0.082112	0.816523	0.460124
	N271	N	0.909593	0.817630	0.532506
	N272	N	0.174274	0.459398	0.911000
	N273	N	0.171538	0.533317	0.081627
	N274	N	0.818495	0.459271	0.081729
	N275	N	0.818484	0.532461	0.911849
	O276	O	0.694786	0.414287	0.329435
	H277	H	0.678385	0.404288	0.316845
	H278	H	0.722834	0.413415	0.302007
	O279	O	0.544361	0.377725	0.509393
	H280	H	0.553015	0.383024	0.505207
	H281	H	0.543729	0.361677	0.476547
	O282	O	0.391668	0.319739	0.631583
	H283	H	0.410325	0.312356	0.610984
	H284	H	0.400614	0.312577	0.652660
	O285	O	0.920978	1.137857	0.126704
	H286	H	0.919237	1.131433	0.122017
	H287	H	0.932957	1.140598	0.131034
	O288	O	0.630518	0.490147	0.468928
	H289	H	0.632292	0.495058	0.447882
	H290	H	0.618984	0.486126	0.462875
	O291	O	0.677102	0.672992	0.682470
	H292	H	0.680311	0.664855	0.692821
	H293	H	0.665217	0.672938	0.661455
	O294	O	0.930198	0.852971	1.087624
	H295	H	0.918278	0.839133	1.083679
	H296	H	0.923451	0.859017	1.093849
	O297	O	0.351263	0.309284	0.455690
	H298	H	0.363308	0.301158	0.457380
	H299	H	0.347998	0.314941	0.488391
	O300	O	0.365876	0.384846	0.548002
	H301	H	0.355138	0.402167	0.552258
	H302	H	0.383786	0.392164	0.550367
	O303	O	0.340319	0.544546	0.499406
	H304	H	0.342577	0.543806	0.493640
	H305	H	0.330860	0.534499	0.492914
	O306	O	0.159876	-0.086426	0.793828
	H307	H	0.175357	-0.109585	0.773775
	H308	H	0.152896	-0.079538	0.787921
	O309	O	0.805746	-0.031176	-0.126336
	H310	H	0.809634	-0.033782	-0.143081
	H311	H	0.804998	0.001744	-0.137101
	O312	O	0.682256	0.471049	0.549922
	H313	H	0.695341	0.487088	0.541923
	H314	H	0.673337	0.480349	0.561110
	O315	O	0.686408	0.663939	0.532457
	H316	H	0.683475	0.664340	0.540375
	H317	H	0.693117	0.668780	0.517916
	O318	O	0.075145	0.073265	0.172723
	H319	H	0.053947	0.070397	0.189222
	H320	H	0.071188	0.072419	0.162251
	O321	O	0.586993	0.464006	0.407032
	H322	H	0.572498	0.465265	0.420719
	H323	H	0.580804	0.449648	0.383485
	O324	O	0.852387	-0.003050	0.874649
	H325	H	0.870043	0.015828	0.869777
	H326	H	0.864463	-0.006488	0.858973
	O327	O	0.521976	0.688027	0.688758
	H328	H	0.526642	0.689939	0.687211
	H329	H	0.520982	0.686322	0.705773
	O330	O	0.014547	1.094726	0.827204
	H331	H	0.013473	1.083909	0.833255
	H332	H	0.024006	1.093396	0.815057
	O333	O	0.184854	0.862073	0.063233
	H334	H	0.188067	0.851560	0.063595
	H335	H	0.164065	0.864313	0.057309
	O336	O	1.065934	1.072737	0.018725
	H337	H	1.079229	1.069250	0.020354
	H338	H	1.070146	1.070120	0.018131
	O339	O	0.168933	1.137975	1.030837
	H340	H	0.176816	1.151322	1.038899
	H341	H	0.165477	1.122732	1.045108
	O342	O	0.365242	0.683564	0.450740
	H343	H	0.373366	0.684464	0.458977
	H344	H	0.384797	0.684786	0.446830
	O345	O	0.031723	0.090442	0.850301
	H346	H	0.041987	0.100691	0.859500
	H347	H	0.043694	0.105534	0.852496
	O348	O	0.305990	0.485875	0.697787
	H349	H	0.305311	0.480155	0.691242
	H350	H	0.312723	0.476520	0.702641
	O351	O	0.692345	0.770635	0.261987
	H352	H	0.676714	0.781881	0.265446
	H353	H	0.676720	0.771880	0.235886
	O354	O	0.957293	0.921659	0.836533
	H355	H	0.960630	0.935512	0.835602
	H356	H	0.983290	0.916133	0.829091
	O357	O	-0.042243	0.007208	0.036659
	H358	H	-0.042220	-0.001478	0.029856
	H359	H	-0.041885	0.005871	0.033121
	O360	O	0.527552	0.421088	0.635841
	H361	H	0.531601	0.414578	0.618927
	H362	H	0.531630	0.420195	0.628375
	O363	O	0.800195	-0.072040	0.163467
	H364	H	0.792693	-0.061002	0.165110
	H365	H	0.805241	-0.062476	0.136196
	O366	O	0.070631	0.017766	0.932249
	H367	H	0.073022	0.013285	0.933915
	H368	H	0.070576	0.008444	0.926318
	O369	O	0.910709	-0.006409	0.853695
	H370	H	0.915123	-0.007036	0.847916
	H371	H	0.912328	-0.007089	0.861677
	O372	O	0.401869	0.681977	0.612922
	H373	H	0.414073	0.678278	0.608890
	H374	H	0.416497	0.667981	0.611218
	O375	O	-0.080475	0.141655	0.991798
	H376	H	-0.082063	0.138070	0.986816
	H377	H	-0.067863	0.132859	0.999392
	O378	O	0.606715	0.322767	0.402571
	H379	H	0.606217	0.323895	0.417277
	H380	H	0.612326	0.324095	0.407374
	O381	O	0.179619	1.115480	0.185004
	H382	H	0.163643	1.121853	0.194341
	H383	H	0.187141	1.094456	0.197983
	O384	O	0.708125	0.560509	0.685546
	H385	H	0.711289	0.553879	0.685972
	H386	H	0.720813	0.575843	0.699423
	O387	O	0.285428	0.543618	0.541028
	H388	H	0.295559	0.514343	0.550401
	H389	H	0.270649	0.539155	0.529147
	O390	O	0.917499	0.841229	0.146609
	H391	H	0.880546	0.842320	0.134199
	H392	H	0.921513	0.813303	0.168280
	O393	O	0.985528	0.171543	0.960763
	H394	H	1.002377	0.176330	0.960911
	H395	H	1.001727	0.168586	0.958893
	O396	O	0.525427	0.662765	0.293603
	H397	H	0.503436	0.661987	0.309119
	H398	H	0.518839	0.668154	0.283749
	O399	O	0.570985	0.344557	0.282524
	H400	H	0.573928	0.322747	0.259688
	H401	H	0.591557	0.357434	0.287101
	O402	O	0.817795	0.973231	0.094655
	H403	H	0.823271	0.974015	0.104603
	H404	H	0.815315	0.976608	0.094477
	O405	O	0.288240	0.555123	0.287521
	H406	H	0.274356	0.560246	0.285917
	H407	H	0.278049	0.562299	0.288535
	O408	O	0.576516	0.393856	0.669147
	H409	H	0.582521	0.382258	0.665165
	H410	H	0.574098	0.397071	0.659586
	O411	O	0.991328	0.935606	1.043794
	H412	H	0.978926	0.927905	1.042939
	H413	H	0.982817	0.935448	1.045857
	O414	O	0.632036	0.296743	0.359407
	H415	H	0.646518	0.302370	0.344770
	H416	H	0.639133	0.295713	0.382057
	O417	O	0.196857	0.794776	0.873796
	H418	H	0.213994	0.785144	0.859962
	H419	H	0.203509	0.788103	0.881206
	O420	O	0.018641	0.796250	0.790395
	H421	H	0.029732	0.798219	0.789672
	H422	H	0.038740	0.786739	0.777894
	O423	O	0.261997	1.318959	0.234173
	H424	H	0.261593	1.316199	0.220242
	H425	H	0.248895	1.301450	0.253305
	O426	O	0.435780	0.565117	0.412667
	H427	H	0.423763	0.567910	0.407825
	H428	H	0.426946	0.561123	0.416142
	O429	O	0.364142	0.702350	0.362733
	H430	H	0.376697	0.697216	0.371046
	H431	H	0.357246	0.727311	0.356738
	O432	O	0.446538	0.392414	0.700569
	H433	H	0.449412	0.385947	0.722201
	H434	H	0.474433	0.405728	0.692117
	O435	O	0.039883	0.005126	0.154873
	H436	H	0.029591	0.003104	0.160511
	H437	H	0.043354	0.002596	0.152417
	O438	O	0.084917	0.818187	0.993140
	H439	H	0.095853	0.808229	0.995626
	H440	H	0.081494	0.822393	1.009263
	O441	O	0.536513	0.564110	0.336875
	H442	H	0.526368	0.558390	0.342813
	H443	H	0.537726	0.570357	0.338641
