data_Molecule from HDF5

_cell_length_a		16.232524
_cell_length_b		16.322116
_cell_length_c		16.188898
_cell_angle_alpha	90.059455
_cell_angle_beta	90.019415
_cell_angle_gamma	90.005721
_symmetry_space_group_name_H-M	'P 1'
_symmetry_Int_Tables_number		1

loop_
	_symmetry_equiv_pos_as_xyz
	x,y,z

loop_
	_atom_site_label
	_atom_site_type_symbol
	_atom_site_fract_x
	_atom_site_fract_y
	_atom_site_fract_z
	H0	H	0.420900	0.827165	0.717577
	H1	H	0.617703	0.152993	0.720360
	H2	H	0.616671	0.826862	0.291646
	H3	H	0.421453	0.154510	0.289714
	H4	H	0.733648	0.391191	0.839259
	H5	H	0.733196	0.586681	0.169144
	H6	H	0.306813	0.586216	0.839465
	H7	H	0.305423	0.390274	0.168962
	H8	H	0.855558	0.705262	0.404678
	H9	H	0.183045	0.706362	0.604688
	H10	H	0.855573	0.275820	0.603759
	H11	H	0.183502	0.275342	0.405450
	H12	H	0.854380	0.394572	0.716694
	H13	H	0.183789	0.588519	0.718171
	H14	H	0.854557	0.587310	0.291904
	H15	H	0.184430	0.392628	0.291493
	H16	H	0.420224	0.703207	0.840055
	H17	H	0.620649	0.705371	0.168104
	H18	H	0.619149	0.274202	0.840095
	H19	H	0.421107	0.275156	0.168805
	H20	H	0.734276	0.827725	0.405906
	H21	H	0.734304	0.154394	0.604103
	H22	H	0.304314	0.828178	0.603685
	H23	H	0.304725	0.154454	0.405521
	H24	H	0.920631	0.326974	0.219387
	H25	H	0.117713	0.654477	0.218695
	H26	H	0.116230	0.327039	0.789994
	H27	H	0.921611	0.654481	0.792095
	H28	H	0.233231	0.893771	0.339450
	H29	H	0.233485	0.088918	0.669369
	H30	H	0.807154	0.088634	0.340129
	H31	H	0.807217	0.893775	0.669648
	H32	H	0.356662	0.206017	0.903341
	H33	H	0.683073	0.205577	0.104347
	H34	H	0.355291	0.774865	0.103178
	H35	H	0.684172	0.775251	0.905775
	H36	H	0.354319	0.892786	0.217736
	H37	H	0.683929	0.088376	0.218005
	H38	H	0.355361	0.086412	0.791470
	H39	H	0.684152	0.891776	0.790864
	H40	H	0.921294	0.205147	0.340863
	H41	H	0.120402	0.206244	0.668887
	H42	H	0.119456	0.775596	0.340558
	H43	H	0.920231	0.776614	0.668611
	H44	H	0.232838	0.325963	0.905244
	H45	H	0.235390	0.653254	0.103589
	H46	H	0.804229	0.326865	0.103322
	H47	H	0.804132	0.652872	0.905266
	H48	H	0.418575	0.109673	0.598358
	H49	H	0.615537	0.872650	0.599855
	H50	H	0.617954	0.107735	0.415038
	H51	H	0.430708	0.878324	0.418432
	H52	H	0.607533	0.390290	0.121303
	H53	H	0.615494	0.571800	0.888962
	H54	H	0.436292	0.587405	0.121476
	H55	H	0.423020	0.402299	0.887484
	H56	H	0.136407	0.584757	0.412164
	H57	H	0.901192	0.589202	0.595278
	H58	H	0.132633	0.404894	0.591229
	H59	H	0.903321	0.402931	0.409157
	H60	H	0.139208	0.399775	0.607159
	H61	H	0.903487	0.581744	0.594898
	H62	H	0.136028	0.584083	0.412679
	H63	H	0.900096	0.392336	0.408926
	H64	H	0.419195	0.586246	0.125306
	H65	H	0.601468	0.584956	0.889139
	H66	H	0.620192	0.396035	0.124055
	H67	H	0.433956	0.395842	0.889467
	H68	H	0.613978	0.109387	0.406107
	H69	H	0.610637	0.874568	0.597899
	H70	H	0.430826	0.108742	0.604865
	H71	H	0.417555	0.872250	0.411971
	H72	H	0.926122	0.607567	0.100273
	H73	H	0.109804	0.374530	0.099835
	H74	H	0.121424	0.608863	0.912562
	H75	H	0.921990	0.372026	0.910380
	H76	H	0.104560	0.907335	0.616397
	H77	H	0.103908	0.088714	0.388587
	H78	H	0.923129	0.078477	0.622400
	H79	H	0.921179	0.887779	0.382222
	H80	H	0.636427	0.084674	0.913486
	H81	H	0.403210	0.088781	0.087514
	H82	H	0.638158	0.898310	0.106233
	H83	H	0.404207	0.893377	0.917374
	H84	H	0.638782	0.886865	0.095664
	H85	H	0.405533	0.073189	0.096876
	H86	H	0.635760	0.080285	0.915375
	H87	H	0.403675	0.900901	0.909727
	H88	H	0.932767	0.083927	0.620593
	H89	H	0.119960	0.087881	0.383607
	H90	H	0.107334	0.885796	0.623409
	H91	H	0.920588	0.908003	0.388252
	H92	H	0.110180	0.608099	0.905396
	H93	H	0.113270	0.374521	0.094060
	H94	H	0.929483	0.604612	0.095423
	H95	H	0.929281	0.373331	0.907391
	H96	H	0.429504	0.104937	0.591666
	H97	H	0.615589	0.874379	0.594369
	H98	H	0.608609	0.105734	0.413338
	H99	H	0.430627	0.873736	0.403437
	H100	H	0.609673	0.403552	0.118244
	H101	H	0.619617	0.589726	0.883174
	H102	H	0.428201	0.572237	0.118386
	H103	H	0.423440	0.389602	0.884775
	H104	H	0.136398	0.583834	0.412096
	H105	H	0.901100	0.584390	0.601545
	H106	H	0.138061	0.388385	0.593896
	H107	H	0.904649	0.396316	0.418078
	H108	H	0.923440	0.606616	0.095071
	H109	H	0.116019	0.372618	0.100245
	H110	H	0.110548	0.603370	0.918178
	H111	H	0.927543	0.374696	0.915157
	H112	H	0.125035	0.900877	0.624882
	H113	H	0.112417	0.074049	0.390692
	H114	H	0.923866	0.089858	0.625073
	H115	H	0.938339	0.897348	0.390322
	H116	H	0.637092	0.080366	0.910662
	H117	H	0.398773	0.087438	0.105449
	H118	H	0.633790	0.901148	0.090875
	H119	H	0.399740	0.890036	0.907695
	C120	C	0.398086	-0.000445	0.626360
	C121	C	0.642050	0.981651	0.626456
	C122	C	0.641788	-0.000546	0.382737
	C123	C	0.397962	0.982848	0.382848
	C124	C	0.641219	0.368002	0.012330
	C125	C	0.641128	0.610891	0.995641
	C126	C	0.398674	0.610365	0.012969
	C127	C	0.398365	0.367723	0.996040
	C128	C	0.027721	0.612384	0.383163
	C129	C	1.010656	0.613187	0.626234
	C130	C	0.027476	0.369462	0.625825
	C131	C	1.011464	0.368846	0.383186
	C132	C	0.897928	0.498308	0.125586
	C133	C	0.141817	0.481869	0.126702
	C134	C	0.141868	0.498810	0.882677
	C135	C	0.897759	0.481799	0.882897
	C136	C	0.140883	0.869644	0.512923
	C137	C	0.141379	0.112236	0.496225
	C138	C	0.898575	0.112273	0.513634
	C139	C	0.897950	0.869204	0.495886
	C140	C	0.528178	0.110300	0.884017
	C141	C	0.510802	0.111995	0.125923
	C142	C	0.527775	0.867885	0.126002
	C143	C	0.511362	0.866956	0.882754
	C144	C	0.400702	0.876108	0.680331
	C145	C	0.639203	0.104540	0.682492
	C146	C	0.637808	0.875946	0.328708
	C147	C	0.400694	0.105780	0.327575
	C148	C	0.696062	0.370678	0.888600
	C149	C	0.695760	0.607586	0.119786
	C150	C	0.344208	0.607070	0.888789
	C151	C	0.343145	0.369943	0.119733
	C152	C	0.904406	0.667296	0.385061
	C153	C	0.134151	0.668067	0.624370
	C154	C	0.904468	0.314125	0.623666
	C155	C	0.134630	0.313357	0.385041
	C156	C	0.903771	0.373041	0.679791
	C157	C	0.134842	0.609203	0.680423
	C158	C	0.903974	0.608794	0.328765
	C159	C	0.135110	0.371649	0.328322
	C160	C	0.400690	0.664992	0.889112
	C161	C	0.639512	0.666067	0.119377
	C162	C	0.639403	0.312442	0.888834
	C163	C	0.400431	0.312414	0.119702
	C164	C	0.696417	0.876365	0.385478
	C165	C	0.696727	0.105167	0.624655
	C166	C	0.342631	0.876715	0.623744
	C167	C	0.342834	0.105867	0.385344
	C168	C	0.900409	0.375495	0.181214
	C169	C	0.139038	0.605326	0.181365
	C170	C	0.137807	0.375714	0.827552
	C171	C	0.900573	0.605213	0.828775
	C172	C	0.195691	0.873035	0.388866
	C173	C	0.196376	0.109769	0.620190
	C174	C	0.844268	0.109377	0.389424
	C175	C	0.843990	0.872536	0.620117
	C176	C	0.405248	0.166748	0.884340
	C177	C	0.634391	0.167260	0.124133
	C178	C	0.404202	0.812832	0.123789
	C179	C	0.635074	0.812620	0.885373
	C180	C	0.403828	0.871740	0.180440
	C181	C	0.634800	0.109010	0.180384
	C182	C	0.404707	0.107605	0.828540
	C183	C	0.635084	0.870814	0.828425
	C184	C	0.901111	0.167128	0.389817
	C185	C	0.139861	0.167853	0.619881
	C186	C	0.138998	0.814468	0.389174
	C187	C	0.900292	0.814373	0.619565
	C188	C	0.195629	0.375154	0.885247
	C189	C	0.197361	0.604749	0.124028
	C190	C	0.842527	0.375450	0.123850
	C191	C	0.842344	0.604390	0.885198
	C192	C	0.419976	0.085454	0.604732
	C193	C	0.620315	0.896199	0.603975
	C194	C	0.620072	0.085203	0.405037
	C195	C	0.419823	0.896886	0.404842
	C196	C	0.619076	0.390106	0.098848
	C197	C	0.618810	0.588842	0.909235
	C198	C	0.421348	0.588469	0.099397
	C199	C	0.420278	0.389506	0.909606
	C200	C	0.114134	0.590570	0.405718
	C201	C	0.924347	0.591600	0.603908
	C202	C	0.114175	0.391285	0.603846
	C203	C	0.924968	0.390621	0.405444
	C204	C	0.919871	0.584068	0.103301
	C205	C	0.119693	0.396183	0.104606
	C206	C	0.120298	0.584633	0.905139
	C207	C	0.919889	0.395724	0.904363
	C208	C	0.118876	0.891537	0.599173
	C209	C	0.118920	0.089895	0.409859
	C210	C	0.920312	0.090565	0.600353
	C211	C	0.920193	0.891268	0.409244
	C212	C	0.614097	0.088249	0.906677
	C213	C	0.424874	0.089689	0.103397
	C214	C	0.614522	0.889266	0.104075
	C215	C	0.424994	0.888490	0.904937
	Zn216	Zn	0.519773	-0.010606	0.754595
	Zn217	Zn	0.519449	-0.009336	0.253955
	Zn218	Zn	0.769414	0.489562	0.003991
	Zn219	Zn	0.270476	0.489565	0.004945
	Zn220	Zn	0.019133	0.740856	0.504351
	Zn221	Zn	0.020031	0.240097	0.505001
	Zn222	Zn	0.019020	0.491439	0.754476
	Zn223	Zn	0.019283	0.490497	0.254872
	Zn224	Zn	0.519502	0.738697	0.004603
	Zn225	Zn	0.519744	0.239478	0.004427
	Zn226	Zn	0.770560	-0.008708	0.504771
	Zn227	Zn	0.269686	-0.008407	0.505000
	N228	N	0.434585	0.953344	0.681966
	N229	N	0.605934	0.026989	0.683835
	N230	N	0.604722	0.953440	0.326766
	N231	N	0.434093	0.028310	0.326106
	N232	N	0.697191	0.404347	0.966425
	N233	N	0.696733	0.573798	0.041890
	N234	N	0.343124	0.573489	0.966683
	N235	N	0.341716	0.403555	0.041876
	N236	N	0.982520	0.669553	0.418241
	N237	N	0.056110	0.670381	0.591147
	N238	N	0.982496	0.311982	0.590751
	N239	N	0.056807	0.311563	0.418617
	N240	N	0.981425	0.406823	0.681150
	N241	N	0.056928	0.575842	0.681801
	N242	N	0.981701	0.575357	0.327621
	N243	N	0.057435	0.405388	0.327108
	N244	N	0.433687	0.667124	0.967411
	N245	N	0.606316	0.668275	0.041206
	N246	N	0.605888	0.310816	0.966923
	N247	N	0.434135	0.311111	0.041769
	N248	N	0.698791	0.954036	0.418625
	N249	N	0.698821	0.027874	0.590726
	N250	N	0.340937	0.954396	0.590870
	N251	N	0.341288	0.028422	0.419020
	N252	N	0.934180	0.452839	0.182262
	N253	N	0.105305	0.527966	0.183208
	N254	N	0.104838	0.453326	0.825870
	N255	N	0.934295	0.527870	0.827148
	N256	N	0.197153	0.906556	0.466853
	N257	N	0.197386	0.075931	0.542284
	N258	N	0.842782	0.075945	0.467457
	N259	N	0.842567	0.906101	0.542228
	N260	N	0.483028	0.168567	0.917967
	N261	N	0.556297	0.169166	0.090783
	N262	N	0.482173	0.810352	0.090712
	N263	N	0.556954	0.810142	0.918428
	N264	N	0.481888	0.904982	0.182050
	N265	N	0.557255	0.075234	0.181544
	N266	N	0.482093	0.072977	0.828142
	N267	N	0.557175	0.903863	0.826626
	N268	N	0.934278	0.168947	0.467981
	N269	N	0.106454	0.169494	0.541873
	N270	N	0.105681	0.812036	0.467195
	N271	N	0.933426	0.812462	0.541256
	N272	N	0.198305	0.452698	0.918794
	N273	N	0.199316	0.527033	0.090969
	N274	N	0.840766	0.452785	0.090043
	N275	N	0.840445	0.526603	0.917944
	O276	O	0.462000	0.529922	0.475173
	H277	H	0.462853	0.527451	0.469751
	H278	H	0.467376	0.528703	0.480335
	O279	O	-0.592029	0.486224	-0.547752
	H280	H	-0.598075	0.492212	-0.551523
	H281	H	-0.593871	0.503837	-0.540415
	O282	O	0.516735	0.546264	0.504008
	H283	H	0.519167	0.540740	0.512255
	H284	H	0.521375	0.531816	0.503778
	O285	O	-0.013088	1.026627	0.991185
	H286	H	-0.011728	1.020745	0.993252
	H287	H	-0.004490	1.034454	0.994837
	O288	O	1.017052	0.049418	-0.015779
	H289	H	1.009803	0.057696	-0.016594
	H290	H	1.002788	0.044747	-0.009757
	O291	O	-0.955015	1.047486	-0.984591
	H292	H	-0.954735	1.050927	-0.989886
	H293	H	-0.956934	1.049250	-0.979668
	O294	O	0.476332	0.568999	0.479602
	H295	H	0.479103	0.572663	0.484480
	H296	H	0.476775	0.569581	0.479232
	O297	O	0.026392	1.038476	0.021756
	H298	H	0.026450	1.045184	0.028385
	H299	H	0.032958	1.032883	0.006030
	O300	O	0.464798	0.517853	1.402516
	H301	H	0.462803	0.513287	1.408587
	H302	H	0.456678	0.526179	1.402090
	O303	O	0.502541	0.533769	0.493436
	H304	H	0.489708	0.528116	0.493796
	H305	H	0.504334	0.528172	0.484746
	O306	O	-0.023973	1.011570	0.974182
	H307	H	-0.021768	1.008025	0.972195
	H308	H	-0.022771	1.008472	0.972910
	O309	O	0.493654	0.496403	0.472161
	H310	H	0.477443	0.499003	0.458520
	H311	H	0.501593	0.498482	0.463659
