data_Molecule from HDF5

_cell_length_a		16.250998
_cell_length_b		16.248372
_cell_length_c		16.278845
_cell_angle_alpha	90.037718
_cell_angle_beta	89.839165
_cell_angle_gamma	89.907192
_symmetry_space_group_name_H-M	'P 1'
_symmetry_Int_Tables_number		1

loop_
	_symmetry_equiv_pos_as_xyz
	x,y,z

loop_
	_atom_site_label
	_atom_site_type_symbol
	_atom_site_fract_x
	_atom_site_fract_y
	_atom_site_fract_z
	H0	H	0.391034	0.831472	0.722732
	H1	H	0.586665	0.160501	0.720922
	H2	H	0.589510	0.831385	0.293387
	H3	H	0.391572	0.159200	0.294924
	H4	H	0.704045	0.398262	0.842911
	H5	H	0.703904	0.594103	0.171357
	H6	H	0.277823	0.593792	0.843164
	H7	H	0.274999	0.398452	0.170856
	H8	H	0.825475	0.709228	0.410989
	H9	H	0.154396	0.709266	0.603100
	H10	H	0.824913	0.285716	0.603569
	H11	H	0.154364	0.281887	0.407863
	H12	H	0.825918	0.399471	0.721176
	H13	H	0.154123	0.594535	0.720237
	H14	H	0.825896	0.594209	0.293936
	H15	H	0.154513	0.398128	0.291899
	H16	H	0.392189	0.711531	0.844495
	H17	H	0.586407	0.708955	0.172628
	H18	H	0.589581	0.281315	0.843613
	H19	H	0.391038	0.282678	0.171736
	H20	H	0.703990	0.831114	0.410703
	H21	H	0.702152	0.160246	0.605783
	H22	H	0.275830	0.831004	0.606304
	H23	H	0.276677	0.158937	0.411194
	H24	H	0.891657	0.331741	0.220745
	H25	H	0.088223	0.659833	0.219930
	H26	H	0.089286	0.332385	0.791975
	H27	H	0.892750	0.661188	0.794459
	H28	H	0.204964	0.897281	0.344017
	H29	H	0.202265	0.092819	0.672495
	H30	H	0.774874	0.094159	0.344403
	H31	H	0.776945	0.899513	0.672289
	H32	H	0.325073	0.208884	0.911564
	H33	H	0.654623	0.209467	0.104516
	H34	H	0.326014	0.783557	0.106237
	H35	H	0.653901	0.781704	0.909582
	H36	H	0.326225	0.899168	0.221419
	H37	H	0.653919	0.094862	0.222721
	H38	H	0.325616	0.094186	0.794128
	H39	H	0.653927	0.897654	0.792569
	H40	H	0.892087	0.209540	0.343127
	H41	H	0.086525	0.210294	0.671692
	H42	H	0.088001	0.782413	0.342762
	H43	H	0.891735	0.782247	0.671299
	H44	H	0.203933	0.331485	0.908871
	H45	H	0.203015	0.660087	0.103331
	H46	H	0.775784	0.332048	0.104970
	H47	H	0.776853	0.660991	0.910846
	H48	H	0.389925	0.116282	0.609815
	H49	H	0.582878	0.879122	0.599687
	H50	H	0.578167	0.109725	0.419891
	H51	H	0.396352	0.877571	0.414089
	H52	H	0.580720	0.399023	0.124734
	H53	H	0.573314	0.586969	0.895017
	H54	H	0.406570	0.599075	0.124748
	H55	H	0.396288	0.392008	0.886852
	H56	H	0.104569	0.584355	0.416960
	H57	H	0.869491	0.586925	0.615256
	H58	H	0.106757	0.399478	0.595673
	H59	H	0.873087	0.403201	0.413619
	H60	H	0.105244	0.408227	0.599276
	H61	H	0.870357	0.604222	0.596219
	H62	H	0.108979	0.588087	0.405872
	H63	H	0.873494	0.403718	0.414183
	H64	H	0.381944	0.594751	0.130061
	H65	H	0.584872	0.601877	0.887400
	H66	H	0.587890	0.404162	0.124585
	H67	H	0.389917	0.408449	0.890373
	H68	H	0.588937	0.113156	0.415839
	H69	H	0.585523	0.878251	0.601594
	H70	H	0.406498	0.109563	0.602099
	H71	H	0.396613	0.877974	0.414307
	H72	H	0.893014	0.616227	0.108034
	H73	H	0.079520	0.376933	0.111211
	H74	H	0.088024	0.617058	0.904221
	H75	H	0.900850	0.378945	0.908146
	H76	H	0.091095	0.895430	0.629018
	H77	H	0.081884	0.095963	0.389648
	H78	H	0.891356	0.091786	0.626101
	H79	H	0.891955	0.905842	0.390360
	H80	H	0.608489	0.095870	0.915509
	H81	H	0.374536	0.081429	0.106514
	H82	H	0.610689	0.893983	0.102297
	H83	H	0.371658	0.901853	0.910314
	H84	H	0.604473	0.905132	0.092306
	H85	H	0.368772	0.097518	0.109153
	H86	H	0.604665	0.085051	0.917216
	H87	H	0.373488	0.899736	0.918155
	H88	H	0.896604	0.087989	0.623233
	H89	H	0.090439	0.087216	0.389392
	H90	H	0.085795	0.913358	0.621842
	H91	H	0.900493	0.904369	0.391995
	H92	H	0.074337	0.609513	0.913947
	H93	H	0.074411	0.383575	0.091057
	H94	H	0.904383	0.610271	0.100606
	H95	H	0.900535	0.381113	0.917871
	H96	H	0.390280	0.110818	0.591100
	H97	H	0.582456	0.878367	0.603187
	H98	H	0.579866	0.113211	0.408807
	H99	H	0.397180	0.877305	0.413833
	H100	H	0.580400	0.407153	0.121678
	H101	H	0.592941	0.583108	0.889911
	H102	H	0.396746	0.576152	0.120688
	H103	H	0.406476	0.404905	0.894236
	H104	H	0.108618	0.595614	0.415161
	H105	H	0.878043	0.579353	0.591653
	H106	H	0.109095	0.401617	0.603942
	H107	H	0.873809	0.403728	0.413363
	H108	H	0.891715	0.612661	0.094116
	H109	H	0.094638	0.376459	0.095781
	H110	H	0.090222	0.612743	0.921302
	H111	H	0.892030	0.378230	0.913610
	H112	H	0.071979	0.897713	0.622242
	H113	H	0.079059	0.085414	0.393990
	H114	H	0.897951	0.094343	0.625568
	H115	H	0.895317	0.897928	0.388973
	H116	H	0.608859	0.087826	0.907029
	H117	H	0.374519	0.092530	0.093464
	H118	H	0.608098	0.909059	0.107299
	H119	H	0.374558	0.907570	0.915929
	C120	C	0.367649	0.003580	0.629639
	C121	C	0.611019	0.987353	0.629207
	C122	C	0.611414	0.003678	0.386480
	C123	C	0.368554	0.986390	0.386607
	C124	C	0.611627	0.374589	0.015375
	C125	C	0.611338	0.618152	0.999540
	C126	C	0.368221	0.617914	0.016306
	C127	C	0.368947	0.374379	0.998944
	C128	C	-0.001516	0.617631	0.385061
	C129	C	0.981307	0.618357	0.628622
	C130	C	-0.001576	0.375464	0.628198
	C131	C	0.981909	0.374643	0.384917
	C132	C	0.868399	0.504521	0.128846
	C133	C	0.111119	0.487385	0.127536
	C134	C	0.112850	0.504725	0.884622
	C135	C	0.869244	0.488065	0.885646
	C136	C	0.110987	0.874221	0.515794
	C137	C	0.111173	0.117605	0.499616
	C138	C	0.867584	0.118737	0.516210
	C139	C	0.868122	0.874720	0.499243
	C140	C	0.498206	0.117213	0.886249
	C141	C	0.481597	0.118228	0.130275
	C142	C	0.498928	0.874945	0.129072
	C143	C	0.481702	0.874793	0.886224
	C144	C	0.370742	0.880254	0.684537
	C145	C	0.607597	0.111194	0.683681
	C146	C	0.609899	0.880182	0.331342
	C147	C	0.371310	0.110091	0.332456
	C148	C	0.666593	0.377347	0.892055
	C149	C	0.665946	0.614708	0.122760
	C150	C	0.314956	0.614776	0.892387
	C151	C	0.313281	0.377769	0.122191
	C152	C	0.874720	0.671954	0.389432
	C153	C	0.105163	0.672376	0.624694
	C154	C	0.874313	0.322046	0.624878
	C155	C	0.105253	0.319247	0.387104
	C156	C	0.874764	0.378640	0.683341
	C157	C	0.105145	0.615295	0.682582
	C158	C	0.874831	0.614933	0.331196
	C159	C	0.105480	0.376981	0.329722
	C160	C	0.371875	0.672960	0.893016
	C161	C	0.607419	0.671578	0.123411
	C162	C	0.609466	0.319450	0.892353
	C163	C	0.370979	0.320231	0.122687
	C164	C	0.666620	0.880164	0.389846
	C165	C	0.664751	0.111154	0.626313
	C166	C	0.313655	0.879830	0.626741
	C167	C	0.314074	0.109945	0.390225
	C168	C	0.871311	0.380634	0.182843
	C169	C	0.108498	0.610937	0.182346
	C170	C	0.109897	0.381351	0.829540
	C171	C	0.871901	0.612051	0.831888
	C172	C	0.166344	0.877185	0.392406
	C173	C	0.165257	0.114057	0.623324
	C174	C	0.812973	0.115034	0.392982
	C175	C	0.814034	0.878243	0.623059
	C176	C	0.374297	0.171278	0.890509
	C177	C	0.605564	0.171982	0.125929
	C178	C	0.374890	0.820916	0.126384
	C179	C	0.605277	0.819905	0.889002
	C180	C	0.374888	0.878537	0.183438
	C181	C	0.605121	0.115217	0.184753
	C182	C	0.374417	0.114561	0.832187
	C183	C	0.605180	0.877543	0.830972
	C184	C	0.871254	0.172268	0.392384
	C185	C	0.107807	0.172501	0.622947
	C186	C	0.108565	0.819910	0.391822
	C187	C	0.871108	0.820028	0.622643
	C188	C	0.166913	0.380939	0.887586
	C189	C	0.165127	0.611274	0.124109
	C190	C	0.813804	0.380719	0.125289
	C191	C	0.814062	0.611792	0.889224
	C192	C	0.389272	0.089918	0.607506
	C193	C	0.589831	0.900758	0.607857
	C194	C	0.589000	0.089758	0.408282
	C195	C	0.390403	0.899930	0.407685
	C196	C	0.589490	0.396897	0.101470
	C197	C	0.589990	0.596965	0.912954
	C198	C	0.388876	0.596342	0.102762
	C199	C	0.391003	0.395481	0.912775
	C200	C	0.085127	0.595758	0.406296
	C201	C	0.894796	0.596478	0.607293
	C202	C	0.084735	0.396828	0.606185
	C203	C	0.895751	0.396886	0.407109
	C204	C	0.889992	0.590750	0.107438
	C205	C	0.089347	0.401281	0.105824
	C206	C	0.090974	0.590870	0.906708
	C207	C	0.891272	0.401846	0.906909
	C208	C	0.089233	0.895623	0.602041
	C209	C	0.090016	0.095981	0.413420
	C210	C	0.889100	0.097652	0.602617
	C211	C	0.889602	0.896279	0.412779
	C212	C	0.584720	0.095897	0.906978
	C213	C	0.395064	0.096889	0.109164
	C214	C	0.585410	0.896387	0.107157
	C215	C	0.395403	0.896652	0.908221
	Zn216	Zn	0.489623	-0.003788	0.757091
	Zn217	Zn	0.490278	-0.004838	0.258084
	Zn218	Zn	0.740217	0.496029	0.006863
	Zn219	Zn	0.240591	0.495916	0.006853
	Zn220	Zn	-0.010059	0.746102	0.506787
	Zn221	Zn	-0.009969	0.246774	0.507391
	Zn222	Zn	-0.009697	0.496957	0.756353
	Zn223	Zn	-0.009954	0.496085	0.256643
	Zn224	Zn	0.489683	0.746773	0.008467
	Zn225	Zn	0.490227	0.246090	0.007940
	Zn226	Zn	0.739584	-0.004037	0.508506
	Zn227	Zn	0.239481	-0.005155	0.508037
	N228	N	0.403844	0.958232	0.686221
	N229	N	0.574616	0.033190	0.685386
	N230	N	0.576128	0.957792	0.329458
	N231	N	0.404526	0.032204	0.329982
	N232	N	0.668058	0.411111	0.969596
	N233	N	0.668138	0.581945	0.044788
	N234	N	0.312926	0.580943	0.969868
	N235	N	0.311931	0.410723	0.044195
	N236	N	0.952660	0.673548	0.422426
	N237	N	0.027059	0.674450	0.591954
	N238	N	0.952063	0.319898	0.591379
	N239	N	0.027425	0.317807	0.420805
	N240	N	0.952917	0.411171	0.685477
	N241	N	0.027042	0.582639	0.685011
	N242	N	0.952866	0.582039	0.328345
	N243	N	0.027911	0.410988	0.328452
	N244	N	0.404163	0.675070	0.971066
	N245	N	0.574531	0.674079	0.045581
	N246	N	0.575951	0.317692	0.970164
	N247	N	0.404818	0.318121	0.045143
	N248	N	0.667755	0.958062	0.423391
	N249	N	0.667114	0.033290	0.593254
	N250	N	0.311530	0.957615	0.593366
	N251	N	0.312419	0.032136	0.423369
	N252	N	0.904366	0.458539	0.185257
	N253	N	0.075296	0.532996	0.184232
	N254	N	0.076584	0.459338	0.827686
	N255	N	0.905585	0.534267	0.829500
	N256	N	0.167771	0.910185	0.470292
	N257	N	0.167416	0.080678	0.545582
	N258	N	0.810465	0.082591	0.470973
	N259	N	0.812282	0.911538	0.545365
	N260	N	0.452305	0.173080	0.923501
	N261	N	0.527662	0.174221	0.093320
	N262	N	0.453008	0.818812	0.093323
	N263	N	0.527578	0.818102	0.922619
	N264	N	0.452890	0.911405	0.185160
	N265	N	0.526973	0.082438	0.187521
	N266	N	0.452344	0.081731	0.829483
	N267	N	0.527371	0.911044	0.829353
	N268	N	0.904270	0.174717	0.470209
	N269	N	0.075202	0.174837	0.545157
	N270	N	0.074675	0.818144	0.469413
	N271	N	0.904196	0.817873	0.544802
	N272	N	0.168962	0.458718	0.920822
	N273	N	0.167142	0.533507	0.090940
	N274	N	0.811998	0.458591	0.092333
	N275	N	0.812673	0.533821	0.922263
	O276	O	1.505286	0.393411	0.500222
	H277	H	1.514295	0.380951	0.506760
	H278	H	1.499860	0.388723	0.497452
	O279	O	0.516233	0.379614	0.511243
	H280	H	0.509892	0.387592	0.510403
	H281	H	0.519264	0.376391	0.509075
	O282	O	1.492706	1.404036	-0.498451
	H283	H	1.491673	1.401671	-0.505018
	H284	H	1.494631	1.406072	-0.495398
	O285	O	0.518931	0.362027	0.507172
	H286	H	0.513041	0.362777	0.500048
	H287	H	0.527498	0.356054	0.517462
