data_Molecule from HDF5

_cell_length_a		16.440766
_cell_length_b		16.517059
_cell_length_c		16.290195
_cell_angle_alpha	89.951196
_cell_angle_beta	90.002471
_cell_angle_gamma	89.772618
_symmetry_space_group_name_H-M	'P 1'
_symmetry_Int_Tables_number		1

loop_
	_symmetry_equiv_pos_as_xyz
	x,y,z

loop_
	_atom_site_label
	_atom_site_type_symbol
	_atom_site_fract_x
	_atom_site_fract_y
	_atom_site_fract_z
	H0	H	0.397985	0.844592	0.712794
	H1	H	0.604342	0.160462	0.713225
	H2	H	0.609942	0.845701	0.268324
	H3	H	0.393014	0.158683	0.268692
	H4	H	0.722644	0.397878	0.835843
	H5	H	0.721123	0.608726	0.153757
	H6	H	0.279881	0.606856	0.835200
	H7	H	0.279202	0.394452	0.152785
	H8	H	0.843815	0.727241	0.384862
	H9	H	0.156817	0.724550	0.603679
	H10	H	0.843995	0.279708	0.603263
	H11	H	0.156753	0.277419	0.386918
	H12	H	0.842831	0.398070	0.716554
	H13	H	0.159550	0.603003	0.713858
	H14	H	0.841780	0.607935	0.272540
	H15	H	0.158775	0.396303	0.273608
	H16	H	0.395580	0.721304	0.833604
	H17	H	0.608251	0.726544	0.151720
	H18	H	0.609311	0.281143	0.835161
	H19	H	0.389068	0.274772	0.148739
	H20	H	0.728506	0.847660	0.382253
	H21	H	0.722693	0.158764	0.599905
	H22	H	0.278098	0.845687	0.600550
	H23	H	0.271742	0.155972	0.380193
	H24	H	0.895249	0.345029	0.217125
	H25	H	0.107938	0.658707	0.219113
	H26	H	0.107974	0.344034	0.772434
	H27	H	0.897146	0.660113	0.773564
	H28	H	0.223315	0.893061	0.334617
	H29	H	0.223970	0.109011	0.651527
	H30	H	0.778070	0.110420	0.335671
	H31	H	0.778967	0.896091	0.652086
	H32	H	0.344872	0.230995	0.879546
	H33	H	0.656156	0.227536	0.102015
	H34	H	0.343068	0.779518	0.101069
	H35	H	0.657041	0.777178	0.882333
	H36	H	0.343178	0.895919	0.216041
	H37	H	0.657344	0.109794	0.216411
	H38	H	0.341276	0.108249	0.770829
	H39	H	0.659206	0.898924	0.771934
	H40	H	0.889976	0.228474	0.338131
	H41	H	0.108519	0.222880	0.652623
	H42	H	0.111455	0.774889	0.336474
	H43	H	0.894884	0.781135	0.652691
	H44	H	0.226238	0.345782	0.886892
	H45	H	0.226028	0.657580	0.105893
	H46	H	0.774405	0.347156	0.105405
	H47	H	0.778509	0.659758	0.888092
	H48	H	0.410403	0.116023	0.582544
	H49	H	0.587689	0.888386	0.586559
	H50	H	0.584673	0.112501	0.405287
	H51	H	0.413827	0.891547	0.407579
	H52	H	0.583384	0.412741	0.107358
	H53	H	0.588355	0.586902	0.882096
	H54	H	0.418107	0.592937	0.106888
	H55	H	0.411950	0.418758	0.880425
	H56	H	0.108998	0.585977	0.412355
	H57	H	0.884424	0.596271	0.586357
	H58	H	0.112976	0.415113	0.583217
	H59	H	0.886687	0.416594	0.402966
	H60	H	0.116228	0.409513	0.586806
	H61	H	0.888144	0.593295	0.576393
	H62	H	0.113473	0.586430	0.403599
	H63	H	0.886557	0.408555	0.409628
	H64	H	0.409898	0.595514	0.110692
	H65	H	0.585906	0.595649	0.878876
	H66	H	0.589096	0.413953	0.108928
	H67	H	0.417112	0.418861	0.882220
	H68	H	0.590513	0.113357	0.409128
	H69	H	0.587232	0.891986	0.575688
	H70	H	0.412430	0.113713	0.579163
	H71	H	0.411896	0.889820	0.405511
	H72	H	0.906108	0.617550	0.086894
	H73	H	0.083050	0.392701	0.082375
	H74	H	0.088616	0.614968	0.902339
	H75	H	0.903928	0.385908	0.903859
	H76	H	0.093225	0.909522	0.609672
	H77	H	0.086414	0.090774	0.379734
	H78	H	0.921129	0.090624	0.605247
	H79	H	0.914824	0.909591	0.377943
	H80	H	0.611488	0.086963	0.903689
	H81	H	0.388921	0.089779	0.076817
	H82	H	0.612031	0.909692	0.073417
	H83	H	0.389537	0.914359	0.908121
	H84	H	0.611169	0.919290	0.079915
	H85	H	0.389985	0.087996	0.075990
	H86	H	0.613761	0.094073	0.902026
	H87	H	0.386676	0.915665	0.899157
	H88	H	0.908116	0.096719	0.612369
	H89	H	0.086322	0.086167	0.381777
	H90	H	0.090632	0.917122	0.606149
	H91	H	0.911143	0.917607	0.379750
	H92	H	0.087274	0.612092	0.909566
	H93	H	0.095054	0.391306	0.075558
	H94	H	0.917692	0.613306	0.085684
	H95	H	0.918834	0.390732	0.902022
	H96	H	0.407733	0.116006	0.578395
	H97	H	0.596959	0.887630	0.580147
	H98	H	0.590057	0.115576	0.402340
	H99	H	0.414921	0.890604	0.404201
	H100	H	0.585614	0.418252	0.105907
	H101	H	0.594891	0.591880	0.877412
	H102	H	0.411186	0.587383	0.107451
	H103	H	0.415301	0.414304	0.880198
	H104	H	0.113585	0.593832	0.409479
	H105	H	0.887902	0.585906	0.585058
	H106	H	0.114231	0.409119	0.579919
	H107	H	0.890721	0.417693	0.412632
	H108	H	0.909884	0.613004	0.076260
	H109	H	0.093801	0.387034	0.088825
	H110	H	0.093997	0.615388	0.907627
	H111	H	0.911647	0.391956	0.916040
	H112	H	0.085099	0.910477	0.606925
	H113	H	0.082527	0.088749	0.381541
	H114	H	0.907871	0.082146	0.606739
	H115	H	0.919334	0.916172	0.382279
	H116	H	0.611683	0.092842	0.909469
	H117	H	0.389855	0.088425	0.077924
	H118	H	0.616186	0.909989	0.084638
	H119	H	0.385430	0.906970	0.903391
	C120	C	0.378479	0.011130	0.613658
	C121	C	0.622367	0.993397	0.613775
	C122	C	0.623239	0.011032	0.370920
	C123	C	0.378869	0.993560	0.371003
	C124	C	0.620941	0.381796	0.002878
	C125	C	0.621870	0.624167	0.984877
	C126	C	0.379794	0.624180	0.002989
	C127	C	0.380249	0.381790	0.984894
	C128	C	0.008815	0.623274	0.373371
	C129	C	0.991444	0.623093	0.615752
	C130	C	0.010448	0.379162	0.616865
	C131	C	0.991495	0.380479	0.374220
	C132	C	0.878428	0.510918	0.116409
	C133	C	0.123290	0.493557	0.116518
	C134	C	0.123396	0.510279	0.873170
	C135	C	0.879265	0.493885	0.873876
	C136	C	0.122867	0.878993	0.502614
	C137	C	0.119772	0.121597	0.485406
	C138	C	0.878990	0.123855	0.503338
	C139	C	0.880794	0.881598	0.484959
	C140	C	0.508652	0.124835	0.870580
	C141	C	0.492470	0.122919	0.112187
	C142	C	0.509090	0.880555	0.113517
	C143	C	0.491808	0.880525	0.870998
	C144	C	0.378183	0.892192	0.673565
	C145	C	0.623512	0.112667	0.673689
	C146	C	0.627468	0.893075	0.308897
	C147	C	0.374686	0.111195	0.308654
	C148	C	0.682723	0.379381	0.883665
	C149	C	0.681641	0.627099	0.105468
	C150	C	0.319419	0.625835	0.883186
	C151	C	0.318774	0.376881	0.104146
	C152	C	0.890741	0.685891	0.368024
	C153	C	0.110008	0.683439	0.619957
	C154	C	0.891261	0.319578	0.620774
	C155	C	0.110018	0.318440	0.369730
	C156	C	0.890859	0.378269	0.677253
	C157	C	0.111247	0.623085	0.675080
	C158	C	0.889876	0.626468	0.312024
	C159	C	0.110799	0.377749	0.313265
	C160	C	0.377122	0.682787	0.882220
	C161	C	0.625353	0.685692	0.104360
	C162	C	0.626134	0.321082	0.883293
	C163	C	0.373610	0.317143	0.102449
	C164	C	0.686584	0.893961	0.365711
	C165	C	0.682774	0.111622	0.617415
	C166	C	0.318583	0.892839	0.617624
	C167	C	0.314275	0.109633	0.364194
	C168	C	0.876175	0.392389	0.177178
	C169	C	0.126068	0.611407	0.178610
	C170	C	0.125922	0.391822	0.812595
	C171	C	0.877915	0.612575	0.813310
	C172	C	0.183728	0.875433	0.382797
	C173	C	0.182920	0.125856	0.603895
	C174	C	0.818042	0.128084	0.383684
	C175	C	0.819422	0.878643	0.604425
	C176	C	0.391332	0.188447	0.864367
	C177	C	0.609782	0.185808	0.118311
	C178	C	0.390720	0.819623	0.118340
	C179	C	0.610264	0.819077	0.866492
	C180	C	0.390598	0.877893	0.175552
	C181	C	0.610268	0.127293	0.175325
	C182	C	0.389604	0.127466	0.809494
	C183	C	0.611363	0.879231	0.810934
	C184	C	0.873946	0.186697	0.384747
	C185	C	0.125202	0.183014	0.604593
	C186	C	0.127876	0.816319	0.383900
	C187	C	0.877121	0.821376	0.604928
	C188	C	0.185227	0.392655	0.869390
	C189	C	0.185156	0.610838	0.122006
	C190	C	0.815962	0.393705	0.121720
	C191	C	0.818855	0.612465	0.870507
	C192	C	0.403153	0.093776	0.587494
	C193	C	0.597706	0.911042	0.588237
	C194	C	0.596154	0.092443	0.397654
	C195	C	0.405843	0.911941	0.398132
	C196	C	0.593801	0.407575	0.085719
	C197	C	0.597032	0.598875	0.901446
	C198	C	0.405645	0.599256	0.086833
	C199	C	0.407026	0.409398	0.902426
	C200	C	0.090585	0.596717	0.400670
	C201	C	0.908589	0.598782	0.590045
	C202	C	0.092819	0.403872	0.590687
	C203	C	0.909421	0.406717	0.400637
	C204	C	0.903954	0.593232	0.090437
	C205	C	0.097886	0.411696	0.089913
	C206	C	0.097420	0.592783	0.899303
	C207	C	0.904160	0.411261	0.899784
	C208	C	0.097038	0.904959	0.585768
	C209	C	0.092751	0.095754	0.402576
	C210	C	0.904936	0.097390	0.586533
	C211	C	0.907359	0.907096	0.401626
	C212	C	0.590938	0.098577	0.897358
	C213	C	0.411047	0.096340	0.084695
	C214	C	0.591610	0.905653	0.087009
	C215	C	0.408890	0.905397	0.896324
	Zn216	Zn	0.500405	0.002439	0.742120
	Zn217	Zn	0.501088	0.002457	0.242003
	Zn218	Zn	0.749198	0.502871	-0.004803
	Zn219	Zn	0.252280	0.502595	-0.005274
	Zn220	Zn	0.000153	0.752487	0.494168
	Zn221	Zn	-0.000078	0.250842	0.494856
	Zn222	Zn	0.001161	0.501340	0.744455
	Zn223	Zn	0.000635	0.501681	0.244792
	Zn224	Zn	0.500651	0.751861	-0.007598
	Zn225	Zn	0.500626	0.253294	-0.007246
	Zn226	Zn	0.751867	0.002213	0.493113
	Zn227	Zn	0.249359	0.001631	0.492843
	N228	N	0.414406	0.967058	0.671470
	N229	N	0.586707	0.038130	0.671811
	N230	N	0.588466	0.966733	0.312147
	N231	N	0.414213	0.037790	0.312611
	N232	N	0.679675	0.416362	0.959128
	N233	N	0.679499	0.589550	0.030357
	N234	N	0.320827	0.590333	0.959561
	N235	N	0.322854	0.416499	0.029968
	N236	N	0.965892	0.684401	0.405115
	N237	N	0.034459	0.683730	0.583742
	N238	N	0.966562	0.319809	0.583991
	N239	N	0.034979	0.319897	0.406677
	N240	N	0.965840	0.414437	0.675291
	N241	N	0.036603	0.586334	0.672641
	N242	N	0.964146	0.588082	0.315246
	N243	N	0.036219	0.415414	0.315666
	N244	N	0.413762	0.681902	0.958033
	N245	N	0.588814	0.684089	0.028405
	N246	N	0.588447	0.322495	0.958524
	N247	N	0.411133	0.319996	0.027154
	N248	N	0.684228	0.968217	0.403342
	N249	N	0.682296	0.036554	0.581088
	N250	N	0.318435	0.968012	0.581502
	N251	N	0.316499	0.035267	0.401908
	N252	N	0.914251	0.466300	0.174201
	N253	N	0.088419	0.537512	0.175401
	N254	N	0.088048	0.466133	0.814850
	N255	N	0.914747	0.537699	0.815211
	N256	N	0.180670	0.913706	0.457645
	N257	N	0.179637	0.088242	0.528715
	N258	N	0.821271	0.089440	0.458311
	N259	N	0.821682	0.915423	0.528703
	N260	N	0.466459	0.187020	0.901404
	N261	N	0.535470	0.183322	0.079896
	N262	N	0.465630	0.820856	0.080801
	N263	N	0.534889	0.819759	0.903032
	N264	N	0.465296	0.914932	0.172869
	N265	N	0.536550	0.088555	0.171458
	N266	N	0.463623	0.088540	0.813227
	N267	N	0.536887	0.916970	0.813759
	N268	N	0.911125	0.184077	0.460180
	N269	N	0.086714	0.180680	0.529718
	N270	N	0.090483	0.818318	0.459338
	N271	N	0.914614	0.823328	0.529585
	N272	N	0.183418	0.467343	0.906458
	N273	N	0.183872	0.536492	0.084052
	N274	N	0.817113	0.468585	0.084916
	N275	N	0.819626	0.537626	0.907509
	O276	O	0.493819	0.339320	0.709080
	H277	H	0.473667	0.332079	0.712776
	H278	H	0.475082	0.329879	0.716821
	O279	O	0.803319	-0.203295	0.996622
	H280	H	0.774606	-0.218687	0.995610
	H281	H	0.819798	-0.194174	0.982078
	O282	O	0.683551	0.297874	0.460686
	H283	H	0.684287	0.330892	0.450703
	H284	H	0.708687	0.273464	0.448630
	O285	O	0.464897	0.548599	0.422316
	H286	H	0.472187	0.556953	0.426474
	H287	H	0.462100	0.559831	0.437717
	O288	O	0.495442	0.288274	0.494371
	H289	H	0.494645	0.288400	0.522017
	H290	H	0.522755	0.281845	0.501898
	O291	O	0.464457	0.575805	0.682567
	H292	H	0.477439	0.552120	0.697717
	H293	H	0.474750	0.595186	0.667036
	O294	O	0.177250	0.020787	0.796818
	H295	H	0.182110	0.017429	0.780890
	H296	H	0.150685	0.022034	0.788405
	O297	O	0.710210	0.538176	0.456932
	H298	H	0.715740	0.543655	0.443457
	H299	H	0.698100	0.567684	0.455608
	O300	O	0.614242	0.706954	0.429730
	H301	H	0.595522	0.726376	0.414216
	H302	H	0.601956	0.715964	0.452491
	O303	O	0.381522	0.533270	0.307184
	H304	H	0.396873	0.524813	0.301255
	H305	H	0.368556	0.543566	0.290671
	O306	O	0.706901	0.470702	0.302481
	H307	H	0.710481	0.470229	0.292301
	H308	H	0.702433	0.489645	0.296122
	O309	O	0.297301	0.292258	0.551013
	H310	H	0.282287	0.290055	0.527703
	H311	H	0.308239	0.288266	0.544618
	O312	O	-0.047811	0.831912	0.840583
	H313	H	-0.027321	0.827732	0.835430
	H314	H	-0.042369	0.838322	0.837813
	O315	O	0.369777	0.319395	0.683097
	H316	H	0.359966	0.349066	0.691197
	H317	H	0.373282	0.319704	0.649729
	O318	O	1.149665	0.001684	0.148174
	H319	H	1.135840	-0.015250	0.143110
	H320	H	1.147499	0.015136	0.166546
	O321	O	-0.211712	0.027625	-0.213898
	H322	H	-0.236239	0.026240	-0.223167
	H323	H	-0.208512	0.023653	-0.205338
	O324	O	0.369789	0.686954	0.625232
	H325	H	0.351511	0.688007	0.645976
	H326	H	0.390184	0.679468	0.630090
	O327	O	0.629443	0.364044	0.351111
	H328	H	0.595109	0.353876	0.346265
	H329	H	0.631199	0.391272	0.353209
	O330	O	-0.177788	0.819671	0.149709
	H331	H	-0.176596	0.815045	0.126734
	H332	H	-0.194088	0.852429	0.152599
	O333	O	0.558075	0.529455	0.380683
	H334	H	0.553753	0.527635	0.390431
	H335	H	0.556446	0.559209	0.377255
	O336	O	0.051781	0.214875	-0.065111
	H337	H	0.062701	0.221162	-0.041766
	H338	H	0.048537	0.205273	-0.039092
	O339	O	0.121282	0.959277	1.066770
	H340	H	0.115503	0.951739	1.073529
	H341	H	0.117116	0.931682	1.065649
	O342	O	-0.036580	0.786712	1.208962
	H343	H	-0.041763	0.761146	1.237319
	H344	H	-0.059912	0.799563	1.205371
	O345	O	1.022040	1.217984	0.213292
	H346	H	1.042808	1.228874	0.230440
	H347	H	1.059463	1.226732	0.219588
	O348	O	0.308900	0.699035	0.429387
	H349	H	0.300986	0.682198	0.448579
	H350	H	0.295156	0.709552	0.447976
	O351	O	-0.096864	1.194259	1.099612
	H352	H	-0.090574	1.194793	1.113595
	H353	H	-0.105577	1.198606	1.107899
	O354	O	0.190704	0.808556	-0.198233
	H355	H	0.187516	0.800980	-0.157404
	H356	H	0.195619	0.843671	-0.193088
	O357	O	0.211428	0.175114	0.995107
	H358	H	0.227296	0.150443	0.982814
	H359	H	0.226279	0.181105	0.991810
	O360	O	0.672390	0.593571	0.642881
	H361	H	0.667379	0.599755	0.648456
	H362	H	0.676178	0.564988	0.639464
	O363	O	-0.251919	0.314137	0.680157
	H364	H	-0.235925	0.325827	0.678237
	H365	H	-0.234591	0.311973	0.688772
	O366	O	0.083280	1.019975	0.186495
	H367	H	0.083810	1.004629	0.188592
	H368	H	0.071252	1.028629	0.188205
	O369	O	0.450359	0.715318	0.285455
	H370	H	0.430020	0.721538	0.265137
	H371	H	0.422732	0.719194	0.298225
	O372	O	0.889304	-0.025038	1.078353
	H373	H	0.897394	-0.022173	1.085623
	H374	H	0.877908	-0.007142	1.066080
	O375	O	0.598156	0.641394	0.691319
	H376	H	0.606091	0.622681	0.677965
	H377	H	0.592782	0.646302	0.706929
	O378	O	1.185013	1.189262	1.146364
	H379	H	1.192139	1.194022	1.098349
	H380	H	1.199869	1.159393	1.154137
	O381	O	0.505510	0.510998	0.698732
	H382	H	0.513968	0.487463	0.701234
	H383	H	0.509318	0.495645	0.695941
	O384	O	0.786337	0.094638	0.114657
	H385	H	0.787969	0.081855	0.118212
	H386	H	0.794990	0.117298	0.119289
	O387	O	0.059291	-0.202578	1.050658
	H388	H	0.041742	-0.199327	1.056684
	H389	H	0.030120	-0.208234	1.053155
	O390	O	0.161762	0.030278	-0.029453
	H391	H	0.149087	0.012458	-0.019893
	H392	H	0.169497	0.012118	-0.043605
	O393	O	0.964191	0.903272	1.039854
	H394	H	0.971384	0.914185	1.030488
	H395	H	0.954199	0.906017	1.030644
	O396	O	0.873777	0.016325	0.019297
	H397	H	0.872086	0.008928	0.025472
	H398	H	0.872775	0.033675	0.008877
	O399	O	1.019006	0.145709	0.781832
	H400	H	1.019637	0.165626	0.789195
	H401	H	1.020218	0.158967	0.785827
	O402	O	1.102064	0.890778	0.876800
	H403	H	1.113018	0.895631	0.885823
	H404	H	1.108750	0.872965	0.864712
	O405	O	0.888316	1.195751	-0.196805
	H406	H	0.911340	1.185529	-0.188161
	H407	H	0.906771	1.197515	-0.219128
	O408	O	0.787407	-0.020157	0.202954
	H409	H	0.797033	0.005095	0.199758
	H410	H	0.771462	-0.019698	0.230284
	O411	O	1.354541	1.481022	0.500086
	H412	H	1.357316	1.492003	0.505465
	H413	H	1.368689	1.470411	0.501278
	O414	O	0.530151	0.328974	0.286329
	H415	H	0.535411	0.305442	0.269612
	H416	H	0.519551	0.344505	0.298932
	O417	O	0.285996	0.359535	0.343564
	H418	H	0.292066	0.350869	0.335163
	H419	H	0.300642	0.369691	0.325423
	O420	O	0.525598	0.710225	0.480569
	H421	H	0.506137	0.712028	0.486344
	H422	H	0.504699	0.708724	0.478864
	O423	O	0.695271	0.445822	0.678338
	H424	H	0.715130	0.432464	0.700812
	H425	H	0.691390	0.451246	0.653213
	O426	O	0.444949	0.308897	0.507281
	H427	H	0.436869	0.304351	0.513573
	H428	H	0.483840	0.306923	0.513778
	O429	O	0.372076	0.471070	0.288894
	H430	H	0.395155	0.480540	0.289622
	H431	H	0.376261	0.452012	0.287402
	O432	O	0.618341	0.598588	0.517570
	H433	H	0.619865	0.593535	0.512472
	H434	H	0.635744	0.623974	0.526048
	O435	O	-0.212940	0.216486	0.972218
	H436	H	-0.209351	0.215818	0.947054
	H437	H	-0.221904	0.238901	0.969264
	O438	O	0.218412	-0.215490	-0.030866
	H439	H	0.212639	-0.230184	-0.012479
	H440	H	0.226692	-0.232904	-0.016540
	O441	O	0.964492	0.067331	-0.094550
	H442	H	0.961239	0.064623	-0.099219
	H443	H	0.964554	0.062712	-0.087870
	O444	O	0.026128	0.964993	0.934997
	H445	H	0.038015	0.971285	0.942044
	H446	H	0.024421	0.974995	0.929568
	O447	O	0.968302	-0.070049	0.861493
	H448	H	0.967900	-0.056325	0.861278
	H449	H	0.974670	-0.060080	0.844896
	O450	O	0.351074	0.695884	0.420996
	H451	H	0.348184	0.665494	0.422633
	H452	H	0.343773	0.710784	0.457504
	O453	O	0.294375	0.521422	0.635074
	H454	H	0.289703	0.496508	0.606203
	H455	H	0.313180	0.514931	0.650667
