data_Molecule from HDF5

_cell_length_a		16.289363
_cell_length_b		16.282578
_cell_length_c		16.111931
_cell_angle_alpha	90.043908
_cell_angle_beta	90.187483
_cell_angle_gamma	90.075185
_symmetry_space_group_name_H-M	'P 1'
_symmetry_Int_Tables_number		1

loop_
	_symmetry_equiv_pos_as_xyz
	x,y,z

loop_
	_atom_site_label
	_atom_site_type_symbol
	_atom_site_fract_x
	_atom_site_fract_y
	_atom_site_fract_z
	H0	H	0.401928	0.853954	0.714730
	H1	H	0.597283	0.182643	0.714475
	H2	H	0.594999	0.854049	0.288832
	H3	H	0.401957	0.182184	0.288380
	H4	H	0.712899	0.420027	0.835125
	H5	H	0.715997	0.618168	0.165672
	H6	H	0.285877	0.617442	0.834992
	H7	H	0.286428	0.420173	0.165504
	H8	H	0.836279	0.733187	0.399052
	H9	H	0.163192	0.734632	0.600122
	H10	H	0.836720	0.303079	0.600648
	H11	H	0.162403	0.301643	0.398344
	H12	H	0.836391	0.421312	0.713142
	H13	H	0.164144	0.617763	0.714289
	H14	H	0.835481	0.614054	0.286193
	H15	H	0.164027	0.421859	0.287580
	H16	H	0.400193	0.734352	0.836443
	H17	H	0.597956	0.731393	0.166982
	H18	H	0.598159	0.304239	0.836218
	H19	H	0.402718	0.307187	0.166544
	H20	H	0.714084	0.855118	0.401424
	H21	H	0.716114	0.181199	0.602950
	H22	H	0.283424	0.854990	0.601333
	H23	H	0.283508	0.181319	0.399609
	H24	H	0.903248	0.354577	0.212269
	H25	H	0.097891	0.682655	0.213723
	H26	H	0.097812	0.354987	0.785635
	H27	H	0.904111	0.683000	0.787292
	H28	H	0.212963	0.920063	0.335962
	H29	H	0.215259	0.117980	0.665375
	H30	H	0.784209	0.116886	0.337021
	H31	H	0.787449	0.920352	0.666772
	H32	H	0.335782	0.234551	0.901630
	H33	H	0.663376	0.234683	0.102767
	H34	H	0.337226	0.801945	0.102081
	H35	H	0.663511	0.804509	0.902368
	H36	H	0.334426	0.922684	0.212039
	H37	H	0.663805	0.115307	0.215568
	H38	H	0.335479	0.115989	0.785900
	H39	H	0.663698	0.922506	0.788704
	H40	H	0.899837	0.231242	0.335382
	H41	H	0.099632	0.233953	0.665257
	H42	H	0.096740	0.806410	0.334909
	H43	H	0.901269	0.803807	0.665269
	H44	H	0.215285	0.355071	0.898995
	H45	H	0.214756	0.682370	0.099405
	H46	H	0.785894	0.355606	0.099635
	H47	H	0.783418	0.681350	0.897850
	H48	H	0.401190	0.135748	0.590603
	H49	H	0.594763	0.901714	0.591899
	H50	H	0.596614	0.136184	0.412563
	H51	H	0.414206	0.906645	0.417224
	H52	H	0.597421	0.425901	0.120241
	H53	H	0.591595	0.611197	0.883677
	H54	H	0.406234	0.616250	0.121100
	H55	H	0.408896	0.418005	0.880558
	H56	H	0.116270	0.612045	0.408612
	H57	H	0.887404	0.610353	0.582939
	H58	H	0.113911	0.427254	0.585663
	H59	H	0.881690	0.422899	0.404034
	H60	H	0.116375	0.430629	0.594816
	H61	H	0.883610	0.604736	0.598777
	H62	H	0.117390	0.613906	0.405703
	H63	H	0.882886	0.422276	0.408551
	H64	H	0.403258	0.606378	0.119160
	H65	H	0.591740	0.612898	0.883253
	H66	H	0.593414	0.430082	0.117918
	H67	H	0.400429	0.432020	0.882245
	H68	H	0.593208	0.135706	0.405202
	H69	H	0.594912	0.899955	0.595173
	H70	H	0.408437	0.135254	0.598035
	H71	H	0.391509	0.898618	0.412356
	H72	H	0.908070	0.636234	0.095709
	H73	H	0.085956	0.400246	0.105452
	H74	H	0.092361	0.632049	0.918335
	H75	H	0.910753	0.401968	0.899662
	H76	H	0.096960	0.925091	0.620105
	H77	H	0.098519	0.117464	0.379199
	H78	H	0.911773	0.120009	0.621235
	H79	H	0.903374	0.926347	0.381738
	H80	H	0.613638	0.110110	0.912259
	H81	H	0.380665	0.119094	0.098898
	H82	H	0.620354	0.915445	0.097429
	H83	H	0.384187	0.926683	0.910870
	H84	H	0.613775	0.927126	0.085892
	H85	H	0.384096	0.115380	0.088281
	H86	H	0.616539	0.111392	0.904387
	H87	H	0.382539	0.926580	0.905792
	H88	H	0.898411	0.110453	0.621083
	H89	H	0.094093	0.101223	0.384522
	H90	H	0.090685	0.931851	0.616093
	H91	H	0.906824	0.926320	0.383296
	H92	H	0.103665	0.638994	0.904803
	H93	H	0.088489	0.406555	0.080315
	H94	H	0.909831	0.634268	0.090347
	H95	H	0.908035	0.404429	0.914943
	H96	H	0.410486	0.132827	0.589082
	H97	H	0.592311	0.901573	0.595383
	H98	H	0.589183	0.133790	0.412082
	H99	H	0.408659	0.898099	0.394454
	H100	H	0.591831	0.424432	0.119576
	H101	H	0.593607	0.611830	0.882082
	H102	H	0.411812	0.609645	0.116087
	H103	H	0.416368	0.430901	0.886769
	H104	H	0.116713	0.615650	0.408440
	H105	H	0.879655	0.620839	0.594669
	H106	H	0.117649	0.421249	0.592299
	H107	H	0.884208	0.426270	0.406940
	H108	H	0.904463	0.636583	0.089910
	H109	H	0.108048	0.397127	0.093771
	H110	H	0.085518	0.634798	0.900563
	H111	H	0.896766	0.398635	0.905126
	H112	H	0.087358	0.923190	0.619214
	H113	H	0.081622	0.113767	0.384024
	H114	H	0.912661	0.103811	0.614927
	H115	H	0.905839	0.923263	0.381716
	H116	H	0.616693	0.117679	0.910635
	H117	H	0.383426	0.108452	0.097228
	H118	H	0.616281	0.931960	0.103419
	H119	H	0.382464	0.922659	0.909127
	C120	C	0.378116	0.026574	0.622186
	C121	C	0.622134	1.009621	0.623396
	C122	C	0.620737	0.026833	0.380643
	C123	C	0.376561	1.009482	0.378692
	C124	C	0.622148	0.397786	0.009960
	C125	C	0.621612	0.640253	0.992391
	C126	C	0.378308	0.639924	0.009300
	C127	C	0.379355	0.398045	0.992117
	C128	C	0.008440	0.640702	0.378419
	C129	C	0.991450	0.641080	0.621798
	C130	C	0.008259	0.397240	0.620710
	C131	C	0.991228	0.396212	0.377980
	C132	C	0.879081	0.527518	0.121119
	C133	C	0.122556	0.509941	0.121812
	C134	C	0.122051	0.526899	0.878439
	C135	C	0.877663	0.509988	0.877808
	C136	C	0.120042	0.897896	0.509270
	C137	C	0.121214	0.140198	0.491727
	C138	C	0.878385	0.139883	0.509933
	C139	C	0.877791	0.896832	0.491831
	C140	C	0.507629	0.141231	0.879869
	C141	C	0.491164	0.141586	0.123730
	C142	C	0.508350	0.896905	0.123483
	C143	C	0.491024	0.897052	0.880039
	C144	C	0.380944	0.903064	0.677218
	C145	C	0.618573	0.133178	0.678000
	C146	C	0.616510	0.903191	0.326208
	C147	C	0.380503	0.132974	0.324978
	C148	C	0.675964	0.399660	0.884952
	C149	C	0.677586	0.638118	0.116414
	C150	C	0.323212	0.638039	0.884871
	C151	C	0.323995	0.399875	0.116334
	C152	C	0.885076	0.694898	0.379686
	C153	C	0.114440	0.696822	0.620360
	C154	C	0.885536	0.341271	0.620050
	C155	C	0.114018	0.340556	0.379520
	C156	C	0.885280	0.400346	0.675780
	C157	C	0.114968	0.638506	0.677000
	C158	C	0.884913	0.636213	0.322993
	C159	C	0.114954	0.400335	0.324305
	C160	C	0.380566	0.695567	0.885362
	C161	C	0.618952	0.694131	0.117273
	C162	C	0.618998	0.342037	0.885484
	C163	C	0.381735	0.343712	0.116953
	C164	C	0.675825	0.903853	0.382122
	C165	C	0.677604	0.132589	0.622023
	C166	C	0.322347	0.903456	0.620623
	C167	C	0.321580	0.132327	0.380357
	C168	C	0.882326	0.403790	0.175239
	C169	C	0.119447	0.633332	0.176871
	C170	C	0.118469	0.403784	0.823314
	C171	C	0.882141	0.633708	0.823632
	C172	C	0.174772	0.900051	0.384832
	C173	C	0.177251	0.138433	0.615885
	C174	C	0.822268	0.137267	0.385939
	C175	C	0.824367	0.899706	0.616896
	C176	C	0.384672	0.196491	0.881058
	C177	C	0.614561	0.196196	0.122073
	C178	C	0.385455	0.841041	0.121544
	C179	C	0.614459	0.842160	0.882224
	C180	C	0.384239	0.900778	0.176482
	C181	C	0.614732	0.136995	0.178430
	C182	C	0.384337	0.137549	0.823927
	C183	C	0.614724	0.900785	0.825754
	C184	C	0.879689	0.194294	0.385142
	C185	C	0.119825	0.196014	0.615967
	C186	C	0.116989	0.843764	0.384377
	C187	C	0.880658	0.841577	0.616233
	C188	C	0.177307	0.403921	0.879394
	C189	C	0.177314	0.633231	0.119722
	C190	C	0.823869	0.404448	0.119126
	C191	C	0.822423	0.632918	0.878985
	C192	C	0.400295	0.112342	0.599479
	C193	C	0.600192	0.923477	0.600941
	C194	C	0.599254	0.112977	0.403122
	C195	C	0.398567	0.923108	0.401102
	C196	C	0.600656	0.420053	0.096675
	C197	C	0.598967	0.618319	0.905595
	C198	C	0.400532	0.617365	0.096209
	C199	C	0.401908	0.420330	0.905690
	C200	C	0.094638	0.619785	0.400835
	C201	C	0.905815	0.618584	0.599009
	C202	C	0.093773	0.419619	0.597616
	C203	C	0.905240	0.417643	0.399944
	C204	C	0.901127	0.613404	0.098661
	C205	C	0.100559	0.423513	0.099686
	C206	C	0.100332	0.612956	0.901297
	C207	C	0.898946	0.423868	0.899915
	C208	C	0.098121	0.920128	0.596045
	C209	C	0.098223	0.117354	0.405062
	C210	C	0.901140	0.118108	0.596620
	C211	C	0.899115	0.918794	0.404786
	C212	C	0.593511	0.119477	0.902534
	C213	C	0.404930	0.120484	0.101331
	C214	C	0.594460	0.918425	0.101944
	C215	C	0.405317	0.918839	0.902137
	Zn216	Zn	0.499672	0.018057	0.750725
	Zn217	Zn	0.498661	0.018495	0.251662
	Zn218	Zn	0.749836	0.519002	0.000368
	Zn219	Zn	0.250640	0.517751	0.000213
	Zn220	Zn	-0.000413	0.769575	0.500172
	Zn221	Zn	-0.000184	0.268043	0.499842
	Zn222	Zn	0.000379	0.518700	0.749598
	Zn223	Zn	0.000167	0.518456	0.249875
	Zn224	Zn	0.499855	0.768315	0.001716
	Zn225	Zn	0.500065	0.270195	0.001969
	Zn226	Zn	0.750272	0.018279	0.501958
	Zn227	Zn	0.248829	0.017758	0.500370
	N228	N	0.414934	0.980433	0.678219
	N229	N	0.584758	0.055540	0.678653
	N230	N	0.583179	0.980691	0.324945
	N231	N	0.413922	0.055405	0.323940
	N232	N	0.677913	0.433625	0.963278
	N233	N	0.679222	0.605351	0.037662
	N234	N	0.321910	0.603935	0.962970
	N235	N	0.322305	0.432849	0.037792
	N236	N	0.962856	0.697955	0.413188
	N237	N	0.036734	0.698413	0.586603
	N238	N	0.962956	0.339421	0.586350
	N239	N	0.036137	0.338058	0.412362
	N240	N	0.962639	0.434397	0.676511
	N241	N	0.037551	0.604575	0.678056
	N242	N	0.962613	0.602956	0.322300
	N243	N	0.037676	0.434298	0.323157
	N244	N	0.414236	0.696714	0.963847
	N245	N	0.584864	0.695767	0.039124
	N246	N	0.586193	0.340503	0.964187
	N247	N	0.415546	0.342410	0.038876
	N248	N	0.678637	0.981957	0.415143
	N249	N	0.679901	0.054774	0.589083
	N250	N	0.320274	0.981143	0.587029
	N251	N	0.319180	0.054350	0.413242
	N252	N	0.916111	0.481289	0.176509
	N253	N	0.085837	0.555521	0.178203
	N254	N	0.085005	0.481249	0.822528
	N255	N	0.915812	0.556253	0.822690
	N256	N	0.176644	0.933092	0.463298
	N257	N	0.178367	0.104550	0.537539
	N258	N	0.821098	0.104289	0.464478
	N259	N	0.822139	0.933080	0.538441
	N260	N	0.462258	0.198787	0.915107
	N261	N	0.536702	0.199183	0.088937
	N262	N	0.463341	0.838506	0.089190
	N263	N	0.536588	0.839744	0.915271
	N264	N	0.461671	0.934965	0.177809
	N265	N	0.536995	0.103680	0.179528
	N266	N	0.461798	0.103900	0.822993
	N267	N	0.537192	0.934184	0.824205
	N268	N	0.913861	0.196037	0.463257
	N269	N	0.085866	0.197312	0.537651
	N270	N	0.083633	0.842261	0.462766
	N271	N	0.913331	0.839742	0.537577
	N272	N	0.179569	0.481636	0.912914
	N273	N	0.179357	0.555546	0.086431
	N274	N	0.821704	0.482360	0.086323
	N275	N	0.819370	0.554966	0.911691
	O276	O	0.521620	0.554425	0.504843
	H277	H	0.505622	0.551448	0.508539
	H278	H	0.525761	0.562511	0.507866
	O279	O	0.578602	0.466458	0.497916
	H280	H	0.587836	0.456729	0.503184
	H281	H	0.575991	0.468249	0.507069
	O282	O	0.444756	0.509871	0.508472
	H283	H	0.449266	0.512131	0.519215
	H284	H	0.454133	0.505764	0.510925
	O285	O	0.010744	1.035129	0.974646
	H286	H	0.013311	1.023040	0.977579
	H287	H	0.013233	1.032303	0.975946
	O288	O	0.531992	0.465337	0.483228
	H289	H	0.530131	0.470811	0.477289
	H290	H	0.526442	0.455771	0.485704
	O291	O	0.003669	0.041430	1.046420
	H292	H	0.006626	0.030560	1.043862
	H293	H	-0.005220	0.034769	1.047622
	O294	O	0.467943	0.499176	0.576764
	H295	H	0.478612	0.501835	0.576648
	H296	H	0.472009	0.497830	0.580061
	O297	O	0.449064	0.524749	0.541787
	H298	H	0.444355	0.525695	0.543660
	H299	H	0.452287	0.520879	0.550740
	O300	O	0.545931	0.490417	0.463913
	H301	H	0.553227	0.488521	0.464424
	H302	H	0.543038	0.483100	0.454529
	O303	O	0.453268	0.490501	0.591822
	H304	H	0.452774	0.487990	0.591997
	H305	H	0.455507	0.501681	0.588348
	O306	O	1.014752	0.013673	0.977660
	H307	H	1.014972	0.008916	0.972272
	H308	H	1.014599	0.020082	0.972873
	O309	O	-0.024795	-0.012922	0.010582
	H310	H	-0.018344	-0.013764	0.008447
	H311	H	-0.033426	-0.001801	0.004093
	O312	O	0.486004	0.419374	0.544739
	H313	H	0.486234	0.419263	0.546479
	H314	H	0.486028	0.422219	0.543301
	O315	O	1.015705	0.047279	0.952144
	H316	H	1.017380	0.051464	0.956543
	H317	H	1.013074	0.053988	0.954204
	O318	O	-0.008238	0.004003	-0.034269
	H319	H	-0.008366	0.008523	-0.036433
	H320	H	-0.008128	-0.000397	-0.022762
	O321	O	0.497583	0.493116	0.419625
	H322	H	0.509684	0.491680	0.413080
	H323	H	0.502171	0.481365	0.418615
	O324	O	1.513477	-0.490659	-0.473819
	H325	H	1.514488	-0.476892	-0.471199
	H326	H	1.510706	-0.480866	-0.468032
	O327	O	0.557289	0.480206	0.510758
	H328	H	0.547392	0.468384	0.506268
	H329	H	0.553540	0.474065	0.509985
	O330	O	0.484664	0.496072	0.483180
	H331	H	0.478209	0.490947	0.484237
	H332	H	0.481525	0.509244	0.470569
	O333	O	0.546617	-0.481992	0.569146
	H334	H	0.543851	-0.483712	0.582571
	H335	H	0.538270	-0.487542	0.556084
