data_Molecule from HDF5

_cell_length_a		16.432171
_cell_length_b		16.433245
_cell_length_c		16.265902
_cell_angle_alpha	90.043012
_cell_angle_beta	89.925000
_cell_angle_gamma	90.135689
_symmetry_space_group_name_H-M	'P 1'
_symmetry_Int_Tables_number		1

loop_
	_symmetry_equiv_pos_as_xyz
	x,y,z

loop_
	_atom_site_label
	_atom_site_type_symbol
	_atom_site_fract_x
	_atom_site_fract_y
	_atom_site_fract_z
	H0	H	0.395065	0.842598	0.711860
	H1	H	0.604781	0.161184	0.711579
	H2	H	0.607787	0.843068	0.269380
	H3	H	0.394646	0.159638	0.268341
	H4	H	0.724732	0.392749	0.830412
	H5	H	0.723216	0.606167	0.149367
	H6	H	0.279888	0.608801	0.831377
	H7	H	0.278938	0.393417	0.148995
	H8	H	0.843213	0.723300	0.383639
	H9	H	0.158025	0.726875	0.600856
	H10	H	0.846315	0.275718	0.600488
	H11	H	0.157848	0.276374	0.377749
	H12	H	0.845299	0.393330	0.714038
	H13	H	0.158362	0.610829	0.715546
	H14	H	0.842048	0.605814	0.269777
	H15	H	0.159940	0.397449	0.268224
	H16	H	0.396700	0.723566	0.831328
	H17	H	0.612968	0.725010	0.148307
	H18	H	0.607942	0.279166	0.829369
	H19	H	0.392743	0.277594	0.147765
	H20	H	0.724239	0.844279	0.384450
	H21	H	0.728222	0.158673	0.603162
	H22	H	0.276923	0.844649	0.600106
	H23	H	0.276465	0.157668	0.380809
	H24	H	0.896676	0.342271	0.210776
	H25	H	0.106318	0.660027	0.211434
	H26	H	0.108608	0.345180	0.765335
	H27	H	0.894536	0.658815	0.767407
	H28	H	0.223116	0.895273	0.331325
	H29	H	0.222208	0.107520	0.650092
	H30	H	0.777788	0.109606	0.332809
	H31	H	0.779581	0.895346	0.650307
	H32	H	0.343509	0.226009	0.877796
	H33	H	0.659481	0.224018	0.094021
	H34	H	0.345241	0.776647	0.099650
	H35	H	0.660203	0.779952	0.883004
	H36	H	0.342764	0.898299	0.210651
	H37	H	0.659190	0.110462	0.213408
	H38	H	0.342059	0.106406	0.767829
	H39	H	0.659598	0.896211	0.766779
	H40	H	0.892836	0.225019	0.331836
	H41	H	0.110772	0.226132	0.647982
	H42	H	0.107297	0.780136	0.330544
	H43	H	0.894208	0.779372	0.649841
	H44	H	0.227572	0.345159	0.878133
	H45	H	0.228372	0.656820	0.101767
	H46	H	0.778833	0.342174	0.096610
	H47	H	0.777120	0.657293	0.882027
	H48	H	0.409043	0.112635	0.568590
	H49	H	0.588581	0.888643	0.582984
	H50	H	0.592184	0.112379	0.410668
	H51	H	0.412528	0.887249	0.399338
	H52	H	0.586163	0.418419	0.099739
	H53	H	0.587693	0.589782	0.876577
	H54	H	0.413173	0.586184	0.104094
	H55	H	0.417014	0.413511	0.876596
	H56	H	0.115183	0.594191	0.402402
	H57	H	0.886250	0.598678	0.577434
	H58	H	0.114726	0.413749	0.574613
	H59	H	0.889446	0.416219	0.402057
	H60	H	0.113697	0.416655	0.575058
	H61	H	0.892527	0.586052	0.570366
	H62	H	0.113939	0.589309	0.403098
	H63	H	0.886236	0.409795	0.397478
	H64	H	0.417475	0.586956	0.103034
	H65	H	0.590864	0.592556	0.874094
	H66	H	0.584916	0.407356	0.103693
	H67	H	0.412664	0.412465	0.874540
	H68	H	0.594769	0.117781	0.399894
	H69	H	0.586180	0.892056	0.574047
	H70	H	0.407493	0.118916	0.584771
	H71	H	0.415935	0.890381	0.404187
	H72	H	0.907396	0.616529	0.082532
	H73	H	0.090754	0.387518	0.078699
	H74	H	0.088718	0.610174	0.912696
	H75	H	0.906350	0.387874	0.908736
	H76	H	0.088271	0.904643	0.607024
	H77	H	0.086715	0.086557	0.377531
	H78	H	0.914317	0.086862	0.603342
	H79	H	0.915145	0.913485	0.377551
	H80	H	0.614715	0.092324	0.899630
	H81	H	0.391997	0.086877	0.073235
	H82	H	0.613253	0.914942	0.076577
	H83	H	0.390027	0.913638	0.904671
	H84	H	0.616812	0.914455	0.082805
	H85	H	0.387194	0.087541	0.084821
	H86	H	0.612349	0.092129	0.904834
	H87	H	0.388394	0.912456	0.901508
	H88	H	0.918793	0.088372	0.602676
	H89	H	0.088743	0.091338	0.376056
	H90	H	0.097925	0.916144	0.607421
	H91	H	0.913736	0.911522	0.376219
	H92	H	0.097287	0.617273	0.903343
	H93	H	0.088738	0.388605	0.078516
	H94	H	0.915720	0.613173	0.080197
	H95	H	0.913518	0.385183	0.895291
	H96	H	0.422094	0.110491	0.579648
	H97	H	0.595629	0.888898	0.575764
	H98	H	0.583806	0.112485	0.401607
	H99	H	0.409675	0.888586	0.405734
	H100	H	0.594653	0.412983	0.104628
	H101	H	0.592132	0.588398	0.875663
	H102	H	0.415527	0.590826	0.104768
	H103	H	0.413525	0.417546	0.876665
	H104	H	0.115310	0.591050	0.398541
	H105	H	0.888217	0.585136	0.585688
	H106	H	0.115127	0.414587	0.577260
	H107	H	0.888730	0.408799	0.405861
	H108	H	0.908590	0.613825	0.074115
	H109	H	0.090217	0.388875	0.076934
	H110	H	0.084419	0.613646	0.899035
	H111	H	0.920580	0.392867	0.906839
	H112	H	0.084001	0.918078	0.601298
	H113	H	0.091390	0.086921	0.375743
	H114	H	0.915909	0.091541	0.605376
	H115	H	0.912667	0.914492	0.376114
	H116	H	0.612724	0.087450	0.901373
	H117	H	0.386209	0.097054	0.076905
	H118	H	0.616326	0.908516	0.078386
	H119	H	0.388645	0.909976	0.904859
	C120	C	0.379772	0.009821	0.611336
	C121	C	0.623535	0.993964	0.612498
	C122	C	0.623296	0.010213	0.370130
	C123	C	0.379539	0.992992	0.369160
	C124	C	0.621556	0.380167	-0.002812
	C125	C	0.623884	0.622432	0.980709
	C126	C	0.381786	0.621944	-0.000888
	C127	C	0.380162	0.380028	0.980729
	C128	C	0.009817	0.623306	0.368840
	C129	C	0.992626	0.623829	0.612340
	C130	C	0.011052	0.380447	0.610806
	C131	C	0.992464	0.379314	0.368017
	C132	C	0.878488	0.509872	0.111730
	C133	C	0.122977	0.492541	0.112069
	C134	C	0.123592	0.510322	0.869185
	C135	C	0.880101	0.492344	0.869264
	C136	C	0.123073	0.879948	0.499742
	C137	C	0.122749	0.122558	0.481274
	C138	C	0.881595	0.122810	0.499495
	C139	C	0.880597	0.880569	0.482078
	C140	C	0.508641	0.123071	0.867992
	C141	C	0.492860	0.123651	0.111249
	C142	C	0.510943	0.879666	0.112471
	C143	C	0.493498	0.879882	0.869475
	C144	C	0.377089	0.890571	0.672252
	C145	C	0.624560	0.113067	0.672826
	C146	C	0.625712	0.891138	0.309142
	C147	C	0.376677	0.111677	0.308112
	C148	C	0.683828	0.375809	0.877816
	C149	C	0.683914	0.624546	0.101149
	C150	C	0.320214	0.625926	0.879485
	C151	C	0.318907	0.375874	0.100686
	C152	C	0.890754	0.683125	0.366149
	C153	C	0.110698	0.686351	0.617761
	C154	C	0.893449	0.317286	0.616735
	C155	C	0.110654	0.317390	0.361856
	C156	C	0.892618	0.375784	0.673657
	C157	C	0.110819	0.628198	0.675053
	C158	C	0.890216	0.624543	0.309139
	C159	C	0.111778	0.377901	0.307186
	C160	C	0.378679	0.683170	0.879300
	C161	C	0.628874	0.683971	0.100500
	C162	C	0.625429	0.319282	0.877361
	C163	C	0.375640	0.317982	0.100223
	C164	C	0.683745	0.891417	0.366771
	C165	C	0.685974	0.112023	0.618326
	C166	C	0.317843	0.891655	0.616418
	C167	C	0.317653	0.110902	0.364459
	C168	C	0.877307	0.390063	0.171494
	C169	C	0.125238	0.611796	0.172426
	C170	C	0.127130	0.392380	0.805723
	C171	C	0.876920	0.611250	0.807878
	C172	C	0.183248	0.876966	0.379239
	C173	C	0.183291	0.126130	0.601378
	C174	C	0.818979	0.126845	0.380082
	C175	C	0.819820	0.877459	0.602274
	C176	C	0.390756	0.184956	0.862169
	C177	C	0.611896	0.184504	0.113503
	C178	C	0.392346	0.817800	0.116722
	C179	C	0.612595	0.819988	0.865472
	C180	C	0.391157	0.878189	0.172312
	C181	C	0.611447	0.127540	0.172644
	C182	C	0.389901	0.125186	0.806929
	C183	C	0.612113	0.878026	0.807592
	C184	C	0.876586	0.184235	0.379542
	C185	C	0.127534	0.185296	0.600569
	C186	C	0.125606	0.819488	0.379061
	C187	C	0.877040	0.819674	0.602081
	C188	C	0.186319	0.392626	0.862259
	C189	C	0.185958	0.610359	0.117565
	C190	C	0.818643	0.389999	0.114648
	C191	C	0.818419	0.610601	0.864821
	C192	C	0.405354	0.092614	0.585098
	C193	C	0.597725	0.911315	0.585307
	C194	C	0.597770	0.092792	0.396617
	C195	C	0.405261	0.910359	0.395423
	C196	C	0.595735	0.405674	0.080909
	C197	C	0.597788	0.597283	0.897256
	C198	C	0.408149	0.595513	0.082225
	C199	C	0.406777	0.406741	0.897625
	C200	C	0.093114	0.598536	0.394009
	C201	C	0.910367	0.597560	0.585530
	C202	C	0.092943	0.407348	0.583643
	C203	C	0.909725	0.404414	0.394332
	C204	C	0.903281	0.592680	0.086401
	C205	C	0.097287	0.410033	0.085633
	C206	C	0.097508	0.592157	0.896902
	C207	C	0.906146	0.410181	0.896013
	C208	C	0.097622	0.905568	0.583338
	C209	C	0.096408	0.096146	0.398191
	C210	C	0.908314	0.096585	0.582101
	C211	C	0.906248	0.905902	0.398541
	C212	C	0.591708	0.097835	0.894398
	C213	C	0.410094	0.097987	0.085642
	C214	C	0.593755	0.905235	0.086612
	C215	C	0.410588	0.904778	0.896169
	Zn216	Zn	0.500328	0.001401	0.740195
	Zn217	Zn	0.501663	0.002170	0.240913
	Zn218	Zn	0.750283	0.499859	-0.010483
	Zn219	Zn	0.252366	0.501017	-0.008980
	Zn220	Zn	0.001136	0.752345	0.490482
	Zn221	Zn	0.002858	0.251179	0.489652
	Zn222	Zn	0.001411	0.501687	0.740480
	Zn223	Zn	0.000952	0.501218	0.240158
	Zn224	Zn	0.503098	0.750494	-0.009325
	Zn225	Zn	0.500562	0.252137	-0.011589
	Zn226	Zn	0.752829	0.002147	0.491466
	Zn227	Zn	0.250938	0.001580	0.490599
	N228	N	0.414955	0.965131	0.669272
	N229	N	0.586696	0.038589	0.669304
	N230	N	0.588807	0.966245	0.310958
	N231	N	0.414604	0.037373	0.311057
	N232	N	0.681505	0.413108	0.953364
	N233	N	0.681009	0.587110	0.025689
	N234	N	0.321820	0.588802	0.955198
	N235	N	0.321461	0.413446	0.025278
	N236	N	0.966261	0.682609	0.402343
	N237	N	0.036255	0.683777	0.579331
	N238	N	0.967828	0.320173	0.578216
	N239	N	0.035481	0.317952	0.398916
	N240	N	0.966743	0.414626	0.670061
	N241	N	0.036397	0.589962	0.671792
	N242	N	0.965550	0.588286	0.310396
	N243	N	0.037261	0.415554	0.310808
	N244	N	0.415948	0.680948	0.954873
	N245	N	0.592055	0.682971	0.024594
	N246	N	0.587234	0.322141	0.952577
	N247	N	0.412766	0.320294	0.024412
	N248	N	0.682544	0.966595	0.403726
	N249	N	0.685465	0.036602	0.581621
	N250	N	0.319349	0.966763	0.579299
	N251	N	0.319494	0.035901	0.401737
	N252	N	0.913903	0.465277	0.169941
	N253	N	0.086579	0.537734	0.168899
	N254	N	0.088863	0.466442	0.809856
	N255	N	0.914488	0.536672	0.810417
	N256	N	0.182007	0.913490	0.455232
	N257	N	0.180487	0.087909	0.526215
	N258	N	0.821808	0.089590	0.455518
	N259	N	0.821817	0.914533	0.526621
	N260	N	0.465835	0.183616	0.899515
	N261	N	0.537106	0.182355	0.076180
	N262	N	0.468001	0.818413	0.080508
	N263	N	0.537736	0.821109	0.903178
	N264	N	0.465811	0.915730	0.169824
	N265	N	0.536299	0.090495	0.171464
	N266	N	0.464319	0.087386	0.810689
	N267	N	0.536991	0.914605	0.809958
	N268	N	0.914804	0.182079	0.454708
	N269	N	0.090812	0.183385	0.524725
	N270	N	0.089251	0.820869	0.455149
	N271	N	0.914152	0.821667	0.526370
	N272	N	0.184476	0.467037	0.900827
	N273	N	0.184685	0.535134	0.080605
	N274	N	0.819202	0.465498	0.078260
	N275	N	0.820460	0.535690	0.902353
	O276	O	0.493502	0.534968	0.444986
	H277	H	0.495154	0.535418	0.440190
	H278	H	0.502864	0.516946	0.441822
	O279	O	0.482609	0.705690	0.501247
	H280	H	0.461507	0.707906	0.498716
	H281	H	0.497282	0.714251	0.479830
	O282	O	-0.191629	0.124298	0.803921
	H283	H	-0.171556	0.143711	0.818632
	H284	H	-0.195804	0.140175	0.813202
	O285	O	0.844142	0.992632	-0.215074
	H286	H	0.823036	1.006229	-0.238547
	H287	H	0.840487	1.024272	-0.199245
	O288	O	0.217218	0.215064	0.027123
	H289	H	0.244641	0.234636	0.044199
	H290	H	0.203379	0.212328	0.064920
	O291	O	1.019388	0.205827	0.848845
	H292	H	1.021756	0.206396	0.857148
	H293	H	1.046301	0.218369	0.860808
	O294	O	1.001831	0.791372	1.163730
	H295	H	1.017849	0.769457	1.173266
	H296	H	1.009831	0.777858	1.133728
	O297	O	0.332165	0.332103	0.659996
	H298	H	0.342013	0.348360	0.654171
	H299	H	0.365415	0.319938	0.659220
	O300	O	0.284286	0.719380	0.469007
	H301	H	0.294966	0.690091	0.487663
	H302	H	0.244686	0.755227	0.466219
	O303	O	0.532734	0.563847	0.301782
	H304	H	0.523178	0.594221	0.304010
	H305	H	0.533914	0.562207	0.306363
	O306	O	-0.082486	0.102423	1.113786
	H307	H	-0.104320	0.094444	1.113180
	H308	H	-0.075365	0.093742	1.125735
	O309	O	1.031098	0.085050	-0.168404
	H310	H	1.026549	0.102429	-0.173239
	H311	H	1.036022	0.081702	-0.153313
	O312	O	0.366495	0.394795	0.649178
	H313	H	0.358352	0.403477	0.668991
	H314	H	0.379890	0.355254	0.654692
	O315	O	0.670779	0.504962	0.387386
	H316	H	0.671287	0.519730	0.382974
	H317	H	0.670299	0.524256	0.391504
	O318	O	-0.205621	-0.034547	-0.063009
	H319	H	-0.214576	-0.031699	-0.061982
	H320	H	-0.206452	-0.014023	-0.080412
	O321	O	0.184733	1.036825	0.952512
	H322	H	0.187402	1.051959	0.968634
	H323	H	0.182495	1.048016	0.945125
	O324	O	0.941568	-0.030635	1.194551
	H325	H	0.936223	-0.038870	1.191882
	H326	H	0.931452	-0.046064	1.200696
	O327	O	0.507865	0.658454	0.701001
	H328	H	0.499425	0.674065	0.705670
	H329	H	0.485923	0.656387	0.703844
	O330	O	0.029549	0.788179	0.928932
	H331	H	0.029611	0.779297	0.912727
	H332	H	0.040004	0.794207	0.918908
	O333	O	0.214319	0.789722	-0.065944
	H334	H	0.246823	0.758294	-0.058615
	H335	H	0.207067	0.814402	-0.109204
	O336	O	0.848679	0.975139	0.107996
	H337	H	0.815478	0.961255	0.097701
	H338	H	0.846833	0.982434	0.092279
	O339	O	0.012458	1.208961	0.989265
	H340	H	0.015402	1.185079	0.992158
	H341	H	0.030912	1.213725	1.018283
	O342	O	0.353567	0.457878	0.335666
	H343	H	0.365110	0.451967	0.340050
	H344	H	0.337631	0.455879	0.320753
	O345	O	0.160404	0.097716	1.177805
	H346	H	0.147927	0.091105	1.176428
	H347	H	0.166181	0.082590	1.182136
	O348	O	0.517458	0.293388	0.281455
	H349	H	0.511006	0.273494	0.293186
	H350	H	0.512621	0.274628	0.281382
	O351	O	0.721255	0.282716	0.472639
	H352	H	0.715284	0.282830	0.437539
	H353	H	0.747730	0.256836	0.455386
	O354	O	1.051297	1.052060	0.874418
	H355	H	1.055640	1.041198	0.882063
	H356	H	1.035512	1.052744	0.873826
	O357	O	0.027608	-0.142244	-0.165767
	H358	H	0.006215	-0.125997	-0.161906
	H359	H	0.024345	-0.149524	-0.180244
	O360	O	0.484039	0.341503	0.417020
	H361	H	0.490185	0.348149	0.437264
	H362	H	0.489933	0.329226	0.428155
	O363	O	1.079479	-0.057642	0.057006
	H364	H	1.077544	-0.046050	0.047927
	H365	H	1.072709	-0.072606	0.050167
	O366	O	-0.297757	0.524475	0.673879
	H367	H	-0.281077	0.506984	0.673390
	H368	H	-0.291615	0.508499	0.656623
	O369	O	1.678410	0.323211	0.317713
	H370	H	1.689702	0.369549	0.309429
	H371	H	1.634071	0.321749	0.309474
	O372	O	0.625509	0.544670	0.405560
	H373	H	0.642902	0.563469	0.399107
	H374	H	0.604036	0.540950	0.392649
	O375	O	-0.659555	-0.543702	1.379599
	H376	H	-0.636174	-0.524307	1.356248
	H377	H	-0.652149	-0.537299	1.394107
	O378	O	0.327253	0.672594	0.314762
	H379	H	0.313047	0.630006	0.310028
	H380	H	0.319559	0.676515	0.359824
	O381	O	-0.065661	1.177485	0.113650
	H382	H	-0.055210	1.172551	0.128952
	H383	H	-0.075535	1.169090	0.131423
	O384	O	0.424375	0.484117	0.463118
	H385	H	0.436802	0.469150	0.465131
	H386	H	0.419793	0.482887	0.460405
	O387	O	1.048519	1.133016	0.133967
	H388	H	1.061540	1.098902	0.136846
	H389	H	1.012956	1.131293	0.147385
	O390	O	0.949635	0.906288	0.178543
	H391	H	0.975377	0.901204	0.178521
	H392	H	0.936323	0.887726	0.155060
	O393	O	0.945595	-0.126127	0.944180
	H394	H	0.948392	-0.123861	0.936581
	H395	H	0.944158	-0.123952	0.947669
	O396	O	0.399048	0.458087	0.695349
	H397	H	0.382615	0.461909	0.717620
	H398	H	0.415807	0.466795	0.679922
	O399	O	0.841526	0.174553	0.937100
	H400	H	0.847324	0.162757	0.962261
	H401	H	0.862455	0.183804	0.934625
	O402	O	0.803447	0.881792	0.185081
	H403	H	0.832623	0.862973	0.187826
	H404	H	0.783032	0.869569	0.179414
	O405	O	0.694585	0.715813	0.513851
	H406	H	0.679802	0.705880	0.555505
	H407	H	0.720801	0.746768	0.522712
	O408	O	0.543364	0.352440	0.644996
	H409	H	0.563680	0.354258	0.644475
	H410	H	0.556792	0.371813	0.638774
	O411	O	1.596856	0.654800	1.439210
	H412	H	1.624858	0.675497	1.448760
	H413	H	1.579919	0.655200	1.425894
	O414	O	0.303451	0.285684	0.502975
	H415	H	0.276558	0.261738	0.516518
	H416	H	0.297942	0.312023	0.505522
	O417	O	0.191152	0.862233	0.805964
	H418	H	0.200874	0.898509	0.786219
	H419	H	0.143031	0.865502	0.794960
	O420	O	-0.129711	0.803896	0.982970
	H421	H	-0.153899	0.798635	0.984799
	H422	H	-0.117207	0.811592	0.962442
	O423	O	0.121453	0.957407	-0.203734
	H424	H	0.128527	0.959938	-0.187394
	H425	H	0.106250	0.964473	-0.207640
	O426	O	0.684042	0.688199	0.673134
	H427	H	0.685276	0.644089	0.678328
	H428	H	0.647050	0.689842	0.675720
	O429	O	0.479360	0.721273	0.270594
	H430	H	0.473459	0.757192	0.230984
	H431	H	0.427127	0.706132	0.284539
	O432	O	0.289892	0.564656	0.547097
	H433	H	0.297401	0.552281	0.565318
	H434	H	0.294418	0.561818	0.548927
	O435	O	0.210943	-0.016073	0.104388
	H436	H	0.206942	-0.024664	0.080544
	H437	H	0.223438	-0.020711	0.117841
	O438	O	-0.505663	1.409239	1.592107
	H439	H	-0.491657	1.407217	1.586240
	H440	H	-0.509791	1.407263	1.607467
	O441	O	0.710063	0.442488	0.553647
	H442	H	0.708106	0.450176	0.524996
	H443	H	0.711752	0.417702	0.535871
