data_Molecule from HDF5

_cell_length_a		16.086329
_cell_length_b		16.294499
_cell_length_c		16.251919
_cell_angle_alpha	89.697613
_cell_angle_beta	90.572416
_cell_angle_gamma	89.856743
_symmetry_space_group_name_H-M	'P 1'
_symmetry_Int_Tables_number		1

loop_
	_symmetry_equiv_pos_as_xyz
	x,y,z

loop_
	_atom_site_label
	_atom_site_type_symbol
	_atom_site_fract_x
	_atom_site_fract_y
	_atom_site_fract_z
	H0	H	0.408952	0.831129	0.709574
	H1	H	0.608228	0.158083	0.712597
	H2	H	0.604884	0.830569	0.282114
	H3	H	0.402772	0.156743	0.276424
	H4	H	0.718874	0.397063	0.829958
	H5	H	0.720954	0.588390	0.159259
	H6	H	0.290345	0.593184	0.831701
	H7	H	0.297931	0.397323	0.159973
	H8	H	0.841401	0.708978	0.392952
	H9	H	0.170577	0.708333	0.596371
	H10	H	0.841560	0.279545	0.594149
	H11	H	0.170820	0.280314	0.396751
	H12	H	0.841037	0.395975	0.707157
	H13	H	0.170539	0.593053	0.709776
	H14	H	0.842515	0.595740	0.276880
	H15	H	0.172411	0.397458	0.285854
	H16	H	0.402833	0.712517	0.832202
	H17	H	0.609514	0.708431	0.158059
	H18	H	0.608120	0.276668	0.831990
	H19	H	0.407502	0.276930	0.157343
	H20	H	0.717870	0.829883	0.402136
	H21	H	0.720713	0.159346	0.592788
	H22	H	0.293193	0.830808	0.591828
	H23	H	0.291987	0.159041	0.395210
	H24	H	0.908925	0.331449	0.210438
	H25	H	0.107360	0.658274	0.210539
	H26	H	0.106292	0.331623	0.779720
	H27	H	0.902174	0.657134	0.775800
	H28	H	0.217929	0.898129	0.329839
	H29	H	0.222558	0.092871	0.658167
	H30	H	0.790641	0.093088	0.330465
	H31	H	0.797934	0.898094	0.659646
	H32	H	0.342196	0.211065	0.891282
	H33	H	0.671507	0.206737	0.096506
	H34	H	0.342111	0.778676	0.094946
	H35	H	0.672088	0.780523	0.899322
	H36	H	0.340190	0.895312	0.207032
	H37	H	0.670498	0.090493	0.210803
	H38	H	0.341276	0.095104	0.779040
	H39	H	0.672247	0.895128	0.785045
	H40	H	0.902166	0.212278	0.331439
	H41	H	0.109588	0.210744	0.657347
	H42	H	0.104859	0.779927	0.331014
	H43	H	0.906599	0.777691	0.656692
	H44	H	0.219166	0.329617	0.900602
	H45	H	0.220956	0.658667	0.092513
	H46	H	0.795148	0.330022	0.091851
	H47	H	0.791471	0.658747	0.895325
	H48	H	0.408688	0.113444	0.588055
	H49	H	0.601249	0.876232	0.597316
	H50	H	0.600194	0.114188	0.393599
	H51	H	0.414079	0.876010	0.394860
	H52	H	0.599961	0.403844	0.109712
	H53	H	0.594530	0.583634	0.880186
	H54	H	0.412712	0.592953	0.114982
	H55	H	0.416202	0.393382	0.875558
	H56	H	0.125831	0.589998	0.404914
	H57	H	0.884941	0.590322	0.588352
	H58	H	0.125364	0.399902	0.591045
	H59	H	0.891273	0.409327	0.408689
	H60	H	0.123426	0.401455	0.583722
	H61	H	0.888089	0.588658	0.580993
	H62	H	0.124744	0.585935	0.404732
	H63	H	0.886934	0.407198	0.393065
	H64	H	0.412494	0.581411	0.111965
	H65	H	0.594079	0.594350	0.876947
	H66	H	0.597948	0.395091	0.112046
	H67	H	0.405405	0.405285	0.875963
	H68	H	0.588272	0.107582	0.402368
	H69	H	0.596772	0.880516	0.589880
	H70	H	0.419084	0.110168	0.592330
	H71	H	0.416434	0.879799	0.405895
	H72	H	0.904574	0.613644	0.084189
	H73	H	0.110092	0.374427	0.094228
	H74	H	0.099502	0.612538	0.898320
	H75	H	0.921975	0.383232	0.910939
	H76	H	0.098491	0.904086	0.610009
	H77	H	0.095300	0.086682	0.378266
	H78	H	0.915506	0.080653	0.609916
	H79	H	0.920396	0.898761	0.377841
	H80	H	0.622581	0.080163	0.902707
	H81	H	0.388324	0.087452	0.084127
	H82	H	0.625857	0.899790	0.093253
	H83	H	0.388484	0.904858	0.900780
	H84	H	0.624684	0.899466	0.087993
	H85	H	0.387516	0.087041	0.086678
	H86	H	0.626142	0.089897	0.902462
	H87	H	0.387934	0.900147	0.901865
	H88	H	0.922429	0.093014	0.610087
	H89	H	0.094565	0.092935	0.377213
	H90	H	0.097654	0.898168	0.611529
	H91	H	0.904634	0.896006	0.372957
	H92	H	0.092481	0.608740	0.901917
	H93	H	0.095987	0.377779	0.097651
	H94	H	0.919305	0.613064	0.097509
	H95	H	0.902137	0.375112	0.903985
	H96	H	0.416892	0.110085	0.581591
	H97	H	0.606264	0.877822	0.589154
	H98	H	0.602266	0.110791	0.408687
	H99	H	0.405144	0.876658	0.402999
	H100	H	0.606281	0.398011	0.113302
	H101	H	0.603939	0.588538	0.876159
	H102	H	0.422889	0.587666	0.110191
	H103	H	0.420533	0.407775	0.880825
	H104	H	0.126135	0.588924	0.401149
	H105	H	0.888805	0.582855	0.586027
	H106	H	0.123050	0.406396	0.588617
	H107	H	0.885702	0.395161	0.403848
	H108	H	0.922565	0.607304	0.079003
	H109	H	0.101120	0.379528	0.085125
	H110	H	0.100283	0.610198	0.906547
	H111	H	0.918797	0.376206	0.889813
	H112	H	0.103116	0.900340	0.612132
	H113	H	0.099797	0.089713	0.376194
	H114	H	0.909585	0.092307	0.614330
	H115	H	0.909791	0.910790	0.378980
	H116	H	0.622520	0.086037	0.910397
	H117	H	0.386591	0.089737	0.084794
	H118	H	0.623729	0.903777	0.089460
	H119	H	0.388961	0.903155	0.904622
	C120	C	0.385924	0.003165	0.616079
	C121	C	0.630082	0.986559	0.619683
	C122	C	0.626283	0.002552	0.374102
	C123	C	0.382610	0.985638	0.371693
	C124	C	0.629569	0.371147	0.003363
	C125	C	0.628022	0.615894	0.985941
	C126	C	0.385051	0.616813	0.004216
	C127	C	0.386156	0.373131	0.986114
	C128	C	0.016068	0.616961	0.372968
	C129	C	0.996590	0.616025	0.615236
	C130	C	0.015151	0.373193	0.616334
	C131	C	0.997418	0.374847	0.374631
	C132	C	0.886431	0.503243	0.115940
	C133	C	0.130578	0.485858	0.119447
	C134	C	0.127189	0.502587	0.874248
	C135	C	0.884173	0.486341	0.872236
	C136	C	0.127452	0.873113	0.503014
	C137	C	0.127364	0.117369	0.485553
	C138	C	0.884682	0.117671	0.503189
	C139	C	0.884588	0.873172	0.485411
	C140	C	0.515180	0.116165	0.873607
	C141	C	0.496972	0.115406	0.115396
	C142	C	0.515284	0.872416	0.117653
	C143	C	0.497970	0.873522	0.874915
	C144	C	0.388142	0.880089	0.671577
	C145	C	0.627852	0.109490	0.674319
	C146	C	0.624678	0.879384	0.320260
	C147	C	0.383698	0.108152	0.314981
	C148	C	0.682865	0.375309	0.879401
	C149	C	0.684028	0.610970	0.109967
	C150	C	0.328145	0.614355	0.880638
	C151	C	0.333648	0.375983	0.110258
	C152	C	0.891215	0.671966	0.373171
	C153	C	0.121006	0.670950	0.615605
	C154	C	0.890864	0.317406	0.614072
	C155	C	0.121657	0.318562	0.376896
	C156	C	0.890374	0.375318	0.670289
	C157	C	0.120976	0.613642	0.672090
	C158	C	0.891719	0.615376	0.315596
	C159	C	0.122479	0.376929	0.321777
	C160	C	0.384483	0.673286	0.880989
	C161	C	0.628481	0.670268	0.109385
	C162	C	0.627823	0.315510	0.880587
	C163	C	0.388439	0.316379	0.109123
	C164	C	0.680973	0.879083	0.379839
	C165	C	0.684082	0.110039	0.615128
	C166	C	0.330843	0.879748	0.613007
	C167	C	0.328629	0.109421	0.374293
	C168	C	0.888562	0.380177	0.172134
	C169	C	0.127972	0.609233	0.173304
	C170	C	0.125750	0.379825	0.818927
	C171	C	0.883709	0.608587	0.814896
	C172	C	0.180831	0.877114	0.379009
	C173	C	0.184405	0.113920	0.609166
	C174	C	0.827852	0.114537	0.379769
	C175	C	0.833038	0.876635	0.609681
	C176	C	0.391182	0.172270	0.873088
	C177	C	0.621989	0.169157	0.115390
	C178	C	0.391277	0.816557	0.115021
	C179	C	0.622516	0.818060	0.878563
	C180	C	0.390156	0.874787	0.170623
	C181	C	0.621451	0.111643	0.172441
	C182	C	0.391036	0.114864	0.816927
	C183	C	0.622596	0.875144	0.821648
	C184	C	0.883406	0.173949	0.380139
	C185	C	0.128574	0.172988	0.608546
	C186	C	0.124882	0.818132	0.379734
	C187	C	0.887193	0.816678	0.608289
	C188	C	0.181800	0.378973	0.878739
	C189	C	0.184713	0.609358	0.114838
	C190	C	0.832273	0.379413	0.112900
	C191	C	0.828428	0.609350	0.874323
	C192	C	0.408248	0.089022	0.593694
	C193	C	0.608072	0.900639	0.598418
	C194	C	0.603602	0.088673	0.395254
	C195	C	0.405249	0.899669	0.394418
	C196	C	0.607874	0.392597	0.089251
	C197	C	0.604480	0.594945	0.899883
	C198	C	0.409026	0.594083	0.090075
	C199	C	0.407649	0.395590	0.899750
	C200	C	0.103153	0.594908	0.396708
	C201	C	0.909733	0.593929	0.591806
	C202	C	0.101520	0.395916	0.594287
	C203	C	0.910530	0.397359	0.395674
	C204	C	0.908711	0.589162	0.093334
	C205	C	0.108872	0.399644	0.098651
	C206	C	0.104259	0.588304	0.895827
	C207	C	0.907496	0.400461	0.894874
	C208	C	0.106199	0.894440	0.588912
	C209	C	0.103813	0.095983	0.399523
	C210	C	0.908963	0.095266	0.589282
	C211	C	0.905451	0.895249	0.398736
	C212	C	0.601659	0.092490	0.898074
	C213	C	0.409966	0.094332	0.091902
	C214	C	0.602293	0.894576	0.096610
	C215	C	0.410979	0.896167	0.896176
	Zn216	Zn	0.506875	-0.005286	0.746832
	Zn217	Zn	0.504776	-0.006217	0.243962
	Zn218	Zn	0.756474	0.494377	-0.005808
	Zn219	Zn	0.257455	0.493928	-0.004072
	Zn220	Zn	0.006203	0.743936	0.494248
	Zn221	Zn	0.005922	0.246348	0.494124
	Zn222	Zn	0.005297	0.494818	0.743333
	Zn223	Zn	0.007119	0.495085	0.246822
	Zn224	Zn	0.506694	0.745414	-0.004235
	Zn225	Zn	0.506900	0.243928	-0.005698
	Zn226	Zn	0.757146	-0.004627	0.495433
	Zn227	Zn	0.255713	-0.004749	0.494171
	N228	N	0.421364	0.957744	0.673770
	N229	N	0.595279	0.031411	0.677797
	N230	N	0.591243	0.957190	0.316724
	N231	N	0.416804	0.030089	0.313322
	N232	N	0.684223	0.409201	0.956765
	N233	N	0.683912	0.577923	0.032331
	N234	N	0.328434	0.579953	0.958207
	N235	N	0.331954	0.410290	0.032838
	N236	N	0.969543	0.672964	0.408078
	N237	N	0.042737	0.672595	0.580929
	N238	N	0.969453	0.315967	0.581155
	N239	N	0.042848	0.317386	0.408988
	N240	N	0.968440	0.409289	0.671924
	N241	N	0.042575	0.580245	0.672139
	N242	N	0.970311	0.582120	0.315158
	N243	N	0.044160	0.411224	0.320130
	N244	N	0.418978	0.675096	0.958872
	N245	N	0.594320	0.673431	0.031510
	N246	N	0.595537	0.312677	0.958630
	N247	N	0.420496	0.314516	0.030896
	N248	N	0.682122	0.956822	0.412584
	N249	N	0.685700	0.032655	0.581878
	N250	N	0.329198	0.957401	0.579237
	N251	N	0.327974	0.032340	0.408941
	N252	N	0.921321	0.458197	0.174398
	N253	N	0.094905	0.531416	0.176216
	N254	N	0.092483	0.457683	0.815718
	N255	N	0.917818	0.531128	0.813706
	N256	N	0.182752	0.910636	0.456470
	N257	N	0.183809	0.080109	0.531713
	N258	N	0.828577	0.080459	0.457432
	N259	N	0.831457	0.911267	0.532329
	N260	N	0.469584	0.173070	0.907792
	N261	N	0.543572	0.171772	0.080740
	N262	N	0.470031	0.814861	0.082722
	N263	N	0.543867	0.817016	0.911160
	N264	N	0.468447	0.908488	0.172572
	N265	N	0.542644	0.079056	0.172694
	N266	N	0.469368	0.080595	0.817158
	N267	N	0.544194	0.908875	0.819339
	N268	N	0.918143	0.175896	0.457916
	N269	N	0.093588	0.175132	0.530912
	N270	N	0.092474	0.815499	0.457801
	N271	N	0.918678	0.814420	0.529935
	N272	N	0.182630	0.456249	0.912466
	N273	N	0.186428	0.531783	0.081995
	N274	N	0.830866	0.456797	0.078765
	N275	N	0.828389	0.532184	0.909082
	O276	O	0.970945	1.011955	-0.050905
	H277	H	0.971260	1.014607	-0.055583
	H278	H	0.969842	1.017396	-0.050108
	O279	O	-0.046992	0.026202	0.977578
	H280	H	-0.051361	0.023254	0.988300
	H281	H	-0.033041	0.012949	0.973752
	O282	O	0.019527	0.006920	-0.077488
	H283	H	0.024897	0.005919	-0.069123
	H284	H	0.012874	0.007396	-0.072083
	O285	O	0.465114	0.543810	0.502583
	H286	H	0.464249	0.530126	0.505380
	H287	H	0.461687	0.541577	0.488038
	O288	O	0.053898	-0.062378	-0.087389
	H289	H	0.056984	-0.063735	-0.089554
	H290	H	0.050106	-0.061387	-0.083984
	O291	O	-0.057223	1.020830	-0.004305
	H292	H	-0.057473	1.011350	-0.007307
	H293	H	-0.059973	1.028737	-0.004303
	O294	O	0.043539	0.934224	-0.026101
	H295	H	0.050429	0.933123	-0.020748
	H296	H	0.031077	0.940494	-0.033121
	O297	O	0.429527	0.494656	0.502920
	H298	H	0.426761	0.498908	0.505265
	H299	H	0.417672	0.503333	0.502462
	O300	O	0.449748	0.498987	0.482065
	H301	H	0.451240	0.499368	0.483869
	H302	H	0.453970	0.493386	0.473321
	O303	O	1.034877	-0.048346	1.049957
	H304	H	1.033289	-0.053934	1.046668
	H305	H	1.038759	-0.048574	1.056365
	O306	O	0.030238	1.007764	0.886342
	H307	H	0.023254	1.011462	0.876320
	H308	H	0.025585	1.011217	0.885973
	O309	O	-0.053097	1.049829	1.005532
	H310	H	-0.061440	1.052064	1.002668
	H311	H	-0.046336	1.047062	0.994052
	O312	O	0.057887	-0.051210	0.917549
	H313	H	0.058072	-0.050027	0.908252
	H314	H	0.057799	-0.064422	0.919038
	O315	O	0.463357	0.525528	0.528995
	H316	H	0.461166	0.532291	0.524723
	H317	H	0.456724	0.530862	0.537118
	O318	O	-0.019858	0.080725	0.930863
	H319	H	-0.024005	0.081326	0.924578
	H320	H	-0.030858	0.084232	0.930745
	O321	O	0.075852	0.981131	0.988958
	H322	H	0.078153	0.988785	0.983948
	H323	H	0.081039	0.982442	0.990819
	O324	O	0.926207	0.026330	0.913269
	H325	H	0.930683	0.027630	0.914546
	H326	H	0.927486	0.022793	0.909619
	O327	O	1.002649	1.015490	0.979593
	H328	H	1.011043	1.024216	0.977399
	H329	H	0.994912	1.013880	0.987291
	O330	O	0.569981	0.445345	0.477195
	H331	H	0.566084	0.445173	0.485413
	H332	H	0.575948	0.433615	0.477383
	O333	O	0.533152	0.533727	0.491457
	H334	H	0.541212	0.531264	0.486289
	H335	H	0.544453	0.538503	0.492953
	O336	O	0.496271	0.524617	0.487910
	H337	H	0.503505	0.535147	0.490750
	H338	H	0.492113	0.526413	0.474842
	O339	O	0.523353	0.500176	0.437597
	H340	H	0.521267	0.505557	0.423718
	H341	H	0.535113	0.497816	0.438076
	O342	O	0.542783	0.440121	0.490713
	H343	H	0.539941	0.441766	0.486692
	H344	H	0.533405	0.439908	0.496433
	O345	O	0.531544	0.463763	0.548281
	H346	H	0.525012	0.466859	0.552592
	H347	H	0.528377	0.463110	0.551085
