data_Molecule from HDF5

_cell_length_a		16.123999
_cell_length_b		16.149217
_cell_length_c		16.337386
_cell_angle_alpha	89.762172
_cell_angle_beta	89.082307
_cell_angle_gamma	90.200779
_symmetry_space_group_name_H-M	'P 1'
_symmetry_Int_Tables_number		1

loop_
	_symmetry_equiv_pos_as_xyz
	x,y,z

loop_
	_atom_site_label
	_atom_site_type_symbol
	_atom_site_fract_x
	_atom_site_fract_y
	_atom_site_fract_z
	H0	H	0.397256	0.838507	0.720678
	H1	H	0.604086	0.166338	0.713844
	H2	H	0.606328	0.838349	0.282798
	H3	H	0.403420	0.165420	0.286236
	H4	H	0.723050	0.404647	0.838282
	H5	H	0.714462	0.601029	0.165637
	H6	H	0.293560	0.600383	0.837235
	H7	H	0.284489	0.400162	0.163244
	H8	H	0.838086	0.713583	0.405186
	H9	H	0.168830	0.715429	0.596413
	H10	H	0.839854	0.285786	0.604780
	H11	H	0.170271	0.289548	0.402522
	H12	H	0.841922	0.396146	0.724495
	H13	H	0.169806	0.601047	0.712567
	H14	H	0.839148	0.601051	0.288834
	H15	H	0.166994	0.399893	0.282172
	H16	H	0.405715	0.718297	0.838843
	H17	H	0.599601	0.717927	0.164318
	H18	H	0.606563	0.288340	0.837044
	H19	H	0.401902	0.286297	0.163749
	H20	H	0.717728	0.836210	0.399771
	H21	H	0.716593	0.166884	0.594268
	H22	H	0.285765	0.836655	0.603081
	H23	H	0.293874	0.167180	0.405455
	H24	H	0.899113	0.336701	0.219541
	H25	H	0.104155	0.664941	0.215066
	H26	H	0.107782	0.337827	0.785208
	H27	H	0.905351	0.664790	0.786038
	H28	H	0.221813	0.903649	0.338245
	H29	H	0.213877	0.098221	0.665578
	H30	H	0.794815	0.099316	0.336956
	H31	H	0.782829	0.899032	0.662025
	H32	H	0.337504	0.215485	0.904728
	H33	H	0.669401	0.214094	0.093907
	H34	H	0.337289	0.787544	0.102119
	H35	H	0.668989	0.790954	0.901744
	H36	H	0.339704	0.899110	0.222026
	H37	H	0.668632	0.102458	0.212569
	H38	H	0.337599	0.101790	0.788363
	H39	H	0.666992	0.901930	0.782719
	H40	H	0.905768	0.219255	0.339527
	H41	H	0.100908	0.214893	0.665326
	H42	H	0.105265	0.786850	0.337892
	H43	H	0.900915	0.785985	0.664849
	H44	H	0.217356	0.336948	0.903307
	H45	H	0.214007	0.667438	0.095048
	H46	H	0.786723	0.336908	0.102430
	H47	H	0.794470	0.667496	0.905568
	H48	H	0.402003	0.121052	0.594501
	H49	H	0.589316	0.882788	0.599262
	H50	H	0.595202	0.122073	0.396298
	H51	H	0.416530	0.883861	0.405219
	H52	H	0.593045	0.415017	0.115575
	H53	H	0.612154	0.590543	0.883934
	H54	H	0.406284	0.592670	0.118204
	H55	H	0.414161	0.408444	0.884858
	H56	H	0.123164	0.596098	0.403378
	H57	H	0.892520	0.581291	0.588843
	H58	H	0.124182	0.406580	0.596854
	H59	H	0.883497	0.398811	0.413764
	H60	H	0.123679	0.405220	0.591823
	H61	H	0.883332	0.586984	0.609688
	H62	H	0.120461	0.594019	0.411582
	H63	H	0.890053	0.413891	0.420287
	H64	H	0.410241	0.593189	0.116644
	H65	H	0.589182	0.588098	0.890089
	H66	H	0.586877	0.401939	0.116085
	H67	H	0.410151	0.406988	0.882762
	H68	H	0.591425	0.115170	0.412234
	H69	H	0.587394	0.887322	0.587379
	H70	H	0.412155	0.120641	0.602582
	H71	H	0.415627	0.886289	0.415269
	H72	H	0.905498	0.619933	0.092548
	H73	H	0.090667	0.384098	0.092237
	H74	H	0.095926	0.618852	0.907109
	H75	H	0.919223	0.384074	0.906918
	H76	H	0.100750	0.909045	0.618663
	H77	H	0.102334	0.091206	0.385434
	H78	H	0.906519	0.096033	0.619568
	H79	H	0.922266	0.912351	0.388752
	H80	H	0.621719	0.102376	0.909867
	H81	H	0.386100	0.091580	0.094865
	H82	H	0.624331	0.909144	0.099403
	H83	H	0.387002	0.915935	0.910831
	H84	H	0.620543	0.904358	0.085719
	H85	H	0.385326	0.091341	0.098027
	H86	H	0.616860	0.085766	0.909884
	H87	H	0.381919	0.907463	0.904044
	H88	H	0.905564	0.088605	0.617028
	H89	H	0.094489	0.095680	0.386671
	H90	H	0.088329	0.910950	0.615282
	H91	H	0.913592	0.895226	0.380769
	H92	H	0.102711	0.621552	0.906933
	H93	H	0.096910	0.382427	0.092103
	H94	H	0.910410	0.621477	0.103735
	H95	H	0.915876	0.386948	0.920164
	H96	H	0.413875	0.117247	0.590290
	H97	H	0.598926	0.882687	0.590872
	H98	H	0.608226	0.121601	0.408624
	H99	H	0.407180	0.881676	0.410849
	H100	H	0.601214	0.403877	0.120714
	H101	H	0.598314	0.609042	0.882476
	H102	H	0.407590	0.596343	0.118342
	H103	H	0.410797	0.411357	0.883904
	H104	H	0.121111	0.587159	0.405032
	H105	H	0.883629	0.602809	0.592860
	H106	H	0.121591	0.410910	0.593747
	H107	H	0.884660	0.413234	0.403523
	H108	H	0.917201	0.617014	0.094915
	H109	H	0.093467	0.381809	0.097456
	H110	H	0.099130	0.621664	0.900753
	H111	H	0.906309	0.381655	0.911913
	H112	H	0.092640	0.899726	0.619112
	H113	H	0.102753	0.099984	0.383785
	H114	H	0.913333	0.090922	0.616112
	H115	H	0.902220	0.912451	0.382282
	H116	H	0.623172	0.093158	0.894469
	H117	H	0.385324	0.094064	0.097051
	H118	H	0.616718	0.918313	0.089541
	H119	H	0.384837	0.904744	0.915565
	C120	C	0.379579	0.010621	0.624742
	C121	C	0.622468	0.993220	0.620076
	C122	C	0.626989	0.010755	0.376717
	C123	C	0.384034	0.992752	0.381634
	C124	C	0.625537	0.379371	0.009370
	C125	C	0.626208	0.624581	0.993190
	C126	C	0.381362	0.623026	0.009942
	C127	C	0.381148	0.379504	0.991808
	C128	C	0.012394	0.621776	0.379664
	C129	C	0.995702	0.620695	0.623127
	C130	C	0.014197	0.378289	0.624907
	C131	C	0.995093	0.379649	0.381501
	C132	C	0.880634	0.510257	0.125796
	C133	C	0.123733	0.491956	0.121694
	C134	C	0.127499	0.511168	0.877920
	C135	C	0.884905	0.492715	0.882835
	C136	C	0.125485	0.878604	0.510091
	C137	C	0.126116	0.123358	0.493380
	C138	C	0.882072	0.121960	0.509642
	C139	C	0.880855	0.877393	0.491599
	C140	C	0.511375	0.123099	0.878355
	C141	C	0.495023	0.121810	0.122656
	C142	C	0.511782	0.880305	0.122752
	C143	C	0.493716	0.880658	0.879740
	C144	C	0.379120	0.887085	0.681496
	C145	C	0.622727	0.117095	0.675422
	C146	C	0.625585	0.886996	0.321054
	C147	C	0.384675	0.116362	0.324908
	C148	C	0.684004	0.383393	0.886878
	C149	C	0.678115	0.621683	0.116453
	C150	C	0.329296	0.621234	0.886557
	C151	C	0.323504	0.380527	0.114610
	C152	C	0.887752	0.676336	0.384054
	C153	C	0.119671	0.677420	0.617675
	C154	C	0.889535	0.322871	0.624981
	C155	C	0.119858	0.325583	0.381893
	C156	C	0.890563	0.377975	0.684267
	C157	C	0.120178	0.620271	0.675449
	C158	C	0.888278	0.620270	0.326170
	C159	C	0.118423	0.380381	0.322129
	C160	C	0.385111	0.679881	0.887392
	C161	C	0.621269	0.680045	0.115664
	C162	C	0.625996	0.325428	0.886192
	C163	C	0.382123	0.323824	0.114758
	C164	C	0.681319	0.886256	0.379034
	C165	C	0.678786	0.117522	0.615961
	C166	C	0.323708	0.886083	0.622834
	C167	C	0.329921	0.117384	0.384220
	C168	C	0.880304	0.386172	0.181552
	C169	C	0.122974	0.615968	0.176800
	C170	C	0.126219	0.386917	0.823412
	C171	C	0.885942	0.616292	0.825436
	C172	C	0.183331	0.882246	0.387082
	C173	C	0.178232	0.119536	0.616444
	C174	C	0.830641	0.119933	0.386246
	C175	C	0.822208	0.879159	0.613890
	C176	C	0.386847	0.177989	0.883320
	C177	C	0.619560	0.177155	0.116343
	C178	C	0.386972	0.824729	0.122348
	C179	C	0.618966	0.826974	0.881150
	C180	C	0.388200	0.880286	0.181834
	C181	C	0.619318	0.121373	0.175265
	C182	C	0.386983	0.121609	0.825350
	C183	C	0.617811	0.881748	0.821405
	C184	C	0.885775	0.179688	0.387671
	C185	C	0.121621	0.177416	0.616517
	C186	C	0.125339	0.824111	0.386766
	C187	C	0.880765	0.822723	0.615208
	C188	C	0.181025	0.386476	0.881961
	C189	C	0.178390	0.617066	0.117451
	C190	C	0.824150	0.386489	0.123567
	C191	C	0.830699	0.617508	0.884777
	C192	C	0.402623	0.097114	0.602303
	C193	C	0.599037	0.906609	0.598601
	C194	C	0.605003	0.097348	0.399188
	C195	C	0.406428	0.906225	0.403859
	C196	C	0.600982	0.400756	0.095157
	C197	C	0.605885	0.602466	0.907583
	C198	C	0.402053	0.600636	0.095705
	C199	C	0.404811	0.402190	0.906151
	C200	C	0.098960	0.599062	0.400605
	C201	C	0.908882	0.597193	0.603175
	C202	C	0.100598	0.400959	0.600988
	C203	C	0.908527	0.402133	0.405590
	C204	C	0.903970	0.597049	0.103720
	C205	C	0.100528	0.405188	0.100215
	C206	C	0.105731	0.598167	0.898722
	C207	C	0.907338	0.406638	0.906053
	C208	C	0.101085	0.900103	0.595483
	C209	C	0.105761	0.101874	0.407336
	C210	C	0.902398	0.098616	0.595497
	C211	C	0.905479	0.900075	0.405961
	C212	C	0.598165	0.100457	0.898727
	C213	C	0.408051	0.099022	0.102560
	C214	C	0.598138	0.903786	0.098695
	C215	C	0.407061	0.902752	0.903308
	Zn216	Zn	0.502112	0.001642	0.750445
	Zn217	Zn	0.504185	0.001142	0.251764
	Zn218	Zn	0.754788	0.502082	0.002810
	Zn219	Zn	0.252818	0.501901	0.000374
	Zn220	Zn	0.002887	0.749229	0.501402
	Zn221	Zn	0.004090	0.251352	0.502537
	Zn222	Zn	0.005294	0.500330	0.752312
	Zn223	Zn	0.002795	0.500328	0.252008
	Zn224	Zn	0.502908	0.752628	0.001077
	Zn225	Zn	0.502977	0.250094	-0.000097
	Zn226	Zn	0.753055	0.000836	0.499441
	Zn227	Zn	0.254581	0.001691	0.501944
	N228	N	0.413493	0.965262	0.682481
	N229	N	0.588484	0.038737	0.678120
	N230	N	0.592585	0.965378	0.319388
	N231	N	0.417670	0.037823	0.323254
	N232	N	0.683883	0.416206	0.964689
	N233	N	0.681616	0.587963	0.039143
	N234	N	0.326642	0.586726	0.963739
	N235	N	0.322962	0.414516	0.037242
	N236	N	0.965807	0.677535	0.416803
	N237	N	0.041025	0.677814	0.585785
	N238	N	0.967202	0.322729	0.588964
	N239	N	0.042043	0.324953	0.418155
	N240	N	0.969188	0.411736	0.684439
	N241	N	0.042048	0.585939	0.678957
	N242	N	0.966836	0.587114	0.323246
	N243	N	0.039798	0.413152	0.321598
	N244	N	0.417118	0.680943	0.964915
	N245	N	0.589760	0.681925	0.037928
	N246	N	0.590420	0.322868	0.963293
	N247	N	0.417155	0.322742	0.037315
	N248	N	0.682216	0.964092	0.413188
	N249	N	0.678436	0.039591	0.582009
	N250	N	0.323907	0.963967	0.588161
	N251	N	0.329319	0.039577	0.418822
	N252	N	0.914823	0.464279	0.183001
	N253	N	0.089518	0.537242	0.179705
	N254	N	0.093633	0.465562	0.820528
	N255	N	0.918780	0.537860	0.824004
	N256	N	0.183559	0.915328	0.464672
	N257	N	0.181150	0.086740	0.538889
	N258	N	0.828182	0.084721	0.463152
	N259	N	0.821824	0.911976	0.535979
	N260	N	0.465228	0.178844	0.915588
	N261	N	0.541165	0.177522	0.084315
	N262	N	0.464803	0.824641	0.086282
	N263	N	0.540685	0.825730	0.916321
	N264	N	0.466899	0.913821	0.182310
	N265	N	0.540790	0.087648	0.179319
	N266	N	0.465442	0.087878	0.822257
	N267	N	0.538995	0.914293	0.820324
	N268	N	0.916893	0.181216	0.465588
	N269	N	0.089874	0.179918	0.538840
	N270	N	0.090070	0.821705	0.464073
	N271	N	0.916459	0.821315	0.537987
	N272	N	0.182125	0.464679	0.914882
	N273	N	0.179029	0.538939	0.084115
	N274	N	0.824198	0.464647	0.089540
	N275	N	0.829816	0.539710	0.919801
	O276	O	-0.017367	-0.058379	0.000600
	H277	H	-0.026803	-0.061860	-0.003199
	H278	H	-0.019849	-0.061327	0.002823
	O279	O	0.493577	0.478693	0.388252
	H280	H	0.481609	0.482968	0.385387
	H281	H	0.492287	0.476207	0.382348
	O282	O	0.621708	0.649949	0.588847
	H283	H	0.613691	0.645277	0.589800
	H284	H	0.628101	0.648765	0.596128
	O285	O	-0.060921	0.956237	0.988086
	H286	H	-0.060629	0.941802	0.992115
	H287	H	-0.058037	0.949227	0.995596
	O288	O	0.972159	-0.036451	0.037059
	H289	H	0.980563	-0.031442	0.045336
	H290	H	0.971071	-0.039511	0.045728
	O291	O	0.970410	0.976583	0.969023
	H292	H	0.965300	0.983253	0.960172
	H293	H	0.966170	0.954660	0.970490
	O294	O	0.571771	1.484061	0.587542
	H295	H	0.577184	1.481245	0.576513
	H296	H	0.574724	1.492583	0.587243
	O297	O	1.004018	-0.048916	0.994100
	H298	H	0.999773	-0.043542	0.993509
	H299	H	1.006412	-0.041315	0.993589
	O300	O	0.495736	0.450823	0.444095
	H301	H	0.496984	0.452735	0.435759
	H302	H	0.504084	0.439541	0.438278
	O303	O	1.048278	-0.008204	0.038221
	H304	H	1.043177	-0.008812	0.037851
	H305	H	1.050357	-0.005404	0.031588
	O306	O	-0.063248	1.006582	1.046013
	H307	H	-0.065170	1.005871	1.047020
	H308	H	-0.070545	1.001316	1.049940
	O309	O	0.382404	0.440343	0.530050
	H310	H	0.371629	0.448531	0.534060
	H311	H	0.386446	0.442195	0.525778
	O312	O	1.536496	0.498825	0.471622
	H313	H	1.531665	0.504707	0.455174
	H314	H	1.532520	0.488157	0.479051
	O315	O	0.438577	0.496274	0.515036
	H316	H	0.440607	0.515229	0.515585
	H317	H	0.443313	0.491475	0.510557
	O318	O	0.527729	0.480223	0.597144
	H319	H	0.523432	0.485033	0.605045
	H320	H	0.521605	0.493627	0.605218
	O321	O	1.002136	0.951791	1.080171
	H322	H	1.004313	0.948618	1.087071
	H323	H	0.996803	0.946860	1.087834
	O324	O	0.521160	0.525664	0.519227
	H325	H	0.510265	0.535673	0.511173
	H326	H	0.513217	0.518041	0.523050
	O327	O	0.579127	0.511295	0.382193
	H328	H	0.573538	0.501969	0.377646
	H329	H	0.579601	0.521549	0.386160
	O330	O	0.929264	0.060867	0.951128
	H331	H	0.926632	0.060556	0.961886
	H332	H	0.925554	0.080606	0.940911
	O333	O	0.957425	1.013332	0.003373
	H334	H	0.945586	1.007429	0.008870
	H335	H	0.966476	1.013854	0.004794
	O336	O	0.621996	0.613221	0.548400
	H337	H	0.631308	0.614887	0.565461
	H338	H	0.632696	0.596847	0.544067
	O339	O	0.402140	0.488185	0.505265
	H340	H	0.387866	0.492572	0.515602
	H341	H	0.395474	0.498480	0.497156
	O342	O	0.048380	1.043944	0.067418
	H343	H	0.047580	1.049012	0.067095
	H344	H	0.056485	1.052373	0.058685
	O345	O	0.055218	0.047796	0.015991
	H346	H	0.058605	0.051403	0.014687
	H347	H	0.054904	0.054211	0.018618
	O348	O	-0.487786	0.470787	0.415223
	H349	H	-0.476029	0.470812	0.409564
	H350	H	-0.491887	0.468410	0.417558
	O351	O	0.522406	0.466698	0.571525
	H352	H	0.530379	0.463889	0.576439
	H353	H	0.512533	0.471448	0.575152
	O354	O	0.514937	0.455796	0.523506
	H355	H	0.517787	0.457611	0.519391
	H356	H	0.510397	0.449856	0.525934
	O357	O	0.416489	0.578503	0.431844
	H358	H	0.405216	0.566970	0.428125
	H359	H	0.413666	0.566624	0.437473
	O360	O	-0.050595	0.063650	-0.052057
	H361	H	-0.056320	0.065147	-0.053326
	H362	H	-0.051495	0.062816	-0.047375
	O363	O	0.559213	0.477055	0.489031
	H364	H	0.562528	0.485993	0.486575
	H365	H	0.555860	0.476780	0.502734
	O366	O	-0.560106	-0.487339	1.436194
	H367	H	-0.563654	-0.489957	1.442808
	H368	H	-0.543854	-0.481212	1.432878
	O369	O	0.481728	0.607856	0.582211
	H370	H	0.493499	0.610869	0.589906
	H371	H	0.480356	0.605411	0.583819
