data_Molecule from HDF5

_cell_length_a		16.181145
_cell_length_b		16.304860
_cell_length_c		16.201838
_cell_angle_alpha	90.192130
_cell_angle_beta	89.681954
_cell_angle_gamma	89.887708
_symmetry_space_group_name_H-M	'P 1'
_symmetry_Int_Tables_number		1

loop_
	_symmetry_equiv_pos_as_xyz
	x,y,z

loop_
	_atom_site_label
	_atom_site_type_symbol
	_atom_site_fract_x
	_atom_site_fract_y
	_atom_site_fract_z
	H0	H	0.403722	0.833218	0.717566
	H1	H	0.601032	0.160249	0.715670
	H2	H	0.603675	0.833007	0.286008
	H3	H	0.406492	0.159901	0.290003
	H4	H	0.718651	0.399198	0.839491
	H5	H	0.714088	0.594178	0.168920
	H6	H	0.291138	0.593710	0.838968
	H7	H	0.291210	0.400911	0.168411
	H8	H	0.839089	0.710347	0.405737
	H9	H	0.168068	0.710013	0.602047
	H10	H	0.838906	0.282216	0.603600
	H11	H	0.167476	0.281516	0.404015
	H12	H	0.838511	0.399332	0.717693
	H13	H	0.168887	0.593303	0.716171
	H14	H	0.837502	0.592632	0.293173
	H15	H	0.167503	0.397348	0.288870
	H16	H	0.404980	0.711227	0.838877
	H17	H	0.602161	0.712481	0.167356
	H18	H	0.605461	0.281750	0.839319
	H19	H	0.403567	0.282429	0.166688
	H20	H	0.719814	0.833491	0.401227
	H21	H	0.716392	0.160478	0.599481
	H22	H	0.290171	0.831746	0.599523
	H23	H	0.289101	0.159389	0.403717
	H24	H	0.904203	0.332056	0.217513
	H25	H	0.099488	0.659790	0.218597
	H26	H	0.103344	0.333019	0.788782
	H27	H	0.905634	0.659649	0.791735
	H28	H	0.217392	0.897304	0.337362
	H29	H	0.215594	0.092468	0.667654
	H30	H	0.792520	0.093888	0.337364
	H31	H	0.786794	0.898645	0.666638
	H32	H	0.339305	0.212165	0.904074
	H33	H	0.668214	0.210859	0.100802
	H34	H	0.339692	0.784635	0.102821
	H35	H	0.668402	0.781852	0.901395
	H36	H	0.339448	0.901200	0.215166
	H37	H	0.668407	0.095934	0.215511
	H38	H	0.338174	0.094663	0.791102
	H39	H	0.668484	0.899064	0.787158
	H40	H	0.904350	0.211452	0.339864
	H41	H	0.101961	0.210444	0.667274
	H42	H	0.104491	0.778711	0.339611
	H43	H	0.903700	0.783052	0.668695
	H44	H	0.218805	0.332779	0.905377
	H45	H	0.215841	0.659808	0.102911
	H46	H	0.787983	0.332682	0.102246
	H47	H	0.790641	0.660009	0.908111
	H48	H	0.416289	0.110616	0.596024
	H49	H	0.594697	0.881053	0.592254
	H50	H	0.588682	0.110392	0.412080
	H51	H	0.412636	0.878103	0.401775
	H52	H	0.599874	0.410968	0.120499
	H53	H	0.600255	0.582476	0.887324
	H54	H	0.415969	0.592431	0.119215
	H55	H	0.406844	0.407351	0.885819
	H56	H	0.120702	0.591844	0.415400
	H57	H	0.886138	0.591547	0.594243
	H58	H	0.123531	0.391593	0.594169
	H59	H	0.887257	0.400047	0.418838
	H60	H	0.116553	0.408772	0.587804
	H61	H	0.886485	0.585370	0.600898
	H62	H	0.118311	0.581725	0.412524
	H63	H	0.885962	0.408908	0.409234
	H64	H	0.406989	0.599955	0.124628
	H65	H	0.589232	0.591304	0.887855
	H66	H	0.586903	0.403468	0.117823
	H67	H	0.417002	0.405877	0.887133
	H68	H	0.606395	0.114195	0.414656
	H69	H	0.596630	0.879934	0.593885
	H70	H	0.404330	0.112719	0.590630
	H71	H	0.413894	0.880596	0.411865
	H72	H	0.904145	0.610485	0.086526
	H73	H	0.094782	0.379982	0.095432
	H74	H	0.093863	0.609804	0.918118
	H75	H	0.906082	0.376890	0.911037
	H76	H	0.094828	0.904852	0.619434
	H77	H	0.087961	0.083970	0.388953
	H78	H	0.914426	0.090682	0.619908
	H79	H	0.921779	0.891294	0.385716
	H80	H	0.621497	0.087576	0.904482
	H81	H	0.384669	0.097878	0.093816
	H82	H	0.623332	0.903676	0.099375
	H83	H	0.382166	0.898842	0.901329
	H84	H	0.623163	0.898753	0.089581
	H85	H	0.389407	0.086110	0.090796
	H86	H	0.622924	0.095030	0.908132
	H87	H	0.387027	0.898783	0.919508
	H88	H	0.907619	0.091124	0.621729
	H89	H	0.096561	0.098295	0.382472
	H90	H	0.095577	0.900438	0.620368
	H91	H	0.900026	0.899553	0.381248
	H92	H	0.105555	0.616004	0.909593
	H93	H	0.100383	0.378119	0.096229
	H94	H	0.899891	0.618352	0.109395
	H95	H	0.913572	0.379062	0.906969
	H96	H	0.406429	0.115469	0.603399
	H97	H	0.594158	0.880734	0.594752
	H98	H	0.598394	0.116889	0.397869
	H99	H	0.404435	0.878424	0.409099
	H100	H	0.598254	0.395892	0.124785
	H101	H	0.601625	0.595957	0.883096
	H102	H	0.403989	0.587082	0.121380
	H103	H	0.411538	0.398433	0.883903
	H104	H	0.123042	0.588516	0.405439
	H105	H	0.883844	0.594250	0.601995
	H106	H	0.123242	0.407330	0.606812
	H107	H	0.882396	0.397163	0.407451
	H108	H	0.922406	0.610409	0.103006
	H109	H	0.096945	0.378438	0.099884
	H110	H	0.091449	0.613630	0.903103
	H111	H	0.912510	0.381478	0.915714
	H112	H	0.098558	0.903375	0.620495
	H113	H	0.105021	0.083979	0.384195
	H114	H	0.909371	0.085119	0.618865
	H115	H	0.916963	0.913923	0.391221
	H116	H	0.619481	0.088237	0.912730
	H117	H	0.384265	0.088050	0.102650
	H118	H	0.620235	0.909223	0.090774
	H119	H	0.390205	0.914057	0.909621
	C120	C	0.380766	0.004738	0.624646
	C121	C	0.624292	0.988285	0.622833
	C122	C	0.626942	0.005643	0.378715
	C123	C	0.381865	0.987343	0.380331
	C124	C	0.625223	0.375128	0.012485
	C125	C	0.624576	0.618312	0.994641
	C126	C	0.381273	0.619961	0.012343
	C127	C	0.383031	0.375996	0.994518
	C128	C	0.011616	0.616242	0.383192
	C129	C	0.994647	0.618201	0.626591
	C130	C	0.012196	0.374597	0.625554
	C131	C	0.994407	0.373901	0.382570
	C132	C	0.880386	0.504621	0.126812
	C133	C	0.124664	0.487408	0.125707
	C134	C	0.126200	0.505218	0.881649
	C135	C	0.882375	0.487400	0.883190
	C136	C	0.125346	0.873741	0.511547
	C137	C	0.124959	0.116941	0.494171
	C138	C	0.882190	0.117720	0.511796
	C139	C	0.882409	0.873928	0.494858
	C140	C	0.512136	0.118471	0.881088
	C141	C	0.495088	0.119006	0.124092
	C142	C	0.512947	0.876378	0.122821
	C143	C	0.495198	0.874923	0.880249
	C144	C	0.383553	0.881921	0.679638
	C145	C	0.621674	0.111312	0.678111
	C146	C	0.624194	0.882130	0.323586
	C147	C	0.385206	0.111010	0.326829
	C148	C	0.680698	0.378325	0.888410
	C149	C	0.677587	0.615012	0.119329
	C150	C	0.327795	0.615268	0.888354
	C151	C	0.328180	0.379450	0.118950
	C152	C	0.888043	0.671912	0.385895
	C153	C	0.118982	0.672461	0.622947
	C154	C	0.888131	0.319900	0.623573
	C155	C	0.118343	0.319192	0.383987
	C156	C	0.887900	0.378031	0.680349
	C157	C	0.119329	0.614248	0.679493
	C158	C	0.887194	0.613473	0.329912
	C159	C	0.118347	0.376393	0.326500
	C160	C	0.384486	0.673551	0.888161
	C161	C	0.621676	0.673663	0.118572
	C162	C	0.624414	0.320097	0.888421
	C163	C	0.384025	0.320709	0.118013
	C164	C	0.681922	0.882297	0.380899
	C165	C	0.679125	0.111433	0.620341
	C166	C	0.327271	0.881003	0.620842
	C167	C	0.326834	0.110594	0.383582
	C168	C	0.883332	0.381296	0.180558
	C169	C	0.120681	0.610785	0.180859
	C170	C	0.123921	0.381786	0.826615
	C171	C	0.885430	0.610925	0.829267
	C172	C	0.180227	0.876378	0.386961
	C173	C	0.178599	0.113384	0.618441
	C174	C	0.828670	0.114717	0.387280
	C175	C	0.825814	0.877731	0.618285
	C176	C	0.388410	0.173967	0.883870
	C177	C	0.618952	0.173578	0.121138
	C178	C	0.388847	0.822460	0.121849
	C179	C	0.619122	0.819751	0.881611
	C180	C	0.388937	0.880246	0.178066
	C181	C	0.619194	0.116290	0.178133
	C182	C	0.387891	0.115662	0.827529
	C183	C	0.619152	0.878042	0.824808
	C184	C	0.884661	0.173160	0.388371
	C185	C	0.122365	0.172161	0.618253
	C186	C	0.124044	0.817556	0.388086
	C187	C	0.883617	0.820105	0.618995
	C188	C	0.181244	0.381742	0.884749
	C189	C	0.178477	0.610790	0.123422
	C190	C	0.825603	0.381543	0.123173
	C191	C	0.828039	0.611059	0.887150
	C192	C	0.402396	0.090648	0.603063
	C193	C	0.601911	0.902691	0.600193
	C194	C	0.604444	0.091603	0.401461
	C195	C	0.403808	0.901268	0.401434
	C196	C	0.602020	0.397002	0.098762
	C197	C	0.603533	0.596220	0.908324
	C198	C	0.402747	0.599512	0.099177
	C199	C	0.405264	0.397596	0.908038
	C200	C	0.098236	0.593932	0.404815
	C201	C	0.907976	0.596868	0.605281
	C202	C	0.098814	0.396256	0.603030
	C203	C	0.907629	0.395714	0.405255
	C204	C	0.902165	0.590885	0.105920
	C205	C	0.103476	0.401151	0.103656
	C206	C	0.103599	0.590960	0.903706
	C207	C	0.904318	0.401505	0.904898
	C208	C	0.102922	0.896309	0.597904
	C209	C	0.103141	0.095193	0.407604
	C210	C	0.903950	0.095439	0.597884
	C211	C	0.905864	0.895251	0.408450
	C212	C	0.598946	0.096712	0.902299
	C213	C	0.408425	0.096873	0.102320
	C214	C	0.599747	0.897585	0.099911
	C215	C	0.408662	0.897149	0.903522
	Zn216	Zn	0.502943	-0.002812	0.752703
	Zn217	Zn	0.504319	-0.003029	0.251429
	Zn218	Zn	0.752919	0.496485	0.004507
	Zn219	Zn	0.254096	0.496812	0.004244
	Zn220	Zn	0.003954	0.745168	0.503918
	Zn221	Zn	0.003199	0.246121	0.503591
	Zn222	Zn	0.003459	0.496201	0.753677
	Zn223	Zn	0.002635	0.495448	0.254593
	Zn224	Zn	0.503838	0.747496	0.002933
	Zn225	Zn	0.503836	0.247209	0.002987
	Zn226	Zn	0.754117	-0.003688	0.501727
	Zn227	Zn	0.253135	-0.004417	0.502105
	N228	N	0.415950	0.959799	0.682154
	N229	N	0.588099	0.034035	0.679577
	N230	N	0.591063	0.960024	0.321857
	N231	N	0.418988	0.033632	0.324756
	N232	N	0.681046	0.411945	0.966330
	N233	N	0.679568	0.581246	0.041342
	N234	N	0.325379	0.582895	0.966700
	N235	N	0.327467	0.413159	0.041045
	N236	N	0.966468	0.673773	0.418327
	N237	N	0.040548	0.674858	0.590602
	N238	N	0.966503	0.317633	0.590170
	N239	N	0.040181	0.317573	0.417913
	N240	N	0.965890	0.411342	0.681621
	N241	N	0.041068	0.581319	0.681836
	N242	N	0.965120	0.579535	0.328093
	N243	N	0.040144	0.409754	0.325427
	N244	N	0.417094	0.676585	0.966347
	N245	N	0.589364	0.675949	0.040262
	N246	N	0.590413	0.318076	0.966471
	N247	N	0.417507	0.318634	0.039776
	N248	N	0.683676	0.959869	0.414584
	N249	N	0.680769	0.033862	0.586524
	N250	N	0.325183	0.958476	0.587442
	N251	N	0.324665	0.032795	0.416074
	N252	N	0.916597	0.458875	0.182980
	N253	N	0.087769	0.533021	0.182192
	N254	N	0.090621	0.459494	0.824351
	N255	N	0.918264	0.533104	0.826564
	N256	N	0.181108	0.910558	0.464746
	N257	N	0.180263	0.079920	0.540357
	N258	N	0.826981	0.080683	0.464947
	N259	N	0.824881	0.910423	0.540024
	N260	N	0.466806	0.176038	0.916309
	N261	N	0.540774	0.175258	0.088341
	N262	N	0.467110	0.819799	0.088356
	N263	N	0.540895	0.817777	0.915413
	N264	N	0.467266	0.913166	0.178687
	N265	N	0.541083	0.082996	0.180152
	N266	N	0.465925	0.081822	0.825736
	N267	N	0.541032	0.911575	0.823982
	N268	N	0.917278	0.174949	0.466601
	N269	N	0.089604	0.174442	0.539991
	N270	N	0.090673	0.815772	0.466348
	N271	N	0.918199	0.817978	0.541176
	N272	N	0.182869	0.459408	0.918159
	N273	N	0.181109	0.533183	0.089976
	N274	N	0.823948	0.459279	0.090382
	N275	N	0.826128	0.533337	0.920068
	O276	O	1.046767	0.966095	0.015146
	H277	H	1.049350	0.973121	0.015163
	H278	H	1.050572	0.955154	0.008285
	O279	O	0.062725	-0.063164	-0.040656
	H280	H	0.068790	-0.068138	-0.058747
	H281	H	0.068902	-0.063890	-0.038877
	O282	O	0.007106	-0.024878	1.026560
	H283	H	0.018027	-0.025133	1.028669
	H284	H	0.006003	-0.031918	1.019796
	O285	O	0.499149	0.531682	0.505753
	H286	H	0.498181	0.535092	0.505936
	H287	H	0.500080	0.529595	0.495639
	O288	O	0.527932	0.538337	0.550337
	H289	H	0.522118	0.533915	0.558176
	H290	H	0.531633	0.542621	0.543633
	O291	O	0.500160	0.505689	0.502436
	H292	H	0.495516	0.506173	0.506309
	H293	H	0.499568	0.502897	0.504609
	O294	O	0.022820	-0.038446	-0.030515
	H295	H	0.022156	-0.033459	-0.031074
	H296	H	0.016919	-0.036714	-0.026422
	O297	O	0.485379	0.532803	0.529452
	H298	H	0.483726	0.529720	0.525711
	H299	H	0.486296	0.542972	0.535477
	O300	O	0.046398	0.961451	0.960050
	H301	H	0.042884	0.957093	0.951947
	H302	H	0.051058	0.964496	0.954240
	O303	O	0.506342	0.486475	0.530196
	H304	H	0.507987	0.472851	0.533826
	H305	H	0.509041	0.485359	0.536406
	O306	O	-0.006831	-0.053779	1.019789
	H307	H	-0.007780	-0.050176	1.019175
	H308	H	-0.002194	-0.067244	1.012926
	O309	O	0.981573	0.981410	0.972701
	H310	H	0.975805	0.974971	0.984802
	H311	H	0.979228	0.986849	0.977488
	O312	O	0.491235	0.480143	0.478475
	H313	H	0.487829	0.497454	0.481212
	H314	H	0.489780	0.478513	0.484535
	O315	O	-0.042260	0.981855	0.045576
	H316	H	-0.039944	0.980010	0.048923
	H317	H	-0.041791	0.978233	0.039010
	O318	O	0.000146	0.923009	-0.047162
	H319	H	-0.012430	0.927108	-0.037152
	H320	H	-0.003752	0.918378	-0.043689
	O321	O	0.997795	0.978364	-0.049575
	H322	H	0.999977	0.975821	-0.043991
	H323	H	0.999458	0.979546	-0.053076
