data_Molecule from HDF5

_cell_length_a		16.271311
_cell_length_b		16.179490
_cell_length_c		16.143182
_cell_angle_alpha	89.555083
_cell_angle_beta	90.308957
_cell_angle_gamma	90.133421
_symmetry_space_group_name_H-M	'P 1'
_symmetry_Int_Tables_number		1

loop_
	_symmetry_equiv_pos_as_xyz
	x,y,z

loop_
	_atom_site_label
	_atom_site_type_symbol
	_atom_site_fract_x
	_atom_site_fract_y
	_atom_site_fract_z
	H0	H	0.397094	0.834855	0.715262
	H1	H	0.591152	0.165370	0.711378
	H2	H	0.593370	0.834904	0.286958
	H3	H	0.394906	0.164251	0.284001
	H4	H	0.708576	0.400316	0.834799
	H5	H	0.711775	0.600053	0.162357
	H6	H	0.276913	0.601709	0.835147
	H7	H	0.281311	0.399892	0.164348
	H8	H	0.831193	0.715987	0.397536
	H9	H	0.157421	0.714197	0.600270
	H10	H	0.831796	0.279687	0.603541
	H11	H	0.157029	0.285026	0.402682
	H12	H	0.830288	0.398158	0.713996
	H13	H	0.158304	0.595789	0.713200
	H14	H	0.830345	0.600969	0.283324
	H15	H	0.158302	0.402191	0.289143
	H16	H	0.395004	0.714558	0.834346
	H17	H	0.592558	0.710906	0.165060
	H18	H	0.590913	0.288374	0.833103
	H19	H	0.394423	0.283628	0.162768
	H20	H	0.707309	0.833693	0.404448
	H21	H	0.713136	0.161659	0.604532
	H22	H	0.281156	0.833957	0.600555
	H23	H	0.277824	0.162438	0.397243
	H24	H	0.894912	0.334821	0.216377
	H25	H	0.091681	0.665659	0.212145
	H26	H	0.091523	0.333960	0.789475
	H27	H	0.896513	0.664003	0.783654
	H28	H	0.208044	0.900333	0.335837
	H29	H	0.211140	0.097937	0.664790
	H30	H	0.777144	0.100330	0.337287
	H31	H	0.780020	0.895785	0.665685
	H32	H	0.329807	0.213350	0.897899
	H33	H	0.656978	0.216021	0.098891
	H34	H	0.330146	0.783647	0.098577
	H35	H	0.657735	0.786135	0.901898
	H36	H	0.329102	0.899933	0.213225
	H37	H	0.657116	0.099971	0.215613
	H38	H	0.330493	0.097575	0.784679
	H39	H	0.657925	0.903658	0.789011
	H40	H	0.893638	0.214245	0.336413
	H41	H	0.093405	0.210396	0.665770
	H42	H	0.090776	0.788482	0.334433
	H43	H	0.896897	0.783447	0.664731
	H44	H	0.205759	0.334720	0.903994
	H45	H	0.209562	0.664424	0.098332
	H46	H	0.776658	0.335702	0.102589
	H47	H	0.778673	0.663243	0.896164
	H48	H	0.391498	0.119456	0.587877
	H49	H	0.585362	0.880798	0.600704
	H50	H	0.584785	0.113209	0.415158
	H51	H	0.394249	0.883198	0.417861
	H52	H	0.584053	0.403203	0.117518
	H53	H	0.595097	0.591781	0.878510
	H54	H	0.400011	0.589495	0.117263
	H55	H	0.402409	0.407562	0.881716
	H56	H	0.108712	0.591768	0.413153
	H57	H	0.875828	0.585300	0.599422
	H58	H	0.113552	0.401912	0.598317
	H59	H	0.876813	0.409993	0.408021
	H60	H	0.111203	0.402348	0.590676
	H61	H	0.874030	0.600988	0.591140
	H62	H	0.111144	0.589526	0.403420
	H63	H	0.875623	0.404931	0.405899
	H64	H	0.402935	0.589693	0.116808
	H65	H	0.581141	0.588254	0.884727
	H66	H	0.588869	0.408696	0.116882
	H67	H	0.395079	0.403553	0.877619
	H68	H	0.593071	0.119062	0.407157
	H69	H	0.583787	0.883432	0.591548
	H70	H	0.402879	0.119511	0.601877
	H71	H	0.394875	0.876528	0.398640
	H72	H	0.897881	0.617934	0.090105
	H73	H	0.087998	0.382801	0.094412
	H74	H	0.095585	0.618831	0.907331
	H75	H	0.902473	0.385566	0.916601
	H76	H	0.075240	0.897464	0.617548
	H77	H	0.090175	0.087691	0.382394
	H78	H	0.906166	0.081727	0.616302
	H79	H	0.903371	0.913713	0.385354
	H80	H	0.612383	0.106224	0.913885
	H81	H	0.377145	0.085476	0.097494
	H82	H	0.611114	0.903481	0.094635
	H83	H	0.375367	0.909513	0.900438
	H84	H	0.609479	0.907384	0.090990
	H85	H	0.374095	0.100534	0.093562
	H86	H	0.606364	0.082924	0.912505
	H87	H	0.374886	0.898862	0.907524
	H88	H	0.906709	0.095269	0.618984
	H89	H	0.080858	0.092001	0.384405
	H90	H	0.101928	0.898813	0.624502
	H91	H	0.900725	0.901936	0.380967
	H92	H	0.081913	0.619154	0.897773
	H93	H	0.089356	0.381417	0.095606
	H94	H	0.904660	0.617431	0.094917
	H95	H	0.891174	0.378545	0.907132
	H96	H	0.408632	0.113158	0.584474
	H97	H	0.592237	0.880077	0.593315
	H98	H	0.581069	0.115988	0.403568
	H99	H	0.411541	0.884540	0.408198
	H100	H	0.582247	0.410674	0.113783
	H101	H	0.583340	0.601477	0.879242
	H102	H	0.401566	0.592629	0.117800
	H103	H	0.394700	0.412207	0.880895
	H104	H	0.113061	0.599359	0.407042
	H105	H	0.880747	0.587561	0.582175
	H106	H	0.109869	0.408951	0.594891
	H107	H	0.877728	0.405745	0.411541
	H108	H	0.904573	0.614416	0.086251
	H109	H	0.086976	0.381285	0.096857
	H110	H	0.081054	0.614551	0.914103
	H111	H	0.905673	0.381120	0.901358
	H112	H	0.087889	0.921060	0.614084
	H113	H	0.088604	0.098773	0.380847
	H114	H	0.895655	0.089018	0.620851
	H115	H	0.892076	0.910822	0.381612
	H116	H	0.616155	0.095241	0.893558
	H117	H	0.380306	0.090095	0.082229
	H118	H	0.611766	0.908057	0.096637
	H119	H	0.379152	0.910390	0.912166
	C120	C	0.372738	0.008221	0.621101
	C121	C	0.616002	0.990296	0.623301
	C122	C	0.615136	0.007338	0.380203
	C123	C	0.371650	0.990191	0.378077
	C124	C	0.614242	0.379151	0.007157
	C125	C	0.615571	0.621621	0.990184
	C126	C	0.372267	0.620953	0.008030
	C127	C	0.370533	0.377842	0.989508
	C128	C	0.002805	0.622359	0.377838
	C129	C	0.985206	0.620141	0.620497
	C130	C	0.003292	0.375548	0.623440
	C131	C	0.985185	0.378292	0.379886
	C132	C	0.872938	0.508013	0.121115
	C133	C	0.116773	0.491228	0.123185
	C134	C	0.114483	0.508060	0.878882
	C135	C	0.871683	0.490344	0.877570
	C136	C	0.115633	0.878023	0.509192
	C137	C	0.116006	0.120708	0.491805
	C138	C	0.872255	0.119798	0.510286
	C139	C	0.871755	0.877782	0.491633
	C140	C	0.502991	0.122563	0.877047
	C141	C	0.485171	0.121748	0.120850
	C142	C	0.502343	0.877225	0.122086
	C143	C	0.484744	0.878308	0.878776
	C144	C	0.376232	0.883988	0.677184
	C145	C	0.612739	0.115173	0.675938
	C146	C	0.612956	0.883758	0.325367
	C147	C	0.374225	0.114460	0.321730
	C148	C	0.669915	0.381027	0.883633
	C149	C	0.672612	0.619771	0.113769
	C150	C	0.315603	0.620691	0.884240
	C151	C	0.317720	0.379233	0.114355
	C152	C	0.879794	0.678009	0.378150
	C153	C	0.108483	0.676021	0.619753
	C154	C	0.880283	0.318823	0.622422
	C155	C	0.108218	0.322752	0.382354
	C156	C	0.879823	0.377297	0.678054
	C157	C	0.108919	0.617014	0.675909
	C158	C	0.879551	0.620451	0.321317
	C159	C	0.108994	0.381431	0.326262
	C160	C	0.373940	0.677120	0.883897
	C161	C	0.613371	0.674630	0.114994
	C162	C	0.611457	0.325202	0.882821
	C163	C	0.374125	0.321488	0.113684
	C164	C	0.669660	0.883174	0.383993
	C165	C	0.673209	0.113384	0.622297
	C166	C	0.318421	0.883651	0.620264
	C167	C	0.316172	0.113684	0.378325
	C168	C	0.875140	0.383889	0.177671
	C169	C	0.113257	0.615854	0.175916
	C170	C	0.111655	0.383656	0.826008
	C171	C	0.875230	0.614354	0.821081
	C172	C	0.169994	0.880616	0.384748
	C173	C	0.172578	0.117767	0.615624
	C174	C	0.815662	0.119709	0.386479
	C175	C	0.817975	0.877522	0.616175
	C176	C	0.379246	0.176370	0.878027
	C177	C	0.608269	0.177503	0.118870
	C178	C	0.378980	0.821565	0.119033
	C179	C	0.608671	0.823810	0.881522
	C180	C	0.378526	0.879303	0.176187
	C181	C	0.608147	0.119819	0.177297
	C182	C	0.379436	0.118722	0.821931
	C183	C	0.608711	0.882220	0.825204
	C184	C	0.873943	0.176095	0.385953
	C185	C	0.114030	0.173857	0.616253
	C186	C	0.111847	0.824813	0.384304
	C187	C	0.875822	0.821219	0.615614
	C188	C	0.168786	0.384114	0.883073
	C189	C	0.171672	0.615382	0.119218
	C190	C	0.815909	0.384506	0.121071
	C191	C	0.817030	0.614215	0.877499
	C192	C	0.394461	0.094903	0.598130
	C193	C	0.593699	0.903756	0.601681
	C194	C	0.592908	0.093804	0.402059
	C195	C	0.393750	0.903692	0.401306
	C196	C	0.591836	0.401116	0.093556
	C197	C	0.593088	0.600194	0.903553
	C198	C	0.394908	0.597358	0.094736
	C199	C	0.391259	0.400999	0.902596
	C200	C	0.088808	0.600082	0.401016
	C201	C	0.899159	0.597964	0.597525
	C202	C	0.089069	0.397725	0.601170
	C203	C	0.899080	0.400371	0.401982
	C204	C	0.895580	0.594202	0.097325
	C205	C	0.094730	0.404277	0.101947
	C206	C	0.092570	0.595121	0.899991
	C207	C	0.893405	0.403875	0.901373
	C208	C	0.094496	0.899378	0.596163
	C209	C	0.093212	0.099175	0.404933
	C210	C	0.895654	0.095849	0.596539
	C211	C	0.892560	0.901713	0.404928
	C212	C	0.589243	0.101097	0.899824
	C213	C	0.399338	0.098864	0.097789
	C214	C	0.588408	0.899771	0.100604
	C215	C	0.398769	0.899748	0.900246
	Zn216	Zn	0.494150	0.000344	0.750115
	Zn217	Zn	0.493601	-0.001035	0.250626
	Zn218	Zn	0.743518	0.499868	-0.000832
	Zn219	Zn	0.243488	0.499677	-0.000003
	Zn220	Zn	-0.005822	0.750238	0.499435
	Zn221	Zn	-0.006257	0.248291	0.501135
	Zn222	Zn	-0.006179	0.498259	0.749472
	Zn223	Zn	-0.005994	0.500123	0.250653
	Zn224	Zn	0.493814	0.749234	-0.000421
	Zn225	Zn	0.493024	0.250782	-0.002362
	Zn226	Zn	0.743949	-0.001257	0.502522
	Zn227	Zn	0.243804	-0.001369	0.500061
	N228	N	0.409306	0.962361	0.677819
	N229	N	0.577818	0.037584	0.676706
	N230	N	0.579838	0.961947	0.322885
	N231	N	0.408085	0.036472	0.321419
	N232	N	0.671668	0.414058	0.961991
	N233	N	0.674138	0.587443	0.035197
	N234	N	0.314375	0.586564	0.962715
	N235	N	0.315343	0.413473	0.036159
	N236	N	0.957369	0.679406	0.412572
	N237	N	0.030659	0.677786	0.585767
	N238	N	0.957953	0.317418	0.589166
	N239	N	0.030208	0.320875	0.415147
	N240	N	0.957232	0.411848	0.678950
	N241	N	0.031283	0.583132	0.676640
	N242	N	0.957204	0.586844	0.320907
	N243	N	0.031420	0.415008	0.324252
	N244	N	0.408453	0.677315	0.961879
	N245	N	0.578492	0.676016	0.036992
	N246	N	0.577334	0.324012	0.960665
	N247	N	0.406197	0.320442	0.034975
	N248	N	0.671240	0.961391	0.417315
	N249	N	0.675367	0.034766	0.590380
	N250	N	0.316194	0.961802	0.585979
	N251	N	0.314372	0.035585	0.412469
	N252	N	0.909728	0.461495	0.177640
	N253	N	0.080178	0.537526	0.178779
	N254	N	0.078511	0.461947	0.823307
	N255	N	0.908601	0.536164	0.821051
	N256	N	0.172653	0.912821	0.463389
	N257	N	0.173989	0.085513	0.536979
	N258	N	0.814548	0.085322	0.464700
	N259	N	0.815527	0.912139	0.538083
	N260	N	0.457126	0.178831	0.911670
	N261	N	0.530635	0.179043	0.084861
	N262	N	0.456992	0.819988	0.086310
	N263	N	0.530835	0.821232	0.914073
	N264	N	0.456323	0.912915	0.178706
	N265	N	0.530540	0.085713	0.178465
	N266	N	0.457294	0.086076	0.821100
	N267	N	0.530752	0.915131	0.823053
	N268	N	0.908505	0.176160	0.464099
	N269	N	0.079580	0.175720	0.538346
	N270	N	0.078800	0.823052	0.462658
	N271	N	0.908659	0.821384	0.537188
	N272	N	0.170568	0.462611	0.915244
	N273	N	0.174072	0.536709	0.087289
	N274	N	0.814570	0.462911	0.086477
	N275	N	0.814540	0.536086	0.911764
	O276	O	0.015928	-0.063675	-0.010123
	H277	H	0.010972	-0.066816	-0.001495
	H278	H	0.007856	-0.051546	-0.012530
	O279	O	0.403044	0.632345	0.461552
	H280	H	0.398196	0.630267	0.460374
	H281	H	0.401032	0.620442	0.458250
	O282	O	0.392581	0.480316	0.506873
	H283	H	0.397633	0.464651	0.493398
	H284	H	0.393346	0.480657	0.517353
	O285	O	-0.041719	1.036861	1.031703
	H286	H	-0.040518	1.031264	1.031005
	H287	H	-0.045294	1.034022	1.022199
	O288	O	0.509470	0.417973	0.441032
	H289	H	0.507729	0.430760	0.428005
	H290	H	0.506663	0.425480	0.446938
	O291	O	0.977237	1.088183	0.895497
	H292	H	0.978139	1.084276	0.893881
	H293	H	0.973717	1.088213	0.885748
	O294	O	0.933109	0.941516	1.024477
	H295	H	0.930552	0.945265	1.029358
	H296	H	0.939897	0.939154	1.035836
	O297	O	1.013782	0.020697	0.927829
	H298	H	1.014805	0.022035	0.931257
	H299	H	1.017256	0.021284	0.920833
	O300	O	0.519535	0.461267	0.485412
	H301	H	0.508860	0.450128	0.477328
	H302	H	0.519235	0.466946	0.489731
	O303	O	0.948866	-0.058804	0.020931
	H304	H	0.945542	-0.053894	0.024279
	H305	H	0.951341	-0.059397	0.022357
	O306	O	0.108259	1.038566	1.001352
	H307	H	0.098353	1.034540	0.982843
	H308	H	0.112795	1.046364	1.003918
	O309	O	0.540612	0.460347	0.475189
	H310	H	0.533685	0.475631	0.481515
	H311	H	0.528992	0.449227	0.474253
	O312	O	1.579766	0.359879	0.477786
	H313	H	1.587949	0.356260	0.471985
	H314	H	1.579596	0.360750	0.471200
	O315	O	0.415528	0.509473	0.450194
	H316	H	0.421468	0.508950	0.440992
	H317	H	0.414747	0.501063	0.454126
	O318	O	0.483513	0.570777	0.590793
	H319	H	0.482347	0.569197	0.588366
	H320	H	0.470830	0.575904	0.582740
	O321	O	0.984386	1.006654	1.105421
	H322	H	0.982264	1.006641	1.101099
	H323	H	0.982100	1.013299	1.118640
	O324	O	0.420085	0.474995	0.615775
	H325	H	0.427096	0.479457	0.614008
	H326	H	0.414314	0.461677	0.620286
	O327	O	0.606582	0.492588	0.422550
	H328	H	0.602726	0.497250	0.437183
	H329	H	0.610441	0.489359	0.428071
	O330	O	0.968301	-0.005266	1.066275
	H331	H	0.982758	-0.004629	1.069130
	H332	H	0.967688	-0.001637	1.070197
	O333	O	1.025561	0.983659	0.043586
	H334	H	1.026558	0.983096	0.032907
	H335	H	1.032298	0.989509	0.048009
	O336	O	0.633431	0.538810	0.589597
	H337	H	0.633669	0.550336	0.581181
	H338	H	0.634635	0.531466	0.593438
	O339	O	0.531894	0.580136	0.552220
	H340	H	0.538347	0.589193	0.557590
	H341	H	0.535456	0.587085	0.560986
	O342	O	-0.044927	1.003965	0.014227
	H343	H	-0.047804	0.997512	0.015737
	H344	H	-0.051218	1.002339	0.014838
	O345	O	0.014091	0.039802	0.021554
	H346	H	0.024301	0.037905	0.029235
	H347	H	0.007493	0.044899	0.029418
	O348	O	0.512076	0.442704	0.367328
	H349	H	0.517028	0.444765	0.363417
	H350	H	0.515979	0.437405	0.360791
	O351	O	0.516255	0.435781	0.422233
	H352	H	0.511695	0.444945	0.430379
	H353	H	0.523003	0.434083	0.417216
	O354	O	0.574100	0.433600	0.518828
	H355	H	0.591251	0.448873	0.518873
	H356	H	0.563650	0.426849	0.516031
	O357	O	0.482892	0.543173	0.482444
	H358	H	0.469494	0.542745	0.478589
	H359	H	0.484385	0.556040	0.479372
	O360	O	-0.066304	-0.055487	0.058097
	H361	H	-0.061407	-0.049308	0.066840
	H362	H	-0.065079	-0.049312	0.060853
	O363	O	0.492992	0.532005	0.409209
	H364	H	0.487213	0.526820	0.417323
	H365	H	0.498471	0.529231	0.415242
	O366	O	0.016121	0.024401	0.896722
	H367	H	0.019214	0.021896	0.898725
	H368	H	0.009970	0.018762	0.892316
	O369	O	0.447292	0.556320	0.494419
	H370	H	0.448014	0.552205	0.506150
	H371	H	0.442745	0.559122	0.487618
