data_Molecule from HDF5

_cell_length_a		16.189279
_cell_length_b		16.269402
_cell_length_c		16.218534
_cell_angle_alpha	90.593800
_cell_angle_beta	90.090312
_cell_angle_gamma	90.259881
_symmetry_space_group_name_H-M	'P 1'
_symmetry_Int_Tables_number		1

loop_
	_symmetry_equiv_pos_as_xyz
	x,y,z

loop_
	_atom_site_label
	_atom_site_type_symbol
	_atom_site_fract_x
	_atom_site_fract_y
	_atom_site_fract_z
	H0	H	0.398215	0.832353	0.717128
	H1	H	0.599660	0.159551	0.723740
	H2	H	0.597506	0.833256	0.288299
	H3	H	0.399061	0.160106	0.290802
	H4	H	0.710856	0.395632	0.839358
	H5	H	0.714161	0.597068	0.167713
	H6	H	0.283603	0.593826	0.840995
	H7	H	0.282257	0.397163	0.167501
	H8	H	0.834057	0.709205	0.404920
	H9	H	0.162177	0.715482	0.605356
	H10	H	0.835113	0.281752	0.599758
	H11	H	0.163693	0.281396	0.401317
	H12	H	0.834276	0.397766	0.714643
	H13	H	0.162361	0.598970	0.720355
	H14	H	0.834236	0.592912	0.289336
	H15	H	0.163288	0.397473	0.286718
	H16	H	0.398205	0.708564	0.840299
	H17	H	0.600345	0.713644	0.167314
	H18	H	0.597298	0.278872	0.841038
	H19	H	0.398680	0.282485	0.168747
	H20	H	0.711812	0.833149	0.405078
	H21	H	0.713308	0.161078	0.605645
	H22	H	0.279791	0.834835	0.604797
	H23	H	0.285468	0.160910	0.408210
	H24	H	0.897205	0.332292	0.217423
	H25	H	0.100753	0.658554	0.221364
	H26	H	0.097564	0.333627	0.784175
	H27	H	0.896730	0.659824	0.788014
	H28	H	0.214536	0.895772	0.341514
	H29	H	0.214262	0.100800	0.667890
	H30	H	0.784181	0.094117	0.341004
	H31	H	0.784891	0.900377	0.669922
	H32	H	0.334694	0.209642	0.905304
	H33	H	0.662577	0.214160	0.107039
	H34	H	0.334716	0.779443	0.104048
	H35	H	0.662813	0.779392	0.902952
	H36	H	0.334242	0.896527	0.219084
	H37	H	0.663542	0.096516	0.220136
	H38	H	0.334835	0.093580	0.790263
	H39	H	0.663257	0.896349	0.789295
	H40	H	0.898440	0.208858	0.340061
	H41	H	0.102376	0.218291	0.665614
	H42	H	0.098885	0.780497	0.340865
	H43	H	0.896079	0.780508	0.667374
	H44	H	0.212932	0.332498	0.900898
	H45	H	0.215173	0.658440	0.106036
	H46	H	0.783844	0.332491	0.100130
	H47	H	0.783017	0.659184	0.905195
	H48	H	0.404932	0.114985	0.604537
	H49	H	0.591622	0.877507	0.602082
	H50	H	0.597244	0.114097	0.416535
	H51	H	0.411834	0.882970	0.413413
	H52	H	0.596290	0.402763	0.123927
	H53	H	0.589862	0.585292	0.887790
	H54	H	0.409032	0.593011	0.122000
	H55	H	0.400916	0.402641	0.885583
	H56	H	0.117207	0.596404	0.416526
	H57	H	0.881300	0.589421	0.597146
	H58	H	0.114389	0.410125	0.592812
	H59	H	0.881030	0.393929	0.413907
	H60	H	0.117269	0.406679	0.597557
	H61	H	0.881703	0.591708	0.594520
	H62	H	0.111711	0.581916	0.416537
	H63	H	0.884994	0.409565	0.412708
	H64	H	0.402738	0.588304	0.121836
	H65	H	0.588521	0.589384	0.886083
	H66	H	0.592322	0.410105	0.119670
	H67	H	0.409769	0.404937	0.890359
	H68	H	0.592538	0.115124	0.408353
	H69	H	0.586899	0.882829	0.594084
	H70	H	0.413200	0.111614	0.599751
	H71	H	0.402321	0.880776	0.415746
	H72	H	0.911320	0.609521	0.093735
	H73	H	0.087532	0.378849	0.096803
	H74	H	0.084031	0.613644	0.901679
	H75	H	0.903518	0.381875	0.917168
	H76	H	0.081886	0.912041	0.616929
	H77	H	0.101438	0.076009	0.388160
	H78	H	0.910037	0.090434	0.620353
	H79	H	0.898386	0.906197	0.386874
	H80	H	0.615492	0.088113	0.915933
	H81	H	0.384097	0.084498	0.093706
	H82	H	0.615735	0.908876	0.100371
	H83	H	0.380536	0.897038	0.910843
	H84	H	0.617270	0.898864	0.096588
	H85	H	0.380182	0.087708	0.104819
	H86	H	0.615409	0.087375	0.915640
	H87	H	0.383874	0.903105	0.916429
	H88	H	0.907788	0.093204	0.622373
	H89	H	0.078080	0.087099	0.390826
	H90	H	0.088051	0.899149	0.622610
	H91	H	0.910294	0.906405	0.389985
	H92	H	0.086254	0.607314	0.923361
	H93	H	0.089976	0.380022	0.090283
	H94	H	0.902897	0.613097	0.094692
	H95	H	0.899121	0.376356	0.902152
	H96	H	0.404809	0.112368	0.593491
	H97	H	0.597152	0.879505	0.593488
	H98	H	0.588201	0.111386	0.415491
	H99	H	0.406440	0.879190	0.407850
	H100	H	0.587464	0.402889	0.121820
	H101	H	0.593167	0.588440	0.886058
	H102	H	0.409948	0.584860	0.119836
	H103	H	0.407910	0.396192	0.886782
	H104	H	0.118063	0.588484	0.404087
	H105	H	0.882248	0.588204	0.594321
	H106	H	0.116221	0.404127	0.590920
	H107	H	0.878822	0.401635	0.399842
	H108	H	0.908121	0.614133	0.102237
	H109	H	0.093293	0.377518	0.095789
	H110	H	0.103218	0.616271	0.912439
	H111	H	0.914294	0.380963	0.904834
	H112	H	0.097310	0.911648	0.622073
	H113	H	0.098621	0.101084	0.381367
	H114	H	0.905985	0.089530	0.621237
	H115	H	0.905839	0.895534	0.386400
	H116	H	0.615522	0.087812	0.914675
	H117	H	0.380445	0.095524	0.096606
	H118	H	0.612925	0.906258	0.089838
	H119	H	0.382308	0.904245	0.907661
	C120	C	0.376934	0.005089	0.627539
	C121	C	0.621416	0.988039	0.627344
	C122	C	0.621098	0.005667	0.383103
	C123	C	0.377587	0.988421	0.383606
	C124	C	0.620086	0.374789	0.013326
	C125	C	0.620497	0.617660	0.995127
	C126	C	0.377649	0.616784	0.012829
	C127	C	0.376654	0.373181	0.995701
	C128	C	0.007143	0.617269	0.382692
	C129	C	0.989850	0.620106	0.625935
	C130	C	0.007402	0.376962	0.622493
	C131	C	0.990330	0.373745	0.379987
	C132	C	0.877376	0.504339	0.124696
	C133	C	0.120162	0.486780	0.124904
	C134	C	0.120000	0.504692	0.881598
	C135	C	0.876134	0.487776	0.880280
	C136	C	0.119169	0.876823	0.513037
	C137	C	0.121641	0.119457	0.494888
	C138	C	0.878375	0.117943	0.512952
	C139	C	0.876164	0.874776	0.496250
	C140	C	0.507062	0.116155	0.885600
	C141	C	0.490160	0.119301	0.127779
	C142	C	0.507026	0.874978	0.125354
	C143	C	0.490519	0.873078	0.882162
	C144	C	0.378130	0.881804	0.680684
	C145	C	0.619542	0.110810	0.684864
	C146	C	0.617939	0.882179	0.326593
	C147	C	0.379049	0.111389	0.328859
	C148	C	0.673974	0.375610	0.888984
	C149	C	0.676686	0.617007	0.118544
	C150	C	0.321495	0.614326	0.889721
	C151	C	0.320499	0.376445	0.118914
	C152	C	0.883427	0.671889	0.384760
	C153	C	0.113204	0.677004	0.625124
	C154	C	0.884010	0.320222	0.620074
	C155	C	0.114244	0.319015	0.381541
	C156	C	0.883626	0.377826	0.677217
	C157	C	0.113121	0.619281	0.682546
	C158	C	0.883338	0.613705	0.327485
	C159	C	0.114310	0.376859	0.324731
	C160	C	0.378466	0.671577	0.889803
	C161	C	0.619824	0.674780	0.118408
	C162	C	0.617648	0.317503	0.889882
	C163	C	0.378402	0.319434	0.119422
	C164	C	0.675233	0.882259	0.384321
	C165	C	0.676397	0.111585	0.626307
	C166	C	0.319076	0.883103	0.624879
	C167	C	0.322681	0.111688	0.387366
	C168	C	0.878192	0.381274	0.179436
	C169	C	0.119785	0.609852	0.182340
	C170	C	0.117954	0.382247	0.823241
	C171	C	0.877245	0.610797	0.825801
	C172	C	0.175991	0.876637	0.390057
	C173	C	0.176834	0.120003	0.618587
	C174	C	0.821958	0.114574	0.389786
	C175	C	0.821531	0.878648	0.620111
	C176	C	0.383658	0.171661	0.885982
	C177	C	0.613380	0.175687	0.126294
	C178	C	0.383633	0.818391	0.123985
	C179	C	0.613684	0.817243	0.883247
	C180	C	0.383394	0.876630	0.181162
	C181	C	0.614057	0.117402	0.182976
	C182	C	0.383727	0.113775	0.828771
	C183	C	0.613889	0.875448	0.826703
	C184	C	0.879112	0.171556	0.389357
	C185	C	0.121351	0.178786	0.617328
	C186	C	0.118464	0.819324	0.389757
	C187	C	0.877202	0.819454	0.619140
	C188	C	0.175368	0.381771	0.881358
	C189	C	0.177164	0.609675	0.125358
	C190	C	0.821709	0.381207	0.121016
	C191	C	0.820480	0.610361	0.884047
	C192	C	0.400677	0.090833	0.605848
	C193	C	0.598653	0.902153	0.603544
	C194	C	0.599133	0.091306	0.406513
	C195	C	0.400409	0.903142	0.405588
	C196	C	0.598376	0.398358	0.099500
	C197	C	0.597537	0.594388	0.908929
	C198	C	0.400448	0.595051	0.099062
	C199	C	0.399229	0.394807	0.909843
	C200	C	0.093544	0.595427	0.405652
	C201	C	0.903860	0.596626	0.602305
	C202	C	0.093610	0.400288	0.600439
	C203	C	0.904081	0.395302	0.402308
	C204	C	0.900444	0.590004	0.103156
	C205	C	0.096904	0.401109	0.101050
	C206	C	0.097573	0.590219	0.905743
	C207	C	0.899077	0.402014	0.901649
	C208	C	0.095935	0.900511	0.598410
	C209	C	0.099245	0.095250	0.409021
	C210	C	0.901177	0.097049	0.599104
	C211	C	0.898541	0.896393	0.410198
	C212	C	0.593225	0.094155	0.908634
	C213	C	0.403873	0.095916	0.105170
	C214	C	0.592854	0.898057	0.102429
	C215	C	0.404541	0.895015	0.904866
	Zn216	Zn	0.498818	-0.004551	0.755698
	Zn217	Zn	0.499066	-0.003222	0.254512
	Zn218	Zn	0.748236	0.495837	0.003291
	Zn219	Zn	0.249084	0.495817	0.004176
	Zn220	Zn	-0.001383	0.747086	0.504019
	Zn221	Zn	-0.000290	0.246570	0.502482
	Zn222	Zn	-0.001612	0.497156	0.752374
	Zn223	Zn	-0.000987	0.495702	0.253017
	Zn224	Zn	0.498610	0.745170	0.004060
	Zn225	Zn	0.498804	0.246099	0.005339
	Zn226	Zn	0.749274	-0.002678	0.505036
	Zn227	Zn	0.248823	-0.002558	0.505033
	N228	N	0.413393	0.958799	0.682554
	N229	N	0.586513	0.032709	0.686019
	N230	N	0.585093	0.959928	0.325619
	N231	N	0.412490	0.033878	0.326202
	N232	N	0.675553	0.410689	0.966701
	N233	N	0.677375	0.582362	0.040655
	N234	N	0.321003	0.580897	0.967124
	N235	N	0.319420	0.409385	0.041083
	N236	N	0.961636	0.674264	0.418214
	N237	N	0.035426	0.677580	0.590685
	N238	N	0.962083	0.319573	0.586845
	N239	N	0.036166	0.316650	0.414964
	N240	N	0.961350	0.412633	0.678650
	N241	N	0.035321	0.584979	0.683240
	N242	N	0.961344	0.580647	0.326019
	N243	N	0.036354	0.410030	0.323520
	N244	N	0.412642	0.673404	0.967484
	N245	N	0.586068	0.675609	0.040597
	N246	N	0.585004	0.316956	0.968062
	N247	N	0.412786	0.317616	0.042027
	N248	N	0.677146	0.959820	0.418938
	N249	N	0.677601	0.034300	0.591259
	N250	N	0.318448	0.960800	0.592504
	N251	N	0.321488	0.034129	0.420677
	N252	N	0.912107	0.458879	0.181777
	N253	N	0.085292	0.532512	0.182264
	N254	N	0.084331	0.459745	0.823271
	N255	N	0.910991	0.533446	0.823315
	N256	N	0.176548	0.911672	0.467586
	N257	N	0.177226	0.083782	0.541588
	N258	N	0.821076	0.082130	0.467812
	N259	N	0.820750	0.912294	0.542760
	N260	N	0.461417	0.173097	0.920577
	N261	N	0.535143	0.177038	0.092957
	N262	N	0.461396	0.817216	0.090140
	N263	N	0.535816	0.815651	0.917300
	N264	N	0.461260	0.911332	0.182166
	N265	N	0.536296	0.082968	0.184023
	N266	N	0.461540	0.080033	0.828343
	N267	N	0.536241	0.909156	0.825677
	N268	N	0.913584	0.173727	0.466797
	N269	N	0.087918	0.178749	0.539391
	N270	N	0.083642	0.819333	0.467086
	N271	N	0.910236	0.816617	0.541012
	N272	N	0.176960	0.458966	0.916868
	N273	N	0.177485	0.532127	0.090264
	N274	N	0.820701	0.458788	0.087908
	N275	N	0.819581	0.532892	0.917230
	O276	O	0.965531	0.843577	0.002654
	H277	H	0.960782	0.840496	-0.004823
	H278	H	0.965598	0.838156	0.012224
	O279	O	0.431461	0.445160	0.485027
	H280	H	0.436588	0.456013	0.482893
	H281	H	0.442984	0.439184	0.489448
	O282	O	1.003310	1.004322	0.020328
	H283	H	0.992272	1.003547	0.016897
	H284	H	1.005232	0.992489	0.025907
	O285	O	0.882580	-0.130282	1.073685
	H286	H	0.881388	-0.138834	1.076881
	H287	H	0.891296	-0.140381	1.074624
	O288	O	0.533997	0.435294	0.399359
	H289	H	0.532894	0.435102	0.397380
	H290	H	0.540484	0.426410	0.392709
	O291	O	0.435397	0.532919	0.532595
	H292	H	0.432284	0.529397	0.521149
	H293	H	0.437090	0.531935	0.538032
	O294	O	0.528221	0.469680	0.450012
	H295	H	0.528862	0.474637	0.451114
	H296	H	0.524981	0.461775	0.458189
	O297	O	-0.042040	0.071991	0.889878
	H298	H	-0.040057	0.041909	0.889677
	H299	H	-0.049985	0.072851	0.895449
	O300	O	0.530090	0.483308	0.495022
	H301	H	0.522378	0.483221	0.504744
	H302	H	0.525545	0.476634	0.495528
	O303	O	1.011363	0.962025	-0.011906
	H304	H	1.024583	0.973549	-0.004851
	H305	H	1.014497	0.954188	-0.023390
	O306	O	0.129926	0.891888	1.012920
	H307	H	0.136505	0.905254	1.013200
	H308	H	0.132805	0.897383	1.014075
	O309	O	0.426656	0.395788	0.559886
	H310	H	0.415842	0.390330	0.564833
	H311	H	0.435555	0.399159	0.562249
	O312	O	0.029962	0.041184	-0.155224
	H313	H	0.018552	0.040606	-0.153898
	H314	H	0.019193	0.044970	-0.148830
	O315	O	0.948198	-0.054840	0.045797
	H316	H	0.948974	-0.047816	0.049047
	H317	H	0.947007	-0.056222	0.060152
	O318	O	1.117963	0.990212	1.040589
	H319	H	1.114885	0.999818	1.047759
	H320	H	1.124899	0.982655	1.031432
	O321	O	-0.008031	-0.099281	0.922077
	H322	H	-0.010480	-0.102405	0.929920
	H323	H	-0.005904	-0.100782	0.933569
	O324	O	0.469320	0.511626	0.456176
	H325	H	0.460631	0.506634	0.455829
	H326	H	0.477280	0.519366	0.447237
	O327	O	0.024567	0.028504	0.147786
	H328	H	0.025805	0.027162	0.137983
	H329	H	0.041547	0.027113	0.163397
	O330	O	0.565939	0.456043	0.537643
	H331	H	0.560458	0.442991	0.535161
	H332	H	0.564073	0.460035	0.545565
	O333	O	-0.056373	1.119074	0.976867
	H334	H	-0.063773	1.113230	0.966751
	H335	H	-0.061849	1.127217	0.968437
	O336	O	0.136264	0.072549	0.015413
	H337	H	0.116824	0.076417	0.019948
	H338	H	0.147828	0.076056	0.010704
	O339	O	0.502696	0.496468	0.483862
	H340	H	0.509848	0.495995	0.478689
	H341	H	0.494844	0.488504	0.490287
	O342	O	0.963411	0.835047	0.959198
	H343	H	0.958780	0.833149	0.955719
	H344	H	0.976657	0.846411	0.957558
	O345	O	1.089239	0.893817	0.015792
	H346	H	1.083715	0.904825	0.013672
	H347	H	1.091855	0.895507	0.016579
	O348	O	0.531057	0.472205	0.439874
	H349	H	0.528939	0.470590	0.450979
	H350	H	0.523966	0.474394	0.439265
	O351	O	0.038410	1.138392	0.134671
	H352	H	0.031884	1.137058	0.138794
	H353	H	0.039955	1.141624	0.135394
	O354	O	0.509535	0.465649	0.569810
	H355	H	0.516988	0.480151	0.568271
	H356	H	0.522390	0.465743	0.579439
	O357	O	0.875710	0.015963	1.078477
	H358	H	0.879148	0.016660	1.081699
	H359	H	0.874297	0.032870	1.080452
	O360	O	0.567445	0.572304	0.571446
	H361	H	0.574050	0.568984	0.576112
	H362	H	0.568709	0.579857	0.553475
	O363	O	0.592161	0.506215	0.584507
	H364	H	0.596288	0.515604	0.589027
	H365	H	0.594894	0.513861	0.579373
	O366	O	1.007702	1.159095	0.962118
	H367	H	1.005978	1.151638	0.958387
	H368	H	0.997455	1.164615	0.962821
	O369	O	0.913379	0.008931	0.942634
	H370	H	0.904647	0.007390	0.924309
	H371	H	0.923066	-0.002438	0.934537
	O372	O	-0.052066	-0.062952	0.087248
	H373	H	-0.040856	-0.063150	0.089557
	H374	H	-0.052725	-0.076724	0.086979
	O375	O	1.139287	0.096032	0.023225
	H376	H	1.157530	0.093070	0.013115
	H377	H	1.132708	0.085287	0.023625
	O378	O	0.589750	0.603546	0.559911
	H379	H	0.592568	0.603133	0.543127
	H380	H	0.588394	0.610895	0.562837
	O381	O	0.456072	0.498025	0.484257
	H382	H	0.463854	0.492240	0.484977
	H383	H	0.446901	0.488160	0.481720
