data_Molecule from HDF5

_cell_length_a		16.388245
_cell_length_b		16.581153
_cell_length_c		16.454019
_cell_angle_alpha	90.120081
_cell_angle_beta	89.906034
_cell_angle_gamma	90.153149
_symmetry_space_group_name_H-M	'P 1'
_symmetry_Int_Tables_number		1

loop_
	_symmetry_equiv_pos_as_xyz
	x,y,z

loop_
	_atom_site_label
	_atom_site_type_symbol
	_atom_site_fract_x
	_atom_site_fract_y
	_atom_site_fract_z
	H0	H	0.396162	0.834681	0.716911
	H1	H	0.609216	0.148019	0.720954
	H2	H	0.607554	0.835828	0.272312
	H3	H	0.392165	0.147548	0.271836
	H4	H	0.722514	0.387003	0.839660
	H5	H	0.721602	0.594795	0.157140
	H6	H	0.284875	0.592361	0.838772
	H7	H	0.274970	0.380216	0.153560
	H8	H	0.844086	0.713082	0.387413
	H9	H	0.158967	0.713513	0.600385
	H10	H	0.843569	0.268454	0.605483
	H11	H	0.156009	0.262428	0.383679
	H12	H	0.843526	0.386494	0.718982
	H13	H	0.161453	0.595014	0.713768
	H14	H	0.844501	0.597165	0.272434
	H15	H	0.159197	0.381785	0.273013
	H16	H	0.398370	0.711080	0.840677
	H17	H	0.607672	0.713986	0.156248
	H18	H	0.609374	0.267940	0.841265
	H19	H	0.389678	0.264114	0.153343
	H20	H	0.720951	0.833995	0.390393
	H21	H	0.724492	0.147708	0.603239
	H22	H	0.279610	0.834987	0.598616
	H23	H	0.277809	0.148898	0.389977
	H24	H	0.890723	0.335766	0.223265
	H25	H	0.112251	0.644990	0.223075
	H26	H	0.110143	0.335853	0.771420
	H27	H	0.897215	0.646541	0.774923
	H28	H	0.225062	0.883843	0.339316
	H29	H	0.222282	0.097811	0.653233
	H30	H	0.775565	0.098993	0.338686
	H31	H	0.782031	0.890221	0.654705
	H32	H	0.343947	0.214299	0.890587
	H33	H	0.656560	0.218650	0.108491
	H34	H	0.343702	0.768527	0.104418
	H35	H	0.658227	0.770988	0.890559
	H36	H	0.343295	0.885424	0.219385
	H37	H	0.658074	0.102123	0.222874
	H38	H	0.342468	0.096484	0.777150
	H39	H	0.659412	0.890846	0.777992
	H40	H	0.886166	0.219907	0.341579
	H41	H	0.108690	0.216286	0.651940
	H42	H	0.112860	0.764489	0.341082
	H43	H	0.895483	0.771060	0.652551
	H44	H	0.225455	0.334611	0.889131
	H45	H	0.227133	0.646039	0.105050
	H46	H	0.774737	0.335487	0.106533
	H47	H	0.780634	0.647304	0.891807
	H48	H	0.412929	0.105272	0.590733
	H49	H	0.586003	0.882416	0.581983
	H50	H	0.591717	0.103908	0.409689
	H51	H	0.410768	0.878818	0.403658
	H52	H	0.588101	0.404928	0.109793
	H53	H	0.591370	0.588894	0.882513
	H54	H	0.410239	0.573146	0.110728
	H55	H	0.413880	0.402494	0.885790
	H56	H	0.116747	0.582182	0.404641
	H57	H	0.890704	0.575759	0.582355
	H58	H	0.115039	0.402443	0.584677
	H59	H	0.889658	0.408571	0.404704
	H60	H	0.113605	0.401013	0.580755
	H61	H	0.884835	0.580091	0.593878
	H62	H	0.112581	0.581857	0.417620
	H63	H	0.888209	0.398105	0.412728
	H64	H	0.422910	0.580055	0.108907
	H65	H	0.597066	0.579742	0.883592
	H66	H	0.586528	0.405472	0.108812
	H67	H	0.416424	0.403888	0.887374
	H68	H	0.584647	0.102691	0.406593
	H69	H	0.596209	0.878550	0.586037
	H70	H	0.415089	0.102961	0.584516
	H71	H	0.418402	0.882700	0.408757
	H72	H	0.914098	0.599660	0.080315
	H73	H	0.090837	0.380679	0.079780
	H74	H	0.095585	0.604306	0.906341
	H75	H	0.915050	0.381045	0.913879
	H76	H	0.086951	0.900218	0.608522
	H77	H	0.087840	0.077218	0.383727
	H78	H	0.904844	0.076139	0.608983
	H79	H	0.911285	0.894952	0.379769
	H80	H	0.613975	0.075580	0.904706
	H81	H	0.387717	0.082457	0.082027
	H82	H	0.611900	0.906293	0.080519
	H83	H	0.385123	0.903246	0.902591
	H84	H	0.614443	0.906474	0.087833
	H85	H	0.393296	0.074750	0.077983
	H86	H	0.616503	0.086396	0.907937
	H87	H	0.383999	0.894916	0.907524
	H88	H	0.920287	0.072524	0.601921
	H89	H	0.085510	0.077244	0.385729
	H90	H	0.090202	0.904112	0.608402
	H91	H	0.906102	0.904558	0.380640
	H92	H	0.092298	0.602858	0.904023
	H93	H	0.089288	0.377813	0.087680
	H94	H	0.911868	0.603079	0.088359
	H95	H	0.909159	0.377763	0.906785
	H96	H	0.408525	0.105184	0.585479
	H97	H	0.586677	0.878879	0.592578
	H98	H	0.585837	0.100637	0.413820
	H99	H	0.409472	0.881701	0.412934
	H100	H	0.586163	0.403829	0.109506
	H101	H	0.586652	0.580401	0.886930
	H102	H	0.411452	0.586721	0.114471
	H103	H	0.416403	0.401040	0.886280
	H104	H	0.110623	0.570959	0.409840
	H105	H	0.885718	0.588544	0.583138
	H106	H	0.113341	0.405380	0.582689
	H107	H	0.893735	0.409309	0.417261
	H108	H	0.920007	0.600106	0.087227
	H109	H	0.083299	0.381860	0.083071
	H110	H	0.092372	0.602658	0.908498
	H111	H	0.918369	0.379103	0.905591
	H112	H	0.085733	0.904435	0.606561
	H113	H	0.085871	0.079155	0.384103
	H114	H	0.917406	0.087628	0.608704
	H115	H	0.916160	0.903378	0.383760
	H116	H	0.611512	0.078794	0.915618
	H117	H	0.389882	0.074043	0.087915
	H118	H	0.615266	0.900003	0.083357
	H119	H	0.387688	0.902626	0.911674
	C120	C	0.379172	0.000721	0.618326
	C121	C	0.622370	0.983388	0.618847
	C122	C	0.621368	-0.000333	0.375379
	C123	C	0.379104	0.983842	0.374875
	C124	C	0.621201	0.371109	0.005830
	C125	C	0.624272	0.614632	0.989083
	C126	C	0.381957	0.611554	0.006910
	C127	C	0.380192	0.368449	0.989540
	C128	C	0.010349	0.611900	0.375311
	C129	C	0.992294	0.612977	0.617622
	C130	C	0.009871	0.370172	0.616851
	C131	C	0.992993	0.369455	0.375750
	C132	C	0.879929	0.498750	0.119559
	C133	C	0.123519	0.481889	0.118300
	C134	C	0.125238	0.499595	0.873855
	C135	C	0.881841	0.482608	0.876529
	C136	C	0.122119	0.869954	0.504332
	C137	C	0.120736	0.112517	0.487346
	C138	C	0.878830	0.113075	0.503569
	C139	C	0.878930	0.869689	0.485989
	C140	C	0.509785	0.113006	0.876321
	C141	C	0.492977	0.112578	0.118226
	C142	C	0.509388	0.871623	0.117398
	C143	C	0.491495	0.870060	0.875879
	C144	C	0.377177	0.881888	0.677085
	C145	C	0.626048	0.101127	0.679825
	C146	C	0.625188	0.882536	0.313099
	C147	C	0.374756	0.100845	0.312725
	C148	C	0.682634	0.368447	0.887226
	C149	C	0.682837	0.614720	0.109043
	C150	C	0.323572	0.611863	0.887037
	C151	C	0.316335	0.363519	0.106751
	C152	C	0.891502	0.672786	0.370432
	C153	C	0.111765	0.673149	0.618837
	C154	C	0.891140	0.308952	0.622303
	C155	C	0.109764	0.304870	0.368434
	C156	C	0.891174	0.367791	0.678821
	C157	C	0.113029	0.614186	0.675117
	C158	C	0.891962	0.614900	0.313010
	C159	C	0.111485	0.364459	0.313248
	C160	C	0.379890	0.671072	0.887956
	C161	C	0.626394	0.674084	0.108617
	C162	C	0.626088	0.309278	0.888016
	C163	C	0.373474	0.305325	0.106415
	C164	C	0.681530	0.881635	0.372094
	C165	C	0.683762	0.101134	0.621436
	C166	C	0.319535	0.881927	0.618423
	C167	C	0.317799	0.101509	0.371883
	C168	C	0.874184	0.382288	0.181999
	C169	C	0.129238	0.598493	0.181659
	C170	C	0.128156	0.382449	0.812026
	C171	C	0.878935	0.599961	0.815535
	C172	C	0.184631	0.866203	0.386588
	C173	C	0.182477	0.116229	0.605673
	C174	C	0.815667	0.117276	0.386328
	C175	C	0.820675	0.869899	0.606330
	C176	C	0.390997	0.173553	0.873310
	C177	C	0.610069	0.176925	0.124650
	C178	C	0.390947	0.809543	0.121941
	C179	C	0.610954	0.811372	0.873178
	C180	C	0.390682	0.867888	0.179076
	C181	C	0.610757	0.118676	0.181528
	C182	C	0.390385	0.115225	0.816456
	C183	C	0.611194	0.870408	0.816647
	C184	C	0.871320	0.177375	0.387582
	C185	C	0.125740	0.174798	0.605175
	C186	C	0.128423	0.806770	0.387571
	C187	C	0.877115	0.810888	0.605290
	C188	C	0.185742	0.382057	0.870447
	C189	C	0.186276	0.599072	0.122716
	C190	C	0.816198	0.382294	0.123890
	C191	C	0.821082	0.600261	0.873711
	C192	C	0.404642	0.082925	0.593983
	C193	C	0.596963	0.901259	0.593865
	C194	C	0.595093	0.081188	0.402187
	C195	C	0.405441	0.902385	0.400832
	C196	C	0.594585	0.397186	0.087937
	C197	C	0.598968	0.590146	0.906017
	C198	C	0.407404	0.586889	0.089612
	C199	C	0.407776	0.394990	0.907808
	C200	C	0.092165	0.585909	0.402887
	C201	C	0.908964	0.588439	0.593575
	C202	C	0.092476	0.395554	0.590126
	C203	C	0.911685	0.397341	0.403449
	C204	C	0.907617	0.579952	0.092913
	C205	C	0.095861	0.400947	0.091231
	C206	C	0.100525	0.581821	0.899199
	C207	C	0.906885	0.400737	0.901678
	C208	C	0.095212	0.895926	0.586435
	C209	C	0.093808	0.085678	0.405798
	C210	C	0.906394	0.086366	0.585207
	C211	C	0.903922	0.894017	0.402942
	C212	C	0.592534	0.087603	0.902107
	C213	C	0.411620	0.084765	0.090611
	C214	C	0.592302	0.897088	0.091230
	C215	C	0.407441	0.893536	0.900362
	Zn216	Zn	0.500310	-0.007683	0.747975
	Zn217	Zn	0.501053	-0.007923	0.246388
	Zn218	Zn	0.751424	0.491370	-0.001860
	Zn219	Zn	0.253147	0.490004	-0.002443
	Zn220	Zn	0.000805	0.740886	0.495380
	Zn221	Zn	0.000278	0.241611	0.495972
	Zn222	Zn	0.002733	0.491090	0.745450
	Zn223	Zn	0.002287	0.490138	0.247820
	Zn224	Zn	0.501798	0.741893	-0.001913
	Zn225	Zn	0.501239	0.240682	-0.002512
	Zn226	Zn	0.750549	-0.008777	0.495763
	Zn227	Zn	0.249910	-0.007881	0.496173
	N228	N	0.413297	0.956737	0.677367
	N229	N	0.588533	0.026895	0.678471
	N230	N	0.588832	0.957124	0.314842
	N231	N	0.411967	0.026676	0.314439
	N232	N	0.679890	0.406094	0.961589
	N233	N	0.681844	0.578756	0.033718
	N234	N	0.324709	0.575393	0.962028
	N235	N	0.320421	0.401968	0.032982
	N236	N	0.966140	0.671203	0.408344
	N237	N	0.035736	0.672635	0.583878
	N238	N	0.966010	0.310413	0.584511
	N239	N	0.034906	0.307470	0.406244
	N240	N	0.966026	0.405093	0.675723
	N241	N	0.037796	0.577353	0.674584
	N242	N	0.966907	0.577875	0.315748
	N243	N	0.037909	0.403911	0.317583
	N244	N	0.415478	0.670938	0.963516
	N245	N	0.590956	0.674338	0.032846
	N246	N	0.588793	0.310838	0.962823
	N247	N	0.412586	0.308545	0.032560
	N248	N	0.679450	0.955659	0.409905
	N249	N	0.681672	0.027037	0.584186
	N250	N	0.320537	0.956812	0.582907
	N251	N	0.320282	0.027665	0.409679
	N252	N	0.913361	0.455669	0.179122
	N253	N	0.091036	0.524524	0.179254
	N254	N	0.091309	0.456816	0.813874
	N255	N	0.915961	0.525816	0.816922
	N256	N	0.180557	0.905154	0.460276
	N257	N	0.179530	0.078273	0.531439
	N258	N	0.820263	0.077755	0.459579
	N259	N	0.821538	0.905630	0.531010
	N260	N	0.466293	0.172298	0.909729
	N261	N	0.535744	0.173451	0.086244
	N262	N	0.465725	0.811845	0.084303
	N263	N	0.535302	0.810888	0.909207
	N264	N	0.465576	0.905690	0.176435
	N265	N	0.537062	0.079364	0.177578
	N266	N	0.465408	0.078441	0.817986
	N267	N	0.535714	0.906020	0.818164
	N268	N	0.909901	0.174616	0.461550
	N269	N	0.088186	0.172859	0.530540
	N270	N	0.089770	0.809272	0.461572
	N271	N	0.912197	0.810240	0.529366
	N272	N	0.183914	0.455905	0.908324
	N273	N	0.182932	0.525524	0.084273
	N274	N	0.819819	0.455703	0.085780
	N275	N	0.822652	0.526377	0.911154
	O276	O	0.406917	0.398252	0.578766
	H277	H	0.425336	0.403965	0.585217
	H278	H	0.416111	0.397876	0.576330
	O279	O	1.012472	0.757571	1.009377
	H280	H	1.000039	0.752810	0.987015
	H281	H	1.014771	0.757019	0.994485
	O282	O	0.782846	1.205469	-0.005009
	H283	H	0.799734	1.224783	0.010253
	H284	H	0.770596	1.224381	-0.018580
	O285	O	0.124406	0.151219	0.841837
	H286	H	0.134271	0.161138	0.837942
	H287	H	0.137187	0.141241	0.859282
	O288	O	-0.075484	0.177558	0.079175
	H289	H	-0.070340	0.178071	0.097853
	H290	H	-0.049513	0.164284	0.069084
	O291	O	0.822956	1.038536	0.009908
	H292	H	0.821729	1.052488	0.002264
	H293	H	0.827327	1.043544	0.001433
	O294	O	-0.204569	0.990912	-0.154705
	H295	H	-0.211055	0.967533	-0.146768
	H296	H	-0.194539	0.991629	-0.147450
	O297	O	0.466644	0.712270	0.532717
	H298	H	0.469086	0.713139	0.528647
	H299	H	0.480294	0.709141	0.527523
	O300	O	0.320231	0.284382	0.501942
	H301	H	0.317317	0.287265	0.478613
	H302	H	0.313093	0.277676	0.498636
	O303	O	0.449752	0.455680	0.587779
	H304	H	0.448324	0.462724	0.594334
	H305	H	0.453965	0.438038	0.598213
	O306	O	-0.024450	0.799360	0.975901
	H307	H	-0.055304	0.794274	0.974934
	H308	H	-0.024606	0.812227	0.975403
	O309	O	0.720258	0.713196	0.530048
	H310	H	0.724990	0.718586	0.564269
	H311	H	0.743632	0.735530	0.550025
	O312	O	0.478989	0.697565	0.291255
	H313	H	0.471932	0.699441	0.311654
	H314	H	0.485199	0.706419	0.280091
	O315	O	0.309544	-0.321176	1.420843
	H316	H	0.294884	-0.317380	1.440851
	H317	H	0.308019	-0.355400	1.426719
	O318	O	-0.187610	0.801553	-0.192151
	H319	H	-0.172221	0.822663	-0.172491
	H320	H	-0.164251	0.820202	-0.180981
	O321	O	0.301124	0.356706	0.694864
	H322	H	0.315015	0.350172	0.713893
	H323	H	0.312275	0.358774	0.668839
	O324	O	0.704927	0.281266	0.477876
	H325	H	0.703894	0.272648	0.459014
	H326	H	0.716806	0.281077	0.470472
	O327	O	0.952646	-0.097233	0.828638
	H328	H	0.965127	-0.096724	0.831562
	H329	H	0.972076	-0.098572	0.827974
	O330	O	1.193343	-0.216867	-0.016285
	H331	H	1.189232	-0.212965	-0.020867
	H332	H	1.208983	-0.220256	-0.012790
	O333	O	1.052533	1.051231	0.778597
	H334	H	1.052965	1.069795	0.779003
	H335	H	1.070415	1.053041	0.786815
	O336	O	1.211477	-0.212824	0.794088
	H337	H	1.221857	-0.218362	0.777702
	H338	H	1.211703	-0.206216	0.815284
	O339	O	0.456285	0.279220	0.510756
	H340	H	0.468464	0.293087	0.486592
	H341	H	0.455027	0.270234	0.503997
	O342	O	0.707414	0.697955	0.700483
	H343	H	0.730345	0.723548	0.733557
	H344	H	0.694742	0.674161	0.713648
	O345	O	0.153329	-0.053259	-0.172303
	H346	H	0.155461	-0.064581	-0.168967
	H347	H	0.160824	-0.065566	-0.178140
	O348	O	0.806857	0.186718	0.808837
	H349	H	0.802642	0.148104	0.797655
	H350	H	0.820784	0.195846	0.838270
	O351	O	1.052488	0.774730	-0.192852
	H352	H	1.068192	0.770844	-0.201688
	H353	H	1.066690	0.766222	-0.198733
	O354	O	0.401576	0.521147	0.478390
	H355	H	0.400886	0.501637	0.497698
	H356	H	0.416310	0.504766	0.468227
	O357	O	0.972899	1.030467	1.179389
	H358	H	0.967346	1.017681	1.173875
	H359	H	0.990138	1.015097	1.184078
	O360	O	0.106382	0.980583	0.868934
	H361	H	0.123192	0.985989	0.855655
	H362	H	0.096359	0.978706	0.867873
	O363	O	0.537911	0.326804	0.373145
	H364	H	0.521407	0.344449	0.372500
	H365	H	0.532976	0.308370	0.356724
	O366	O	1.121241	-0.033347	1.009571
	H367	H	1.120619	-0.022757	1.020102
	H368	H	1.131564	-0.028947	1.005242
	O369	O	0.573716	0.399179	0.551769
	H370	H	0.557988	0.405133	0.550816
	H371	H	0.576294	0.409023	0.577078
	O372	O	0.285478	0.512668	0.280579
	H373	H	0.277806	0.516673	0.263200
	H374	H	0.278282	0.529219	0.270938
	O375	O	0.110893	1.040325	1.024656
	H376	H	0.110168	1.041829	1.004344
	H377	H	0.100022	1.027209	1.030054
	O378	O	0.813645	0.848979	0.186440
	H379	H	0.844549	0.843152	0.204418
	H380	H	0.813141	0.896628	0.195189
	O381	O	1.177025	0.169347	0.166024
	H382	H	1.157939	0.154594	0.170402
	H383	H	1.156070	0.179441	0.146995
	O384	O	-0.221734	-0.232767	1.023356
	H385	H	-0.251496	-0.260393	1.038837
	H386	H	-0.215552	-0.228859	1.066343
	O387	O	-0.218420	0.991707	1.172948
	H388	H	-0.230107	1.014530	1.160443
	H389	H	-0.240939	0.992881	1.183872
	O390	O	-0.210409	-0.038314	0.897428
	H391	H	-0.217277	-0.069261	0.906553
	H392	H	-0.209016	-0.033117	0.908985
	O393	O	0.716941	1.523903	-0.614701
	H394	H	0.727697	1.545020	-0.606402
	H395	H	0.714505	1.515129	-0.583162
	O396	O	0.650634	0.299286	0.306336
	H397	H	0.615859	0.283464	0.295853
	H398	H	0.671378	0.334719	0.300978
	O399	O	0.679459	0.469878	0.660131
	H400	H	0.690306	0.463753	0.676655
	H401	H	0.666290	0.464677	0.658419
	O402	O	-0.033971	0.107815	0.897076
	H403	H	-0.055416	0.116136	0.894706
	H404	H	-0.028353	0.116575	0.888922
	O405	O	0.549582	0.358375	-0.296196
	H406	H	0.561611	0.345967	-0.310918
	H407	H	0.551010	0.337824	-0.287530
	O408	O	0.938601	0.788083	1.205086
	H409	H	0.956087	0.799628	1.177961
	H410	H	0.954117	0.763529	1.228548
	O411	O	0.320848	0.677202	0.378924
	H412	H	0.329233	0.679671	0.402925
	H413	H	0.354156	0.673994	0.385316
	O414	O	0.311750	0.437009	0.462403
	H415	H	0.306191	0.448230	0.457445
	H416	H	0.324085	0.440094	0.461071
	O417	O	0.426744	0.433730	0.688886
	H418	H	0.408323	0.417463	0.669780
	H419	H	0.421290	0.440567	0.693691
	O420	O	0.540577	0.362037	0.685006
	H421	H	0.540821	0.341155	0.689267
	H422	H	0.518643	0.365043	0.676128
	O423	O	0.206700	1.203018	0.007032
	H424	H	0.212782	1.222699	0.014725
	H425	H	0.211922	1.196173	0.008264
	O426	O	1.180660	0.866431	1.101999
	H427	H	1.177106	0.868414	1.088706
	H428	H	1.184604	0.859527	1.095043
	O429	O	0.317576	0.651983	0.661596
	H430	H	0.320586	0.645479	0.661771
	H431	H	0.329647	0.635987	0.639206
	O432	O	0.464355	0.509270	0.553682
	H433	H	0.480031	0.506417	0.554400
	H434	H	0.456681	0.506328	0.544592
	O435	O	0.037564	0.068059	-0.025479
	H436	H	0.032823	0.092238	-0.015969
	H437	H	0.043111	0.059454	-0.017313
	O438	O	1.217737	0.015780	0.212487
	H439	H	1.213609	0.036520	0.191994
	H440	H	1.244441	0.017247	0.244516
	O441	O	0.473213	0.470616	0.288111
	H442	H	0.456215	0.481857	0.278278
	H443	H	0.486610	0.493995	0.293454
	O444	O	0.015005	0.928259	1.219796
	H445	H	0.009044	0.914547	1.234251
	H446	H	0.035401	0.910286	1.213166
	O447	O	0.530101	0.700966	0.691089
	H448	H	0.531486	0.692730	0.680460
	H449	H	0.537858	0.718627	0.706063
	O450	O	0.017766	0.207198	0.211652
	H451	H	-0.007545	0.172643	0.216992
	H452	H	0.022303	0.234947	0.250671
	O453	O	0.616052	0.442603	0.304624
	H454	H	0.644823	0.440211	0.298533
	H455	H	0.612158	0.465227	0.312678
	O456	O	0.710338	0.426950	0.583134
	H457	H	0.708909	0.421890	0.597130
	H458	H	0.710430	0.410887	0.571738
	O459	O	0.607737	0.628594	0.428389
	H460	H	0.638242	0.632911	0.456728
	H461	H	0.603243	0.632922	0.415224
	O462	O	0.548996	0.569295	0.318962
	H463	H	0.552581	0.579509	0.325543
	H464	H	0.572266	0.567436	0.321399
	O465	O	1.013244	0.217078	-0.062961
	H466	H	1.011936	0.228852	-0.080720
	H467	H	1.020067	0.213133	-0.052734
