data_Molecule from HDF5

_cell_length_a		16.380272
_cell_length_b		16.401613
_cell_length_c		16.251711
_cell_angle_alpha	90.087135
_cell_angle_beta	90.025223
_cell_angle_gamma	90.153131
_symmetry_space_group_name_H-M	'P 1'
_symmetry_Int_Tables_number		1

loop_
	_symmetry_equiv_pos_as_xyz
	x,y,z

loop_
	_atom_site_label
	_atom_site_type_symbol
	_atom_site_fract_x
	_atom_site_fract_y
	_atom_site_fract_z
	H0	H	0.404328	0.838471	0.707219
	H1	H	0.607012	0.161046	0.708751
	H2	H	0.607567	0.839815	0.272067
	H3	H	0.400648	0.158962	0.269564
	H4	H	0.726249	0.396603	0.831588
	H5	H	0.725457	0.605202	0.153016
	H6	H	0.286896	0.603271	0.830987
	H7	H	0.284748	0.395687	0.152956
	H8	H	0.844499	0.719004	0.387730
	H9	H	0.163274	0.721166	0.598302
	H10	H	0.845907	0.277231	0.597849
	H11	H	0.163942	0.276852	0.384655
	H12	H	0.844782	0.396717	0.710772
	H13	H	0.166444	0.600128	0.707987
	H14	H	0.845871	0.604148	0.270937
	H15	H	0.165091	0.396389	0.271632
	H16	H	0.405095	0.715685	0.829446
	H17	H	0.608320	0.719461	0.153039
	H18	H	0.610189	0.281973	0.830246
	H19	H	0.400488	0.279250	0.152095
	H20	H	0.722712	0.839125	0.387734
	H21	H	0.727133	0.157896	0.597037
	H22	H	0.286651	0.839061	0.592871
	H23	H	0.281680	0.157829	0.382106
	H24	H	0.898399	0.340567	0.213363
	H25	H	0.109830	0.659149	0.213072
	H26	H	0.108990	0.340372	0.773331
	H27	H	0.903873	0.659585	0.773299
	H28	H	0.223831	0.895024	0.329599
	H29	H	0.222951	0.102231	0.651702
	H30	H	0.784770	0.102724	0.330812
	H31	H	0.785227	0.894001	0.651690
	H32	H	0.347882	0.222453	0.885548
	H33	H	0.662926	0.225720	0.102201
	H34	H	0.344619	0.780009	0.095431
	H35	H	0.666049	0.781409	0.887397
	H36	H	0.344821	0.898032	0.210522
	H37	H	0.663872	0.107356	0.215321
	H38	H	0.344962	0.102174	0.774789
	H39	H	0.666174	0.899539	0.774058
	H40	H	0.898486	0.220030	0.331472
	H41	H	0.108084	0.217942	0.652031
	H42	H	0.109105	0.777959	0.331200
	H43	H	0.901206	0.780218	0.652583
	H44	H	0.226560	0.341861	0.887604
	H45	H	0.226165	0.660293	0.098060
	H46	H	0.781000	0.342947	0.100579
	H47	H	0.786712	0.659451	0.887344
	H48	H	0.414597	0.113839	0.582662
	H49	H	0.594012	0.887112	0.577122
	H50	H	0.596794	0.115818	0.397797
	H51	H	0.410831	0.889417	0.414181
	H52	H	0.590695	0.421644	0.101679
	H53	H	0.592272	0.589392	0.878279
	H54	H	0.412478	0.594516	0.109762
	H55	H	0.409719	0.417127	0.877378
	H56	H	0.119042	0.588031	0.401855
	H57	H	0.892837	0.580624	0.582869
	H58	H	0.119349	0.413403	0.585873
	H59	H	0.892889	0.415851	0.400127
	H60	H	0.121831	0.402331	0.583871
	H61	H	0.885394	0.593837	0.589698
	H62	H	0.118495	0.592211	0.405835
	H63	H	0.889795	0.404686	0.400147
	H64	H	0.413973	0.586537	0.107107
	H65	H	0.598179	0.595590	0.874086
	H66	H	0.587316	0.406734	0.105720
	H67	H	0.424001	0.415165	0.881441
	H68	H	0.587200	0.110185	0.405680
	H69	H	0.600651	0.883138	0.582486
	H70	H	0.412750	0.114278	0.581461
	H71	H	0.409068	0.882169	0.393739
	H72	H	0.924539	0.609224	0.077200
	H73	H	0.096982	0.388763	0.071121
	H74	H	0.092401	0.611506	0.906442
	H75	H	0.920032	0.386346	0.899733
	H76	H	0.097521	0.918633	0.604112
	H77	H	0.096705	0.085197	0.375561
	H78	H	0.916239	0.085378	0.604403
	H79	H	0.907714	0.908108	0.373383
	H80	H	0.620378	0.084681	0.897622
	H81	H	0.395252	0.079998	0.080321
	H82	H	0.618850	0.914108	0.084494
	H83	H	0.389360	0.905441	0.899456
	H84	H	0.621121	0.905634	0.082004
	H85	H	0.388828	0.094489	0.084735
	H86	H	0.623798	0.097825	0.898414
	H87	H	0.390578	0.906568	0.901406
	H88	H	0.918521	0.089573	0.605572
	H89	H	0.088704	0.086163	0.376907
	H90	H	0.086165	0.908012	0.603689
	H91	H	0.916519	0.914733	0.379409
	H92	H	0.104199	0.616635	0.901922
	H93	H	0.102619	0.382349	0.085448
	H94	H	0.910031	0.613954	0.076006
	H95	H	0.915056	0.387708	0.907814
	H96	H	0.412342	0.115531	0.583640
	H97	H	0.592403	0.885265	0.585761
	H98	H	0.599418	0.112466	0.409998
	H99	H	0.427388	0.890564	0.400506
	H100	H	0.601283	0.412743	0.108897
	H101	H	0.601219	0.587029	0.876135
	H102	H	0.420061	0.591991	0.107101
	H103	H	0.416228	0.403783	0.874864
	H104	H	0.116941	0.586223	0.406830
	H105	H	0.891690	0.594914	0.574181
	H106	H	0.116459	0.408731	0.575053
	H107	H	0.893838	0.409295	0.410759
	H108	H	0.918256	0.616415	0.089253
	H109	H	0.086800	0.388192	0.085365
	H110	H	0.093317	0.616679	0.893696
	H111	H	0.910652	0.383832	0.900848
	H112	H	0.100370	0.904159	0.609091
	H113	H	0.093311	0.092703	0.374269
	H114	H	0.915103	0.088166	0.607534
	H115	H	0.919453	0.902764	0.375879
	H116	H	0.618541	0.091887	0.909039
	H117	H	0.395039	0.092411	0.069376
	H118	H	0.616974	0.910668	0.076009
	H119	H	0.390259	0.908371	0.899179
	C120	C	0.382895	0.008207	0.612713
	C121	C	0.627436	0.990590	0.613306
	C122	C	0.626014	0.007733	0.371253
	C123	C	0.383604	0.991970	0.369687
	C124	C	0.626349	0.380651	-0.000147
	C125	C	0.628187	0.622593	0.982772
	C126	C	0.384821	0.621067	0.000778
	C127	C	0.384428	0.379578	0.983840
	C128	C	0.013028	0.620533	0.371958
	C129	C	0.995872	0.620939	0.613830
	C130	C	0.013664	0.377073	0.613395
	C131	C	0.997012	0.377684	0.370663
	C132	C	0.884009	0.508730	0.114025
	C133	C	0.127362	0.492034	0.113326
	C134	C	0.127716	0.509237	0.869679
	C135	C	0.884516	0.491487	0.871134
	C136	C	0.126178	0.877805	0.499747
	C137	C	0.125088	0.119904	0.481993
	C138	C	0.883642	0.120037	0.500070
	C139	C	0.883609	0.877589	0.482829
	C140	C	0.515084	0.122164	0.869991
	C141	C	0.497256	0.122211	0.112735
	C142	C	0.513495	0.878859	0.112804
	C143	C	0.496400	0.877107	0.869079
	C144	C	0.384194	0.886852	0.669113
	C145	C	0.627305	0.111899	0.670962
	C146	C	0.626379	0.887687	0.311654
	C147	C	0.381926	0.111357	0.309296
	C148	C	0.686341	0.378298	0.879533
	C149	C	0.686372	0.623903	0.104541
	C150	C	0.326654	0.621602	0.879058
	C151	C	0.324861	0.377566	0.104866
	C152	C	0.892742	0.679834	0.369252
	C153	C	0.115896	0.680731	0.616071
	C154	C	0.893618	0.317269	0.615882
	C155	C	0.116574	0.317325	0.367144
	C156	C	0.893206	0.376717	0.672302
	C157	C	0.117400	0.620520	0.670625
	C158	C	0.893241	0.622298	0.311379
	C159	C	0.117085	0.376866	0.310988
	C160	C	0.385512	0.677464	0.878330
	C161	C	0.628201	0.681029	0.104441
	C162	C	0.628619	0.321153	0.878815
	C163	C	0.382313	0.319399	0.104333
	C164	C	0.683671	0.887065	0.369307
	C165	C	0.687246	0.110454	0.615363
	C166	C	0.325374	0.887405	0.612321
	C167	C	0.322713	0.110720	0.365444
	C168	C	0.880653	0.388779	0.173878
	C169	C	0.128685	0.611693	0.173417
	C170	C	0.128509	0.388735	0.811595
	C171	C	0.884096	0.611434	0.811749
	C172	C	0.185061	0.875989	0.378459
	C173	C	0.184085	0.121208	0.603341
	C174	C	0.824112	0.121771	0.379197
	C175	C	0.824418	0.875995	0.603867
	C176	C	0.395043	0.181509	0.868090
	C177	C	0.615890	0.184589	0.118366
	C178	C	0.392748	0.819808	0.114010
	C179	C	0.617412	0.820040	0.868642
	C180	C	0.392876	0.878201	0.171753
	C181	C	0.615992	0.125743	0.174962
	C182	C	0.393669	0.121420	0.812877
	C183	C	0.617721	0.879013	0.812154
	C184	C	0.880762	0.180254	0.379544
	C185	C	0.126952	0.178668	0.603595
	C186	C	0.127882	0.817681	0.379093
	C187	C	0.882194	0.819339	0.604125
	C188	C	0.186664	0.389321	0.868931
	C189	C	0.186424	0.612200	0.115864
	C190	C	0.822045	0.389998	0.117531
	C191	C	0.826206	0.611583	0.869120
	C192	C	0.406481	0.092645	0.589391
	C193	C	0.602894	0.906936	0.588949
	C194	C	0.601673	0.091236	0.397142
	C195	C	0.408635	0.908802	0.395477
	C196	C	0.600465	0.406163	0.083612
	C197	C	0.604172	0.597867	0.898170
	C198	C	0.408445	0.597751	0.085811
	C199	C	0.409351	0.404823	0.899685
	C200	C	0.096480	0.595932	0.397397
	C201	C	0.911777	0.596846	0.589520
	C202	C	0.097479	0.401205	0.588756
	C203	C	0.913783	0.402603	0.396339
	C204	C	0.910203	0.591491	0.088398
	C205	C	0.102575	0.408218	0.087840
	C206	C	0.103765	0.593215	0.893795
	C207	C	0.908462	0.407707	0.895849
	C208	C	0.101655	0.902929	0.583821
	C209	C	0.100096	0.095198	0.397626
	C210	C	0.909240	0.094993	0.583911
	C211	C	0.907819	0.901643	0.398321
	C212	C	0.599106	0.098350	0.894488
	C213	C	0.414643	0.096394	0.085875
	C214	C	0.597343	0.903116	0.088016
	C215	C	0.412001	0.900163	0.893087
	Zn216	Zn	0.505096	0.000193	0.741657
	Zn217	Zn	0.505442	0.000453	0.241508
	Zn218	Zn	0.755626	0.500914	-0.007565
	Zn219	Zn	0.255862	0.501032	-0.007368
	Zn220	Zn	0.004426	0.749505	0.492411
	Zn221	Zn	0.004726	0.248246	0.491091
	Zn222	Zn	0.005208	0.499401	0.741702
	Zn223	Zn	0.005418	0.499828	0.241995
	Zn224	Zn	0.505603	0.749433	-0.008246
	Zn225	Zn	0.506564	0.251319	-0.008531
	Zn226	Zn	0.755803	-0.001572	0.491165
	Zn227	Zn	0.254177	-0.000273	0.490658
	N228	N	0.419226	0.963188	0.669643
	N229	N	0.591019	0.036351	0.670043
	N230	N	0.591204	0.963747	0.312720
	N231	N	0.418999	0.036515	0.311858
	N232	N	0.685079	0.414375	0.955888
	N233	N	0.686633	0.588591	0.027700
	N234	N	0.325961	0.587374	0.956276
	N235	N	0.326141	0.414321	0.028873
	N236	N	0.968224	0.678675	0.406207
	N237	N	0.039370	0.681109	0.581356
	N238	N	0.969475	0.317287	0.579933
	N239	N	0.040883	0.317820	0.403406
	N240	N	0.968850	0.413024	0.670774
	N241	N	0.041762	0.583896	0.669264
	N242	N	0.968913	0.586116	0.312869
	N243	N	0.041902	0.413794	0.313083
	N244	N	0.420813	0.677360	0.955018
	N245	N	0.592940	0.680399	0.027705
	N246	N	0.591859	0.322587	0.954864
	N247	N	0.418701	0.320691	0.028087
	N248	N	0.683746	0.962840	0.405530
	N249	N	0.687579	0.034158	0.580218
	N250	N	0.324632	0.963832	0.577942
	N251	N	0.323525	0.035311	0.402158
	N252	N	0.918638	0.463534	0.171860
	N253	N	0.092670	0.535869	0.171946
	N254	N	0.092618	0.464401	0.811978
	N255	N	0.919801	0.535694	0.813079
	N256	N	0.184132	0.912701	0.454485
	N257	N	0.183058	0.085313	0.526830
	N258	N	0.825625	0.085123	0.455094
	N259	N	0.825239	0.911781	0.527321
	N260	N	0.471427	0.182080	0.902888
	N261	N	0.541142	0.182404	0.080106
	N262	N	0.468839	0.819968	0.078167
	N263	N	0.540847	0.818622	0.903319
	N264	N	0.468868	0.914186	0.170822
	N265	N	0.541301	0.087608	0.171559
	N266	N	0.469337	0.085201	0.813839
	N267	N	0.541391	0.913664	0.812205
	N268	N	0.916927	0.179316	0.455838
	N269	N	0.091277	0.178094	0.527001
	N270	N	0.091697	0.819057	0.455260
	N271	N	0.918013	0.820030	0.527887
	N272	N	0.186259	0.465421	0.904314
	N273	N	0.185761	0.536499	0.079560
	N274	N	0.824099	0.465377	0.080810
	N275	N	0.826295	0.535970	0.905192
	O276	O	0.616912	0.399483	0.453237
	H277	H	0.633693	0.391252	0.455440
	H278	H	0.617304	0.409353	0.470323
	O279	O	0.570322	0.368363	0.519837
	H280	H	0.582618	0.364859	0.523440
	H281	H	0.554449	0.371794	0.524010
	O282	O	0.519518	0.327535	0.598487
	H283	H	0.527555	0.327183	0.611397
	H284	H	0.497461	0.328446	0.593941
	O285	O	1.336474	0.350989	0.685165
	H286	H	1.342950	0.381353	0.680392
	H287	H	1.348255	0.363026	0.678233
	O288	O	0.167057	-0.165670	1.037381
	H289	H	0.173427	-0.174615	1.034860
	H290	H	0.154993	-0.154843	1.034712
	O291	O	0.694157	0.577946	0.622661
	H292	H	0.694575	0.591547	0.633432
	H293	H	0.691795	0.590800	0.596870
	O294	O	1.192528	0.969322	0.798941
	H295	H	1.196444	0.956088	0.795952
	H296	H	1.201848	0.962821	0.782966
	O297	O	1.194826	1.072461	1.117398
	H298	H	1.208988	1.076356	1.102355
	H299	H	1.175929	1.060624	1.104997
	O300	O	-0.153356	0.006374	0.197782
	H301	H	-0.171842	-0.001199	0.211532
	H302	H	-0.146355	-0.015825	0.189010
	O303	O	0.046533	1.140965	1.101234
	H304	H	0.042085	1.144259	1.105493
	H305	H	0.048586	1.141497	1.103479
	O306	O	1.032981	0.017865	0.157121
	H307	H	1.027123	0.033952	0.158884
	H308	H	1.034556	0.015942	0.162878
	O309	O	0.462474	0.350060	0.425519
	H310	H	0.480093	0.357505	0.437488
	H311	H	0.441728	0.353046	0.435515
	O312	O	0.815120	0.901267	-0.088543
	H313	H	0.827364	0.901960	-0.085667
	H314	H	0.810500	0.922066	-0.078167
	O315	O	0.610277	0.638233	0.640547
	H316	H	0.614929	0.644256	0.631732
	H317	H	0.622845	0.641821	0.643233
	O318	O	0.417855	0.387770	0.613331
	H319	H	0.424080	0.393200	0.618757
	H320	H	0.419329	0.381750	0.597764
	O321	O	1.070611	-0.009215	0.853018
	H322	H	1.072372	-0.004828	0.860917
	H323	H	1.094099	-0.013301	0.842485
	O324	O	0.469785	0.456373	1.339047
	H325	H	0.478297	0.449342	1.335373
	H326	H	0.467483	0.474140	1.343114
	O327	O	0.175945	1.012017	0.887988
	H328	H	0.173762	1.004556	0.899618
	H329	H	0.188155	1.035235	0.896811
	O330	O	0.664414	0.407067	0.392777
	H331	H	0.659712	0.405736	0.391346
	H332	H	0.667779	0.381880	0.382404
	O333	O	0.920995	0.883818	1.149780
	H334	H	0.931390	0.887419	1.152301
	H335	H	0.921131	0.879732	1.116193
	O336	O	0.648428	0.552196	0.609919
	H337	H	0.652344	0.558561	0.615053
	H338	H	0.644837	0.552122	0.609976
	O339	O	0.695524	0.505216	0.351771
	H340	H	0.682921	0.488593	0.359972
	H341	H	0.692484	0.488504	0.353497
	O342	O	-0.007238	1.183413	0.983913
	H343	H	0.006025	1.184767	0.978386
	H344	H	0.014195	1.172779	0.981947
	O345	O	-0.072384	1.204260	0.807459
	H346	H	-0.065249	1.225077	0.791155
	H347	H	-0.095429	1.203642	0.825358
	O348	O	0.451360	0.561204	0.567967
	H349	H	0.453429	0.569017	0.564344
	H350	H	0.443136	0.566394	0.575358
	O351	O	-0.101753	-0.145373	0.026021
	H352	H	-0.095391	-0.136580	0.042852
	H353	H	-0.102011	-0.134134	0.037684
	O354	O	0.337927	0.534838	-0.419543
	H355	H	0.344442	0.549794	-0.421477
	H356	H	0.335272	0.543767	-0.417528
	O357	O	0.022351	1.075240	0.041612
	H358	H	0.032275	1.087492	0.048628
	H359	H	0.029549	1.069596	0.034605
	O360	O	-0.185718	-0.200782	0.024133
	H361	H	-0.191351	-0.194588	0.007117
	H362	H	-0.191706	-0.215613	0.028557
	O363	O	0.361644	0.601080	0.384210
	H364	H	0.362391	0.595705	0.381508
	H365	H	0.375776	0.599550	0.371830
	O366	O	0.619457	0.675457	0.538432
	H367	H	0.614585	0.669242	0.528204
	H368	H	0.623849	0.678989	0.532674
	O369	O	0.328379	0.531214	0.522868
	H370	H	0.330871	0.541195	0.521357
	H371	H	0.331927	0.520951	0.515285
	O372	O	0.322259	0.629613	0.378743
	H373	H	0.308983	0.625513	0.368568
	H374	H	0.334449	0.640427	0.373321
	O375	O	1.133787	-0.183693	-0.170360
	H376	H	1.138713	-0.197140	-0.164753
	H377	H	1.124335	-0.188262	-0.166191
	O378	O	0.330486	0.563270	0.493415
	H379	H	0.325956	0.559350	0.487100
	H380	H	0.331866	0.566611	0.481210
	O381	O	-0.004042	-0.178063	0.181685
	H382	H	0.011581	-0.176177	0.187386
	H383	H	-0.008074	-0.165890	0.183643
	O384	O	0.516076	0.381537	1.607814
	H385	H	0.517055	0.376962	1.603289
	H386	H	0.517184	0.387430	1.616311
	O387	O	1.087896	0.810387	-0.154486
	H388	H	1.090565	0.801275	-0.161286
	H389	H	1.076847	0.822512	-0.147323
	O390	O	0.531226	0.345394	0.340409
	H391	H	0.529779	0.345594	0.343126
	H392	H	0.514687	0.337367	0.355560
	O393	O	0.957396	-0.001648	0.850654
	H394	H	0.967308	-0.000785	0.845516
	H395	H	0.959582	0.004766	0.837331
	O396	O	-0.038087	1.133643	0.932394
	H397	H	-0.024355	1.134026	0.934070
	H398	H	-0.048846	1.141620	0.931841
	O399	O	0.485839	0.610365	0.430238
	H400	H	0.479214	0.607502	0.437999
	H401	H	0.481241	0.600765	0.416768
	O402	O	0.925942	-0.038847	0.887587
	H403	H	0.912562	-0.025087	0.873336
	H404	H	0.929539	-0.017739	0.891393
	O405	O	-0.097591	0.026974	-0.118866
	H406	H	-0.095812	-0.004536	-0.130985
	H407	H	-0.116952	0.033524	-0.091618
	O408	O	0.836733	1.145664	1.039155
	H409	H	0.860008	1.149756	1.054703
	H410	H	0.837436	1.142907	1.048773
	O411	O	0.907083	1.126841	-0.040702
	H412	H	0.899444	1.158051	-0.038715
	H413	H	0.906960	1.136134	-0.054548
	O414	O	0.181258	0.150755	0.979899
	H415	H	0.172297	0.150326	0.966413
	H416	H	0.189522	0.140298	0.980697
	O417	O	0.506094	0.475171	0.426047
	H418	H	0.509350	0.471375	0.428480
	H419	H	0.497242	0.461538	0.437662
	O420	O	0.154908	1.140878	0.170604
	H421	H	0.143666	1.130194	0.170737
	H422	H	0.164653	1.138122	0.162277
	O423	O	0.526515	-0.462208	0.486359
	H424	H	0.532808	-0.461923	0.484195
	H425	H	0.536872	-0.475384	0.485206
	O426	O	-0.128635	-0.027296	1.011092
	H427	H	-0.132784	-0.036930	0.990181
	H428	H	-0.131951	-0.037603	1.016229
	O429	O	0.495737	0.597845	0.335159
	H430	H	0.514354	0.582863	0.328475
	H431	H	0.500864	0.601214	0.329595
