data_Molecule from HDF5

_cell_length_a		16.160033
_cell_length_b		16.384860
_cell_length_c		16.185942
_cell_angle_alpha	89.852577
_cell_angle_beta	89.916699
_cell_angle_gamma	90.623678
_symmetry_space_group_name_H-M	'P 1'
_symmetry_Int_Tables_number		1

loop_
	_symmetry_equiv_pos_as_xyz
	x,y,z

loop_
	_atom_site_label
	_atom_site_type_symbol
	_atom_site_fract_x
	_atom_site_fract_y
	_atom_site_fract_z
	H0	H	0.403765	0.835114	0.718426
	H1	H	0.607301	0.159356	0.717467
	H2	H	0.603027	0.835058	0.285406
	H3	H	0.408886	0.160919	0.287311
	H4	H	0.715451	0.401769	0.838339
	H5	H	0.720581	0.597432	0.166767
	H6	H	0.290955	0.595885	0.837814
	H7	H	0.288619	0.398084	0.166242
	H8	H	0.840043	0.711627	0.400205
	H9	H	0.167839	0.713617	0.601130
	H10	H	0.842838	0.275074	0.606219
	H11	H	0.169626	0.285250	0.402871
	H12	H	0.838494	0.396421	0.714034
	H13	H	0.167900	0.595267	0.714677
	H14	H	0.837716	0.591769	0.290641
	H15	H	0.167801	0.400197	0.287109
	H16	H	0.405150	0.713254	0.838796
	H17	H	0.607517	0.715564	0.165373
	H18	H	0.605367	0.282977	0.840063
	H19	H	0.401201	0.279088	0.165696
	H20	H	0.716712	0.832929	0.403911
	H21	H	0.722821	0.158701	0.599959
	H22	H	0.287512	0.835383	0.602748
	H23	H	0.293529	0.160345	0.403435
	H24	H	0.898289	0.335489	0.220817
	H25	H	0.105338	0.658946	0.219356
	H26	H	0.103028	0.333991	0.785445
	H27	H	0.904708	0.657336	0.784559
	H28	H	0.220007	0.900780	0.337340
	H29	H	0.221132	0.095591	0.667299
	H30	H	0.793299	0.094109	0.337605
	H31	H	0.790279	0.895945	0.665628
	H32	H	0.340795	0.212474	0.900340
	H33	H	0.667759	0.216085	0.103709
	H34	H	0.342264	0.777693	0.106493
	H35	H	0.667513	0.782513	0.899240
	H36	H	0.340202	0.898554	0.216000
	H37	H	0.669741	0.098483	0.214895
	H38	H	0.340158	0.094195	0.788057
	H39	H	0.668416	0.899874	0.788256
	H40	H	0.905251	0.213223	0.339743
	H41	H	0.111999	0.215774	0.664877
	H42	H	0.106027	0.782050	0.337337
	H43	H	0.901541	0.778745	0.664469
	H44	H	0.218391	0.334121	0.902579
	H45	H	0.223702	0.658979	0.102901
	H46	H	0.783761	0.335684	0.104139
	H47	H	0.791448	0.658499	0.902043
	H48	H	0.416969	0.114040	0.601773
	H49	H	0.599517	0.879664	0.595176
	H50	H	0.607169	0.113852	0.410660
	H51	H	0.409959	0.882267	0.411003
	H52	H	0.592984	0.408396	0.119115
	H53	H	0.590673	0.595034	0.887485
	H54	H	0.417598	0.595854	0.120311
	H55	H	0.413980	0.393986	0.883262
	H56	H	0.120396	0.587597	0.408890
	H57	H	0.883852	0.591704	0.597074
	H58	H	0.122256	0.406100	0.594615
	H59	H	0.887350	0.402799	0.415004
	H60	H	0.122863	0.405164	0.595190
	H61	H	0.885915	0.590598	0.588920
	H62	H	0.122132	0.594377	0.408671
	H63	H	0.887044	0.403397	0.411884
	H64	H	0.406639	0.586753	0.120645
	H65	H	0.603315	0.596225	0.882450
	H66	H	0.591756	0.403884	0.120230
	H67	H	0.402770	0.407176	0.882477
	H68	H	0.599479	0.114504	0.401874
	H69	H	0.595874	0.880219	0.599838
	H70	H	0.418587	0.110113	0.590291
	H71	H	0.411960	0.881253	0.407169
	H72	H	0.908466	0.615456	0.099939
	H73	H	0.091330	0.381962	0.099000
	H74	H	0.092070	0.608311	0.914740
	H75	H	0.912202	0.379244	0.903658
	H76	H	0.090849	0.910532	0.614665
	H77	H	0.099683	0.091828	0.386170
	H78	H	0.915312	0.091655	0.620672
	H79	H	0.920813	0.903225	0.387000
	H80	H	0.618378	0.097509	0.924961
	H81	H	0.388197	0.085082	0.093952
	H82	H	0.622190	0.909750	0.095942
	H83	H	0.390394	0.910758	0.916342
	H84	H	0.623024	0.903099	0.094875
	H85	H	0.386079	0.089822	0.096509
	H86	H	0.618651	0.078477	0.908278
	H87	H	0.384796	0.904521	0.904583
	H88	H	0.911127	0.083497	0.619367
	H89	H	0.099138	0.090551	0.385583
	H90	H	0.090289	0.897049	0.618668
	H91	H	0.909494	0.896335	0.380879
	H92	H	0.104886	0.612398	0.911113
	H93	H	0.092616	0.383722	0.090350
	H94	H	0.919962	0.610249	0.097761
	H95	H	0.910740	0.382424	0.915051
	H96	H	0.407941	0.115020	0.594349
	H97	H	0.593792	0.882036	0.593684
	H98	H	0.596904	0.109849	0.412519
	H99	H	0.414452	0.883077	0.410401
	H100	H	0.595663	0.405294	0.120261
	H101	H	0.598475	0.584486	0.887316
	H102	H	0.419004	0.582547	0.115216
	H103	H	0.419143	0.409238	0.889183
	H104	H	0.119276	0.592131	0.413858
	H105	H	0.886935	0.583610	0.595232
	H106	H	0.121188	0.405351	0.594007
	H107	H	0.886322	0.400587	0.412840
	H108	H	0.911075	0.610758	0.088906
	H109	H	0.098949	0.380804	0.095749
	H110	H	0.094345	0.612658	0.901385
	H111	H	0.901846	0.377595	0.908809
	H112	H	0.102799	0.904138	0.620717
	H113	H	0.098715	0.091402	0.385642
	H114	H	0.919969	0.084529	0.617619
	H115	H	0.908592	0.908989	0.385136
	H116	H	0.628064	0.101109	0.901032
	H117	H	0.388419	0.090351	0.090818
	H118	H	0.621570	0.906412	0.089997
	H119	H	0.386648	0.896763	0.915925
	C120	C	0.383753	0.005829	0.624571
	C121	C	0.627334	0.988165	0.624869
	C122	C	0.628147	0.005126	0.379236
	C123	C	0.384107	0.989556	0.380438
	C124	C	0.623584	0.377580	0.011616
	C125	C	0.627267	0.620435	0.994075
	C126	C	0.384597	0.618069	0.010686
	C127	C	0.381912	0.374287	0.993281
	C128	C	0.012092	0.618650	0.380952
	C129	C	0.994533	0.618105	0.622684
	C130	C	0.013579	0.374056	0.624381
	C131	C	0.995600	0.375022	0.382292
	C132	C	0.881431	0.505469	0.124953
	C133	C	0.125501	0.488687	0.124604
	C134	C	0.125702	0.504460	0.879789
	C135	C	0.881008	0.487039	0.880041
	C136	C	0.125088	0.875710	0.509836
	C137	C	0.128697	0.119624	0.494174
	C138	C	0.886057	0.115898	0.510987
	C139	C	0.882830	0.873437	0.492357
	C140	C	0.513257	0.120106	0.881033
	C141	C	0.495957	0.118794	0.123067
	C142	C	0.513791	0.876173	0.123684
	C143	C	0.495743	0.876163	0.881843
	C144	C	0.383969	0.883752	0.680427
	C145	C	0.626834	0.110539	0.679666
	C146	C	0.623750	0.883284	0.323725
	C147	C	0.387839	0.112002	0.324994
	C148	C	0.678503	0.380955	0.887833
	C149	C	0.682941	0.618249	0.117470
	C150	C	0.329225	0.615577	0.886747
	C151	C	0.326164	0.377003	0.117204
	C152	C	0.888459	0.673048	0.381424
	C153	C	0.118510	0.674705	0.620733
	C154	C	0.891030	0.315106	0.624571
	C155	C	0.119911	0.321959	0.383039
	C156	C	0.888587	0.375965	0.677706
	C157	C	0.118476	0.616296	0.677519
	C158	C	0.887372	0.613570	0.326924
	C159	C	0.119074	0.379206	0.325497
	C160	C	0.385551	0.674374	0.887475
	C161	C	0.626706	0.677018	0.116826
	C162	C	0.623921	0.321545	0.888645
	C163	C	0.382142	0.318039	0.116868
	C164	C	0.680383	0.882116	0.382709
	C165	C	0.684452	0.110163	0.621113
	C166	C	0.326072	0.883818	0.622883
	C167	C	0.330865	0.112043	0.383166
	C168	C	0.879981	0.383882	0.182097
	C169	C	0.125345	0.610589	0.181102
	C170	C	0.123372	0.382530	0.823673
	C171	C	0.884655	0.609123	0.823401
	C172	C	0.181629	0.879526	0.386516
	C173	C	0.184202	0.116777	0.617745
	C174	C	0.830344	0.114535	0.387237
	C175	C	0.827176	0.875309	0.616191
	C176	C	0.389787	0.174478	0.881482
	C177	C	0.619096	0.176810	0.122725
	C178	C	0.390937	0.817648	0.124396
	C179	C	0.618812	0.820891	0.881184
	C180	C	0.389763	0.877235	0.179254
	C181	C	0.620198	0.118119	0.178071
	C182	C	0.389557	0.115543	0.825642
	C183	C	0.619474	0.879248	0.825891
	C184	C	0.886118	0.173785	0.388336
	C185	C	0.129551	0.176283	0.616622
	C186	C	0.124997	0.820411	0.386435
	C187	C	0.882719	0.817001	0.615559
	C188	C	0.180642	0.382503	0.882226
	C189	C	0.184334	0.610455	0.123424
	C190	C	0.823020	0.383950	0.123834
	C191	C	0.828442	0.609971	0.882034
	C192	C	0.407611	0.090995	0.602155
	C193	C	0.603449	0.902665	0.602839
	C194	C	0.607457	0.090664	0.401740
	C195	C	0.405589	0.904239	0.402890
	C196	C	0.600333	0.399490	0.097563
	C197	C	0.604278	0.598351	0.908033
	C198	C	0.407591	0.595123	0.096516
	C199	C	0.405175	0.396842	0.907234
	C200	C	0.098394	0.597538	0.403765
	C201	C	0.907955	0.595315	0.600240
	C202	C	0.099854	0.398323	0.601406
	C203	C	0.909250	0.395923	0.406282
	C204	C	0.906082	0.590286	0.102095
	C205	C	0.101433	0.404230	0.101757
	C206	C	0.103486	0.589247	0.902383
	C207	C	0.901957	0.401842	0.902725
	C208	C	0.101580	0.897436	0.595695
	C209	C	0.105683	0.097774	0.408088
	C210	C	0.908832	0.092986	0.596962
	C211	C	0.906033	0.896113	0.406514
	C212	C	0.599579	0.098751	0.904534
	C213	C	0.409834	0.095261	0.100540
	C214	C	0.599835	0.899564	0.100521
	C215	C	0.409736	0.897669	0.905228
	Zn216	Zn	0.504812	-0.002877	0.754241
	Zn217	Zn	0.505325	-0.002059	0.250489
	Zn218	Zn	0.753539	0.497404	0.002511
	Zn219	Zn	0.255253	0.496951	0.001682
	Zn220	Zn	0.003087	0.746216	0.500890
	Zn221	Zn	0.006173	0.246363	0.503239
	Zn222	Zn	0.003106	0.495739	0.751190
	Zn223	Zn	0.002457	0.496574	0.254107
	Zn224	Zn	0.504870	0.748340	0.002312
	Zn225	Zn	0.504146	0.247683	0.002782
	Zn226	Zn	0.756446	-0.004619	0.502040
	Zn227	Zn	0.255083	-0.002203	0.502205
	N228	N	0.418838	0.960547	0.681777
	N229	N	0.591839	0.033574	0.682076
	N230	N	0.592116	0.960713	0.321491
	N231	N	0.420469	0.034814	0.323357
	N232	N	0.678557	0.415125	0.965293
	N233	N	0.683595	0.584230	0.040131
	N234	N	0.328548	0.581159	0.964484
	N235	N	0.325903	0.411253	0.039421
	N236	N	0.966804	0.676205	0.414131
	N237	N	0.040187	0.676041	0.587547
	N238	N	0.969637	0.314137	0.591982
	N239	N	0.041992	0.319307	0.417541
	N240	N	0.966051	0.411759	0.678079
	N241	N	0.040620	0.581575	0.678619
	N242	N	0.965366	0.580215	0.326548
	N243	N	0.040863	0.411444	0.325005
	N244	N	0.419105	0.676080	0.965414
	N245	N	0.592878	0.678712	0.038882
	N246	N	0.590065	0.319544	0.966599
	N247	N	0.415620	0.315988	0.038717
	N248	N	0.683250	0.959077	0.416406
	N249	N	0.684782	0.032991	0.587877
	N250	N	0.325742	0.960809	0.588768
	N251	N	0.328316	0.034911	0.416816
	N252	N	0.915945	0.460274	0.182583
	N253	N	0.089628	0.533839	0.182219
	N254	N	0.089855	0.459312	0.822086
	N255	N	0.916740	0.531830	0.822145
	N256	N	0.181816	0.913102	0.464218
	N257	N	0.183858	0.082259	0.540463
	N258	N	0.830060	0.079209	0.464396
	N259	N	0.826915	0.909598	0.538568
	N260	N	0.467867	0.177289	0.915328
	N261	N	0.540927	0.177516	0.089329
	N262	N	0.469246	0.816701	0.090775
	N263	N	0.540972	0.818933	0.915466
	N264	N	0.467091	0.912958	0.178887
	N265	N	0.542587	0.082445	0.178315
	N266	N	0.467317	0.082431	0.825419
	N267	N	0.542078	0.913196	0.826380
	N268	N	0.920372	0.174489	0.466102
	N269	N	0.095519	0.178167	0.538721
	N270	N	0.090375	0.817832	0.464170
	N271	N	0.916635	0.815630	0.537643
	N272	N	0.182258	0.459286	0.916322
	N273	N	0.184673	0.533827	0.089286
	N274	N	0.823816	0.460626	0.088915
	N275	N	0.825963	0.533137	0.916588
	O276	O	1.062400	0.949896	-0.000840
	H277	H	1.073392	0.942266	-0.009543
	H278	H	1.054765	0.945927	-0.012021
	O279	O	0.458058	0.526601	0.467361
	H280	H	0.453483	0.521089	0.468290
	H281	H	0.455612	0.534208	0.470334
	O282	O	1.105814	1.131015	0.021797
	H283	H	1.114593	1.119513	0.016196
	H284	H	1.108875	1.136332	0.019694
	O285	O	0.937303	0.069248	0.943345
	H286	H	0.941071	0.073827	0.944620
	H287	H	0.932012	0.058192	0.946565
	O288	O	0.542193	0.549197	0.507916
	H289	H	0.539633	0.554036	0.505701
	H290	H	0.540960	0.549395	0.508982
	O291	O	0.489138	0.560225	0.485566
	H292	H	0.500227	0.570846	0.488178
	H293	H	0.490723	0.541720	0.483673
	O294	O	0.502500	0.482899	0.539057
	H295	H	0.500825	0.490876	0.551915
	H296	H	0.507875	0.480887	0.548677
	O297	O	-0.080355	0.149208	0.947213
	H298	H	-0.084780	0.141335	0.952917
	H299	H	-0.069010	0.148445	0.951521
	O300	O	0.378372	0.564301	0.542592
	H301	H	0.377762	0.559830	0.534433
	H302	H	0.374245	0.571267	0.539762
	O303	O	1.147823	1.076498	0.098793
	H304	H	1.150537	1.084958	0.101934
	H305	H	1.161200	1.077387	0.089978
	O306	O	-0.104061	0.990434	0.987981
	H307	H	-0.107943	0.991224	0.988549
	H308	H	-0.097241	0.991232	0.987387
	O309	O	-0.134368	-0.156217	0.991789
	H310	H	-0.138925	-0.156396	0.999077
	H311	H	-0.146004	-0.152625	0.993776
	O312	O	-0.105087	-0.050613	-0.007648
	H313	H	-0.110671	-0.071120	-0.016169
	H314	H	-0.078540	-0.040743	0.010833
	O315	O	1.077140	-0.012326	0.048427
	H316	H	1.068921	-0.012933	0.045982
	H317	H	1.063800	-0.013941	0.038983
	O318	O	0.920059	0.840710	1.099748
	H319	H	0.918126	0.844972	1.088476
	H320	H	0.916560	0.847652	1.099874
	O321	O	-0.003881	0.021232	1.025569
	H322	H	0.007654	0.028530	1.038135
	H323	H	-0.010388	0.009854	1.035897
	O324	O	0.484960	0.450459	0.509675
	H325	H	0.485992	0.439211	0.512538
	H326	H	0.494234	0.447284	0.511679
	O327	O	0.157883	-0.091515	0.021771
	H328	H	0.152940	-0.094594	0.018162
	H329	H	0.152790	-0.085623	0.030301
	O330	O	0.455668	0.498939	0.487745
	H331	H	0.460904	0.505765	0.480390
	H332	H	0.457374	0.507581	0.491280
	O333	O	-0.011519	1.092948	1.042439
	H334	H	-0.018157	1.097524	1.044906
	H335	H	-0.021117	1.105473	1.039939
	O336	O	-0.009790	0.122487	0.061390
	H337	H	0.009467	0.138484	0.075413
	H338	H	-0.003707	0.112421	0.057940
	O339	O	0.505596	0.478864	0.476609
	H340	H	0.502869	0.485124	0.473182
	H341	H	0.502436	0.472324	0.474519
	O342	O	1.062540	1.057268	0.905919
	H343	H	1.058779	1.062023	0.929761
	H344	H	1.063490	1.058359	0.895507
	O345	O	1.017986	0.942182	0.065478
	H346	H	1.020843	0.943388	0.067572
	H347	H	1.013076	0.950796	0.058662
	O348	O	0.560498	0.499878	0.586541
	H349	H	0.565915	0.500421	0.588934
	H350	H	0.556591	0.503954	0.586320
	O351	O	0.051073	0.986437	-0.177635
	H352	H	0.056223	0.999915	-0.182477
	H353	H	0.051419	0.988564	-0.165928
	O354	O	0.415853	0.580109	0.406311
	H355	H	0.411932	0.574943	0.406490
	H356	H	0.415918	0.579605	0.398507
	O357	O	1.087531	0.003938	1.169750
	H358	H	1.094713	-0.008041	1.166526
	H359	H	1.077860	-0.003294	1.180896
	O360	O	0.466209	0.461192	0.512778
	H361	H	0.465349	0.471762	0.508972
	H362	H	0.470807	0.463477	0.507705
	O363	O	0.485291	0.565160	0.433148
	H364	H	0.480653	0.565749	0.436105
	H365	H	0.486888	0.568021	0.434989
	O366	O	1.018155	0.875649	0.816988
	H367	H	1.047440	0.876902	0.827452
	H368	H	1.004171	0.849418	0.801555
	O369	O	1.038601	-0.066455	1.026307
	H370	H	1.036128	-0.072925	1.030044
	H371	H	1.032628	-0.057373	1.016973
	O372	O	0.010498	-0.104526	-0.045754
	H373	H	0.000977	-0.106651	-0.042061
	H374	H	0.005427	-0.108097	-0.057264
	O375	O	0.974894	0.046473	0.004964
	H376	H	0.980373	0.039708	-0.000546
	H377	H	0.978498	0.049292	0.005669
	O378	O	0.486442	0.503262	0.508114
	H379	H	0.487748	0.496315	0.508146
	H380	H	0.484248	0.505019	0.495046
	O381	O	0.450276	0.488594	0.552643
	H382	H	0.440276	0.482161	0.559904
	H383	H	0.446113	0.485313	0.558390
