data_Molecule from HDF5

_cell_length_a		16.553146
_cell_length_b		16.462123
_cell_length_c		16.558949
_cell_angle_alpha	90.042759
_cell_angle_beta	90.123150
_cell_angle_gamma	89.961328
_symmetry_space_group_name_H-M	'P 1'
_symmetry_Int_Tables_number		1

loop_
	_symmetry_equiv_pos_as_xyz
	x,y,z

loop_
	_atom_site_label
	_atom_site_type_symbol
	_atom_site_fract_x
	_atom_site_fract_y
	_atom_site_fract_z
	H0	H	0.396370	0.851848	0.726734
	H1	H	0.604152	0.167755	0.724305
	H2	H	0.604956	0.849053	0.287231
	H3	H	0.397057	0.164826	0.283747
	H4	H	0.722756	0.403873	0.847444
	H5	H	0.725032	0.612898	0.161328
	H6	H	0.279005	0.615998	0.849646
	H7	H	0.284224	0.407415	0.163747
	H8	H	0.842681	0.724586	0.404592
	H9	H	0.158307	0.731387	0.609016
	H10	H	0.846498	0.288801	0.609573
	H11	H	0.159931	0.288186	0.403251
	H12	H	0.849692	0.401836	0.729187
	H13	H	0.159751	0.615653	0.727009
	H14	H	0.843497	0.610441	0.286404
	H15	H	0.160440	0.406465	0.286555
	H16	H	0.399895	0.727734	0.847538
	H17	H	0.606779	0.727830	0.162081
	H18	H	0.603324	0.289377	0.846690
	H19	H	0.400071	0.289984	0.163652
	H20	H	0.720800	0.849542	0.404646
	H21	H	0.719691	0.167583	0.607471
	H22	H	0.280454	0.851580	0.609177
	H23	H	0.276732	0.162638	0.396138
	H24	H	0.902333	0.348771	0.222880
	H25	H	0.107485	0.666274	0.226565
	H26	H	0.112176	0.351419	0.782063
	H27	H	0.898314	0.664055	0.782860
	H28	H	0.223925	0.900231	0.349748
	H29	H	0.226228	0.114986	0.661227
	H30	H	0.783684	0.109999	0.348321
	H31	H	0.783830	0.906876	0.663983
	H32	H	0.342207	0.229549	0.900367
	H33	H	0.659072	0.226359	0.105689
	H34	H	0.345325	0.788308	0.107335
	H35	H	0.660068	0.790696	0.903811
	H36	H	0.344599	0.904265	0.224327
	H37	H	0.659707	0.110506	0.223100
	H38	H	0.343392	0.114414	0.782298
	H39	H	0.659197	0.906089	0.786553
	H40	H	0.900452	0.227128	0.348352
	H41	H	0.108123	0.228955	0.663457
	H42	H	0.104409	0.788187	0.347141
	H43	H	0.899020	0.788622	0.663081
	H44	H	0.225560	0.350273	0.900419
	H45	H	0.223326	0.666270	0.110797
	H46	H	0.785434	0.348415	0.105699
	H47	H	0.781530	0.663974	0.898693
	H48	H	0.420022	0.119423	0.595041
	H49	H	0.598440	0.891455	0.602625
	H50	H	0.589903	0.121068	0.412363
	H51	H	0.408339	0.895016	0.422022
	H52	H	0.599643	0.423601	0.117410
	H53	H	0.598958	0.597752	0.890667
	H54	H	0.414696	0.602049	0.118929
	H55	H	0.412340	0.419806	0.893636
	H56	H	0.116329	0.598643	0.410960
	H57	H	0.891895	0.594681	0.595288
	H58	H	0.119761	0.413053	0.596748
	H59	H	0.886305	0.409536	0.412599
	H60	H	0.113600	0.418837	0.586008
	H61	H	0.890105	0.596542	0.596253
	H62	H	0.115659	0.602223	0.416527
	H63	H	0.893266	0.420568	0.422614
	H64	H	0.409200	0.596532	0.118137
	H65	H	0.590200	0.594551	0.893862
	H66	H	0.586916	0.420768	0.114421
	H67	H	0.412263	0.419879	0.892713
	H68	H	0.593402	0.121441	0.416677
	H69	H	0.583479	0.897312	0.598880
	H70	H	0.414821	0.118336	0.584758
	H71	H	0.411022	0.891832	0.408771
	H72	H	0.910713	0.622941	0.101100
	H73	H	0.088304	0.395338	0.099781
	H74	H	0.094528	0.621520	0.915517
	H75	H	0.918032	0.394491	0.914115
	H76	H	0.086491	0.924595	0.613473
	H77	H	0.090060	0.100123	0.392649
	H78	H	0.913083	0.097411	0.618713
	H79	H	0.912262	0.915445	0.392369
	H80	H	0.613067	0.103589	0.916530
	H81	H	0.388393	0.100568	0.093044
	H82	H	0.615969	0.917778	0.098995
	H83	H	0.389771	0.922708	0.915669
	H84	H	0.616050	0.916508	0.096442
	H85	H	0.389580	0.094524	0.096173
	H86	H	0.609821	0.094877	0.917928
	H87	H	0.387013	0.917996	0.911452
	H88	H	0.911450	0.102697	0.620140
	H89	H	0.093216	0.093926	0.394019
	H90	H	0.088340	0.915155	0.617919
	H91	H	0.907011	0.915842	0.391221
	H92	H	0.088164	0.619034	0.915821
	H93	H	0.092983	0.397989	0.089917
	H94	H	0.918732	0.619565	0.095578
	H95	H	0.917149	0.395894	0.919875
	H96	H	0.409225	0.122840	0.593707
	H97	H	0.595817	0.896732	0.587611
	H98	H	0.594956	0.124005	0.412213
	H99	H	0.420939	0.898141	0.417075
	H100	H	0.595168	0.411196	0.119821
	H101	H	0.591797	0.603450	0.890989
	H102	H	0.416485	0.595393	0.116367
	H103	H	0.412294	0.420152	0.894036
	H104	H	0.113480	0.596032	0.416392
	H105	H	0.890761	0.596307	0.593296
	H106	H	0.115271	0.425963	0.597190
	H107	H	0.889632	0.424668	0.407143
	H108	H	0.910058	0.620788	0.090701
	H109	H	0.098930	0.391878	0.097315
	H110	H	0.092099	0.619563	0.921566
	H111	H	0.912580	0.393993	0.916562
	H112	H	0.096129	0.922354	0.618122
	H113	H	0.086461	0.095086	0.396069
	H114	H	0.907737	0.098108	0.620211
	H115	H	0.909771	0.919936	0.393488
	H116	H	0.613808	0.097056	0.909765
	H117	H	0.386662	0.099132	0.099541
	H118	H	0.615312	0.919073	0.096814
	H119	H	0.388564	0.916217	0.917828
	C120	C	0.381741	0.016595	0.624369
	C121	C	0.622886	1.000231	0.626863
	C122	C	0.623651	0.016874	0.383947
	C123	C	0.380511	0.998768	0.383228
	C124	C	0.623829	0.386920	0.012806
	C125	C	0.624939	0.629506	0.995939
	C126	C	0.381275	0.630163	0.014065
	C127	C	0.381299	0.388385	0.997570
	C128	C	0.010574	0.629630	0.383604
	C129	C	0.994503	0.629190	0.626643
	C130	C	0.013157	0.387022	0.626405
	C131	C	0.994159	0.386735	0.383654
	C132	C	0.882327	0.516145	0.126214
	C133	C	0.124417	0.499761	0.127283
	C134	C	0.125027	0.516212	0.884680
	C135	C	0.882839	0.498720	0.883798
	C136	C	0.122204	0.887419	0.513262
	C137	C	0.123428	0.128975	0.497408
	C138	C	0.880536	0.130155	0.514942
	C139	C	0.879691	0.886779	0.496906
	C140	C	0.508270	0.130657	0.883034
	C141	C	0.492857	0.129163	0.126461
	C142	C	0.511258	0.886082	0.127599
	C143	C	0.492751	0.887803	0.883938
	C144	C	0.378456	0.898566	0.685732
	C145	C	0.623207	0.120039	0.684729
	C146	C	0.624006	0.896854	0.326602
	C147	C	0.378221	0.117236	0.323359
	C148	C	0.682707	0.385357	0.894324
	C149	C	0.684575	0.631171	0.114244
	C150	C	0.320330	0.633029	0.896197
	C151	C	0.323530	0.387910	0.116584
	C152	C	0.890602	0.686534	0.384290
	C153	C	0.111991	0.690893	0.628228
	C154	C	0.894203	0.327779	0.628634
	C155	C	0.113108	0.328189	0.383680
	C156	C	0.895799	0.383891	0.687913
	C157	C	0.112597	0.633174	0.686427
	C158	C	0.891258	0.629791	0.325503
	C159	C	0.113223	0.386570	0.325856
	C160	C	0.380270	0.688779	0.895005
	C161	C	0.625752	0.688436	0.114648
	C162	C	0.623467	0.328507	0.894135
	C163	C	0.380959	0.329624	0.116436
	C164	C	0.681679	0.897108	0.384583
	C165	C	0.680890	0.119918	0.626858
	C166	C	0.320833	0.898340	0.627648
	C167	C	0.318566	0.116285	0.379269
	C168	C	0.882578	0.396210	0.183758
	C169	C	0.125534	0.618825	0.186596
	C170	C	0.129360	0.398379	0.823042
	C171	C	0.879919	0.616819	0.822937
	C172	C	0.182950	0.883588	0.396007
	C173	C	0.185497	0.132599	0.614726
	C174	C	0.822524	0.130320	0.395797
	C175	C	0.822445	0.887107	0.616284
	C176	C	0.389822	0.190160	0.881432
	C177	C	0.611939	0.186973	0.125332
	C178	C	0.392447	0.827746	0.127088
	C179	C	0.612536	0.830161	0.884419
	C180	C	0.392253	0.885073	0.185434
	C181	C	0.612140	0.129615	0.183902
	C182	C	0.390351	0.132801	0.822736
	C183	C	0.612002	0.887325	0.825852
	C184	C	0.880926	0.187917	0.395717
	C185	C	0.126710	0.189444	0.615635
	C186	C	0.123715	0.827270	0.395191
	C187	C	0.879655	0.828378	0.615958
	C188	C	0.185879	0.397857	0.882015
	C189	C	0.183327	0.619061	0.128999
	C190	C	0.824850	0.396049	0.125594
	C191	C	0.821961	0.616873	0.880506
	C192	C	0.407297	0.098739	0.598659
	C193	C	0.599140	0.916804	0.603247
	C194	C	0.599588	0.100452	0.407259
	C195	C	0.406099	0.916358	0.408805
	C196	C	0.600583	0.411487	0.095633
	C197	C	0.600653	0.605340	0.913294
	C198	C	0.406336	0.605140	0.096458
	C199	C	0.405431	0.412893	0.914896
	C200	C	0.093617	0.605875	0.407516
	C201	C	0.912388	0.603351	0.601877
	C202	C	0.095011	0.412299	0.600809
	C203	C	0.911240	0.411276	0.407346
	C204	C	0.906213	0.599562	0.102341
	C205	C	0.100340	0.416775	0.102615
	C206	C	0.099054	0.598600	0.910203
	C207	C	0.908641	0.416326	0.909308
	C208	C	0.097354	0.913262	0.595261
	C209	C	0.097431	0.103577	0.415573
	C210	C	0.904020	0.106373	0.598154
	C211	C	0.903052	0.910179	0.413837
	C212	C	0.590601	0.105733	0.907773
	C213	C	0.409897	0.105140	0.102966
	C214	C	0.594362	0.910621	0.104006
	C215	C	0.410079	0.912021	0.907974
	Zn216	Zn	0.501059	0.008714	0.754873
	Zn217	Zn	0.502081	0.007445	0.255377
	Zn218	Zn	0.754026	0.507339	0.004450
	Zn219	Zn	0.252463	0.508964	0.006286
	Zn220	Zn	0.001220	0.757919	0.505269
	Zn221	Zn	0.002880	0.258172	0.505979
	Zn222	Zn	0.004654	0.507685	0.755733
	Zn223	Zn	0.002692	0.508150	0.254996
	Zn224	Zn	0.502521	0.758557	0.004692
	Zn225	Zn	0.500971	0.258663	0.004969
	Zn226	Zn	0.751611	0.008663	0.506227
	Zn227	Zn	0.252189	0.007922	0.505235
	N228	N	0.415990	0.972914	0.683544
	N229	N	0.587921	0.044563	0.685059
	N230	N	0.588744	0.972368	0.325947
	N231	N	0.416033	0.043053	0.325698
	N232	N	0.683160	0.420936	0.969270
	N233	N	0.684441	0.595427	0.039371
	N234	N	0.320758	0.597445	0.971216
	N235	N	0.323620	0.423482	0.041590
	N236	N	0.965900	0.686919	0.419449
	N237	N	0.037341	0.688545	0.592058
	N238	N	0.968190	0.329460	0.591170
	N239	N	0.037907	0.328028	0.418605
	N240	N	0.970606	0.419740	0.686710
	N241	N	0.038515	0.595723	0.685800
	N242	N	0.967071	0.595667	0.324502
	N243	N	0.038109	0.421995	0.325693
	N244	N	0.417351	0.687100	0.969324
	N245	N	0.589532	0.687809	0.039931
	N246	N	0.587862	0.329105	0.968874
	N247	N	0.415909	0.329634	0.041193
	N248	N	0.681649	0.972802	0.419580
	N249	N	0.680765	0.044405	0.591555
	N250	N	0.323084	0.972570	0.590120
	N251	N	0.319861	0.041534	0.415738
	N252	N	0.917281	0.472002	0.184205
	N253	N	0.089782	0.543605	0.185940
	N254	N	0.092321	0.473053	0.824518
	N255	N	0.917115	0.542348	0.824987
	N256	N	0.182126	0.920305	0.470407
	N257	N	0.184008	0.096370	0.539945
	N258	N	0.821776	0.095579	0.471108
	N259	N	0.822198	0.922347	0.541209
	N260	N	0.464180	0.188799	0.918277
	N261	N	0.536690	0.186993	0.090509
	N262	N	0.467652	0.828118	0.091984
	N263	N	0.537417	0.830001	0.919548
	N264	N	0.467400	0.920326	0.185846
	N265	N	0.536928	0.094436	0.184826
	N266	N	0.465107	0.096821	0.823394
	N267	N	0.536411	0.922040	0.825119
	N268	N	0.915747	0.188205	0.471081
	N269	N	0.089029	0.187683	0.541676
	N270	N	0.086490	0.829445	0.469197
	N271	N	0.914400	0.827909	0.540695
	N272	N	0.183463	0.472436	0.919420
	N273	N	0.182714	0.544005	0.092848
	N274	N	0.824400	0.471793	0.090747
	N275	N	0.823719	0.542392	0.917728
	O276	O	0.971382	0.790332	0.225506
	H277	H	0.953178	0.778148	0.220987
	H278	H	0.950253	0.766607	0.244178
	O279	O	0.105906	0.161306	1.101975
	H280	H	0.108008	0.180786	1.112041
	H281	H	0.120449	0.165406	1.084227
	O282	O	0.629855	0.666478	0.398058
	H283	H	0.625689	0.643104	0.398216
	H284	H	0.626460	0.657008	0.409430
	O285	O	0.383153	0.504931	0.454853
	H286	H	0.385226	0.505637	0.444005
	H287	H	0.383058	0.516615	0.458986
	O288	O	1.000739	-0.214842	0.955570
	H289	H	1.006995	-0.217596	0.932343
	H290	H	0.982963	-0.216159	0.959554
	O291	O	0.718035	0.726189	0.542120
	H292	H	0.743221	0.745896	0.549652
	H293	H	0.716803	0.717045	0.557423
	O294	O	0.071710	-0.084001	-0.202371
	H295	H	0.072494	-0.076772	-0.207087
	H296	H	0.079143	-0.070992	-0.205881
	O297	O	0.899584	0.185253	0.020102
	H298	H	0.893622	0.188050	0.016917
	H299	H	0.905984	0.197721	0.016067
	O300	O	0.150588	0.012499	-0.087177
	H301	H	0.165024	0.006833	-0.077947
	H302	H	0.142252	0.019693	-0.072634
	O303	O	-0.118282	-0.146944	-0.130511
	H304	H	-0.112807	-0.138697	-0.112811
	H305	H	-0.102709	-0.133929	-0.126845
	O306	O	0.987412	0.036019	-0.072589
	H307	H	0.996473	0.056936	-0.052336
	H308	H	0.989736	0.034639	-0.063965
	O309	O	0.527740	0.640041	0.290246
	H310	H	0.538681	0.641921	0.268793
	H311	H	0.498773	0.617311	0.286633
	O312	O	0.306322	0.341552	0.661864
	H313	H	0.318752	0.352954	0.666838
	H314	H	0.317225	0.346369	0.652230
	O315	O	0.474774	0.719555	0.684174
	H316	H	0.498300	0.719439	0.671946
	H317	H	0.476892	0.726371	0.691434
	O318	O	1.050609	0.960917	0.057197
	H319	H	1.048089	0.954913	0.052610
	H320	H	1.037945	0.967224	0.073563
	O321	O	-0.052681	1.004474	1.076738
	H322	H	-0.056230	0.999442	1.068684
	H323	H	-0.043087	0.991815	1.093693
	O324	O	0.923760	-0.059446	0.869952
	H325	H	0.942113	-0.046637	0.870425
	H326	H	0.910909	-0.055592	0.875677
	O327	O	0.707994	0.711736	0.713794
	H328	H	0.725376	0.723881	0.719900
	H329	H	0.696181	0.723285	0.725221
	O330	O	0.332017	0.699465	0.311582
	H331	H	0.355427	0.705455	0.329793
	H332	H	0.310783	0.728071	0.295852
	O333	O	0.331322	0.292010	0.544138
	H334	H	0.323757	0.278919	0.546068
	H335	H	0.331459	0.284701	0.551845
	O336	O	0.654362	0.526844	0.495085
	H337	H	0.658424	0.504699	0.491485
	H338	H	0.652652	0.538562	0.499294
	O339	O	0.296238	0.711887	0.484261
	H340	H	0.281683	0.721584	0.474261
	H341	H	0.306424	0.709481	0.491215
	O342	O	-0.216411	1.031440	-0.189271
	H343	H	-0.215419	1.061350	-0.191689
	H344	H	-0.232851	1.043306	-0.194924
	O345	O	0.705841	0.582451	0.539600
	H346	H	0.703033	0.594283	0.544807
	H347	H	0.687222	0.584499	0.553951
	O348	O	0.439787	0.313832	0.714780
	H349	H	0.461129	0.305775	0.713198
	H350	H	0.435653	0.303573	0.724966
	O351	O	-0.169770	0.033483	1.004166
	H352	H	-0.170204	0.028435	0.982328
	H353	H	-0.181224	0.033839	0.994467
	O354	O	1.031362	0.040052	1.226493
	H355	H	1.036611	0.023607	1.238666
	H356	H	1.050941	0.027631	1.215299
	O357	O	0.318371	0.327274	0.322238
	H358	H	0.331441	0.337815	0.330641
	H359	H	0.329754	0.345129	0.342796
	O360	O	0.452567	0.302309	0.428137
	H361	H	0.463957	0.305200	0.442376
	H362	H	0.446448	0.297016	0.438371
	O363	O	0.943876	0.212465	-0.080566
	H364	H	0.933657	0.219848	-0.081017
	H365	H	0.940703	0.210652	-0.093975
	O366	O	0.694806	0.327715	0.690155
	H367	H	0.676434	0.343416	0.670275
	H368	H	0.678112	0.355853	0.682102
	O369	O	-0.208411	-0.209341	1.030536
	H370	H	-0.217783	-0.210616	1.054168
	H371	H	-0.215608	-0.223250	1.048341
	O372	O	-0.029900	1.220471	0.793118
	H373	H	-0.012512	1.228246	0.791682
	H374	H	-0.019812	1.232513	0.794119
	O375	O	1.155466	0.032268	0.163715
	H376	H	1.149537	0.035208	0.156524
	H377	H	1.150614	0.019687	0.176582
	O378	O	0.722577	0.308185	0.468588
	H379	H	0.736835	0.300757	0.443200
	H380	H	0.735648	0.296307	0.457766
	O381	O	-0.182879	1.184017	0.191382
	H382	H	-0.160258	1.170201	0.181158
	H383	H	-0.170218	1.168275	0.170631
	O384	O	0.304017	0.493491	0.625262
	H385	H	0.315627	0.505295	0.621272
	H386	H	0.298796	0.486384	0.638170
	O387	O	0.207870	0.804620	0.800360
	H388	H	0.204628	0.783716	0.778863
	H389	H	0.215464	0.823927	0.805751
	O390	O	0.210772	0.999252	1.017068
	H391	H	0.212654	0.989733	1.004109
	H392	H	0.209754	0.989189	1.008342
	O393	O	1.215210	-0.145251	-0.024004
	H394	H	1.207365	-0.150191	-0.029128
	H395	H	1.231607	-0.164509	-0.033242
	O396	O	0.536512	0.292675	0.286566
	H397	H	0.545901	0.277298	0.276086
	H398	H	0.537181	0.285500	0.290374
	O399	O	0.441945	0.493913	0.726553
	H400	H	0.422223	0.485612	0.740167
	H401	H	0.442737	0.488808	0.715923
	O402	O	0.912986	0.013215	1.191379
	H403	H	0.936983	0.009442	1.195042
	H404	H	0.912321	0.029838	1.185955
	O405	O	0.721474	0.470330	0.284718
	H406	H	0.707463	0.454304	0.289854
	H407	H	0.752591	0.477202	0.258456
	O408	O	1.125966	0.883886	1.005679
	H409	H	1.130889	0.872701	0.994715
	H410	H	1.127201	0.881112	0.988885
	O411	O	0.806602	0.804040	0.206988
	H412	H	0.784298	0.785603	0.228757
	H413	H	0.800312	0.853456	0.213139
	O414	O	0.042283	-0.133763	-0.136519
	H415	H	0.035508	-0.142252	-0.153982
	H416	H	0.037470	-0.133451	-0.137012
	O417	O	0.708693	0.301762	0.298794
	H418	H	0.694162	0.322070	0.303476
	H419	H	0.728471	0.271976	0.269684
	O420	O	0.990445	0.128682	0.942910
	H421	H	0.985828	0.143171	0.953734
	H422	H	0.993288	0.115685	0.951191
	O423	O	0.791773	1.044381	0.133192
	H424	H	0.790205	1.052074	0.123082
	H425	H	0.801029	1.063981	0.123458
	O426	O	0.395586	0.587189	0.519106
	H427	H	0.400766	0.591549	0.505462
	H428	H	0.392759	0.599606	0.515090
	O429	O	0.518840	0.553275	0.418164
	H430	H	0.502965	0.544812	0.410337
	H431	H	0.503039	0.554039	0.408729
	O432	O	0.791922	0.215789	0.798462
	H433	H	0.781346	0.244337	0.774137
	H434	H	0.817576	0.220531	0.785965
	O435	O	0.453244	0.553093	0.725530
	H436	H	0.454118	0.561984	0.730119
	H437	H	0.455090	0.561477	0.717563
	O438	O	0.463914	0.468696	0.283651
	H439	H	0.429483	0.467875	0.284428
	H440	H	0.463675	0.444952	0.286635
	O441	O	0.496591	0.724028	0.619004
	H442	H	0.494033	0.723077	0.619923
	H443	H	0.499467	0.731932	0.618190
	O444	O	0.475949	0.637735	0.413359
	H445	H	0.486901	0.641969	0.407280
	H446	H	0.494540	0.639125	0.418902
	O447	O	0.718548	0.483871	0.531198
	H448	H	0.711257	0.481255	0.546793
	H449	H	0.723567	0.466458	0.531370
	O450	O	1.138163	0.187857	0.210903
	H451	H	1.147883	0.153795	0.212836
	H452	H	1.157629	0.209737	0.225665
	O453	O	0.517013	0.392306	0.519258
	H454	H	0.516122	0.396815	0.514653
	H455	H	0.529443	0.388943	0.521682
	O456	O	0.054815	1.057995	0.783466
	H457	H	0.046132	1.054730	0.784680
	H458	H	0.057122	1.065988	0.787997
	O459	O	0.309774	0.649897	0.641419
	H460	H	0.325339	0.635488	0.622932
	H461	H	0.315411	0.637428	0.640770
	O462	O	0.620212	0.515128	0.690072
	H463	H	0.620457	0.521213	0.702827
	H464	H	0.612053	0.524746	0.684174
	O465	O	0.297050	0.528476	0.298011
	H466	H	0.286137	0.552326	0.302541
	H467	H	0.286148	0.548575	0.293573
	O468	O	0.197430	0.814931	0.224590
	H469	H	0.198073	0.820904	0.204709
	H470	H	0.176487	0.829014	0.213537
	O471	O	0.223690	0.233250	0.105293
	H472	H	0.224441	0.242300	0.123570
	H473	H	0.232162	0.239907	0.106775
	O474	O	1.028469	0.996209	0.118510
	H475	H	1.023770	0.987133	0.118006
	H476	H	1.024243	0.985182	0.123767
	O477	O	0.558790	0.306583	0.592951
	H478	H	0.567391	0.317522	0.568302
	H479	H	0.565880	0.310296	0.591157
