data_Molecule from HDF5

_cell_length_a		16.260369
_cell_length_b		16.434188
_cell_length_c		16.204012
_cell_angle_alpha	89.894420
_cell_angle_beta	89.863555
_cell_angle_gamma	90.334249
_symmetry_space_group_name_H-M	'P 1'
_symmetry_Int_Tables_number		1

loop_
	_symmetry_equiv_pos_as_xyz
	x,y,z

loop_
	_atom_site_label
	_atom_site_type_symbol
	_atom_site_fract_x
	_atom_site_fract_y
	_atom_site_fract_z
	H0	H	0.388817	0.825863	0.730503
	H1	H	0.597423	0.145614	0.727885
	H2	H	0.591306	0.823631	0.292011
	H3	H	0.388104	0.144649	0.289166
	H4	H	0.708716	0.387474	0.844644
	H5	H	0.709414	0.587008	0.172206
	H6	H	0.276491	0.589129	0.846433
	H7	H	0.274686	0.383899	0.170319
	H8	H	0.831973	0.703371	0.403149
	H9	H	0.152728	0.706216	0.612750
	H10	H	0.834582	0.263150	0.615817
	H11	H	0.155021	0.269322	0.403013
	H12	H	0.831686	0.381163	0.727147
	H13	H	0.155022	0.588343	0.724482
	H14	H	0.830678	0.584813	0.292670
	H15	H	0.155499	0.385757	0.291914
	H16	H	0.390809	0.705185	0.847774
	H17	H	0.595364	0.703875	0.171732
	H18	H	0.598167	0.266837	0.847155
	H19	H	0.384500	0.264089	0.168899
	H20	H	0.710233	0.824469	0.405276
	H21	H	0.714437	0.144574	0.612726
	H22	H	0.271338	0.824779	0.615189
	H23	H	0.274733	0.145315	0.407280
	H24	H	0.891801	0.323319	0.226114
	H25	H	0.094695	0.646355	0.225600
	H26	H	0.096391	0.326647	0.788144
	H27	H	0.891148	0.645323	0.789387
	H28	H	0.208539	0.887010	0.346146
	H29	H	0.210351	0.088801	0.672033
	H30	H	0.777478	0.086222	0.345934
	H31	H	0.776310	0.883456	0.671994
	H32	H	0.332422	0.205493	0.901987
	H33	H	0.653125	0.207403	0.115213
	H34	H	0.332987	0.764809	0.115112
	H35	H	0.653946	0.769490	0.905893
	H36	H	0.329353	0.885270	0.223306
	H37	H	0.654957	0.085816	0.225595
	H38	H	0.331632	0.086710	0.791273
	H39	H	0.654965	0.885639	0.793106
	H40	H	0.892552	0.203859	0.346386
	H41	H	0.100627	0.208787	0.669782
	H42	H	0.096589	0.768438	0.346832
	H43	H	0.885601	0.763631	0.669291
	H44	H	0.213690	0.326510	0.902762
	H45	H	0.212370	0.645824	0.110767
	H46	H	0.771531	0.325227	0.112074
	H47	H	0.778058	0.646525	0.906531
	H48	H	0.405605	0.099405	0.604260
	H49	H	0.576562	0.874807	0.592890
	H50	H	0.581987	0.097813	0.419999
	H51	H	0.398116	0.872000	0.426851
	H52	H	0.582280	0.391742	0.125276
	H53	H	0.592511	0.578747	0.890334
	H54	H	0.398224	0.565072	0.123069
	H55	H	0.413851	0.397643	0.895963
	H56	H	0.107744	0.577753	0.422841
	H57	H	0.879760	0.574565	0.590889
	H58	H	0.105867	0.397856	0.589043
	H59	H	0.878855	0.388371	0.428039
	H60	H	0.107537	0.404294	0.603129
	H61	H	0.877387	0.568476	0.602821
	H62	H	0.109626	0.574578	0.413194
	H63	H	0.880971	0.402269	0.420398
	H64	H	0.415093	0.577848	0.121725
	H65	H	0.581229	0.572925	0.896074
	H66	H	0.584057	0.399366	0.123855
	H67	H	0.401649	0.386947	0.889126
	H68	H	0.589593	0.099801	0.419964
	H69	H	0.592065	0.868642	0.597985
	H70	H	0.405614	0.096434	0.596017
	H71	H	0.393840	0.866918	0.413437
	H72	H	0.900056	0.598665	0.094535
	H73	H	0.080339	0.373246	0.094601
	H74	H	0.093417	0.602840	0.917562
	H75	H	0.905192	0.372959	0.922929
	H76	H	0.083752	0.897281	0.624541
	H77	H	0.082612	0.092250	0.390050
	H78	H	0.904696	0.080466	0.625448
	H79	H	0.898852	0.892508	0.391053
	H80	H	0.608226	0.074310	0.915591
	H81	H	0.377520	0.078361	0.095876
	H82	H	0.608150	0.891471	0.093479
	H83	H	0.376354	0.893824	0.918867
	H84	H	0.607294	0.901721	0.100779
	H85	H	0.378080	0.072344	0.098077
	H86	H	0.610356	0.082926	0.921460
	H87	H	0.376632	0.892493	0.922287
	H88	H	0.900331	0.070335	0.624028
	H89	H	0.097278	0.070765	0.391547
	H90	H	0.075708	0.897879	0.622664
	H91	H	0.902280	0.897065	0.393525
	H92	H	0.080667	0.600583	0.910012
	H93	H	0.088421	0.369954	0.099549
	H94	H	0.895906	0.602124	0.105352
	H95	H	0.895933	0.370508	0.921378
	H96	H	0.397761	0.100145	0.599655
	H97	H	0.578629	0.870703	0.609907
	H98	H	0.585606	0.100560	0.413142
	H99	H	0.407325	0.872151	0.415078
	H100	H	0.576793	0.396291	0.121869
	H101	H	0.580869	0.586439	0.892405
	H102	H	0.396546	0.584964	0.130355
	H103	H	0.397115	0.402901	0.893189
	H104	H	0.111343	0.584178	0.416573
	H105	H	0.874135	0.581695	0.601414
	H106	H	0.111672	0.390778	0.600380
	H107	H	0.874629	0.390037	0.412671
	H108	H	0.907467	0.598801	0.104063
	H109	H	0.079612	0.370691	0.104112
	H110	H	0.081670	0.597009	0.924027
	H111	H	0.902611	0.369682	0.914098
	H112	H	0.079438	0.890545	0.625460
	H113	H	0.072004	0.070592	0.400300
	H114	H	0.911239	0.072220	0.621479
	H115	H	0.904363	0.890664	0.392737
	H116	H	0.605242	0.074085	0.926182
	H117	H	0.376342	0.077064	0.101293
	H118	H	0.612370	0.890901	0.105257
	H119	H	0.377186	0.895365	0.921197
	C120	C	0.370639	-0.006414	0.632132
	C121	C	0.614373	0.976931	0.631117
	C122	C	0.614704	-0.006657	0.386939
	C123	C	0.370075	0.976526	0.387859
	C124	C	0.613035	0.365440	0.016562
	C125	C	0.615245	0.609213	1.000410
	C126	C	0.372734	0.607215	0.017816
	C127	C	0.371236	0.363937	0.999213
	C128	C	0.002187	0.607842	0.386778
	C129	C	0.984036	0.606546	0.629187
	C130	C	0.002258	0.364463	0.630281
	C131	C	0.984875	0.364334	0.388383
	C132	C	0.869856	0.493726	0.131935
	C133	C	0.113897	0.477411	0.129736
	C134	C	0.115673	0.494454	0.886347
	C135	C	0.871805	0.476856	0.887571
	C136	C	0.111789	0.865528	0.517366
	C137	C	0.115421	0.108698	0.500674
	C138	C	0.873728	0.105945	0.516835
	C139	C	0.870421	0.862374	0.499512
	C140	C	0.501365	0.107180	0.888612
	C141	C	0.483563	0.107644	0.130521
	C142	C	0.502151	0.863813	0.130747
	C143	C	0.483897	0.864712	0.889434
	C144	C	0.369466	0.873551	0.691292
	C145	C	0.615928	0.097315	0.689166
	C146	C	0.612372	0.872114	0.330081
	C147	C	0.369798	0.096852	0.328962
	C148	C	0.670664	0.367033	0.893883
	C149	C	0.671557	0.607295	0.123164
	C150	C	0.315376	0.607869	0.895408
	C151	C	0.312832	0.363739	0.121497
	C152	C	0.880166	0.664366	0.385275
	C153	C	0.105007	0.666172	0.630809
	C154	C	0.882176	0.303434	0.633260
	C155	C	0.106621	0.307933	0.385971
	C156	C	0.880848	0.362144	0.689010
	C157	C	0.106023	0.607310	0.686535
	C158	C	0.879710	0.605295	0.330006
	C159	C	0.106914	0.365950	0.330446
	C160	C	0.372085	0.666018	0.896122
	C161	C	0.615060	0.665666	0.122868
	C162	C	0.615582	0.306843	0.895327
	C163	C	0.367926	0.304417	0.120587
	C164	C	0.671465	0.872583	0.386702
	C165	C	0.674370	0.096893	0.631792
	C166	C	0.310901	0.873351	0.633968
	C167	C	0.313038	0.097238	0.387952
	C168	C	0.870920	0.372013	0.188390
	C169	C	0.113999	0.598115	0.187010
	C170	C	0.115790	0.374391	0.827402
	C171	C	0.872153	0.597222	0.828755
	C172	C	0.170295	0.866664	0.394983
	C173	C	0.172581	0.108452	0.623225
	C174	C	0.816223	0.105686	0.394696
	C175	C	0.813302	0.862867	0.622352
	C176	C	0.380527	0.165605	0.885544
	C177	C	0.604961	0.166922	0.132747
	C178	C	0.380733	0.804608	0.132973
	C179	C	0.605562	0.808055	0.887652
	C180	C	0.378853	0.864781	0.186630
	C181	C	0.606049	0.106812	0.187976
	C182	C	0.379908	0.106365	0.830203
	C183	C	0.606054	0.866150	0.831568
	C184	C	0.873398	0.164361	0.395028
	C185	C	0.117960	0.168250	0.621875
	C186	C	0.114227	0.807736	0.395243
	C187	C	0.868047	0.803107	0.621020
	C188	C	0.173976	0.374327	0.884755
	C189	C	0.172505	0.598096	0.129712
	C190	C	0.811351	0.372927	0.131519
	C191	C	0.815906	0.598096	0.887428
	C192	C	0.395651	0.077094	0.607046
	C193	C	0.589500	0.893088	0.607114
	C194	C	0.592162	0.077400	0.410769
	C195	C	0.393071	0.892218	0.411608
	C196	C	0.588290	0.389057	0.101621
	C197	C	0.591765	0.586160	0.915116
	C198	C	0.396353	0.583070	0.102893
	C199	C	0.396750	0.388505	0.914592
	C200	C	0.087335	0.585588	0.410688
	C201	C	0.899139	0.581981	0.605273
	C202	C	0.086670	0.390238	0.604812
	C203	C	0.899975	0.387083	0.413299
	C204	C	0.893901	0.577740	0.108345
	C205	C	0.089855	0.393195	0.106110
	C206	C	0.092109	0.578467	0.910441
	C207	C	0.894585	0.392737	0.912165
	C208	C	0.086869	0.888796	0.602185
	C209	C	0.091062	0.084791	0.415882
	C210	C	0.898416	0.081470	0.601599
	C211	C	0.894733	0.886543	0.414427
	C212	C	0.585991	0.083811	0.913791
	C213	C	0.399177	0.083118	0.105705
	C214	C	0.586989	0.887830	0.106860
	C215	C	0.398810	0.887259	0.913755
	Zn216	Zn	0.493077	-0.014748	0.760863
	Zn217	Zn	0.492182	-0.015306	0.258209
	Zn218	Zn	0.741935	0.486398	0.008081
	Zn219	Zn	0.244196	0.485817	0.008327
	Zn220	Zn	-0.007788	0.735244	0.508114
	Zn221	Zn	-0.005283	0.236415	0.508963
	Zn222	Zn	-0.006920	0.485782	0.758049
	Zn223	Zn	-0.006691	0.484761	0.260705
	Zn224	Zn	0.492898	0.736519	0.009808
	Zn225	Zn	0.492262	0.236355	0.008704
	Zn226	Zn	0.744065	-0.014980	0.509061
	Zn227	Zn	0.241445	-0.014707	0.510655
	N228	N	0.405822	0.949174	0.690308
	N229	N	0.579357	0.021536	0.688854
	N230	N	0.577917	0.948207	0.329961
	N231	N	0.404593	0.020784	0.328669
	N232	N	0.669271	0.402797	0.970638
	N233	N	0.671921	0.572857	0.045955
	N234	N	0.315266	0.572102	0.972167
	N235	N	0.314620	0.399903	0.044980
	N236	N	0.957396	0.666050	0.419738
	N237	N	0.028037	0.666009	0.596037
	N238	N	0.958910	0.304594	0.597624
	N239	N	0.029734	0.306815	0.421442
	N240	N	0.956815	0.399254	0.687388
	N241	N	0.029568	0.571055	0.685831
	N242	N	0.956548	0.570915	0.330861
	N243	N	0.030150	0.400541	0.331966
	N244	N	0.407427	0.665267	0.973141
	N245	N	0.580803	0.666997	0.045484
	N246	N	0.580554	0.305926	0.972618
	N247	N	0.403595	0.304402	0.043479
	N248	N	0.673109	0.949017	0.421505
	N249	N	0.673574	0.021095	0.596385
	N250	N	0.311471	0.949167	0.597860
	N251	N	0.313002	0.021497	0.423836
	N252	N	0.906186	0.448216	0.189208
	N253	N	0.078225	0.522150	0.187135
	N254	N	0.080164	0.450072	0.828335
	N255	N	0.906309	0.521057	0.828784
	N256	N	0.168935	0.901822	0.471893
	N257	N	0.171464	0.072293	0.546848
	N258	N	0.816427	0.070079	0.471517
	N259	N	0.814377	0.898996	0.545801
	N260	N	0.457180	0.166033	0.921253
	N261	N	0.527851	0.167621	0.097868
	N262	N	0.458291	0.803885	0.098987
	N263	N	0.528629	0.806982	0.922814
	N264	N	0.455244	0.900896	0.185407
	N265	N	0.529522	0.070713	0.186886
	N266	N	0.456089	0.070926	0.831932
	N267	N	0.529320	0.900771	0.832534
	N268	N	0.908482	0.164540	0.472132
	N269	N	0.083083	0.168450	0.544799
	N270	N	0.078226	0.807107	0.472171
	N271	N	0.902618	0.802493	0.543415
	N272	N	0.174163	0.450132	0.920462
	N273	N	0.172542	0.522048	0.094789
	N274	N	0.810291	0.449634	0.097455
	N275	N	0.815509	0.522323	0.923537
	O276	O	0.562822	0.345156	0.608235
	H277	H	0.577467	0.346923	0.613622
	H278	H	0.554430	0.353074	0.611080
	O279	O	0.469479	0.320667	0.409916
	H280	H	0.472353	0.327058	0.395165
	H281	H	0.466143	0.314279	0.397304
	O282	O	1.098760	-0.160524	1.064817
	H283	H	1.100672	-0.158020	1.048566
	H284	H	1.100076	-0.166482	1.060443
	O285	O	0.471471	0.449964	0.342194
	H286	H	0.474311	0.448715	0.341210
	H287	H	0.477686	0.428545	0.345476
	O288	O	1.077292	0.975981	0.992325
	H289	H	1.070024	0.972014	0.998643
	H290	H	1.078131	0.989279	0.990906
	O291	O	0.513438	1.665145	-0.346657
	H292	H	0.532125	1.678140	-0.350931
	H293	H	0.524669	1.668000	-0.336045
	O294	O	0.674219	0.422190	0.415560
	H295	H	0.686541	0.420584	0.407325
	H296	H	0.676441	0.434232	0.411740
	O297	O	0.664454	0.653913	0.580504
	H298	H	0.664033	0.653647	0.573990
	H299	H	0.670586	0.660197	0.574383
	O300	O	0.530837	0.580089	0.461958
	H301	H	0.541399	0.584150	0.469060
	H302	H	0.524049	0.591814	0.457924
	O303	O	0.444250	0.289448	0.579443
	H304	H	0.450131	0.287612	0.596801
	H305	H	0.447991	0.285502	0.574237
	O306	O	0.561838	0.543161	0.595128
	H307	H	0.569270	0.539114	0.597153
	H308	H	0.557863	0.531235	0.593585
	O309	O	0.546740	0.355629	0.383839
	H310	H	0.539512	0.360181	0.373504
	H311	H	0.554460	0.347641	0.371367
	O312	O	0.020886	0.107882	0.137397
	H313	H	0.022413	0.104843	0.136291
	H314	H	0.023190	0.093123	0.144882
	O315	O	0.562088	0.506055	0.709823
	H316	H	0.568166	0.500366	0.709293
	H317	H	0.559856	0.501012	0.715856
	O318	O	0.132529	0.959678	0.896075
	H319	H	0.141204	0.962424	0.889181
	H320	H	0.133480	0.963053	0.900181
	O321	O	0.416941	0.436981	0.598750
	H322	H	0.419742	0.435651	0.595010
	H323	H	0.425242	0.443851	0.599433
	O324	O	-0.174601	1.027706	-0.040854
	H325	H	-0.167479	1.022167	-0.051192
	H326	H	-0.176072	1.019291	-0.037611
	O327	O	0.002050	0.051456	0.011826
	H328	H	-0.002631	0.055748	0.004857
	H329	H	0.014250	0.046688	0.015437
	O330	O	0.097341	0.027675	1.068899
	H331	H	0.102078	0.039170	1.057664
	H332	H	0.098982	0.021808	1.069696
	O333	O	-0.026489	0.117834	0.969315
	H334	H	-0.025342	0.132196	0.969068
	H335	H	-0.028491	0.110482	0.987575
	O336	O	0.393604	0.379242	0.614397
	H337	H	0.390791	0.381067	0.615496
	H338	H	0.395453	0.378504	0.612484
	O339	O	0.982153	0.004316	-0.032721
	H340	H	0.980795	-0.007830	-0.027994
	H341	H	0.986842	0.005006	-0.039584
	O342	O	0.004164	-0.094563	-0.106074
	H343	H	0.008866	-0.094154	-0.106516
	H344	H	-0.001767	-0.101272	-0.108112
	O345	O	1.017661	-0.064948	0.984461
	H346	H	1.019806	-0.065075	0.977460
	H347	H	1.015048	-0.062590	0.993183
	O348	O	0.860397	1.090922	-0.065237
	H349	H	0.856224	1.098837	-0.056770
	H350	H	0.875585	1.089550	-0.070121
	O351	O	0.406399	0.498522	0.575222
	H352	H	0.406686	0.493637	0.574860
	H353	H	0.390491	0.487573	0.586674
	O354	O	1.036065	0.041317	0.938703
	H355	H	1.031536	0.056388	0.921273
	H356	H	1.050485	0.042192	0.936226
	O357	O	0.599299	0.550978	0.378339
	H358	H	0.583585	0.559531	0.383067
	H359	H	0.611389	0.542495	0.376571
	O360	O	1.037583	1.101031	1.057202
	H361	H	1.044951	1.104090	1.055898
	H362	H	1.040254	1.100754	1.068745
	O363	O	-0.203960	0.887234	1.051041
	H364	H	-0.202742	0.896406	1.053264
	H365	H	-0.209672	0.883173	1.050689
	O366	O	0.405906	0.412872	0.440533
	H367	H	0.401683	0.408840	0.448616
	H368	H	0.404655	0.416580	0.440191
	O369	O	-0.042492	1.007347	0.169901
	H370	H	-0.037390	1.000748	0.173713
	H371	H	-0.046731	1.009896	0.158697
	O372	O	0.533376	0.357734	0.481497
	H373	H	0.534883	0.346148	0.461014
	H374	H	0.540932	0.358620	0.479937
	O375	O	0.376420	0.582845	0.335844
	H376	H	0.362768	0.592320	0.326904
	H377	H	0.378152	0.586913	0.340770
	O378	O	0.993239	0.986316	-0.132430
	H379	H	0.981293	0.998188	-0.133578
	H380	H	0.993011	0.978244	-0.123708
	O381	O	1.038167	-0.102558	0.085538
	H382	H	1.034660	-0.103558	0.081646
	H383	H	1.044937	-0.102986	0.080782
	O384	O	1.672438	1.592914	-0.434272
	H385	H	1.681404	1.602501	-0.438758
	H386	H	1.679093	1.591835	-0.436628
	O387	O	-0.063926	-0.171142	0.058182
	H388	H	-0.040821	-0.161509	0.067297
	H389	H	-0.061304	-0.162043	0.040711
	O390	O	0.028329	0.937140	-0.001065
	H391	H	0.025737	0.940249	0.004283
	H392	H	0.026450	0.926953	0.012033
	O393	O	0.300683	0.489128	0.533583
	H394	H	0.291650	0.487955	0.538941
	H395	H	0.306888	0.485201	0.533407
	O396	O	0.357011	0.596609	0.381252
	H397	H	0.349624	0.598415	0.385837
	H398	H	0.356261	0.587346	0.390884
	O399	O	0.589230	1.402733	1.454013
	H400	H	0.596398	1.419395	1.440531
	H401	H	0.574694	1.402601	1.455865
	O402	O	0.448399	0.651345	0.450870
	H403	H	0.441771	0.644234	0.452658
	H404	H	0.449110	0.654587	0.460648
	O405	O	1.044892	0.915920	0.144767
	H406	H	1.048446	0.905531	0.157046
	H407	H	1.050276	0.906876	0.144276
	O408	O	0.884393	1.074235	-0.131349
	H409	H	0.884041	1.086328	-0.127236
	H410	H	0.876583	1.089300	-0.130702
	O411	O	0.894923	-0.108303	0.985250
	H412	H	0.908215	-0.114131	0.991340
	H413	H	0.871674	-0.116296	0.983234
	O414	O	0.381835	0.599612	0.633312
	H415	H	0.384789	0.588564	0.639092
	H416	H	0.400861	0.596022	0.630909
	O417	O	0.605803	0.423336	0.473797
	H418	H	0.604151	0.427699	0.470185
	H419	H	0.611621	0.412936	0.480390
