data_Molecule from HDF5

_cell_length_a		16.570546
_cell_length_b		16.456324
_cell_length_c		16.541262
_cell_angle_alpha	90.020321
_cell_angle_beta	90.079536
_cell_angle_gamma	89.890152
_symmetry_space_group_name_H-M	'P 1'
_symmetry_Int_Tables_number		1

loop_
	_symmetry_equiv_pos_as_xyz
	x,y,z

loop_
	_atom_site_label
	_atom_site_type_symbol
	_atom_site_fract_x
	_atom_site_fract_y
	_atom_site_fract_z
	H0	H	0.418104	0.866069	0.722828
	H1	H	0.621556	0.183234	0.728112
	H2	H	0.622943	0.867362	0.285847
	H3	H	0.415266	0.184951	0.287430
	H4	H	0.740787	0.420199	0.850699
	H5	H	0.740850	0.633985	0.162367
	H6	H	0.297423	0.628884	0.849150
	H7	H	0.295304	0.419725	0.162892
	H8	H	0.860018	0.747874	0.402426
	H9	H	0.175374	0.743066	0.606742
	H10	H	0.859130	0.307343	0.608399
	H11	H	0.173708	0.305627	0.403459
	H12	H	0.858887	0.423848	0.725252
	H13	H	0.175256	0.627502	0.724686
	H14	H	0.860421	0.633040	0.284229
	H15	H	0.172638	0.419300	0.284413
	H16	H	0.415360	0.744510	0.848651
	H17	H	0.619807	0.745185	0.165437
	H18	H	0.623978	0.303035	0.850984
	H19	H	0.414164	0.304951	0.163729
	H20	H	0.740788	0.869178	0.401610
	H21	H	0.737625	0.183934	0.611575
	H22	H	0.300490	0.866857	0.607471
	H23	H	0.298823	0.184882	0.403549
	H24	H	0.913975	0.368275	0.225154
	H25	H	0.121545	0.683337	0.228109
	H26	H	0.119865	0.367477	0.787831
	H27	H	0.911757	0.686048	0.785588
	H28	H	0.238004	0.921158	0.349315
	H29	H	0.237896	0.128764	0.663975
	H30	H	0.793387	0.133963	0.350330
	H31	H	0.795250	0.920248	0.663650
	H32	H	0.362913	0.248951	0.900832
	H33	H	0.675160	0.246981	0.111076
	H34	H	0.358512	0.809856	0.107498
	H35	H	0.673625	0.801757	0.901119
	H36	H	0.360443	0.922900	0.226701
	H37	H	0.675537	0.129450	0.227716
	H38	H	0.362047	0.130567	0.785622
	H39	H	0.674154	0.917296	0.783367
	H40	H	0.911086	0.248841	0.349707
	H41	H	0.120545	0.244809	0.665033
	H42	H	0.119963	0.806671	0.348980
	H43	H	0.914913	0.806895	0.665408
	H44	H	0.238142	0.368922	0.902190
	H45	H	0.236393	0.684418	0.110715
	H46	H	0.795599	0.369939	0.111251
	H47	H	0.796077	0.685887	0.901517
	H48	H	0.425409	0.141353	0.600731
	H49	H	0.603117	0.914662	0.594075
	H50	H	0.605773	0.138367	0.416313
	H51	H	0.432912	0.913274	0.413774
	H52	H	0.601520	0.442086	0.116050
	H53	H	0.601346	0.614657	0.896033
	H54	H	0.430796	0.622356	0.120564
	H55	H	0.429250	0.445693	0.897942
	H56	H	0.126072	0.608027	0.418413
	H57	H	0.902969	0.617664	0.596658
	H58	H	0.129556	0.433548	0.594837
	H59	H	0.903565	0.436928	0.413914
	H60	H	0.129130	0.440055	0.598411
	H61	H	0.904289	0.615666	0.596403
	H62	H	0.131251	0.616572	0.410929
	H63	H	0.904237	0.436606	0.419042
	H64	H	0.418570	0.619721	0.122533
	H65	H	0.607900	0.617154	0.892885
	H66	H	0.605534	0.434415	0.119620
	H67	H	0.434888	0.433635	0.895954
	H68	H	0.603487	0.137790	0.418127
	H69	H	0.609893	0.912954	0.591723
	H70	H	0.432008	0.138706	0.597206
	H71	H	0.427349	0.914475	0.421397
	H72	H	0.927489	0.638472	0.090390
	H73	H	0.104099	0.414769	0.093576
	H74	H	0.103522	0.640138	0.910876
	H75	H	0.935118	0.417031	0.917470
	H76	H	0.110385	0.932995	0.621221
	H77	H	0.110847	0.114850	0.393039
	H78	H	0.927518	0.111194	0.616880
	H79	H	0.932049	0.933220	0.394572
	H80	H	0.628017	0.111716	0.923918
	H81	H	0.405112	0.118079	0.096097
	H82	H	0.627889	0.938061	0.089538
	H83	H	0.404435	0.934566	0.914659
	H84	H	0.631440	0.939485	0.103171
	H85	H	0.408106	0.113737	0.092629
	H86	H	0.630266	0.109215	0.914661
	H87	H	0.406748	0.935876	0.916052
	H88	H	0.931104	0.117992	0.618529
	H89	H	0.105503	0.114336	0.395304
	H90	H	0.112613	0.938244	0.619875
	H91	H	0.922964	0.938843	0.393910
	H92	H	0.104619	0.637608	0.921510
	H93	H	0.110231	0.412078	0.093909
	H94	H	0.926228	0.642059	0.098173
	H95	H	0.923156	0.415608	0.922473
	H96	H	0.425567	0.139296	0.593022
	H97	H	0.607623	0.911564	0.598398
	H98	H	0.606016	0.138104	0.419478
	H99	H	0.424042	0.910047	0.413860
	H100	H	0.610777	0.441763	0.118786
	H101	H	0.607903	0.610245	0.895904
	H102	H	0.425797	0.610587	0.118399
	H103	H	0.422161	0.436092	0.891874
	H104	H	0.129136	0.619290	0.422289
	H105	H	0.903696	0.616519	0.598728
	H106	H	0.131636	0.434212	0.602837
	H107	H	0.905268	0.440433	0.417177
	H108	H	0.933880	0.638258	0.096499
	H109	H	0.105934	0.411965	0.099293
	H110	H	0.113196	0.641984	0.916101
	H111	H	0.925285	0.412169	0.910417
	H112	H	0.107348	0.936914	0.618187
	H113	H	0.107215	0.119206	0.392929
	H114	H	0.923430	0.117356	0.620241
	H115	H	0.931547	0.943399	0.398087
	H116	H	0.632090	0.118367	0.917660
	H117	H	0.406495	0.112175	0.098618
	H118	H	0.633100	0.927079	0.096882
	H119	H	0.404906	0.936927	0.913927
	C120	C	0.396989	0.034522	0.627424
	C121	C	0.638356	1.017398	0.627266
	C122	C	0.638665	0.034407	0.385245
	C123	C	0.396756	1.017608	0.385049
	C124	C	0.639165	0.405926	0.015063
	C125	C	0.638100	0.647034	0.998468
	C126	C	0.394690	0.648074	0.015826
	C127	C	0.396649	0.405423	0.998541
	C128	C	0.025206	0.647423	0.385203
	C129	C	1.008376	0.647320	0.628031
	C130	C	0.025830	0.404665	0.629028
	C131	C	1.008237	0.405469	0.385692
	C132	C	0.896782	0.535219	0.126907
	C133	C	0.138477	0.517213	0.128120
	C134	C	0.138200	0.534861	0.885260
	C135	C	0.895469	0.519178	0.884808
	C136	C	0.140216	0.904329	0.515378
	C137	C	0.139088	0.147574	0.498052
	C138	C	0.895231	0.148106	0.515105
	C139	C	0.896823	0.905963	0.499185
	C140	C	0.527221	0.146884	0.885450
	C141	C	0.510046	0.147094	0.128231
	C142	C	0.526264	0.904649	0.127723
	C143	C	0.508958	0.902965	0.883562
	C144	C	0.397963	0.914162	0.684336
	C145	C	0.639995	0.136246	0.687505
	C146	C	0.641706	0.915172	0.325501
	C147	C	0.396152	0.137430	0.326739
	C148	C	0.700174	0.402137	0.897618
	C149	C	0.699292	0.650870	0.116106
	C150	C	0.336803	0.648144	0.896472
	C151	C	0.336207	0.401914	0.116252
	C152	C	0.907188	0.707914	0.383606
	C153	C	0.127852	0.704246	0.626947
	C154	C	0.906500	0.346479	0.628175
	C155	C	0.126399	0.345307	0.384318
	C156	C	0.906387	0.404335	0.686391
	C157	C	0.127932	0.646759	0.685336
	C158	C	0.907413	0.650692	0.324784
	C159	C	0.125905	0.401913	0.325109
	C160	C	0.395445	0.705405	0.896129
	C161	C	0.639159	0.706368	0.117419
	C162	C	0.642322	0.343939	0.897755
	C163	C	0.395341	0.345114	0.116701
	C164	C	0.700147	0.915906	0.382812
	C165	C	0.697618	0.136449	0.629566
	C166	C	0.339667	0.914499	0.626989
	C167	C	0.338296	0.137267	0.384331
	C168	C	0.894867	0.416117	0.185932
	C169	C	0.140185	0.635961	0.188049
	C170	C	0.139016	0.415286	0.826871
	C171	C	0.892876	0.638117	0.824823
	C172	C	0.198266	0.902632	0.396476
	C173	C	0.198463	0.148379	0.616575
	C174	C	0.834381	0.151262	0.397201
	C175	C	0.836261	0.902847	0.617048
	C176	C	0.409706	0.208315	0.882462
	C177	C	0.628424	0.206646	0.129758
	C178	C	0.406652	0.847883	0.127411
	C179	C	0.626836	0.842125	0.882152
	C180	C	0.407574	0.904305	0.186715
	C181	C	0.628630	0.148369	0.187616
	C182	C	0.409131	0.149380	0.825483
	C183	C	0.627230	0.899669	0.823874
	C184	C	0.892928	0.208629	0.396845
	C185	C	0.139618	0.205619	0.617240
	C186	C	0.139651	0.845605	0.396475
	C187	C	0.895729	0.846336	0.617838
	C188	C	0.197860	0.416028	0.883728
	C189	C	0.197136	0.636573	0.129560
	C190	C	0.836316	0.416808	0.129025
	C191	C	0.835566	0.638161	0.882811
	C192	C	0.420613	0.118031	0.603818
	C193	C	0.613840	0.934680	0.602056
	C194	C	0.612628	0.116647	0.410548
	C195	C	0.421112	0.934497	0.409325
	C196	C	0.613496	0.431999	0.096870
	C197	C	0.612930	0.621236	0.916356
	C198	C	0.418168	0.624288	0.098887
	C199	C	0.421591	0.431142	0.916428
	C200	C	0.107446	0.621864	0.410127
	C201	C	0.925450	0.623616	0.604335
	C202	C	0.108397	0.428848	0.605656
	C203	C	0.925762	0.430695	0.409756
	C204	C	0.921765	0.617941	0.102068
	C205	C	0.113911	0.434606	0.102763
	C206	C	0.114017	0.618281	0.909306
	C207	C	0.920717	0.436559	0.909638
	C208	C	0.116856	0.929079	0.598322
	C209	C	0.114691	0.123056	0.415302
	C210	C	0.920220	0.122706	0.597182
	C211	C	0.921673	0.931280	0.416878
	C212	C	0.609006	0.120602	0.911219
	C213	C	0.428013	0.121923	0.103013
	C214	C	0.609200	0.928194	0.103551
	C215	C	0.426670	0.928530	0.908031
	Zn216	Zn	0.518503	0.025320	0.756744
	Zn217	Zn	0.518132	0.026091	0.256691
	Zn218	Zn	0.767789	0.527660	0.006181
	Zn219	Zn	0.266616	0.526031	0.007072
	Zn220	Zn	0.017149	0.776784	0.506575
	Zn221	Zn	0.016924	0.276276	0.506718
	Zn222	Zn	0.016633	0.526950	0.757379
	Zn223	Zn	0.016961	0.526075	0.256227
	Zn224	Zn	0.517556	0.775977	0.006910
	Zn225	Zn	0.518419	0.276041	0.007267
	Zn226	Zn	0.766666	0.026001	0.506602
	Zn227	Zn	0.268186	0.025760	0.505874
	N228	N	0.432696	0.989976	0.685000
	N229	N	0.604183	0.061055	0.686428
	N230	N	0.604411	0.989875	0.326826
	N231	N	0.431673	0.061906	0.326742
	N232	N	0.698222	0.439864	0.971578
	N233	N	0.698693	0.614766	0.041355
	N234	N	0.335972	0.613596	0.971990
	N235	N	0.337084	0.438751	0.041818
	N236	N	0.981437	0.705951	0.420655
	N237	N	0.052651	0.704985	0.592305
	N238	N	0.981801	0.346120	0.593553
	N239	N	0.052256	0.347497	0.421215
	N240	N	0.981526	0.439292	0.687563
	N241	N	0.052400	0.612484	0.686482
	N242	N	0.981880	0.613930	0.325480
	N243	N	0.051335	0.438426	0.325588
	N244	N	0.430337	0.705851	0.971434
	N245	N	0.601633	0.704008	0.043206
	N246	N	0.604750	0.346332	0.971714
	N247	N	0.432286	0.347066	0.042511
	N248	N	0.698689	0.991181	0.418859
	N249	N	0.696663	0.061488	0.593030
	N250	N	0.338714	0.990371	0.592458
	N251	N	0.338580	0.061869	0.419855
	N252	N	0.931790	0.490816	0.184753
	N253	N	0.104555	0.560625	0.187435
	N254	N	0.102669	0.490322	0.827698
	N255	N	0.929235	0.562993	0.825633
	N256	N	0.198746	0.938449	0.471482
	N257	N	0.198315	0.113044	0.541401
	N258	N	0.835590	0.114373	0.471663
	N259	N	0.836874	0.939254	0.542262
	N260	N	0.484236	0.207205	0.918934
	N261	N	0.553675	0.206023	0.093726
	N262	N	0.481265	0.848176	0.091345
	N263	N	0.552347	0.844022	0.918515
	N264	N	0.483151	0.938643	0.187337
	N265	N	0.553939	0.112283	0.186846
	N266	N	0.483375	0.112117	0.827114
	N267	N	0.552834	0.936836	0.824780
	N268	N	0.930167	0.206721	0.471114
	N269	N	0.103699	0.205586	0.542337
	N270	N	0.104373	0.846450	0.471497
	N271	N	0.932759	0.848293	0.543592
	N272	N	0.197532	0.491531	0.919184
	N273	N	0.196364	0.561597	0.093151
	N274	N	0.837119	0.492078	0.093345
	N275	N	0.836803	0.563058	0.919016
	O276	O	1.307904	1.318766	0.656004
	H277	H	1.319778	1.311240	0.673305
	H278	H	1.310124	1.300764	0.648769
	O279	O	-0.192224	0.235174	0.989045
	H280	H	-0.204249	0.234266	0.968511
	H281	H	-0.200672	0.238146	0.979105
	O282	O	0.395410	0.742725	0.507970
	H283	H	0.380744	0.746817	0.505879
	H284	H	0.405890	0.740757	0.499596
	O285	O	0.233727	-0.015572	0.795801
	H286	H	0.235293	-0.008675	0.792707
	H287	H	0.239448	-0.017862	0.787017
	O288	O	1.047898	-0.075168	1.119376
	H289	H	1.065785	-0.056237	1.116870
	H290	H	1.042254	-0.080389	1.100156
	O291	O	0.296803	0.319376	0.298250
	H292	H	0.300849	0.305318	0.302326
	H293	H	0.324936	0.320840	0.303594
	O294	O	0.155987	0.235915	0.181922
	H295	H	0.141484	0.244562	0.195104
	H296	H	0.147638	0.235675	0.168692
	O297	O	0.973149	0.008963	0.188121
	H298	H	0.981439	0.004603	0.186193
	H299	H	0.975744	0.005693	0.188453
	O300	O	0.237158	-0.196131	-0.030988
	H301	H	0.241963	-0.199948	-0.065971
	H302	H	0.260339	-0.217392	-0.048755
	O303	O	-0.068644	-0.152644	-0.037355
	H304	H	-0.087748	-0.160232	-0.029983
	H305	H	-0.064989	-0.144637	-0.051444
	O306	O	1.229069	0.219499	0.031665
	H307	H	1.242026	0.224560	0.026579
	H308	H	1.211858	0.224603	0.036460
	O309	O	0.670363	0.580971	0.482630
	H310	H	0.669780	0.582757	0.460367
	H311	H	0.664380	0.590623	0.483908
	O312	O	-0.390661	-0.594372	0.536907
	H313	H	-0.372976	-0.593814	0.523547
	H314	H	-0.394476	-0.608968	0.537882
	O315	O	0.358251	0.527823	0.299749
	H316	H	0.353773	0.527319	0.316409
	H317	H	0.330639	0.528056	0.283942
	O318	O	0.978026	1.244624	-0.205514
	H319	H	0.961793	1.248512	-0.206138
	H320	H	0.975320	1.260613	-0.226062
	O321	O	0.064303	1.102431	0.958379
	H322	H	0.061000	1.110011	0.952457
	H323	H	0.060289	1.114448	0.942120
	O324	O	1.039679	0.224214	1.204708
	H325	H	1.037610	0.228646	1.212308
	H326	H	1.033118	0.223273	1.207361
	O327	O	0.728660	0.546821	0.706888
	H328	H	0.744452	0.553469	0.712377
	H329	H	0.745254	0.549560	0.690631
	O330	O	0.225794	0.816716	0.794800
	H331	H	0.246791	0.821569	0.771530
	H332	H	0.221551	0.811113	0.775158
	O333	O	0.571540	0.739953	0.444212
	H334	H	0.571680	0.726989	0.445706
	H335	H	0.571339	0.743581	0.454943
	O336	O	0.399141	0.620332	0.306158
	H337	H	0.384431	0.621536	0.319851
	H338	H	0.420926	0.639014	0.295285
	O339	O	0.543411	0.531524	0.458456
	H340	H	0.539372	0.540494	0.446854
	H341	H	0.545484	0.523455	0.436743
	O342	O	-0.337371	0.521613	-0.682388
	H343	H	-0.323222	0.522781	-0.692665
	H344	H	-0.337802	0.503704	-0.693181
	O345	O	0.471899	0.322241	0.466164
	H346	H	0.485751	0.323147	0.469115
	H347	H	0.482991	0.324805	0.483136
	O348	O	0.304250	0.519064	0.498916
	H349	H	0.297269	0.502426	0.493362
	H350	H	0.311387	0.512926	0.520838
	O351	O	-0.661552	-0.596294	1.428436
	H352	H	-0.660540	-0.602527	1.424117
	H353	H	-0.672414	-0.590719	1.437538
	O354	O	1.088466	0.113251	1.019948
	H355	H	1.082994	0.110338	1.004125
	H356	H	1.082611	0.109965	0.994005
	O357	O	0.438405	0.413220	0.609783
	H358	H	0.437746	0.411479	0.607551
	H359	H	0.451571	0.421392	0.607821
	O360	O	0.707959	0.722793	0.537732
	H361	H	0.729847	0.722367	0.533231
	H362	H	0.689037	0.716424	0.550192
	O363	O	1.232251	0.058675	0.226272
	H364	H	1.230241	0.073119	0.198877
	H365	H	1.258489	0.063145	0.252197
	O366	O	0.193420	0.197040	0.824656
	H367	H	0.190523	0.185275	0.853182
	H368	H	0.177403	0.189838	0.821417
	O369	O	-0.190079	0.231697	0.803863
	H370	H	-0.178339	0.213975	0.804473
	H371	H	-0.218153	0.242998	0.777232
	O372	O	0.065553	0.859684	0.992643
	H373	H	0.053273	0.865965	0.990079
	H374	H	0.073263	0.858526	0.976627
	O375	O	0.816399	0.034060	0.068946
	H376	H	0.822232	0.025353	0.057151
	H377	H	0.827021	0.031217	0.077470
	O378	O	0.384884	0.739838	0.293865
	H379	H	0.381209	0.758066	0.284038
	H380	H	0.397416	0.740011	0.284195
	O381	O	-0.110821	0.939708	-0.016621
	H382	H	-0.107275	0.943951	-0.023286
	H383	H	-0.111513	0.926710	-0.008436
	O384	O	0.327163	0.507451	0.712345
	H385	H	0.304135	0.492897	0.729039
	H386	H	0.324434	0.474275	0.703850
	O387	O	0.530272	0.423827	0.692801
	H388	H	0.548843	0.440030	0.694456
	H389	H	0.534863	0.437412	0.684069
	O390	O	0.037168	1.079072	0.805305
	H391	H	0.031447	1.082013	0.797433
	H392	H	0.015895	1.076975	0.803478
	O393	O	1.097831	0.019691	0.018076
	H394	H	1.101610	0.004177	0.015301
	H395	H	1.092937	0.022384	0.026942
	O396	O	0.528647	0.500579	0.366331
	H397	H	0.533638	0.530990	0.360220
	H398	H	0.527515	0.503885	0.386828
	O399	O	0.419003	0.602688	0.527994
	H400	H	0.416244	0.615536	0.501100
	H401	H	0.409434	0.590892	0.519278
	O402	O	0.805221	-0.178012	1.032771
	H403	H	0.806625	-0.185277	1.048453
	H404	H	0.801438	-0.186016	1.043145
	O405	O	1.057844	-0.042215	0.063160
	H406	H	1.062000	-0.049405	0.069312
	H407	H	1.070271	-0.056974	0.060672
	O408	O	0.801779	0.997016	1.221677
	H409	H	0.826856	0.999744	1.215846
	H410	H	0.777891	1.001075	1.252673
	O411	O	0.722691	1.324541	0.303544
	H412	H	0.720471	1.300475	0.279717
	H413	H	0.691510	1.338362	0.299251
	O414	O	-0.157819	0.205104	0.172686
	H415	H	-0.147893	0.192513	0.154029
	H416	H	-0.154599	0.190709	0.162796
	O417	O	0.314384	0.634477	0.561304
	H418	H	0.327027	0.630152	0.567000
	H419	H	0.307864	0.624591	0.569246
	O420	O	0.713003	-0.276901	0.696715
	H421	H	0.705474	-0.290902	0.692668
	H422	H	0.681703	-0.274929	0.692206
	O423	O	1.187340	1.060254	-0.010920
	H424	H	1.191545	1.051405	-0.025976
	H425	H	1.183965	1.063608	-0.025082
	O426	O	0.570940	0.704735	0.708422
	H427	H	0.563703	0.698031	0.719380
	H428	H	0.556273	0.698325	0.706152
	O429	O	0.810626	0.041790	0.823946
	H430	H	0.789278	0.033748	0.806899
	H431	H	0.814980	0.031878	0.837185
	O432	O	0.978558	-0.107944	1.211397
	H433	H	1.001094	-0.123385	1.193051
	H434	H	1.001388	-0.096957	1.219434
	O435	O	0.468624	0.612600	0.712688
	H436	H	0.457947	0.588532	0.711286
	H437	H	0.474780	0.594748	0.704125
	O438	O	0.793274	0.803977	0.229864
	H439	H	0.802150	0.839409	0.234755
	H440	H	0.824035	0.806763	0.227040
	O441	O	0.327720	0.714971	0.693913
	H442	H	0.347978	0.683912	0.688406
	H443	H	0.347964	0.708340	0.665636
	O444	O	0.686068	0.452723	0.558312
	H445	H	0.680855	0.464346	0.537600
	H446	H	0.686214	0.432174	0.536710
	O447	O	-0.067390	0.913740	-0.111020
	H448	H	-0.062369	0.915542	-0.116116
	H449	H	-0.053242	0.913964	-0.116093
	O450	O	1.045050	-0.169693	-0.213488
	H451	H	1.066629	-0.174112	-0.217586
	H452	H	1.039510	-0.176945	-0.227651
	O453	O	0.509257	0.669324	0.296907
	H454	H	0.499127	0.667407	0.301864
	H455	H	0.514876	0.698496	0.287785
	O456	O	-0.565652	0.314420	0.710910
	H457	H	-0.544792	0.299404	0.727048
	H458	H	-0.551785	0.322385	0.723368
	O459	O	0.549537	0.323879	0.298677
	H460	H	0.528909	0.324855	0.285154
	H461	H	0.529125	0.329222	0.300302
	O462	O	0.712403	0.612029	0.325747
	H463	H	0.711471	0.615821	0.317950
	H464	H	0.723054	0.619767	0.310193
	O465	O	0.684329	0.344048	0.688181
	H466	H	0.670771	0.365500	0.668566
	H467	H	0.681494	0.365136	0.674244
	O468	O	-0.024791	0.025647	-0.190883
	H469	H	-0.034021	0.025710	-0.206684
	H470	H	-0.032011	0.025519	-0.183736
	O471	O	0.047958	0.223028	0.038446
	H472	H	0.049967	0.221570	0.045118
	H473	H	0.032760	0.234626	0.043019
	O474	O	1.156763	0.842181	0.201315
	H475	H	1.144292	0.828809	0.202806
	H476	H	1.154625	0.875127	0.197277
	O477	O	0.729350	0.311146	0.469403
	H478	H	0.739422	0.302299	0.446452
	H479	H	0.737894	0.301912	0.439593
