data_Molecule from HDF5

_cell_length_a		16.380493
_cell_length_b		16.508777
_cell_length_c		16.534587
_cell_angle_alpha	89.991618
_cell_angle_beta	89.979025
_cell_angle_gamma	89.912066
_symmetry_space_group_name_H-M	'P 1'
_symmetry_Int_Tables_number		1

loop_
	_symmetry_equiv_pos_as_xyz
	x,y,z

loop_
	_atom_site_label
	_atom_site_type_symbol
	_atom_site_fract_x
	_atom_site_fract_y
	_atom_site_fract_z
	H0	H	0.394374	0.842006	0.725313
	H1	H	0.608415	0.155105	0.724910
	H2	H	0.615919	0.846082	0.272990
	H3	H	0.395956	0.155677	0.279514
	H4	H	0.723724	0.394174	0.844263
	H5	H	0.725342	0.608203	0.156854
	H6	H	0.276615	0.609775	0.844716
	H7	H	0.281978	0.399062	0.158450
	H8	H	0.846208	0.726991	0.391350
	H9	H	0.158998	0.724583	0.609265
	H10	H	0.844539	0.277070	0.609720
	H11	H	0.159225	0.280127	0.395831
	H12	H	0.843836	0.393990	0.724688
	H13	H	0.155926	0.614575	0.729651
	H14	H	0.844604	0.610925	0.276336
	H15	H	0.158215	0.395361	0.278881
	H16	H	0.390276	0.727399	0.845838
	H17	H	0.612562	0.728019	0.155342
	H18	H	0.607568	0.277505	0.844172
	H19	H	0.396386	0.279088	0.156761
	H20	H	0.730396	0.845675	0.390364
	H21	H	0.725327	0.155524	0.609749
	H22	H	0.277652	0.841683	0.608877
	H23	H	0.283658	0.158486	0.400082
	H24	H	0.896469	0.344934	0.222437
	H25	H	0.110976	0.657994	0.226031
	H26	H	0.104993	0.345494	0.779002
	H27	H	0.887792	0.656519	0.774205
	H28	H	0.224054	0.895187	0.343520
	H29	H	0.218857	0.102258	0.660202
	H30	H	0.778909	0.105977	0.345323
	H31	H	0.775774	0.889456	0.656255
	H32	H	0.343582	0.220753	0.896317
	H33	H	0.658475	0.223130	0.108174
	H34	H	0.343282	0.778286	0.107985
	H35	H	0.658406	0.774931	0.891649
	H36	H	0.345024	0.890404	0.227006
	H37	H	0.658994	0.106161	0.223697
	H38	H	0.343481	0.105917	0.779618
	H39	H	0.658515	0.890775	0.776801
	H40	H	0.894723	0.222887	0.345014
	H41	H	0.105189	0.222034	0.658335
	H42	H	0.114543	0.773542	0.345650
	H43	H	0.891644	0.771959	0.654857
	H44	H	0.219120	0.343640	0.897677
	H45	H	0.226273	0.658203	0.108620
	H46	H	0.783385	0.343340	0.103906
	H47	H	0.775886	0.657942	0.893868
	H48	H	0.409005	0.113976	0.598512
	H49	H	0.588933	0.887137	0.589813
	H50	H	0.592120	0.113192	0.410056
	H51	H	0.410916	0.887322	0.418405
	H52	H	0.587227	0.413025	0.111746
	H53	H	0.580954	0.586815	0.892750
	H54	H	0.412015	0.588881	0.112691
	H55	H	0.408473	0.409881	0.886308
	H56	H	0.111920	0.583964	0.415131
	H57	H	0.890872	0.587627	0.583944
	H58	H	0.113475	0.413245	0.587385
	H59	H	0.886487	0.412908	0.409953
	H60	H	0.113598	0.415265	0.590638
	H61	H	0.890974	0.585043	0.585289
	H62	H	0.114592	0.584966	0.410829
	H63	H	0.887041	0.410438	0.412314
	H64	H	0.415798	0.586333	0.110770
	H65	H	0.587471	0.592264	0.888485
	H66	H	0.588848	0.407802	0.114421
	H67	H	0.412076	0.411865	0.887319
	H68	H	0.583091	0.109447	0.411584
	H69	H	0.586310	0.888017	0.588350
	H70	H	0.417257	0.109321	0.591462
	H71	H	0.412640	0.884959	0.408935
	H72	H	0.916866	0.612906	0.088943
	H73	H	0.090082	0.389120	0.092176
	H74	H	0.086741	0.612879	0.917391
	H75	H	0.915972	0.389189	0.908510
	H76	H	0.089930	0.911426	0.612425
	H77	H	0.097574	0.089212	0.386742
	H78	H	0.908968	0.088549	0.615814
	H79	H	0.919310	0.919549	0.394384
	H80	H	0.616992	0.090006	0.909842
	H81	H	0.389447	0.083570	0.090852
	H82	H	0.609819	0.920721	0.084777
	H83	H	0.389594	0.912276	0.915769
	H84	H	0.616048	0.914034	0.094189
	H85	H	0.385869	0.090474	0.094963
	H86	H	0.615152	0.089820	0.915353
	H87	H	0.390617	0.916619	0.915521
	H88	H	0.917755	0.085123	0.611178
	H89	H	0.087403	0.090319	0.389354
	H90	H	0.088836	0.913033	0.611358
	H91	H	0.921307	0.911191	0.390261
	H92	H	0.090020	0.616026	0.912889
	H93	H	0.088559	0.390803	0.090311
	H94	H	0.912472	0.613715	0.084663
	H95	H	0.914269	0.391708	0.915580
	H96	H	0.406631	0.111887	0.587223
	H97	H	0.589094	0.888813	0.586309
	H98	H	0.589554	0.109447	0.419417
	H99	H	0.420344	0.888696	0.414580
	H100	H	0.593252	0.412480	0.113201
	H101	H	0.589697	0.583384	0.890779
	H102	H	0.416522	0.591069	0.111785
	H103	H	0.412003	0.407262	0.886972
	H104	H	0.114409	0.588375	0.414130
	H105	H	0.889966	0.586822	0.586515
	H106	H	0.114718	0.411366	0.590305
	H107	H	0.888011	0.413795	0.412857
	H108	H	0.911538	0.615887	0.090447
	H109	H	0.091344	0.389652	0.089524
	H110	H	0.084482	0.613959	0.911683
	H111	H	0.908799	0.388027	0.911435
	H112	H	0.087711	0.911066	0.612376
	H113	H	0.092695	0.098741	0.385156
	H114	H	0.916811	0.095461	0.614519
	H115	H	0.912626	0.914996	0.389474
	H116	H	0.614665	0.085261	0.911831
	H117	H	0.388814	0.091225	0.086353
	H118	H	0.613215	0.907950	0.083019
	H119	H	0.389122	0.914896	0.912162
	C120	C	0.378237	0.007716	0.625054
	C121	C	0.622196	0.991000	0.622065
	C122	C	0.623850	0.008252	0.379116
	C123	C	0.381762	0.991248	0.381623
	C124	C	0.622857	0.378209	0.009440
	C125	C	0.621234	0.621900	0.992969
	C126	C	0.379355	0.623045	0.009395
	C127	C	0.379007	0.378591	0.991190
	C128	C	0.010465	0.621991	0.378971
	C129	C	0.993420	0.621905	0.621084
	C130	C	0.009601	0.380535	0.622030
	C131	C	0.992019	0.380221	0.379571
	C132	C	0.881034	0.510289	0.121034
	C133	C	0.123492	0.493296	0.123398
	C134	C	0.120408	0.510826	0.880546
	C135	C	0.877846	0.492591	0.878022
	C136	C	0.123351	0.878511	0.509002
	C137	C	0.123538	0.123147	0.492298
	C138	C	0.880484	0.122132	0.510240
	C139	C	0.881317	0.878830	0.492905
	C140	C	0.510506	0.120458	0.880148
	C141	C	0.492676	0.121079	0.122681
	C142	C	0.509806	0.879378	0.122312
	C143	C	0.493160	0.879350	0.880486
	C144	C	0.376137	0.889161	0.685064
	C145	C	0.626624	0.108131	0.684372
	C146	C	0.631262	0.892287	0.315083
	C147	C	0.378218	0.109126	0.320508
	C148	C	0.683191	0.376378	0.891385
	C149	C	0.684431	0.626047	0.110049
	C150	C	0.317297	0.627157	0.891820
	C151	C	0.320575	0.378822	0.110493
	C152	C	0.893207	0.685893	0.373900
	C153	C	0.111468	0.684338	0.626694
	C154	C	0.891547	0.318149	0.626775
	C155	C	0.111216	0.320188	0.377485
	C156	C	0.891244	0.376306	0.684090
	C157	C	0.109547	0.629538	0.686909
	C158	C	0.892096	0.627821	0.316856
	C159	C	0.110927	0.377712	0.319354
	C160	C	0.374076	0.685913	0.892452
	C161	C	0.628213	0.685695	0.109238
	C162	C	0.625583	0.318007	0.891326
	C163	C	0.377400	0.319284	0.109833
	C164	C	0.688685	0.892306	0.373451
	C165	C	0.684711	0.108383	0.626806
	C166	C	0.317854	0.889100	0.627210
	C167	C	0.322276	0.110223	0.380310
	C168	C	0.878542	0.392063	0.181804
	C169	C	0.128059	0.611075	0.185027
	C170	C	0.123311	0.392618	0.819602
	C171	C	0.871859	0.609921	0.815729
	C172	C	0.184749	0.876177	0.391046
	C173	C	0.180580	0.122509	0.612080
	C174	C	0.819113	0.124491	0.392275
	C175	C	0.817321	0.872748	0.609442
	C176	C	0.391083	0.180712	0.877916
	C177	C	0.611273	0.182416	0.125955
	C178	C	0.390949	0.818324	0.126023
	C179	C	0.611499	0.816257	0.875265
	C180	C	0.391984	0.873879	0.185578
	C181	C	0.611732	0.123886	0.183026
	C182	C	0.391468	0.123581	0.819585
	C183	C	0.611569	0.873847	0.817863
	C184	C	0.876609	0.182743	0.392238
	C185	C	0.123943	0.182023	0.611086
	C186	C	0.129898	0.815653	0.392045
	C187	C	0.875020	0.814015	0.608784
	C188	C	0.179967	0.391588	0.878693
	C189	C	0.185692	0.611047	0.126659
	C190	C	0.822281	0.391007	0.122741
	C191	C	0.815699	0.610392	0.875095
	C192	C	0.403490	0.090152	0.599759
	C193	C	0.595765	0.909403	0.595835
	C194	C	0.596081	0.089553	0.406083
	C195	C	0.407266	0.908580	0.406714
	C196	C	0.597024	0.403724	0.091702
	C197	C	0.593932	0.595217	0.911940
	C198	C	0.406794	0.596320	0.090515
	C199	C	0.403784	0.402840	0.908328
	C200	C	0.092421	0.593873	0.405620
	C201	C	0.911935	0.594473	0.593184
	C202	C	0.092249	0.406228	0.596644
	C203	C	0.908724	0.405141	0.404666
	C204	C	0.906297	0.592702	0.095495
	C205	C	0.097419	0.411225	0.097997
	C206	C	0.094557	0.592888	0.906556
	C207	C	0.905204	0.411106	0.904231
	C208	C	0.096364	0.904310	0.590569
	C209	C	0.099706	0.099420	0.408794
	C210	C	0.906720	0.096988	0.592334
	C211	C	0.909654	0.906991	0.412483
	C212	C	0.593846	0.095554	0.905168
	C213	C	0.409481	0.095682	0.097791
	C214	C	0.591757	0.906293	0.095334
	C215	C	0.411229	0.906529	0.906978
	Zn216	Zn	0.501702	-0.001016	0.751932
	Zn217	Zn	0.501596	-0.000194	0.251089
	Zn218	Zn	0.751062	0.501127	0.001069
	Zn219	Zn	0.250841	0.501710	0.000281
	Zn220	Zn	0.003045	0.749977	0.499776
	Zn221	Zn	0.000842	0.251914	0.501133
	Zn222	Zn	0.000309	0.502257	0.750683
	Zn223	Zn	0.000999	0.501890	0.250694
	Zn224	Zn	0.500802	0.751387	0.001105
	Zn225	Zn	0.501113	0.249152	0.000744
	Zn226	Zn	0.751764	-0.000073	0.501491
	Zn227	Zn	0.251273	-0.000447	0.501729
	N228	N	0.412745	0.964034	0.683700
	N229	N	0.588542	0.034163	0.681594
	N230	N	0.591532	0.965494	0.318519
	N231	N	0.414249	0.033923	0.321115
	N232	N	0.681591	0.413010	0.965879
	N233	N	0.679990	0.586783	0.036994
	N234	N	0.320404	0.588803	0.965489
	N235	N	0.321502	0.414842	0.035658
	N236	N	0.967882	0.682298	0.411654
	N237	N	0.038329	0.679812	0.586282
	N238	N	0.966032	0.320676	0.588822
	N239	N	0.036202	0.321768	0.414396
	N240	N	0.965388	0.414905	0.681052
	N241	N	0.034996	0.591646	0.683659
	N242	N	0.966343	0.589057	0.319833
	N243	N	0.035738	0.414368	0.320539
	N244	N	0.411840	0.683593	0.966657
	N245	N	0.589780	0.683289	0.035494
	N246	N	0.588837	0.318977	0.966053
	N247	N	0.413020	0.318986	0.034618
	N248	N	0.683906	0.965405	0.412738
	N249	N	0.682214	0.034425	0.588898
	N250	N	0.318828	0.964040	0.590896
	N251	N	0.324297	0.035831	0.417559
	N252	N	0.914115	0.467419	0.180984
	N253	N	0.090190	0.536799	0.183124
	N254	N	0.087342	0.467860	0.820445
	N255	N	0.909756	0.535767	0.817501
	N256	N	0.180741	0.914592	0.464661
	N257	N	0.180522	0.086801	0.537111
	N258	N	0.821407	0.087525	0.466716
	N259	N	0.821298	0.912235	0.536449
	N260	N	0.466069	0.178728	0.914890
	N261	N	0.536115	0.180842	0.089090
	N262	N	0.465220	0.821443	0.087552
	N263	N	0.536927	0.819415	0.913428
	N264	N	0.467069	0.910902	0.183621
	N265	N	0.536864	0.086510	0.181108
	N266	N	0.466843	0.086867	0.820735
	N267	N	0.537112	0.912248	0.820865
	N268	N	0.913853	0.181696	0.466675
	N269	N	0.089334	0.182648	0.535319
	N270	N	0.092418	0.817065	0.466385
	N271	N	0.914061	0.817693	0.535253
	N272	N	0.178474	0.466226	0.915802
	N273	N	0.183019	0.536942	0.089103
	N274	N	0.823533	0.465526	0.085829
	N275	N	0.819117	0.536337	0.913077
	O276	O	0.716625	0.471353	0.283882
	H277	H	0.708937	0.499021	0.303794
	H278	H	0.751090	0.476201	0.259697
	O279	O	0.451283	0.710356	0.549640
	H280	H	0.433913	0.701011	0.552372
	H281	H	0.437868	0.713738	0.565007
	O282	O	0.833230	0.818582	0.184248
	H283	H	0.832991	0.811366	0.157878
	H284	H	0.826438	0.850623	0.192960
	O285	O	0.396045	0.300706	0.404546
	H286	H	0.409015	0.306107	0.393761
	H287	H	0.381118	0.296290	0.400675
	O288	O	-0.191716	-0.040052	-0.044897
	H289	H	-0.183590	-0.022526	-0.056227
	H290	H	-0.186904	-0.025411	-0.047829
	O291	O	0.993867	0.788934	0.208552
	H292	H	0.962527	0.800775	0.206102
	H293	H	0.994544	0.765680	0.236136
	O294	O	0.072823	0.923894	0.210893
	H295	H	0.066745	0.917347	0.210535
	H296	H	0.094366	0.919654	0.213207
	O297	O	0.683341	0.508892	0.469317
	H298	H	0.678441	0.515976	0.470201
	H299	H	0.682689	0.492296	0.479838
	O300	O	0.507748	0.449701	0.561253
	H301	H	0.524930	0.453085	0.557002
	H302	H	0.508762	0.446981	0.554856
	O303	O	0.279383	0.480240	0.720114
	H304	H	0.270052	0.449711	0.732806
	H305	H	0.271985	0.458625	0.731899
	O306	O	0.206976	0.788957	0.975735
	H307	H	0.211214	0.792840	0.997462
	H308	H	0.212773	0.769461	0.990728
	O309	O	0.716711	0.717404	0.514976
	H310	H	0.702038	0.703354	0.564219
	H311	H	0.750229	0.745812	0.523855
	O312	O	0.473681	0.719214	0.299568
	H313	H	0.478109	0.750798	0.285159
	H314	H	0.497412	0.736513	0.324696
	O315	O	0.093455	-0.171310	1.057554
	H316	H	0.093144	-0.163079	1.085832
	H317	H	0.095831	-0.174133	1.067657
	O318	O	0.159821	0.902860	0.056243
	H319	H	0.161711	0.907834	0.073467
	H320	H	0.153543	0.922919	0.061454
	O321	O	0.287713	0.712864	0.459339
	H322	H	0.280951	0.711171	0.440773
	H323	H	0.274420	0.716513	0.469478
	O324	O	0.811822	0.194446	0.807737
	H325	H	0.811087	0.156218	0.804323
	H326	H	0.853073	0.190465	0.806094
	O327	O	0.784880	0.207343	0.963156
	H328	H	0.757999	0.231532	0.964435
	H329	H	0.800043	0.201963	0.927028
	O330	O	0.797353	-0.019205	0.201438
	H331	H	0.777975	-0.022041	0.229209
	H332	H	0.811744	0.002768	0.189638
	O333	O	0.923538	0.919585	0.785757
	H334	H	0.948258	0.899731	0.786999
	H335	H	0.928444	0.911736	0.796224
	O336	O	0.984078	0.200371	0.804468
	H337	H	0.993116	0.195255	0.804783
	H338	H	1.000179	0.183593	0.801238
	O339	O	0.312680	0.383034	0.576628
	H340	H	0.309732	0.364091	0.564331
	H341	H	0.334722	0.390594	0.595662
	O342	O	0.693650	0.558866	0.423123
	H343	H	0.680162	0.574432	0.427173
	H344	H	0.700348	0.539244	0.455583
	O345	O	0.069854	0.206414	0.018162
	H346	H	0.036773	0.200538	0.031664
	H347	H	0.071120	0.212281	0.012756
	O348	O	1.040316	0.050368	0.796689
	H349	H	1.056063	0.028104	0.794698
	H350	H	1.052619	0.027177	0.805243
	O351	O	1.153366	1.025209	-0.032237
	H352	H	1.141343	1.001316	-0.020549
	H353	H	1.156252	1.021235	-0.058525
	O354	O	0.720655	0.283801	0.477545
	H355	H	0.719668	0.284227	0.440571
	H356	H	0.744108	0.264598	0.475896
	O357	O	0.940839	0.803864	0.913540
	H358	H	0.934090	0.814041	0.927065
	H359	H	0.926558	0.800001	0.936426
	O360	O	0.467844	0.410720	0.312793
	H361	H	0.494626	0.436521	0.312943
	H362	H	0.445800	0.421755	0.310363
	O363	O	0.588150	0.708995	0.426730
	H364	H	0.615894	0.716730	0.453097
	H365	H	0.567494	0.710150	0.457014
	O366	O	0.793546	0.014372	0.786059
	H367	H	0.826764	-0.007305	0.787124
	H368	H	0.762559	0.016078	0.751046
	O369	O	0.312626	0.667504	0.319244
	H370	H	0.318232	0.665825	0.335558
	H371	H	0.349272	0.664962	0.309284
	O372	O	0.480974	0.306024	0.681397
	H373	H	0.490198	0.293308	0.671152
	H374	H	0.504088	0.303588	0.676139
	O375	O	0.218529	0.972722	0.781985
	H376	H	0.240811	0.965655	0.762762
	H377	H	0.222412	0.934152	0.779074
	O378	O	0.554472	0.301997	0.311683
	H379	H	0.543146	0.322464	0.310926
	H380	H	0.547143	0.307171	0.313501
	O381	O	0.814729	0.100214	0.074603
	H382	H	0.821811	0.104272	0.069044
	H383	H	0.801857	0.114833	0.081047
	O384	O	-0.050503	0.177458	1.042329
	H385	H	-0.047780	0.177983	1.056991
	H386	H	-0.067050	0.179584	1.043069
	O387	O	-0.030434	0.790910	0.837909
	H388	H	-0.050319	0.781570	0.878289
	H389	H	-0.023603	0.763375	0.819321
	O390	O	0.019593	-0.018598	0.985850
	H391	H	0.009424	-0.011593	0.998738
	H392	H	0.029032	-0.024439	0.981101
	O393	O	0.810793	0.787395	0.011386
	H394	H	0.785787	0.792263	0.010565
	H395	H	0.797427	0.792773	0.016235
	O396	O	0.513515	0.361362	0.495214
	H397	H	0.488853	0.362145	0.490969
	H398	H	0.516731	0.366519	0.484940
	O399	O	0.443419	0.555904	0.712304
	H400	H	0.454786	0.532637	0.708843
	H401	H	0.419153	0.542318	0.707564
	O402	O	-0.008493	0.060677	1.014556
	H403	H	-0.017892	0.073224	1.024443
	H404	H	-0.027984	0.052124	1.017513
	O405	O	0.275839	0.255606	-0.200485
	H406	H	0.257913	0.244636	-0.182939
	H407	H	0.301437	0.260079	-0.218983
	O408	O	0.679073	0.677289	0.668194
	H409	H	0.651002	0.661822	0.677090
	H410	H	0.663270	0.655660	0.685666
	O411	O	0.290506	0.526327	0.319239
	H412	H	0.292590	0.538850	0.349667
	H413	H	0.270068	0.522887	0.289300
	O414	O	0.535093	0.568288	0.277622
	H415	H	0.540581	0.591041	0.270332
	H416	H	0.539058	0.579967	0.284466
	O417	O	0.298284	0.375880	0.375310
	H418	H	0.314778	0.398161	0.367585
	H419	H	0.298381	0.388930	0.378450
	O420	O	0.564598	0.492898	0.493127
	H421	H	0.571479	0.490380	0.483513
	H422	H	0.571456	0.481649	0.480808
	O423	O	0.125117	1.145387	0.109095
	H424	H	0.113654	1.114815	0.098022
	H425	H	0.133019	1.157048	0.093776
	O426	O	1.166586	1.148222	0.885240
	H427	H	1.167623	1.135017	0.892524
	H428	H	1.149911	1.128315	0.886093
	O429	O	0.278885	0.578540	0.553868
	H430	H	0.283426	0.566383	0.566497
	H431	H	0.265807	0.587138	0.569537
	O432	O	0.290850	0.290269	0.556775
	H433	H	0.271797	0.280518	0.557802
	H434	H	0.288231	0.294237	0.546824
	O435	O	0.219004	0.020652	0.212071
	H436	H	0.233208	0.037514	0.231339
	H437	H	0.213914	0.054141	0.217997
	O438	O	1.022350	0.204384	0.210900
	H439	H	1.026496	0.211970	0.221066
	H440	H	1.041134	0.206267	0.208121
	O441	O	0.611917	0.326680	0.600611
	H442	H	0.613258	0.314598	0.582246
	H443	H	0.605831	0.319011	0.588391
	O444	O	0.179310	0.815956	0.815779
	H445	H	0.134971	0.811855	0.806980
	H446	H	0.188800	0.805928	0.868444
	O447	O	0.524052	0.708905	0.709094
	H448	H	0.496768	0.686869	0.705025
	H449	H	0.512335	0.719731	0.737829
	O450	O	0.234384	0.230332	0.228619
	H451	H	0.233633	0.234757	0.190790
	H452	H	0.249596	0.245058	0.229013
	O453	O	0.713759	0.523014	0.718179
	H454	H	0.709533	0.509052	0.719123
	H455	H	0.736171	0.511325	0.736645
	O456	O	0.706851	0.289347	0.295035
	H457	H	0.677087	0.290278	0.290579
	H458	H	0.700419	0.326130	0.289799
	O459	O	0.549597	0.532611	0.486091
	H460	H	0.565224	0.544015	0.489714
	H461	H	0.542465	0.546561	0.488993
	O462	O	0.510071	0.493545	0.696709
	H463	H	0.517586	0.480899	0.696719
	H464	H	0.495619	0.485230	0.694215
	O465	O	0.892904	0.088369	0.195504
	H466	H	0.909918	0.102871	0.190512
	H467	H	0.895825	0.087215	0.201778
