data_Molecule from HDF5

_cell_length_a		16.102662
_cell_length_b		16.195950
_cell_length_c		16.279313
_cell_angle_alpha	90.235686
_cell_angle_beta	90.310749
_cell_angle_gamma	90.632482
_symmetry_space_group_name_H-M	'P 1'
_symmetry_Int_Tables_number		1

loop_
	_symmetry_equiv_pos_as_xyz
	x,y,z

loop_
	_atom_site_label
	_atom_site_type_symbol
	_atom_site_fract_x
	_atom_site_fract_y
	_atom_site_fract_z
	H0	H	0.394678	0.837012	0.711716
	H1	H	0.600116	0.164827	0.713136
	H2	H	0.594731	0.837073	0.280980
	H3	H	0.398027	0.165424	0.282010
	H4	H	0.708597	0.403552	0.831563
	H5	H	0.716173	0.601670	0.160159
	H6	H	0.285569	0.597030	0.832361
	H7	H	0.283928	0.402905	0.161057
	H8	H	0.831306	0.710266	0.395961
	H9	H	0.162903	0.716086	0.594872
	H10	H	0.832401	0.284040	0.592848
	H11	H	0.163120	0.287411	0.396837
	H12	H	0.833630	0.396933	0.709306
	H13	H	0.162937	0.602187	0.710441
	H14	H	0.832653	0.596382	0.278974
	H15	H	0.162876	0.401497	0.280814
	H16	H	0.401030	0.714162	0.832436
	H17	H	0.602440	0.719248	0.159963
	H18	H	0.596782	0.285249	0.834159
	H19	H	0.397955	0.285867	0.161139
	H20	H	0.706030	0.833810	0.400060
	H21	H	0.715270	0.164148	0.597847
	H22	H	0.282977	0.835384	0.593109
	H23	H	0.284708	0.166147	0.399949
	H24	H	0.897079	0.336269	0.207085
	H25	H	0.103178	0.663169	0.212944
	H26	H	0.098198	0.336162	0.777486
	H27	H	0.900557	0.664158	0.779337
	H28	H	0.208830	0.902214	0.332208
	H29	H	0.211561	0.099178	0.660597
	H30	H	0.781880	0.095903	0.332510
	H31	H	0.784456	0.901255	0.661387
	H32	H	0.332352	0.212478	0.898760
	H33	H	0.663687	0.217670	0.097571
	H34	H	0.334439	0.783981	0.095265
	H35	H	0.664912	0.791394	0.899842
	H36	H	0.332815	0.900593	0.208449
	H37	H	0.662266	0.105278	0.214549
	H38	H	0.332767	0.099076	0.781204
	H39	H	0.663262	0.903400	0.782277
	H40	H	0.898887	0.210739	0.330953
	H41	H	0.101119	0.219422	0.658223
	H42	H	0.093040	0.786620	0.331576
	H43	H	0.895887	0.782575	0.658977
	H44	H	0.210123	0.334502	0.897863
	H45	H	0.213651	0.666041	0.093677
	H46	H	0.784073	0.336191	0.091395
	H47	H	0.787657	0.666576	0.897866
	H48	H	0.398731	0.119584	0.586529
	H49	H	0.586170	0.885816	0.581646
	H50	H	0.592248	0.118313	0.407018
	H51	H	0.396843	0.881198	0.400023
	H52	H	0.590253	0.394329	0.118039
	H53	H	0.586971	0.602190	0.879312
	H54	H	0.404259	0.592784	0.113690
	H55	H	0.396073	0.415126	0.880750
	H56	H	0.113397	0.591622	0.405926
	H57	H	0.876400	0.590108	0.597378
	H58	H	0.116649	0.406073	0.587503
	H59	H	0.880888	0.412843	0.398776
	H60	H	0.114894	0.411444	0.584282
	H61	H	0.878272	0.598067	0.582857
	H62	H	0.116394	0.592460	0.400314
	H63	H	0.875932	0.400150	0.392397
	H64	H	0.411008	0.591986	0.111895
	H65	H	0.600354	0.600021	0.876296
	H66	H	0.606164	0.416888	0.115317
	H67	H	0.417364	0.408575	0.885180
	H68	H	0.590878	0.118782	0.404116
	H69	H	0.598029	0.878823	0.594024
	H70	H	0.407573	0.119959	0.597935
	H71	H	0.406873	0.883508	0.397344
	H72	H	0.906454	0.616740	0.080001
	H73	H	0.087871	0.386122	0.081909
	H74	H	0.099855	0.618828	0.904566
	H75	H	0.904515	0.380489	0.889329
	H76	H	0.087533	0.904093	0.613387
	H77	H	0.094615	0.102776	0.375249
	H78	H	0.911066	0.095574	0.612101
	H79	H	0.904725	0.898423	0.378025
	H80	H	0.615609	0.094165	0.907995
	H81	H	0.377122	0.095377	0.097812
	H82	H	0.616829	0.916682	0.095002
	H83	H	0.382073	0.910204	0.906694
	H84	H	0.619990	0.906069	0.094139
	H85	H	0.380463	0.098202	0.082849
	H86	H	0.615977	0.092647	0.902345
	H87	H	0.379368	0.907810	0.899882
	H88	H	0.903694	0.093779	0.614190
	H89	H	0.097047	0.085656	0.378645
	H90	H	0.092703	0.905198	0.615897
	H91	H	0.895318	0.902316	0.376975
	H92	H	0.091740	0.619072	0.894240
	H93	H	0.097851	0.379930	0.087724
	H94	H	0.903440	0.621850	0.095428
	H95	H	0.913223	0.387331	0.906715
	H96	H	0.412193	0.115032	0.585960
	H97	H	0.580493	0.882039	0.598909
	H98	H	0.589063	0.116792	0.407686
	H99	H	0.403019	0.885525	0.406961
	H100	H	0.579402	0.418668	0.107702
	H101	H	0.592804	0.589550	0.881341
	H102	H	0.408280	0.597903	0.114998
	H103	H	0.402355	0.393715	0.875428
	H104	H	0.116748	0.597063	0.405072
	H105	H	0.884019	0.581695	0.584279
	H106	H	0.116020	0.412407	0.590553
	H107	H	0.880122	0.400145	0.407170
	H108	H	0.918926	0.616584	0.090977
	H109	H	0.086525	0.381317	0.094128
	H110	H	0.087511	0.614304	0.905702
	H111	H	0.892838	0.382208	0.906892
	H112	H	0.089867	0.909196	0.612410
	H113	H	0.081942	0.092401	0.381685
	H114	H	0.908150	0.088223	0.610686
	H115	H	0.902911	0.910150	0.381282
	H116	H	0.617104	0.097379	0.904100
	H117	H	0.382053	0.084430	0.088908
	H118	H	0.614723	0.910972	0.085502
	H119	H	0.379599	0.903369	0.905726
	C120	C	0.376083	0.009187	0.618320
	C121	C	0.619245	0.991310	0.620315
	C122	C	0.617938	0.009006	0.377131
	C123	C	0.374884	0.992406	0.374401
	C124	C	0.619684	0.380442	0.005495
	C125	C	0.622366	0.625125	0.987625
	C126	C	0.378616	0.622248	0.005019
	C127	C	0.375890	0.377856	0.988775
	C128	C	0.006089	0.620642	0.374017
	C129	C	0.988869	0.621132	0.616981
	C130	C	0.006711	0.378654	0.616029
	C131	C	0.988678	0.377353	0.372147
	C132	C	0.878938	0.509634	0.116012
	C133	C	0.120928	0.491643	0.116909
	C134	C	0.120616	0.508491	0.873093
	C135	C	0.876334	0.492018	0.872563
	C136	C	0.117649	0.878176	0.504992
	C137	C	0.120137	0.122920	0.487101
	C138	C	0.877236	0.120508	0.504249
	C139	C	0.873528	0.875870	0.487358
	C140	C	0.506703	0.122285	0.876128
	C141	C	0.489280	0.123191	0.119434
	C142	C	0.507884	0.880556	0.118820
	C143	C	0.489715	0.879845	0.875433
	C144	C	0.376079	0.885731	0.673208
	C145	C	0.619541	0.115169	0.675627
	C146	C	0.614797	0.885525	0.320059
	C147	C	0.377821	0.116339	0.319946
	C148	C	0.672707	0.382668	0.881362
	C149	C	0.678332	0.622088	0.111132
	C150	C	0.323176	0.618528	0.881314
	C151	C	0.320761	0.381483	0.111818
	C152	C	0.880916	0.672920	0.376118
	C153	C	0.113265	0.678255	0.615483
	C154	C	0.882199	0.321778	0.613517
	C155	C	0.113685	0.324361	0.376010
	C156	C	0.882684	0.378325	0.671234
	C157	C	0.113468	0.621302	0.672518
	C158	C	0.881730	0.616788	0.317453
	C159	C	0.113634	0.380908	0.318302
	C160	C	0.380939	0.676420	0.881507
	C161	C	0.621589	0.680523	0.110926
	C162	C	0.616826	0.323805	0.882644
	C163	C	0.377938	0.323372	0.111974
	C164	C	0.670125	0.883987	0.379381
	C165	C	0.677010	0.114736	0.618382
	C166	C	0.320375	0.885046	0.614214
	C167	C	0.321505	0.116652	0.378714
	C168	C	0.878473	0.385512	0.169740
	C169	C	0.121646	0.614724	0.173812
	C170	C	0.118069	0.384812	0.816907
	C171	C	0.880208	0.615519	0.817692
	C172	C	0.171663	0.881202	0.381390
	C173	C	0.174891	0.120279	0.611171
	C174	C	0.820334	0.116990	0.381118
	C175	C	0.820515	0.879637	0.611739
	C176	C	0.382020	0.175863	0.878148
	C177	C	0.613965	0.179873	0.117719
	C178	C	0.383568	0.822683	0.115802
	C179	C	0.614887	0.827395	0.878812
	C180	C	0.382383	0.881122	0.171626
	C181	C	0.613144	0.123839	0.176131
	C182	C	0.382209	0.119589	0.819746
	C183	C	0.613965	0.883019	0.820073
	C184	C	0.878613	0.174034	0.380391
	C185	C	0.119588	0.179926	0.609870
	C186	C	0.113817	0.823859	0.381021
	C187	C	0.876125	0.820607	0.610424
	C188	C	0.173601	0.384064	0.876657
	C189	C	0.177157	0.615797	0.115088
	C190	C	0.821997	0.385638	0.112195
	C191	C	0.823960	0.616668	0.876433
	C192	C	0.399489	0.095908	0.596582
	C193	C	0.595396	0.904555	0.598197
	C194	C	0.597007	0.095476	0.399556
	C195	C	0.395991	0.905832	0.395189
	C196	C	0.598169	0.403117	0.091524
	C197	C	0.599853	0.603591	0.901163
	C198	C	0.401209	0.600474	0.091193
	C199	C	0.398540	0.399519	0.902581
	C200	C	0.093041	0.599822	0.396919
	C201	C	0.901976	0.597014	0.594715
	C202	C	0.093502	0.402853	0.593947
	C203	C	0.901698	0.398229	0.393124
	C204	C	0.902738	0.596066	0.095020
	C205	C	0.097662	0.404833	0.094550
	C206	C	0.099357	0.594957	0.894980
	C207	C	0.897340	0.405607	0.894378
	C208	C	0.096227	0.899672	0.591516
	C209	C	0.097798	0.100289	0.400818
	C210	C	0.900749	0.098824	0.590103
	C211	C	0.894715	0.897342	0.401254
	C212	C	0.593853	0.101027	0.898279
	C213	C	0.402464	0.099559	0.096669
	C214	C	0.594604	0.904473	0.097868
	C215	C	0.402788	0.900921	0.897450
	Zn216	Zn	0.497307	0.000760	0.747281
	Zn217	Zn	0.497639	0.001533	0.246879
	Zn218	Zn	0.749210	0.501486	-0.004354
	Zn219	Zn	0.248764	0.500515	-0.003913
	Zn220	Zn	-0.003354	0.748858	0.495892
	Zn221	Zn	-0.001838	0.250972	0.494690
	Zn222	Zn	-0.001758	0.499696	0.744065
	Zn223	Zn	-0.000952	0.499441	0.245050
	Zn224	Zn	0.499848	0.752273	-0.003334
	Zn225	Zn	0.498542	0.250465	-0.002380
	Zn226	Zn	0.747076	-0.000840	0.497500
	Zn227	Zn	0.246792	0.000286	0.496700
	N228	N	0.409992	0.964111	0.675856
	N229	N	0.584296	0.037377	0.676775
	N230	N	0.582835	0.964046	0.318596
	N231	N	0.410448	0.038098	0.317374
	N232	N	0.674476	0.417428	0.958707
	N233	N	0.679194	0.588404	0.033324
	N234	N	0.321533	0.585785	0.959181
	N235	N	0.319453	0.414584	0.034088
	N236	N	0.959102	0.675524	0.410398
	N237	N	0.034572	0.678363	0.581709
	N238	N	0.960343	0.322170	0.579669
	N239	N	0.035049	0.321952	0.408672
	N240	N	0.961208	0.412912	0.672849
	N241	N	0.034980	0.586704	0.673815
	N242	N	0.960724	0.584947	0.315964
	N243	N	0.035056	0.413254	0.315870
	N244	N	0.414597	0.678776	0.959464
	N245	N	0.587799	0.682639	0.033188
	N246	N	0.584515	0.322316	0.960777
	N247	N	0.411558	0.321079	0.034328
	N248	N	0.672081	0.961601	0.414182
	N249	N	0.677024	0.036670	0.584743
	N250	N	0.320479	0.962947	0.580592
	N251	N	0.319436	0.038689	0.411756
	N252	N	0.913176	0.463519	0.172374
	N253	N	0.087587	0.536299	0.175427
	N254	N	0.085710	0.463175	0.814512
	N255	N	0.912092	0.537028	0.815173
	N256	N	0.174035	0.914276	0.459295
	N257	N	0.175153	0.085373	0.533906
	N258	N	0.819410	0.084388	0.459051
	N259	N	0.818567	0.913209	0.534416
	N260	N	0.460455	0.177726	0.912545
	N261	N	0.535816	0.179671	0.083052
	N262	N	0.462508	0.821929	0.083709
	N263	N	0.536669	0.825411	0.912619
	N264	N	0.460592	0.916285	0.173879
	N265	N	0.534690	0.089350	0.177286
	N266	N	0.460713	0.086969	0.818422
	N267	N	0.535119	0.915004	0.818026
	N268	N	0.913324	0.176449	0.457941
	N269	N	0.086288	0.181654	0.531789
	N270	N	0.081081	0.821769	0.459037
	N271	N	0.908329	0.817955	0.532147
	N272	N	0.175520	0.462074	0.910840
	N273	N	0.176422	0.538297	0.080226
	N274	N	0.821950	0.463902	0.079477
	N275	N	0.821454	0.538860	0.909870
	O276	O	-0.047719	0.104213	-0.044010
	H277	H	-0.052503	0.100929	-0.048442
	H278	H	-0.055625	0.089428	-0.043393
	O279	O	0.611485	0.493648	0.492120
	H280	H	0.615866	0.492020	0.500005
	H281	H	0.615067	0.498535	0.487162
	O282	O	0.545998	0.491058	0.527291
	H283	H	0.552955	0.485558	0.510466
	H284	H	0.547930	0.492853	0.522093
	O285	O	0.026134	0.943298	0.936818
	H286	H	0.033519	0.944552	0.935366
	H287	H	0.029317	0.939958	0.940028
	O288	O	0.491206	0.585329	0.523393
	H289	H	0.491985	0.591252	0.530679
	H290	H	0.504986	0.586536	0.518562
	O291	O	1.020139	0.957112	1.005628
	H292	H	1.005148	0.953919	1.009404
	H293	H	1.027952	0.970257	1.005343
	O294	O	1.001038	0.951914	1.024036
	H295	H	1.010688	0.952952	1.024896
	H296	H	0.996212	0.954980	1.015905
	O297	O	1.007166	-0.040339	1.019171
	H298	H	1.016250	-0.047211	1.016952
	H299	H	1.016826	-0.036739	1.024767
	O300	O	0.551035	0.446534	0.506924
	H301	H	0.543319	0.457983	0.504046
	H302	H	0.556900	0.453256	0.509838
	O303	O	1.071755	0.007217	-0.020170
	H304	H	1.076422	0.005545	-0.023100
	H305	H	1.079356	0.012217	-0.013273
	O306	O	-0.020559	0.952550	0.997732
	H307	H	-0.026443	0.958311	0.992086
	H308	H	-0.024281	0.942979	1.005250
	O309	O	0.529705	0.546001	0.573339
	H310	H	0.534581	0.548879	0.585582
	H311	H	0.523748	0.537091	0.563879
	O312	O	0.951829	0.068963	0.980063
	H313	H	0.954691	0.062058	0.981603
	H314	H	0.954190	0.061809	0.987360
	O315	O	0.482751	0.591216	0.424588
	H316	H	0.469793	0.590859	0.423753
	H317	H	0.495792	0.581572	0.422558
	O318	O	0.482699	0.473544	0.460376
	H319	H	0.492184	0.477972	0.450724
	H320	H	0.471295	0.467272	0.465461
	O321	O	0.938382	1.057818	1.048029
	H322	H	0.926955	1.061226	1.045425
	H323	H	0.940454	1.050215	1.042736
	O324	O	0.460781	0.386343	0.527563
	H325	H	0.453005	0.385392	0.528649
	H326	H	0.463232	0.375105	0.523331
	O327	O	0.428602	0.520624	0.429430
	H328	H	0.431726	0.522791	0.438506
	H329	H	0.428282	0.523425	0.440012
	O330	O	0.917169	0.036142	0.911026
	H331	H	0.916366	0.031870	0.910170
	H332	H	0.921093	0.037541	0.920732
	O333	O	1.008535	0.990132	-0.022657
	H334	H	0.999827	0.999208	-0.018851
	H335	H	1.011463	0.989748	-0.023115
	O336	O	0.416953	0.450675	0.524035
	H337	H	0.414787	0.441237	0.525954
	H338	H	0.411931	0.455664	0.515054
	O339	O	0.533068	0.512873	0.496937
	H340	H	0.539735	0.512399	0.497960
	H341	H	0.534146	0.513845	0.497505
	O342	O	0.044377	1.092210	0.043783
	H343	H	0.042555	1.105192	0.039754
	H344	H	0.049316	1.094403	0.037183
	O345	O	0.007217	-0.063956	0.025933
	H346	H	0.002324	-0.056998	0.030263
	H347	H	0.012737	-0.063600	0.018146
	O348	O	0.477989	0.406061	0.466592
	H349	H	0.470212	0.413003	0.472567
	H350	H	0.473718	0.400176	0.472453
	O351	O	0.417478	0.461716	0.566390
	H352	H	0.420660	0.453482	0.576007
	H353	H	0.412788	0.458607	0.571829
	O354	O	0.452540	0.607472	0.512015
	H355	H	0.445363	0.620595	0.500566
	H356	H	0.459643	0.606558	0.515403
	O357	O	0.425663	0.520909	0.470988
	H358	H	0.427818	0.511766	0.481391
	H359	H	0.423112	0.518660	0.475924
	O360	O	0.007683	0.058812	0.065479
	H361	H	-0.005387	0.058496	0.070634
	H362	H	0.013912	0.063772	0.070708
	O363	O	0.613811	0.597501	0.607046
	H364	H	0.633149	0.612552	0.612384
	H365	H	0.596204	0.601316	0.595682
	O366	O	-0.011752	0.032888	0.927514
	H367	H	-0.011746	0.046845	0.926060
	H368	H	-0.019898	0.024130	0.926120
	O369	O	0.420913	0.525701	0.443732
	H370	H	0.422376	0.526392	0.439661
	H371	H	0.410502	0.533174	0.447235
