data_Molecule from HDF5

_cell_length_a		16.354542
_cell_length_b		16.517346
_cell_length_c		16.543364
_cell_angle_alpha	89.959400
_cell_angle_beta	90.261195
_cell_angle_gamma	90.101162
_symmetry_space_group_name_H-M	'P 1'
_symmetry_Int_Tables_number		1

loop_
	_symmetry_equiv_pos_as_xyz
	x,y,z

loop_
	_atom_site_label
	_atom_site_type_symbol
	_atom_site_fract_x
	_atom_site_fract_y
	_atom_site_fract_z
	H0	H	0.406473	0.837532	0.711845
	H1	H	0.623009	0.148910	0.712679
	H2	H	0.622569	0.837409	0.264840
	H3	H	0.411476	0.151586	0.268315
	H4	H	0.736815	0.386833	0.832260
	H5	H	0.737294	0.598046	0.146635
	H6	H	0.293030	0.597369	0.829787
	H7	H	0.296106	0.391447	0.145765
	H8	H	0.854937	0.715945	0.380850
	H9	H	0.172516	0.713888	0.593452
	H10	H	0.855033	0.270458	0.592852
	H11	H	0.172019	0.275266	0.387296
	H12	H	0.853808	0.387940	0.707447
	H13	H	0.172312	0.597487	0.708971
	H14	H	0.855172	0.600594	0.265380
	H15	H	0.172921	0.391886	0.271924
	H16	H	0.408667	0.715948	0.831310
	H17	H	0.621120	0.715519	0.146880
	H18	H	0.624040	0.267633	0.833828
	H19	H	0.408980	0.271543	0.143930
	H20	H	0.735844	0.835983	0.383232
	H21	H	0.736493	0.150784	0.593686
	H22	H	0.292946	0.836056	0.593297
	H23	H	0.296238	0.151690	0.387146
	H24	H	0.904579	0.337075	0.213582
	H25	H	0.119595	0.649891	0.210342
	H26	H	0.118948	0.335963	0.765923
	H27	H	0.905374	0.649087	0.764034
	H28	H	0.232144	0.892932	0.330674
	H29	H	0.239402	0.101350	0.645014
	H30	H	0.787543	0.103447	0.332268
	H31	H	0.796080	0.891862	0.646612
	H32	H	0.356419	0.214900	0.882626
	H33	H	0.671647	0.219983	0.098728
	H34	H	0.355876	0.775429	0.091989
	H35	H	0.671329	0.769962	0.882093
	H36	H	0.356186	0.892449	0.206576
	H37	H	0.672587	0.103277	0.213438
	H38	H	0.356599	0.099798	0.766583
	H39	H	0.671370	0.886151	0.765377
	H40	H	0.905395	0.218323	0.332113
	H41	H	0.123787	0.219044	0.644158
	H42	H	0.118741	0.772477	0.332389
	H43	H	0.907830	0.771285	0.644650
	H44	H	0.233488	0.334978	0.883816
	H45	H	0.233293	0.651349	0.090779
	H46	H	0.792051	0.334460	0.093793
	H47	H	0.791273	0.649783	0.882481
	H48	H	0.423743	0.107071	0.579067
	H49	H	0.600511	0.880609	0.580726
	H50	H	0.607577	0.106501	0.401973
	H51	H	0.423430	0.879354	0.396760
	H52	H	0.600055	0.411702	0.097434
	H53	H	0.602927	0.582548	0.877646
	H54	H	0.429268	0.582272	0.099038
	H55	H	0.421269	0.405224	0.874778
	H56	H	0.128573	0.586028	0.397473
	H57	H	0.900082	0.585241	0.571979
	H58	H	0.127837	0.404961	0.580157
	H59	H	0.900731	0.408431	0.401620
	H60	H	0.126404	0.403246	0.575861
	H61	H	0.901581	0.579018	0.575080
	H62	H	0.125756	0.584110	0.403104
	H63	H	0.898737	0.406020	0.398546
	H64	H	0.424570	0.590467	0.103462
	H65	H	0.600579	0.580397	0.878454
	H66	H	0.595812	0.402562	0.099369
	H67	H	0.427726	0.405451	0.876302
	H68	H	0.598868	0.106220	0.394736
	H69	H	0.600153	0.883480	0.575549
	H70	H	0.430569	0.105785	0.581180
	H71	H	0.424928	0.879779	0.394546
	H72	H	0.927717	0.604575	0.076462
	H73	H	0.102892	0.378084	0.087026
	H74	H	0.109044	0.609902	0.891753
	H75	H	0.928335	0.382518	0.899833
	H76	H	0.108443	0.901608	0.603728
	H77	H	0.101474	0.088675	0.375426
	H78	H	0.928928	0.084464	0.599298
	H79	H	0.923901	0.902187	0.374046
	H80	H	0.624538	0.080091	0.908775
	H81	H	0.400039	0.087398	0.078523
	H82	H	0.629078	0.905416	0.075491
	H83	H	0.400977	0.902986	0.903557
	H84	H	0.630033	0.906093	0.079781
	H85	H	0.405031	0.081158	0.071241
	H86	H	0.626621	0.074710	0.899213
	H87	H	0.403254	0.909627	0.901383
	H88	H	0.924373	0.079195	0.600003
	H89	H	0.107283	0.082711	0.375489
	H90	H	0.103010	0.908560	0.600425
	H91	H	0.923575	0.907077	0.376278
	H92	H	0.092899	0.604431	0.893858
	H93	H	0.100744	0.381542	0.077360
	H94	H	0.926007	0.604267	0.076634
	H95	H	0.924468	0.380124	0.901047
	H96	H	0.428320	0.104253	0.574560
	H97	H	0.605365	0.881008	0.576940
	H98	H	0.597118	0.102443	0.405106
	H99	H	0.425703	0.880118	0.397549
	H100	H	0.605793	0.404608	0.101544
	H101	H	0.599902	0.583708	0.878257
	H102	H	0.418490	0.581752	0.101857
	H103	H	0.425409	0.400321	0.872867
	H104	H	0.126599	0.579950	0.397897
	H105	H	0.897894	0.583420	0.578893
	H106	H	0.125250	0.408259	0.577132
	H107	H	0.899654	0.403679	0.402254
	H108	H	0.927226	0.604348	0.078382
	H109	H	0.109667	0.377199	0.079213
	H110	H	0.104553	0.603697	0.906848
	H111	H	0.926259	0.380022	0.896153
	H112	H	0.099499	0.899908	0.601418
	H113	H	0.099677	0.081207	0.378442
	H114	H	0.930287	0.078793	0.596103
	H115	H	0.927552	0.903964	0.377382
	H116	H	0.629569	0.085027	0.900770
	H117	H	0.402516	0.077076	0.081335
	H118	H	0.630793	0.902417	0.078324
	H119	H	0.400155	0.905139	0.897106
	C120	C	0.393364	0.002423	0.610491
	C121	C	0.635671	0.985079	0.610573
	C122	C	0.635417	0.001805	0.367243
	C123	C	0.393652	0.984747	0.366377
	C124	C	0.635310	0.372202	-0.003184
	C125	C	0.635634	0.614969	0.981160
	C126	C	0.392053	0.616157	-0.002965
	C127	C	0.393074	0.372088	0.978730
	C128	C	0.022142	0.615677	0.366605
	C129	C	1.005181	0.614081	0.608186
	C130	C	0.021983	0.372052	0.609655
	C131	C	1.004638	0.374214	0.369090
	C132	C	0.893057	0.500711	0.110027
	C133	C	0.135869	0.484231	0.111227
	C134	C	0.134509	0.501693	0.866030
	C135	C	0.892073	0.484428	0.866065
	C136	C	0.135159	0.872513	0.497337
	C137	C	0.136187	0.116405	0.480078
	C138	C	0.893151	0.114887	0.495797
	C139	C	0.892661	0.872473	0.479751
	C140	C	0.523126	0.113715	0.868986
	C141	C	0.506438	0.115974	0.110892
	C142	C	0.524312	0.873609	0.109198
	C143	C	0.505514	0.872428	0.867610
	C144	C	0.389261	0.884388	0.671214
	C145	C	0.639978	0.102601	0.671740
	C146	C	0.639882	0.884300	0.305719
	C147	C	0.392515	0.104124	0.307917
	C148	C	0.696660	0.369018	0.879481
	C149	C	0.696728	0.616891	0.099613
	C150	C	0.332755	0.616827	0.877544
	C151	C	0.334553	0.371272	0.097759
	C152	C	0.902795	0.676222	0.363089
	C153	C	0.124921	0.673851	0.611249
	C154	C	0.902410	0.311100	0.611134
	C155	C	0.124512	0.315061	0.368100
	C156	C	0.901732	0.369276	0.668187
	C157	C	0.124850	0.615926	0.668698
	C158	C	0.902864	0.618649	0.305487
	C159	C	0.124794	0.372876	0.310833
	C160	C	0.390394	0.675621	0.878270
	C161	C	0.639193	0.675558	0.099457
	C162	C	0.640523	0.309396	0.880145
	C163	C	0.390808	0.311816	0.096971
	C164	C	0.696308	0.883621	0.364644
	C165	C	0.696576	0.103225	0.612555
	C166	C	0.332646	0.883808	0.612104
	C167	C	0.335386	0.104264	0.366790
	C168	C	0.887880	0.383445	0.172187
	C169	C	0.137602	0.602812	0.170053
	C170	C	0.136746	0.383166	0.806266
	C171	C	0.887441	0.602077	0.804652
	C172	C	0.193392	0.872608	0.378306
	C173	C	0.198715	0.119465	0.597722
	C174	C	0.829505	0.120067	0.379041
	C175	C	0.834404	0.871878	0.598702
	C176	C	0.404003	0.174442	0.865235
	C177	C	0.624618	0.178778	0.115759
	C178	C	0.403760	0.815053	0.110272
	C179	C	0.624391	0.810725	0.864020
	C180	C	0.404047	0.873070	0.167516
	C181	C	0.625122	0.120459	0.172874
	C182	C	0.404147	0.117291	0.807144
	C183	C	0.624308	0.868351	0.806332
	C184	C	0.888082	0.177488	0.378791
	C185	C	0.140892	0.177857	0.597561
	C186	C	0.136927	0.813056	0.379022
	C187	C	0.890296	0.812180	0.597956
	C188	C	0.194047	0.382685	0.864881
	C189	C	0.194220	0.603542	0.110523
	C190	C	0.831744	0.382505	0.112453
	C191	C	0.831113	0.602533	0.863989
	C192	C	0.419872	0.084494	0.585307
	C193	C	0.609445	0.902906	0.584999
	C194	C	0.609029	0.083814	0.393149
	C195	C	0.417725	0.901473	0.389680
	C196	C	0.608329	0.398736	0.078125
	C197	C	0.609000	0.589614	0.899486
	C198	C	0.416803	0.591977	0.079756
	C199	C	0.417626	0.396570	0.896243
	C200	C	0.105381	0.590782	0.392248
	C201	C	0.921652	0.589432	0.582748
	C202	C	0.104934	0.398042	0.584992
	C203	C	0.921301	0.399095	0.393671
	C204	C	0.919625	0.583027	0.084443
	C205	C	0.111527	0.400608	0.087793
	C206	C	0.109380	0.584377	0.890479
	C207	C	0.918638	0.402216	0.891717
	C208	C	0.110761	0.896505	0.580305
	C209	C	0.110025	0.091235	0.397901
	C210	C	0.920260	0.088599	0.577130
	C211	C	0.917827	0.897416	0.397377
	C212	C	0.605429	0.087469	0.895420
	C213	C	0.424136	0.089399	0.084494
	C214	C	0.608189	0.897754	0.084826
	C215	C	0.423083	0.898293	0.893320
	Zn216	Zn	0.514731	-0.006152	0.739635
	Zn217	Zn	0.515344	-0.006023	0.238045
	Zn218	Zn	0.764701	0.493209	-0.010965
	Zn219	Zn	0.263430	0.493328	-0.012479
	Zn220	Zn	0.013353	0.743501	0.488222
	Zn221	Zn	0.013415	0.244753	0.488336
	Zn222	Zn	0.012884	0.493716	0.736828
	Zn223	Zn	0.013216	0.493088	0.239467
	Zn224	Zn	0.514644	0.744837	-0.010814
	Zn225	Zn	0.514893	0.243047	-0.011468
	Zn226	Zn	0.763748	-0.006402	0.488379
	Zn227	Zn	0.264656	-0.006159	0.488565
	N228	N	0.426065	0.959124	0.670508
	N229	N	0.602984	0.027831	0.670857
	N230	N	0.603225	0.959024	0.306977
	N231	N	0.427784	0.028771	0.307474
	N232	N	0.693544	0.407218	0.953081
	N233	N	0.694832	0.580265	0.025263
	N234	N	0.333730	0.580487	0.952374
	N235	N	0.335415	0.407930	0.023219
	N236	N	0.977948	0.674556	0.400436
	N237	N	0.049519	0.672767	0.574256
	N238	N	0.978163	0.312638	0.575834
	N239	N	0.048776	0.315892	0.403447
	N240	N	0.977017	0.406466	0.667546
	N241	N	0.049397	0.579228	0.666668
	N242	N	0.978220	0.581860	0.307243
	N243	N	0.048927	0.408616	0.311079
	N244	N	0.426291	0.675435	0.953447
	N245	N	0.601851	0.674593	0.024630
	N246	N	0.603118	0.311311	0.954230
	N247	N	0.426078	0.311926	0.021830
	N248	N	0.693590	0.957817	0.402233
	N249	N	0.693848	0.029203	0.575161
	N250	N	0.334902	0.958280	0.575089
	N251	N	0.335815	0.029098	0.402475
	N252	N	0.924958	0.458128	0.170921
	N253	N	0.102274	0.527257	0.170799
	N254	N	0.100739	0.458344	0.806548
	N255	N	0.924461	0.527535	0.805721
	N256	N	0.192444	0.908709	0.452936
	N257	N	0.195703	0.081701	0.523757
	N258	N	0.832502	0.081648	0.452693
	N259	N	0.835724	0.908428	0.524173
	N260	N	0.478956	0.172284	0.902979
	N261	N	0.549927	0.175952	0.077821
	N262	N	0.479524	0.815291	0.074701
	N263	N	0.549611	0.813034	0.901385
	N264	N	0.480059	0.908654	0.166883
	N265	N	0.550767	0.081831	0.169662
	N266	N	0.479220	0.080096	0.809445
	N267	N	0.549470	0.905923	0.808423
	N268	N	0.927059	0.174223	0.452399
	N269	N	0.102676	0.176125	0.523397
	N270	N	0.101731	0.812797	0.454254
	N271	N	0.925601	0.812243	0.522777
	N272	N	0.192833	0.457397	0.901365
	N273	N	0.193171	0.528555	0.074851
	N274	N	0.834933	0.456579	0.074531
	N275	N	0.833594	0.528090	0.901024
	O276	O	0.569442	0.366856	0.592323
	H277	H	0.559168	0.355344	0.584129
	H278	H	0.550709	0.355247	0.592467
	O279	O	0.979210	1.057905	1.140147
	H280	H	0.961171	1.055804	1.146017
	H281	H	0.973548	1.050144	1.133099
	O282	O	0.829832	0.808172	0.172635
	H283	H	0.878311	0.802069	0.183891
	H284	H	0.819106	0.855593	0.186827
	O285	O	0.207567	-0.163254	0.821264
	H286	H	0.206848	-0.128979	0.814250
	H287	H	0.191861	-0.177629	0.803193
	O288	O	-0.004495	-0.213656	0.197045
	H289	H	0.014961	-0.193725	0.195423
	H290	H	0.003027	-0.236794	0.202141
	O291	O	0.979355	0.788717	-0.129069
	H292	H	0.978057	0.795819	-0.115802
	H293	H	0.956089	0.796505	-0.120684
	O294	O	0.383520	0.614342	-0.289310
	H295	H	0.408186	0.610268	-0.307037
	H296	H	0.390862	0.637050	-0.287715
	O297	O	0.318288	0.565830	0.478634
	H298	H	0.301713	0.585334	0.481227
	H299	H	0.324199	0.564543	0.484573
	O300	O	0.730167	0.706744	0.512194
	H301	H	0.761764	0.729379	0.511028
	H302	H	0.728641	0.696744	0.551731
	O303	O	0.799376	0.068388	0.067423
	H304	H	0.808650	0.056890	0.047222
	H305	H	0.795819	0.086942	0.042963
	O306	O	0.195260	1.012517	1.194576
	H307	H	0.196196	1.007427	1.193670
	H308	H	0.206789	1.015601	1.190062
	O309	O	0.486311	0.703213	0.282489
	H310	H	0.482433	0.712314	0.279579
	H311	H	0.498097	0.705927	0.292222
	O312	O	0.711678	0.331306	0.481959
	H313	H	0.695255	0.322770	0.491077
	H314	H	0.713649	0.324923	0.486144
	O315	O	0.310412	-0.398717	1.436891
	H316	H	0.306550	-0.393192	1.429041
	H317	H	0.308588	-0.390197	1.412961
	O318	O	-0.714545	0.251995	-0.274975
	H319	H	-0.720879	0.245804	-0.276766
	H320	H	-0.720460	0.267762	-0.283624
	O321	O	0.822668	0.183077	0.796129
	H322	H	0.842151	0.169908	0.785092
	H323	H	0.819348	0.177460	0.829268
	O324	O	0.554739	0.495578	0.278715
	H325	H	0.579254	0.506462	0.278137
	H326	H	0.554386	0.516896	0.280612
	O327	O	0.799035	0.201174	0.962436
	H328	H	0.780282	0.216369	0.949041
	H329	H	0.811270	0.213390	0.972939
	O330	O	-0.042545	0.200794	0.031249
	H331	H	-0.038813	0.204696	0.020718
	H332	H	-0.039937	0.183988	0.031790
	O333	O	0.808786	1.017126	0.789533
	H334	H	0.801145	1.013745	0.801373
	H335	H	0.809362	1.014340	0.777559
	O336	O	1.227756	-0.222976	0.963859
	H337	H	1.236241	-0.225941	0.929028
	H338	H	1.246907	-0.233051	0.945434
	O339	O	0.301196	0.461921	0.699469
	H340	H	0.306389	0.478682	0.714162
	H341	H	0.295653	0.472386	0.704808
	O342	O	0.711048	0.550531	0.436896
	H343	H	0.716544	0.551595	0.444836
	H344	H	0.701191	0.560504	0.450424
	O345	O	0.201658	0.050378	-0.048244
	H346	H	0.202868	0.058174	-0.063951
	H347	H	0.208558	0.066433	-0.033740
	O348	O	0.708854	0.351244	0.309680
	H349	H	0.701861	0.355894	0.308021
	H350	H	0.722772	0.350920	0.332927
	O351	O	1.163096	0.951777	0.043190
	H352	H	1.153971	0.959124	0.043251
	H353	H	1.166760	0.943812	0.022396
	O354	O	0.656128	0.467574	0.546933
	H355	H	0.653483	0.456965	0.542051
	H356	H	0.658791	0.469302	0.544532
	O357	O	1.015752	0.976784	0.946525
	H358	H	1.020505	0.984666	0.947736
	H359	H	1.019164	0.961223	0.948893
	O360	O	0.074084	0.777835	1.037896
	H361	H	0.082631	0.774862	1.031164
	H362	H	0.088425	0.775906	1.018946
	O363	O	0.670857	0.496083	0.298324
	H364	H	0.695746	0.482658	0.297902
	H365	H	0.678264	0.497674	0.303566
	O366	O	1.000880	-0.228173	0.842834
	H367	H	0.992774	-0.238314	0.831623
	H368	H	0.996386	-0.233021	0.854443
	O369	O	0.468801	0.416817	0.359590
	H370	H	0.499141	0.430821	0.353681
	H371	H	0.446658	0.444473	0.357526
	O372	O	0.223428	-0.033718	0.776133
	H373	H	0.214574	-0.018562	0.779112
	H374	H	0.249745	-0.025753	0.767056
	O375	O	-0.153769	0.890202	0.866666
	H376	H	-0.148084	0.894750	0.867236
	H377	H	-0.135265	0.881070	0.882581
	O378	O	1.229427	1.208329	0.016002
	H379	H	1.263138	1.240461	0.025798
	H380	H	1.222171	1.195105	0.059104
	O381	O	1.538981	-0.297906	0.696852
	H382	H	1.537909	-0.276007	0.690673
	H383	H	1.553666	-0.293951	0.701072
	O384	O	0.050184	0.182010	0.915284
	H385	H	0.050454	0.175868	0.914795
	H386	H	0.072314	0.194500	0.918410
	O387	O	-0.516055	1.499987	1.511082
	H388	H	-0.499102	1.490259	1.518853
	H389	H	-0.512126	1.501867	1.491786
	O390	O	0.333453	0.360148	1.509376
	H391	H	0.330863	0.361364	1.507478
	H392	H	0.344492	0.362361	1.504151
	O393	O	-0.016129	1.209993	-0.233714
	H394	H	-0.025492	1.204918	-0.227748
	H395	H	-0.008201	1.233489	-0.251499
	O396	O	0.725805	0.526346	0.701854
	H397	H	0.729485	0.510185	0.708040
	H398	H	0.724202	0.507342	0.721105
	O399	O	0.306656	0.563128	0.545915
	H400	H	0.320787	0.571502	0.549458
	H401	H	0.300176	0.564204	0.528707
	O402	O	0.218912	0.201124	1.193661
	H403	H	0.195508	0.176684	1.202335
	H404	H	0.250824	0.231456	1.228531
	O405	O	0.604576	0.680058	-0.606195
	H406	H	0.614502	0.680874	-0.600379
	H407	H	0.605028	0.679495	-0.585620
	O408	O	0.802987	0.970804	1.202537
	H409	H	0.786146	0.982416	1.218269
	H410	H	0.785665	0.991959	1.180619
	O411	O	0.433222	0.379161	0.542253
	H412	H	0.423435	0.365477	0.534199
	H413	H	0.416532	0.398869	0.549566
	O414	O	0.324393	0.302300	0.302221
	H415	H	0.350377	0.315678	0.319569
	H416	H	0.337810	0.327240	0.319493
	O417	O	0.608689	0.475891	0.627368
	H418	H	0.611992	0.471522	0.624545
	H419	H	0.616693	0.473613	0.623739
	O420	O	0.488943	0.319949	0.656805
	H421	H	0.475182	0.308947	0.666291
	H422	H	0.466138	0.312720	0.663688
	O423	O	-0.193299	0.897994	-0.108275
	H424	H	-0.178367	0.900437	-0.114373
	H425	H	-0.202540	0.875754	-0.101032
	O426	O	1.002152	0.956117	0.787546
	H427	H	1.009899	0.962634	0.786672
	H428	H	1.006336	0.964244	0.797092
	O429	O	0.457580	0.289117	0.510035
	H430	H	0.453707	0.292402	0.505903
	H431	H	0.449207	0.294095	0.500507
	O432	O	0.066170	0.179667	1.182000
	H433	H	0.075547	0.195300	1.197979
	H434	H	0.068461	0.171145	1.182859
	O435	O	-0.030882	0.035674	0.147417
	H436	H	-0.041957	0.032743	0.149787
	H437	H	-0.021920	0.060891	0.140666
	O438	O	0.797542	-0.223406	0.014588
	H439	H	0.793186	-0.227712	0.055706
	H440	H	0.783337	-0.244378	0.028018
	O441	O	0.313083	0.696826	0.283189
	H442	H	0.290005	0.719613	0.271677
	H443	H	0.338306	0.707691	0.275199
	O444	O	0.107346	0.972658	1.198656
	H445	H	0.086879	0.996328	1.187257
	H446	H	0.127121	0.986159	1.213819
	O447	O	0.563324	0.393412	0.599986
	H448	H	0.550388	0.388267	0.601622
	H449	H	0.552850	0.381085	0.595596
	O450	O	0.471795	0.700673	0.505856
	H451	H	0.467046	0.705399	0.498068
	H452	H	0.473315	0.700005	0.500446
	O453	O	0.194072	0.809788	0.173941
	H454	H	0.173340	0.824140	0.151064
	H455	H	0.180486	0.833785	0.161459
	O456	O	0.095851	1.093568	-0.218463
	H457	H	0.086804	1.082133	-0.198477
	H458	H	0.095618	1.104741	-0.229214
	O459	O	0.312724	0.525269	0.271775
	H460	H	0.308662	0.557224	0.277157
	H461	H	0.284859	0.539863	0.250834
	O462	O	0.709483	0.691227	0.682682
	H463	H	0.718262	0.644747	0.684264
	H464	H	0.702526	0.702308	0.704598
	O465	O	0.569413	0.291175	0.327828
	H466	H	0.573395	0.303590	0.316568
	H467	H	0.564100	0.282179	0.316581
