data_Molecule from HDF5

_cell_length_a		16.322011
_cell_length_b		16.518159
_cell_length_c		16.462723
_cell_angle_alpha	90.116341
_cell_angle_beta	89.991971
_cell_angle_gamma	90.033479
_symmetry_space_group_name_H-M	'P 1'
_symmetry_Int_Tables_number		1

loop_
	_symmetry_equiv_pos_as_xyz
	x,y,z

loop_
	_atom_site_label
	_atom_site_type_symbol
	_atom_site_fract_x
	_atom_site_fract_y
	_atom_site_fract_z
	H0	H	0.384198	0.847203	0.715539
	H1	H	0.603730	0.157955	0.712848
	H2	H	0.607704	0.846954	0.259880
	H3	H	0.386729	0.157839	0.264508
	H4	H	0.716457	0.397998	0.831934
	H5	H	0.719270	0.611150	0.147146
	H6	H	0.269121	0.611967	0.834665
	H7	H	0.271960	0.396473	0.147661
	H8	H	0.838912	0.727129	0.378901
	H9	H	0.153075	0.726762	0.599964
	H10	H	0.838126	0.279304	0.595289
	H11	H	0.154292	0.278582	0.381041
	H12	H	0.836743	0.396257	0.710215
	H13	H	0.154024	0.607976	0.711062
	H14	H	0.838418	0.610919	0.264796
	H15	H	0.153025	0.392450	0.264858
	H16	H	0.385699	0.727094	0.833660
	H17	H	0.606929	0.730105	0.145649
	H18	H	0.602949	0.279319	0.833630
	H19	H	0.383793	0.277275	0.145767
	H20	H	0.722394	0.845601	0.377179
	H21	H	0.719716	0.157333	0.594844
	H22	H	0.270443	0.846670	0.597328
	H23	H	0.272262	0.158494	0.381492
	H24	H	0.887003	0.344823	0.212759
	H25	H	0.106398	0.656542	0.218978
	H26	H	0.100158	0.344620	0.769687
	H27	H	0.887603	0.659980	0.765514
	H28	H	0.215495	0.897380	0.329611
	H29	H	0.216413	0.106646	0.646883
	H30	H	0.774315	0.106546	0.330686
	H31	H	0.772749	0.896331	0.646465
	H32	H	0.336813	0.223302	0.884213
	H33	H	0.653830	0.226048	0.096983
	H34	H	0.339446	0.776287	0.100366
	H35	H	0.654788	0.781164	0.881057
	H36	H	0.338220	0.893064	0.213265
	H37	H	0.654421	0.109972	0.211040
	H38	H	0.337369	0.108007	0.767594
	H39	H	0.654064	0.897268	0.766518
	H40	H	0.886351	0.226283	0.332525
	H41	H	0.103612	0.223530	0.645666
	H42	H	0.103668	0.776622	0.332110
	H43	H	0.884704	0.777362	0.645597
	H44	H	0.216294	0.345521	0.886265
	H45	H	0.219722	0.658984	0.099966
	H46	H	0.773593	0.344557	0.093820
	H47	H	0.776018	0.662314	0.886241
	H48	H	0.402222	0.114994	0.573847
	H49	H	0.570203	0.891845	0.583903
	H50	H	0.585425	0.111720	0.404660
	H51	H	0.407009	0.888172	0.394450
	H52	H	0.578258	0.408730	0.102930
	H53	H	0.577436	0.596161	0.878249
	H54	H	0.404897	0.585580	0.101548
	H55	H	0.406859	0.412777	0.877655
	H56	H	0.103085	0.582265	0.411653
	H57	H	0.884181	0.590349	0.572049
	H58	H	0.109979	0.413172	0.577524
	H59	H	0.881040	0.411273	0.400718
	H60	H	0.111312	0.412670	0.582314
	H61	H	0.883021	0.584787	0.578351
	H62	H	0.109714	0.584261	0.396437
	H63	H	0.883714	0.411575	0.406193
	H64	H	0.415918	0.588117	0.098333
	H65	H	0.589712	0.596189	0.873842
	H66	H	0.590136	0.412882	0.105403
	H67	H	0.406472	0.414270	0.877703
	H68	H	0.586682	0.114927	0.397727
	H69	H	0.581905	0.893943	0.563916
	H70	H	0.406528	0.116838	0.584050
	H71	H	0.415223	0.892659	0.402864
	H72	H	0.911424	0.612506	0.077383
	H73	H	0.084452	0.390326	0.078336
	H74	H	0.079816	0.614005	0.899941
	H75	H	0.912248	0.394679	0.906874
	H76	H	0.090574	0.911832	0.604156
	H77	H	0.087901	0.091056	0.373186
	H78	H	0.907936	0.094858	0.602618
	H79	H	0.907025	0.911397	0.375725
	H80	H	0.611101	0.095751	0.902019
	H81	H	0.382366	0.087350	0.081089
	H82	H	0.605940	0.918218	0.070320
	H83	H	0.380626	0.911760	0.902329
	H84	H	0.607632	0.920225	0.077918
	H85	H	0.380849	0.095526	0.075556
	H86	H	0.607709	0.089004	0.904439
	H87	H	0.383809	0.915750	0.905073
	H88	H	0.905090	0.086730	0.600974
	H89	H	0.082044	0.085254	0.377810
	H90	H	0.080519	0.922019	0.596821
	H91	H	0.909439	0.916936	0.378456
	H92	H	0.081934	0.614185	0.903868
	H93	H	0.080402	0.390911	0.078673
	H94	H	0.905021	0.614240	0.077118
	H95	H	0.895242	0.387190	0.900685
	H96	H	0.412675	0.111403	0.576194
	H97	H	0.592515	0.884694	0.582069
	H98	H	0.579636	0.111748	0.399356
	H99	H	0.403595	0.890458	0.406112
	H100	H	0.581576	0.420672	0.100518
	H101	H	0.584505	0.585329	0.879172
	H102	H	0.409268	0.596244	0.103594
	H103	H	0.408098	0.413175	0.878254
	H104	H	0.109962	0.596298	0.407008
	H105	H	0.880406	0.592742	0.579294
	H106	H	0.112026	0.408776	0.579322
	H107	H	0.883877	0.416270	0.402539
	H108	H	0.909031	0.615115	0.082481
	H109	H	0.082115	0.392410	0.074869
	H110	H	0.083401	0.615912	0.900643
	H111	H	0.910037	0.388237	0.888983
	H112	H	0.075542	0.907319	0.601273
	H113	H	0.079327	0.093875	0.375656
	H114	H	0.913398	0.089059	0.598921
	H115	H	0.913602	0.911778	0.377586
	H116	H	0.610506	0.089449	0.897367
	H117	H	0.384620	0.088018	0.071663
	H118	H	0.609326	0.913018	0.075028
	H119	H	0.382190	0.916870	0.900039
	C120	C	0.372991	0.011418	0.611695
	C121	C	0.615952	0.993284	0.609782
	C122	C	0.618060	0.009660	0.366001
	C123	C	0.374581	0.993659	0.367285
	C124	C	0.616418	0.381397	-0.001077
	C125	C	0.617864	0.625855	0.981053
	C126	C	0.374499	0.624127	-0.001666
	C127	C	0.373552	0.380932	0.981800
	C128	C	0.003613	0.621757	0.369701
	C129	C	0.986835	0.622945	0.610664
	C130	C	0.005262	0.380066	0.610974
	C131	C	0.987241	0.379632	0.368866
	C132	C	0.874379	0.510396	0.111500
	C133	C	0.116887	0.493997	0.112428
	C134	C	0.115518	0.511008	0.869160
	C135	C	0.873409	0.494643	0.867093
	C136	C	0.116480	0.879903	0.497131
	C137	C	0.116939	0.122851	0.479640
	C138	C	0.875074	0.122903	0.497058
	C139	C	0.874317	0.879479	0.480528
	C140	C	0.504736	0.123801	0.868629
	C141	C	0.486785	0.124252	0.110374
	C142	C	0.503994	0.882080	0.109733
	C143	C	0.486739	0.881481	0.867939
	C144	C	0.367832	0.893984	0.674041
	C145	C	0.621174	0.110932	0.671795
	C146	C	0.623804	0.893359	0.301810
	C147	C	0.369927	0.111071	0.305595
	C148	C	0.676860	0.379311	0.879902
	C149	C	0.679393	0.629262	0.099457
	C150	C	0.310630	0.629148	0.881463
	C151	C	0.311840	0.378055	0.100157
	C152	C	0.885989	0.685472	0.363100
	C153	C	0.105482	0.685403	0.615973
	C154	C	0.885409	0.319769	0.613126
	C155	C	0.106485	0.318557	0.363821
	C156	C	0.885073	0.377775	0.670458
	C157	C	0.106301	0.626305	0.671632
	C158	C	0.885545	0.627221	0.306194
	C159	C	0.105719	0.375535	0.305986
	C160	C	0.368837	0.686681	0.881144
	C161	C	0.623015	0.688435	0.098858
	C162	C	0.620182	0.320198	0.880641
	C163	C	0.367955	0.318733	0.099236
	C164	C	0.681267	0.892732	0.360279
	C165	C	0.678749	0.110755	0.613145
	C166	C	0.311119	0.893588	0.614901
	C167	C	0.312719	0.111306	0.363991
	C168	C	0.869728	0.392226	0.172394
	C169	C	0.122874	0.610309	0.176953
	C170	C	0.118598	0.392317	0.809250
	C171	C	0.870485	0.612927	0.806405
	C172	C	0.176845	0.877658	0.377967
	C173	C	0.177227	0.125239	0.598712
	C174	C	0.814158	0.125038	0.378273
	C175	C	0.812116	0.877069	0.598663
	C176	C	0.384576	0.183577	0.866058
	C177	C	0.605937	0.186047	0.114802
	C178	C	0.386600	0.817924	0.116115
	C179	C	0.606470	0.820958	0.863796
	C180	C	0.385892	0.876273	0.172669
	C181	C	0.606486	0.127713	0.171298
	C182	C	0.384884	0.126196	0.808085
	C183	C	0.606262	0.878945	0.806609
	C184	C	0.870290	0.184642	0.379092
	C185	C	0.120858	0.183614	0.598354
	C186	C	0.120934	0.817701	0.379171
	C187	C	0.868489	0.817971	0.598226
	C188	C	0.176074	0.392541	0.867472
	C189	C	0.179231	0.611700	0.117347
	C190	C	0.813179	0.392007	0.113173
	C191	C	0.814623	0.614071	0.866572
	C192	C	0.399502	0.092962	0.585662
	C193	C	0.589060	0.911389	0.583979
	C194	C	0.591424	0.091460	0.393084
	C195	C	0.401068	0.911700	0.393518
	C196	C	0.590734	0.406764	0.081376
	C197	C	0.591395	0.599996	0.898787
	C198	C	0.402129	0.597513	0.079902
	C199	C	0.399620	0.406235	0.899592
	C200	C	0.086072	0.594991	0.397172
	C201	C	0.904176	0.596913	0.584080
	C202	C	0.089115	0.404586	0.586587
	C203	C	0.904465	0.405699	0.395650
	C204	C	0.900913	0.592428	0.086304
	C205	C	0.090044	0.412579	0.085122
	C206	C	0.089264	0.593290	0.894300
	C207	C	0.898359	0.411794	0.891806
	C208	C	0.089849	0.906007	0.579262
	C209	C	0.090707	0.097348	0.397134
	C210	C	0.901270	0.097433	0.579442
	C211	C	0.902002	0.905686	0.398554
	C212	C	0.588066	0.098678	0.893971
	C213	C	0.404275	0.097777	0.084003
	C214	C	0.586222	0.909323	0.082318
	C215	C	0.403900	0.907398	0.894689
	Zn216	Zn	0.495381	0.002741	0.740159
	Zn217	Zn	0.495380	0.002695	0.238003
	Zn218	Zn	0.745197	0.503045	-0.010036
	Zn219	Zn	0.245457	0.502805	-0.009567
	Zn220	Zn	-0.004499	0.750986	0.489556
	Zn221	Zn	-0.003441	0.251435	0.489145
	Zn222	Zn	-0.004248	0.502266	0.738727
	Zn223	Zn	-0.004878	0.501144	0.241249
	Zn224	Zn	0.495985	0.753506	-0.010645
	Zn225	Zn	0.494593	0.252115	-0.010162
	Zn226	Zn	0.746092	0.001004	0.488247
	Zn227	Zn	0.245250	0.001922	0.488547
	N228	N	0.405808	0.968176	0.672224
	N229	N	0.582672	0.037051	0.669562
	N230	N	0.585143	0.967292	0.305258
	N231	N	0.407708	0.036898	0.307590
	N232	N	0.674581	0.416855	0.954361
	N233	N	0.676308	0.590993	0.025233
	N234	N	0.313954	0.591107	0.955476
	N235	N	0.315278	0.416192	0.026239
	N236	N	0.960406	0.681926	0.402043
	N237	N	0.030081	0.683617	0.578845
	N238	N	0.961400	0.320632	0.576980
	N239	N	0.031778	0.321114	0.402259
	N240	N	0.960513	0.414389	0.669328
	N241	N	0.031525	0.588145	0.668455
	N242	N	0.959773	0.588139	0.310362
	N243	N	0.030542	0.413014	0.309062
	N244	N	0.407996	0.683606	0.954918
	N245	N	0.585592	0.686519	0.024154
	N246	N	0.583394	0.321216	0.955715
	N247	N	0.405811	0.320402	0.024673
	N248	N	0.677551	0.966042	0.399616
	N249	N	0.675665	0.036634	0.575297
	N250	N	0.314158	0.967455	0.576731
	N251	N	0.315383	0.037135	0.401592
	N252	N	0.906701	0.466950	0.171660
	N253	N	0.084779	0.536195	0.173879
	N254	N	0.081819	0.467131	0.810064
	N255	N	0.905922	0.537466	0.806267
	N256	N	0.174652	0.915261	0.452571
	N257	N	0.175073	0.088326	0.523858
	N258	N	0.816785	0.087568	0.452618
	N259	N	0.815548	0.914516	0.524099
	N260	N	0.460217	0.182267	0.902827
	N261	N	0.530497	0.184290	0.077778
	N262	N	0.461065	0.821586	0.077568
	N263	N	0.531105	0.822218	0.901284
	N264	N	0.459988	0.915560	0.168800
	N265	N	0.531323	0.090246	0.168945
	N266	N	0.460483	0.089871	0.809472
	N267	N	0.530698	0.915487	0.808833
	N268	N	0.907338	0.183577	0.454147
	N269	N	0.084350	0.182524	0.523185
	N270	N	0.084490	0.818895	0.454417
	N271	N	0.906205	0.819367	0.523691
	N272	N	0.174545	0.467414	0.903815
	N273	N	0.175446	0.538444	0.077636
	N274	N	0.815603	0.466609	0.076252
	N275	N	0.815881	0.539301	0.903192
	O276	O	0.541289	0.449215	0.692414
	H277	H	0.546857	0.457760	0.694322
	H278	H	0.556694	0.465345	0.686113
	O279	O	0.797064	0.118978	0.995583
	H280	H	0.800389	0.111864	1.016446
	H281	H	0.787293	0.133566	1.009550
	O282	O	0.519036	0.281018	0.272608
	H283	H	0.522277	0.248302	0.232455
	H284	H	0.515559	0.318615	0.269206
	O285	O	0.552142	0.548891	0.268772
	H286	H	0.561712	0.553271	0.276655
	H287	H	0.541644	0.567907	0.276826
	O288	O	0.553867	0.519851	0.338328
	H289	H	0.562604	0.531587	0.341112
	H290	H	0.548407	0.521416	0.347335
	O291	O	0.717019	0.528040	0.710693
	H292	H	0.756743	0.534517	0.747433
	H293	H	0.701948	0.579366	0.696622
	O294	O	0.157930	-0.172150	0.828439
	H295	H	0.165227	-0.150732	0.846058
	H296	H	0.136673	-0.149646	0.818858
	O297	O	0.447822	0.605130	0.476229
	H298	H	0.440274	0.600379	0.465278
	H299	H	0.438258	0.610233	0.477721
	O300	O	0.552353	0.735795	0.433330
	H301	H	0.524918	0.734176	0.462255
	H302	H	0.568607	0.730264	0.440259
	O303	O	0.353830	0.412576	0.334680
	H304	H	0.357333	0.425945	0.357092
	H305	H	0.365278	0.401120	0.343420
	O306	O	0.677628	0.322338	0.311706
	H307	H	0.687503	0.339456	0.334273
	H308	H	0.646411	0.327573	0.298701
	O309	O	0.296369	0.445591	0.566309
	H310	H	0.292547	0.462123	0.573369
	H311	H	0.289993	0.457181	0.556269
	O312	O	0.009637	0.791511	0.775733
	H313	H	0.033546	0.779445	0.765825
	H314	H	0.006798	0.803850	0.756485
	O315	O	0.465320	0.402935	0.558731
	H316	H	0.461213	0.409544	0.574464
	H317	H	0.453952	0.395622	0.562769
	O318	O	0.959978	-0.200240	-0.047845
	H319	H	0.980038	-0.199578	-0.065292
	H320	H	0.953305	-0.194902	-0.052298
	O321	O	-0.113616	0.040012	0.043628
	H322	H	-0.106929	0.034370	0.061914
	H323	H	-0.092547	0.033036	0.036145
	O324	O	0.710496	0.720470	0.510181
	H325	H	0.698262	0.696565	0.485554
	H326	H	0.748585	0.755875	0.511548
	O327	O	0.640217	0.458682	0.573405
	H328	H	0.639454	0.470092	0.595825
	H329	H	0.649296	0.474134	0.569307
	O330	O	-0.179385	0.824746	0.171653
	H331	H	-0.190178	0.858821	0.162640
	H332	H	-0.175061	0.815141	0.135743
	O333	O	0.715608	0.479735	0.273128
	H334	H	0.718423	0.473849	0.253540
	H335	H	0.721405	0.492415	0.261004
	O336	O	0.195199	0.037291	0.152169
	H337	H	0.204953	0.021300	0.151103
	H338	H	0.190913	0.015542	0.154599
	O339	O	-0.068913	1.119585	0.981971
	H340	H	-0.074988	1.103461	0.973526
	H341	H	-0.082973	1.122896	0.978085
	O342	O	-0.036849	1.082328	1.191163
	H343	H	-0.008291	1.105694	1.196491
	H344	H	-0.028646	1.080801	1.189910
	O345	O	1.048026	1.206370	0.192518
	H346	H	1.053496	1.205518	0.208504
	H347	H	1.070543	1.214970	0.178888
	O348	O	0.286098	0.717143	0.423916
	H349	H	0.271397	0.745840	0.415115
	H350	H	0.295605	0.690945	0.384140
	O351	O	-0.023877	1.182434	0.888581
	H352	H	-0.033735	1.195414	0.862304
	H353	H	-0.061849	1.176202	0.894871
	O354	O	0.210822	0.790489	-0.032235
	H355	H	0.224573	0.767477	-0.038411
	H356	H	0.202003	0.781416	-0.047027
	O357	O	0.088127	-0.185924	1.056882
	H358	H	0.082590	-0.182024	1.041744
	H359	H	0.082752	-0.201015	1.079667
	O360	O	0.493816	0.294691	0.492465
	H361	H	0.502771	0.293411	0.516260
	H362	H	0.509880	0.295730	0.471351
	O363	O	-0.167349	0.198907	0.787901
	H364	H	-0.180219	0.206032	0.796835
	H365	H	-0.193499	0.193305	0.773861
	O366	O	0.291929	0.524007	0.283825
	H367	H	0.277350	0.517315	0.265453
	H368	H	0.285252	0.499966	0.310469
	O369	O	0.469070	0.712089	0.349825
	H370	H	0.470339	0.725508	0.379153
	H371	H	0.463253	0.733228	0.338323
	O372	O	0.796655	-0.065040	1.085900
	H373	H	0.797457	-0.069899	1.097659
	H374	H	0.812294	-0.051219	1.092915
	O375	O	0.612893	0.358905	0.592192
	H376	H	0.599682	0.358989	0.590435
	H377	H	0.611199	0.367219	0.581074
	O378	O	1.167513	1.187038	1.119239
	H379	H	1.181987	1.192246	1.099935
	H380	H	1.150183	1.166860	1.124218
	O381	O	0.432450	0.567639	0.676297
	H382	H	0.417012	0.546053	0.683858
	H383	H	0.433796	0.562000	0.677090
	O384	O	0.699256	0.295960	0.472691
	H385	H	0.705310	0.308416	0.481412
	H386	H	0.712320	0.288988	0.460982
	O387	O	0.027398	-0.152249	1.198033
	H388	H	0.006849	-0.151895	1.200352
	H389	H	0.012302	-0.157491	1.211677
	O390	O	0.103194	0.023145	-0.201147
	H391	H	0.102016	0.046119	-0.190612
	H392	H	0.107012	0.033862	-0.211405
	O393	O	1.163151	1.022993	1.008112
	H394	H	1.163843	0.997975	1.000438
	H395	H	1.157775	1.033199	1.006672
	O396	O	1.083842	0.173606	-0.019800
	H397	H	1.086192	0.180766	-0.005368
	H398	H	1.070120	0.174891	-0.015742
	O399	O	0.990320	0.125619	0.854829
	H400	H	0.975726	0.123993	0.867975
	H401	H	0.988512	0.143638	0.850893
	O402	O	1.115555	1.048580	0.872393
	H403	H	1.113651	1.067344	0.877790
	H404	H	1.127515	1.053782	0.873226
	O405	O	1.097716	0.987356	0.107243
	H406	H	1.096061	0.985540	0.100005
	H407	H	1.088774	0.962261	0.114133
	O408	O	0.927794	0.080243	0.077023
	H409	H	0.923673	0.059932	0.084181
	H410	H	0.923546	0.084758	0.098474
	O411	O	1.286942	1.485638	0.705546
	H412	H	1.287182	1.456639	0.702078
	H413	H	1.266252	1.485292	0.708394
	O414	O	0.392995	0.688838	0.566849
	H415	H	0.380415	0.693900	0.569250
	H416	H	0.378631	0.672881	0.571163
	O417	O	0.537097	0.330389	0.503286
	H418	H	0.558469	0.327478	0.512927
	H419	H	0.552106	0.336260	0.488301
	O420	O	0.716483	0.538793	0.458417
	H421	H	0.708043	0.523572	0.445527
	H422	H	0.724203	0.540577	0.466025
	O423	O	0.678756	0.682105	0.671215
	H424	H	0.686426	0.695441	0.620227
	H425	H	0.626559	0.696058	0.680476
	O426	O	0.318285	0.292502	0.501665
	H427	H	0.349355	0.283712	0.490364
	H428	H	0.293182	0.271117	0.508235
	O429	O	0.476403	0.375579	0.631568
	H430	H	0.481622	0.375472	0.628997
	H431	H	0.479834	0.357915	0.626991
	O432	O	0.285063	0.471192	0.495283
	H433	H	0.277304	0.491941	0.491094
	H434	H	0.290596	0.461918	0.497219
	O435	O	0.220514	0.249308	0.754822
	H436	H	0.259125	0.244810	0.761575
	H437	H	0.209710	0.233858	0.738445
	O438	O	-0.031323	-0.031371	-0.206019
	H439	H	-0.041759	-0.017918	-0.203031
	H440	H	-0.010131	-0.016224	-0.199493
	O441	O	0.922708	-0.059576	-0.094674
	H442	H	0.932295	-0.060184	-0.118514
	H443	H	0.935809	-0.066797	-0.095076
	O444	O	-0.160871	0.806818	1.051786
	H445	H	-0.169712	0.793710	1.050219
	H446	H	-0.153307	0.822481	1.031069
	O447	O	0.802368	0.050149	0.793431
	H448	H	0.795475	0.043784	0.786072
	H449	H	0.793718	0.047041	0.811978
	O450	O	0.517947	0.720963	0.705160
	H451	H	0.506865	0.736287	0.720859
	H452	H	0.498735	0.725923	0.703321
	O453	O	0.366571	0.685458	0.307764
	H454	H	0.406260	0.679985	0.304403
	H455	H	0.360162	0.649661	0.286887
