data_Molecule from HDF5

_cell_length_a		16.425998
_cell_length_b		16.159864
_cell_length_c		16.091187
_cell_angle_alpha	89.804463
_cell_angle_beta	90.014104
_cell_angle_gamma	89.776475
_symmetry_space_group_name_H-M	'P 1'
_symmetry_Int_Tables_number		1

loop_
	_symmetry_equiv_pos_as_xyz
	x,y,z

loop_
	_atom_site_label
	_atom_site_type_symbol
	_atom_site_fract_x
	_atom_site_fract_y
	_atom_site_fract_z
	H0	H	0.408837	0.830700	0.714831
	H1	H	0.596767	0.162804	0.710329
	H2	H	0.598630	0.830581	0.291724
	H3	H	0.405610	0.162205	0.289980
	H4	H	0.719604	0.394632	0.838900
	H5	H	0.718631	0.597512	0.166050
	H6	H	0.287383	0.597964	0.838208
	H7	H	0.289863	0.396170	0.167577
	H8	H	0.839855	0.712009	0.403186
	H9	H	0.165707	0.710303	0.600869
	H10	H	0.840628	0.280641	0.602152
	H11	H	0.165718	0.279816	0.405225
	H12	H	0.839753	0.398327	0.717417
	H13	H	0.165724	0.592744	0.717878
	H14	H	0.839946	0.594722	0.286670
	H15	H	0.166088	0.397216	0.288111
	H16	H	0.405519	0.709713	0.836156
	H17	H	0.599205	0.707299	0.167820
	H18	H	0.599503	0.286947	0.836366
	H19	H	0.407718	0.283766	0.168244
	H20	H	0.719960	0.832060	0.400350
	H21	H	0.719779	0.159450	0.604656
	H22	H	0.288332	0.831387	0.603882
	H23	H	0.283995	0.159604	0.399049
	H24	H	0.908380	0.330208	0.214455
	H25	H	0.097327	0.662156	0.212715
	H26	H	0.098540	0.329681	0.793690
	H27	H	0.906381	0.661439	0.790575
	H28	H	0.219207	0.893194	0.338335
	H29	H	0.217906	0.096293	0.666262
	H30	H	0.787068	0.098377	0.337887
	H31	H	0.787911	0.894665	0.666472
	H32	H	0.341236	0.213135	0.902846
	H33	H	0.666618	0.210980	0.100792
	H34	H	0.340741	0.780964	0.101613
	H35	H	0.665987	0.780235	0.902551
	H36	H	0.340157	0.898685	0.217745
	H37	H	0.666169	0.094376	0.218298
	H38	H	0.340513	0.095653	0.787095
	H39	H	0.666276	0.898110	0.786414
	H40	H	0.905489	0.209788	0.336862
	H41	H	0.099170	0.206554	0.668395
	H42	H	0.100088	0.785132	0.336331
	H43	H	0.906829	0.783940	0.668032
	H44	H	0.221369	0.333695	0.900493
	H45	H	0.218925	0.660401	0.104503
	H46	H	0.786449	0.332771	0.105251
	H47	H	0.786776	0.659828	0.901130
	H48	H	0.403394	0.113855	0.589282
	H49	H	0.605364	0.876655	0.592632
	H50	H	0.595619	0.111833	0.416976
	H51	H	0.402321	0.877151	0.411915
	H52	H	0.595439	0.407217	0.119719
	H53	H	0.599452	0.585849	0.882697
	H54	H	0.394307	0.589579	0.124662
	H55	H	0.399851	0.403578	0.880382
	H56	H	0.119135	0.587130	0.401651
	H57	H	0.887913	0.585525	0.602859
	H58	H	0.122528	0.403626	0.611812
	H59	H	0.885767	0.398378	0.407176
	H60	H	0.121325	0.387502	0.592362
	H61	H	0.884881	0.597237	0.596870
	H62	H	0.119724	0.597608	0.408842
	H63	H	0.888794	0.403424	0.414309
	H64	H	0.415575	0.574486	0.114713
	H65	H	0.592922	0.585882	0.885308
	H66	H	0.594695	0.401910	0.121814
	H67	H	0.412672	0.415195	0.887292
	H68	H	0.603497	0.115911	0.408935
	H69	H	0.594607	0.877753	0.601219
	H70	H	0.407589	0.114966	0.596831
	H71	H	0.411462	0.877740	0.403979
	H72	H	0.909101	0.612253	0.090917
	H73	H	0.096458	0.376739	0.102607
	H74	H	0.105838	0.614371	0.917792
	H75	H	0.912539	0.377620	0.907999
	H76	H	0.092785	0.903500	0.619831
	H77	H	0.093504	0.077634	0.387450
	H78	H	0.915156	0.083961	0.617686
	H79	H	0.907592	0.902193	0.381698
	H80	H	0.621621	0.096398	0.904798
	H81	H	0.387049	0.087205	0.101865
	H82	H	0.620589	0.899284	0.100847
	H83	H	0.384739	0.902263	0.898412
	H84	H	0.618062	0.899383	0.091050
	H85	H	0.386442	0.098256	0.093329
	H86	H	0.618153	0.091005	0.911093
	H87	H	0.388556	0.895462	0.917383
	H88	H	0.909165	0.095264	0.623585
	H89	H	0.087342	0.093402	0.384491
	H90	H	0.097400	0.900400	0.621835
	H91	H	0.908253	0.908484	0.384102
	H92	H	0.097265	0.618030	0.899061
	H93	H	0.093772	0.381148	0.088967
	H94	H	0.907385	0.614978	0.093910
	H95	H	0.911489	0.380155	0.917239
	H96	H	0.411594	0.112145	0.590312
	H97	H	0.594491	0.881126	0.587331
	H98	H	0.591916	0.114326	0.405143
	H99	H	0.413342	0.881404	0.415448
	H100	H	0.598976	0.404141	0.122235
	H101	H	0.595909	0.592420	0.881758
	H102	H	0.419854	0.601400	0.122573
	H103	H	0.416402	0.397812	0.884002
	H104	H	0.115844	0.586707	0.414475
	H105	H	0.889485	0.587955	0.590117
	H106	H	0.112920	0.411111	0.588917
	H107	H	0.887910	0.407213	0.406082
	H108	H	0.910972	0.613903	0.094317
	H109	H	0.106651	0.377278	0.092705
	H110	H	0.085770	0.610239	0.915225
	H111	H	0.904785	0.376286	0.911652
	H112	H	0.098151	0.906075	0.620253
	H113	H	0.102734	0.088913	0.380719
	H114	H	0.902299	0.082751	0.621210
	H115	H	0.912735	0.904027	0.384916
	H116	H	0.619632	0.087497	0.903019
	H117	H	0.392002	0.085866	0.088229
	H118	H	0.617064	0.906823	0.096753
	H119	H	0.392021	0.914930	0.912410
	C120	C	0.380616	0.004600	0.622549
	C121	C	0.625019	0.987517	0.622315
	C122	C	0.625061	0.004742	0.381574
	C123	C	0.380200	0.987662	0.380728
	C124	C	0.624500	0.376029	0.011892
	C125	C	0.624061	0.617181	0.992747
	C126	C	0.381566	0.617926	0.011040
	C127	C	0.381921	0.375810	0.993423
	C128	C	0.010973	0.618955	0.379690
	C129	C	0.994732	0.618384	0.624961
	C130	C	0.011208	0.372982	0.625696
	C131	C	0.994953	0.373832	0.380899
	C132	C	0.881162	0.504856	0.123453
	C133	C	0.125706	0.487537	0.123757
	C134	C	0.124542	0.505095	0.881939
	C135	C	0.881219	0.486859	0.882286
	C136	C	0.124811	0.874283	0.511159
	C137	C	0.123098	0.115845	0.493500
	C138	C	0.881016	0.117049	0.511279
	C139	C	0.881779	0.875639	0.493239
	C140	C	0.512059	0.119763	0.878520
	C141	C	0.495412	0.118798	0.123804
	C142	C	0.511278	0.873725	0.124787
	C143	C	0.495673	0.875039	0.880156
	C144	C	0.386283	0.880421	0.678157
	C145	C	0.619546	0.112652	0.675184
	C146	C	0.620590	0.880032	0.327983
	C147	C	0.384014	0.112363	0.326351
	C148	C	0.680648	0.376436	0.887730
	C149	C	0.679786	0.616511	0.117107
	C150	C	0.325934	0.617118	0.887138
	C151	C	0.327567	0.376775	0.118175
	C152	C	0.888596	0.674025	0.382204
	C153	C	0.117220	0.672647	0.621539
	C154	C	0.888998	0.318641	0.622592
	C155	C	0.117238	0.318078	0.383945
	C156	C	0.888629	0.376906	0.680060
	C157	C	0.117281	0.614402	0.679785
	C158	C	0.888533	0.615767	0.324520
	C159	C	0.117326	0.376368	0.325825
	C160	C	0.384419	0.672748	0.886101
	C161	C	0.620249	0.670838	0.118014
	C162	C	0.621117	0.322745	0.886408
	C163	C	0.386006	0.320643	0.118382
	C164	C	0.681045	0.881030	0.381965
	C165	C	0.680245	0.111139	0.622289
	C166	C	0.326529	0.880517	0.622919
	C167	C	0.323765	0.111002	0.380831
	C168	C	0.886021	0.380116	0.178002
	C169	C	0.120076	0.612153	0.177417
	C170	C	0.120347	0.379917	0.829113
	C171	C	0.884900	0.611724	0.827351
	C172	C	0.180912	0.874569	0.387392
	C173	C	0.179106	0.115126	0.617451
	C174	C	0.825870	0.116947	0.386817
	C175	C	0.826613	0.875825	0.617485
	C176	C	0.389587	0.174970	0.882053
	C177	C	0.618088	0.173384	0.121563
	C178	C	0.388844	0.819524	0.121617
	C179	C	0.617502	0.818688	0.882206
	C180	C	0.388559	0.877782	0.179336
	C181	C	0.617879	0.115246	0.179720
	C182	C	0.389328	0.116859	0.824150
	C183	C	0.617863	0.877704	0.824850
	C184	C	0.884179	0.172785	0.386531
	C185	C	0.120454	0.170157	0.618365
	C186	C	0.121402	0.820625	0.386355
	C187	C	0.885675	0.820900	0.618295
	C188	C	0.181119	0.381719	0.882682
	C189	C	0.180406	0.611360	0.123350
	C190	C	0.825265	0.381543	0.123970
	C191	C	0.825200	0.610800	0.882024
	C192	C	0.401293	0.091362	0.598978
	C193	C	0.604234	0.900816	0.600259
	C194	C	0.603445	0.091615	0.403825
	C195	C	0.402521	0.901075	0.403731
	C196	C	0.602837	0.398110	0.098737
	C197	C	0.602568	0.594705	0.905632
	C198	C	0.403426	0.595221	0.098248
	C199	C	0.403278	0.398900	0.906113
	C200	C	0.096281	0.596883	0.401784
	C201	C	0.909510	0.596644	0.603166
	C202	C	0.096969	0.394257	0.604062
	C203	C	0.909598	0.396230	0.402828
	C204	C	0.902708	0.591360	0.099867
	C205	C	0.105017	0.400613	0.101344
	C206	C	0.102732	0.591778	0.904117
	C207	C	0.903106	0.400488	0.905484
	C208	C	0.102838	0.896804	0.598235
	C209	C	0.101068	0.093205	0.406653
	C210	C	0.902585	0.094151	0.598205
	C211	C	0.903095	0.898374	0.406083
	C212	C	0.597656	0.098045	0.899947
	C213	C	0.410631	0.096939	0.101198
	C214	C	0.596400	0.895296	0.102632
	C215	C	0.410515	0.897430	0.902776
	Zn216	Zn	0.503654	-0.002535	0.749796
	Zn217	Zn	0.503024	-0.003303	0.253842
	Zn218	Zn	0.751808	0.496386	0.002610
	Zn219	Zn	0.253927	0.496842	0.002663
	Zn220	Zn	0.002963	0.747988	0.501803
	Zn221	Zn	0.002802	0.243993	0.503057
	Zn222	Zn	0.003046	0.495446	0.754841
	Zn223	Zn	0.003185	0.496146	0.250909
	Zn224	Zn	0.503341	0.744813	0.001995
	Zn225	Zn	0.504534	0.248812	0.001803
	Zn226	Zn	0.753348	-0.003774	0.502302
	Zn227	Zn	0.251356	-0.004214	0.502133
	N228	N	0.419219	0.958678	0.677854
	N229	N	0.585641	0.034770	0.675314
	N230	N	0.586622	0.957882	0.327410
	N231	N	0.418521	0.034651	0.326402
	N232	N	0.683021	0.408804	0.966823
	N233	N	0.682116	0.583693	0.038320
	N234	N	0.323933	0.583922	0.966010
	N235	N	0.324821	0.410315	0.039379
	N236	N	0.965571	0.675917	0.415875
	N237	N	0.040004	0.675214	0.588279
	N238	N	0.966255	0.316142	0.589471
	N239	N	0.040235	0.316530	0.417427
	N240	N	0.965555	0.410256	0.681887
	N241	N	0.040299	0.581320	0.682032
	N242	N	0.965569	0.582044	0.322868
	N243	N	0.040327	0.410476	0.323867
	N244	N	0.418288	0.673397	0.964283
	N245	N	0.586470	0.671455	0.039737
	N246	N	0.586754	0.322489	0.964261
	N247	N	0.418912	0.320042	0.039808
	N248	N	0.683649	0.959783	0.414688
	N249	N	0.683950	0.032301	0.590361
	N250	N	0.322927	0.958773	0.589036
	N251	N	0.321203	0.032323	0.413854
	N252	N	0.920065	0.457760	0.177727
	N253	N	0.086962	0.533970	0.177966
	N254	N	0.085813	0.457585	0.828757
	N255	N	0.918904	0.533773	0.827229
	N256	N	0.183204	0.907448	0.466232
	N257	N	0.180836	0.082155	0.538754
	N258	N	0.823677	0.083103	0.465346
	N259	N	0.824301	0.909361	0.538750
	N260	N	0.466903	0.176922	0.915141
	N261	N	0.541199	0.175850	0.087612
	N262	N	0.466153	0.816792	0.088549
	N263	N	0.540583	0.817007	0.915896
	N264	N	0.465607	0.910762	0.181511
	N265	N	0.540801	0.082074	0.181324
	N266	N	0.466334	0.083313	0.821940
	N267	N	0.541028	0.912046	0.823389
	N268	N	0.918034	0.172835	0.464882
	N269	N	0.086207	0.170592	0.540270
	N270	N	0.087181	0.820462	0.464283
	N271	N	0.919190	0.820456	0.539972
	N272	N	0.183976	0.460501	0.914821
	N273	N	0.183920	0.532864	0.090525
	N274	N	0.822211	0.460124	0.090606
	N275	N	0.822735	0.532261	0.915585
	O276	O	1.063596	1.027717	0.090838
	H277	H	1.064669	1.030412	0.089425
	H278	H	1.065175	1.039958	0.095261
	O279	O	-0.001372	0.009945	0.098650
	H280	H	-0.004558	0.010142	0.097648
	H281	H	-0.002287	0.013461	0.105861
	O282	O	0.022041	-0.017796	0.984064
	H283	H	0.030189	-0.020033	0.989840
	H284	H	0.028676	-0.021583	0.973714
	O285	O	0.439521	0.443526	0.448843
	H286	H	0.442654	0.440029	0.442602
	H287	H	0.439120	0.440565	0.449436
	O288	O	0.469782	0.507130	0.468317
	H289	H	0.469064	0.516580	0.467773
	H290	H	0.474643	0.507419	0.468120
	O291	O	0.489032	0.457146	0.527926
	H292	H	0.482591	0.452038	0.521927
	H293	H	0.492563	0.446790	0.537564
	O294	O	0.109057	0.000176	0.043014
	H295	H	0.105600	0.000975	0.048133
	H296	H	0.107713	-0.013945	0.039994
	O297	O	0.467436	0.448335	0.468911
	H298	H	0.470576	0.440849	0.464221
	H299	H	0.460601	0.444259	0.467699
	O300	O	0.039426	0.998452	0.996009
	H301	H	0.048473	1.002146	1.001543
	H302	H	0.035784	1.001961	1.000039
	O303	O	0.455763	0.459566	0.457353
	H304	H	0.452652	0.463561	0.452854
	H305	H	0.452159	0.471470	0.457229
	O306	O	0.035444	-0.016653	1.017344
	H307	H	0.033790	-0.015044	1.018315
	H308	H	0.043877	-0.012868	1.027399
	O309	O	1.022249	1.061838	1.016796
	H310	H	1.023439	1.072551	1.025362
	H311	H	1.034085	1.054260	1.003797
	O312	O	0.505869	0.475513	0.504913
	H313	H	0.511185	0.477250	0.511839
	H314	H	0.513654	0.481115	0.506549
	O315	O	0.010329	0.911311	0.034754
	H316	H	0.016234	0.904765	0.031787
	H317	H	0.019424	0.908309	0.025487
	O318	O	0.030343	0.961985	-0.033123
	H319	H	0.028896	0.958386	-0.033593
	H320	H	0.018331	0.962346	-0.028617
	O321	O	1.037047	0.977299	-0.026142
	H322	H	1.032293	0.986333	-0.023369
	H323	H	1.037602	0.973359	-0.038023
