data_Molecule from HDF5

_cell_length_a		16.358876
_cell_length_b		16.368800
_cell_length_c		16.377149
_cell_angle_alpha	89.896908
_cell_angle_beta	90.101665
_cell_angle_gamma	89.839420
_symmetry_space_group_name_H-M	'P 1'
_symmetry_Int_Tables_number		1

loop_
	_symmetry_equiv_pos_as_xyz
	x,y,z

loop_
	_atom_site_label
	_atom_site_type_symbol
	_atom_site_fract_x
	_atom_site_fract_y
	_atom_site_fract_z
	H0	H	0.401778	0.850682	0.707306
	H1	H	0.610177	0.169576	0.712917
	H2	H	0.611445	0.851866	0.266290
	H3	H	0.389147	0.165359	0.260915
	H4	H	0.727337	0.402336	0.832507
	H5	H	0.724774	0.617724	0.149200
	H6	H	0.282817	0.615452	0.830933
	H7	H	0.278182	0.401542	0.147069
	H8	H	0.841938	0.733284	0.381815
	H9	H	0.161012	0.729133	0.592674
	H10	H	0.843089	0.288499	0.596495
	H11	H	0.159250	0.284898	0.380686
	H12	H	0.844302	0.401113	0.713772
	H13	H	0.159240	0.615160	0.710532
	H14	H	0.842676	0.616783	0.266460
	H15	H	0.161681	0.404319	0.268834
	H16	H	0.400831	0.728417	0.829910
	H17	H	0.610367	0.733640	0.148638
	H18	H	0.612177	0.286553	0.832026
	H19	H	0.392366	0.284207	0.145687
	H20	H	0.724187	0.851124	0.384377
	H21	H	0.724411	0.169316	0.596650
	H22	H	0.285156	0.851682	0.592674
	H23	H	0.277174	0.167747	0.380627
	H24	H	0.894928	0.352016	0.212603
	H25	H	0.109184	0.669123	0.211466
	H26	H	0.112311	0.353050	0.764445
	H27	H	0.895748	0.669394	0.767344
	H28	H	0.225109	0.904018	0.332364
	H29	H	0.223208	0.115483	0.649035
	H30	H	0.774249	0.120348	0.333672
	H31	H	0.782484	0.903940	0.650053
	H32	H	0.345012	0.235081	0.879100
	H33	H	0.659717	0.234591	0.099080
	H34	H	0.343081	0.790082	0.093055
	H35	H	0.661443	0.788113	0.884806
	H36	H	0.345091	0.900253	0.213086
	H37	H	0.659239	0.118371	0.215263
	H38	H	0.342319	0.114066	0.769840
	H39	H	0.661830	0.903588	0.768506
	H40	H	0.889637	0.235834	0.332623
	H41	H	0.108904	0.232220	0.648155
	H42	H	0.107649	0.789892	0.330657
	H43	H	0.898097	0.789025	0.648977
	H44	H	0.228258	0.353987	0.879843
	H45	H	0.223214	0.670175	0.093858
	H46	H	0.778850	0.353675	0.098213
	H47	H	0.780704	0.670219	0.884318
	H48	H	0.413262	0.123561	0.572198
	H49	H	0.588263	0.897310	0.582199
	H50	H	0.593348	0.124669	0.400713
	H51	H	0.415087	0.897456	0.403503
	H52	H	0.592850	0.423098	0.103301
	H53	H	0.596424	0.596484	0.876604
	H54	H	0.412389	0.599983	0.105825
	H55	H	0.412186	0.425942	0.876254
	H56	H	0.116738	0.598668	0.394587
	H57	H	0.886547	0.598189	0.579128
	H58	H	0.112515	0.424144	0.572659
	H59	H	0.891267	0.430908	0.399874
	H60	H	0.115445	0.424924	0.579762
	H61	H	0.887084	0.601514	0.576704
	H62	H	0.116714	0.605897	0.401942
	H63	H	0.885141	0.418459	0.395301
	H64	H	0.412756	0.598758	0.104806
	H65	H	0.586313	0.597701	0.879065
	H66	H	0.587493	0.428005	0.099517
	H67	H	0.418492	0.426399	0.878603
	H68	H	0.579458	0.120330	0.400508
	H69	H	0.595238	0.897167	0.576910
	H70	H	0.405399	0.129208	0.582505
	H71	H	0.414501	0.896845	0.401804
	H72	H	0.913839	0.624862	0.078606
	H73	H	0.093846	0.396921	0.076874
	H74	H	0.090603	0.628096	0.888211
	H75	H	0.914738	0.396594	0.900089
	H76	H	0.094743	0.920665	0.604743
	H77	H	0.085951	0.096244	0.378897
	H78	H	0.913745	0.095796	0.601419
	H79	H	0.920268	0.917335	0.377041
	H80	H	0.616734	0.101420	0.903871
	H81	H	0.391928	0.095116	0.070120
	H82	H	0.614628	0.929717	0.082291
	H83	H	0.388811	0.918737	0.903435
	H84	H	0.619313	0.915886	0.080822
	H85	H	0.390747	0.093243	0.077220
	H86	H	0.614568	0.094861	0.903500
	H87	H	0.388232	0.923783	0.895409
	H88	H	0.917046	0.098781	0.600747
	H89	H	0.088807	0.099957	0.376362
	H90	H	0.090739	0.918978	0.604527
	H91	H	0.905482	0.921610	0.373806
	H92	H	0.080087	0.618850	0.904415
	H93	H	0.090046	0.396720	0.080796
	H94	H	0.915527	0.624096	0.077747
	H95	H	0.916210	0.398499	0.902565
	H96	H	0.419202	0.126705	0.585049
	H97	H	0.595710	0.893805	0.585062
	H98	H	0.586972	0.118732	0.412078
	H99	H	0.415615	0.897859	0.402270
	H100	H	0.585644	0.420305	0.101618
	H101	H	0.591365	0.605287	0.874789
	H102	H	0.413628	0.599836	0.104205
	H103	H	0.416387	0.420217	0.876023
	H104	H	0.112295	0.596565	0.403524
	H105	H	0.888325	0.597840	0.574893
	H106	H	0.116448	0.417842	0.575738
	H107	H	0.890619	0.419996	0.408871
	H108	H	0.913566	0.623891	0.077308
	H109	H	0.088524	0.398813	0.076025
	H110	H	0.100848	0.625163	0.907047
	H111	H	0.913325	0.397083	0.903149
	H112	H	0.093975	0.916489	0.606364
	H113	H	0.091867	0.095301	0.377043
	H114	H	0.913272	0.099953	0.603146
	H115	H	0.915373	0.931699	0.380519
	H116	H	0.617077	0.097637	0.897941
	H117	H	0.389228	0.099095	0.074921
	H118	H	0.613136	0.922130	0.069405
	H119	H	0.385090	0.914668	0.895689
	C120	C	0.382069	0.020213	0.610767
	C121	C	0.625293	1.001565	0.613566
	C122	C	0.622029	0.017514	0.369994
	C123	C	0.380157	1.001240	0.367810
	C124	C	0.623748	0.389389	-0.001815
	C125	C	0.624355	0.632547	0.981667
	C126	C	0.381659	0.631577	-0.001001
	C127	C	0.381130	0.389212	0.980511
	C128	C	0.009979	0.633030	0.367131
	C129	C	0.992296	0.631097	0.609636
	C130	C	0.010405	0.389103	0.610464
	C131	C	0.993522	0.389205	0.367946
	C132	C	0.881237	0.519519	0.111489
	C133	C	0.124058	0.502275	0.110759
	C134	C	0.123698	0.519373	0.867109
	C135	C	0.881030	0.502062	0.868573
	C136	C	0.124416	0.887984	0.499183
	C137	C	0.122614	0.130539	0.481738
	C138	C	0.879162	0.132496	0.498296
	C139	C	0.881379	0.889916	0.481567
	C140	C	0.511266	0.131499	0.868166
	C141	C	0.493817	0.130787	0.110083
	C142	C	0.511130	0.888868	0.110475
	C143	C	0.493318	0.887561	0.867472
	C144	C	0.382415	0.899069	0.668501
	C145	C	0.627748	0.121466	0.672822
	C146	C	0.627708	0.899452	0.307318
	C147	C	0.373562	0.118743	0.303456
	C148	C	0.686309	0.385429	0.879825
	C149	C	0.685195	0.635496	0.101215
	C150	C	0.322542	0.633487	0.878710
	C151	C	0.318739	0.384196	0.099317
	C152	C	0.890071	0.693448	0.364162
	C153	C	0.112726	0.689944	0.611571
	C154	C	0.891011	0.328050	0.614099
	C155	C	0.112139	0.326044	0.363462
	C156	C	0.891612	0.384646	0.672532
	C157	C	0.112070	0.633239	0.670142
	C158	C	0.890154	0.634984	0.306948
	C159	C	0.113311	0.385949	0.308026
	C160	C	0.381246	0.689815	0.878437
	C161	C	0.628260	0.693585	0.101027
	C162	C	0.628908	0.327327	0.879476
	C163	C	0.375843	0.325488	0.098721
	C164	C	0.683776	0.898771	0.366721
	C165	C	0.684967	0.121512	0.615040
	C166	C	0.324368	0.899331	0.611461
	C167	C	0.317594	0.119901	0.363152
	C168	C	0.877642	0.400088	0.172496
	C169	C	0.127259	0.621521	0.171379
	C170	C	0.129026	0.400739	0.805151
	C171	C	0.877412	0.621574	0.807361
	C172	C	0.184977	0.886138	0.379759
	C173	C	0.183528	0.133582	0.601105
	C174	C	0.815321	0.137370	0.380754
	C175	C	0.821980	0.886713	0.602023
	C176	C	0.392124	0.193561	0.862887
	C177	C	0.612332	0.193702	0.115715
	C178	C	0.391288	0.828803	0.112501
	C179	C	0.613555	0.827627	0.866099
	C180	C	0.392106	0.884253	0.171889
	C181	C	0.611840	0.136016	0.173927
	C182	C	0.391112	0.133597	0.808106
	C183	C	0.613733	0.885696	0.808520
	C184	C	0.873261	0.194944	0.379985
	C185	C	0.126117	0.191621	0.600711
	C186	C	0.126251	0.829229	0.378973
	C187	C	0.879519	0.829152	0.601498
	C188	C	0.187142	0.401071	0.862663
	C189	C	0.184041	0.622045	0.112806
	C190	C	0.819737	0.400592	0.115488
	C191	C	0.820363	0.622126	0.865878
	C192	C	0.405711	0.104524	0.586844
	C193	C	0.600632	0.917980	0.588632
	C194	C	0.594380	0.099888	0.396687
	C195	C	0.407405	0.918789	0.394775
	C196	C	0.596549	0.416157	0.080024
	C197	C	0.598856	0.606957	0.898626
	C198	C	0.405984	0.606619	0.083071
	C199	C	0.408003	0.416272	0.898409
	C200	C	0.093439	0.607642	0.392552
	C201	C	0.908986	0.606348	0.584089
	C202	C	0.093058	0.414908	0.583736
	C203	C	0.910781	0.415536	0.393791
	C204	C	0.906746	0.602502	0.085431
	C205	C	0.098331	0.419159	0.085273
	C206	C	0.097686	0.602377	0.892668
	C207	C	0.907193	0.419124	0.894387
	C208	C	0.100119	0.911893	0.583103
	C209	C	0.096432	0.104711	0.398677
	C210	C	0.906769	0.105973	0.580476
	C211	C	0.906381	0.915980	0.398735
	C212	C	0.594237	0.105770	0.894256
	C213	C	0.412097	0.103716	0.082087
	C214	C	0.594086	0.915024	0.084884
	C215	C	0.409444	0.912068	0.891470
	Zn216	Zn	0.502485	0.010648	0.739978
	Zn217	Zn	0.501837	0.009316	0.239604
	Zn218	Zn	0.752622	0.511113	-0.009489
	Zn219	Zn	0.252126	0.511205	-0.010942
	Zn220	Zn	0.001276	0.760691	0.489401
	Zn221	Zn	0.001778	0.260424	0.489204
	Zn222	Zn	0.001794	0.510407	0.738924
	Zn223	Zn	0.002370	0.510513	0.239024
	Zn224	Zn	0.502612	0.760275	-0.009592
	Zn225	Zn	0.502570	0.259949	-0.011489
	Zn226	Zn	0.751800	0.009666	0.490596
	Zn227	Zn	0.252566	0.010499	0.490707
	N228	N	0.417299	0.975376	0.668318
	N229	N	0.591629	0.045779	0.672144
	N230	N	0.589877	0.974645	0.309218
	N231	N	0.411875	0.044062	0.306451
	N232	N	0.683333	0.423235	0.954527
	N233	N	0.683099	0.598266	0.025946
	N234	N	0.322748	0.597817	0.954869
	N235	N	0.321717	0.423045	0.025011
	N236	N	0.965898	0.692403	0.400716
	N237	N	0.037250	0.688706	0.574626
	N238	N	0.965932	0.330566	0.576022
	N239	N	0.036647	0.327737	0.399835
	N240	N	0.966940	0.421500	0.670637
	N241	N	0.036208	0.597524	0.669129
	N242	N	0.965624	0.598193	0.308606
	N243	N	0.038562	0.424530	0.310591
	N244	N	0.416941	0.688976	0.954375
	N245	N	0.591141	0.691913	0.025856
	N246	N	0.590683	0.329513	0.954046
	N247	N	0.413659	0.328220	0.023716
	N248	N	0.680324	0.973254	0.405005
	N249	N	0.683668	0.045733	0.578962
	N250	N	0.324177	0.975556	0.576256
	N251	N	0.321613	0.045773	0.402458
	N252	N	0.915024	0.475199	0.170224
	N253	N	0.090934	0.545873	0.170426
	N254	N	0.090215	0.475141	0.807971
	N255	N	0.914052	0.545892	0.808614
	N256	N	0.184320	0.921680	0.455795
	N257	N	0.181673	0.096695	0.525789
	N258	N	0.818999	0.099297	0.455468
	N259	N	0.822972	0.923953	0.526556
	N260	N	0.467825	0.192586	0.899375
	N261	N	0.537866	0.190707	0.076686
	N262	N	0.466210	0.831681	0.074972
	N263	N	0.537789	0.828836	0.902108
	N264	N	0.467642	0.920804	0.170850
	N265	N	0.537214	0.097845	0.170703
	N266	N	0.466215	0.095867	0.811132
	N267	N	0.538071	0.922444	0.809204
	N268	N	0.912285	0.192132	0.454208
	N269	N	0.089013	0.190005	0.525329
	N270	N	0.089455	0.830063	0.454288
	N271	N	0.915578	0.830879	0.525846
	N272	N	0.184038	0.475859	0.900550
	N273	N	0.182341	0.546575	0.076098
	N274	N	0.821802	0.475787	0.078215
	N275	N	0.822280	0.546786	0.903102
	O276	O	0.591682	0.645478	0.359654
	H277	H	0.594226	0.672129	0.347547
	H278	H	0.560389	0.643135	0.358374
	O279	O	0.472207	0.719012	0.494914
	H280	H	0.493592	0.715725	0.489347
	H281	H	0.469670	0.722321	0.481105
	O282	O	0.001197	-0.143256	0.856544
	H283	H	0.026877	-0.148149	0.864977
	H284	H	0.006470	-0.149527	0.852221
	O285	O	1.098078	1.052969	-0.068376
	H286	H	1.086762	1.049333	-0.064851
	H287	H	1.090366	1.080344	-0.059531
	O288	O	0.056586	-0.145428	-0.043305
	H289	H	0.061523	-0.144602	-0.061050
	H290	H	0.064750	-0.159839	-0.057024
	O291	O	1.066359	0.214107	0.922505
	H292	H	1.108057	0.224554	0.943478
	H293	H	1.037329	0.210737	0.955484
	O294	O	1.197405	1.025721	1.188766
	H295	H	1.215540	1.012498	1.187532
	H296	H	1.202240	1.006776	1.183652
	O297	O	0.704663	0.577285	0.691210
	H298	H	0.709110	0.577097	0.702809
	H299	H	0.700003	0.582912	0.693958
	O300	O	0.358507	0.304107	0.476060
	H301	H	0.375997	0.303808	0.460857
	H302	H	0.351665	0.278370	0.460067
	O303	O	0.519896	0.372397	0.699789
	H304	H	0.513668	0.365408	0.711093
	H305	H	0.531133	0.374613	0.703899
	O306	O	-0.169438	-0.166301	1.162113
	H307	H	-0.180563	-0.130691	1.159255
	H308	H	-0.179622	-0.165402	1.126832
	O309	O	0.821187	0.193633	-0.186006
	H310	H	0.869336	0.198079	-0.199863
	H311	H	0.816479	0.158782	-0.184755
	O312	O	0.529714	0.678260	0.676051
	H313	H	0.497558	0.658968	0.679791
	H314	H	0.527179	0.683883	0.676986
	O315	O	0.431941	0.593734	0.633671
	H316	H	0.447711	0.572141	0.634667
	H317	H	0.411090	0.590425	0.608610
	O318	O	-0.196042	0.064164	0.125598
	H319	H	-0.199092	0.069942	0.120771
	H320	H	-0.199653	0.073509	0.116382
	O321	O	-0.061083	0.808840	0.993269
	H322	H	-0.060150	0.794273	0.990872
	H323	H	-0.045778	0.804665	0.980199
	O324	O	1.298519	-0.290628	1.446215
	H325	H	1.280359	-0.271283	1.458226
	H326	H	1.303994	-0.295835	1.460690
	O327	O	0.679716	0.696019	0.589478
	H328	H	0.668827	0.710809	0.584080
	H329	H	0.661976	0.679019	0.609169
	O330	O	-0.105402	0.923886	0.991152
	H331	H	-0.111142	0.910181	0.990475
	H332	H	-0.094972	0.925239	0.964573
	O333	O	0.151450	0.815022	-0.159141
	H334	H	0.150014	0.849496	-0.163611
	H335	H	0.176288	0.813628	-0.172126
	O336	O	0.994170	1.216980	0.113094
	H337	H	0.999077	1.223387	0.139433
	H338	H	0.986328	1.198671	0.123515
	O339	O	-0.205036	1.042110	1.097701
	H340	H	-0.213270	1.060518	1.081235
	H341	H	-0.210168	1.051435	1.078635
	O342	O	0.623606	0.479404	0.586957
	H343	H	0.634636	0.503220	0.593595
	H344	H	0.635601	0.481917	0.594118
	O345	O	0.007755	-0.052700	0.998088
	H346	H	0.019514	-0.051204	0.992713
	H347	H	0.008680	-0.053354	0.991731
	O348	O	0.671011	0.338280	0.312613
	H349	H	0.686476	0.344384	0.345775
	H350	H	0.682863	0.372004	0.319737
	O351	O	0.444604	0.516182	0.552728
	H352	H	0.441229	0.508434	0.540571
	H353	H	0.461029	0.517264	0.561403
	O354	O	1.141899	0.949241	1.105045
	H355	H	1.125976	0.932829	1.095995
	H356	H	1.157060	0.939278	1.085420
	O357	O	0.197495	-0.074870	-0.212820
	H358	H	0.184891	-0.060606	-0.199247
	H359	H	0.195772	-0.046745	-0.213358
	O360	O	0.311239	0.337021	0.595130
	H361	H	0.311298	0.327440	0.555817
	H362	H	0.333723	0.329076	0.598705
	O363	O	0.979123	0.213462	0.107815
	H364	H	0.973649	0.221366	0.140054
	H365	H	0.952082	0.196867	0.116732
	O366	O	-0.947155	0.009700	0.785368
	H367	H	-0.961710	0.021310	0.785247
	H368	H	-0.942952	0.019581	0.789759
	O369	O	1.648394	0.527761	0.291411
	H370	H	1.654385	0.542919	0.303330
	H371	H	1.647686	0.553764	0.274268
	O372	O	0.311275	0.519524	0.277180
	H373	H	0.280725	0.521735	0.246247
	H374	H	0.336946	0.492295	0.284751
	O375	O	-0.551269	-0.701391	1.538229
	H376	H	-0.545921	-0.706311	1.549969
	H377	H	-0.563827	-0.695813	1.513690
	O378	O	0.516792	0.291206	0.273550
	H379	H	0.548628	0.281266	0.261847
	H380	H	0.545158	0.278264	0.261968
	O381	O	0.005023	0.908910	0.027904
	H382	H	0.019590	0.921985	0.030299
	H383	H	0.017611	0.902587	0.030503
	O384	O	0.492692	0.655784	0.381308
	H385	H	0.482727	0.650404	0.375483
	H386	H	0.485905	0.665640	0.353901
	O387	O	0.885158	0.956744	-0.213455
	H388	H	0.896432	0.945055	-0.208931
	H389	H	0.882550	0.956075	-0.220497
	O390	O	0.982878	1.029445	0.203266
	H391	H	0.952180	1.007425	0.199118
	H392	H	0.999971	0.996879	0.205221
	O393	O	1.215098	0.224273	1.006074
	H394	H	1.248108	0.261925	1.011172
	H395	H	1.204206	0.213003	1.059575
	O396	O	0.510419	0.545776	0.401410
	H397	H	0.502037	0.568100	0.399323
	H398	H	0.499276	0.540127	0.382905
	O399	O	0.785458	0.167730	0.992736
	H400	H	0.791639	0.159062	0.954474
	H401	H	0.766488	0.192318	0.973839
	O402	O	0.791771	0.990532	-0.155354
	H403	H	0.785442	0.990111	-0.165745
	H404	H	0.803733	0.989723	-0.148770
	O405	O	0.454849	0.482541	0.341694
	H406	H	0.467045	0.488256	0.345763
	H407	H	0.458816	0.457323	0.331592
	O408	O	0.334609	0.664029	0.317139
	H409	H	0.319613	0.631379	0.328668
	H410	H	0.322296	0.659112	0.344038
	O411	O	1.628312	0.338408	1.525884
	H412	H	1.616713	0.350057	1.541437
	H413	H	1.609647	0.343672	1.532135
	O414	O	0.710915	0.605983	0.556053
	H415	H	0.712524	0.586835	0.571799
	H416	H	0.720404	0.638215	0.545898
	O417	O	0.304768	0.438116	0.686396
	H418	H	0.289334	0.443947	0.699043
	H419	H	0.299265	0.413748	0.666365
	O420	O	-0.015230	0.797794	1.204161
	H421	H	-0.034912	0.786801	1.223750
	H422	H	-0.045823	0.794261	1.208025
	O423	O	-0.003736	1.203128	-0.223512
	H424	H	-0.003157	1.240198	-0.245190
	H425	H	0.016965	1.207440	-0.185130
	O426	O	0.315315	0.644666	0.607332
	H427	H	0.326406	0.621645	0.599309
	H428	H	0.309035	0.636063	0.622399
	O429	O	0.616886	0.463756	0.432344
	H430	H	0.626598	0.470086	0.434697
	H431	H	0.636561	0.470254	0.418565
	O432	O	0.181700	0.191540	0.163724
	H433	H	0.189432	0.137206	0.175927
	H434	H	0.130780	0.203627	0.178168
	O435	O	0.191110	-0.004595	-0.016063
	H436	H	0.187848	0.005027	-0.007953
	H437	H	0.188381	0.008524	-0.019334
	O438	O	-0.286943	1.358549	1.490750
	H439	H	-0.303973	1.360928	1.520326
	H440	H	-0.267575	1.334801	1.498853
	O441	O	0.340245	0.483776	0.455174
	H442	H	0.356454	0.480982	0.457006
	H443	H	0.339572	0.489503	0.445784
