data_Molecule from HDF5

_cell_length_a		16.242673
_cell_length_b		16.340790
_cell_length_c		16.127116
_cell_angle_alpha	89.476809
_cell_angle_beta	89.971939
_cell_angle_gamma	90.372368
_symmetry_space_group_name_H-M	'P 1'
_symmetry_Int_Tables_number		1

loop_
	_symmetry_equiv_pos_as_xyz
	x,y,z

loop_
	_atom_site_label
	_atom_site_type_symbol
	_atom_site_fract_x
	_atom_site_fract_y
	_atom_site_fract_z
	H0	H	0.397606	0.841346	0.711885
	H1	H	0.595895	0.169130	0.712361
	H2	H	0.593970	0.842748	0.283990
	H3	H	0.396119	0.167753	0.277920
	H4	H	0.707618	0.405672	0.831509
	H5	H	0.709484	0.603001	0.159899
	H6	H	0.282812	0.604226	0.831142
	H7	H	0.276504	0.401120	0.159082
	H8	H	0.833093	0.726121	0.390243
	H9	H	0.158434	0.723013	0.595104
	H10	H	0.833071	0.286130	0.597877
	H11	H	0.158295	0.291181	0.391230
	H12	H	0.830750	0.405369	0.710054
	H13	H	0.158955	0.605763	0.709245
	H14	H	0.831690	0.606561	0.278145
	H15	H	0.159830	0.411522	0.281624
	H16	H	0.392821	0.723183	0.833752
	H17	H	0.596485	0.718907	0.160461
	H18	H	0.594319	0.290075	0.833294
	H19	H	0.390802	0.287417	0.160244
	H20	H	0.711405	0.843651	0.399321
	H21	H	0.714471	0.168205	0.598192
	H22	H	0.276106	0.844440	0.601456
	H23	H	0.281907	0.169011	0.395544
	H24	H	0.894385	0.343096	0.213894
	H25	H	0.095541	0.669320	0.207058
	H26	H	0.090455	0.342140	0.781703
	H27	H	0.897426	0.669235	0.779478
	H28	H	0.210294	0.910721	0.332280
	H29	H	0.208588	0.103994	0.662579
	H30	H	0.779240	0.108604	0.333151
	H31	H	0.782026	0.904446	0.661872
	H32	H	0.330803	0.220896	0.895588
	H33	H	0.655657	0.225156	0.100748
	H34	H	0.332299	0.784924	0.101536
	H35	H	0.656584	0.789625	0.895686
	H36	H	0.330872	0.904449	0.213505
	H37	H	0.658618	0.104228	0.209902
	H38	H	0.329954	0.101504	0.782502
	H39	H	0.658272	0.907572	0.784450
	H40	H	0.895293	0.222151	0.331207
	H41	H	0.096046	0.222100	0.659757
	H42	H	0.097285	0.794449	0.331583
	H43	H	0.893732	0.787698	0.659481
	H44	H	0.209797	0.342819	0.894748
	H45	H	0.213819	0.666915	0.093941
	H46	H	0.776966	0.342990	0.098451
	H47	H	0.777699	0.667090	0.891096
	H48	H	0.408620	0.122469	0.594034
	H49	H	0.591469	0.886924	0.597025
	H50	H	0.594303	0.121929	0.409345
	H51	H	0.389707	0.884307	0.400132
	H52	H	0.588717	0.412546	0.114707
	H53	H	0.593342	0.602502	0.875308
	H54	H	0.400979	0.597040	0.115674
	H55	H	0.400558	0.410897	0.877288
	H56	H	0.115661	0.606007	0.392756
	H57	H	0.881137	0.592902	0.582308
	H58	H	0.115920	0.407049	0.594204
	H59	H	0.880362	0.415731	0.407480
	H60	H	0.109333	0.411980	0.576921
	H61	H	0.876859	0.597953	0.590978
	H62	H	0.111422	0.609110	0.410892
	H63	H	0.879142	0.416381	0.402683
	H64	H	0.402448	0.590383	0.112765
	H65	H	0.584308	0.591203	0.881393
	H66	H	0.585079	0.417734	0.112456
	H67	H	0.401853	0.416336	0.879256
	H68	H	0.588563	0.123569	0.397517
	H69	H	0.583150	0.893029	0.591818
	H70	H	0.405702	0.118798	0.583389
	H71	H	0.416406	0.891948	0.400487
	H72	H	0.908562	0.616913	0.079683
	H73	H	0.083402	0.386768	0.100424
	H74	H	0.097636	0.624334	0.899817
	H75	H	0.898400	0.387720	0.900280
	H76	H	0.097546	0.921460	0.615273
	H77	H	0.080421	0.108391	0.379076
	H78	H	0.903655	0.098495	0.614263
	H79	H	0.898759	0.920197	0.378916
	H80	H	0.608448	0.092097	0.906328
	H81	H	0.376282	0.104235	0.082695
	H82	H	0.611055	0.907920	0.085034
	H83	H	0.378565	0.911022	0.909748
	H84	H	0.608990	0.917139	0.088851
	H85	H	0.382074	0.087905	0.082355
	H86	H	0.613732	0.102773	0.900179
	H87	H	0.377557	0.914609	0.905413
	H88	H	0.906900	0.093805	0.612161
	H89	H	0.100228	0.105060	0.374111
	H90	H	0.073540	0.919577	0.608703
	H91	H	0.908363	0.918598	0.381520
	H92	H	0.084152	0.622265	0.895100
	H93	H	0.075762	0.395255	0.080716
	H94	H	0.892958	0.622048	0.080912
	H95	H	0.904659	0.390728	0.902341
	H96	H	0.397990	0.123773	0.589620
	H97	H	0.592810	0.890300	0.586807
	H98	H	0.581826	0.118805	0.407655
	H99	H	0.400424	0.895321	0.422066
	H100	H	0.581627	0.411798	0.112797
	H101	H	0.578198	0.604589	0.878231
	H102	H	0.408077	0.595450	0.113511
	H103	H	0.406122	0.412216	0.879571
	H104	H	0.108312	0.591638	0.403327
	H105	H	0.878527	0.603942	0.581515
	H106	H	0.109293	0.424741	0.590019
	H107	H	0.879226	0.410650	0.405049
	H108	H	0.902829	0.623673	0.093847
	H109	H	0.096818	0.387475	0.081577
	H110	H	0.087584	0.619250	0.909317
	H111	H	0.898773	0.389891	0.907039
	H112	H	0.084755	0.898862	0.617534
	H113	H	0.089184	0.089240	0.381882
	H114	H	0.909630	0.099028	0.612079
	H115	H	0.902651	0.911903	0.377175
	H116	H	0.609973	0.103501	0.912244
	H117	H	0.376083	0.094293	0.097113
	H118	H	0.614093	0.909351	0.094800
	H119	H	0.375679	0.909505	0.904980
	C120	C	0.373779	0.014330	0.619379
	C121	C	0.618800	0.997511	0.620431
	C122	C	0.617228	0.014109	0.376277
	C123	C	0.373555	0.997556	0.376324
	C124	C	0.614291	0.384656	0.004696
	C125	C	0.615774	0.627346	0.987074
	C126	C	0.374325	0.625143	0.005578
	C127	C	0.372203	0.382788	0.987407
	C128	C	0.003907	0.630893	0.371992
	C129	C	0.986638	0.627727	0.615030
	C130	C	0.003664	0.384194	0.617019
	C131	C	0.987439	0.386199	0.374614
	C132	C	0.872371	0.513667	0.116476
	C133	C	0.116337	0.497035	0.116248
	C134	C	0.117076	0.514152	0.872929
	C135	C	0.872036	0.496955	0.872810
	C136	C	0.116020	0.886002	0.505041
	C137	C	0.118335	0.129147	0.487441
	C138	C	0.875578	0.127728	0.504542
	C139	C	0.874117	0.885281	0.487607
	C140	C	0.502559	0.127362	0.876001
	C141	C	0.485414	0.126443	0.117867
	C142	C	0.503460	0.881648	0.119908
	C143	C	0.485481	0.883765	0.877183
	C144	C	0.376156	0.890838	0.675019
	C145	C	0.616883	0.119996	0.675440
	C146	C	0.614883	0.891717	0.321355
	C147	C	0.376148	0.119423	0.317640
	C148	C	0.670179	0.385853	0.880994
	C149	C	0.672009	0.623763	0.110607
	C150	C	0.319668	0.624275	0.880930
	C151	C	0.315016	0.382444	0.110391
	C152	C	0.881592	0.686961	0.371896
	C153	C	0.109455	0.684766	0.614898
	C154	C	0.881327	0.325961	0.616577
	C155	C	0.109874	0.330336	0.373659
	C156	C	0.880114	0.385130	0.672490
	C157	C	0.110015	0.626063	0.671213
	C158	C	0.880941	0.627779	0.315765
	C159	C	0.110634	0.390042	0.318766
	C160	C	0.374339	0.683624	0.882379
	C161	C	0.615577	0.681554	0.111073
	C162	C	0.613737	0.328238	0.881878
	C163	C	0.371904	0.325635	0.110776
	C164	C	0.673033	0.892061	0.378993
	C165	C	0.675672	0.119727	0.618495
	C166	C	0.316011	0.892177	0.619884
	C167	C	0.319392	0.120309	0.376313
	C168	C	0.873946	0.391727	0.174853
	C169	C	0.115483	0.620054	0.170417
	C170	C	0.112285	0.391241	0.818466
	C171	C	0.875641	0.619966	0.816664
	C172	C	0.172756	0.889436	0.381470
	C173	C	0.172142	0.125505	0.612332
	C174	C	0.817790	0.127880	0.381867
	C175	C	0.818811	0.884862	0.612032
	C176	C	0.379557	0.182504	0.876208
	C177	C	0.607542	0.185120	0.118621
	C178	C	0.380858	0.824281	0.120322
	C179	C	0.608194	0.828254	0.877292
	C180	C	0.380299	0.883687	0.176077
	C181	C	0.609161	0.125099	0.173018
	C182	C	0.379144	0.123393	0.819841
	C183	C	0.609025	0.886816	0.821607
	C184	C	0.875815	0.184245	0.380837
	C185	C	0.116153	0.184136	0.610995
	C186	C	0.115951	0.832305	0.380972
	C187	C	0.874380	0.826709	0.610648
	C188	C	0.171597	0.391409	0.874948
	C189	C	0.174621	0.618936	0.114306
	C190	C	0.815669	0.391436	0.117226
	C191	C	0.816191	0.618776	0.872344
	C192	C	0.397101	0.099482	0.595941
	C193	C	0.596021	0.912152	0.598360
	C194	C	0.595086	0.099326	0.398357
	C195	C	0.395699	0.912584	0.400592
	C196	C	0.591759	0.407295	0.090945
	C197	C	0.592298	0.605809	0.900732
	C198	C	0.397188	0.601221	0.091707
	C199	C	0.395840	0.406210	0.900991
	C200	C	0.089682	0.608816	0.395339
	C201	C	0.901119	0.604791	0.591769
	C202	C	0.089306	0.407771	0.593858
	C203	C	0.901825	0.408025	0.398246
	C204	C	0.894968	0.598810	0.091967
	C205	C	0.092441	0.412050	0.094120
	C206	C	0.095993	0.599629	0.894901
	C207	C	0.894148	0.411583	0.896213
	C208	C	0.092414	0.907194	0.591414
	C209	C	0.096551	0.107367	0.400699
	C210	C	0.899756	0.104001	0.590554
	C211	C	0.896546	0.909807	0.401751
	C212	C	0.588517	0.105800	0.899468
	C213	C	0.400320	0.102376	0.094360
	C214	C	0.589091	0.904639	0.096502
	C215	C	0.399534	0.905453	0.900072
	Zn216	Zn	0.495302	0.004920	0.748440
	Zn217	Zn	0.495404	0.005266	0.246375
	Zn218	Zn	0.742637	0.504917	-0.005306
	Zn219	Zn	0.246131	0.504590	-0.004412
	Zn220	Zn	-0.005001	0.758016	0.494828
	Zn221	Zn	-0.003861	0.256299	0.495042
	Zn222	Zn	-0.005596	0.506463	0.744440
	Zn223	Zn	-0.004627	0.506912	0.245277
	Zn224	Zn	0.494296	0.754505	-0.002912
	Zn225	Zn	0.493519	0.256318	-0.002764
	Zn226	Zn	0.747342	0.006543	0.497564
	Zn227	Zn	0.244636	0.006226	0.497834
	N228	N	0.411294	0.967696	0.674865
	N229	N	0.582256	0.042816	0.677048
	N230	N	0.580774	0.968557	0.319519
	N231	N	0.409039	0.042083	0.317374
	N232	N	0.670648	0.420136	0.958470
	N233	N	0.672487	0.590784	0.032417
	N234	N	0.319427	0.588505	0.958380
	N235	N	0.315254	0.417492	0.032498
	N236	N	0.959388	0.689225	0.405879
	N237	N	0.031909	0.685810	0.580453
	N238	N	0.959335	0.325139	0.583002
	N239	N	0.032291	0.327911	0.407840
	N240	N	0.957027	0.420802	0.672825
	N241	N	0.032587	0.591557	0.671702
	N242	N	0.958021	0.593851	0.315597
	N243	N	0.033578	0.424272	0.319354
	N244	N	0.407534	0.684360	0.960818
	N245	N	0.581491	0.684040	0.033127
	N246	N	0.579784	0.327326	0.959951
	N247	N	0.406647	0.325815	0.033100
	N248	N	0.674830	0.969273	0.412083
	N249	N	0.677154	0.042537	0.585285
	N250	N	0.314254	0.969865	0.586206
	N251	N	0.317737	0.043500	0.412245
	N252	N	0.908419	0.468720	0.174581
	N253	N	0.079991	0.543472	0.171745
	N254	N	0.079377	0.468579	0.817024
	N255	N	0.909861	0.543206	0.816913
	N256	N	0.172742	0.922200	0.459653
	N257	N	0.173561	0.092091	0.534282
	N258	N	0.817597	0.093351	0.459947
	N259	N	0.818355	0.920716	0.534508
	N260	N	0.457278	0.185084	0.910219
	N261	N	0.529753	0.186048	0.085102
	N262	N	0.458516	0.822836	0.086252
	N263	N	0.530593	0.826496	0.911220
	N264	N	0.457595	0.918704	0.176066
	N265	N	0.532346	0.089182	0.172816
	N266	N	0.456750	0.090050	0.819336
	N267	N	0.531664	0.920622	0.821365
	N268	N	0.910930	0.184224	0.458346
	N269	N	0.083680	0.186681	0.532341
	N270	N	0.081253	0.829914	0.458908
	N271	N	0.908135	0.827000	0.532441
	N272	N	0.174974	0.468846	0.907808
	N273	N	0.175316	0.541472	0.081369
	N274	N	0.814368	0.468413	0.081644
	N275	N	0.813713	0.541266	0.906457
	O276	O	0.946833	-0.147982	0.943143
	H277	H	0.933655	-0.154676	0.943749
	H278	H	0.956179	-0.146402	0.944683
	O279	O	0.587641	0.423426	0.539962
	H280	H	0.580743	0.427148	0.538398
	H281	H	0.595943	0.429169	0.549041
	O282	O	0.401809	0.419519	0.646422
	H283	H	0.415774	0.428552	0.655121
	H284	H	0.398272	0.420015	0.646644
	O285	O	0.542615	0.555693	0.410383
	H286	H	0.540642	0.553145	0.399817
	H287	H	0.535741	0.551653	0.415287
	O288	O	0.564741	0.412302	0.431841
	H289	H	0.565709	0.396454	0.441895
	H290	H	0.566615	0.408453	0.433648
	O291	O	-0.027615	-0.067403	0.886125
	H292	H	-0.019464	-0.066306	0.885748
	H293	H	-0.026785	-0.063691	0.891938
	O294	O	1.067927	1.042536	0.001131
	H295	H	1.062134	1.043500	0.000347
	H296	H	1.068934	1.041517	0.008878
	O297	O	1.002385	1.006669	0.105079
	H298	H	0.999570	1.004227	0.122675
	H299	H	1.002663	1.013110	0.104530
	O300	O	0.512037	0.514663	0.375583
	H301	H	0.516330	0.514353	0.364776
	H302	H	0.510197	0.514379	0.369400
	O303	O	0.351236	0.499956	0.417811
	H304	H	0.346688	0.501608	0.422695
	H305	H	0.357297	0.483580	0.422367
	O306	O	0.517876	0.488784	0.439288
	H307	H	0.521937	0.499921	0.444307
	H308	H	0.520845	0.494822	0.429997
	O309	O	0.457878	0.624213	0.494284
	H310	H	0.457824	0.615885	0.496054
	H311	H	0.460684	0.634772	0.489282
	O312	O	0.888277	0.914276	1.090228
	H313	H	0.878351	0.912385	1.088228
	H314	H	0.892055	0.907046	1.084680
	O315	O	0.975680	0.959455	0.078019
	H316	H	0.984976	0.951216	0.076890
	H317	H	0.982676	0.954911	0.092855
	O318	O	0.359445	0.335113	0.556048
	H319	H	0.352854	0.332443	0.546278
	H320	H	0.362793	0.335327	0.558711
	O321	O	0.536760	0.474912	0.660143
	H322	H	0.534505	0.482135	0.663974
	H323	H	0.539831	0.501451	0.660128
	O324	O	-0.080526	0.902841	0.990766
	H325	H	-0.093465	0.900789	0.995457
	H326	H	-0.077229	0.914179	0.978095
	O327	O	0.016265	0.901224	0.950608
	H328	H	0.005760	0.901322	0.968195
	H329	H	0.015720	0.896686	0.946624
	O330	O	0.082044	0.025777	0.010299
	H331	H	0.088319	0.019601	0.009364
	H332	H	0.080076	0.024336	0.016746
	O333	O	0.512618	0.514065	0.516304
	H334	H	0.516842	0.514253	0.522040
	H335	H	0.499159	0.516771	0.521812
	O336	O	-0.147728	0.029371	0.039158
	H337	H	-0.155436	0.030005	0.030400
	H338	H	-0.149306	0.019551	0.042281
	O339	O	0.004074	-0.084010	0.064087
	H340	H	0.001997	-0.073785	0.072088
	H341	H	0.005328	-0.081575	0.062139
	O342	O	0.474559	0.430808	0.594567
	H343	H	0.458388	0.430528	0.593599
	H344	H	0.472425	0.417854	0.604428
	O345	O	-0.044980	1.127271	0.914189
	H346	H	-0.027095	1.127964	0.911281
	H347	H	-0.046960	1.125846	0.913302
	O348	O	0.349120	0.551155	0.450058
	H349	H	0.347134	0.560369	0.441659
	H350	H	0.343997	0.560877	0.457746
	O351	O	0.607671	0.478233	0.409226
	H352	H	0.610528	0.477183	0.406363
	H353	H	0.603395	0.485170	0.417791
	O354	O	0.387783	0.473231	0.560281
	H355	H	0.381702	0.461195	0.543268
	H356	H	0.386461	0.472796	0.570764
	O357	O	0.502379	0.642317	0.560292
	H358	H	0.496846	0.636524	0.560558
	H359	H	0.498888	0.644118	0.569927
	O360	O	0.927605	-0.014387	1.081128
	H361	H	0.915528	-0.023330	1.088013
	H362	H	0.927774	-0.025259	1.085118
	O363	O	0.626836	0.582998	0.384292
	H364	H	0.620253	0.580317	0.392540
	H365	H	0.611178	0.586242	0.380283
	O366	O	0.529667	0.432423	0.491427
	H367	H	0.534697	0.429021	0.483188
	H368	H	0.520236	0.433905	0.500645
	O369	O	1.065141	0.093618	0.154738
	H370	H	1.056100	0.099917	0.153895
	H371	H	1.062074	0.104276	0.153553
	O372	O	0.443440	0.493822	0.411362
	H373	H	0.453981	0.485254	0.419833
	H374	H	0.447925	0.478123	0.401722
	O375	O	1.048883	0.009429	0.992818
	H376	H	1.040922	0.016915	0.994817
	H377	H	1.041544	0.006780	0.979587
	O378	O	0.008938	1.095287	0.014758
	H379	H	0.003008	1.089317	0.021639
	H380	H	-0.001572	1.099000	0.017758
	O381	O	0.450017	0.493023	0.470240
	H382	H	0.427421	0.485590	0.479281
	H383	H	0.445286	0.475439	0.464110
	O384	O	0.936563	1.122687	0.071799
	H385	H	0.937884	1.125536	0.069751
	H386	H	0.929749	1.103881	0.064104
	O387	O	1.018275	0.095726	0.891736
	H388	H	1.020389	0.100471	0.889754
	H389	H	1.020069	0.096883	0.890960
	O390	O	0.916559	1.052034	-0.139406
	H391	H	0.905074	1.059498	-0.145133
	H392	H	0.915823	1.047403	-0.141855
	O393	O	0.605038	0.601386	0.651081
	H394	H	0.599522	0.600620	0.653989
	H395	H	0.607715	0.604283	0.657415
