data_Molecule from HDF5

_cell_length_a		16.184253
_cell_length_b		16.531895
_cell_length_c		16.210065
_cell_angle_alpha	90.051697
_cell_angle_beta	89.923454
_cell_angle_gamma	90.242986
_symmetry_space_group_name_H-M	'P 1'
_symmetry_Int_Tables_number		1

loop_
	_symmetry_equiv_pos_as_xyz
	x,y,z

loop_
	_atom_site_label
	_atom_site_type_symbol
	_atom_site_fract_x
	_atom_site_fract_y
	_atom_site_fract_z
	H0	H	0.394585	0.832571	0.729605
	H1	H	0.603521	0.151255	0.726797
	H2	H	0.601138	0.832962	0.286974
	H3	H	0.396308	0.150991	0.291255
	H4	H	0.709811	0.397490	0.845169
	H5	H	0.716479	0.594850	0.172635
	H6	H	0.284005	0.592727	0.845929
	H7	H	0.282916	0.394328	0.173002
	H8	H	0.835994	0.708960	0.401725
	H9	H	0.159400	0.709585	0.611548
	H10	H	0.837070	0.268042	0.612857
	H11	H	0.159695	0.270232	0.400834
	H12	H	0.833473	0.390045	0.722372
	H13	H	0.161661	0.588789	0.722103
	H14	H	0.833653	0.587356	0.294062
	H15	H	0.159926	0.390091	0.290395
	H16	H	0.393978	0.714272	0.849226
	H17	H	0.604079	0.713543	0.171606
	H18	H	0.606776	0.272390	0.849441
	H19	H	0.393318	0.273167	0.171071
	H20	H	0.714257	0.829142	0.404968
	H21	H	0.722228	0.147204	0.612913
	H22	H	0.281455	0.829815	0.608200
	H23	H	0.278565	0.149401	0.404485
	H24	H	0.893971	0.330421	0.225738
	H25	H	0.099862	0.650980	0.229336
	H26	H	0.099506	0.330716	0.791660
	H27	H	0.894680	0.649623	0.787701
	H28	H	0.213431	0.890651	0.342998
	H29	H	0.210732	0.086743	0.671282
	H30	H	0.784072	0.085520	0.344252
	H31	H	0.781802	0.888198	0.671065
	H32	H	0.337040	0.211730	0.906602
	H33	H	0.661324	0.213057	0.114015
	H34	H	0.338204	0.772086	0.116830
	H35	H	0.661300	0.775415	0.905106
	H36	H	0.334197	0.894320	0.223572
	H37	H	0.662245	0.093679	0.226134
	H38	H	0.335065	0.092139	0.794103
	H39	H	0.662667	0.895875	0.794028
	H40	H	0.891824	0.208517	0.347007
	H41	H	0.102283	0.208094	0.668620
	H42	H	0.100222	0.771338	0.344498
	H43	H	0.892018	0.769935	0.669482
	H44	H	0.218626	0.333550	0.906491
	H45	H	0.215707	0.653537	0.111149
	H46	H	0.777895	0.331861	0.109644
	H47	H	0.782499	0.652468	0.907616
	H48	H	0.406406	0.106445	0.604084
	H49	H	0.597379	0.876060	0.592480
	H50	H	0.589820	0.105516	0.412081
	H51	H	0.407338	0.878137	0.420110
	H52	H	0.589764	0.395009	0.129730
	H53	H	0.592034	0.594454	0.890809
	H54	H	0.402864	0.583737	0.127764
	H55	H	0.400697	0.401125	0.890759
	H56	H	0.112008	0.583034	0.428150
	H57	H	0.886145	0.574509	0.589770
	H58	H	0.113471	0.397692	0.595418
	H59	H	0.875434	0.386631	0.411108
	H60	H	0.113738	0.399864	0.599485
	H61	H	0.879744	0.576578	0.607904
	H62	H	0.110580	0.573286	0.418792
	H63	H	0.885670	0.393645	0.433305
	H64	H	0.413645	0.579202	0.122343
	H65	H	0.594422	0.579036	0.894260
	H66	H	0.592835	0.408539	0.124814
	H67	H	0.414113	0.411072	0.898695
	H68	H	0.585137	0.100728	0.424187
	H69	H	0.590716	0.873124	0.613834
	H70	H	0.407020	0.103330	0.597897
	H71	H	0.403531	0.876426	0.414893
	H72	H	0.901660	0.609442	0.108570
	H73	H	0.088920	0.382088	0.090978
	H74	H	0.089729	0.604855	0.919291
	H75	H	0.902086	0.374531	0.911979
	H76	H	0.091795	0.896802	0.624236
	H77	H	0.091134	0.075013	0.391472
	H78	H	0.902584	0.081806	0.626109
	H79	H	0.906718	0.893959	0.390144
	H80	H	0.615452	0.089500	0.924451
	H81	H	0.383645	0.084897	0.097015
	H82	H	0.613843	0.900475	0.092399
	H83	H	0.385013	0.907393	0.922260
	H84	H	0.612710	0.909540	0.098545
	H85	H	0.382377	0.083635	0.100987
	H86	H	0.613385	0.079474	0.919701
	H87	H	0.381171	0.900664	0.916800
	H88	H	0.911578	0.071920	0.620037
	H89	H	0.080989	0.081078	0.392980
	H90	H	0.087463	0.901577	0.621577
	H91	H	0.905607	0.897813	0.391412
	H92	H	0.092389	0.606555	0.914832
	H93	H	0.096301	0.376055	0.101540
	H94	H	0.918857	0.601806	0.103873
	H95	H	0.908092	0.379016	0.915838
	H96	H	0.400907	0.105901	0.599796
	H97	H	0.575899	0.881744	0.599507
	H98	H	0.598419	0.104678	0.423185
	H99	H	0.410123	0.877674	0.414332
	H100	H	0.579679	0.402802	0.123220
	H101	H	0.579975	0.586550	0.896697
	H102	H	0.412642	0.591460	0.126076
	H103	H	0.416926	0.393634	0.893884
	H104	H	0.115737	0.584798	0.414960
	H105	H	0.878681	0.590738	0.594854
	H106	H	0.115369	0.396066	0.599391
	H107	H	0.883708	0.409800	0.414729
	H108	H	0.904610	0.602212	0.090438
	H109	H	0.082549	0.379765	0.103802
	H110	H	0.087374	0.604704	0.914209
	H111	H	0.901319	0.377884	0.920083
	H112	H	0.084540	0.894805	0.622817
	H113	H	0.090563	0.086492	0.387643
	H114	H	0.916243	0.085309	0.623427
	H115	H	0.909650	0.896844	0.392360
	H116	H	0.617818	0.087577	0.913381
	H117	H	0.382054	0.087949	0.099391
	H118	H	0.616936	0.900832	0.102980
	H119	H	0.383920	0.899256	0.925444
	C120	C	0.375141	-0.000453	0.630895
	C121	C	0.620814	0.982181	0.631917
	C122	C	0.620707	-0.001503	0.387164
	C123	C	0.376281	0.982523	0.386391
	C124	C	0.618724	0.372972	0.018160
	C125	C	0.620192	0.615976	1.001433
	C126	C	0.377960	0.615391	0.018448
	C127	C	0.378419	0.371846	1.001264
	C128	C	0.005657	0.610351	0.388675
	C129	C	0.988928	0.611277	0.628484
	C130	C	0.006514	0.367862	0.628738
	C131	C	0.989052	0.367405	0.387310
	C132	C	0.876281	0.499143	0.130849
	C133	C	0.119955	0.484395	0.130822
	C134	C	0.120446	0.499904	0.886457
	C135	C	0.875027	0.483031	0.885932
	C136	C	0.118722	0.867751	0.515270
	C137	C	0.118479	0.110749	0.498275
	C138	C	0.877989	0.109535	0.516385
	C139	C	0.876456	0.866677	0.499073
	C140	C	0.507910	0.115303	0.888223
	C141	C	0.490490	0.115313	0.130270
	C142	C	0.507324	0.872427	0.130119
	C143	C	0.490623	0.872476	0.889610
	C144	C	0.375675	0.879680	0.689211
	C145	C	0.622281	0.102523	0.688494
	C146	C	0.620341	0.879628	0.327165
	C147	C	0.376915	0.103063	0.329798
	C148	C	0.673926	0.375727	0.894783
	C149	C	0.678036	0.614860	0.123780
	C150	C	0.321106	0.613859	0.895459
	C151	C	0.320656	0.373455	0.123849
	C152	C	0.883886	0.668475	0.385371
	C153	C	0.110985	0.669942	0.629898
	C154	C	0.884849	0.308716	0.630708
	C155	C	0.110880	0.309859	0.383885
	C156	C	0.883303	0.369366	0.685139
	C157	C	0.112187	0.609992	0.684781
	C158	C	0.882765	0.608218	0.331445
	C159	C	0.111234	0.369302	0.328723
	C160	C	0.376327	0.673896	0.896974
	C161	C	0.622477	0.674099	0.123226
	C162	C	0.622229	0.313695	0.896929
	C163	C	0.375627	0.313234	0.122843
	C164	C	0.676591	0.877873	0.386275
	C165	C	0.681278	0.100821	0.631624
	C166	C	0.318983	0.878415	0.629266
	C167	C	0.318176	0.102325	0.386059
	C168	C	0.875077	0.378459	0.187221
	C169	C	0.119718	0.603778	0.189956
	C170	C	0.119695	0.379263	0.829703
	C171	C	0.876010	0.602439	0.827652
	C172	C	0.175381	0.869820	0.392145
	C173	C	0.174477	0.108332	0.621489
	C174	C	0.821244	0.106879	0.393548
	C175	C	0.819418	0.867956	0.621894
	C176	C	0.385590	0.172440	0.887654
	C177	C	0.612962	0.173210	0.132193
	C178	C	0.385926	0.812935	0.133203
	C179	C	0.612965	0.814932	0.887459
	C180	C	0.383897	0.873658	0.186554
	C181	C	0.613436	0.113621	0.187618
	C182	C	0.384467	0.113107	0.831665
	C183	C	0.613609	0.874559	0.831994
	C184	C	0.875267	0.167827	0.394864
	C185	C	0.120155	0.168414	0.620401
	C186	C	0.119345	0.810230	0.393121
	C187	C	0.874428	0.809112	0.621139
	C188	C	0.179023	0.380617	0.886865
	C189	C	0.177366	0.604991	0.130957
	C190	C	0.817068	0.379433	0.129867
	C191	C	0.819798	0.603789	0.887170
	C192	C	0.398179	0.083379	0.607457
	C193	C	0.595253	0.898396	0.608700
	C194	C	0.597761	0.082096	0.412378
	C195	C	0.400000	0.899059	0.409686
	C196	C	0.594461	0.395572	0.103695
	C197	C	0.595799	0.593271	0.916117
	C198	C	0.402493	0.591689	0.103424
	C199	C	0.403483	0.395248	0.916447
	C200	C	0.090683	0.587122	0.413340
	C201	C	0.903709	0.587599	0.604420
	C202	C	0.091913	0.391224	0.604842
	C203	C	0.903826	0.390133	0.412333
	C204	C	0.901131	0.582540	0.107702
	C205	C	0.096205	0.401056	0.106103
	C206	C	0.096752	0.583711	0.909457
	C207	C	0.897289	0.398849	0.909318
	C208	C	0.094965	0.890921	0.600648
	C209	C	0.094457	0.087699	0.412948
	C210	C	0.902804	0.086369	0.601316
	C211	C	0.900355	0.889551	0.413578
	C212	C	0.593227	0.092152	0.912162
	C213	C	0.405014	0.092287	0.106070
	C214	C	0.592353	0.896632	0.105181
	C215	C	0.405554	0.895651	0.914355
	Zn216	Zn	0.498465	-0.007120	0.760345
	Zn217	Zn	0.498641	-0.007357	0.258017
	Zn218	Zn	0.746809	0.492903	0.009547
	Zn219	Zn	0.250178	0.493381	0.009148
	Zn220	Zn	-0.003291	0.739272	0.507643
	Zn221	Zn	-0.001756	0.239111	0.507418
	Zn222	Zn	-0.002455	0.490267	0.756789
	Zn223	Zn	-0.002784	0.489732	0.260690
	Zn224	Zn	0.499183	0.744183	0.010329
	Zn225	Zn	0.499835	0.244088	0.009853
	Zn226	Zn	0.749417	-0.011894	0.508679
	Zn227	Zn	0.246591	-0.009642	0.506635
	N228	N	0.409790	0.956023	0.690550
	N229	N	0.585107	0.027632	0.688389
	N230	N	0.586370	0.955686	0.327531
	N231	N	0.412703	0.027820	0.330043
	N232	N	0.671747	0.412039	0.971166
	N233	N	0.677003	0.579561	0.046938
	N234	N	0.322014	0.578180	0.971910
	N235	N	0.322266	0.409107	0.047312
	N236	N	0.961175	0.669838	0.420210
	N237	N	0.033084	0.670978	0.595826
	N238	N	0.962537	0.307575	0.596344
	N239	N	0.033732	0.308695	0.419693
	N240	N	0.960140	0.405393	0.684258
	N241	N	0.035428	0.574278	0.684084
	N242	N	0.959361	0.572384	0.333630
	N243	N	0.034495	0.404427	0.330764
	N244	N	0.410631	0.674985	0.974481
	N245	N	0.587180	0.674987	0.046135
	N246	N	0.588365	0.312065	0.974702
	N247	N	0.410691	0.311862	0.045486
	N248	N	0.676733	0.952800	0.423180
	N249	N	0.680588	0.024816	0.597319
	N250	N	0.318467	0.953892	0.593660
	N251	N	0.317612	0.026521	0.420499
	N252	N	0.911239	0.453830	0.188070
	N253	N	0.084996	0.527804	0.190227
	N254	N	0.084014	0.454514	0.829247
	N255	N	0.909587	0.526175	0.826704
	N256	N	0.175297	0.904845	0.469215
	N257	N	0.173626	0.073123	0.544571
	N258	N	0.822776	0.071134	0.470115
	N259	N	0.820263	0.902842	0.544998
	N260	N	0.463334	0.174082	0.921717
	N261	N	0.535456	0.174367	0.097471
	N262	N	0.463615	0.812143	0.098908
	N263	N	0.535425	0.813408	0.922389
	N264	N	0.460539	0.910198	0.184773
	N265	N	0.536205	0.078533	0.186952
	N266	N	0.461749	0.078638	0.831443
	N267	N	0.536626	0.909616	0.833156
	N268	N	0.909728	0.169649	0.472250
	N269	N	0.086424	0.170310	0.542667
	N270	N	0.084909	0.809014	0.470710
	N271	N	0.908998	0.808185	0.543687
	N272	N	0.179708	0.456634	0.921165
	N273	N	0.177770	0.529696	0.095048
	N274	N	0.817641	0.455411	0.095534
	N275	N	0.819353	0.528566	0.922972
	O276	O	0.609340	0.562976	0.700411
	H277	H	0.609963	0.572431	0.695362
	H278	H	0.621563	0.567458	0.716475
	O279	O	0.695186	0.473275	0.452398
	H280	H	0.713683	0.478602	0.447270
	H281	H	0.677516	0.473023	0.458251
	O282	O	0.861309	0.008669	0.997566
	H283	H	0.876052	0.003353	1.005511
	H284	H	0.865848	0.006141	0.985824
	O285	O	0.346350	0.297264	0.508159
	H286	H	0.357046	0.309104	0.482836
	H287	H	0.331051	0.281936	0.501443
	O288	O	0.904589	0.958922	1.035948
	H289	H	0.901872	0.945073	1.032106
	H290	H	0.901958	0.965647	1.039462
	O291	O	0.446975	1.554694	-0.617823
	H292	H	0.436768	1.559165	-0.623564
	H293	H	0.453444	1.561828	-0.615201
	O294	O	0.682014	0.570573	0.582886
	H295	H	0.680965	0.572556	0.584307
	H296	H	0.678021	0.572045	0.600295
	O297	O	0.441459	0.455449	0.483329
	H298	H	0.447330	0.451117	0.484099
	H299	H	0.451694	0.445570	0.483553
	O300	O	0.469052	0.305802	0.662251
	H301	H	0.468775	0.287833	0.689091
	H302	H	0.438188	0.307214	0.658490
	O303	O	0.350669	0.626492	0.384820
	H304	H	0.352632	0.619626	0.393529
	H305	H	0.353978	0.617790	0.375743
	O306	O	0.586626	0.499883	0.495171
	H307	H	0.585174	0.505324	0.504945
	H308	H	0.593058	0.495260	0.504552
	O309	O	0.493834	0.448093	0.627854
	H310	H	0.506287	0.460302	0.632948
	H311	H	0.491816	0.453117	0.631133
	O312	O	0.143443	0.072311	0.155032
	H313	H	0.147578	0.072476	0.142213
	H314	H	0.135359	0.069040	0.152226
	O315	O	0.430046	0.654248	0.657706
	H316	H	0.430405	0.631220	0.656536
	H317	H	0.438497	0.658086	0.649372
	O318	O	-0.045673	0.953397	0.919638
	H319	H	-0.045075	0.940861	0.915656
	H320	H	-0.054291	0.972639	0.909614
	O321	O	0.333265	0.532864	0.654473
	H322	H	0.343708	0.539596	0.650439
	H323	H	0.342493	0.537280	0.660247
	O324	O	-0.016834	1.022652	-0.138727
	H325	H	-0.024244	1.030031	-0.137995
	H326	H	-0.022335	1.023194	-0.134702
	O327	O	0.341125	0.460788	0.350194
	H328	H	0.345631	0.456812	0.343445
	H329	H	0.337239	0.464179	0.351046
	O330	O	-0.064784	-0.082603	1.170860
	H331	H	-0.049305	-0.079684	1.171267
	H332	H	-0.061402	-0.073214	1.167223
	O333	O	-0.130647	-0.000845	0.890617
	H334	H	-0.142565	-0.009329	0.898817
	H335	H	-0.132072	-0.007347	0.904695
	O336	O	0.537498	0.531431	0.568077
	H337	H	0.542615	0.534962	0.560190
	H338	H	0.547352	0.514154	0.567592
	O339	O	0.979271	-0.181570	-0.025423
	H340	H	0.993177	-0.173933	-0.003738
	H341	H	0.969215	-0.194639	-0.016993
	O342	O	0.056544	-0.083698	0.095585
	H343	H	0.058286	-0.098554	0.086795
	H344	H	0.056473	-0.074818	0.091122
	O345	O	0.956286	-0.049044	1.033677
	H346	H	0.959538	-0.053824	1.032165
	H347	H	0.958993	-0.051796	1.054479
	O348	O	1.045120	0.879625	-0.010945
	H349	H	1.051844	0.876622	-0.016624
	H350	H	1.064622	0.872920	-0.023704
	O351	O	0.467801	0.320203	0.404171
	H352	H	0.464639	0.315748	0.383753
	H353	H	0.479567	0.322994	0.402803
	O354	O	1.112693	0.013865	1.036849
	H355	H	1.106642	0.028810	1.031340
	H356	H	1.120152	0.019657	1.026887
	O357	O	0.584738	0.630094	0.539266
	H358	H	0.573797	0.636711	0.520766
	H359	H	0.581582	0.646628	0.561316
	O360	O	0.417460	0.605279	0.502489
	H361	H	0.417024	0.593462	0.505513
	H362	H	0.428651	0.609589	0.495527
	O363	O	-0.115521	0.879727	1.146048
	H364	H	-0.097226	0.878352	1.155706
	H365	H	-0.119435	0.883120	1.146619
	O366	O	0.423150	0.479720	0.360374
	H367	H	0.434637	0.476042	0.362236
	H368	H	0.417715	0.479929	0.340605
	O369	O	0.160283	0.828625	-0.096298
	H370	H	0.163627	0.828126	-0.104430
	H371	H	0.179058	0.831103	-0.105220
	O372	O	0.479377	0.671416	0.493783
	H373	H	0.458597	0.688867	0.491368
	H374	H	0.493861	0.672593	0.482662
	O375	O	0.549070	0.488627	0.336698
	H376	H	0.556857	0.485432	0.316841
	H377	H	0.544261	0.493622	0.354913
	O378	O	1.063345	1.103255	-0.090123
	H379	H	1.066194	1.109248	-0.095925
	H380	H	1.054717	1.107271	-0.089913
	O381	O	1.073522	-0.003277	0.129838
	H382	H	1.096035	-0.015361	0.116648
	H383	H	1.074327	0.028333	0.134324
	O384	O	0.986328	1.145278	-0.018116
	H385	H	0.978989	1.146212	-0.030758
	H386	H	1.000773	1.146005	-0.006805
	O387	O	0.011676	-0.176358	-0.057840
	H388	H	0.023618	-0.190132	-0.076467
	H389	H	0.007540	-0.166939	-0.075276
	O390	O	-0.028952	1.139999	-0.086967
	H391	H	-0.035305	1.129952	-0.080246
	H392	H	-0.035278	1.138296	-0.074468
	O393	O	0.492072	0.314539	0.610179
	H394	H	0.474342	0.312788	0.615653
	H395	H	0.470707	0.314262	0.604903
	O396	O	0.310110	0.375957	0.603341
	H397	H	0.297307	0.375985	0.578923
	H398	H	0.305710	0.397248	0.609970
	O399	O	0.094514	1.177490	1.126814
	H400	H	0.098446	1.177166	1.112918
	H401	H	0.095280	1.172610	1.130051
	O402	O	0.599958	0.353503	0.391200
	H403	H	0.611261	0.361282	0.402783
	H404	H	0.612899	0.348509	0.395238
	O405	O	0.931693	1.054150	-0.026211
	H406	H	0.921143	1.047985	-0.015521
	H407	H	0.934566	1.041284	-0.024796
	O408	O	1.116640	1.010469	-0.144231
	H409	H	1.114520	1.008171	-0.153959
	H410	H	1.109957	1.006631	-0.156434
	O411	O	1.032446	0.075851	0.969976
	H412	H	1.025779	0.078090	0.963572
	H413	H	1.036406	0.080616	0.973939
	O414	O	0.582718	0.482945	0.608027
	H415	H	0.561949	0.477353	0.618065
	H416	H	0.591972	0.472163	0.615366
	O417	O	0.625170	0.418697	0.440580
	H418	H	0.622969	0.405567	0.441560
	H419	H	0.633213	0.415326	0.434450
