data_Molecule from HDF5

_cell_length_a		16.150728
_cell_length_b		16.178086
_cell_length_c		16.319675
_cell_angle_alpha	89.918019
_cell_angle_beta	89.871678
_cell_angle_gamma	90.412013
_symmetry_space_group_name_H-M	'P 1'
_symmetry_Int_Tables_number		1

loop_
	_symmetry_equiv_pos_as_xyz
	x,y,z

loop_
	_atom_site_label
	_atom_site_type_symbol
	_atom_site_fract_x
	_atom_site_fract_y
	_atom_site_fract_z
	H0	H	0.403255	0.835970	0.715489
	H1	H	0.608910	0.162144	0.716481
	H2	H	0.607330	0.835459	0.282016
	H3	H	0.406762	0.163486	0.282659
	H4	H	0.721587	0.398351	0.836684
	H5	H	0.720969	0.600758	0.162186
	H6	H	0.292168	0.594264	0.835392
	H7	H	0.287295	0.397608	0.162720
	H8	H	0.840101	0.714302	0.402422
	H9	H	0.170743	0.715104	0.597465
	H10	H	0.841866	0.283109	0.600743
	H11	H	0.170818	0.289197	0.401495
	H12	H	0.841861	0.397619	0.716546
	H13	H	0.169492	0.603113	0.714650
	H14	H	0.841001	0.602735	0.283695
	H15	H	0.169005	0.402580	0.283947
	H16	H	0.404819	0.713673	0.836252
	H17	H	0.605331	0.716885	0.161563
	H18	H	0.602439	0.285666	0.835121
	H19	H	0.402357	0.280262	0.161116
	H20	H	0.717883	0.833390	0.402443
	H21	H	0.721343	0.163411	0.598380
	H22	H	0.289402	0.836552	0.599130
	H23	H	0.295746	0.165472	0.402643
	H24	H	0.901344	0.336560	0.217685
	H25	H	0.106649	0.664326	0.214148
	H26	H	0.105400	0.337750	0.781984
	H27	H	0.905597	0.665014	0.783543
	H28	H	0.219335	0.903400	0.336699
	H29	H	0.222082	0.100148	0.663674
	H30	H	0.791957	0.098500	0.336542
	H31	H	0.789184	0.899492	0.663348
	H32	H	0.339475	0.209305	0.901037
	H33	H	0.668630	0.215140	0.097443
	H34	H	0.339937	0.783607	0.099512
	H35	H	0.668890	0.785856	0.901054
	H36	H	0.341463	0.895011	0.217346
	H37	H	0.669198	0.100967	0.213615
	H38	H	0.341207	0.097672	0.784558
	H39	H	0.668310	0.898521	0.783552
	H40	H	0.907096	0.215591	0.337520
	H41	H	0.107013	0.216809	0.663402
	H42	H	0.104374	0.787079	0.337195
	H43	H	0.906178	0.785090	0.663631
	H44	H	0.213485	0.333576	0.904038
	H45	H	0.219696	0.663740	0.096913
	H46	H	0.789836	0.334683	0.098013
	H47	H	0.791721	0.664966	0.902280
	H48	H	0.416392	0.114561	0.582687
	H49	H	0.596772	0.883953	0.583144
	H50	H	0.604141	0.118163	0.405555
	H51	H	0.415475	0.884914	0.413210
	H52	H	0.583492	0.405497	0.111312
	H53	H	0.605235	0.592097	0.880833
	H54	H	0.419301	0.592025	0.113392
	H55	H	0.401808	0.405655	0.880482
	H56	H	0.123020	0.591248	0.401486
	H57	H	0.891358	0.584098	0.589197
	H58	H	0.119705	0.413800	0.585006
	H59	H	0.885558	0.410604	0.396735
	H60	H	0.123187	0.415335	0.598607
	H61	H	0.885285	0.592144	0.601084
	H62	H	0.123196	0.599259	0.406042
	H63	H	0.885804	0.396485	0.414488
	H64	H	0.407419	0.595847	0.118550
	H65	H	0.595081	0.584131	0.887090
	H66	H	0.601161	0.396086	0.119340
	H67	H	0.412334	0.409096	0.885581
	H68	H	0.594449	0.115616	0.401281
	H69	H	0.603197	0.877787	0.597121
	H70	H	0.405888	0.121725	0.597742
	H71	H	0.406204	0.880733	0.407446
	H72	H	0.901425	0.620741	0.092754
	H73	H	0.083444	0.386298	0.092461
	H74	H	0.103588	0.619657	0.904288
	H75	H	0.901191	0.381596	0.910369
	H76	H	0.091266	0.905983	0.615886
	H77	H	0.109082	0.101107	0.380615
	H78	H	0.927320	0.098116	0.614607
	H79	H	0.912327	0.904028	0.382964
	H80	H	0.623643	0.099754	0.910149
	H81	H	0.387825	0.084636	0.097231
	H82	H	0.622465	0.908881	0.094544
	H83	H	0.386935	0.909827	0.902322
	H84	H	0.622106	0.905445	0.088698
	H85	H	0.384637	0.094565	0.094046
	H86	H	0.619417	0.085018	0.910910
	H87	H	0.384757	0.900996	0.906128
	H88	H	0.902508	0.099848	0.621970
	H89	H	0.102194	0.085277	0.385788
	H90	H	0.102558	0.902776	0.619782
	H91	H	0.910497	0.907729	0.383646
	H92	H	0.093984	0.617980	0.901804
	H93	H	0.101978	0.381857	0.085458
	H94	H	0.920479	0.618089	0.102002
	H95	H	0.917322	0.381488	0.895114
	H96	H	0.424555	0.117419	0.600389
	H97	H	0.587462	0.883367	0.597354
	H98	H	0.596408	0.113900	0.411896
	H99	H	0.416270	0.881916	0.401888
	H100	H	0.602169	0.417459	0.113938
	H101	H	0.591823	0.597655	0.883305
	H102	H	0.409002	0.583045	0.114492
	H103	H	0.411101	0.396746	0.880786
	H104	H	0.121077	0.591773	0.410560
	H105	H	0.887589	0.598678	0.587311
	H106	H	0.125135	0.402898	0.592503
	H107	H	0.893061	0.418393	0.416869
	H108	H	0.917952	0.612506	0.081759
	H109	H	0.097696	0.377940	0.104299
	H110	H	0.097352	0.616203	0.911932
	H111	H	0.921190	0.388420	0.915473
	H112	H	0.099827	0.914788	0.615849
	H113	H	0.091436	0.100087	0.385542
	H114	H	0.911170	0.077533	0.612604
	H115	H	0.914084	0.907139	0.383552
	H116	H	0.625139	0.091369	0.898546
	H117	H	0.389244	0.087353	0.087541
	H118	H	0.620228	0.910788	0.089105
	H119	H	0.388283	0.907428	0.911361
	C120	C	0.384820	0.009382	0.622057
	C121	C	0.626533	0.990136	0.621531
	C122	C	0.627163	0.007252	0.377445
	C123	C	0.384872	0.991334	0.378470
	C124	C	0.624914	0.377486	0.007112
	C125	C	0.626403	0.621428	0.991205
	C126	C	0.382874	0.619409	0.007738
	C127	C	0.380191	0.375177	0.990552
	C128	C	0.013415	0.623004	0.377845
	C129	C	0.996986	0.621758	0.620794
	C130	C	0.014455	0.379517	0.621629
	C131	C	0.996856	0.379976	0.379527
	C132	C	0.882743	0.508633	0.122152
	C133	C	0.125141	0.490808	0.121712
	C134	C	0.125909	0.509069	0.877976
	C135	C	0.883631	0.491910	0.877673
	C136	C	0.126543	0.879547	0.509068
	C137	C	0.129566	0.123733	0.491918
	C138	C	0.884548	0.121357	0.508704
	C139	C	0.883233	0.877466	0.491563
	C140	C	0.513576	0.119712	0.877841
	C141	C	0.495859	0.120225	0.121177
	C142	C	0.513449	0.877646	0.120935
	C143	C	0.495498	0.877308	0.877941
	C144	C	0.384254	0.885158	0.677461
	C145	C	0.627356	0.113553	0.677769
	C146	C	0.626563	0.884248	0.320799
	C147	C	0.387004	0.114610	0.321640
	C148	C	0.682108	0.379065	0.884892
	C149	C	0.682627	0.620469	0.113488
	C150	C	0.328559	0.616229	0.884544
	C151	C	0.325226	0.377495	0.113629
	C152	C	0.889631	0.677561	0.381204
	C153	C	0.121183	0.677818	0.618133
	C154	C	0.890952	0.321682	0.620802
	C155	C	0.121214	0.326149	0.381410
	C156	C	0.891009	0.378769	0.678262
	C157	C	0.120437	0.622001	0.676352
	C158	C	0.890028	0.621973	0.322074
	C159	C	0.120236	0.382223	0.322663
	C160	C	0.384588	0.675408	0.885083
	C161	C	0.625350	0.678457	0.113116
	C162	C	0.622977	0.322760	0.884129
	C163	C	0.382659	0.319194	0.112986
	C164	C	0.681704	0.883301	0.380892
	C165	C	0.683233	0.114229	0.619068
	C166	C	0.327740	0.885370	0.619553
	C167	C	0.331943	0.115899	0.381362
	C168	C	0.882660	0.385414	0.178849
	C169	C	0.125116	0.615141	0.175984
	C170	C	0.124077	0.385593	0.821798
	C171	C	0.885323	0.615801	0.821942
	C172	C	0.181884	0.882482	0.385725
	C173	C	0.184532	0.120927	0.614791
	C174	C	0.829378	0.118978	0.385739
	C175	C	0.827184	0.879134	0.614425
	C176	C	0.389216	0.173134	0.880194
	C177	C	0.619425	0.177152	0.117992
	C178	C	0.389440	0.821125	0.119560
	C179	C	0.619416	0.822516	0.880170
	C180	C	0.390059	0.876956	0.177893
	C181	C	0.619766	0.120302	0.175871
	C182	C	0.390103	0.117299	0.822680
	C183	C	0.619269	0.878923	0.822158
	C184	C	0.886829	0.177307	0.386194
	C185	C	0.126867	0.178533	0.614837
	C186	C	0.124613	0.824746	0.385992
	C187	C	0.885335	0.822261	0.614499
	C188	C	0.177701	0.383658	0.882445
	C189	C	0.181904	0.614706	0.118169
	C190	C	0.827183	0.384354	0.119373
	C191	C	0.828592	0.615833	0.880747
	C192	C	0.408622	0.095599	0.599997
	C193	C	0.602845	0.904180	0.599129
	C194	C	0.604903	0.093661	0.399681
	C195	C	0.406499	0.904829	0.400794
	C196	C	0.602080	0.399764	0.092745
	C197	C	0.603758	0.598242	0.905916
	C198	C	0.405165	0.596806	0.093309
	C199	C	0.401985	0.397192	0.904588
	C200	C	0.100029	0.600604	0.399539
	C201	C	0.910337	0.598446	0.598863
	C202	C	0.100603	0.403606	0.598610
	C203	C	0.910623	0.401969	0.402420
	C204	C	0.906395	0.594641	0.099130
	C205	C	0.101220	0.404516	0.100473
	C206	C	0.104615	0.595528	0.899736
	C207	C	0.906526	0.406027	0.900262
	C208	C	0.104322	0.901314	0.594863
	C209	C	0.107438	0.101891	0.406328
	C210	C	0.906914	0.098590	0.594201
	C211	C	0.905807	0.899803	0.405656
	C212	C	0.600325	0.098270	0.899966
	C213	C	0.409446	0.095946	0.099339
	C214	C	0.599401	0.901488	0.097701
	C215	C	0.409027	0.899422	0.900201
	Zn216	Zn	0.505361	-0.000863	0.749819
	Zn217	Zn	0.505451	-0.001117	0.249186
	Zn218	Zn	0.755083	0.499152	-0.000396
	Zn219	Zn	0.252607	0.498604	-0.000339
	Zn220	Zn	0.006064	0.749905	0.500388
	Zn221	Zn	0.006168	0.251103	0.500791
	Zn222	Zn	0.005525	0.501227	0.749094
	Zn223	Zn	0.004291	0.500921	0.250710
	Zn224	Zn	0.503710	0.749742	-0.000455
	Zn225	Zn	0.503429	0.247241	-0.001821
	Zn226	Zn	0.755010	-0.000725	0.499883
	Zn227	Zn	0.256919	0.000506	0.500316
	N228	N	0.418966	0.963006	0.679079
	N229	N	0.592791	0.035507	0.679387
	N230	N	0.593531	0.962490	0.318523
	N231	N	0.419280	0.036106	0.319913
	N232	N	0.683263	0.412450	0.962320
	N233	N	0.683704	0.585724	0.036718
	N234	N	0.327223	0.582171	0.961835
	N235	N	0.323324	0.411397	0.036398
	N236	N	0.967571	0.678497	0.414941
	N237	N	0.043248	0.677777	0.584293
	N238	N	0.968780	0.321882	0.586424
	N239	N	0.043356	0.324369	0.415911
	N240	N	0.968633	0.414253	0.678638
	N241	N	0.042154	0.588133	0.678170
	N242	N	0.968246	0.588857	0.319846
	N243	N	0.042004	0.415061	0.321499
	N244	N	0.417782	0.677434	0.962725
	N245	N	0.590885	0.678982	0.036099
	N246	N	0.588000	0.321618	0.961207
	N247	N	0.415853	0.317442	0.035376
	N248	N	0.682294	0.960977	0.415206
	N249	N	0.682866	0.036677	0.584671
	N250	N	0.327918	0.963389	0.585759
	N251	N	0.330161	0.038173	0.415862
	N252	N	0.916404	0.463797	0.180774
	N253	N	0.090455	0.537109	0.178391
	N254	N	0.092781	0.464542	0.818881
	N255	N	0.918923	0.537946	0.820094
	N256	N	0.183326	0.915987	0.463288
	N257	N	0.186269	0.087570	0.537433
	N258	N	0.828006	0.084754	0.462960
	N259	N	0.825713	0.912662	0.536889
	N260	N	0.467149	0.174637	0.914058
	N261	N	0.541060	0.177309	0.084723
	N262	N	0.466985	0.821546	0.084516
	N263	N	0.541514	0.821309	0.914140
	N264	N	0.468090	0.911516	0.178895
	N265	N	0.541997	0.085511	0.177779
	N266	N	0.468598	0.084940	0.821071
	N267	N	0.541099	0.912214	0.820523
	N268	N	0.920501	0.178748	0.463582
	N269	N	0.093555	0.180712	0.537380
	N270	N	0.091256	0.822687	0.463563
	N271	N	0.919436	0.821059	0.537090
	N272	N	0.178947	0.461256	0.916695
	N273	N	0.181980	0.536510	0.085176
	N274	N	0.826730	0.462027	0.085126
	N275	N	0.827448	0.537843	0.914744
	O276	O	-0.009733	-0.007084	0.060946
	H277	H	-0.003600	-0.014819	0.063051
	H278	H	-0.018907	-0.002762	0.053453
	O279	O	0.411521	0.417485	0.438517
	H280	H	0.415950	0.430117	0.435157
	H281	H	0.411740	0.423971	0.442729
	O282	O	0.597140	0.469873	0.577887
	H283	H	0.599548	0.471014	0.586813
	H284	H	0.593397	0.476704	0.576328
	O285	O	-0.096299	1.013548	0.969918
	H286	H	-0.100213	1.019136	0.963427
	H287	H	-0.098787	1.015320	0.949090
	O288	O	0.714929	0.338130	0.367878
	H289	H	0.714201	0.342808	0.368543
	H290	H	0.717104	0.341137	0.362156
	O291	O	0.975980	0.929977	1.030713
	H292	H	0.980148	0.928659	1.026821
	H293	H	0.972418	0.934068	1.022955
	O294	O	0.534483	1.444259	0.475436
	H295	H	0.530004	1.432039	0.475640
	H296	H	0.534008	1.429270	0.474262
	O297	O	0.964469	0.062948	0.995636
	H298	H	0.969877	0.052016	1.003688
	H299	H	0.967295	0.067120	1.012254
	O300	O	0.426573	0.624397	0.426487
	H301	H	0.423577	0.630326	0.432184
	H302	H	0.423790	0.638481	0.434910
	O303	O	0.991037	0.052673	0.034117
	H304	H	0.981523	0.051276	0.038430
	H305	H	0.993315	0.065466	0.038219
	O306	O	-0.029038	0.969847	1.078031
	H307	H	-0.030129	0.958587	1.080475
	H308	H	-0.037437	0.962546	1.077629
	O309	O	0.552117	0.477985	0.388230
	H310	H	0.562780	0.472311	0.378641
	H311	H	0.544611	0.476207	0.384749
	O312	O	1.441499	0.393028	0.441604
	H313	H	1.441453	0.384497	0.436154
	H314	H	1.451261	0.388744	0.436556
	O315	O	0.511857	0.554143	0.414194
	H316	H	0.513841	0.570074	0.408937
	H317	H	0.523459	0.542034	0.415309
	O318	O	0.609619	0.513623	0.456973
	H319	H	0.605832	0.518914	0.458057
	H320	H	0.602135	0.520802	0.463914
	O321	O	1.028896	1.017105	1.043279
	H322	H	1.030918	1.021315	1.057308
	H323	H	1.017856	1.019519	1.047512
	O324	O	0.461055	0.527584	0.585605
	H325	H	0.472858	0.526920	0.585614
	H326	H	0.451147	0.526158	0.597836
	O327	O	0.454790	0.586350	0.435784
	H328	H	0.457264	0.579835	0.439943
	H329	H	0.464681	0.585980	0.427428
	O330	O	0.983128	-0.057927	0.938405
	H331	H	0.984450	-0.052599	0.936030
	H332	H	0.979931	-0.062386	0.943705
	O333	O	0.995297	1.040246	0.044295
	H334	H	0.996843	1.042311	0.049302
	H335	H	1.006475	1.043520	0.052498
	O336	O	0.616162	0.571822	0.604225
	H337	H	0.627215	0.578650	0.611092
	H338	H	0.612372	0.581520	0.585017
	O339	O	0.424639	0.364130	0.536089
	H340	H	0.423701	0.364012	0.536457
	H341	H	0.416820	0.372254	0.536175
	O342	O	-0.029862	1.013940	-0.033016
	H343	H	-0.027056	1.011561	-0.035285
	H344	H	-0.041553	1.013932	-0.038717
	O345	O	0.002072	-0.000738	0.097977
	H346	H	-0.006806	0.004890	0.098185
	H347	H	0.001785	-0.010698	0.102077
	O348	O	-0.427536	0.506765	0.508238
	H349	H	-0.428734	0.501587	0.512473
	H350	H	-0.419546	0.510171	0.499397
	O351	O	0.557786	0.515996	0.628661
	H352	H	0.563609	0.530212	0.630501
	H353	H	0.551354	0.515579	0.628996
	O354	O	0.560128	0.504670	0.472321
	H355	H	0.567054	0.509032	0.484180
	H356	H	0.558361	0.496446	0.480239
	O357	O	0.442670	0.446422	0.374858
	H358	H	0.443374	0.438624	0.357347
	H359	H	0.447369	0.444158	0.368206
	O360	O	0.037236	0.063369	-0.028783
	H361	H	0.053410	0.060428	-0.036444
	H362	H	0.043661	0.050715	-0.026932
	O363	O	0.563119	0.606313	0.428740
	H364	H	0.569819	0.596961	0.424566
	H365	H	0.558369	0.597140	0.432006
	O366	O	-0.538056	-0.574325	1.554991
	H367	H	-0.542289	-0.557960	1.557778
	H368	H	-0.547799	-0.581227	1.555403
	O369	O	0.488598	0.493671	0.560109
	H370	H	0.487521	0.488372	0.561920
	H371	H	0.487920	0.489878	0.558513
