data_Molecule from HDF5

_cell_length_a		16.321637
_cell_length_b		16.220697
_cell_length_c		16.139646
_cell_angle_alpha	90.025056
_cell_angle_beta	89.708282
_cell_angle_gamma	89.943289
_symmetry_space_group_name_H-M	'P 1'
_symmetry_Int_Tables_number		1

loop_
	_symmetry_equiv_pos_as_xyz
	x,y,z

loop_
	_atom_site_label
	_atom_site_type_symbol
	_atom_site_fract_x
	_atom_site_fract_y
	_atom_site_fract_z
	H0	H	0.402618	0.833138	0.712260
	H1	H	0.596746	0.162944	0.710123
	H2	H	0.598151	0.832963	0.286821
	H3	H	0.404890	0.163439	0.287324
	H4	H	0.717010	0.398403	0.834168
	H5	H	0.715057	0.596288	0.164519
	H6	H	0.289137	0.598254	0.834902
	H7	H	0.286237	0.397504	0.163216
	H8	H	0.837687	0.712374	0.401470
	H9	H	0.164008	0.713887	0.598539
	H10	H	0.836559	0.284501	0.598365
	H11	H	0.163870	0.280926	0.398461
	H12	H	0.838070	0.400817	0.715524
	H13	H	0.165774	0.595684	0.712024
	H14	H	0.837849	0.593889	0.286847
	H15	H	0.165387	0.399713	0.284894
	H16	H	0.406164	0.709881	0.834088
	H17	H	0.600223	0.711844	0.164130
	H18	H	0.601412	0.284155	0.833960
	H19	H	0.403621	0.284544	0.164253
	H20	H	0.717980	0.835292	0.396674
	H21	H	0.715059	0.161337	0.597758
	H22	H	0.285388	0.833736	0.598798
	H23	H	0.285537	0.161750	0.399853
	H24	H	0.906320	0.332356	0.212043
	H25	H	0.099314	0.662489	0.212758
	H26	H	0.100355	0.332760	0.785503
	H27	H	0.906234	0.662946	0.788386
	H28	H	0.215374	0.897503	0.334439
	H29	H	0.214272	0.097554	0.663648
	H30	H	0.788035	0.097569	0.334184
	H31	H	0.784407	0.898551	0.662178
	H32	H	0.339347	0.214534	0.899211
	H33	H	0.665667	0.211135	0.097545
	H34	H	0.338342	0.782341	0.099192
	H35	H	0.665331	0.782349	0.899272
	H36	H	0.337791	0.900747	0.213228
	H37	H	0.665049	0.095737	0.213647
	H38	H	0.337250	0.095050	0.787112
	H39	H	0.665495	0.898729	0.782667
	H40	H	0.903816	0.210657	0.334016
	H41	H	0.097660	0.210519	0.664211
	H42	H	0.098805	0.784586	0.334081
	H43	H	0.901705	0.785803	0.664504
	H44	H	0.219565	0.334205	0.898355
	H45	H	0.217712	0.661425	0.100176
	H46	H	0.787875	0.333484	0.099109
	H47	H	0.787364	0.660839	0.899366
	H48	H	0.403117	0.115604	0.592759
	H49	H	0.590316	0.884205	0.581859
	H50	H	0.602970	0.118595	0.405276
	H51	H	0.407249	0.880960	0.406630
	H52	H	0.589425	0.407410	0.114139
	H53	H	0.599119	0.590054	0.880654
	H54	H	0.399305	0.585543	0.119547
	H55	H	0.418528	0.403326	0.883192
	H56	H	0.118847	0.598839	0.408591
	H57	H	0.884054	0.591453	0.599166
	H58	H	0.116577	0.415527	0.597621
	H59	H	0.883266	0.401668	0.401862
	H60	H	0.122619	0.392685	0.598439
	H61	H	0.884249	0.595542	0.590090
	H62	H	0.115744	0.586262	0.410381
	H63	H	0.885134	0.401143	0.409055
	H64	H	0.416580	0.582511	0.112576
	H65	H	0.596607	0.587523	0.882463
	H66	H	0.595130	0.397256	0.119582
	H67	H	0.406240	0.400653	0.878599
	H68	H	0.590232	0.115969	0.399189
	H69	H	0.602047	0.878169	0.589608
	H70	H	0.408886	0.114777	0.593556
	H71	H	0.405883	0.879605	0.406619
	H72	H	0.907108	0.615401	0.095924
	H73	H	0.087864	0.383918	0.087521
	H74	H	0.095158	0.614583	0.903160
	H75	H	0.917298	0.381844	0.904735
	H76	H	0.097452	0.909599	0.616672
	H77	H	0.100601	0.100125	0.375859
	H78	H	0.899142	0.083312	0.617260
	H79	H	0.905250	0.910534	0.381120
	H80	H	0.617789	0.094712	0.908927
	H81	H	0.384071	0.091910	0.098002
	H82	H	0.619718	0.899583	0.092000
	H83	H	0.385959	0.912159	0.900942
	H84	H	0.616912	0.906492	0.088894
	H85	H	0.384488	0.096203	0.088703
	H86	H	0.616663	0.084898	0.904764
	H87	H	0.381194	0.894429	0.901120
	H88	H	0.914857	0.086624	0.613922
	H89	H	0.100696	0.077194	0.382282
	H90	H	0.087962	0.906959	0.615507
	H91	H	0.914365	0.903813	0.382577
	H92	H	0.095459	0.614134	0.909688
	H93	H	0.102633	0.380243	0.085625
	H94	H	0.909934	0.614728	0.092091
	H95	H	0.906479	0.381651	0.915481
	H96	H	0.406645	0.115196	0.588523
	H97	H	0.588436	0.880061	0.596804
	H98	H	0.591539	0.112676	0.413215
	H99	H	0.406975	0.880293	0.405267
	H100	H	0.602009	0.408525	0.118381
	H101	H	0.595285	0.591042	0.881493
	H102	H	0.411852	0.599889	0.119681
	H103	H	0.409264	0.413491	0.883245
	H104	H	0.120467	0.591060	0.398682
	H105	H	0.886853	0.586620	0.591612
	H106	H	0.112981	0.401565	0.578375
	H107	H	0.884980	0.407539	0.406147
	H108	H	0.904756	0.614866	0.091000
	H109	H	0.096784	0.377918	0.099636
	H110	H	0.100818	0.615972	0.906167
	H111	H	0.903203	0.376173	0.901196
	H112	H	0.094477	0.900493	0.619509
	H113	H	0.081523	0.089846	0.384895
	H114	H	0.905325	0.098141	0.619344
	H115	H	0.904713	0.899537	0.377716
	H116	H	0.621201	0.092763	0.898535
	H117	H	0.387300	0.086533	0.090062
	H118	H	0.618848	0.905756	0.095991
	H119	H	0.388387	0.903024	0.916076
	C120	C	0.378170	0.006274	0.620585
	C121	C	0.621658	0.989482	0.618639
	C122	C	0.623214	0.006909	0.376990
	C123	C	0.378655	0.989250	0.377338
	C124	C	0.624275	0.375710	0.008063
	C125	C	0.624433	0.618764	0.990614
	C126	C	0.381416	0.618680	0.008293
	C127	C	0.382000	0.376827	0.990586
	C128	C	0.010129	0.619405	0.377933
	C129	C	0.992884	0.620026	0.621552
	C130	C	0.009443	0.375132	0.621355
	C131	C	0.992789	0.375199	0.377227
	C132	C	0.879924	0.506207	0.121502
	C133	C	0.123659	0.489362	0.120295
	C134	C	0.125499	0.506537	0.877083
	C135	C	0.881054	0.488812	0.878730
	C136	C	0.122005	0.876385	0.508011
	C137	C	0.121852	0.117990	0.490126
	C138	C	0.879172	0.118129	0.507586
	C139	C	0.878706	0.876120	0.489723
	C140	C	0.510288	0.119641	0.876294
	C141	C	0.493328	0.119289	0.120734
	C142	C	0.510249	0.875585	0.121050
	C143	C	0.493407	0.875294	0.876686
	C144	C	0.381548	0.882436	0.675367
	C145	C	0.618267	0.113356	0.673525
	C146	C	0.619554	0.882672	0.322988
	C147	C	0.382913	0.113766	0.323671
	C148	C	0.679301	0.378359	0.883625
	C149	C	0.677864	0.616768	0.115157
	C150	C	0.326891	0.617563	0.884062
	C151	C	0.325451	0.378023	0.114334
	C152	C	0.886580	0.673826	0.381095
	C153	C	0.115534	0.675481	0.618963
	C154	C	0.885767	0.321612	0.619117
	C155	C	0.115529	0.319895	0.378978
	C156	C	0.886519	0.379197	0.677382
	C157	C	0.116504	0.616628	0.675256
	C158	C	0.886515	0.615307	0.324319
	C159	C	0.116286	0.378800	0.322405
	C160	C	0.385195	0.673018	0.883583
	C161	C	0.620702	0.673901	0.114875
	C162	C	0.621767	0.321666	0.883324
	C163	C	0.383514	0.321803	0.114812
	C164	C	0.678988	0.883782	0.377785
	C165	C	0.676723	0.112673	0.617216
	C166	C	0.323312	0.882723	0.618785
	C167	C	0.323784	0.112996	0.379725
	C168	C	0.884641	0.381812	0.175120
	C169	C	0.120665	0.613021	0.175885
	C170	C	0.121518	0.382199	0.822873
	C171	C	0.884895	0.613088	0.824912
	C172	C	0.177483	0.877808	0.383946
	C173	C	0.176561	0.117120	0.614623
	C174	C	0.825812	0.116536	0.383071
	C175	C	0.822645	0.878194	0.613244
	C176	C	0.387745	0.175716	0.879332
	C177	C	0.616695	0.173698	0.118091
	C178	C	0.387121	0.820623	0.118836
	C179	C	0.616597	0.820406	0.878761
	C180	C	0.386601	0.879292	0.175740
	C181	C	0.616461	0.116166	0.175560
	C182	C	0.386586	0.116051	0.823706
	C183	C	0.616457	0.878299	0.820778
	C184	C	0.883121	0.172991	0.383168
	C185	C	0.118515	0.173240	0.614897
	C186	C	0.119250	0.821782	0.383542
	C187	C	0.881204	0.822342	0.614473
	C188	C	0.180925	0.382967	0.878726
	C189	C	0.179357	0.612647	0.119696
	C190	C	0.825569	0.382416	0.119419
	C191	C	0.825914	0.612295	0.880572
	C192	C	0.399658	0.092837	0.598260
	C193	C	0.599913	0.903095	0.596159
	C194	C	0.601444	0.093381	0.399209
	C195	C	0.400388	0.902673	0.399556
	C196	C	0.602028	0.397867	0.095011
	C197	C	0.603289	0.596381	0.903929
	C198	C	0.402822	0.595994	0.094851
	C199	C	0.404697	0.399170	0.904030
	C200	C	0.096054	0.598247	0.399390
	C201	C	0.907258	0.597842	0.600098
	C202	C	0.095195	0.396721	0.598330
	C203	C	0.906681	0.396873	0.399334
	C204	C	0.901117	0.592769	0.099555
	C205	C	0.102228	0.403117	0.097639
	C206	C	0.103545	0.592700	0.899499
	C207	C	0.902628	0.402115	0.900638
	C208	C	0.099737	0.899124	0.594858
	C209	C	0.100582	0.095633	0.403613
	C210	C	0.900102	0.095971	0.594321
	C211	C	0.901551	0.898134	0.402792
	C212	C	0.596367	0.097526	0.897916
	C213	C	0.407606	0.097746	0.098939
	C214	C	0.596296	0.897336	0.098882
	C215	C	0.407538	0.896855	0.899336
	Zn216	Zn	0.500816	-0.002353	0.747829
	Zn217	Zn	0.501401	-0.002092	0.249791
	Zn218	Zn	0.752169	0.497233	-0.000251
	Zn219	Zn	0.253527	0.498184	-0.000680
	Zn220	Zn	0.001044	0.748869	0.499499
	Zn221	Zn	0.000612	0.245684	0.499107
	Zn222	Zn	0.002266	0.497963	0.749887
	Zn223	Zn	0.002121	0.497629	0.248977
	Zn224	Zn	0.502395	0.746342	-0.000934
	Zn225	Zn	0.502681	0.248152	-0.000950
	Zn226	Zn	0.750814	-0.002040	0.497904
	Zn227	Zn	0.249775	-0.002183	0.499137
	N228	N	0.414991	0.960187	0.676538
	N229	N	0.584549	0.035746	0.674385
	N230	N	0.585449	0.960266	0.322528
	N231	N	0.416406	0.035899	0.322206
	N232	N	0.680984	0.411156	0.962234
	N233	N	0.680052	0.582858	0.037012
	N234	N	0.324330	0.584436	0.962524
	N235	N	0.324337	0.411487	0.036056
	N236	N	0.964293	0.676646	0.413738
	N237	N	0.038016	0.677508	0.586213
	N238	N	0.963324	0.318898	0.584967
	N239	N	0.037791	0.317327	0.412321
	N240	N	0.964272	0.411799	0.678816
	N241	N	0.039102	0.582789	0.677198
	N242	N	0.964157	0.582070	0.322153
	N243	N	0.038935	0.412569	0.321471
	N244	N	0.418357	0.673793	0.961742
	N245	N	0.588134	0.675232	0.036391
	N246	N	0.588077	0.319989	0.961679
	N247	N	0.418170	0.320981	0.036886
	N248	N	0.681211	0.962052	0.410621
	N249	N	0.678935	0.034538	0.583767
	N250	N	0.321060	0.960806	0.585422
	N251	N	0.321197	0.034590	0.412337
	N252	N	0.917820	0.459754	0.176402
	N253	N	0.086673	0.535479	0.176095
	N254	N	0.087611	0.460019	0.821778
	N255	N	0.918601	0.535336	0.823740
	N256	N	0.179138	0.911175	0.462369
	N257	N	0.178659	0.083493	0.536297
	N258	N	0.823143	0.083325	0.461466
	N259	N	0.821029	0.910893	0.534686
	N260	N	0.465854	0.178133	0.911378
	N261	N	0.539229	0.175704	0.084589
	N262	N	0.465025	0.818221	0.085562
	N263	N	0.539290	0.818273	0.912724
	N264	N	0.464071	0.912867	0.177241
	N265	N	0.538819	0.083230	0.177583
	N266	N	0.463659	0.082102	0.821687
	N267	N	0.538847	0.911668	0.819469
	N268	N	0.915756	0.174031	0.461468
	N269	N	0.085200	0.173997	0.536734
	N270	N	0.085553	0.820824	0.461803
	N271	N	0.915452	0.820856	0.536297
	N272	N	0.183584	0.461141	0.911676
	N273	N	0.181409	0.534826	0.085590
	N274	N	0.822834	0.460689	0.086457
	N275	N	0.823608	0.533975	0.913333
	O276	O	1.022357	0.997692	-0.031784
	H277	H	1.020494	0.989277	-0.032868
	H278	H	1.016127	1.000665	-0.028810
	O279	O	-0.012592	0.057229	-0.019122
	H280	H	-0.009714	0.065133	-0.019997
	H281	H	-0.014350	0.059721	-0.028924
	O282	O	0.026136	-0.032280	0.998168
	H283	H	0.029678	-0.036386	0.992257
	H284	H	0.022078	-0.029863	0.998756
	O285	O	0.488019	0.495236	0.509807
	H286	H	0.483534	0.494674	0.507874
	H287	H	0.492724	0.494957	0.507438
	O288	O	0.467730	0.510979	0.517978
	H289	H	0.473872	0.521963	0.512920
	H290	H	0.456808	0.507057	0.525099
	O291	O	0.477135	0.518251	0.525156
	H292	H	0.468575	0.515274	0.522665
	H293	H	0.484463	0.519467	0.528638
	O294	O	0.043821	-0.038621	-0.021113
	H295	H	0.045104	-0.038549	-0.009098
	H296	H	0.049028	-0.038486	-0.016385
	O297	O	0.499405	0.496395	0.525695
	H298	H	0.490073	0.507472	0.522669
	H299	H	0.500068	0.495256	0.526198
	O300	O	-0.007017	0.993341	0.969813
	H301	H	-0.009042	0.999830	0.960597
	H302	H	-0.010213	0.989283	0.973549
	O303	O	0.473739	0.495167	0.553763
	H304	H	0.476770	0.489923	0.556712
	H305	H	0.476904	0.496578	0.554460
	O306	O	0.000208	0.002116	1.003938
	H307	H	-0.000570	0.004360	0.995002
	H308	H	-0.003304	0.006686	0.996882
	O309	O	1.053777	0.994458	0.977345
	H310	H	1.055852	0.993127	0.972844
	H311	H	1.065264	0.987419	0.981525
	O312	O	0.462304	0.508992	0.551576
	H313	H	0.470070	0.501839	0.548576
	H314	H	0.460364	0.509755	0.562609
	O315	O	0.459522	0.503187	0.523916
	H316	H	0.453520	0.492276	0.524498
	H317	H	0.458122	0.500396	0.527257
	O318	O	-0.009422	1.012423	-0.014127
	H319	H	-0.007805	1.011684	-0.014191
	H320	H	-0.020021	1.016172	-0.016588
	O321	O	0.972656	0.995303	0.017523
	H322	H	0.972191	0.995780	0.021369
	H323	H	0.974798	0.994325	0.025334
