data_Molecule from HDF5

_cell_length_a		16.675846
_cell_length_b		16.511053
_cell_length_c		16.547665
_cell_angle_alpha	89.880637
_cell_angle_beta	89.919645
_cell_angle_gamma	90.090574
_symmetry_space_group_name_H-M	'P 1'
_symmetry_Int_Tables_number		1

loop_
	_symmetry_equiv_pos_as_xyz
	x,y,z

loop_
	_atom_site_label
	_atom_site_type_symbol
	_atom_site_fract_x
	_atom_site_fract_y
	_atom_site_fract_z
	H0	H	0.388198	0.852702	0.725099
	H1	H	0.599947	0.165544	0.720858
	H2	H	0.595336	0.849999	0.283264
	H3	H	0.388188	0.164860	0.280265
	H4	H	0.719523	0.400276	0.847966
	H5	H	0.714827	0.614268	0.159016
	H6	H	0.271324	0.615368	0.845862
	H7	H	0.271489	0.400661	0.157580
	H8	H	0.839644	0.729694	0.397962
	H9	H	0.148500	0.733704	0.611090
	H10	H	0.839961	0.285473	0.607690
	H11	H	0.148030	0.281510	0.390371
	H12	H	0.841489	0.398853	0.726856
	H13	H	0.149238	0.616646	0.726860
	H14	H	0.839308	0.612386	0.281925
	H15	H	0.148709	0.399415	0.275496
	H16	H	0.390015	0.729713	0.844683
	H17	H	0.598678	0.729957	0.158598
	H18	H	0.600777	0.286989	0.846709
	H19	H	0.390074	0.287136	0.158743
	H20	H	0.713717	0.850540	0.396362
	H21	H	0.715827	0.164847	0.605565
	H22	H	0.270689	0.853117	0.610434
	H23	H	0.273080	0.164733	0.396522
	H24	H	0.890512	0.351987	0.223145
	H25	H	0.094445	0.667285	0.217162
	H26	H	0.099653	0.350238	0.781665
	H27	H	0.893066	0.665218	0.782749
	H28	H	0.219083	0.899140	0.348205
	H29	H	0.218942	0.117771	0.657161
	H30	H	0.776711	0.110305	0.343209
	H31	H	0.772871	0.903038	0.657452
	H32	H	0.339070	0.230641	0.896076
	H33	H	0.650220	0.228217	0.104699
	H34	H	0.339081	0.785302	0.107319
	H35	H	0.648960	0.787160	0.895809
	H36	H	0.339093	0.901023	0.224779
	H37	H	0.648496	0.113697	0.223974
	H38	H	0.339996	0.117151	0.776883
	H39	H	0.650180	0.905370	0.780714
	H40	H	0.894089	0.226242	0.343494
	H41	H	0.100097	0.230663	0.657753
	H42	H	0.099424	0.786151	0.346674
	H43	H	0.891235	0.788938	0.659366
	H44	H	0.218498	0.351483	0.894311
	H45	H	0.214596	0.664870	0.104310
	H46	H	0.773089	0.352244	0.107328
	H47	H	0.774737	0.664324	0.896768
	H48	H	0.407675	0.119779	0.588018
	H49	H	0.590160	0.892646	0.593009
	H50	H	0.585727	0.120601	0.412757
	H51	H	0.409606	0.896631	0.409859
	H52	H	0.581287	0.418689	0.113941
	H53	H	0.577093	0.602594	0.891170
	H54	H	0.408974	0.595878	0.111741
	H55	H	0.406286	0.418694	0.889626
	H56	H	0.107772	0.598213	0.406747
	H57	H	0.885852	0.595774	0.587684
	H58	H	0.105494	0.421389	0.589846
	H59	H	0.884844	0.421164	0.412988
	H60	H	0.105477	0.420236	0.589839
	H61	H	0.884310	0.592583	0.594716
	H62	H	0.107430	0.602200	0.413772
	H63	H	0.884082	0.417792	0.411342
	H64	H	0.404066	0.599017	0.114723
	H65	H	0.592279	0.600351	0.886169
	H66	H	0.584980	0.417787	0.115263
	H67	H	0.404846	0.421136	0.889769
	H68	H	0.584706	0.120314	0.410870
	H69	H	0.578833	0.895410	0.596424
	H70	H	0.405463	0.119983	0.586997
	H71	H	0.406701	0.899025	0.420190
	H72	H	0.904360	0.624144	0.097323
	H73	H	0.084329	0.394979	0.090325
	H74	H	0.083668	0.617199	0.918327
	H75	H	0.909143	0.395498	0.912899
	H76	H	0.079507	0.914865	0.615608
	H77	H	0.079891	0.087524	0.395090
	H78	H	0.907144	0.095794	0.612942
	H79	H	0.897216	0.917522	0.385636
	H80	H	0.603099	0.093755	0.914125
	H81	H	0.385832	0.087684	0.089396
	H82	H	0.606644	0.919935	0.095317
	H83	H	0.382570	0.920423	0.911561
	H84	H	0.606489	0.915986	0.088763
	H85	H	0.379557	0.099242	0.098918
	H86	H	0.606285	0.096719	0.907391
	H87	H	0.382723	0.918235	0.913772
	H88	H	0.903449	0.098231	0.614698
	H89	H	0.078973	0.101894	0.390469
	H90	H	0.088650	0.923171	0.615700
	H91	H	0.906844	0.923980	0.390959
	H92	H	0.087117	0.620811	0.913588
	H93	H	0.082973	0.394750	0.090388
	H94	H	0.907520	0.620138	0.089573
	H95	H	0.907767	0.397788	0.919923
	H96	H	0.405992	0.120904	0.589072
	H97	H	0.582505	0.897894	0.584685
	H98	H	0.583489	0.119618	0.412704
	H99	H	0.399398	0.893387	0.413098
	H100	H	0.583976	0.421739	0.113757
	H101	H	0.583944	0.588317	0.893339
	H102	H	0.403208	0.592367	0.112436
	H103	H	0.407418	0.420900	0.891174
	H104	H	0.104877	0.594780	0.413528
	H105	H	0.882132	0.599905	0.593236
	H106	H	0.105505	0.421151	0.589171
	H107	H	0.884309	0.418328	0.414901
	H108	H	0.898653	0.622944	0.089674
	H109	H	0.083334	0.395564	0.089513
	H110	H	0.080706	0.619218	0.912494
	H111	H	0.902203	0.395021	0.915666
	H112	H	0.078120	0.926051	0.610636
	H113	H	0.091397	0.093640	0.387734
	H114	H	0.902755	0.093644	0.613386
	H115	H	0.908122	0.911433	0.388069
	H116	H	0.605367	0.101683	0.913813
	H117	H	0.383453	0.103099	0.083094
	H118	H	0.602041	0.922303	0.089820
	H119	H	0.383918	0.921134	0.913770
	C120	C	0.373018	0.017219	0.622789
	C121	C	0.615958	0.999140	0.622563
	C122	C	0.615234	0.016245	0.380347
	C123	C	0.372610	0.999605	0.381060
	C124	C	0.616231	0.386803	0.011281
	C125	C	0.615998	0.629860	0.993755
	C126	C	0.372784	0.629387	0.009813
	C127	C	0.373426	0.387037	0.993328
	C128	C	0.003598	0.629973	0.380429
	C129	C	0.986334	0.629772	0.624778
	C130	C	0.003686	0.386676	0.623203
	C131	C	0.986597	0.386071	0.379343
	C132	C	0.872345	0.517956	0.124083
	C133	C	0.115063	0.499554	0.121902
	C134	C	0.116303	0.515926	0.881197
	C135	C	0.874561	0.499509	0.882710
	C136	C	0.115331	0.887767	0.511079
	C137	C	0.116048	0.128862	0.493683
	C138	C	0.873567	0.128271	0.509545
	C139	C	0.872278	0.885937	0.492343
	C140	C	0.502829	0.130671	0.879199
	C141	C	0.485623	0.129166	0.122789
	C142	C	0.502407	0.886896	0.123446
	C143	C	0.485718	0.887719	0.880189
	C144	C	0.369825	0.899617	0.684528
	C145	C	0.618030	0.118087	0.681333
	C146	C	0.615081	0.897474	0.322007
	C147	C	0.370276	0.117617	0.320657
	C148	C	0.678162	0.383175	0.894326
	C149	C	0.675314	0.632717	0.111568
	C150	C	0.311960	0.632804	0.892542
	C151	C	0.312364	0.383087	0.110895
	C152	C	0.886204	0.689523	0.379167
	C153	C	0.101988	0.692790	0.628748
	C154	C	0.887067	0.325344	0.626280
	C155	C	0.101998	0.323207	0.373981
	C156	C	0.887645	0.381816	0.685570
	C157	C	0.102412	0.634368	0.686387
	C158	C	0.886109	0.631658	0.321188
	C159	C	0.102298	0.381750	0.316433
	C160	C	0.370692	0.689879	0.891942
	C161	C	0.617230	0.690018	0.111521
	C162	C	0.619084	0.326700	0.893701
	C163	C	0.371185	0.326564	0.111383
	C164	C	0.673968	0.897891	0.378227
	C165	C	0.676037	0.117396	0.624089
	C166	C	0.311561	0.899806	0.627573
	C167	C	0.312811	0.117510	0.378336
	C168	C	0.871496	0.399098	0.183116
	C169	C	0.114897	0.619330	0.178946
	C170	C	0.118373	0.397646	0.821112
	C171	C	0.873466	0.617596	0.822300
	C172	C	0.177285	0.882852	0.394281
	C173	C	0.177708	0.134267	0.610491
	C174	C	0.815779	0.129563	0.390690
	C175	C	0.812890	0.884477	0.610459
	C176	C	0.386010	0.191151	0.877116
	C177	C	0.603176	0.188665	0.123946
	C178	C	0.385624	0.825871	0.125713
	C179	C	0.602644	0.827710	0.877709
	C180	C	0.385552	0.883646	0.183874
	C181	C	0.602297	0.131709	0.183154
	C182	C	0.386326	0.134360	0.818053
	C183	C	0.603061	0.886521	0.820420
	C184	C	0.873998	0.187206	0.390919
	C185	C	0.118606	0.190566	0.610917
	C186	C	0.118272	0.826254	0.393730
	C187	C	0.871790	0.827905	0.611441
	C188	C	0.177406	0.398245	0.877295
	C189	C	0.174360	0.618106	0.122950
	C190	C	0.813020	0.399375	0.126116
	C191	C	0.814823	0.617441	0.879209
	C192	C	0.399119	0.098916	0.595938
	C193	C	0.590936	0.916854	0.598531
	C194	C	0.591310	0.098666	0.405029
	C195	C	0.398074	0.917725	0.406975
	C196	C	0.590765	0.412211	0.093007
	C197	C	0.591529	0.604468	0.911717
	C198	C	0.398221	0.603283	0.091517
	C199	C	0.398842	0.412865	0.911567
	C200	C	0.085326	0.605288	0.404609
	C201	C	0.905158	0.603472	0.599164
	C202	C	0.084446	0.413387	0.597121
	C203	C	0.905592	0.411841	0.405606
	C204	C	0.896466	0.600948	0.099307
	C205	C	0.090481	0.416714	0.097285
	C206	C	0.091057	0.597716	0.907327
	C207	C	0.899329	0.417278	0.908679
	C208	C	0.089408	0.913799	0.592791
	C209	C	0.090707	0.101977	0.412340
	C210	C	0.897400	0.103113	0.592107
	C211	C	0.896934	0.910694	0.409614
	C212	C	0.583810	0.104756	0.904416
	C213	C	0.404081	0.103867	0.097611
	C214	C	0.583835	0.912431	0.098397
	C215	C	0.404243	0.912833	0.905574
	Zn216	Zn	0.494569	0.009076	0.750292
	Zn217	Zn	0.493687	0.008267	0.252569
	Zn218	Zn	0.744383	0.508646	0.002523
	Zn219	Zn	0.244555	0.507349	0.001850
	Zn220	Zn	-0.005049	0.758316	0.502728
	Zn221	Zn	-0.004774	0.257492	0.501756
	Zn222	Zn	-0.004768	0.507361	0.753095
	Zn223	Zn	-0.004889	0.509065	0.251110
	Zn224	Zn	0.494320	0.757954	0.001817
	Zn225	Zn	0.494130	0.258884	0.001671
	Zn226	Zn	0.744009	0.007418	0.500624
	Zn227	Zn	0.244710	0.007935	0.502448
	N228	N	0.407301	0.973783	0.681689
	N229	N	0.581526	0.043495	0.680786
	N230	N	0.579537	0.972286	0.322777
	N231	N	0.406736	0.043156	0.322045
	N232	N	0.676631	0.419796	0.968513
	N233	N	0.674823	0.596056	0.037281
	N234	N	0.313270	0.595779	0.966956
	N235	N	0.313411	0.419915	0.036434
	N236	N	0.960277	0.688957	0.415234
	N237	N	0.028620	0.690131	0.591149
	N238	N	0.960380	0.328073	0.588291
	N239	N	0.029103	0.325818	0.412409
	N240	N	0.961341	0.419071	0.684174
	N241	N	0.029454	0.595924	0.684030
	N242	N	0.960213	0.595480	0.321781
	N243	N	0.029449	0.420184	0.319475
	N244	N	0.407857	0.687811	0.965881
	N245	N	0.581163	0.688532	0.037029
	N246	N	0.581254	0.328793	0.967458
	N247	N	0.408242	0.328821	0.037183
	N248	N	0.674369	0.972930	0.413576
	N249	N	0.675016	0.042457	0.588222
	N250	N	0.313427	0.974090	0.590183
	N251	N	0.314090	0.042968	0.415196
	N252	N	0.907441	0.473965	0.182008
	N253	N	0.078911	0.544472	0.178364
	N254	N	0.081263	0.471796	0.823308
	N255	N	0.909786	0.543128	0.824349
	N256	N	0.175492	0.920355	0.468202
	N257	N	0.176364	0.096594	0.536466
	N258	N	0.815107	0.093914	0.465704
	N259	N	0.812886	0.919452	0.535098
	N260	N	0.459442	0.189070	0.914473
	N261	N	0.529472	0.187246	0.087353
	N262	N	0.459313	0.827665	0.088735
	N263	N	0.528546	0.828161	0.914132
	N264	N	0.459157	0.920680	0.182721
	N265	N	0.528126	0.095567	0.182667
	N266	N	0.459989	0.097536	0.819090
	N267	N	0.529197	0.923019	0.821673
	N268	N	0.909124	0.186525	0.465965
	N269	N	0.081089	0.187326	0.537370
	N270	N	0.080371	0.829187	0.467357
	N271	N	0.907795	0.828344	0.536709
	N272	N	0.176575	0.472856	0.913730
	N273	N	0.174798	0.542382	0.088645
	N274	N	0.813362	0.474500	0.090229
	N275	N	0.815247	0.542840	0.916050
	O276	O	-0.199072	0.815609	-0.191033
	H277	H	-0.179958	0.836039	-0.180724
	H278	H	-0.182143	0.834134	-0.167427
	O279	O	0.649616	0.681380	0.325562
	H280	H	0.641730	0.665137	0.346809
	H281	H	0.618427	0.676544	0.329132
	O282	O	1.195895	0.211146	0.981183
	H283	H	1.194458	0.204533	0.981811
	H284	H	1.213066	0.223463	0.987432
	O285	O	-0.090118	0.014964	-0.124189
	H286	H	-0.086692	0.037352	-0.112023
	H287	H	-0.080264	0.013509	-0.114852
	O288	O	0.441769	0.548340	0.686829
	H289	H	0.458321	0.556894	0.695324
	H290	H	0.448430	0.544189	0.673630
	O291	O	0.671996	0.361663	0.476128
	H292	H	0.677322	0.367878	0.461628
	H293	H	0.688994	0.350060	0.462350
	O294	O	0.948701	0.232670	1.050032
	H295	H	0.944151	0.234712	1.029953
	H296	H	0.961354	0.226123	1.030449
	O297	O	0.426900	0.528168	0.484885
	H298	H	0.412578	0.516170	0.475536
	H299	H	0.435111	0.532243	0.494310
	O300	O	0.188343	-0.183706	0.806735
	H301	H	0.151326	-0.175932	0.810772
	H302	H	0.195969	-0.177654	0.838034
	O303	O	0.536793	0.601004	0.593461
	H304	H	0.535901	0.600631	0.590524
	H305	H	0.541961	0.590954	0.594537
	O306	O	1.026062	0.011774	0.199322
	H307	H	1.007369	0.032645	0.196485
	H308	H	1.043255	0.024397	0.200762
	O309	O	0.718413	0.534356	0.728392
	H310	H	0.725983	0.550787	0.722527
	H311	H	0.738028	0.561286	0.746863
	O312	O	0.719508	0.730051	0.531743
	H313	H	0.718604	0.744018	0.544377
	H314	H	0.733042	0.740219	0.551435
	O315	O	0.953395	0.798012	1.214400
	H316	H	0.976086	0.807100	1.217064
	H317	H	0.970636	0.795611	1.234879
	O318	O	0.611446	0.282212	0.526803
	H319	H	0.611258	0.273848	0.515496
	H320	H	0.627694	0.281997	0.512382
	O321	O	0.193350	0.825397	0.183463
	H322	H	0.196390	0.829935	0.164065
	H323	H	0.190503	0.836942	0.199128
	O324	O	0.715102	1.459270	0.284223
	H325	H	0.716727	1.468328	0.280186
	H326	H	0.731515	1.471405	0.278394
	O327	O	0.151996	0.089969	0.907930
	H328	H	0.152459	0.092499	0.907607
	H329	H	0.160345	0.092033	0.889608
	O330	O	0.695772	0.293972	0.289673
	H331	H	0.719811	0.275722	0.267622
	H332	H	0.705001	0.324727	0.282133
	O333	O	0.436783	0.405347	0.602961
	H334	H	0.449238	0.406311	0.607150
	H335	H	0.428940	0.416884	0.606369
	O336	O	0.492432	0.433419	0.392536
	H337	H	0.489311	0.435454	0.398823
	H338	H	0.496012	0.435504	0.404093
	O339	O	1.275856	-0.385498	0.609366
	H340	H	1.271319	-0.403851	0.610009
	H341	H	1.271477	-0.372823	0.629235
	O342	O	0.212820	-0.017161	-0.215489
	H343	H	0.223625	-0.025767	-0.232195
	H344	H	0.217882	-0.029195	-0.217442
	O345	O	0.059376	0.865567	1.146940
	H346	H	0.058875	0.862115	1.146032
	H347	H	0.057102	0.881299	1.150998
	O348	O	0.269853	-0.452725	0.279117
	H349	H	0.245947	-0.465492	0.265366
	H350	H	0.286415	-0.466418	0.275739
	O351	O	0.700829	0.711208	0.712163
	H352	H	0.717317	0.736704	0.739889
	H353	H	0.682022	0.716929	0.710812
	O354	O	-0.174203	0.199083	1.169807
	H355	H	-0.157017	0.199793	1.139996
	H356	H	-0.159867	0.168783	1.157979
	O357	O	0.495553	0.659381	0.461140
	H358	H	0.482708	0.652564	0.450293
	H359	H	0.502492	0.657252	0.460804
	O360	O	0.525899	0.463547	0.713069
	H361	H	0.528799	0.455909	0.718515
	H362	H	0.531964	0.458693	0.699963
	O363	O	0.114326	0.061181	-0.158450
	H364	H	0.119325	0.094616	-0.156261
	H365	H	0.110406	0.060859	-0.157781
	O366	O	0.532639	0.723253	0.717413
	H367	H	0.524205	0.733477	0.723247
	H368	H	0.534393	0.728257	0.711613
	O369	O	0.523204	0.294070	0.293040
	H370	H	0.548272	0.290194	0.297102
	H371	H	0.535135	0.279540	0.275671
	O372	O	0.769850	0.943476	0.214604
	H373	H	0.753591	0.934734	0.243926
	H374	H	0.777633	0.898866	0.213465
	O375	O	0.981357	-0.200410	-0.050461
	H376	H	0.993954	-0.195190	-0.047704
	H377	H	0.968799	-0.210759	-0.068464
	O378	O	0.320765	0.722223	0.380989
	H379	H	0.305323	0.705056	0.384142
	H380	H	0.305921	0.733984	0.368448
	O381	O	0.120306	1.002849	1.019311
	H382	H	0.122805	1.010877	1.017758
	H383	H	0.114812	0.980718	1.026727
	O384	O	0.864652	-0.195293	1.035497
	H385	H	0.847209	-0.217079	1.054008
	H386	H	0.885196	-0.188866	1.050282
	O387	O	0.781299	1.040864	-0.218180
	H388	H	0.765170	1.046986	-0.231200
	H389	H	0.774145	1.042829	-0.209576
	O390	O	0.719145	0.442009	0.554585
	H391	H	0.720265	0.432194	0.557666
	H392	H	0.719100	0.445901	0.545930
	O393	O	-0.194129	-0.078896	-0.025034
	H394	H	-0.188162	-0.100865	-0.016658
	H395	H	-0.196439	-0.081232	-0.033092
	O396	O	0.044707	1.198306	0.940414
	H397	H	0.055676	1.187540	0.942897
	H398	H	0.044931	1.196441	0.924996
	O399	O	0.287950	0.307701	0.704140
	H400	H	0.295945	0.330106	0.693649
	H401	H	0.294743	0.331914	0.688184
	O402	O	0.494632	0.345069	0.729491
	H403	H	0.484197	0.350532	0.721359
	H404	H	0.477217	0.334435	0.750673
	O405	O	1.288372	0.302928	1.293816
	H406	H	1.280659	0.301671	1.281327
	H407	H	1.298664	0.302181	1.314122
	O408	O	0.219789	0.031955	0.222304
	H409	H	0.255632	0.039115	0.258783
	H410	H	0.207233	0.057168	0.201345
	O411	O	0.336245	0.678019	0.624124
	H412	H	0.343843	0.664574	0.625186
	H413	H	0.331793	0.687917	0.620916
	O414	O	0.799275	0.204538	0.806574
	H415	H	0.798251	0.184743	0.821517
	H416	H	0.777837	0.231499	0.777985
	O417	O	0.253408	0.482625	0.473371
	H418	H	0.254336	0.478115	0.485494
	H419	H	0.253542	0.480861	0.455370
	O420	O	0.530332	0.532451	0.324620
	H421	H	0.532313	0.542323	0.326809
	H422	H	0.532967	0.519611	0.327127
	O423	O	0.451101	-0.673465	0.399553
	H424	H	0.467144	-0.683896	0.394435
	H425	H	0.447949	-0.670696	0.394666
	O426	O	-0.216473	0.226095	-0.027092
	H427	H	-0.220257	0.216845	-0.030929
	H428	H	-0.236916	0.241714	-0.041606
	O429	O	0.967022	1.223476	0.786080
	H430	H	0.943353	1.221814	0.791969
	H431	H	0.959290	1.250595	0.765241
	O432	O	0.548199	0.663597	0.405724
	H433	H	0.518144	0.663734	0.405910
	H434	H	0.545330	0.660267	0.407311
	O435	O	0.152254	0.999623	0.019000
	H436	H	0.151110	0.993101	0.025175
	H437	H	0.147283	1.014601	-0.001314
	O438	O	0.210956	-0.199814	-0.029814
	H439	H	0.223546	-0.203082	-0.027603
	H440	H	0.214648	-0.198951	-0.013803
	O441	O	-0.004146	-0.046240	-0.084029
	H442	H	0.005128	-0.036354	-0.080369
	H443	H	-0.018926	-0.032886	-0.084260
	O444	O	0.405979	0.325582	0.533654
	H445	H	0.406592	0.335289	0.531233
	H446	H	0.420705	0.325885	0.534732
	O447	O	0.028475	1.218291	1.210233
	H448	H	0.010466	1.216578	1.201478
	H449	H	0.018159	1.239372	1.220321
	O450	O	-0.222151	0.793669	1.217668
	H451	H	-0.203149	0.784590	1.223813
	H452	H	-0.218614	0.769841	1.237601
	O453	O	0.689250	0.316131	0.696114
	H454	H	0.686699	0.336258	0.674977
	H455	H	0.654114	0.327818	0.685933
	O456	O	0.025065	-0.198065	0.795386
	H457	H	0.019324	-0.207670	0.785270
	H458	H	0.013506	-0.183241	0.785881
	O459	O	0.922837	0.958969	0.052498
	H460	H	0.934523	0.956581	0.057038
	H461	H	0.911804	0.951449	0.053700
	O462	O	0.275827	0.477200	0.715751
	H463	H	0.302404	0.495945	0.722303
	H464	H	0.261316	0.485379	0.736955
	O465	O	0.941653	-0.060687	-0.127480
	H466	H	0.954024	-0.048367	-0.132391
	H467	H	0.944859	-0.054163	-0.124601
	O468	O	0.360904	0.728321	0.506769
	H469	H	0.351906	0.738365	0.509994
	H470	H	0.358144	0.717344	0.501004
	O471	O	0.388276	0.719492	0.326426
	H472	H	0.381900	0.721945	0.329620
	H473	H	0.377381	0.703976	0.328304
	O474	O	0.450018	0.483372	0.285214
	H475	H	0.467865	0.476802	0.279832
	H476	H	0.448428	0.474400	0.291760
	O477	O	0.716695	0.551111	1.456896
	H478	H	0.707962	0.557916	1.470186
	H479	H	0.715532	0.564948	1.460095
	O480	O	0.295472	0.327540	0.487576
	H481	H	0.294657	0.315545	0.494521
	H482	H	0.285325	0.328759	0.483192
	O483	O	0.774151	1.065387	1.064171
	H484	H	0.769443	1.060513	1.075085
	H485	H	0.771327	1.061223	1.070804
	O486	O	1.188623	0.200539	1.153366
	H487	H	1.195360	0.184266	1.131008
	H488	H	1.144468	0.208920	1.166424
	O489	O	0.905954	1.043131	0.222827
	H490	H	0.899708	1.027675	0.209151
	H491	H	0.889896	1.042034	0.232369
