data_Molecule from HDF5

_cell_length_a		16.308766
_cell_length_b		16.150807
_cell_length_c		16.252441
_cell_angle_alpha	90.052203
_cell_angle_beta	89.997935
_cell_angle_gamma	89.337759
_symmetry_space_group_name_H-M	'P 1'
_symmetry_Int_Tables_number		1

loop_
	_symmetry_equiv_pos_as_xyz
	x,y,z

loop_
	_atom_site_label
	_atom_site_type_symbol
	_atom_site_fract_x
	_atom_site_fract_y
	_atom_site_fract_z
	H0	H	0.389689	0.829557	0.706094
	H1	H	0.583623	0.158659	0.706170
	H2	H	0.590740	0.828929	0.277103
	H3	H	0.387501	0.157394	0.277006
	H4	H	0.706555	0.388606	0.827913
	H5	H	0.705010	0.592154	0.153071
	H6	H	0.270667	0.596495	0.827846
	H7	H	0.271475	0.392873	0.152523
	H8	H	0.825011	0.709884	0.393983
	H9	H	0.151732	0.706931	0.590110
	H10	H	0.825293	0.281039	0.589854
	H11	H	0.150314	0.273828	0.389710
	H12	H	0.827570	0.392544	0.709587
	H13	H	0.150234	0.594164	0.707788
	H14	H	0.824829	0.595195	0.276220
	H15	H	0.151049	0.390204	0.274302
	H16	H	0.388821	0.709902	0.827363
	H17	H	0.586765	0.706764	0.155182
	H18	H	0.589231	0.275764	0.827340
	H19	H	0.391848	0.281045	0.155139
	H20	H	0.706391	0.830289	0.392369
	H21	H	0.700414	0.158881	0.593316
	H22	H	0.276326	0.829150	0.592305
	H23	H	0.268294	0.154973	0.389384
	H24	H	0.888311	0.329358	0.207569
	H25	H	0.087344	0.657099	0.206976
	H26	H	0.093456	0.330720	0.773691
	H27	H	0.887429	0.657634	0.776392
	H28	H	0.209895	0.886828	0.330784
	H29	H	0.204443	0.093593	0.654733
	H30	H	0.769586	0.098047	0.329971
	H31	H	0.773943	0.894892	0.655188
	H32	H	0.325675	0.211707	0.891295
	H33	H	0.652465	0.205334	0.089720
	H34	H	0.325157	0.781554	0.089893
	H35	H	0.651263	0.776282	0.891700
	H36	H	0.327215	0.893260	0.208519
	H37	H	0.651429	0.092586	0.207672
	H38	H	0.324853	0.095994	0.775428
	H39	H	0.650923	0.891017	0.774697
	H40	H	0.887615	0.208987	0.327994
	H41	H	0.085795	0.207804	0.654848
	H42	H	0.088894	0.777727	0.327776
	H43	H	0.890312	0.779227	0.655141
	H44	H	0.208568	0.331389	0.887998
	H45	H	0.202444	0.657328	0.092013
	H46	H	0.774589	0.328572	0.091022
	H47	H	0.768996	0.655544	0.887771
	H48	H	0.394191	0.110473	0.583426
	H49	H	0.584862	0.876369	0.581474
	H50	H	0.582681	0.114523	0.392299
	H51	H	0.397337	0.876301	0.404961
	H52	H	0.584835	0.400503	0.107931
	H53	H	0.585612	0.583595	0.872564
	H54	H	0.391365	0.583961	0.106647
	H55	H	0.402228	0.402671	0.875826
	H56	H	0.104574	0.582455	0.396921
	H57	H	0.873268	0.592511	0.577820
	H58	H	0.102835	0.402729	0.577725
	H59	H	0.874480	0.406871	0.401854
	H60	H	0.105225	0.404003	0.585837
	H61	H	0.874640	0.579573	0.581331
	H62	H	0.106129	0.586224	0.394826
	H63	H	0.871355	0.405739	0.392642
	H64	H	0.398184	0.585051	0.106106
	H65	H	0.577596	0.576672	0.877506
	H66	H	0.583227	0.401110	0.105157
	H67	H	0.396152	0.398128	0.872964
	H68	H	0.571861	0.108865	0.399267
	H69	H	0.582858	0.875910	0.585338
	H70	H	0.395135	0.111157	0.582143
	H71	H	0.398804	0.874270	0.395899
	H72	H	0.891487	0.613419	0.088341
	H73	H	0.081901	0.379904	0.070614
	H74	H	0.078160	0.608878	0.905468
	H75	H	0.894676	0.371814	0.891307
	H76	H	0.088545	0.903717	0.609495
	H77	H	0.076360	0.082158	0.376365
	H78	H	0.897437	0.081395	0.606365
	H79	H	0.895518	0.905447	0.375184
	H80	H	0.605511	0.079295	0.891050
	H81	H	0.374528	0.086721	0.078107
	H82	H	0.606869	0.895579	0.086589
	H83	H	0.372461	0.901214	0.900396
	H84	H	0.604561	0.898404	0.079306
	H85	H	0.373880	0.081568	0.088107
	H86	H	0.605863	0.090508	0.899282
	H87	H	0.372670	0.905190	0.896891
	H88	H	0.898274	0.093981	0.608746
	H89	H	0.080456	0.082274	0.375177
	H90	H	0.077318	0.903382	0.605628
	H91	H	0.899334	0.905188	0.376644
	H92	H	0.085981	0.613421	0.896869
	H93	H	0.090736	0.371476	0.086520
	H94	H	0.903420	0.606973	0.081716
	H95	H	0.908690	0.378845	0.897592
	H96	H	0.393294	0.110907	0.581901
	H97	H	0.580899	0.877772	0.581813
	H98	H	0.583653	0.110652	0.406147
	H99	H	0.405550	0.877901	0.401115
	H100	H	0.582260	0.398381	0.108296
	H101	H	0.574528	0.587762	0.875023
	H102	H	0.393908	0.589671	0.108651
	H103	H	0.394839	0.406245	0.874394
	H104	H	0.104150	0.585930	0.399199
	H105	H	0.869961	0.588571	0.590569
	H106	H	0.106133	0.395820	0.582633
	H107	H	0.870607	0.397642	0.398512
	H108	H	0.891468	0.608994	0.074292
	H109	H	0.071813	0.378039	0.087002
	H110	H	0.074478	0.611850	0.893869
	H111	H	0.895137	0.377385	0.906780
	H112	H	0.082158	0.893742	0.610486
	H113	H	0.078958	0.078704	0.376268
	H114	H	0.887133	0.087902	0.611083
	H115	H	0.896940	0.901790	0.375550
	H116	H	0.600319	0.077928	0.903981
	H117	H	0.369881	0.093373	0.087218
	H118	H	0.605662	0.903230	0.086345
	H119	H	0.370727	0.900957	0.895906
	C120	C	0.366716	0.002154	0.612174
	C121	C	0.609668	0.985635	0.612606
	C122	C	0.610461	0.002794	0.370166
	C123	C	0.368200	0.984013	0.370227
	C124	C	0.612519	0.369632	-0.000671
	C125	C	0.609256	0.612943	0.982333
	C126	C	0.365060	0.616438	-0.000581
	C127	C	0.368378	0.373132	0.982159
	C128	C	-0.002874	0.615613	0.368650
	C129	C	0.979874	0.615536	0.612466
	C130	C	-0.002733	0.372523	0.611959
	C131	C	0.979677	0.371436	0.368246
	C132	C	0.867479	0.501180	0.111318
	C133	C	0.109563	0.485130	0.111097
	C134	C	0.110626	0.503081	0.868682
	C135	C	0.867767	0.484034	0.868517
	C136	C	0.112331	0.869768	0.500811
	C137	C	0.108450	0.112093	0.483398
	C138	C	0.864795	0.117413	0.501039
	C139	C	0.868298	0.874351	0.483480
	C140	C	0.496366	0.114254	0.869261
	C141	C	0.480288	0.115286	0.113358
	C142	C	0.498050	0.871390	0.113064
	C143	C	0.479411	0.871641	0.868408
	C144	C	0.369578	0.878635	0.668531
	C145	C	0.604870	0.109594	0.668342
	C146	C	0.610346	0.878550	0.314898
	C147	C	0.367807	0.107804	0.314475
	C148	C	0.668435	0.369500	0.876575
	C149	C	0.666231	0.612036	0.104793
	C150	C	0.309255	0.615949	0.876620
	C151	C	0.311358	0.373962	0.104488
	C152	C	0.873950	0.671827	0.372453
	C153	C	0.102721	0.670238	0.610575
	C154	C	0.874608	0.317890	0.610402
	C155	C	0.101643	0.312812	0.369537
	C156	C	0.875513	0.373560	0.669737
	C157	C	0.102066	0.614096	0.669196
	C158	C	0.874015	0.614994	0.313913
	C159	C	0.102130	0.370782	0.312301
	C160	C	0.368040	0.672233	0.876383
	C161	C	0.607116	0.668716	0.105695
	C162	C	0.609557	0.313730	0.876375
	C163	C	0.370989	0.318324	0.105794
	C164	C	0.667800	0.879221	0.372293
	C165	C	0.662986	0.109572	0.612200
	C166	C	0.313367	0.878151	0.611593
	C167	C	0.308195	0.106390	0.370103
	C168	C	0.869132	0.378273	0.168617
	C169	C	0.107206	0.608346	0.168234
	C170	C	0.111766	0.379765	0.812036
	C171	C	0.867892	0.608175	0.813686
	C172	C	0.170362	0.868451	0.378921
	C173	C	0.165261	0.112592	0.606136
	C174	C	0.808193	0.116798	0.378415
	C175	C	0.812309	0.874941	0.606295
	C176	C	0.374158	0.172493	0.871305
	C177	C	0.603499	0.168663	0.110296
	C178	C	0.374496	0.817940	0.110792
	C179	C	0.602154	0.814257	0.870637
	C180	C	0.375546	0.873699	0.169767
	C181	C	0.602755	0.112937	0.169361
	C182	C	0.373583	0.114769	0.813773
	C183	C	0.602076	0.871632	0.812517
	C184	C	0.866874	0.172279	0.377303
	C185	C	0.106418	0.169547	0.605963
	C186	C	0.110206	0.814253	0.377438
	C187	C	0.870466	0.818009	0.606263
	C188	C	0.169147	0.380086	0.869002
	C189	C	0.164502	0.608305	0.110800
	C190	C	0.812583	0.377740	0.110396
	C191	C	0.808631	0.606954	0.868899
	C192	C	0.388014	0.088474	0.589218
	C193	C	0.588961	0.899103	0.589727
	C194	C	0.586455	0.088955	0.392548
	C195	C	0.393167	0.898237	0.393752
	C196	C	0.590102	0.393109	0.085005
	C197	C	0.586199	0.589577	0.897080
	C198	C	0.387952	0.593119	0.085053
	C199	C	0.391007	0.395825	0.896656
	C200	C	0.082669	0.591780	0.390515
	C201	C	0.894797	0.593326	0.589717
	C202	C	0.082582	0.394600	0.588893
	C203	C	0.894182	0.396145	0.390977
	C204	C	0.889244	0.587470	0.088299
	C205	C	0.087759	0.398863	0.088049
	C206	C	0.086360	0.589070	0.891669
	C207	C	0.892191	0.398281	0.891759
	C208	C	0.089260	0.893264	0.586399
	C209	C	0.085404	0.087923	0.398001
	C210	C	0.887523	0.094639	0.586536
	C211	C	0.890542	0.897487	0.397987
	C212	C	0.581907	0.089930	0.891621
	C213	C	0.395018	0.093674	0.091046
	C214	C	0.583617	0.892742	0.090758
	C215	C	0.394044	0.895437	0.890923
	Zn216	Zn	0.487334	-0.006412	0.739372
	Zn217	Zn	0.489266	-0.006866	0.241652
	Zn218	Zn	0.739710	0.492014	-0.010334
	Zn219	Zn	0.237944	0.494066	-0.010034
	Zn220	Zn	-0.011077	0.744230	0.490883
	Zn221	Zn	-0.012147	0.242869	0.490433
	Zn222	Zn	-0.010944	0.493726	0.740991
	Zn223	Zn	-0.011499	0.493261	0.239937
	Zn224	Zn	0.487860	0.743617	-0.008750
	Zn225	Zn	0.489505	0.243246	-0.009166
	Zn226	Zn	0.738392	-0.004760	0.492411
	Zn227	Zn	0.239298	-0.008215	0.492493
	N228	N	0.402188	0.956838	0.668934
	N229	N	0.572654	0.031439	0.668929
	N230	N	0.575455	0.956419	0.313343
	N231	N	0.404049	0.030503	0.314113
	N232	N	0.670297	0.403742	0.953960
	N233	N	0.667617	0.577989	0.027145
	N234	N	0.307366	0.581909	0.954110
	N235	N	0.309666	0.407303	0.026699
	N236	N	0.951428	0.672599	0.405453
	N237	N	0.025801	0.671317	0.575891
	N238	N	0.951257	0.316911	0.575108
	N239	N	0.024342	0.313009	0.403431
	N240	N	0.952885	0.406816	0.670784
	N241	N	0.024912	0.580910	0.670640
	N242	N	0.951653	0.580639	0.311441
	N243	N	0.024985	0.406296	0.311259
	N244	N	0.402050	0.672596	0.953879
	N245	N	0.572251	0.669374	0.028613
	N246	N	0.575764	0.313431	0.953930
	N247	N	0.405721	0.317432	0.028745
	N248	N	0.667972	0.957479	0.405837
	N249	N	0.666015	0.031450	0.578093
	N250	N	0.311421	0.955840	0.577315
	N251	N	0.308447	0.028352	0.404078
	N252	N	0.902299	0.456144	0.169436
	N253	N	0.073851	0.530687	0.168649
	N254	N	0.075924	0.457275	0.811924
	N255	N	0.903879	0.530869	0.813300
	N256	N	0.172076	0.902008	0.456568
	N257	N	0.166558	0.077532	0.528809
	N258	N	0.806605	0.083508	0.456278
	N259	N	0.810834	0.909487	0.528970
	N260	N	0.451392	0.172183	0.905082
	N261	N	0.526472	0.170355	0.076053
	N262	N	0.451519	0.816160	0.076341
	N263	N	0.524915	0.814111	0.904719
	N264	N	0.453267	0.906171	0.171351
	N265	N	0.525390	0.080170	0.171264
	N266	N	0.450630	0.079134	0.812456
	N267	N	0.524812	0.906528	0.810860
	N268	N	0.901667	0.172605	0.454368
	N269	N	0.071765	0.169172	0.528704
	N270	N	0.074839	0.814789	0.454294
	N271	N	0.904421	0.817362	0.528855
	N272	N	0.168745	0.457827	0.903350
	N273	N	0.166311	0.530424	0.076134
	N274	N	0.811496	0.455264	0.075299
	N275	N	0.808530	0.528830	0.902443
	O276	O	0.908056	-0.122157	1.177314
	H277	H	0.902891	-0.142324	1.176327
	H278	H	0.903664	-0.121489	1.187677
	O279	O	0.425060	0.580551	0.351328
	H280	H	0.425078	0.576684	0.350330
	H281	H	0.426411	0.586751	0.352162
	O282	O	0.425881	0.531917	0.345217
	H283	H	0.421606	0.531613	0.353746
	H284	H	0.427914	0.517000	0.347961
	O285	O	0.430980	0.461518	0.403452
	H286	H	0.413537	0.467393	0.408323
	H287	H	0.436913	0.469146	0.386862
	O288	O	0.527423	0.543341	0.521186
	H289	H	0.528900	0.541270	0.511596
	H290	H	0.532868	0.548336	0.521519
	O291	O	-0.039507	-0.065679	0.907894
	H292	H	-0.036246	-0.070703	0.906929
	H293	H	-0.044660	-0.059525	0.900196
	O294	O	0.475198	1.472701	0.460476
	H295	H	0.486303	1.458761	0.464368
	H296	H	0.487181	1.466611	0.467540
	O297	O	0.996343	0.958926	0.118524
	H298	H	1.016119	0.963126	0.124773
	H299	H	1.000041	0.967211	0.097978
	O300	O	0.428366	0.419080	0.480757
	H301	H	0.435586	0.418780	0.477826
	H302	H	0.423622	0.422301	0.489939
	O303	O	0.471769	0.508284	0.469127
	H304	H	0.472097	0.515460	0.462753
	H305	H	0.467950	0.504269	0.472257
	O306	O	0.959351	0.874694	1.104071
	H307	H	0.961735	0.881090	1.106599
	H308	H	0.959756	0.865433	1.117442
	O309	O	0.549081	0.522456	0.493798
	H310	H	0.558549	0.529291	0.488048
	H311	H	0.552898	0.524420	0.488090
	O312	O	1.111427	0.958828	1.038233
	H313	H	1.101231	0.954206	1.038672
	H314	H	1.114694	0.978739	1.051587
	O315	O	0.828897	0.938538	0.135473
	H316	H	0.831009	0.945110	0.137984
	H317	H	0.816468	0.923709	0.137120
	O318	O	0.571239	0.494810	0.409558
	H319	H	0.559651	0.501945	0.398203
	H320	H	0.571589	0.481188	0.403563
	O321	O	0.622569	0.609006	0.576458
	H322	H	0.630953	0.607108	0.577672
	H323	H	0.632241	0.606702	0.585084
	O324	O	-0.074926	1.009259	1.103171
	H325	H	-0.081738	1.015805	1.095813
	H326	H	-0.066685	0.991372	1.101221
	O327	O	0.110861	1.149232	1.183935
	H328	H	0.102748	1.162477	1.196172
	H329	H	0.128814	1.156568	1.175108
	O330	O	-0.057314	0.143985	-0.029477
	H331	H	-0.081585	0.149501	-0.023548
	H332	H	-0.056895	0.152565	-0.034374
	O333	O	0.461719	0.544489	0.605308
	H334	H	0.465691	0.556790	0.613379
	H335	H	0.469417	0.547544	0.606014
	O336	O	-0.081574	0.088679	-0.150512
	H337	H	-0.095026	0.082686	-0.158212
	H338	H	-0.083918	0.084931	-0.132189
	O339	O	0.030737	0.052888	-0.010954
	H340	H	0.027640	0.051501	-0.016631
	H341	H	0.023688	0.059710	-0.021255
	O342	O	0.396041	0.404949	0.525294
	H343	H	0.390387	0.403989	0.528417
	H344	H	0.386691	0.416262	0.522768
	O345	O	0.102759	0.952748	0.993555
	H346	H	0.104517	0.960509	1.007928
	H347	H	0.107084	0.961883	0.979891
	O348	O	0.085413	-0.055624	0.932061
	H349	H	0.085792	-0.049441	0.922888
	H350	H	0.084794	-0.050598	0.929755
	O351	O	0.404722	0.375152	0.574944
	H352	H	0.388931	0.374448	0.581071
	H353	H	0.413028	0.373964	0.581109
	O354	O	0.403412	0.483656	0.580926
	H355	H	0.404427	0.496865	0.579278
	H356	H	0.407010	0.487719	0.594346
	O357	O	0.939647	1.093293	-0.008648
	H358	H	0.932276	1.086538	-0.007215
	H359	H	0.935566	1.093837	-0.000829
	O360	O	0.954348	-0.006267	0.993106
	H361	H	0.948678	-0.012115	0.996944
	H362	H	0.959950	-0.005549	0.998807
	O363	O	0.618032	0.442058	0.636735
	H364	H	0.615034	0.434435	0.619763
	H365	H	0.622829	0.437024	0.643645
	O366	O	0.823992	1.120068	-0.099653
	H367	H	0.823130	1.108525	-0.108374
	H368	H	0.820254	1.122655	-0.102115
	O369	O	1.459682	0.488692	0.397830
	H370	H	1.454265	0.489977	0.401095
	H371	H	1.451479	0.494375	0.403822
	O372	O	0.590250	0.472081	0.546493
	H373	H	0.578759	0.465099	0.540898
	H374	H	0.580129	0.458267	0.555297
	O375	O	0.942980	-0.056787	0.948205
	H376	H	0.931975	-0.064474	0.972591
	H377	H	0.945026	-0.060981	0.950291
	O378	O	0.056635	1.003887	-0.079810
	H379	H	0.052895	1.008467	-0.077118
	H380	H	0.068744	0.993892	-0.090604
	O381	O	0.427512	0.596243	0.591102
	H382	H	0.433194	0.600507	0.592530
	H383	H	0.439027	0.588493	0.594566
	O384	O	1.163198	1.100033	0.029572
	H385	H	1.169793	1.108067	0.024204
	H386	H	1.155493	1.094139	0.019530
	O387	O	0.949121	-0.093561	0.917543
	H388	H	0.948529	-0.101565	0.908705
	H389	H	0.967388	-0.104054	0.923934
	O390	O	0.982865	0.876834	-0.159983
	H391	H	0.987943	0.874729	-0.152025
	H392	H	1.003383	0.878363	-0.163784
	O393	O	0.503688	0.528527	0.400271
	H394	H	0.500524	0.522019	0.397077
	H395	H	0.491086	0.539457	0.394151
