data_Molecule from HDF5

_cell_length_a		16.209963
_cell_length_b		16.376241
_cell_length_c		16.281949
_cell_angle_alpha	90.246564
_cell_angle_beta	89.649301
_cell_angle_gamma	89.885715
_symmetry_space_group_name_H-M	'P 1'
_symmetry_Int_Tables_number		1

loop_
	_symmetry_equiv_pos_as_xyz
	x,y,z

loop_
	_atom_site_label
	_atom_site_type_symbol
	_atom_site_fract_x
	_atom_site_fract_y
	_atom_site_fract_z
	H0	H	0.387453	0.825610	0.730266
	H1	H	0.594055	0.146701	0.729065
	H2	H	0.598878	0.825572	0.290618
	H3	H	0.392959	0.146886	0.292645
	H4	H	0.712620	0.381365	0.846233
	H5	H	0.707406	0.582310	0.171009
	H6	H	0.278228	0.583898	0.846719
	H7	H	0.272813	0.381425	0.169638
	H8	H	0.831618	0.702921	0.409206
	H9	H	0.154038	0.709200	0.615999
	H10	H	0.831625	0.269462	0.611848
	H11	H	0.156610	0.266662	0.404819
	H12	H	0.830019	0.387959	0.724032
	H13	H	0.155562	0.591110	0.727887
	H14	H	0.831164	0.585060	0.294313
	H15	H	0.156040	0.381272	0.288754
	H16	H	0.387644	0.704087	0.849417
	H17	H	0.598364	0.703417	0.168086
	H18	H	0.598332	0.263556	0.846918
	H19	H	0.390528	0.267738	0.171024
	H20	H	0.712082	0.825575	0.408236
	H21	H	0.707120	0.149114	0.610354
	H22	H	0.271614	0.826631	0.614404
	H23	H	0.279050	0.148567	0.411787
	H24	H	0.892077	0.323493	0.226967
	H25	H	0.098562	0.644869	0.228120
	H26	H	0.097387	0.324553	0.787326
	H27	H	0.890262	0.646913	0.791706
	H28	H	0.212006	0.886304	0.346988
	H29	H	0.209241	0.090473	0.671754
	H30	H	0.779641	0.085241	0.345491
	H31	H	0.776222	0.887422	0.672144
	H32	H	0.332093	0.202404	0.907481
	H33	H	0.656334	0.201785	0.110136
	H34	H	0.330984	0.766077	0.113197
	H35	H	0.655011	0.763239	0.903707
	H36	H	0.330561	0.885023	0.228433
	H37	H	0.658579	0.083948	0.222514
	H38	H	0.331381	0.087227	0.794531
	H39	H	0.655468	0.879871	0.788904
	H40	H	0.893730	0.202236	0.345883
	H41	H	0.094850	0.205099	0.670833
	H42	H	0.100557	0.766057	0.348466
	H43	H	0.887552	0.767807	0.670617
	H44	H	0.209974	0.322278	0.906180
	H45	H	0.212186	0.644578	0.110169
	H46	H	0.777833	0.321679	0.108286
	H47	H	0.775134	0.645622	0.908563
	H48	H	0.404623	0.096053	0.592106
	H49	H	0.586101	0.869553	0.602386
	H50	H	0.597250	0.105890	0.413052
	H51	H	0.404623	0.870157	0.414782
	H52	H	0.577426	0.393259	0.122183
	H53	H	0.590799	0.569257	0.891805
	H54	H	0.402725	0.579258	0.125685
	H55	H	0.405789	0.396047	0.896179
	H56	H	0.109486	0.580468	0.425074
	H57	H	0.877221	0.580122	0.601386
	H58	H	0.108031	0.394232	0.591303
	H59	H	0.883181	0.404445	0.424080
	H60	H	0.108388	0.401839	0.599959
	H61	H	0.879111	0.578379	0.596503
	H62	H	0.106605	0.568862	0.420136
	H63	H	0.874839	0.394763	0.405937
	H64	H	0.399534	0.569806	0.123984
	H65	H	0.577972	0.568746	0.895579
	H66	H	0.585699	0.384766	0.126119
	H67	H	0.408571	0.386958	0.893340
	H68	H	0.578613	0.102550	0.407786
	H69	H	0.578988	0.873163	0.599586
	H70	H	0.392575	0.104418	0.605135
	H71	H	0.406794	0.872966	0.421744
	H72	H	0.900505	0.598927	0.099715
	H73	H	0.079279	0.369946	0.101825
	H74	H	0.083289	0.599075	0.917410
	H75	H	0.911222	0.370345	0.909868
	H76	H	0.080700	0.899458	0.622468
	H77	H	0.089806	0.078670	0.391744
	H78	H	0.899490	0.084531	0.626923
	H79	H	0.909875	0.897024	0.396501
	H80	H	0.610920	0.073789	0.915483
	H81	H	0.374922	0.085373	0.101212
	H82	H	0.611103	0.889650	0.104969
	H83	H	0.375425	0.885651	0.917462
	H84	H	0.608926	0.888250	0.092644
	H85	H	0.380599	0.072006	0.095517
	H86	H	0.609734	0.075962	0.921904
	H87	H	0.381451	0.893917	0.931996
	H88	H	0.896443	0.076566	0.625265
	H89	H	0.084696	0.072266	0.395454
	H90	H	0.078772	0.896749	0.623762
	H91	H	0.904197	0.888831	0.391740
	H92	H	0.085936	0.598873	0.920580
	H93	H	0.080287	0.372454	0.093605
	H94	H	0.900015	0.599839	0.103041
	H95	H	0.906394	0.373726	0.924096
	H96	H	0.410984	0.099419	0.610184
	H97	H	0.585285	0.872893	0.594475
	H98	H	0.583818	0.099064	0.425635
	H99	H	0.399594	0.870588	0.421301
	H100	H	0.589274	0.396516	0.123522
	H101	H	0.582499	0.580389	0.890837
	H102	H	0.408574	0.572260	0.121718
	H103	H	0.399709	0.390512	0.890984
	H104	H	0.112078	0.577245	0.412784
	H105	H	0.878936	0.574747	0.600582
	H106	H	0.112553	0.390958	0.601419
	H107	H	0.876708	0.383753	0.424973
	H108	H	0.902743	0.598153	0.101704
	H109	H	0.087516	0.367706	0.098422
	H110	H	0.086446	0.600727	0.916299
	H111	H	0.895951	0.367285	0.913555
	H112	H	0.082181	0.897544	0.624045
	H113	H	0.081250	0.080052	0.393675
	H114	H	0.905378	0.078719	0.622761
	H115	H	0.898663	0.898930	0.393786
	H116	H	0.608354	0.069877	0.920448
	H117	H	0.376261	0.073460	0.110622
	H118	H	0.606665	0.899326	0.098150
	H119	H	0.379353	0.902200	0.917004
	C120	C	0.370391	-0.005699	0.633399
	C121	C	0.613726	0.978233	0.630180
	C122	C	0.616847	-0.004719	0.386010
	C123	C	0.373411	0.977939	0.389209
	C124	C	0.616082	0.360557	0.017001
	C125	C	0.614409	0.603809	0.999381
	C126	C	0.372613	0.604432	0.017592
	C127	C	0.372518	0.361664	1.000030
	C128	C	0.002280	0.606064	0.388908
	C129	C	0.985060	0.609198	0.631086
	C130	C	0.002394	0.365809	0.628992
	C131	C	0.985649	0.363349	0.387162
	C132	C	0.871125	0.492539	0.131169
	C133	C	0.114995	0.475900	0.129722
	C134	C	0.116051	0.493328	0.885862
	C135	C	0.872966	0.476828	0.886557
	C136	C	0.114206	0.865873	0.517595
	C137	C	0.115179	0.108431	0.500795
	C138	C	0.871526	0.108977	0.517213
	C139	C	0.872220	0.865217	0.501015
	C140	C	0.502186	0.104135	0.889678
	C141	C	0.485098	0.106365	0.131284
	C142	C	0.501998	0.862237	0.130915
	C143	C	0.485090	0.861754	0.888251
	C144	C	0.368789	0.873806	0.691207
	C145	C	0.613025	0.099009	0.689092
	C146	C	0.617714	0.873945	0.329056
	C147	C	0.373768	0.099070	0.331864
	C148	C	0.673875	0.361249	0.894971
	C149	C	0.670401	0.602812	0.121860
	C150	C	0.315765	0.604019	0.895692
	C151	C	0.312748	0.362222	0.121495
	C152	C	0.880205	0.663910	0.389402
	C153	C	0.106184	0.668792	0.633275
	C154	C	0.879993	0.308374	0.630242
	C155	C	0.107619	0.305144	0.385772
	C156	C	0.879055	0.367426	0.686059
	C157	C	0.106816	0.610130	0.689304
	C158	C	0.879892	0.605147	0.332419
	C159	C	0.107628	0.362496	0.328059
	C160	C	0.370528	0.663661	0.896924
	C161	C	0.616134	0.663018	0.120361
	C162	C	0.616833	0.302876	0.895202
	C163	C	0.371325	0.305586	0.122200
	C164	C	0.674138	0.873927	0.387485
	C165	C	0.669532	0.100214	0.630013
	C166	C	0.310858	0.874461	0.633741
	C167	C	0.316633	0.099687	0.390570
	C168	C	0.871786	0.371494	0.188371
	C169	C	0.116675	0.596585	0.188593
	C170	C	0.116049	0.372499	0.827170
	C171	C	0.871349	0.598273	0.829917
	C172	C	0.173573	0.865771	0.395797
	C173	C	0.171582	0.109033	0.622815
	C174	C	0.816680	0.106141	0.394438
	C175	C	0.814188	0.866831	0.623101
	C176	C	0.380333	0.163052	0.889293
	C177	C	0.607802	0.163190	0.129891
	C178	C	0.379539	0.805016	0.132168
	C179	C	0.606548	0.802938	0.885469
	C180	C	0.379422	0.864112	0.189430
	C181	C	0.608960	0.104213	0.185592
	C182	C	0.379916	0.105378	0.833132
	C183	C	0.606736	0.861191	0.828316
	C184	C	0.873609	0.164243	0.394622
	C185	C	0.114452	0.166434	0.622352
	C186	C	0.118060	0.806073	0.396664
	C187	C	0.869988	0.807297	0.622264
	C188	C	0.172665	0.371377	0.885828
	C189	C	0.173340	0.596574	0.129884
	C190	C	0.815261	0.370557	0.129146
	C191	C	0.813973	0.597717	0.888174
	C192	C	0.395463	0.078254	0.609472
	C193	C	0.590252	0.893822	0.605770
	C194	C	0.593391	0.080323	0.408855
	C195	C	0.396736	0.893369	0.412481
	C196	C	0.591415	0.384578	0.101948
	C197	C	0.590531	0.579866	0.914724
	C198	C	0.396684	0.580668	0.102017
	C199	C	0.397266	0.384474	0.915448
	C200	C	0.087416	0.582554	0.412626
	C201	C	0.900532	0.584713	0.606653
	C202	C	0.087404	0.388986	0.604754
	C203	C	0.900340	0.387408	0.411234
	C204	C	0.894165	0.576972	0.108261
	C205	C	0.089822	0.391775	0.105225
	C206	C	0.092250	0.577610	0.910644
	C207	C	0.897446	0.392539	0.909264
	C208	C	0.088035	0.890758	0.601675
	C209	C	0.092079	0.084230	0.415780
	C210	C	0.893919	0.086574	0.602716
	C211	C	0.896981	0.888384	0.416122
	C212	C	0.587464	0.079998	0.912839
	C213	C	0.399409	0.083658	0.109103
	C214	C	0.586973	0.885510	0.105886
	C215	C	0.400607	0.886709	0.914578
	Zn216	Zn	0.493045	-0.015196	0.760792
	Zn217	Zn	0.494243	-0.014797	0.259038
	Zn218	Zn	0.743441	0.483900	0.008116
	Zn219	Zn	0.244296	0.483650	0.008199
	Zn220	Zn	-0.006202	0.736595	0.509450
	Zn221	Zn	-0.006162	0.236186	0.509219
	Zn222	Zn	-0.005882	0.486285	0.757552
	Zn223	Zn	-0.005759	0.484853	0.259024
	Zn224	Zn	0.493451	0.732756	0.009315
	Zn225	Zn	0.493865	0.232939	0.009060
	Zn226	Zn	0.743405	-0.012795	0.509412
	Zn227	Zn	0.243108	-0.013345	0.509986
	N228	N	0.404832	0.949579	0.691184
	N229	N	0.579052	0.022056	0.689480
	N230	N	0.582779	0.950425	0.328025
	N231	N	0.408091	0.022246	0.330757
	N232	N	0.673500	0.396377	0.971818
	N233	N	0.669715	0.566934	0.045493
	N234	N	0.316836	0.567647	0.971645
	N235	N	0.313380	0.396404	0.044538
	N236	N	0.957528	0.664807	0.423470
	N237	N	0.029494	0.668478	0.597951
	N238	N	0.957522	0.307301	0.595315
	N239	N	0.030713	0.305558	0.421637
	N240	N	0.956109	0.402271	0.685519
	N241	N	0.030534	0.573635	0.688009
	N242	N	0.956944	0.570147	0.331867
	N243	N	0.030727	0.398132	0.328825
	N244	N	0.405249	0.664021	0.973693
	N245	N	0.582060	0.663827	0.043203
	N246	N	0.581505	0.302532	0.972205
	N247	N	0.407911	0.305214	0.045800
	N248	N	0.673587	0.950439	0.422185
	N249	N	0.670011	0.024098	0.594035
	N250	N	0.311618	0.950586	0.598602
	N251	N	0.316344	0.023471	0.425610
	N252	N	0.905860	0.448251	0.189946
	N253	N	0.081160	0.520373	0.188442
	N254	N	0.081912	0.449427	0.826801
	N255	N	0.907267	0.522188	0.828956
	N256	N	0.171303	0.902218	0.471979
	N257	N	0.172014	0.073357	0.546055
	N258	N	0.815349	0.072572	0.471716
	N259	N	0.815305	0.902068	0.546558
	N260	N	0.457386	0.162407	0.923792
	N261	N	0.529953	0.164660	0.096809
	N262	N	0.456907	0.803629	0.096752
	N263	N	0.529874	0.802994	0.921842
	N264	N	0.456599	0.898791	0.188647
	N265	N	0.531644	0.069485	0.186605
	N266	N	0.456523	0.069270	0.833477
	N267	N	0.529810	0.896797	0.829665
	N268	N	0.906819	0.166237	0.472157
	N269	N	0.080195	0.166149	0.545439
	N270	N	0.081889	0.806089	0.473372
	N271	N	0.905292	0.806202	0.545227
	N272	N	0.172936	0.447544	0.921748
	N273	N	0.172492	0.520428	0.094192
	N274	N	0.814499	0.446933	0.094609
	N275	N	0.814791	0.521267	0.922616
	O276	O	0.424232	0.339609	0.502826
	H277	H	0.418411	0.331399	0.493806
	H278	H	0.424769	0.349423	0.517910
	O279	O	0.406556	0.487976	0.437974
	H280	H	0.422205	0.500579	0.444717
	H281	H	0.407156	0.495371	0.432491
	O282	O	1.169094	-0.139880	0.994926
	H283	H	1.169692	-0.143726	1.002643
	H284	H	1.165141	-0.147556	0.985104
	O285	O	0.632762	0.362005	0.366128
	H286	H	0.628209	0.363904	0.347011
	H287	H	0.631770	0.356059	0.353788
	O288	O	1.022706	1.027753	1.102186
	H289	H	1.026980	1.020006	1.092385
	H290	H	1.029826	1.019742	1.090760
	O291	O	0.336316	1.685165	-0.469280
	H292	H	0.344304	1.686322	-0.486296
	H293	H	0.328195	1.696914	-0.486829
	O294	O	0.618575	0.448185	0.584213
	H295	H	0.627005	0.444298	0.573961
	H296	H	0.610063	0.446535	0.581235
	O297	O	0.499313	0.425273	0.647813
	H298	H	0.483755	0.427018	0.652289
	H299	H	0.504896	0.415944	0.641108
	O300	O	0.613538	0.659717	0.666101
	H301	H	0.610007	0.667047	0.675502
	H302	H	0.616940	0.651239	0.669539
	O303	O	0.464444	0.359656	0.529563
	H304	H	0.466344	0.352781	0.539931
	H305	H	0.470615	0.362597	0.528997
	O306	O	0.659913	0.647210	0.645486
	H307	H	0.670746	0.647372	0.638151
	H308	H	0.668096	0.647958	0.666116
	O309	O	0.587403	0.433731	0.415854
	H310	H	0.587245	0.440649	0.411269
	H311	H	0.581316	0.421167	0.413448
	O312	O	-0.018685	-0.093043	0.188393
	H313	H	-0.038270	-0.083923	0.176757
	H314	H	-0.024996	-0.100875	0.201239
	O315	O	0.376180	0.441301	0.624225
	H316	H	0.386690	0.451472	0.624044
	H317	H	0.367687	0.432755	0.635294
	O318	O	-0.044156	1.041087	0.959111
	H319	H	-0.062408	1.045313	0.964108
	H320	H	-0.052984	1.047025	0.968255
	O321	O	0.410513	0.576310	0.484417
	H322	H	0.406335	0.574429	0.492062
	H323	H	0.406760	0.589468	0.490552
	O324	O	0.089158	0.961689	0.036183
	H325	H	0.082585	0.964118	0.036556
	H326	H	0.074220	0.954715	0.053966
	O327	O	-0.072346	-0.026435	-0.137403
	H328	H	-0.071258	-0.015572	-0.141550
	H329	H	-0.071420	-0.017516	-0.137704
	O330	O	-0.124096	-0.105683	1.122710
	H331	H	-0.107066	-0.097486	1.129330
	H332	H	-0.144836	-0.103443	1.126008
	O333	O	-0.061388	0.134627	1.057957
	H334	H	-0.055664	0.138185	1.045917
	H335	H	-0.066781	0.125251	1.062116
	O336	O	0.416636	0.427627	0.579152
	H337	H	0.424740	0.450264	0.576234
	H338	H	0.420690	0.430236	0.563402
	O339	O	1.148792	-0.074061	-0.035105
	H340	H	1.145973	-0.079762	-0.037341
	H341	H	1.141476	-0.058874	-0.041474
	O342	O	0.063482	-0.027906	0.098136
	H343	H	0.078097	-0.024612	0.099187
	H344	H	0.074409	-0.033609	0.100971
	O345	O	1.108352	-0.036023	0.825905
	H346	H	1.115401	-0.036706	0.815188
	H347	H	1.113692	-0.067996	0.820221
	O348	O	0.993645	1.075812	-0.135528
	H349	H	0.986317	1.067419	-0.140902
	H350	H	1.007583	1.069117	-0.138827
	O351	O	0.574589	0.613866	0.326206
	H352	H	0.551548	0.599507	0.328904
	H353	H	0.569807	0.629903	0.327486
	O354	O	0.991527	0.126182	1.021923
	H355	H	0.996532	0.116225	1.025706
	H356	H	1.003811	0.116615	1.023763
	O357	O	0.597554	0.591376	0.419782
	H358	H	0.597885	0.586432	0.435882
	H359	H	0.572031	0.594666	0.403682
	O360	O	1.139585	1.111944	0.989208
	H361	H	1.146566	1.110412	0.979821
	H362	H	1.140186	1.114687	0.990242
	O363	O	-0.044102	1.009664	1.145894
	H364	H	-0.048329	1.014919	1.128611
	H365	H	-0.031482	1.003788	1.131016
	O366	O	0.427135	0.460788	0.676000
	H367	H	0.429030	0.455721	0.677197
	H368	H	0.420132	0.472594	0.682542
	O369	O	0.037796	1.058715	-0.041551
	H370	H	0.042764	1.061443	-0.039749
	H371	H	0.035453	1.072488	-0.041541
	O372	O	0.418728	0.479088	0.668699
	H373	H	0.403510	0.471405	0.671046
	H374	H	0.423699	0.486373	0.676574
	O375	O	0.353756	0.649874	0.341304
	H376	H	0.335574	0.626924	0.325915
	H377	H	0.377046	0.641440	0.353935
	O378	O	0.851522	0.804561	0.075081
	H379	H	0.849157	0.820933	0.086739
	H380	H	0.845047	0.798380	0.068760
	O381	O	0.874276	-0.041728	-0.006331
	H382	H	0.876223	-0.052647	-0.007434
	H383	H	0.873987	-0.045009	-0.009132
	O384	O	1.670522	1.585023	-0.462120
	H385	H	1.655744	1.578820	-0.472622
	H386	H	1.677746	1.596503	-0.454440
	O387	O	0.087866	-0.164813	-0.049661
	H388	H	0.090818	-0.172958	-0.032919
	H389	H	0.064322	-0.173851	-0.042633
	O390	O	-0.169912	1.057345	-0.067741
	H391	H	-0.181392	1.053785	-0.064099
	H392	H	-0.155667	1.072931	-0.073465
	O393	O	0.319649	0.446306	0.348958
	H394	H	0.293410	0.454324	0.336926
	H395	H	0.324407	0.416799	0.361801
	O396	O	0.502941	0.378051	0.622631
	H397	H	0.512383	0.369061	0.606108
	H398	H	0.504309	0.383632	0.624454
	O399	O	0.591378	1.378032	1.360997
	H400	H	0.592199	1.370086	1.347015
	H401	H	0.576515	1.384722	1.370532
	O402	O	0.655001	0.401066	0.396535
	H403	H	0.643920	0.417738	0.379735
	H404	H	0.665017	0.399397	0.398549
	O405	O	0.847532	1.062494	-0.066564
	H406	H	0.837288	1.079676	-0.070640
	H407	H	0.860037	1.047493	-0.066299
	O408	O	0.885773	0.853210	0.117634
	H409	H	0.870797	0.845894	0.132275
	H410	H	0.866206	0.867271	0.122124
	O411	O	0.985550	-0.144290	0.885164
	H412	H	0.980601	-0.145625	0.885448
	H413	H	0.989405	-0.157903	0.892847
	O414	O	0.436933	0.649417	0.503064
	H415	H	0.444209	0.647852	0.503250
	H416	H	0.434448	0.644504	0.510216
	O417	O	0.375961	0.410986	0.452812
	H418	H	0.379529	0.398386	0.461944
	H419	H	0.372229	0.396385	0.458710
