data_Molecule from HDF5

_cell_length_a		16.245908
_cell_length_b		16.224242
_cell_length_c		16.304407
_cell_angle_alpha	89.918468
_cell_angle_beta	90.063936
_cell_angle_gamma	89.935625
_symmetry_space_group_name_H-M	'P 1'
_symmetry_Int_Tables_number		1

loop_
	_symmetry_equiv_pos_as_xyz
	x,y,z

loop_
	_atom_site_label
	_atom_site_type_symbol
	_atom_site_fract_x
	_atom_site_fract_y
	_atom_site_fract_z
	H0	H	0.402523	0.835889	0.715028
	H1	H	0.597385	0.164924	0.712574
	H2	H	0.598220	0.835859	0.286687
	H3	H	0.400862	0.164064	0.285178
	H4	H	0.713707	0.403403	0.836206
	H5	H	0.714135	0.597540	0.164022
	H6	H	0.286602	0.597901	0.836775
	H7	H	0.285648	0.401712	0.163837
	H8	H	0.835515	0.713971	0.402275
	H9	H	0.164651	0.712026	0.597949
	H10	H	0.834922	0.286686	0.596640
	H11	H	0.164491	0.286778	0.403030
	H12	H	0.835825	0.401644	0.714447
	H13	H	0.163784	0.597027	0.713346
	H14	H	0.835967	0.599142	0.285182
	H15	H	0.164032	0.401956	0.286224
	H16	H	0.402025	0.715209	0.836916
	H17	H	0.598020	0.713854	0.164388
	H18	H	0.597678	0.286998	0.835920
	H19	H	0.402441	0.285947	0.164214
	H20	H	0.713253	0.835233	0.403117
	H21	H	0.713447	0.163731	0.597267
	H22	H	0.288506	0.834195	0.596369
	H23	H	0.285313	0.163248	0.401521
	H24	H	0.901781	0.336012	0.213409
	H25	H	0.098657	0.663811	0.214396
	H26	H	0.097477	0.336122	0.786546
	H27	H	0.900932	0.664099	0.784483
	H28	H	0.215209	0.899880	0.336893
	H29	H	0.214033	0.096912	0.663616
	H30	H	0.785887	0.097057	0.336237
	H31	H	0.787402	0.902201	0.664217
	H32	H	0.335658	0.214016	0.903343
	H33	H	0.664617	0.213518	0.098159
	H34	H	0.335641	0.787439	0.097500
	H35	H	0.664989	0.787483	0.904751
	H36	H	0.336293	0.901534	0.214510
	H37	H	0.663461	0.098195	0.214251
	H38	H	0.336162	0.099307	0.785551
	H39	H	0.664773	0.902839	0.787286
	H40	H	0.902666	0.212799	0.336102
	H41	H	0.097331	0.212288	0.663405
	H42	H	0.097391	0.786002	0.335695
	H43	H	0.904464	0.786144	0.664480
	H44	H	0.213322	0.335637	0.902689
	H45	H	0.212664	0.664494	0.097536
	H46	H	0.786734	0.335813	0.096674
	H47	H	0.786142	0.664957	0.902061
	H48	H	0.402934	0.116395	0.590298
	H49	H	0.592394	0.880062	0.601225
	H50	H	0.593143	0.119683	0.398571
	H51	H	0.410365	0.882750	0.405090
	H52	H	0.588782	0.397686	0.118106
	H53	H	0.592650	0.594331	0.884378
	H54	H	0.408749	0.601074	0.118091
	H55	H	0.405731	0.397508	0.880744
	H56	H	0.116936	0.599187	0.411575
	H57	H	0.883325	0.586413	0.596833
	H58	H	0.116137	0.406764	0.590416
	H59	H	0.883976	0.405433	0.411464
	H60	H	0.116718	0.408639	0.596693
	H61	H	0.880110	0.598784	0.595423
	H62	H	0.115030	0.585557	0.407633
	H63	H	0.883424	0.410861	0.403833
	H64	H	0.398827	0.591876	0.118428
	H65	H	0.592649	0.594885	0.883224
	H66	H	0.604572	0.407139	0.118686
	H67	H	0.397927	0.412690	0.882658
	H68	H	0.585883	0.114305	0.409620
	H69	H	0.588392	0.884791	0.590548
	H70	H	0.405973	0.118049	0.596637
	H71	H	0.407933	0.883998	0.409533
	H72	H	0.904734	0.619915	0.097831
	H73	H	0.097308	0.379200	0.101958
	H74	H	0.087371	0.613484	0.913813
	H75	H	0.893211	0.380865	0.912701
	H76	H	0.103426	0.908738	0.618056
	H77	H	0.091386	0.094957	0.382918
	H78	H	0.906398	0.094659	0.616904
	H79	H	0.917639	0.899178	0.384648
	H80	H	0.617313	0.094013	0.905959
	H81	H	0.385180	0.090633	0.087293
	H82	H	0.618009	0.901715	0.091290
	H83	H	0.386556	0.914869	0.906526
	H84	H	0.614473	0.912159	0.090893
	H85	H	0.382152	0.091301	0.099839
	H86	H	0.617748	0.093953	0.905602
	H87	H	0.380376	0.905278	0.900645
	H88	H	0.904163	0.093678	0.617924
	H89	H	0.095884	0.093503	0.382206
	H90	H	0.088219	0.911409	0.613741
	H91	H	0.894927	0.900374	0.378348
	H92	H	0.103817	0.620602	0.907304
	H93	H	0.084006	0.385485	0.094097
	H94	H	0.912152	0.615828	0.092872
	H95	H	0.909059	0.379881	0.892991
	H96	H	0.410015	0.115386	0.591469
	H97	H	0.599789	0.881623	0.591777
	H98	H	0.599485	0.117774	0.411202
	H99	H	0.405379	0.881033	0.405702
	H100	H	0.589397	0.415551	0.113050
	H101	H	0.592795	0.594358	0.883934
	H102	H	0.410885	0.587918	0.114567
	H103	H	0.414640	0.410801	0.887563
	H104	H	0.119832	0.594858	0.398173
	H105	H	0.884855	0.592587	0.586108
	H106	H	0.118471	0.402720	0.594851
	H107	H	0.880600	0.402479	0.402840
	H108	H	0.903939	0.617547	0.088641
	H109	H	0.098297	0.383188	0.086288
	H110	H	0.089393	0.619668	0.895161
	H111	H	0.917180	0.388874	0.915659
	H112	H	0.092812	0.897035	0.618747
	H113	H	0.093404	0.090645	0.384017
	H114	H	0.906589	0.092343	0.616460
	H115	H	0.905314	0.919822	0.386846
	H116	H	0.617623	0.094321	0.905202
	H117	H	0.380896	0.101383	0.092078
	H118	H	0.619644	0.907538	0.100255
	H119	H	0.383819	0.903943	0.913143
	C120	C	0.378550	0.008075	0.621199
	C121	C	0.621516	0.991096	0.621895
	C122	C	0.621337	0.008092	0.378777
	C123	C	0.378410	0.991041	0.378019
	C124	C	0.621955	0.379017	0.008388
	C125	C	0.621432	0.622480	0.991931
	C126	C	0.378008	0.622247	0.008771
	C127	C	0.378100	0.378592	0.991993
	C128	C	0.008476	0.621557	0.378229
	C129	C	0.991438	0.620566	0.620812
	C130	C	0.008461	0.377519	0.622101
	C131	C	0.991272	0.378513	0.378300
	C132	C	0.878664	0.508912	0.121229
	C133	C	0.120823	0.491555	0.121344
	C134	C	0.121270	0.508863	0.878190
	C135	C	0.878116	0.491827	0.878237
	C136	C	0.122223	0.877470	0.508170
	C137	C	0.121661	0.120986	0.491353
	C138	C	0.878009	0.121520	0.508523
	C139	C	0.878257	0.877996	0.491613
	C140	C	0.508801	0.122315	0.877790
	C141	C	0.491569	0.121706	0.121114
	C142	C	0.508773	0.878596	0.122120
	C143	C	0.491980	0.879172	0.878991
	C144	C	0.381759	0.884523	0.676706
	C145	C	0.618626	0.115326	0.675635
	C146	C	0.618752	0.884782	0.324145
	C147	C	0.380208	0.114677	0.322736
	C148	C	0.675977	0.382610	0.884883
	C149	C	0.676475	0.619010	0.115105
	C150	C	0.323915	0.619043	0.885617
	C151	C	0.323508	0.381345	0.115063
	C152	C	0.884574	0.676323	0.381550
	C153	C	0.115440	0.674584	0.618128
	C154	C	0.884173	0.323807	0.617987
	C155	C	0.115314	0.324248	0.381728
	C156	C	0.884680	0.380661	0.676450
	C157	C	0.114996	0.617452	0.675662
	C158	C	0.884817	0.619417	0.323251
	C159	C	0.115251	0.381919	0.324175
	C160	C	0.381347	0.677196	0.885746
	C161	C	0.618770	0.676436	0.115525
	C162	C	0.618288	0.324978	0.884770
	C163	C	0.381714	0.324107	0.115309
	C164	C	0.675625	0.884377	0.382467
	C165	C	0.675927	0.114917	0.618110
	C166	C	0.325336	0.883595	0.617750
	C167	C	0.322910	0.114498	0.380610
	C168	C	0.881400	0.384829	0.175853
	C169	C	0.118333	0.615270	0.176052
	C170	C	0.118233	0.384933	0.824210
	C171	C	0.880629	0.615419	0.822872
	C172	C	0.176796	0.880271	0.385232
	C173	C	0.176034	0.117576	0.614673
	C174	C	0.823681	0.118155	0.385136
	C175	C	0.824872	0.881131	0.615553
	C176	C	0.384826	0.176405	0.881881
	C177	C	0.615285	0.176125	0.118624
	C178	C	0.384893	0.824539	0.118677
	C179	C	0.615727	0.824682	0.882931
	C180	C	0.384996	0.881116	0.176635
	C181	C	0.614909	0.118814	0.176302
	C182	C	0.384978	0.119598	0.823499
	C183	C	0.615642	0.881788	0.824552
	C184	C	0.881723	0.175501	0.384944
	C185	C	0.118015	0.175004	0.614645
	C186	C	0.118654	0.823199	0.385040
	C187	C	0.882770	0.823550	0.615400
	C188	C	0.175366	0.384703	0.882160
	C189	C	0.175090	0.615439	0.118069
	C190	C	0.824285	0.384886	0.117872
	C191	C	0.823800	0.615896	0.881207
	C192	C	0.399955	0.094395	0.599352
	C193	C	0.599817	0.904468	0.600748
	C194	C	0.599320	0.094978	0.400218
	C195	C	0.401238	0.904704	0.400325
	C196	C	0.600640	0.400408	0.094342
	C197	C	0.599267	0.600818	0.906064
	C198	C	0.399780	0.600164	0.095038
	C199	C	0.399675	0.400537	0.905864
	C200	C	0.094750	0.599653	0.399478
	C201	C	0.905039	0.599005	0.599276
	C202	C	0.094705	0.399427	0.600400
	C203	C	0.904937	0.400012	0.399616
	C204	C	0.900592	0.595369	0.099508
	C205	C	0.099503	0.404928	0.100232
	C206	C	0.099827	0.595516	0.899328
	C207	C	0.900022	0.405414	0.900552
	C208	C	0.101022	0.899275	0.594634
	C209	C	0.100016	0.099387	0.405122
	C210	C	0.899465	0.100096	0.594662
	C211	C	0.899572	0.899884	0.405632
	C212	C	0.595361	0.100584	0.899231
	C213	C	0.405056	0.100558	0.099442
	C214	C	0.595061	0.900627	0.100646
	C215	C	0.405752	0.901500	0.900489
	Zn216	Zn	0.500448	0.000715	0.749984
	Zn217	Zn	0.499881	-0.000003	0.249819
	Zn218	Zn	0.750549	0.500754	-0.000271
	Zn219	Zn	0.248998	0.500055	-0.000096
	Zn220	Zn	0.000270	0.749517	0.500168
	Zn221	Zn	-0.000013	0.249807	0.499834
	Zn222	Zn	-0.000295	0.500000	0.749846
	Zn223	Zn	0.000106	0.500015	0.249681
	Zn224	Zn	0.500112	0.750690	0.001174
	Zn225	Zn	0.500496	0.250191	-0.000074
	Zn226	Zn	0.749709	-0.000700	0.500195
	Zn227	Zn	0.250298	-0.000894	0.499751
	N228	N	0.414137	0.962699	0.678874
	N229	N	0.585450	0.037383	0.677935
	N230	N	0.585470	0.962796	0.321816
	N231	N	0.414167	0.037020	0.321247
	N232	N	0.678098	0.415722	0.962528
	N233	N	0.678345	0.586247	0.037369
	N234	N	0.321829	0.585471	0.963044
	N235	N	0.321374	0.414654	0.037512
	N236	N	0.962269	0.677904	0.415025
	N237	N	0.037510	0.676727	0.584891
	N238	N	0.962075	0.321816	0.584829
	N239	N	0.037453	0.322146	0.414782
	N240	N	0.962749	0.413266	0.679144
	N241	N	0.036882	0.584784	0.677580
	N242	N	0.962686	0.585972	0.321104
	N243	N	0.037200	0.414827	0.321827
	N244	N	0.414325	0.679013	0.963410
	N245	N	0.585190	0.678619	0.037998
	N246	N	0.585410	0.322514	0.962499
	N247	N	0.414916	0.322206	0.037756
	N248	N	0.677062	0.962169	0.415493
	N249	N	0.677658	0.036819	0.585354
	N250	N	0.323279	0.961380	0.583925
	N251	N	0.322042	0.036690	0.414401
	N252	N	0.914500	0.462916	0.177831
	N253	N	0.085445	0.537331	0.178278
	N254	N	0.085228	0.463042	0.821684
	N255	N	0.913550	0.537239	0.820979
	N256	N	0.179172	0.913069	0.462916
	N257	N	0.178406	0.084600	0.537047
	N258	N	0.821489	0.084950	0.462849
	N259	N	0.821815	0.914045	0.537750
	N260	N	0.462744	0.178155	0.914882
	N261	N	0.537773	0.177762	0.084789
	N262	N	0.462615	0.823027	0.085425
	N263	N	0.537883	0.822857	0.915925
	N264	N	0.462932	0.914143	0.178941
	N265	N	0.536989	0.085634	0.177958
	N266	N	0.463164	0.086776	0.820798
	N267	N	0.537708	0.915034	0.822079
	N268	N	0.914567	0.177755	0.462744
	N269	N	0.085125	0.177142	0.536990
	N270	N	0.085289	0.821609	0.462546
	N271	N	0.915151	0.821415	0.537491
	N272	N	0.177462	0.462830	0.914710
	N273	N	0.176593	0.537633	0.084764
	N274	N	0.822396	0.462867	0.084693
	N275	N	0.822421	0.538151	0.914975
