data_Molecule from HDF5

_cell_length_a		16.276013
_cell_length_b		16.246330
_cell_length_c		16.249263
_cell_angle_alpha	90.057939
_cell_angle_beta	89.989956
_cell_angle_gamma	89.931765
_symmetry_space_group_name_H-M	'P 1'
_symmetry_Int_Tables_number		1

loop_
	_symmetry_equiv_pos_as_xyz
	x,y,z

loop_
	_atom_site_label
	_atom_site_type_symbol
	_atom_site_fract_x
	_atom_site_fract_y
	_atom_site_fract_z
	H0	H	0.395648	0.830612	0.718520
	H1	H	0.591034	0.160156	0.719903
	H2	H	0.590057	0.831017	0.291434
	H3	H	0.394922	0.160432	0.291882
	H4	H	0.706884	0.396351	0.840966
	H5	H	0.706586	0.593579	0.169334
	H6	H	0.279799	0.593723	0.839831
	H7	H	0.276943	0.396248	0.168505
	H8	H	0.828273	0.710459	0.406678
	H9	H	0.157667	0.708253	0.600986
	H10	H	0.828213	0.283231	0.602173
	H11	H	0.156159	0.281011	0.405442
	H12	H	0.828781	0.397929	0.718891
	H13	H	0.156390	0.593974	0.718766
	H14	H	0.827929	0.594243	0.291041
	H15	H	0.156086	0.398292	0.290433
	H16	H	0.394963	0.709815	0.841368
	H17	H	0.589756	0.708352	0.170140
	H18	H	0.590423	0.281469	0.841198
	H19	H	0.395591	0.283223	0.170000
	H20	H	0.707726	0.831967	0.406606
	H21	H	0.706808	0.159894	0.603869
	H22	H	0.278414	0.831143	0.603257
	H23	H	0.277918	0.159928	0.406934
	H24	H	0.894225	0.332032	0.218001
	H25	H	0.089949	0.660381	0.218393
	H26	H	0.089716	0.331138	0.791180
	H27	H	0.894968	0.660615	0.791473
	H28	H	0.206781	0.897677	0.340507
	H29	H	0.206265	0.094114	0.668923
	H30	H	0.777778	0.094372	0.341260
	H31	H	0.779285	0.897747	0.669147
	H32	H	0.329536	0.210961	0.906513
	H33	H	0.656913	0.209832	0.103321
	H34	H	0.329041	0.781460	0.103402
	H35	H	0.657088	0.781721	0.907272
	H36	H	0.328141	0.898777	0.217502
	H37	H	0.656658	0.093595	0.219058
	H38	H	0.328862	0.094337	0.790959
	H39	H	0.656550	0.897670	0.791141
	H40	H	0.894644	0.209716	0.340784
	H41	H	0.090416	0.210670	0.669058
	H42	H	0.090536	0.782308	0.340128
	H43	H	0.895190	0.782470	0.668982
	H44	H	0.207047	0.331581	0.905950
	H45	H	0.206234	0.660201	0.102366
	H46	H	0.778954	0.331830	0.102332
	H47	H	0.777690	0.660153	0.907610
	H48	H	0.402575	0.110593	0.597550
	H49	H	0.591159	0.882566	0.582708
	H50	H	0.581656	0.110261	0.415846
	H51	H	0.396435	0.875274	0.400387
	H52	H	0.598217	0.411831	0.122991
	H53	H	0.585233	0.598693	0.885519
	H54	H	0.389013	0.590154	0.125312
	H55	H	0.401241	0.404599	0.889318
	H56	H	0.109191	0.585894	0.408199
	H57	H	0.874915	0.593132	0.595331
	H58	H	0.109605	0.401763	0.598021
	H59	H	0.877648	0.405471	0.414097
	H60	H	0.108664	0.402729	0.596269
	H61	H	0.877162	0.586879	0.597036
	H62	H	0.110521	0.592603	0.409166
	H63	H	0.874850	0.404773	0.407076
	H64	H	0.401597	0.578944	0.118022
	H65	H	0.594419	0.582922	0.887730
	H66	H	0.573052	0.407585	0.116867
	H67	H	0.400863	0.400200	0.888262
	H68	H	0.591496	0.113109	0.413165
	H69	H	0.597022	0.873050	0.609184
	H70	H	0.397985	0.111441	0.595152
	H71	H	0.409656	0.882812	0.413818
	H72	H	0.903616	0.614255	0.105153
	H73	H	0.087645	0.377870	0.099435
	H74	H	0.079400	0.612041	0.907431
	H75	H	0.891793	0.379617	0.918406
	H76	H	0.095782	0.904997	0.623887
	H77	H	0.085157	0.087267	0.389015
	H78	H	0.903124	0.078940	0.617931
	H79	H	0.912073	0.904096	0.391940
	H80	H	0.610079	0.095249	0.916814
	H81	H	0.376410	0.087538	0.099909
	H82	H	0.607623	0.913524	0.104295
	H83	H	0.375937	0.905830	0.908145
	H84	H	0.614567	0.892121	0.106120
	H85	H	0.374771	0.091763	0.100392
	H86	H	0.605909	0.081426	0.916245
	H87	H	0.374400	0.897785	0.910973
	H88	H	0.907661	0.098614	0.621893
	H89	H	0.084916	0.090755	0.387417
	H90	H	0.079814	0.908031	0.618294
	H91	H	0.895085	0.892539	0.383429
	H92	H	0.086793	0.611339	0.918218
	H93	H	0.082536	0.380101	0.097501
	H94	H	0.903011	0.609778	0.089910
	H95	H	0.897188	0.376190	0.902086
	H96	H	0.398432	0.113175	0.600429
	H97	H	0.570886	0.882288	0.602630
	H98	H	0.583444	0.113548	0.405878
	H99	H	0.390467	0.878926	0.419573
	H100	H	0.587627	0.388114	0.126763
	H101	H	0.576851	0.583633	0.892401
	H102	H	0.405523	0.596226	0.122376
	H103	H	0.396890	0.403038	0.887324
	H104	H	0.107311	0.589615	0.414072
	H105	H	0.874921	0.590401	0.602290
	H106	H	0.109303	0.404123	0.597824
	H107	H	0.874941	0.398293	0.411642
	H108	H	0.889497	0.615425	0.097268
	H109	H	0.086694	0.379793	0.094289
	H110	H	0.092042	0.615428	0.906796
	H111	H	0.908629	0.382183	0.913965
	H112	H	0.083791	0.892889	0.624116
	H113	H	0.087600	0.089029	0.387094
	H114	H	0.889134	0.091049	0.625721
	H115	H	0.891923	0.913815	0.388828
	H116	H	0.611664	0.088164	0.904333
	H117	H	0.376217	0.090619	0.096069
	H118	H	0.606394	0.899885	0.086001
	H119	H	0.377665	0.903869	0.916721
	C120	C	0.371289	0.003494	0.626611
	C121	C	0.614396	0.987626	0.627048
	C122	C	0.613997	0.004047	0.383248
	C123	C	0.370573	0.987502	0.382987
	C124	C	0.614471	0.374064	0.013723
	C125	C	0.613726	0.616629	0.997039
	C126	C	0.370843	0.617073	0.013368
	C127	C	0.371096	0.374208	0.996741
	C128	C	0.000562	0.617921	0.382524
	C129	C	0.984261	0.617920	0.625994
	C130	C	0.001208	0.374485	0.625964
	C131	C	0.984272	0.374455	0.382687
	C132	C	0.870573	0.504541	0.125631
	C133	C	0.113785	0.487773	0.125566
	C134	C	0.114337	0.504084	0.882602
	C135	C	0.870578	0.487661	0.883109
	C136	C	0.114308	0.874128	0.513116
	C137	C	0.114165	0.117587	0.496352
	C138	C	0.871426	0.117328	0.513481
	C139	C	0.871409	0.874690	0.496530
	C140	C	0.501216	0.117083	0.883882
	C141	C	0.484380	0.117626	0.126651
	C142	C	0.501011	0.873855	0.127037
	C143	C	0.484538	0.873928	0.883355
	C144	C	0.374700	0.879869	0.681005
	C145	C	0.611352	0.111228	0.682103
	C146	C	0.611273	0.880314	0.328581
	C147	C	0.373686	0.111148	0.328828
	C148	C	0.669416	0.376049	0.890069
	C149	C	0.668456	0.613782	0.120691
	C150	C	0.316774	0.614360	0.889464
	C151	C	0.315884	0.376691	0.120050
	C152	C	0.877298	0.672998	0.385629
	C153	C	0.108296	0.671826	0.622454
	C154	C	0.877434	0.320196	0.623267
	C155	C	0.107307	0.319050	0.385182
	C156	C	0.877581	0.377462	0.680952
	C157	C	0.107796	0.614480	0.680471
	C158	C	0.877063	0.614896	0.328410
	C159	C	0.107381	0.377396	0.328187
	C160	C	0.374180	0.671883	0.889967
	C161	C	0.610530	0.670826	0.121032
	C162	C	0.611305	0.319327	0.889950
	C163	C	0.374542	0.320260	0.120629
	C164	C	0.669333	0.880639	0.386125
	C165	C	0.669145	0.111109	0.624794
	C166	C	0.316546	0.880003	0.623795
	C167	C	0.316100	0.111141	0.386388
	C168	C	0.873665	0.380766	0.180398
	C169	C	0.110914	0.611333	0.180666
	C170	C	0.110851	0.380448	0.828351
	C171	C	0.874050	0.611559	0.828974
	C172	C	0.168813	0.877227	0.389380
	C173	C	0.168711	0.114885	0.620121
	C174	C	0.815811	0.114937	0.390080
	C175	C	0.817372	0.877431	0.620371
	C176	C	0.377934	0.172470	0.886438
	C177	C	0.608077	0.171741	0.123299
	C178	C	0.377577	0.819534	0.123874
	C179	C	0.607683	0.818656	0.885948
	C180	C	0.377410	0.877752	0.180647
	C181	C	0.607977	0.114236	0.180966
	C182	C	0.377781	0.114872	0.828857
	C183	C	0.607717	0.876632	0.828626
	C184	C	0.873715	0.172199	0.389755
	C185	C	0.111400	0.172729	0.620154
	C186	C	0.111295	0.819836	0.389269
	C187	C	0.874645	0.820094	0.619970
	C188	C	0.169229	0.380599	0.885411
	C189	C	0.168431	0.611360	0.122943
	C190	C	0.816342	0.380719	0.122960
	C191	C	0.815597	0.611351	0.886224
	C192	C	0.393059	0.089622	0.604233
	C193	C	0.592710	0.901541	0.604608
	C194	C	0.592082	0.090084	0.405203
	C195	C	0.392381	0.901261	0.404766
	C196	C	0.592876	0.396061	0.099885
	C197	C	0.592048	0.594916	0.910678
	C198	C	0.392344	0.594989	0.099697
	C199	C	0.393144	0.395996	0.910623
	C200	C	0.086836	0.596064	0.404136
	C201	C	0.898121	0.596629	0.604396
	C202	C	0.087067	0.396113	0.603910
	C203	C	0.898005	0.396282	0.404550
	C204	C	0.892211	0.590773	0.103958
	C205	C	0.092129	0.401437	0.103665
	C206	C	0.092655	0.590742	0.904508
	C207	C	0.892652	0.401548	0.904953
	C208	C	0.092788	0.895608	0.599682
	C209	C	0.092413	0.095646	0.410283
	C210	C	0.893452	0.095847	0.599612
	C211	C	0.893191	0.897057	0.410254
	C212	C	0.587030	0.094798	0.906038
	C213	C	0.398157	0.096236	0.105122
	C214	C	0.587456	0.895374	0.105133
	C215	C	0.398247	0.896013	0.905582
	Zn216	Zn	0.492644	-0.004229	0.755385
	Zn217	Zn	0.492632	-0.004116	0.254780
	Zn218	Zn	0.742295	0.495796	0.005027
	Zn219	Zn	0.242710	0.495830	0.004453
	Zn220	Zn	-0.007473	0.746211	0.504571
	Zn221	Zn	-0.007667	0.246090	0.504930
	Zn222	Zn	-0.007547	0.495966	0.754124
	Zn223	Zn	-0.008039	0.496180	0.253943
	Zn224	Zn	0.492529	0.745701	0.005245
	Zn225	Zn	0.493133	0.246166	0.005070
	Zn226	Zn	0.742668	-0.004183	0.505601
	Zn227	Zn	0.242463	-0.004152	0.505091
	N228	N	0.408048	0.957682	0.682752
	N229	N	0.578205	0.033319	0.683915
	N230	N	0.577423	0.957945	0.326963
	N231	N	0.407151	0.033368	0.326953
	N232	N	0.671216	0.409658	0.967854
	N233	N	0.670560	0.581037	0.042630
	N234	N	0.314512	0.581009	0.967388
	N235	N	0.313463	0.409457	0.042021
	N236	N	0.955051	0.674771	0.418608
	N237	N	0.030569	0.673967	0.589171
	N238	N	0.955132	0.318220	0.589744
	N239	N	0.029730	0.317582	0.418710
	N240	N	0.955242	0.410745	0.682539
	N241	N	0.029903	0.581919	0.682915
	N242	N	0.954782	0.581516	0.326141
	N243	N	0.029774	0.410961	0.326360
	N244	N	0.407113	0.673709	0.967966
	N245	N	0.576875	0.672589	0.043252
	N246	N	0.577952	0.317844	0.967626
	N247	N	0.408187	0.318611	0.043011
	N248	N	0.671472	0.958639	0.419260
	N249	N	0.670923	0.033422	0.591175
	N250	N	0.314290	0.957894	0.590689
	N251	N	0.313999	0.033214	0.419471
	N252	N	0.906810	0.458645	0.182194
	N253	N	0.077608	0.533542	0.182429
	N254	N	0.077461	0.458393	0.826478
	N255	N	0.907408	0.533618	0.826826
	N256	N	0.170833	0.910238	0.467586
	N257	N	0.170786	0.081535	0.542284
	N258	N	0.814158	0.081664	0.467970
	N259	N	0.815108	0.910619	0.542504
	N260	N	0.455669	0.174156	0.919721
	N261	N	0.530180	0.174087	0.090366
	N262	N	0.455478	0.817032	0.091131
	N263	N	0.529858	0.817065	0.919477
	N264	N	0.455309	0.910485	0.182816
	N265	N	0.530319	0.081349	0.183142
	N266	N	0.455267	0.081054	0.827128
	N267	N	0.530143	0.910078	0.826944
	N268	N	0.907566	0.173797	0.467292
	N269	N	0.078082	0.174571	0.542352
	N270	N	0.078342	0.817719	0.467127
	N271	N	0.907730	0.818370	0.542017
	N272	N	0.171345	0.458511	0.918340
	N273	N	0.170361	0.533477	0.089442
	N274	N	0.814503	0.458532	0.089695
	N275	N	0.813539	0.533499	0.919285
	O276	O	1.493897	0.498763	0.513256
	H277	H	1.493277	0.498154	0.511548
	H278	H	1.489566	0.495779	0.517636
	O279	O	0.498271	0.491636	0.516206
	H280	H	0.499354	0.488023	0.511114
	H281	H	0.499011	0.497134	0.518854
	O282	O	1.132815	1.082959	-0.122213
	H283	H	1.133152	1.086290	-0.127958
	H284	H	1.134539	1.080485	-0.125072
	O285	O	0.509117	0.501792	0.506992
	H286	H	0.509961	0.505046	0.511636
	H287	H	0.508381	0.503747	0.508030
