data_Molecule from HDF5

_cell_length_a		16.173457
_cell_length_b		16.350325
_cell_length_c		16.296082
_cell_angle_alpha	90.188961
_cell_angle_beta	89.656515
_cell_angle_gamma	90.008171
_symmetry_space_group_name_H-M	'P 1'
_symmetry_Int_Tables_number		1

loop_
	_symmetry_equiv_pos_as_xyz
	x,y,z

loop_
	_atom_site_label
	_atom_site_type_symbol
	_atom_site_fract_x
	_atom_site_fract_y
	_atom_site_fract_z
	H0	H	0.396843	0.840858	0.709316
	H1	H	0.604081	0.163155	0.709127
	H2	H	0.607507	0.840976	0.267246
	H3	H	0.401290	0.163208	0.273165
	H4	H	0.720661	0.398023	0.827204
	H5	H	0.718702	0.605376	0.150353
	H6	H	0.287371	0.597235	0.825402
	H7	H	0.283617	0.400505	0.151055
	H8	H	0.839569	0.720275	0.387450
	H9	H	0.164747	0.717997	0.592332
	H10	H	0.837141	0.284253	0.592349
	H11	H	0.163177	0.282677	0.386292
	H12	H	0.837890	0.399451	0.708061
	H13	H	0.166128	0.598736	0.702816
	H14	H	0.839169	0.604656	0.272585
	H15	H	0.164404	0.398358	0.271440
	H16	H	0.396844	0.718407	0.827288
	H17	H	0.605984	0.722400	0.149086
	H18	H	0.604580	0.281881	0.827304
	H19	H	0.395245	0.282296	0.150298
	H20	H	0.719372	0.838808	0.387058
	H21	H	0.717012	0.164694	0.588965
	H22	H	0.283920	0.839920	0.591555
	H23	H	0.287414	0.164099	0.391058
	H24	H	0.898467	0.339580	0.208064
	H25	H	0.105057	0.661921	0.208457
	H26	H	0.102890	0.338160	0.770678
	H27	H	0.901024	0.662340	0.772112
	H28	H	0.218120	0.901408	0.326755
	H29	H	0.214094	0.099645	0.653727
	H30	H	0.787248	0.101414	0.326725
	H31	H	0.784632	0.903408	0.652840
	H32	H	0.337602	0.216007	0.889126
	H33	H	0.662970	0.220929	0.090543
	H34	H	0.337128	0.785281	0.091135
	H35	H	0.663330	0.780313	0.883736
	H36	H	0.338811	0.900463	0.208140
	H37	H	0.665307	0.103867	0.203933
	H38	H	0.337702	0.099930	0.776827
	H39	H	0.666040	0.900821	0.772548
	H40	H	0.897090	0.220264	0.329217
	H41	H	0.099378	0.217748	0.652588
	H42	H	0.106045	0.781761	0.329050
	H43	H	0.898858	0.784796	0.652686
	H44	H	0.216831	0.337160	0.889280
	H45	H	0.216580	0.663655	0.088426
	H46	H	0.784075	0.338717	0.089781
	H47	H	0.785265	0.663357	0.888651
	H48	H	0.403531	0.117783	0.580178
	H49	H	0.593580	0.886292	0.580156
	H50	H	0.583061	0.110848	0.404850
	H51	H	0.413951	0.884156	0.390509
	H52	H	0.597894	0.418438	0.103444
	H53	H	0.592152	0.592377	0.873520
	H54	H	0.403189	0.593058	0.106454
	H55	H	0.405105	0.410036	0.871525
	H56	H	0.115182	0.586276	0.402471
	H57	H	0.886759	0.592499	0.575882
	H58	H	0.115230	0.413661	0.577932
	H59	H	0.887119	0.419525	0.398976
	H60	H	0.119542	0.407841	0.585788
	H61	H	0.885345	0.587672	0.585266
	H62	H	0.119067	0.590208	0.393872
	H63	H	0.881241	0.405888	0.392901
	H64	H	0.411865	0.587979	0.101779
	H65	H	0.593607	0.587306	0.873963
	H66	H	0.579970	0.412237	0.099555
	H67	H	0.414331	0.410731	0.875197
	H68	H	0.607912	0.118858	0.402112
	H69	H	0.591114	0.887373	0.581521
	H70	H	0.408915	0.118852	0.590080
	H71	H	0.417836	0.890093	0.403643
	H72	H	0.899028	0.617536	0.077044
	H73	H	0.091279	0.386566	0.079571
	H74	H	0.101653	0.615949	0.901026
	H75	H	0.903310	0.383614	0.898887
	H76	H	0.100584	0.921837	0.604816
	H77	H	0.096668	0.099983	0.370793
	H78	H	0.908815	0.088989	0.603301
	H79	H	0.910260	0.911910	0.375052
	H80	H	0.619187	0.090123	0.893969
	H81	H	0.382991	0.096768	0.079900
	H82	H	0.617484	0.905342	0.074668
	H83	H	0.381503	0.897222	0.900881
	H84	H	0.614557	0.914355	0.073669
	H85	H	0.386824	0.088987	0.078638
	H86	H	0.619746	0.097017	0.899817
	H87	H	0.390425	0.915111	0.908049
	H88	H	0.913300	0.094838	0.604983
	H89	H	0.099346	0.086706	0.374452
	H90	H	0.078030	0.910418	0.601401
	H91	H	0.916602	0.909123	0.376176
	H92	H	0.095123	0.618865	0.887453
	H93	H	0.093458	0.384352	0.081448
	H94	H	0.913907	0.618326	0.093705
	H95	H	0.914752	0.385447	0.890700
	H96	H	0.414992	0.115110	0.581525
	H97	H	0.591440	0.887675	0.578794
	H98	H	0.591643	0.119832	0.381859
	H99	H	0.403916	0.884818	0.401157
	H100	H	0.593523	0.400547	0.107367
	H101	H	0.587972	0.589650	0.875316
	H102	H	0.413227	0.598004	0.105433
	H103	H	0.410988	0.401443	0.871095
	H104	H	0.118634	0.595993	0.402701
	H105	H	0.882805	0.598170	0.584518
	H106	H	0.117539	0.403866	0.576152
	H107	H	0.885670	0.406051	0.407768
	H108	H	0.919982	0.610819	0.073550
	H109	H	0.090051	0.385376	0.082726
	H110	H	0.086229	0.612750	0.898359
	H111	H	0.915286	0.389446	0.904191
	H112	H	0.097950	0.896890	0.611478
	H113	H	0.086982	0.091959	0.376064
	H114	H	0.906235	0.095741	0.607779
	H115	H	0.910802	0.904902	0.372838
	H116	H	0.616358	0.089734	0.902048
	H117	H	0.384011	0.090969	0.086931
	H118	H	0.618152	0.911747	0.081301
	H119	H	0.382907	0.913886	0.888513
	C120	C	0.379142	0.010177	0.613071
	C121	C	0.622776	0.993915	0.610789
	C122	C	0.625379	0.010037	0.365789
	C123	C	0.381597	0.993251	0.368770
	C124	C	0.622197	0.379312	-0.002942
	C125	C	0.622579	0.622062	0.980519
	C126	C	0.379410	0.621860	-0.002628
	C127	C	0.379195	0.378438	0.980122
	C128	C	0.010498	0.622403	0.368819
	C129	C	0.993046	0.622164	0.611646
	C130	C	0.009404	0.378986	0.610852
	C131	C	0.992262	0.379483	0.368422
	C132	C	0.879882	0.509102	0.111624
	C133	C	0.122646	0.492271	0.111082
	C134	C	0.123640	0.508432	0.866707
	C135	C	0.880263	0.492668	0.867599
	C136	C	0.123858	0.879165	0.498905
	C137	C	0.122650	0.122987	0.481291
	C138	C	0.879731	0.122763	0.498361
	C139	C	0.880970	0.879503	0.481833
	C140	C	0.509988	0.121411	0.869465
	C141	C	0.492272	0.123099	0.110989
	C142	C	0.509473	0.880143	0.109154
	C143	C	0.492778	0.878435	0.867226
	C144	C	0.378400	0.888940	0.670299
	C145	C	0.622794	0.115116	0.669153
	C146	C	0.626223	0.888732	0.307433
	C147	C	0.381963	0.114837	0.312055
	C148	C	0.681318	0.378677	0.875684
	C149	C	0.680289	0.623766	0.102022
	C150	C	0.324314	0.618685	0.874589
	C151	C	0.321752	0.380340	0.102422
	C152	C	0.888338	0.681125	0.368498
	C153	C	0.116089	0.678767	0.611059
	C154	C	0.886150	0.322425	0.611439
	C155	C	0.114605	0.321515	0.367622
	C156	C	0.886555	0.379885	0.668958
	C157	C	0.116709	0.619669	0.666255
	C158	C	0.888060	0.623682	0.311332
	C159	C	0.115185	0.379054	0.310295
	C160	C	0.378825	0.679070	0.875587
	C161	C	0.623894	0.682150	0.101115
	C162	C	0.623455	0.320805	0.875700
	C163	C	0.377379	0.321415	0.101982
	C164	C	0.681992	0.887744	0.366981
	C165	C	0.679138	0.115766	0.609401
	C166	C	0.321847	0.888655	0.611797
	C167	C	0.325291	0.115494	0.370875
	C168	C	0.879292	0.387891	0.169157
	C169	C	0.123371	0.613805	0.168889
	C170	C	0.122498	0.386321	0.809830
	C171	C	0.881163	0.614034	0.810582
	C172	C	0.180762	0.880797	0.376236
	C173	C	0.176989	0.120752	0.604640
	C174	C	0.823881	0.121801	0.375956
	C175	C	0.823376	0.882705	0.604162
	C176	C	0.386445	0.177236	0.870794
	C177	C	0.614533	0.181547	0.110117
	C178	C	0.386437	0.823281	0.110193
	C179	C	0.615115	0.820246	0.865490
	C180	C	0.387080	0.880698	0.168304
	C181	C	0.615898	0.122931	0.166227
	C182	C	0.386475	0.119614	0.814600
	C183	C	0.616218	0.879963	0.810005
	C184	C	0.879076	0.180589	0.377009
	C185	C	0.120193	0.179581	0.603872
	C186	C	0.124712	0.821352	0.377216
	C187	C	0.879947	0.823375	0.604139
	C188	C	0.179092	0.385766	0.868687
	C189	C	0.178985	0.614650	0.109140
	C190	C	0.822185	0.387597	0.110287
	C191	C	0.823361	0.614524	0.868449
	C192	C	0.402385	0.095179	0.590511
	C193	C	0.598950	0.909123	0.587030
	C194	C	0.601385	0.094654	0.389499
	C195	C	0.405164	0.908498	0.391612
	C196	C	0.597466	0.403340	0.081380
	C197	C	0.598380	0.597034	0.896163
	C198	C	0.402651	0.599613	0.082482
	C199	C	0.403231	0.400861	0.894904
	C200	C	0.095497	0.597861	0.392565
	C201	C	0.907080	0.599440	0.588602
	C202	C	0.095078	0.401727	0.586910
	C203	C	0.906887	0.403563	0.392669
	C204	C	0.903995	0.593717	0.088130
	C205	C	0.098648	0.407653	0.087938
	C206	C	0.101018	0.593625	0.889105
	C207	C	0.904184	0.408052	0.891200
	C208	C	0.099356	0.902549	0.584043
	C209	C	0.100713	0.100002	0.396076
	C210	C	0.902749	0.099769	0.583311
	C211	C	0.905494	0.901989	0.396828
	C212	C	0.596033	0.098864	0.892022
	C213	C	0.406714	0.099157	0.088509
	C214	C	0.594462	0.903774	0.084008
	C215	C	0.407110	0.901877	0.891809
	Zn216	Zn	0.501494	0.001533	0.740947
	Zn217	Zn	0.502320	0.001284	0.238409
	Zn218	Zn	0.751312	0.501597	-0.010705
	Zn219	Zn	0.251278	0.500394	-0.010944
	Zn220	Zn	0.002059	0.750030	0.490821
	Zn221	Zn	-0.000035	0.251183	0.489429
	Zn222	Zn	0.001802	0.500338	0.738367
	Zn223	Zn	0.001587	0.501245	0.240766
	Zn224	Zn	0.500788	0.750277	-0.011636
	Zn225	Zn	0.500254	0.250130	-0.011057
	Zn226	Zn	0.752332	0.001799	0.488950
	Zn227	Zn	0.252165	0.001634	0.489840
	N228	N	0.413287	0.965566	0.671292
	N229	N	0.588468	0.038186	0.670091
	N230	N	0.592062	0.965685	0.306297
	N231	N	0.416522	0.037925	0.310810
	N232	N	0.680564	0.414565	0.951943
	N233	N	0.679756	0.587267	0.025868
	N234	N	0.324300	0.584076	0.951346
	N235	N	0.322667	0.414968	0.025643
	N236	N	0.965460	0.680449	0.403649
	N237	N	0.038081	0.680516	0.577931
	N238	N	0.963476	0.321899	0.575847
	N239	N	0.037179	0.321710	0.402964
	N240	N	0.964171	0.414241	0.668763
	N241	N	0.039041	0.585197	0.666687
	N242	N	0.964913	0.587826	0.311412
	N243	N	0.038125	0.414596	0.310738
	N244	N	0.412457	0.681185	0.952901
	N245	N	0.588600	0.681104	0.024632
	N246	N	0.587382	0.320976	0.952404
	N247	N	0.412358	0.319971	0.024926
	N248	N	0.681591	0.964269	0.402600
	N249	N	0.679006	0.039411	0.573743
	N250	N	0.321940	0.965246	0.576943
	N251	N	0.324742	0.038898	0.405322
	N252	N	0.914125	0.464641	0.170315
	N253	N	0.089161	0.536658	0.170400
	N254	N	0.088746	0.463571	0.808459
	N255	N	0.915864	0.537249	0.810051
	N256	N	0.180274	0.916188	0.452998
	N257	N	0.178743	0.086230	0.527606
	N258	N	0.824410	0.086396	0.452317
	N259	N	0.823613	0.916461	0.526968
	N260	N	0.464356	0.178546	0.904205
	N261	N	0.536796	0.181998	0.076827
	N262	N	0.463587	0.822694	0.074139
	N263	N	0.537401	0.819166	0.900339
	N264	N	0.464502	0.915357	0.167702
	N265	N	0.538753	0.087284	0.166947
	N266	N	0.464275	0.085501	0.813712
	N267	N	0.538984	0.915372	0.811078
	N268	N	0.913027	0.181428	0.454103
	N269	N	0.087369	0.181231	0.526179
	N270	N	0.090052	0.820513	0.454364
	N271	N	0.915082	0.821288	0.527030
	N272	N	0.180068	0.462621	0.903193
	N273	N	0.178712	0.538034	0.074038
	N274	N	0.822419	0.464054	0.075457
	N275	N	0.822720	0.537932	0.903200
	O276	O	0.013513	0.039775	0.019020
	H277	H	0.027849	0.043477	0.026482
	H278	H	0.016607	0.049163	0.028625
	O279	O	0.586808	0.526388	0.565183
	H280	H	0.574033	0.526853	0.570294
	H281	H	0.600831	0.530034	0.560504
	O282	O	0.360244	-0.419533	-0.644391
	H283	H	0.356303	-0.407697	-0.661601
	H284	H	0.361685	-0.412226	-0.632855
	O285	O	0.098828	0.982486	0.101307
	H286	H	0.087824	0.970360	0.106162
	H287	H	0.089150	0.983172	0.110662
	O288	O	0.638411	0.426303	0.603809
	H289	H	0.624815	0.426333	0.598930
	H290	H	0.637575	0.436654	0.607652
	O291	O	1.619165	0.452622	0.518576
	H292	H	1.631175	0.441347	0.521709
	H293	H	1.611388	0.456819	0.519357
	O294	O	1.014417	1.047539	1.005628
	H295	H	1.018356	1.064372	1.019412
	H296	H	1.018839	1.046462	1.015243
	O297	O	-0.060656	0.013218	0.050849
	H298	H	-0.059488	-0.002821	0.038661
	H299	H	-0.084087	0.011865	0.067877
	O300	O	0.437762	0.594260	0.338551
	H301	H	0.441575	0.589874	0.338399
	H302	H	0.447325	0.588932	0.337653
	O303	O	0.017376	0.828535	0.915131
	H304	H	0.012302	0.827657	0.913604
	H305	H	0.034888	0.828835	0.920142
	O306	O	0.592438	0.459497	0.368622
	H307	H	0.601575	0.456975	0.367072
	H308	H	0.588696	0.433479	0.369619
	O309	O	1.083918	-0.076249	-0.091599
	H310	H	1.101788	-0.076097	-0.099295
	H311	H	1.087223	-0.068895	-0.105941
	O312	O	-0.028103	-0.029791	0.988412
	H313	H	-0.035180	-0.036452	0.986534
	H314	H	-0.017622	-0.034816	0.981123
	O315	O	0.314651	0.681795	0.393977
	H316	H	0.316274	0.704852	0.384853
	H317	H	0.321969	0.674868	0.374086
	O318	O	0.930647	0.898938	1.111720
	H319	H	0.916714	0.901254	1.119161
	H320	H	0.930662	0.900135	1.100678
	O321	O	0.565434	0.335730	0.297903
	H322	H	0.560883	0.313269	0.287780
	H323	H	0.543206	0.351643	0.293534
	O324	O	0.473175	0.566215	0.503813
	H325	H	0.476977	0.570203	0.510845
	H326	H	0.456889	0.568569	0.490864
	O327	O	-0.133481	1.077584	0.966886
	H328	H	-0.132033	1.070458	0.959254
	H329	H	-0.123711	1.092803	0.973575
	O330	O	-0.050884	-0.069181	-0.009970
	H331	H	-0.041099	-0.074771	-0.020838
	H332	H	-0.052840	-0.057548	-0.005715
	O333	O	-0.550230	1.381648	1.396696
	H334	H	-0.560600	1.400038	1.400637
	H335	H	-0.560750	1.384572	1.400767
	O336	O	1.025513	1.035321	0.962890
	H337	H	1.030677	1.030357	0.956047
	H338	H	1.017645	1.035606	0.962123
	O339	O	0.666331	0.631709	0.474937
	H340	H	0.676520	0.628252	0.478987
	H341	H	0.673183	0.620842	0.464318
	O342	O	1.030812	0.155194	0.039342
	H343	H	1.031419	0.153201	0.044587
	H344	H	1.024597	0.153245	0.044807
	O345	O	0.453290	0.494275	0.456312
	H346	H	0.452155	0.487080	0.467648
	H347	H	0.463729	0.481372	0.457420
	O348	O	1.010664	1.073999	0.975647
	H349	H	1.016547	1.087164	0.965512
	H350	H	0.994939	1.076299	0.981566
	O351	O	0.986636	0.912243	-0.000067
	H352	H	0.983514	0.905318	-0.003476
	H353	H	0.973112	0.907845	0.001126
	O354	O	0.451868	0.607154	0.652425
	H355	H	0.464774	0.589848	0.654752
	H356	H	0.461478	0.618275	0.664999
	O357	O	0.549998	0.417687	0.445826
	H358	H	0.550043	0.405630	0.425536
	H359	H	0.553946	0.422259	0.447229
	O360	O	-0.461985	0.592879	0.600963
	H361	H	-0.463224	0.584569	0.605326
	H362	H	-0.457935	0.598031	0.594107
	O363	O	0.461370	0.422622	0.546877
	H364	H	0.441265	0.421603	0.537545
	H365	H	0.468223	0.430295	0.552503
	O366	O	0.532614	0.486896	0.624127
	H367	H	0.520970	0.479643	0.625359
	H368	H	0.545454	0.485217	0.621243
	O369	O	0.439033	0.368875	0.549087
	H370	H	0.440079	0.363317	0.555681
	H371	H	0.445240	0.374646	0.546551
	O372	O	0.463691	0.516394	0.566779
	H373	H	0.468375	0.520478	0.575552
	H374	H	0.465093	0.526948	0.579961
	O375	O	0.501249	0.707594	0.503764
	H376	H	0.527428	0.710007	0.508503
	H377	H	0.508976	0.712510	0.506298
	O378	O	0.523438	0.415677	0.676992
	H379	H	0.512002	0.415930	0.685287
	H380	H	0.531157	0.418798	0.664756
	O381	O	0.389567	0.546343	0.514075
	H382	H	0.383244	0.563196	0.494071
	H383	H	0.396039	0.548794	0.528998
	O384	O	0.069842	1.024359	0.006582
	H385	H	0.067942	1.039339	0.021320
	H386	H	0.068361	1.020048	0.005598
	O387	O	0.886584	0.036063	0.978469
	H388	H	0.890631	0.038565	0.972395
	H389	H	0.874226	0.026505	0.983436
	O390	O	0.012849	1.104485	-0.023227
	H391	H	0.011847	1.099905	-0.039756
	H392	H	0.014829	1.114877	-0.027964
	O393	O	1.125376	0.960592	-0.030588
	H394	H	1.116486	0.965945	-0.027227
	H395	H	1.141980	0.947368	-0.025599
	O396	O	0.365953	0.458848	0.471009
	H397	H	0.355010	0.458374	0.459430
	H398	H	0.366714	0.463709	0.481519
	O399	O	0.680545	0.383369	1.326002
	H400	H	0.687434	0.377461	1.330922
	H401	H	0.656793	0.356435	1.324030
	O402	O	0.935206	0.951966	1.070062
	H403	H	0.926018	0.945517	1.086365
	H404	H	0.937376	0.941757	1.060794
	O405	O	0.010799	-0.098597	0.904330
	H406	H	0.014951	-0.101802	0.883183
	H407	H	0.023400	-0.101135	0.902007
