data_Molecule from HDF5

_cell_length_a		16.351877
_cell_length_b		16.404846
_cell_length_c		16.241832
_cell_angle_alpha	90.040265
_cell_angle_beta	89.776980
_cell_angle_gamma	89.747729
_symmetry_space_group_name_H-M	'P 1'
_symmetry_Int_Tables_number		1

loop_
	_symmetry_equiv_pos_as_xyz
	x,y,z

loop_
	_atom_site_label
	_atom_site_type_symbol
	_atom_site_fract_x
	_atom_site_fract_y
	_atom_site_fract_z
	H0	H	0.397197	0.835011	0.713124
	H1	H	0.604630	0.153052	0.711955
	H2	H	0.607695	0.833131	0.272205
	H3	H	0.400672	0.153571	0.274653
	H4	H	0.720237	0.392233	0.829432
	H5	H	0.720835	0.595662	0.152744
	H6	H	0.288049	0.595298	0.829016
	H7	H	0.283099	0.390371	0.151896
	H8	H	0.844322	0.718615	0.383053
	H9	H	0.162485	0.714466	0.595865
	H10	H	0.843840	0.273886	0.598748
	H11	H	0.162411	0.272812	0.384732
	H12	H	0.843683	0.391449	0.711296
	H13	H	0.164827	0.594830	0.707163
	H14	H	0.843750	0.600941	0.269037
	H15	H	0.162666	0.390092	0.270236
	H16	H	0.400460	0.712835	0.831494
	H17	H	0.606648	0.711690	0.153514
	H18	H	0.607806	0.273154	0.830848
	H19	H	0.398744	0.274633	0.152861
	H20	H	0.726946	0.835497	0.383892
	H21	H	0.720311	0.152979	0.596909
	H22	H	0.279814	0.835946	0.598638
	H23	H	0.284510	0.154204	0.389140
	H24	H	0.896960	0.335741	0.213420
	H25	H	0.107804	0.652328	0.211561
	H26	H	0.107786	0.333824	0.771930
	H27	H	0.901659	0.654452	0.773467
	H28	H	0.223202	0.889681	0.330215
	H29	H	0.221658	0.100501	0.651414
	H30	H	0.782892	0.097697	0.330038
	H31	H	0.783219	0.890537	0.652486
	H32	H	0.344829	0.217553	0.884848
	H33	H	0.661377	0.214951	0.099293
	H34	H	0.343327	0.773603	0.099372
	H35	H	0.662801	0.773147	0.887523
	H36	H	0.342534	0.890604	0.212647
	H37	H	0.663090	0.094983	0.210825
	H38	H	0.342486	0.097633	0.773605
	H39	H	0.662132	0.888373	0.770462
	H40	H	0.897426	0.215227	0.330753
	H41	H	0.104797	0.212660	0.652322
	H42	H	0.109910	0.772734	0.331592
	H43	H	0.896610	0.773244	0.651698
	H44	H	0.225171	0.334117	0.885223
	H45	H	0.225104	0.651382	0.098790
	H46	H	0.782055	0.335206	0.097410
	H47	H	0.780564	0.651971	0.884460
	H48	H	0.411195	0.108163	0.582322
	H49	H	0.590132	0.878275	0.584736
	H50	H	0.591541	0.108205	0.397436
	H51	H	0.416176	0.878347	0.399609
	H52	H	0.593163	0.407732	0.105505
	H53	H	0.589804	0.579348	0.877872
	H54	H	0.421759	0.592180	0.107523
	H55	H	0.422540	0.401252	0.878013
	H56	H	0.116972	0.588588	0.406576
	H57	H	0.888369	0.584310	0.581411
	H58	H	0.120200	0.395475	0.579770
	H59	H	0.890964	0.408635	0.404338
	H60	H	0.115994	0.405259	0.575033
	H61	H	0.888643	0.585314	0.580742
	H62	H	0.112452	0.576968	0.406121
	H63	H	0.887606	0.405092	0.399638
	H64	H	0.400037	0.586030	0.111848
	H65	H	0.589086	0.587454	0.876558
	H66	H	0.587881	0.400532	0.106184
	H67	H	0.409630	0.397732	0.872764
	H68	H	0.588196	0.105572	0.404567
	H69	H	0.590729	0.881622	0.576752
	H70	H	0.411827	0.108022	0.581894
	H71	H	0.413626	0.880629	0.407557
	H72	H	0.909805	0.606967	0.076002
	H73	H	0.095979	0.376378	0.084351
	H74	H	0.094225	0.609494	0.895103
	H75	H	0.917697	0.381096	0.902264
	H76	H	0.088683	0.906136	0.604774
	H77	H	0.089885	0.082811	0.377152
	H78	H	0.911226	0.086248	0.606908
	H79	H	0.918939	0.905110	0.377652
	H80	H	0.618420	0.087305	0.903893
	H81	H	0.390244	0.080512	0.078303
	H82	H	0.616182	0.901439	0.076207
	H83	H	0.386710	0.899626	0.904102
	H84	H	0.617558	0.904963	0.085277
	H85	H	0.388012	0.082060	0.085763
	H86	H	0.614277	0.078897	0.907688
	H87	H	0.390480	0.904654	0.907856
	H88	H	0.909780	0.084828	0.607457
	H89	H	0.092492	0.085316	0.374919
	H90	H	0.090143	0.901969	0.607598
	H91	H	0.912689	0.903487	0.375613
	H92	H	0.091036	0.606454	0.902918
	H93	H	0.083926	0.382891	0.079285
	H94	H	0.912068	0.609347	0.082766
	H95	H	0.909113	0.379509	0.904897
	H96	H	0.411444	0.107621	0.581340
	H97	H	0.597214	0.878286	0.579726
	H98	H	0.596423	0.108425	0.404160
	H99	H	0.408125	0.877442	0.401663
	H100	H	0.596323	0.401005	0.109519
	H101	H	0.596369	0.583550	0.875416
	H102	H	0.414961	0.570606	0.102743
	H103	H	0.412241	0.410666	0.877736
	H104	H	0.118473	0.582431	0.395568
	H105	H	0.889003	0.584386	0.580641
	H106	H	0.119411	0.405351	0.586115
	H107	H	0.888624	0.402621	0.406163
	H108	H	0.917128	0.605169	0.078092
	H109	H	0.094882	0.381619	0.070494
	H110	H	0.099898	0.610065	0.901660
	H111	H	0.911917	0.377364	0.896413
	H112	H	0.093459	0.906051	0.607000
	H113	H	0.093303	0.081613	0.376147
	H114	H	0.911491	0.084373	0.606451
	H115	H	0.914211	0.909664	0.377487
	H116	H	0.617697	0.078663	0.897623
	H117	H	0.387501	0.087269	0.080505
	H118	H	0.619803	0.896248	0.083397
	H119	H	0.388008	0.905978	0.901024
	C120	C	0.379665	0.002944	0.614005
	C121	C	0.623683	0.984826	0.613155
	C122	C	0.624849	0.001884	0.369796
	C123	C	0.381752	0.985010	0.371576
	C124	C	0.624306	0.371755	0.000506
	C125	C	0.623456	0.614449	0.983261
	C126	C	0.381415	0.614581	0.000659
	C127	C	0.382174	0.371827	0.982524
	C128	C	0.011139	0.616037	0.369541
	C129	C	0.994502	0.615370	0.612111
	C130	C	0.012682	0.371786	0.612880
	C131	C	0.994301	0.373026	0.370011
	C132	C	0.880882	0.502635	0.112441
	C133	C	0.123504	0.485122	0.111181
	C134	C	0.126256	0.502625	0.868770
	C135	C	0.881594	0.484974	0.869246
	C136	C	0.123865	0.872927	0.500069
	C137	C	0.122979	0.114964	0.482526
	C138	C	0.879771	0.116782	0.500379
	C139	C	0.881988	0.873458	0.482793
	C140	C	0.511394	0.114053	0.870984
	C141	C	0.494437	0.114112	0.113379
	C142	C	0.511835	0.870850	0.114058
	C143	C	0.493898	0.871463	0.871163
	C144	C	0.378264	0.882867	0.673623
	C145	C	0.623745	0.104766	0.672798
	C146	C	0.626700	0.881410	0.310943
	C147	C	0.381196	0.105435	0.313153
	C148	C	0.682451	0.371764	0.878404
	C149	C	0.682022	0.615018	0.104453
	C150	C	0.325635	0.614618	0.878286
	C151	C	0.322744	0.371430	0.103947
	C152	C	0.891759	0.677635	0.365860
	C153	C	0.114737	0.674499	0.613873
	C154	C	0.891927	0.313563	0.616048
	C155	C	0.114317	0.312798	0.366717
	C156	C	0.891833	0.371959	0.672397
	C157	C	0.115976	0.614750	0.669285
	C158	C	0.891555	0.619016	0.308910
	C159	C	0.114705	0.371218	0.309820
	C160	C	0.381539	0.673329	0.879518
	C161	C	0.624836	0.672492	0.105003
	C162	C	0.626212	0.312872	0.879048
	C163	C	0.380119	0.313712	0.104291
	C164	C	0.685945	0.882633	0.366727
	C165	C	0.681112	0.105113	0.614952
	C166	C	0.319866	0.883478	0.616716
	C167	C	0.323488	0.105829	0.370533
	C168	C	0.878871	0.383367	0.173336
	C169	C	0.125813	0.604597	0.171720
	C170	C	0.126874	0.381948	0.810477
	C171	C	0.881529	0.605744	0.811407
	C172	C	0.183932	0.870916	0.379186
	C173	C	0.181819	0.117501	0.603360
	C174	C	0.821841	0.117185	0.378621
	C175	C	0.822132	0.871542	0.603940
	C176	C	0.392113	0.175992	0.867820
	C177	C	0.614176	0.174089	0.116537
	C178	C	0.391181	0.812673	0.117085
	C179	C	0.614442	0.812503	0.868644
	C180	C	0.391004	0.870847	0.173758
	C181	C	0.615063	0.114339	0.172095
	C182	C	0.390939	0.116469	0.812034
	C183	C	0.614037	0.869613	0.810172
	C184	C	0.878695	0.175747	0.379030
	C185	C	0.123962	0.173878	0.603735
	C186	C	0.127124	0.812843	0.379369
	C187	C	0.878871	0.813231	0.603532
	C188	C	0.185044	0.381825	0.867429
	C189	C	0.184227	0.604158	0.115100
	C190	C	0.821642	0.383071	0.115444
	C191	C	0.821357	0.604683	0.866793
	C192	C	0.404371	0.086148	0.589108
	C193	C	0.599718	0.901022	0.587913
	C194	C	0.599457	0.085451	0.394716
	C195	C	0.405784	0.900787	0.395734
	C196	C	0.599631	0.396089	0.084998
	C197	C	0.598878	0.590480	0.898663
	C198	C	0.405171	0.590091	0.085318
	C199	C	0.407532	0.396272	0.898164
	C200	C	0.094281	0.590098	0.395267
	C201	C	0.910571	0.591598	0.587946
	C202	C	0.096720	0.395154	0.587645
	C203	C	0.910831	0.398343	0.395788
	C204	C	0.905672	0.585834	0.086261
	C205	C	0.098532	0.401996	0.085577
	C206	C	0.102241	0.586623	0.893023
	C207	C	0.905845	0.401247	0.894137
	C208	C	0.098283	0.897576	0.584280
	C209	C	0.098818	0.090266	0.398097
	C210	C	0.903844	0.092356	0.584890
	C211	C	0.907801	0.898890	0.398921
	C212	C	0.595067	0.088725	0.895920
	C213	C	0.410665	0.090233	0.088769
	C214	C	0.596035	0.894053	0.088954
	C215	C	0.410220	0.896216	0.896887
	Zn216	Zn	0.501931	-0.007028	0.742131
	Zn217	Zn	0.502711	-0.007350	0.241896
	Zn218	Zn	0.752194	0.493704	-0.009055
	Zn219	Zn	0.253396	0.493349	-0.009217
	Zn220	Zn	0.002904	0.744542	0.491438
	Zn221	Zn	0.002839	0.243804	0.491235
	Zn222	Zn	0.003926	0.493541	0.740657
	Zn223	Zn	0.002985	0.494025	0.240879
	Zn224	Zn	0.502403	0.742486	-0.006849
	Zn225	Zn	0.503337	0.243011	-0.007956
	Zn226	Zn	0.753001	-0.006225	0.491525
	Zn227	Zn	0.251712	-0.005411	0.491578
	N228	N	0.414689	0.958133	0.672218
	N229	N	0.588643	0.028842	0.671683
	N230	N	0.589424	0.956594	0.312694
	N231	N	0.416733	0.029306	0.313685
	N232	N	0.681670	0.407234	0.955091
	N233	N	0.681163	0.579562	0.027747
	N234	N	0.325060	0.579058	0.954949
	N235	N	0.323657	0.406731	0.027062
	N236	N	0.967269	0.675999	0.402713
	N237	N	0.038229	0.675088	0.579131
	N238	N	0.967942	0.313113	0.579817
	N239	N	0.038329	0.313446	0.403320
	N240	N	0.967978	0.407378	0.670681
	N241	N	0.040176	0.578817	0.668615
	N242	N	0.966757	0.581349	0.311201
	N243	N	0.039056	0.408001	0.311843
	N244	N	0.415462	0.673306	0.956678
	N245	N	0.589308	0.672470	0.028465
	N246	N	0.591032	0.312440	0.956090
	N247	N	0.416421	0.314004	0.027814
	N248	N	0.684828	0.958599	0.402538
	N249	N	0.681434	0.029344	0.578625
	N250	N	0.320328	0.959129	0.580779
	N251	N	0.323565	0.029755	0.406018
	N252	N	0.914855	0.458906	0.171842
	N253	N	0.088666	0.529670	0.169215
	N254	N	0.091104	0.457936	0.811009
	N255	N	0.918222	0.530240	0.812755
	N256	N	0.182121	0.907472	0.455323
	N257	N	0.181397	0.081580	0.526853
	N258	N	0.822132	0.081561	0.455193
	N259	N	0.823955	0.908238	0.527805
	N260	N	0.468171	0.174611	0.903698
	N261	N	0.538394	0.173908	0.080478
	N262	N	0.467358	0.812452	0.080876
	N263	N	0.538695	0.813356	0.905705
	N264	N	0.467053	0.906125	0.172179
	N265	N	0.539670	0.077598	0.170038
	N266	N	0.465890	0.078479	0.814120
	N267	N	0.537914	0.905451	0.811379
	N268	N	0.913733	0.175819	0.455806
	N269	N	0.087872	0.172324	0.527548
	N270	N	0.090436	0.813892	0.455690
	N271	N	0.915157	0.814135	0.527182
	N272	N	0.184928	0.457850	0.902820
	N273	N	0.182988	0.528969	0.078023
	N274	N	0.822698	0.458244	0.078381
	N275	N	0.821109	0.528474	0.901931
	O276	O	0.424687	0.632425	0.369131
	H277	H	0.432391	0.632478	0.376787
	H278	H	0.416461	0.627936	0.362309
	O279	O	0.708179	0.282303	0.466147
	H280	H	0.713423	0.273188	0.439267
	H281	H	0.726102	0.260838	0.450124
	O282	O	0.305440	0.647954	0.414120
	H283	H	0.291977	0.656923	0.403063
	H284	H	0.304815	0.636612	0.394735
	O285	O	1.543992	0.622080	0.612763
	H286	H	1.544693	0.600710	0.624211
	H287	H	1.537585	0.622701	0.605686
	O288	O	-0.090543	0.136671	0.857845
	H289	H	-0.072080	0.127076	0.858122
	H290	H	-0.096883	0.135837	0.857931
	O291	O	0.430380	0.498809	0.613546
	H292	H	0.439470	0.496554	0.629461
	H293	H	0.429161	0.506766	0.605929
	O294	O	1.060667	1.177139	0.890450
	H295	H	1.075659	1.180378	0.904867
	H296	H	1.070386	1.165133	0.875375
	O297	O	0.900933	1.158039	0.956191
	H298	H	0.880262	1.161623	0.946011
	H299	H	0.899072	1.156527	0.940975
	O300	O	-0.161942	0.053751	-0.070884
	H301	H	-0.167537	0.026293	-0.066137
	H302	H	-0.189816	0.048173	-0.071093
	O303	O	0.174037	0.932841	1.140047
	H304	H	0.178221	0.950989	1.135608
	H305	H	0.192471	0.934957	1.134903
	O306	O	1.035217	0.059477	-0.016307
	H307	H	1.045003	0.059440	0.004359
	H308	H	1.031885	0.057524	-0.031453
	O309	O	0.373396	0.598304	0.581200
	H310	H	0.365127	0.619776	0.571079
	H311	H	0.369299	0.581173	0.576027
	O312	O	1.158127	0.905385	-0.211843
	H313	H	1.169892	0.902339	-0.228579
	H314	H	1.149201	0.907070	-0.214784
	O315	O	0.616991	0.563386	0.311814
	H316	H	0.624960	0.574364	0.337035
	H317	H	0.634151	0.575728	0.307813
	O318	O	0.610120	0.331360	0.311785
	H319	H	0.595796	0.351271	0.301784
	H320	H	0.584058	0.343971	0.307571
	O321	O	0.971918	0.033746	1.070949
	H322	H	0.981067	0.043545	1.074784
	H323	H	0.978991	0.025366	1.073711
	O324	O	0.034039	0.001436	0.950775
	H325	H	0.037345	0.013598	0.969026
	H326	H	0.043980	-0.003866	0.954858
	O327	O	-0.041874	0.842433	1.169544
	H328	H	-0.046282	0.826100	1.179276
	H329	H	-0.058658	0.855952	1.167899
	O330	O	0.601690	0.474885	0.601802
	H331	H	0.607855	0.488628	0.595946
	H332	H	0.600350	0.472000	0.598615
	O333	O	1.187680	0.842512	0.816156
	H334	H	1.163762	0.842808	0.819971
	H335	H	1.202081	0.847946	0.816986
	O336	O	0.457484	0.448597	0.495287
	H337	H	0.466943	0.423476	0.499559
	H338	H	0.449825	0.450196	0.503277
	O339	O	0.304501	0.432009	0.614238
	H340	H	0.299545	0.430789	0.629819
	H341	H	0.306022	0.409151	0.620854
	O342	O	-0.105589	0.910524	0.925344
	H343	H	-0.096268	0.911504	0.926341
	H344	H	-0.097583	0.901922	0.923107
	O345	O	-0.130079	0.861853	0.978244
	H346	H	-0.128644	0.862132	0.990246
	H347	H	-0.127662	0.860591	0.988641
	O348	O	0.567604	0.527363	0.403384
	H349	H	0.570597	0.530711	0.394314
	H350	H	0.574764	0.536343	0.394359
	O351	O	-0.035784	-0.047866	0.194710
	H352	H	-0.039875	-0.053871	0.199709
	H353	H	-0.038201	-0.054024	0.193588
	O354	O	0.588953	0.611607	-0.670473
	H355	H	0.592833	0.601225	-0.670208
	H356	H	0.597956	0.601935	-0.670700
	O357	O	0.203249	1.196920	0.054004
	H358	H	0.204298	1.201445	0.046638
	H359	H	0.210490	1.194662	0.059653
	O360	O	0.107435	0.235937	0.202662
	H361	H	0.098306	0.231208	0.195101
	H362	H	0.117413	0.227660	0.208248
	O363	O	0.341728	0.360081	0.624900
	H364	H	0.338176	0.364728	0.617539
	H365	H	0.369902	0.370592	0.626103
	O366	O	0.699005	0.607749	0.604717
	H367	H	0.711299	0.604991	0.611721
	H368	H	0.697339	0.610599	0.608487
	O369	O	0.420809	0.523791	0.419831
	H370	H	0.432861	0.509283	0.409332
	H371	H	0.441683	0.532307	0.418566
	O372	O	0.336147	0.373934	0.449080
	H373	H	0.337321	0.367004	0.451478
	H374	H	0.334916	0.372785	0.454820
	O375	O	0.702677	0.442244	0.379416
	H376	H	0.709573	0.442925	0.387586
	H377	H	0.683606	0.450143	0.382538
	O378	O	0.585884	0.563861	0.660813
	H379	H	0.585095	0.569621	0.663593
	H380	H	0.572810	0.566664	0.657057
	O381	O	0.608371	0.407961	0.567240
	H382	H	0.621143	0.410048	0.565566
	H383	H	0.614464	0.419251	0.559654
	O384	O	0.356861	0.527388	1.357259
	H385	H	0.351734	0.513344	1.350939
	H386	H	0.374730	0.525190	1.358569
	O387	O	0.826133	0.862904	0.019478
	H388	H	0.821945	0.888678	0.033022
	H389	H	0.838279	0.862190	0.002394
	O390	O	0.627189	0.697293	0.537071
	H391	H	0.630657	0.701415	0.546641
	H392	H	0.622032	0.700982	0.546165
	O393	O	1.207658	-0.011205	0.955636
	H394	H	1.214071	-0.025801	0.940631
	H395	H	1.208218	-0.026277	0.960948
	O396	O	0.136081	0.794401	0.998823
	H397	H	0.123576	0.803690	0.976291
	H398	H	0.146618	0.772732	0.999784
	O399	O	0.507975	0.315001	0.585402
	H400	H	0.524729	0.323205	0.589727
	H401	H	0.527590	0.325005	0.583172
	O402	O	0.949387	-0.204865	0.938498
	H403	H	0.967526	-0.217201	0.926319
	H404	H	0.949616	-0.191211	0.930939
	O405	O	0.104945	-0.162863	0.018081
	H406	H	0.103112	-0.174126	0.032764
	H407	H	0.120069	-0.170228	0.032953
	O408	O	0.991541	0.961696	0.796134
	H409	H	0.982060	0.967484	0.801116
	H410	H	0.991093	0.975249	0.804130
	O411	O	0.849203	1.035581	0.107199
	H412	H	0.846737	1.042000	0.110306
	H413	H	0.865534	1.043241	0.112026
	O414	O	0.186728	0.138929	1.101836
	H415	H	0.194970	0.144216	1.085612
	H416	H	0.169567	0.145798	1.103185
	O417	O	0.567821	0.565594	0.649571
	H418	H	0.566644	0.572495	0.649509
	H419	H	0.583488	0.565691	0.650457
	O420	O	-0.077074	1.075427	-0.151848
	H421	H	-0.084904	1.081352	-0.141771
	H422	H	-0.068697	1.087583	-0.163542
	O423	O	0.906917	-0.057470	0.084701
	H424	H	0.914496	-0.051919	0.087333
	H425	H	0.887842	-0.062522	0.067594
	O426	O	-0.185464	0.195812	0.971059
	H427	H	-0.209254	0.214961	0.969505
	H428	H	-0.167216	0.175446	0.951884
	O429	O	0.473284	0.376404	0.326528
	H430	H	0.464148	0.375508	0.337873
	H431	H	0.471314	0.390316	0.334776
