data_Molecule from HDF5

_cell_length_a		16.427415
_cell_length_b		16.000957
_cell_length_c		16.109317
_cell_angle_alpha	89.687785
_cell_angle_beta	91.394432
_cell_angle_gamma	89.477041
_symmetry_space_group_name_H-M	'P 1'
_symmetry_Int_Tables_number		1

loop_
	_symmetry_equiv_pos_as_xyz
	x,y,z

loop_
	_atom_site_label
	_atom_site_type_symbol
	_atom_site_fract_x
	_atom_site_fract_y
	_atom_site_fract_z
	H0	H	0.416745	0.835263	0.705149
	H1	H	0.605133	0.170242	0.711864
	H2	H	0.598616	0.835126	0.290780
	H3	H	0.402648	0.169317	0.281124
	H4	H	0.716617	0.402740	0.831006
	H5	H	0.727174	0.605810	0.158764
	H6	H	0.281050	0.610999	0.832939
	H7	H	0.292394	0.401074	0.159997
	H8	H	0.843359	0.721644	0.389569
	H9	H	0.169528	0.711903	0.596236
	H10	H	0.840932	0.289234	0.588206
	H11	H	0.168185	0.286362	0.403882
	H12	H	0.841127	0.403307	0.706207
	H13	H	0.165854	0.599537	0.717135
	H14	H	0.842872	0.603831	0.274390
	H15	H	0.168747	0.403078	0.286511
	H16	H	0.403788	0.717519	0.830642
	H17	H	0.601342	0.708927	0.164402
	H18	H	0.596212	0.292793	0.829382
	H19	H	0.414048	0.291984	0.162511
	H20	H	0.719318	0.837993	0.399758
	H21	H	0.722175	0.168787	0.602120
	H22	H	0.295785	0.837263	0.596435
	H23	H	0.284972	0.167737	0.390252
	H24	H	0.914361	0.336267	0.203047
	H25	H	0.104163	0.669441	0.211208
	H26	H	0.095446	0.335344	0.790676
	H27	H	0.902304	0.669700	0.778190
	H28	H	0.219922	0.899741	0.331095
	H29	H	0.225778	0.102871	0.660458
	H30	H	0.779948	0.110948	0.334850
	H31	H	0.795449	0.901594	0.662340
	H32	H	0.342188	0.219905	0.892087
	H33	H	0.669105	0.214447	0.097965
	H34	H	0.340848	0.789403	0.090152
	H35	H	0.668500	0.787770	0.907070
	H36	H	0.340937	0.905299	0.207465
	H37	H	0.666529	0.100805	0.218828
	H38	H	0.344346	0.105131	0.773624
	H39	H	0.669777	0.902681	0.788944
	H40	H	0.905336	0.212617	0.328807
	H41	H	0.102317	0.209628	0.663933
	H42	H	0.096978	0.791383	0.328505
	H43	H	0.915987	0.790082	0.662587
	H44	H	0.219096	0.339395	0.895052
	H45	H	0.220436	0.668932	0.098542
	H46	H	0.794993	0.338066	0.093669
	H47	H	0.785293	0.668764	0.889276
	H48	H	0.412089	0.124248	0.589137
	H49	H	0.598854	0.885529	0.593138
	H50	H	0.600703	0.122197	0.413260
	H51	H	0.407090	0.882665	0.405147
	H52	H	0.608607	0.406275	0.116549
	H53	H	0.597844	0.583063	0.879966
	H54	H	0.414925	0.588640	0.112827
	H55	H	0.399801	0.416614	0.875891
	H56	H	0.124292	0.602749	0.403058
	H57	H	0.888824	0.599682	0.581646
	H58	H	0.119707	0.404518	0.589043
	H59	H	0.889302	0.404565	0.403892
	H60	H	0.119705	0.412650	0.595818
	H61	H	0.889954	0.593533	0.583889
	H62	H	0.117859	0.592809	0.411800
	H63	H	0.890967	0.418292	0.395344
	H64	H	0.415954	0.599796	0.115772
	H65	H	0.581908	0.601411	0.879304
	H66	H	0.606984	0.418186	0.114036
	H67	H	0.412298	0.420518	0.880941
	H68	H	0.593843	0.125084	0.399580
	H69	H	0.605273	0.885339	0.587773
	H70	H	0.416648	0.120309	0.584597
	H71	H	0.411828	0.882509	0.399365
	H72	H	0.917958	0.623815	0.089396
	H73	H	0.115044	0.381025	0.087479
	H74	H	0.096411	0.623923	0.904456
	H75	H	0.906392	0.384303	0.905498
	H76	H	0.102917	0.914477	0.611968
	H77	H	0.093707	0.097191	0.376904
	H78	H	0.905176	0.084302	0.615839
	H79	H	0.907984	0.921244	0.379929
	H80	H	0.627700	0.106041	0.895492
	H81	H	0.389533	0.092726	0.086640
	H82	H	0.617719	0.905418	0.087811
	H83	H	0.388211	0.908869	0.897338
	H84	H	0.619771	0.915189	0.100772
	H85	H	0.387153	0.101304	0.091022
	H86	H	0.619394	0.102412	0.919263
	H87	H	0.391122	0.912010	0.900728
	H88	H	0.926347	0.094698	0.612329
	H89	H	0.099951	0.092884	0.375915
	H90	H	0.100960	0.902595	0.615037
	H91	H	0.913126	0.910816	0.379215
	H92	H	0.090692	0.623895	0.903512
	H93	H	0.096358	0.381083	0.102749
	H94	H	0.914509	0.621240	0.076986
	H95	H	0.905540	0.381549	0.898894
	H96	H	0.410167	0.122965	0.582276
	H97	H	0.606095	0.881425	0.595655
	H98	H	0.586337	0.119508	0.411046
	H99	H	0.413453	0.884670	0.406277
	H100	H	0.597816	0.410076	0.113089
	H101	H	0.604816	0.605035	0.871098
	H102	H	0.404905	0.595634	0.117287
	H103	H	0.409846	0.406185	0.875866
	H104	H	0.121640	0.589311	0.398570
	H105	H	0.887037	0.597528	0.587977
	H106	H	0.122702	0.402076	0.599118
	H107	H	0.885080	0.404433	0.389142
	H108	H	0.906230	0.625374	0.085375
	H109	H	0.092996	0.390077	0.079020
	H110	H	0.093233	0.622080	0.909022
	H111	H	0.912165	0.384755	0.898931
	H112	H	0.112585	0.908066	0.616161
	H113	H	0.093118	0.089709	0.380047
	H114	H	0.908312	0.107155	0.620638
	H115	H	0.902883	0.912082	0.376505
	H116	H	0.619306	0.083249	0.903515
	H117	H	0.390413	0.100846	0.082649
	H118	H	0.624504	0.898651	0.101366
	H119	H	0.389120	0.913984	0.896284
	C120	C	0.387055	0.012377	0.614961
	C121	C	0.630460	0.994131	0.621044
	C122	C	0.623206	0.012144	0.379236
	C123	C	0.381261	0.993592	0.373728
	C124	C	0.628224	0.382480	0.004809
	C125	C	0.625470	0.623903	0.986884
	C126	C	0.381355	0.625508	0.005595
	C127	C	0.382798	0.384040	0.987099
	C128	C	0.013955	0.625436	0.372088
	C129	C	0.996292	0.623971	0.616666
	C130	C	0.012743	0.379019	0.619410
	C131	C	0.996435	0.380020	0.372388
	C132	C	0.886462	0.513113	0.113144
	C133	C	0.128679	0.494183	0.118635
	C134	C	0.121919	0.512630	0.877222
	C135	C	0.879275	0.493791	0.870717
	C136	C	0.129663	0.879730	0.504708
	C137	C	0.126035	0.121846	0.487499
	C138	C	0.882310	0.124839	0.506288
	C139	C	0.883783	0.883358	0.488115
	C140	C	0.514418	0.126572	0.873449
	C141	C	0.496418	0.125650	0.119105
	C142	C	0.512847	0.879483	0.121221
	C143	C	0.497354	0.881584	0.874771
	C144	C	0.393759	0.885733	0.669117
	C145	C	0.626364	0.119986	0.675267
	C146	C	0.620134	0.885730	0.326560
	C147	C	0.382144	0.119143	0.317892
	C148	C	0.679422	0.383605	0.879948
	C149	C	0.685646	0.623314	0.110613
	C150	C	0.321607	0.628000	0.881986
	C151	C	0.330294	0.383380	0.111416
	C152	C	0.891833	0.682625	0.370725
	C153	C	0.119839	0.676176	0.616889
	C154	C	0.889798	0.325712	0.611246
	C155	C	0.119590	0.324339	0.380848
	C156	C	0.889795	0.382986	0.669712
	C157	C	0.118067	0.620041	0.676747
	C158	C	0.891678	0.624324	0.313223
	C159	C	0.119849	0.382599	0.322603
	C160	C	0.382859	0.680815	0.880613
	C161	C	0.623254	0.674762	0.113395
	C162	C	0.619788	0.328607	0.879488
	C163	C	0.390973	0.329375	0.112764
	C164	C	0.679821	0.887210	0.381081
	C165	C	0.684584	0.119201	0.620573
	C166	C	0.333723	0.886674	0.614914
	C167	C	0.323584	0.118376	0.372365
	C168	C	0.891824	0.386539	0.167177
	C169	C	0.125145	0.619605	0.174148
	C170	C	0.117711	0.386161	0.825559
	C171	C	0.881825	0.619638	0.815489
	C172	C	0.182092	0.880708	0.380146
	C173	C	0.185418	0.121357	0.611751
	C174	C	0.821789	0.127112	0.382791
	C175	C	0.832632	0.883174	0.612866
	C176	C	0.391509	0.182206	0.872440
	C177	C	0.619554	0.178173	0.118715
	C178	C	0.389607	0.826244	0.113487
	C179	C	0.620091	0.825566	0.883695
	C180	C	0.389583	0.883970	0.171482
	C181	C	0.618378	0.121336	0.178609
	C182	C	0.392473	0.124929	0.813694
	C183	C	0.620775	0.882973	0.825112
	C184	C	0.883971	0.178077	0.380089
	C185	C	0.123865	0.174333	0.613462
	C186	C	0.121316	0.826661	0.378880
	C187	C	0.892200	0.827257	0.612896
	C188	C	0.178970	0.388127	0.877840
	C189	C	0.182851	0.619435	0.118171
	C190	C	0.832903	0.387393	0.112398
	C191	C	0.823638	0.619175	0.870625
	C192	C	0.406970	0.099729	0.592051
	C193	C	0.609614	0.906632	0.598917
	C194	C	0.600268	0.099632	0.401420
	C195	C	0.404182	0.905824	0.396857
	C196	C	0.609885	0.404774	0.092013
	C197	C	0.601716	0.602779	0.899603
	C198	C	0.405028	0.601586	0.092836
	C199	C	0.401602	0.407433	0.900072
	C200	C	0.099206	0.601940	0.397081
	C201	C	0.910664	0.603161	0.591633
	C202	C	0.098509	0.400232	0.600529
	C203	C	0.910743	0.402605	0.390413
	C204	C	0.906889	0.600722	0.090648
	C205	C	0.107808	0.406723	0.096198
	C206	C	0.099855	0.600805	0.899148
	C207	C	0.901421	0.406095	0.894104
	C208	C	0.111055	0.901733	0.591848
	C209	C	0.102538	0.099835	0.400302
	C210	C	0.906218	0.101942	0.593545
	C211	C	0.902495	0.907414	0.401053
	C212	C	0.599979	0.103821	0.898649
	C213	C	0.411204	0.104563	0.094108
	C214	C	0.598441	0.900270	0.102402
	C215	C	0.411602	0.904828	0.892778
	Zn216	Zn	0.507387	0.003566	0.744488
	Zn217	Zn	0.503406	0.002626	0.249875
	Zn218	Zn	0.755562	0.504254	-0.005614
	Zn219	Zn	0.253197	0.504540	-0.004231
	Zn220	Zn	0.005955	0.753831	0.495211
	Zn221	Zn	0.004583	0.250041	0.496167
	Zn222	Zn	0.002765	0.502671	0.747553
	Zn223	Zn	0.005852	0.503043	0.242945
	Zn224	Zn	0.504124	0.751058	-0.002699
	Zn225	Zn	0.505204	0.255834	-0.003613
	Zn226	Zn	0.754383	0.004712	0.498099
	Zn227	Zn	0.256481	0.002560	0.495308
	N228	N	0.426398	0.964811	0.669195
	N229	N	0.593397	0.041252	0.675960
	N230	N	0.585697	0.964594	0.325361
	N231	N	0.417011	0.040568	0.318474
	N232	N	0.684978	0.416324	0.958889
	N233	N	0.687192	0.592591	0.030822
	N234	N	0.320744	0.594153	0.960875
	N235	N	0.325170	0.416945	0.032310
	N236	N	0.968705	0.683330	0.406775
	N237	N	0.043129	0.678509	0.580086
	N238	N	0.967272	0.322929	0.580644
	N239	N	0.042012	0.322400	0.411060
	N240	N	0.967264	0.415235	0.674943
	N241	N	0.040356	0.588302	0.676547
	N242	N	0.968671	0.589292	0.314166
	N243	N	0.042356	0.416379	0.317236
	N244	N	0.419441	0.679443	0.958466
	N245	N	0.586328	0.675248	0.035550
	N246	N	0.588657	0.327945	0.958026
	N247	N	0.422726	0.329648	0.034667
	N248	N	0.681890	0.966908	0.412905
	N249	N	0.687372	0.039980	0.587594
	N250	N	0.329535	0.966139	0.581920
	N251	N	0.322961	0.039122	0.406407
	N252	N	0.924464	0.465535	0.167630
	N253	N	0.092134	0.540706	0.174645
	N254	N	0.082780	0.464704	0.825434
	N255	N	0.915706	0.540568	0.815390
	N256	N	0.187547	0.912878	0.459322
	N257	N	0.186662	0.089381	0.532442
	N258	N	0.820889	0.094678	0.462066
	N259	N	0.827310	0.917372	0.534149
	N260	N	0.468291	0.183451	0.908814
	N261	N	0.542802	0.180893	0.082309
	N262	N	0.466929	0.823422	0.082708
	N263	N	0.542449	0.824669	0.913823
	N264	N	0.467067	0.916223	0.176660
	N265	N	0.540648	0.089468	0.179062
	N266	N	0.470032	0.091167	0.814171
	N267	N	0.543520	0.917177	0.819354
	N268	N	0.921080	0.177075	0.457964
	N269	N	0.087587	0.174736	0.535345
	N270	N	0.089632	0.825915	0.457217
	N271	N	0.923301	0.827353	0.534324
	N272	N	0.181806	0.468106	0.909188
	N273	N	0.185271	0.540496	0.084654
	N274	N	0.829510	0.466982	0.079512
	N275	N	0.821891	0.539967	0.904466
	O276	O	0.019191	-0.049207	0.014797
	H277	H	0.012592	-0.040360	0.015404
	H278	H	0.016561	-0.049176	0.019929
	O279	O	0.566644	0.467981	0.543627
	H280	H	0.572562	0.474755	0.543296
	H281	H	0.565253	0.467957	0.537685
	O282	O	0.561459	0.555552	0.506093
	H283	H	0.565392	0.558135	0.511005
	H284	H	0.567721	0.554571	0.516502
	O285	O	1.064583	0.008181	1.068140
	H286	H	1.059183	0.004311	1.075941
	H287	H	1.064877	0.002603	1.073141
	O288	O	1.014886	-0.006321	-0.040042
	H289	H	1.014901	-0.001675	-0.043618
	H290	H	1.006333	-0.007085	-0.041353
	O291	O	0.497352	0.499339	0.494477
	H292	H	0.502855	0.497798	0.475747
	H293	H	0.487842	0.497889	0.489014
	O294	O	1.050902	0.002130	1.059009
	H295	H	1.054904	-0.001837	1.069531
	H296	H	1.046566	0.008246	1.063411
	O297	O	-0.011931	0.017177	-0.043527
	H298	H	-0.004490	0.025669	-0.040803
	H299	H	-0.008430	0.016954	-0.041429
	O300	O	0.527297	0.486751	0.437262
	H301	H	0.524707	0.479592	0.438137
	H302	H	0.538864	0.491050	0.433321
	O303	O	0.417310	0.522952	0.480076
	H304	H	0.412354	0.529391	0.477591
	H305	H	0.418342	0.515186	0.472858
	O306	O	1.043881	-0.037101	-0.025795
	H307	H	1.057472	-0.038064	-0.019702
	H308	H	1.037564	-0.038275	-0.032929
	O309	O	-0.046422	0.040884	1.028103
	H310	H	-0.040146	0.041165	1.025501
	H311	H	-0.054328	0.050327	1.018512
	O312	O	0.944234	0.992174	1.006062
	H313	H	0.941968	0.991306	0.997776
	H314	H	0.950156	1.005159	1.013962
	O315	O	0.526556	0.517493	0.495052
	H316	H	0.528922	0.512554	0.496027
	H317	H	0.516193	0.516829	0.501549
	O318	O	0.572491	0.590413	0.504274
	H319	H	0.564196	0.610204	0.501462
	H320	H	0.569438	0.590921	0.506701
	O321	O	-0.031728	0.948933	0.990648
	H322	H	-0.026936	0.952283	0.984354
	H323	H	-0.026170	0.943402	0.991742
	O324	O	0.435801	0.476023	0.462725
	H325	H	0.447640	0.469511	0.463047
	H326	H	0.438401	0.478669	0.458003
	O327	O	0.492823	0.492298	0.540293
	H328	H	0.495183	0.496175	0.546197
	H329	H	0.491608	0.480741	0.541622
	O330	O	0.496013	0.554727	0.472245
	H331	H	0.502638	0.555414	0.482441
	H332	H	0.488767	0.551850	0.459018
	O333	O	0.519155	0.420112	0.456999
	H334	H	0.523520	0.428964	0.450423
	H335	H	0.520126	0.430184	0.470498
	O336	O	0.524121	0.439752	0.497693
	H337	H	0.532711	0.441733	0.494343
	H338	H	0.513301	0.434082	0.504015
	O339	O	0.970194	1.077552	-0.013119
	H340	H	0.974163	1.080664	-0.005455
	H341	H	0.969140	1.071959	-0.013572
	O342	O	0.409968	0.569984	0.488005
	H343	H	0.409401	0.575684	0.489057
	H344	H	0.417706	0.555272	0.484319
	O345	O	0.486483	0.569117	0.493829
	H346	H	0.490839	0.575515	0.495006
	H347	H	0.488150	0.573569	0.489710
	O348	O	-0.012158	0.018647	0.023210
	H349	H	-0.017652	0.021288	0.026108
	H350	H	-0.012186	0.020278	0.006065
	O351	O	-0.033450	1.025455	1.004299
	H352	H	-0.034036	1.016260	0.995314
	H353	H	-0.037064	1.029490	1.003357
	O354	O	0.543258	0.578401	0.573047
	H355	H	0.536438	0.582039	0.577858
	H356	H	0.537023	0.580782	0.571231
	O357	O	0.057233	1.070490	1.013070
	H358	H	0.063258	1.069857	1.016850
	H359	H	0.058801	1.056681	1.009086
