data_Molecule from HDF5

_cell_length_a		16.400433
_cell_length_b		16.282926
_cell_length_c		16.342267
_cell_angle_alpha	90.157038
_cell_angle_beta	90.113657
_cell_angle_gamma	89.867955
_symmetry_space_group_name_H-M	'P 1'
_symmetry_Int_Tables_number		1

loop_
	_symmetry_equiv_pos_as_xyz
	x,y,z

loop_
	_atom_site_label
	_atom_site_type_symbol
	_atom_site_fract_x
	_atom_site_fract_y
	_atom_site_fract_z
	H0	H	0.401767	0.831404	0.706557
	H1	H	0.604876	0.155090	0.711787
	H2	H	0.605747	0.832590	0.272873
	H3	H	0.396334	0.154621	0.272888
	H4	H	0.721071	0.386906	0.834077
	H5	H	0.723170	0.601887	0.152192
	H6	H	0.282476	0.593263	0.832101
	H7	H	0.280503	0.388843	0.154120
	H8	H	0.840940	0.714008	0.387501
	H9	H	0.161351	0.708313	0.592990
	H10	H	0.840600	0.273697	0.596267
	H11	H	0.160378	0.272330	0.388583
	H12	H	0.839874	0.389492	0.711726
	H13	H	0.160236	0.593777	0.711773
	H14	H	0.842161	0.600443	0.270336
	H15	H	0.158751	0.385863	0.271043
	H16	H	0.399878	0.708658	0.831149
	H17	H	0.602253	0.713129	0.154463
	H18	H	0.604436	0.272660	0.833615
	H19	H	0.396990	0.273102	0.153357
	H20	H	0.722906	0.833085	0.386577
	H21	H	0.721946	0.154169	0.597766
	H22	H	0.285724	0.831808	0.592461
	H23	H	0.279324	0.153886	0.386887
	H24	H	0.894099	0.332487	0.213811
	H25	H	0.101030	0.652806	0.211283
	H26	H	0.102296	0.331177	0.775787
	H27	H	0.897534	0.653805	0.776331
	H28	H	0.220389	0.888979	0.332094
	H29	H	0.219899	0.095316	0.654399
	H30	H	0.778888	0.100048	0.333244
	H31	H	0.783282	0.889768	0.652431
	H32	H	0.341066	0.212894	0.887825
	H33	H	0.660719	0.213130	0.096942
	H34	H	0.339445	0.778963	0.092131
	H35	H	0.660980	0.773555	0.890999
	H36	H	0.342005	0.890561	0.212625
	H37	H	0.660044	0.100734	0.215382
	H38	H	0.341276	0.096343	0.772373
	H39	H	0.662208	0.890318	0.774788
	H40	H	0.896835	0.213513	0.331694
	H41	H	0.103867	0.211450	0.654591
	H42	H	0.103376	0.773510	0.331468
	H43	H	0.901061	0.776440	0.653576
	H44	H	0.219853	0.332122	0.888662
	H45	H	0.217275	0.653288	0.096977
	H46	H	0.777413	0.333301	0.100059
	H47	H	0.780640	0.653448	0.890013
	H48	H	0.409836	0.108611	0.581328
	H49	H	0.597542	0.876520	0.583988
	H50	H	0.587931	0.106477	0.405088
	H51	H	0.418653	0.878104	0.390990
	H52	H	0.594531	0.408886	0.107255
	H53	H	0.589551	0.578206	0.880943
	H54	H	0.406683	0.594990	0.112327
	H55	H	0.397186	0.402889	0.874850
	H56	H	0.114501	0.584114	0.401510
	H57	H	0.884658	0.589653	0.581375
	H58	H	0.113316	0.406946	0.585881
	H59	H	0.886809	0.398207	0.408666
	H60	H	0.116638	0.399924	0.589016
	H61	H	0.886852	0.580243	0.582069
	H62	H	0.113689	0.581896	0.405043
	H63	H	0.891414	0.410861	0.408174
	H64	H	0.400251	0.580819	0.109887
	H65	H	0.587566	0.583841	0.879102
	H66	H	0.582966	0.407594	0.104513
	H67	H	0.413378	0.414942	0.884365
	H68	H	0.591431	0.106676	0.406902
	H69	H	0.589395	0.878132	0.585498
	H70	H	0.409818	0.110229	0.583666
	H71	H	0.418007	0.885207	0.412735
	H72	H	0.908894	0.606713	0.080893
	H73	H	0.096890	0.371747	0.090937
	H74	H	0.088017	0.609605	0.896608
	H75	H	0.905022	0.375444	0.904528
	H76	H	0.087898	0.897921	0.607568
	H77	H	0.092786	0.076431	0.380283
	H78	H	0.899529	0.080504	0.609174
	H79	H	0.913637	0.908577	0.379736
	H80	H	0.614075	0.081857	0.902135
	H81	H	0.389518	0.082192	0.076797
	H82	H	0.614478	0.902899	0.080076
	H83	H	0.386347	0.902686	0.900711
	H84	H	0.615459	0.906285	0.084184
	H85	H	0.389045	0.076659	0.083854
	H86	H	0.615607	0.083147	0.902703
	H87	H	0.385483	0.902322	0.897560
	H88	H	0.919233	0.073821	0.600236
	H89	H	0.085735	0.083846	0.380159
	H90	H	0.100459	0.899303	0.609776
	H91	H	0.915104	0.899767	0.377660
	H92	H	0.088048	0.606032	0.908548
	H93	H	0.077510	0.379499	0.083066
	H94	H	0.913009	0.606699	0.083434
	H95	H	0.911410	0.376581	0.899243
	H96	H	0.412064	0.109700	0.583534
	H97	H	0.593223	0.880087	0.578590
	H98	H	0.591140	0.108399	0.403492
	H99	H	0.399349	0.875325	0.403122
	H100	H	0.588754	0.398518	0.109516
	H101	H	0.593052	0.582022	0.878524
	H102	H	0.414985	0.583357	0.105455
	H103	H	0.417585	0.394019	0.878794
	H104	H	0.114254	0.579913	0.401462
	H105	H	0.883878	0.584850	0.590169
	H106	H	0.114115	0.400010	0.580610
	H107	H	0.885521	0.405694	0.397805
	H108	H	0.912441	0.604648	0.079016
	H109	H	0.095791	0.379819	0.070173
	H110	H	0.098540	0.610498	0.903412
	H111	H	0.912297	0.379792	0.906719
	H112	H	0.093978	0.908556	0.605557
	H113	H	0.094900	0.085468	0.376466
	H114	H	0.917226	0.094898	0.609017
	H115	H	0.907448	0.903406	0.375981
	H116	H	0.615052	0.082181	0.904089
	H117	H	0.386239	0.085167	0.084741
	H118	H	0.616919	0.901396	0.084273
	H119	H	0.385858	0.900452	0.899258
	C120	C	0.381267	0.002114	0.612667
	C121	C	0.624039	0.984826	0.614413
	C122	C	0.622254	0.001509	0.372124
	C123	C	0.379750	0.985779	0.370813
	C124	C	0.621462	0.371961	0.002112
	C125	C	0.621951	0.614796	0.985108
	C126	C	0.377291	0.615718	0.002242
	C127	C	0.378295	0.371685	0.985098
	C128	C	0.008866	0.614628	0.370770
	C129	C	0.991278	0.614615	0.614925
	C130	C	0.008766	0.371339	0.615431
	C131	C	0.992471	0.371881	0.372050
	C132	C	0.878283	0.500902	0.114146
	C133	C	0.120682	0.483258	0.113626
	C134	C	0.121330	0.501430	0.872391
	C135	C	0.878483	0.483802	0.872792
	C136	C	0.123785	0.870555	0.501174
	C137	C	0.122569	0.113651	0.485063
	C138	C	0.879617	0.115425	0.500538
	C139	C	0.880713	0.872293	0.483498
	C140	C	0.509515	0.114640	0.870709
	C141	C	0.492975	0.114390	0.114364
	C142	C	0.509713	0.872842	0.113811
	C143	C	0.492382	0.871396	0.869992
	C144	C	0.382342	0.880049	0.668654
	C145	C	0.624277	0.106534	0.672849
	C146	C	0.624335	0.880876	0.312206
	C147	C	0.378015	0.106379	0.312084
	C148	C	0.681029	0.369191	0.881964
	C149	C	0.682098	0.618480	0.105078
	C150	C	0.320919	0.613674	0.880446
	C151	C	0.319992	0.370181	0.105663
	C152	C	0.889206	0.674804	0.368861
	C153	C	0.112904	0.670551	0.613808
	C154	C	0.888378	0.312933	0.615394
	C155	C	0.112361	0.311839	0.369968
	C156	C	0.888142	0.370592	0.672974
	C157	C	0.112252	0.613574	0.672756
	C158	C	0.889549	0.617895	0.310664
	C159	C	0.111645	0.368765	0.311614
	C160	C	0.379670	0.670686	0.879818
	C161	C	0.622223	0.674067	0.105985
	C162	C	0.623214	0.311965	0.881827
	C163	C	0.377901	0.312587	0.105567
	C164	C	0.682475	0.880915	0.369076
	C165	C	0.682730	0.105906	0.616271
	C166	C	0.324438	0.880287	0.611989
	C167	C	0.319726	0.105968	0.369011
	C168	C	0.875729	0.380702	0.174239
	C169	C	0.120568	0.604670	0.172357
	C170	C	0.121325	0.379614	0.814636
	C171	C	0.878010	0.605176	0.814845
	C172	C	0.181219	0.869925	0.380157
	C173	C	0.180982	0.114708	0.606122
	C174	C	0.819436	0.117657	0.380784
	C175	C	0.822505	0.871260	0.604420
	C176	C	0.389108	0.173687	0.869069
	C177	C	0.612794	0.174204	0.116164
	C178	C	0.388077	0.816639	0.112942
	C179	C	0.613380	0.813111	0.871392
	C180	C	0.389627	0.871764	0.173026
	C181	C	0.612583	0.117781	0.174806
	C182	C	0.389326	0.115884	0.811438
	C183	C	0.613704	0.870966	0.813332
	C184	C	0.878016	0.174535	0.380172
	C185	C	0.122839	0.172269	0.606233
	C186	C	0.123079	0.812456	0.379810
	C187	C	0.880897	0.814292	0.604897
	C188	C	0.179946	0.380026	0.870814
	C189	C	0.178355	0.604800	0.115459
	C190	C	0.817682	0.381016	0.117459
	C191	C	0.819929	0.605191	0.871592
	C192	C	0.404142	0.087240	0.589501
	C193	C	0.600323	0.900367	0.589829
	C194	C	0.597371	0.085438	0.397791
	C195	C	0.404694	0.901370	0.395308
	C196	C	0.596240	0.397638	0.085478
	C197	C	0.597284	0.589023	0.901438
	C198	C	0.400328	0.592972	0.087176
	C199	C	0.402469	0.396737	0.901148
	C200	C	0.092414	0.589268	0.395487
	C201	C	0.907053	0.591626	0.591401
	C202	C	0.092808	0.395330	0.591905
	C203	C	0.909557	0.397678	0.397502
	C204	C	0.903927	0.584534	0.088568
	C205	C	0.097027	0.399022	0.088637
	C206	C	0.098161	0.586461	0.895979
	C207	C	0.902504	0.399202	0.896556
	C208	C	0.100697	0.894695	0.585587
	C209	C	0.098254	0.089209	0.400994
	C210	C	0.904784	0.090259	0.584459
	C211	C	0.904949	0.896814	0.399660
	C212	C	0.593117	0.089690	0.895813
	C213	C	0.409917	0.088624	0.089076
	C214	C	0.593616	0.896552	0.089809
	C215	C	0.407991	0.894950	0.892731
	Zn216	Zn	0.501635	-0.006464	0.741268
	Zn217	Zn	0.501795	-0.005769	0.242890
	Zn218	Zn	0.750240	0.493068	-0.006293
	Zn219	Zn	0.249236	0.492697	-0.006371
	Zn220	Zn	0.001126	0.742931	0.492175
	Zn221	Zn	0.001153	0.243294	0.492907
	Zn222	Zn	-0.000206	0.492409	0.744371
	Zn223	Zn	-0.000199	0.492377	0.242440
	Zn224	Zn	0.500068	0.743129	-0.006813
	Zn225	Zn	0.500338	0.243221	-0.006827
	Zn226	Zn	0.751575	-0.006934	0.492011
	Zn227	Zn	0.252181	-0.006846	0.492840
	N228	N	0.416940	0.956921	0.669182
	N229	N	0.588485	0.030292	0.671953
	N230	N	0.587706	0.956866	0.313849
	N231	N	0.414879	0.030457	0.313316
	N232	N	0.680052	0.405877	0.957763
	N233	N	0.681875	0.582190	0.028950
	N234	N	0.319178	0.580289	0.957641
	N235	N	0.320187	0.406053	0.029688
	N236	N	0.964499	0.672604	0.405858
	N237	N	0.036799	0.671341	0.578618
	N238	N	0.964328	0.313202	0.580350
	N239	N	0.037367	0.313826	0.406963
	N240	N	0.964121	0.406068	0.673229
	N241	N	0.035537	0.579725	0.673610
	N242	N	0.964902	0.580937	0.311919
	N243	N	0.035993	0.405467	0.312819
	N244	N	0.413858	0.672021	0.956681
	N245	N	0.585567	0.671857	0.030368
	N246	N	0.586589	0.313740	0.957448
	N247	N	0.413526	0.313322	0.029458
	N248	N	0.681304	0.956982	0.405597
	N249	N	0.682741	0.029211	0.580798
	N250	N	0.323825	0.957340	0.577985
	N251	N	0.320583	0.029645	0.404640
	N252	N	0.912794	0.456397	0.172335
	N253	N	0.085346	0.528217	0.171253
	N254	N	0.085563	0.456078	0.815508
	N255	N	0.913511	0.528676	0.815189
	N256	N	0.181814	0.905390	0.456598
	N257	N	0.180997	0.079108	0.529747
	N258	N	0.820415	0.081599	0.456757
	N259	N	0.822297	0.906474	0.528092
	N260	N	0.464990	0.173223	0.905067
	N261	N	0.537531	0.172062	0.079065
	N262	N	0.463814	0.816770	0.077134
	N263	N	0.536941	0.813151	0.905722
	N264	N	0.466336	0.905771	0.173829
	N265	N	0.536989	0.081327	0.173771
	N266	N	0.465215	0.080014	0.812310
	N267	N	0.537596	0.906595	0.812395
	N268	N	0.914677	0.173278	0.455906
	N269	N	0.087204	0.171819	0.529993
	N270	N	0.087954	0.812732	0.456100
	N271	N	0.916317	0.814693	0.528765
	N272	N	0.179980	0.456653	0.906210
	N273	N	0.178708	0.528303	0.079745
	N274	N	0.819393	0.456657	0.080766
	N275	N	0.820055	0.528595	0.906758
	O276	O	0.493869	0.663060	0.387447
	H277	H	0.504785	0.675947	0.383450
	H278	H	0.499575	0.667662	0.384873
	O279	O	0.527651	0.529045	0.648705
	H280	H	0.545077	0.548351	0.641288
	H281	H	0.524782	0.542629	0.659685
	O282	O	0.582723	0.422806	0.608054
	H283	H	0.595345	0.430996	0.619924
	H284	H	0.578140	0.423603	0.622321
	O285	O	1.384849	0.546488	0.504525
	H286	H	1.370794	0.547042	0.498563
	H287	H	1.385754	0.538491	0.497258
	O288	O	0.204067	0.186052	1.008924
	H289	H	0.214741	0.197183	1.014447
	H290	H	0.197424	0.189816	1.019189
	O291	O	0.638629	0.560530	0.397746
	H292	H	0.628252	0.563076	0.386208
	H293	H	0.644434	0.556725	0.376280
	O294	O	0.984983	0.843274	0.852118
	H295	H	0.990798	0.830451	0.842549
	H296	H	0.992636	0.843985	0.843304
	O297	O	0.926822	0.854863	1.036774
	H298	H	0.934210	0.851785	1.022369
	H299	H	0.937832	0.858565	1.034283
	O300	O	-0.084560	0.009383	-0.111205
	H301	H	-0.080561	0.005313	-0.122174
	H302	H	-0.076247	0.014054	-0.111343
	O303	O	0.296584	0.651239	0.526198
	H304	H	0.313193	0.629440	0.510744
	H305	H	0.278751	0.641605	0.512082
	O306	O	0.861145	0.155085	0.036233
	H307	H	0.850186	0.156502	0.036947
	H308	H	0.854419	0.145216	0.059458
	O309	O	0.408171	0.432549	0.484102
	H310	H	0.398870	0.421675	0.491742
	H311	H	0.406967	0.424800	0.490677
	O312	O	0.921850	0.810281	-0.012910
	H313	H	0.916176	0.811612	-0.029049
	H314	H	0.928120	0.815021	-0.015240
	O315	O	0.407623	0.608550	0.307804
	H316	H	0.408450	0.615286	0.301469
	H317	H	0.387682	0.594914	0.303827
	O318	O	0.690732	0.541510	0.496199
	H319	H	0.694872	0.536588	0.475539
	H320	H	0.699049	0.524727	0.499463
	O321	O	1.101770	0.168311	1.169499
	H322	H	1.095344	0.172975	1.175531
	H323	H	1.073568	0.169159	1.166914
	O324	O	-0.089839	-0.004037	0.827607
	H325	H	-0.072544	0.018641	0.835291
	H326	H	-0.101873	-0.006269	0.819177
	O327	O	-0.072620	1.126103	0.885786
	H328	H	-0.076607	1.134293	0.909359
	H329	H	-0.062210	1.142666	0.880813
	O330	O	0.547682	0.641287	0.690664
	H331	H	0.556988	0.665462	0.705361
	H332	H	0.573139	0.638417	0.690138
	O333	O	0.811154	0.932977	1.002880
	H334	H	0.803390	0.932772	0.992130
	H335	H	0.814428	0.929735	0.998668
	O336	O	0.452726	0.514066	0.505291
	H337	H	0.453640	0.518616	0.496525
	H338	H	0.446529	0.524304	0.492283
	O339	O	0.517973	0.440634	0.350789
	H340	H	0.514914	0.432593	0.353588
	H341	H	0.518808	0.438834	0.348971
	O342	O	-0.071700	1.071035	1.003490
	H343	H	-0.068698	1.063825	1.010227
	H344	H	-0.060314	1.061045	0.992914
	O345	O	-0.049430	1.041478	0.831498
	H346	H	-0.053815	1.050902	0.827624
	H347	H	-0.031871	1.056262	0.831305
	O348	O	0.650321	0.389433	0.306658
	H349	H	0.643413	0.376173	0.308433
	H350	H	0.643779	0.393454	0.310555
	O351	O	0.105603	0.057451	-0.125454
	H352	H	0.113978	0.067628	-0.117950
	H353	H	0.117812	0.048406	-0.123585
	O354	O	0.678260	0.322965	-0.636088
	H355	H	0.678119	0.321408	-0.623487
	H356	H	0.679459	0.335068	-0.630757
	O357	O	-0.192533	0.977590	0.165615
	H358	H	-0.181355	0.946438	0.154708
	H359	H	-0.210966	0.974584	0.182356
	O360	O	0.557937	0.507510	0.588154
	H361	H	0.559006	0.511931	0.586363
	H362	H	0.554865	0.516072	0.591626
	O363	O	0.509420	0.607995	0.614141
	H364	H	0.515252	0.604411	0.612358
	H365	H	0.503647	0.607662	0.587659
	O366	O	0.481595	0.320883	0.435050
	H367	H	0.504788	0.323935	0.430297
	H368	H	0.478992	0.302032	0.445322
	O369	O	0.324791	0.289536	0.521542
	H370	H	0.302997	0.268799	0.532704
	H371	H	0.332824	0.292051	0.537787
	O372	O	0.408414	0.595712	0.532600
	H373	H	0.402506	0.595565	0.529481
	H374	H	0.418395	0.595475	0.535724
	O375	O	0.585783	0.432764	0.654007
	H376	H	0.592685	0.449105	0.651094
	H377	H	0.592888	0.428734	0.675213
	O378	O	0.604946	0.353604	0.565149
	H379	H	0.595073	0.355334	0.570482
	H380	H	0.612512	0.355739	0.569166
	O381	O	0.350516	0.484298	0.391404
	H382	H	0.363772	0.467885	0.387467
	H383	H	0.349278	0.488005	0.393025
	O384	O	0.253444	0.684535	1.259232
	H385	H	0.263120	0.671320	1.258848
	H386	H	0.253962	0.683614	1.250192
	O387	O	1.000289	0.867370	0.057579
	H388	H	1.006256	0.864484	0.061467
	H389	H	1.000394	0.856570	0.046395
	O390	O	0.576430	0.606749	0.368730
	H391	H	0.582691	0.612415	0.368019
	H392	H	0.551833	0.592645	0.370293
	O393	O	1.055085	0.001452	1.041064
	H394	H	1.067737	-0.000941	1.044050
	H395	H	1.056417	0.010836	1.045693
	O396	O	0.188175	0.843492	0.932879
	H397	H	0.185690	0.848874	0.925608
	H398	H	0.195872	0.832912	0.907727
	O399	O	0.355129	0.310673	0.674798
	H400	H	0.367260	0.316847	0.678101
	H401	H	0.361833	0.317543	0.689992
	O402	O	1.105319	0.106404	0.910379
	H403	H	1.119723	0.088690	0.910147
	H404	H	1.092741	0.092706	0.906000
	O405	O	-0.017469	-0.141204	-0.043644
	H406	H	-0.016607	-0.143164	-0.035856
	H407	H	-0.018046	-0.128901	-0.041494
	O408	O	1.128768	0.950297	0.985304
	H409	H	1.127907	0.948439	0.974433
	H410	H	1.139905	0.940411	0.990766
	O411	O	0.859693	1.003161	-0.174965
	H412	H	0.858023	1.022814	-0.166959
	H413	H	0.872758	0.993987	-0.167680
	O414	O	0.103785	0.059642	1.024513
	H415	H	0.106619	0.065169	1.030251
	H416	H	0.075566	0.051717	1.031099
	O417	O	0.346571	0.557652	0.571882
	H418	H	0.355707	0.562032	0.566713
	H419	H	0.336881	0.550233	0.573582
	O420	O	-0.029374	0.881183	0.024764
	H421	H	-0.033173	0.886216	0.013795
	H422	H	-0.024698	0.882412	0.016915
	O423	O	1.194085	0.041435	0.056834
	H424	H	1.169746	0.040869	0.057599
	H425	H	1.202016	0.030677	0.061506
	O426	O	0.040926	-0.000957	1.170284
	H427	H	0.046736	-0.011019	1.179302
	H428	H	0.029660	0.004390	1.170419
	O429	O	0.616341	0.584770	0.525036
	H430	H	0.628569	0.588044	0.513346
	H431	H	0.619886	0.579120	0.518483
