data_Molecule from HDF5

_cell_length_a		16.398393
_cell_length_b		16.519061
_cell_length_c		16.531016
_cell_angle_alpha	89.980516
_cell_angle_beta	89.842166
_cell_angle_gamma	90.223819
_symmetry_space_group_name_H-M	'P 1'
_symmetry_Int_Tables_number		1

loop_
	_symmetry_equiv_pos_as_xyz
	x,y,z

loop_
	_atom_site_label
	_atom_site_type_symbol
	_atom_site_fract_x
	_atom_site_fract_y
	_atom_site_fract_z
	H0	H	0.395523	0.835658	0.722765
	H1	H	0.607786	0.150667	0.717070
	H2	H	0.607661	0.834944	0.274828
	H3	H	0.398071	0.149038	0.277040
	H4	H	0.721259	0.389697	0.840796
	H5	H	0.723628	0.598943	0.155006
	H6	H	0.282310	0.597074	0.839169
	H7	H	0.277816	0.387840	0.154739
	H8	H	0.846467	0.714112	0.391101
	H9	H	0.160500	0.713814	0.604606
	H10	H	0.843782	0.272623	0.598541
	H11	H	0.162080	0.272355	0.391513
	H12	H	0.843158	0.388052	0.716144
	H13	H	0.160603	0.597855	0.719937
	H14	H	0.844698	0.598701	0.275993
	H15	H	0.159774	0.385128	0.272048
	H16	H	0.393921	0.717692	0.841305
	H17	H	0.607624	0.715911	0.154667
	H18	H	0.606649	0.271945	0.841998
	H19	H	0.391982	0.268967	0.154924
	H20	H	0.722626	0.833983	0.392488
	H21	H	0.720751	0.151027	0.596438
	H22	H	0.280322	0.834771	0.605520
	H23	H	0.283093	0.149475	0.394738
	H24	H	0.893630	0.336232	0.220553
	H25	H	0.112227	0.648850	0.223352
	H26	H	0.104309	0.334215	0.780752
	H27	H	0.894454	0.646677	0.772784
	H28	H	0.229499	0.883420	0.341938
	H29	H	0.225161	0.097952	0.654330
	H30	H	0.783034	0.096290	0.338082
	H31	H	0.780129	0.886450	0.652616
	H32	H	0.344690	0.212054	0.895359
	H33	H	0.659913	0.215739	0.103803
	H34	H	0.344485	0.767121	0.109231
	H35	H	0.658359	0.770126	0.891794
	H36	H	0.344984	0.883200	0.223976
	H37	H	0.662218	0.096413	0.215649
	H38	H	0.346998	0.100401	0.774981
	H39	H	0.659813	0.887515	0.776559
	H40	H	0.897779	0.215326	0.339737
	H41	H	0.110970	0.216356	0.652510
	H42	H	0.116458	0.764142	0.342890
	H43	H	0.897124	0.769722	0.653397
	H44	H	0.219996	0.335467	0.897121
	H45	H	0.225774	0.651156	0.104158
	H46	H	0.778670	0.336054	0.102898
	H47	H	0.779971	0.649113	0.891976
	H48	H	0.416616	0.103003	0.585837
	H49	H	0.593417	0.878606	0.589417
	H50	H	0.599050	0.105118	0.411412
	H51	H	0.415274	0.882911	0.419786
	H52	H	0.587372	0.409164	0.108980
	H53	H	0.594335	0.585234	0.883127
	H54	H	0.410839	0.579996	0.109696
	H55	H	0.412206	0.401355	0.885232
	H56	H	0.113785	0.577153	0.412355
	H57	H	0.892006	0.574851	0.585307
	H58	H	0.118907	0.397469	0.588605
	H59	H	0.890092	0.402239	0.409151
	H60	H	0.114807	0.405389	0.585047
	H61	H	0.887955	0.579504	0.589197
	H62	H	0.114574	0.574989	0.409966
	H63	H	0.890324	0.402670	0.410104
	H64	H	0.416632	0.576264	0.107451
	H65	H	0.590108	0.575788	0.888628
	H66	H	0.585911	0.400069	0.111634
	H67	H	0.412067	0.400736	0.886283
	H68	H	0.595729	0.108475	0.398871
	H69	H	0.589552	0.878769	0.589768
	H70	H	0.414134	0.104217	0.586051
	H71	H	0.410194	0.876714	0.406304
	H72	H	0.915841	0.603918	0.085290
	H73	H	0.084996	0.385682	0.080639
	H74	H	0.095766	0.608344	0.908655
	H75	H	0.901666	0.373773	0.901711
	H76	H	0.088407	0.897597	0.610041
	H77	H	0.081905	0.079920	0.388910
	H78	H	0.914215	0.077126	0.605832
	H79	H	0.918013	0.903362	0.385710
	H80	H	0.618490	0.086437	0.909101
	H81	H	0.390748	0.072698	0.089923
	H82	H	0.612006	0.907661	0.082741
	H83	H	0.388760	0.906078	0.907788
	H84	H	0.613758	0.906521	0.087727
	H85	H	0.385214	0.085465	0.094309
	H86	H	0.614213	0.081556	0.914259
	H87	H	0.388405	0.902975	0.911943
	H88	H	0.918108	0.085468	0.608653
	H89	H	0.095549	0.089526	0.381686
	H90	H	0.095795	0.903951	0.610458
	H91	H	0.915254	0.899550	0.383658
	H92	H	0.087268	0.606805	0.902464
	H93	H	0.094451	0.381878	0.083640
	H94	H	0.913325	0.605171	0.085842
	H95	H	0.921918	0.381234	0.902390
	H96	H	0.416186	0.103404	0.588650
	H97	H	0.591590	0.879685	0.586540
	H98	H	0.586754	0.102758	0.406356
	H99	H	0.425249	0.881792	0.407690
	H100	H	0.594227	0.404150	0.112851
	H101	H	0.583334	0.585272	0.887251
	H102	H	0.417345	0.582846	0.108658
	H103	H	0.411873	0.400950	0.885900
	H104	H	0.115622	0.578161	0.409219
	H105	H	0.890581	0.581708	0.582278
	H106	H	0.117878	0.405124	0.593983
	H107	H	0.890845	0.403480	0.409431
	H108	H	0.914970	0.604933	0.088439
	H109	H	0.086345	0.381634	0.089861
	H110	H	0.087097	0.603598	0.912524
	H111	H	0.909300	0.382084	0.919201
	H112	H	0.087765	0.906034	0.606076
	H113	H	0.098151	0.072462	0.385642
	H114	H	0.908916	0.083462	0.610680
	H115	H	0.912831	0.904234	0.384324
	H116	H	0.616545	0.079115	0.906704
	H117	H	0.390367	0.084633	0.081101
	H118	H	0.613272	0.902779	0.083949
	H119	H	0.390727	0.908610	0.912323
	C120	C	0.381647	0.000400	0.620624
	C121	C	0.623689	0.983814	0.618817
	C122	C	0.625148	0.000838	0.374505
	C123	C	0.383507	0.983959	0.378253
	C124	C	0.621355	0.372602	0.007044
	C125	C	0.622623	0.614873	0.989626
	C126	C	0.381342	0.613543	0.005258
	C127	C	0.379123	0.369861	0.989911
	C128	C	0.011270	0.611287	0.377294
	C129	C	0.994240	0.612005	0.619022
	C130	C	0.011759	0.370531	0.619407
	C131	C	0.994905	0.370719	0.375867
	C132	C	0.880388	0.501410	0.119410
	C133	C	0.123297	0.485809	0.118739
	C134	C	0.122278	0.501724	0.876876
	C135	C	0.879400	0.483040	0.875712
	C136	C	0.125461	0.869120	0.505997
	C137	C	0.124716	0.113512	0.488776
	C138	C	0.881895	0.113603	0.504551
	C139	C	0.881833	0.869847	0.487940
	C140	C	0.511897	0.114086	0.877873
	C141	C	0.493487	0.113984	0.120107
	C142	C	0.509493	0.871530	0.119467
	C143	C	0.493583	0.872520	0.877607
	C144	C	0.377982	0.882567	0.681933
	C145	C	0.626183	0.102948	0.677235
	C146	C	0.626242	0.881920	0.315158
	C147	C	0.380021	0.101951	0.317532
	C148	C	0.681421	0.370938	0.888253
	C149	C	0.683413	0.617409	0.107624
	C150	C	0.321555	0.615941	0.886692
	C151	C	0.318112	0.368905	0.107825
	C152	C	0.893357	0.673651	0.373720
	C153	C	0.112994	0.673317	0.622281
	C154	C	0.891583	0.311835	0.618641
	C155	C	0.114087	0.311178	0.372728
	C156	C	0.891306	0.369072	0.677080
	C157	C	0.112863	0.615570	0.679927
	C158	C	0.892552	0.616043	0.316339
	C159	C	0.112916	0.367261	0.313305
	C160	C	0.377058	0.676177	0.888037
	C161	C	0.625591	0.675497	0.107667
	C162	C	0.624178	0.312372	0.888858
	C163	C	0.375378	0.309923	0.107912
	C164	C	0.683346	0.881560	0.373514
	C165	C	0.682343	0.103306	0.617355
	C166	C	0.320486	0.882110	0.623659
	C167	C	0.322791	0.102169	0.375945
	C168	C	0.876160	0.383458	0.180310
	C169	C	0.128593	0.602634	0.181315
	C170	C	0.123235	0.381942	0.819602
	C171	C	0.876446	0.600462	0.814169
	C172	C	0.188970	0.865169	0.389050
	C173	C	0.185441	0.116589	0.606807
	C174	C	0.822570	0.115120	0.385865
	C175	C	0.820524	0.867836	0.605825
	C176	C	0.392347	0.172971	0.876074
	C177	C	0.612556	0.175206	0.122094
	C178	C	0.391850	0.808284	0.125587
	C179	C	0.611744	0.811082	0.874264
	C180	C	0.391837	0.866521	0.182714
	C181	C	0.613801	0.115490	0.177628
	C182	C	0.393652	0.117597	0.816344
	C183	C	0.612287	0.869072	0.816751
	C184	C	0.879657	0.174460	0.386563
	C185	C	0.128359	0.175258	0.606160
	C186	C	0.132278	0.805777	0.389580
	C187	C	0.878701	0.809742	0.606007
	C188	C	0.181015	0.382718	0.876956
	C189	C	0.185463	0.603589	0.122157
	C190	C	0.818906	0.383258	0.121947
	C191	C	0.819516	0.601598	0.873199
	C192	C	0.408092	0.082263	0.594467
	C193	C	0.598647	0.900680	0.595377
	C194	C	0.601039	0.083840	0.398612
	C195	C	0.409338	0.901768	0.403957
	C196	C	0.596352	0.397298	0.089695
	C197	C	0.596760	0.589454	0.907571
	C198	C	0.407482	0.587175	0.087102
	C199	C	0.404787	0.394180	0.907168
	C200	C	0.093336	0.584515	0.403183
	C201	C	0.911695	0.586030	0.593169
	C202	C	0.095646	0.395485	0.595937
	C203	C	0.912143	0.395941	0.401699
	C204	C	0.906974	0.583199	0.093761
	C205	C	0.096214	0.404192	0.092339
	C206	C	0.097366	0.584516	0.900871
	C207	C	0.903909	0.400700	0.900460
	C208	C	0.098325	0.895071	0.587528
	C209	C	0.099226	0.087842	0.406754
	C210	C	0.906707	0.089040	0.586969
	C211	C	0.907757	0.895172	0.405939
	C212	C	0.594827	0.089402	0.902873
	C213	C	0.410504	0.088316	0.095537
	C214	C	0.591748	0.898098	0.092497
	C215	C	0.410868	0.898480	0.903387
	Zn216	Zn	0.502880	-0.006614	0.749109
	Zn217	Zn	0.502792	-0.007984	0.247769
	Zn218	Zn	0.751609	0.492843	-0.001713
	Zn219	Zn	0.251785	0.493649	-0.002859
	Zn220	Zn	0.003507	0.740273	0.497098
	Zn221	Zn	0.003875	0.242715	0.496871
	Zn222	Zn	0.002384	0.491448	0.747949
	Zn223	Zn	0.002414	0.492252	0.247616
	Zn224	Zn	0.500937	0.743829	-0.001708
	Zn225	Zn	0.501888	0.242023	-0.000918
	Zn226	Zn	0.752679	-0.007938	0.496192
	Zn227	Zn	0.253480	-0.008141	0.498198
	N228	N	0.415173	0.957212	0.680190
	N229	N	0.590779	0.027519	0.678435
	N230	N	0.591209	0.957362	0.315344
	N231	N	0.416919	0.027519	0.318908
	N232	N	0.679787	0.407847	0.962697
	N233	N	0.682016	0.580661	0.033061
	N234	N	0.324072	0.577943	0.960526
	N235	N	0.320096	0.405342	0.033264
	N236	N	0.968365	0.671023	0.410589
	N237	N	0.038257	0.671190	0.584986
	N238	N	0.967693	0.312443	0.583698
	N239	N	0.039683	0.313194	0.410895
	N240	N	0.967147	0.404625	0.677770
	N241	N	0.037871	0.578284	0.678302
	N242	N	0.966858	0.578159	0.318147
	N243	N	0.037663	0.403353	0.314981
	N244	N	0.413342	0.674979	0.963025
	N245	N	0.588878	0.674388	0.033185
	N246	N	0.587751	0.313258	0.963790
	N247	N	0.412379	0.310324	0.033385
	N248	N	0.682849	0.956556	0.409401
	N249	N	0.681435	0.027987	0.582091
	N250	N	0.322439	0.956394	0.586332
	N251	N	0.324740	0.027658	0.412841
	N252	N	0.913535	0.458076	0.179102
	N253	N	0.090812	0.528262	0.179254
	N254	N	0.087513	0.457044	0.819213
	N255	N	0.912735	0.525711	0.815371
	N256	N	0.184876	0.903909	0.462474
	N257	N	0.183070	0.078612	0.533022
	N258	N	0.823791	0.077928	0.460213
	N259	N	0.822285	0.904568	0.531403
	N260	N	0.466836	0.171018	0.913533
	N261	N	0.536551	0.174610	0.087310
	N262	N	0.465964	0.811471	0.086759
	N263	N	0.536627	0.813001	0.911157
	N264	N	0.466074	0.905286	0.178916
	N265	N	0.538610	0.078432	0.176906
	N266	N	0.469120	0.081750	0.817211
	N267	N	0.537901	0.906726	0.819076
	N268	N	0.915994	0.173445	0.461251
	N269	N	0.091389	0.173428	0.531750
	N270	N	0.093512	0.808126	0.463374
	N271	N	0.916042	0.810787	0.531661
	N272	N	0.180542	0.458132	0.911704
	N273	N	0.182032	0.529876	0.083680
	N274	N	0.821449	0.457555	0.084811
	N275	N	0.821357	0.527738	0.910833
	O276	O	0.575412	0.468557	0.650898
	H277	H	0.571405	0.482136	0.636628
	H278	H	0.574343	0.470798	0.646168
	O279	O	0.973352	0.778177	0.971610
	H280	H	0.989992	0.781933	0.988789
	H281	H	0.955965	0.772019	0.993430
	O282	O	0.805472	1.203080	-0.027675
	H283	H	0.796928	1.197152	-0.027355
	H284	H	0.808715	1.198145	-0.026983
	O285	O	-0.085166	0.138043	0.847081
	H286	H	-0.084557	0.141189	0.825338
	H287	H	-0.086928	0.131512	0.841165
	O288	O	-0.000464	-0.023046	0.093245
	H289	H	-0.001466	-0.014969	0.084687
	H290	H	-0.001501	-0.033467	0.099988
	O291	O	1.043407	1.022773	-0.159954
	H292	H	1.039911	1.020220	-0.162623
	H293	H	1.020948	1.032687	-0.153030
	O294	O	-0.184130	0.952262	-0.132337
	H295	H	-0.177742	0.951130	-0.126287
	H296	H	-0.195543	0.952978	-0.127125
	O297	O	0.455192	0.547712	0.694663
	H298	H	0.458193	0.525409	0.697367
	H299	H	0.450722	0.545275	0.690795
	O300	O	0.306681	0.481359	0.329247
	H301	H	0.313530	0.511499	0.327766
	H302	H	0.298123	0.483817	0.313552
	O303	O	0.696794	0.299607	0.308096
	H304	H	0.678378	0.297725	0.328493
	H305	H	0.698012	0.316745	0.332258
	O306	O	-0.060360	1.127178	1.090084
	H307	H	-0.059014	1.124690	1.062500
	H308	H	-0.057482	1.134841	1.097344
	O309	O	0.721296	0.708506	0.525706
	H310	H	0.727753	0.708272	0.557188
	H311	H	0.741155	0.729759	0.546785
	O312	O	0.452246	0.698549	0.514886
	H313	H	0.431677	0.698015	0.517858
	H314	H	0.463748	0.682840	0.505823
	O315	O	0.473390	-0.331282	1.329749
	H316	H	0.487949	-0.329364	1.335062
	H317	H	0.484198	-0.341614	1.317884
	O318	O	-0.286257	0.766260	-0.232898
	H319	H	-0.285054	0.765381	-0.219193
	H320	H	-0.273111	0.783757	-0.209299
	O321	O	0.292504	0.491141	0.641997
	H322	H	0.297131	0.487773	0.625825
	H323	H	0.290116	0.498803	0.648757
	O324	O	0.703802	0.442441	0.496778
	H325	H	0.695956	0.461246	0.517067
	H326	H	0.707992	0.454091	0.501746
	O327	O	1.020654	-0.218483	0.787057
	H328	H	1.010716	-0.237499	0.783235
	H329	H	1.002231	-0.208334	0.798028
	O330	O	1.050525	-0.163966	-0.007315
	H331	H	1.069515	-0.160895	-0.003959
	H332	H	1.059645	-0.160792	0.014233
	O333	O	1.019989	0.998547	0.796261
	H334	H	1.015529	0.992613	0.804360
	H335	H	1.023455	0.985802	0.786974
	O336	O	1.188203	-0.201397	0.811590
	H337	H	1.151355	-0.195097	0.801667
	H338	H	1.177453	-0.190619	0.829042
	O339	O	0.314024	0.278853	0.508156
	H340	H	0.328773	0.271741	0.505280
	H341	H	0.300495	0.262945	0.524099
	O342	O	0.701599	0.686538	0.692945
	H343	H	0.703241	0.712727	0.719294
	H344	H	0.667130	0.673522	0.701651
	O345	O	0.100984	0.193554	-0.054859
	H346	H	0.113036	0.206107	-0.073229
	H347	H	0.107212	0.180747	-0.050999
	O348	O	0.801408	0.194912	0.799764
	H349	H	0.798937	0.202837	0.813945
	H350	H	0.809551	0.182228	0.801505
	O351	O	1.216548	0.781995	-0.024364
	H352	H	1.216331	0.783999	-0.047981
	H353	H	1.233312	0.768397	-0.019246
	O354	O	0.532748	0.340116	0.278944
	H355	H	0.526801	0.316498	0.251887
	H356	H	0.543875	0.357226	0.278839
	O357	O	1.076660	0.923636	1.221206
	H358	H	1.074308	0.925419	1.222856
	H359	H	1.071572	0.939306	1.214034
	O360	O	0.017888	1.059779	0.929778
	H361	H	0.030536	1.049735	0.936544
	H362	H	0.037008	1.051396	0.924280
	O363	O	0.614063	0.646878	0.434921
	H364	H	0.609200	0.634852	0.438590
	H365	H	0.619493	0.640352	0.436276
	O366	O	1.220914	-0.067678	1.058625
	H367	H	1.219403	-0.062591	1.059759
	H368	H	1.226509	-0.075382	1.071273
	O369	O	0.419354	0.300588	0.614376
	H370	H	0.427476	0.298565	0.610285
	H371	H	0.406144	0.301020	0.628978
	O372	O	0.361554	0.408799	0.288993
	H373	H	0.357067	0.421759	0.304123
	H374	H	0.335149	0.418815	0.271170
	O375	O	0.041299	1.050985	0.952524
	H376	H	0.039372	1.051031	0.953585
	H377	H	0.042508	1.041466	0.938228
	O378	O	0.787646	0.956485	0.210324
	H379	H	0.790765	0.977529	0.214754
	H380	H	0.775877	0.957468	0.228572
	O381	O	1.204718	0.188014	0.084705
	H382	H	1.208673	0.207663	0.088396
	H383	H	1.203873	0.178845	0.087286
	O384	O	-0.214507	-0.226311	1.026209
	H385	H	-0.241340	-0.255823	1.036886
	H386	H	-0.209001	-0.218298	1.045440
	O387	O	-0.154478	0.929319	0.956194
	H388	H	-0.129733	0.934739	0.961265
	H389	H	-0.157640	0.920665	0.974102
	O390	O	-0.162533	0.062115	0.832237
	H391	H	-0.154527	0.067925	0.848836
	H392	H	-0.187798	0.070038	0.810773
	O393	O	0.535833	1.471950	-0.563422
	H394	H	0.550794	1.482197	-0.574434
	H395	H	0.518783	1.472332	-0.542611
	O396	O	0.654109	0.293551	0.429782
	H397	H	0.665584	0.292982	0.429432
	H398	H	0.647463	0.306549	0.438811
	O399	O	0.547963	0.585235	0.496120
	H400	H	0.539367	0.595267	0.500450
	H401	H	0.573845	0.582115	0.509454
	O402	O	-0.094854	0.066340	1.198816
	H403	H	-0.090041	0.091055	1.194155
	H404	H	-0.091600	0.074750	1.197466
	O405	O	0.710757	0.517059	-0.291375
	H406	H	0.719417	0.516397	-0.276909
	H407	H	0.711608	0.544504	-0.286271
	O408	O	0.813095	0.790181	1.193980
	H409	H	0.796539	0.820349	1.208140
	H410	H	0.836339	0.780045	1.194609
	O411	O	0.324746	0.664801	0.317126
	H412	H	0.326040	0.673142	0.353619
	H413	H	0.359988	0.676632	0.317538
	O414	O	0.501230	0.329090	0.448477
	H415	H	0.489072	0.333465	0.428020
	H416	H	0.503594	0.341109	0.448270
	O417	O	0.385092	0.286930	0.696199
	H418	H	0.385357	0.289397	0.689959
	H419	H	0.393126	0.295342	0.686662
	O420	O	0.408076	0.384506	0.707092
	H421	H	0.401024	0.397585	0.699883
	H422	H	0.404475	0.387811	0.714726
	O423	O	0.065646	1.184701	0.081482
	H424	H	0.074932	1.188440	0.073546
	H425	H	0.057438	1.191933	0.058813
	O426	O	1.143005	1.088730	0.910632
	H427	H	1.137841	1.091215	0.895886
	H428	H	1.130502	1.082362	0.926124
	O429	O	0.293547	0.695306	0.480115
	H430	H	0.296350	0.684616	0.503027
	H431	H	0.266801	0.711128	0.483817
	O432	O	0.302857	0.360154	0.609005
	H433	H	0.300940	0.342909	0.622851
	H434	H	0.300060	0.359452	0.601674
	O435	O	0.219625	-0.031875	-0.214952
	H436	H	0.202812	-0.038999	-0.207120
	H437	H	0.246089	-0.042946	-0.239062
	O438	O	1.216679	0.018984	0.214938
	H439	H	1.201457	0.034620	0.213902
	H440	H	1.240430	0.012719	0.238324
	O441	O	0.716264	0.496688	0.314592
	H442	H	0.744005	0.489435	0.305636
	H443	H	0.708360	0.487476	0.329412
	O444	O	-0.013989	0.777658	1.211214
	H445	H	-0.009951	0.771241	1.234559
	H446	H	-0.024126	0.780448	1.214069
	O447	O	0.511283	0.653325	0.712561
	H448	H	0.494923	0.637131	0.688732
	H449	H	0.498775	0.667158	0.728597
	O450	O	0.123015	0.188169	0.196649
	H451	H	0.104249	0.190447	0.170888
	H452	H	0.114030	0.177953	0.206358
	O453	O	0.295894	0.469050	0.472699
	H454	H	0.296152	0.452961	0.455004
	H455	H	0.293307	0.453378	0.472387
	O456	O	0.614535	0.306115	0.604575
	H457	H	0.593318	0.315967	0.608186
	H458	H	0.617695	0.301782	0.587792
	O459	O	0.649827	0.516291	0.442338
	H460	H	0.647124	0.506468	0.442165
	H461	H	0.653757	0.517221	0.436123
	O462	O	0.544978	0.559791	0.314764
	H463	H	0.559286	0.552473	0.317795
	H464	H	0.547068	0.541684	0.310124
	O465	O	0.838460	0.068600	0.019601
	H466	H	0.827908	0.078154	0.022824
	H467	H	0.844784	0.078774	0.002970
