data_Molecule from HDF5

_cell_length_a		16.602812
_cell_length_b		16.512170
_cell_length_c		16.603761
_cell_angle_alpha	89.981322
_cell_angle_beta	89.927875
_cell_angle_gamma	89.954487
_symmetry_space_group_name_H-M	'P 1'
_symmetry_Int_Tables_number		1

loop_
	_symmetry_equiv_pos_as_xyz
	x,y,z

loop_
	_atom_site_label
	_atom_site_type_symbol
	_atom_site_fract_x
	_atom_site_fract_y
	_atom_site_fract_z
	H0	H	0.397042	0.840481	0.717661
	H1	H	0.607347	0.153161	0.713732
	H2	H	0.607571	0.839192	0.273201
	H3	H	0.397709	0.151937	0.271797
	H4	H	0.723985	0.391459	0.836639
	H5	H	0.720609	0.597184	0.150695
	H6	H	0.277855	0.604958	0.838989
	H7	H	0.279387	0.389476	0.148027
	H8	H	0.845894	0.715161	0.390987
	H9	H	0.159007	0.717494	0.598863
	H10	H	0.846463	0.275688	0.596924
	H11	H	0.159095	0.274362	0.388028
	H12	H	0.846919	0.390479	0.715539
	H13	H	0.158003	0.603342	0.717830
	H14	H	0.846044	0.599793	0.274185
	H15	H	0.157828	0.387732	0.269403
	H16	H	0.397274	0.719474	0.838295
	H17	H	0.603919	0.713573	0.150664
	H18	H	0.606606	0.275368	0.837003
	H19	H	0.398667	0.275276	0.149673
	H20	H	0.724532	0.839694	0.388413
	H21	H	0.725030	0.151864	0.599540
	H22	H	0.281075	0.839525	0.600920
	H23	H	0.281385	0.152568	0.388159
	H24	H	0.899532	0.337735	0.212556
	H25	H	0.106639	0.652398	0.213446
	H26	H	0.108554	0.338583	0.772273
	H27	H	0.898257	0.652760	0.771597
	H28	H	0.226177	0.889766	0.338337
	H29	H	0.226178	0.103173	0.649395
	H30	H	0.781486	0.100322	0.338258
	H31	H	0.780801	0.888943	0.649844
	H32	H	0.347873	0.220369	0.886818
	H33	H	0.659904	0.215707	0.096469
	H34	H	0.347828	0.772589	0.101293
	H35	H	0.659191	0.774702	0.887741
	H36	H	0.346426	0.890115	0.215831
	H37	H	0.659268	0.100655	0.214580
	H38	H	0.348855	0.106363	0.768790
	H39	H	0.658416	0.891169	0.771789
	H40	H	0.898854	0.217043	0.338045
	H41	H	0.108524	0.218661	0.649590
	H42	H	0.108901	0.773124	0.337506
	H43	H	0.899359	0.774592	0.650675
	H44	H	0.225898	0.339516	0.886351
	H45	H	0.224065	0.651725	0.098681
	H46	H	0.783507	0.337899	0.096200
	H47	H	0.783185	0.654004	0.888981
	H48	H	0.412316	0.110221	0.586954
	H49	H	0.595700	0.883378	0.581294
	H50	H	0.593874	0.109675	0.403169
	H51	H	0.417397	0.885371	0.407977
	H52	H	0.594760	0.401999	0.107406
	H53	H	0.589117	0.582769	0.882724
	H54	H	0.410947	0.595774	0.109784
	H55	H	0.415657	0.407781	0.882360
	H56	H	0.114245	0.586593	0.409826
	H57	H	0.891952	0.583500	0.582461
	H58	H	0.114464	0.407209	0.580222
	H59	H	0.889644	0.407869	0.399396
	H60	H	0.113364	0.409416	0.582906
	H61	H	0.891954	0.584134	0.581840
	H62	H	0.112869	0.577341	0.401772
	H63	H	0.890279	0.402892	0.406133
	H64	H	0.404150	0.574013	0.104011
	H65	H	0.593364	0.593157	0.878444
	H66	H	0.598279	0.408652	0.106311
	H67	H	0.414274	0.410008	0.882585
	H68	H	0.589914	0.108172	0.403912
	H69	H	0.589034	0.883067	0.586864
	H70	H	0.421191	0.105295	0.580929
	H71	H	0.410507	0.883028	0.406771
	H72	H	0.913731	0.608223	0.084831
	H73	H	0.085924	0.386874	0.075224
	H74	H	0.094102	0.607028	0.909529
	H75	H	0.909773	0.380965	0.901275
	H76	H	0.087212	0.905774	0.603999
	H77	H	0.092202	0.077241	0.386272
	H78	H	0.913610	0.082186	0.605044
	H79	H	0.914051	0.904340	0.381434
	H80	H	0.611894	0.079950	0.906742
	H81	H	0.389766	0.089731	0.085577
	H82	H	0.613157	0.911076	0.084128
	H83	H	0.391774	0.909023	0.905384
	H84	H	0.616801	0.903524	0.089025
	H85	H	0.392341	0.085609	0.078570
	H86	H	0.616236	0.084592	0.899667
	H87	H	0.391325	0.907654	0.907189
	H88	H	0.916074	0.085482	0.604843
	H89	H	0.086445	0.087752	0.383024
	H90	H	0.093960	0.904482	0.606169
	H91	H	0.911470	0.904613	0.382034
	H92	H	0.089991	0.608707	0.901655
	H93	H	0.099231	0.381372	0.080383
	H94	H	0.910675	0.608620	0.083010
	H95	H	0.918894	0.384278	0.901657
	H96	H	0.410621	0.106676	0.575496
	H97	H	0.587589	0.885681	0.579335
	H98	H	0.592452	0.107995	0.406398
	H99	H	0.415602	0.882302	0.401807
	H100	H	0.591585	0.407185	0.103765
	H101	H	0.599983	0.583313	0.879091
	H102	H	0.426042	0.580980	0.099774
	H103	H	0.417549	0.410036	0.882338
	H104	H	0.118138	0.587996	0.397881
	H105	H	0.892365	0.583116	0.581814
	H106	H	0.115461	0.406559	0.583509
	H107	H	0.893933	0.410552	0.406366
	H108	H	0.910507	0.610049	0.086458
	H109	H	0.087226	0.381917	0.089160
	H110	H	0.085602	0.604582	0.908194
	H111	H	0.912970	0.384814	0.909182
	H112	H	0.092206	0.910623	0.603764
	H113	H	0.097872	0.086438	0.380680
	H114	H	0.912499	0.085898	0.606497
	H115	H	0.913061	0.906554	0.382435
	H116	H	0.614794	0.089113	0.908153
	H117	H	0.390818	0.081442	0.085804
	H118	H	0.614223	0.902371	0.079995
	H119	H	0.392003	0.909378	0.907498
	C120	C	0.381752	0.004520	0.615061
	C121	C	0.623700	0.987576	0.614744
	C122	C	0.624002	0.004832	0.372490
	C123	C	0.382027	0.987283	0.373045
	C124	C	0.625662	0.374224	0.001947
	C125	C	0.624387	0.616928	0.984217
	C126	C	0.380832	0.617412	0.001932
	C127	C	0.382474	0.375742	0.985075
	C128	C	0.011250	0.616265	0.372287
	C129	C	0.994889	0.616694	0.615064
	C130	C	0.011354	0.374889	0.614600
	C131	C	0.994369	0.374139	0.371591
	C132	C	0.881390	0.504134	0.114817
	C133	C	0.123404	0.486813	0.114407
	C134	C	0.123745	0.503873	0.872409
	C135	C	0.881991	0.487622	0.872100
	C136	C	0.124382	0.874006	0.501975
	C137	C	0.125040	0.117579	0.485951
	C138	C	0.882007	0.116651	0.502019
	C139	C	0.881238	0.873387	0.485552
	C140	C	0.511607	0.118141	0.872090
	C141	C	0.494611	0.117593	0.115191
	C142	C	0.511394	0.873703	0.116294
	C143	C	0.494794	0.876050	0.873558
	C144	C	0.378757	0.887078	0.676825
	C145	C	0.625891	0.105818	0.674074
	C146	C	0.626176	0.886440	0.312759
	C147	C	0.379363	0.105140	0.312306
	C148	C	0.684174	0.373063	0.883647
	C149	C	0.681727	0.616784	0.103170
	C150	C	0.318979	0.622244	0.885551
	C151	C	0.320675	0.371859	0.101803
	C152	C	0.893145	0.675392	0.372005
	C153	C	0.112142	0.677569	0.617752
	C154	C	0.893587	0.315138	0.616267
	C155	C	0.111801	0.313653	0.369294
	C156	C	0.893851	0.372459	0.674974
	C157	C	0.111687	0.620698	0.676673
	C158	C	0.893258	0.618143	0.313668
	C159	C	0.111199	0.370375	0.310337
	C160	C	0.378315	0.678925	0.884945
	C161	C	0.623690	0.674555	0.103247
	C162	C	0.625884	0.315516	0.883787
	C163	C	0.380023	0.315429	0.102766
	C164	C	0.684293	0.886664	0.370003
	C165	C	0.684419	0.105028	0.617130
	C166	C	0.321153	0.886838	0.618888
	C167	C	0.321421	0.105280	0.370070
	C168	C	0.880576	0.385149	0.173067
	C169	C	0.125277	0.605028	0.174024
	C170	C	0.126987	0.386173	0.811676
	C171	C	0.879767	0.605845	0.811883
	C172	C	0.185597	0.871054	0.384917
	C173	C	0.185800	0.121118	0.602720
	C174	C	0.821890	0.119070	0.384789
	C175	C	0.821414	0.871292	0.603055
	C176	C	0.394533	0.180025	0.868781
	C177	C	0.612726	0.176312	0.115863
	C178	C	0.394377	0.813248	0.118916
	C179	C	0.611975	0.815069	0.870095
	C180	C	0.393761	0.871696	0.176170
	C181	C	0.612146	0.119072	0.174632
	C182	C	0.395105	0.123091	0.810295
	C183	C	0.611703	0.872919	0.812169
	C184	C	0.880275	0.176578	0.384627
	C185	C	0.127338	0.178532	0.602855
	C186	C	0.127232	0.813429	0.384369
	C187	C	0.880237	0.814122	0.603415
	C188	C	0.184914	0.386294	0.868903
	C189	C	0.183464	0.604868	0.116770
	C190	C	0.823123	0.385164	0.115163
	C191	C	0.822770	0.606372	0.870459
	C192	C	0.407376	0.086076	0.588831
	C193	C	0.598057	0.905530	0.589505
	C194	C	0.599172	0.086948	0.397411
	C195	C	0.407329	0.905030	0.398387
	C196	C	0.601681	0.398724	0.084396
	C197	C	0.600950	0.593317	0.901513
	C198	C	0.406487	0.590988	0.083333
	C199	C	0.408467	0.401677	0.903619
	C200	C	0.093626	0.591124	0.396232
	C201	C	0.913378	0.591025	0.589418
	C202	C	0.092930	0.400500	0.589494
	C203	C	0.912615	0.399704	0.396777
	C204	C	0.905001	0.587392	0.091336
	C205	C	0.098192	0.404708	0.088745
	C206	C	0.097392	0.585506	0.898771
	C207	C	0.906812	0.404879	0.896852
	C208	C	0.098631	0.899855	0.583323
	C209	C	0.099338	0.091253	0.404406
	C210	C	0.906937	0.091663	0.583887
	C211	C	0.905673	0.898121	0.403247
	C212	C	0.592791	0.092052	0.897555
	C213	C	0.412322	0.092909	0.090402
	C214	C	0.593480	0.898711	0.091504
	C215	C	0.412949	0.901605	0.899343
	Zn216	Zn	0.502796	-0.003161	0.743959
	Zn217	Zn	0.502982	-0.004282	0.244088
	Zn218	Zn	0.753933	0.496073	-0.006892
	Zn219	Zn	0.252372	0.495435	-0.007027
	Zn220	Zn	0.003276	0.744687	0.493709
	Zn221	Zn	0.003255	0.245863	0.493667
	Zn222	Zn	0.003374	0.495990	0.744104
	Zn223	Zn	0.002450	0.495223	0.243068
	Zn224	Zn	0.502562	0.746075	-0.006522
	Zn225	Zn	0.502721	0.246225	-0.006472
	Zn226	Zn	0.752505	-0.004643	0.493999
	Zn227	Zn	0.253239	-0.004457	0.494428
	N228	N	0.415425	0.961504	0.674985
	N229	N	0.588792	0.031625	0.672881
	N230	N	0.589708	0.960944	0.313775
	N231	N	0.416020	0.030639	0.313692
	N232	N	0.684218	0.408730	0.958261
	N233	N	0.682504	0.581869	0.028115
	N234	N	0.320459	0.584865	0.959396
	N235	N	0.322269	0.408602	0.027660
	N236	N	0.967767	0.674554	0.407630
	N237	N	0.038560	0.675029	0.580205
	N238	N	0.967759	0.316310	0.579800
	N239	N	0.038084	0.315817	0.406711
	N240	N	0.968163	0.408643	0.674406
	N241	N	0.037742	0.583490	0.675154
	N242	N	0.967928	0.582259	0.313633
	N243	N	0.037037	0.407249	0.311693
	N244	N	0.415963	0.676105	0.958522
	N245	N	0.589049	0.675112	0.028213
	N246	N	0.590284	0.315981	0.958466
	N247	N	0.417784	0.317714	0.029125
	N248	N	0.683348	0.961250	0.406367
	N249	N	0.683183	0.030440	0.581031
	N250	N	0.322936	0.960830	0.581201
	N251	N	0.322927	0.030962	0.407241
	N252	N	0.915651	0.460360	0.173253
	N253	N	0.088799	0.530448	0.172695
	N254	N	0.089623	0.460327	0.813946
	N255	N	0.915788	0.531006	0.812805
	N256	N	0.183834	0.908112	0.458961
	N257	N	0.184435	0.083933	0.528863
	N258	N	0.822827	0.082401	0.458868
	N259	N	0.821759	0.907171	0.528526
	N260	N	0.468009	0.177138	0.906524
	N261	N	0.538292	0.175726	0.079752
	N262	N	0.468560	0.814113	0.082477
	N263	N	0.538094	0.816838	0.907661
	N264	N	0.467698	0.908627	0.174665
	N265	N	0.537452	0.083435	0.174427
	N266	N	0.468662	0.085272	0.812329
	N267	N	0.537702	0.910152	0.814186
	N268	N	0.917056	0.175044	0.458573
	N269	N	0.090553	0.176506	0.528941
	N270	N	0.089871	0.815024	0.458244
	N271	N	0.916637	0.815207	0.529007
	N272	N	0.183237	0.460696	0.905900
	N273	N	0.182693	0.530274	0.080469
	N274	N	0.823454	0.460264	0.079508
	N275	N	0.823890	0.531570	0.906936
	O276	O	-0.025314	0.800228	-0.043971
	H277	H	-0.028475	0.805148	-0.041801
	H278	H	-0.037383	0.796083	-0.043940
	O279	O	0.300992	0.500258	0.450021
	H280	H	0.296214	0.496643	0.448532
	H281	H	0.305131	0.483984	0.445579
	O282	O	0.837101	0.185092	1.156354
	H283	H	0.851527	0.158287	1.141337
	H284	H	0.855761	0.178606	1.137234
	O285	O	0.412776	0.450437	0.452288
	H286	H	0.404203	0.436136	0.444418
	H287	H	0.421955	0.461971	0.449710
	O288	O	0.258393	0.749361	0.738664
	H289	H	0.255502	0.771422	0.748925
	H290	H	0.249963	0.746174	0.739453
	O291	O	0.284247	0.278700	0.521493
	H292	H	0.290073	0.273018	0.522903
	H293	H	0.272454	0.259092	0.519034
	O294	O	0.822073	0.212701	0.985863
	H295	H	0.834970	0.206992	0.956594
	H296	H	0.802960	0.241578	0.981504
	O297	O	0.468165	0.714738	0.278064
	H298	H	0.453910	0.720712	0.270121
	H299	H	0.478116	0.714424	0.260709
	O300	O	-0.033613	0.214445	0.772545
	H301	H	-0.057759	0.216178	0.785578
	H302	H	-0.038902	0.240531	0.747734
	O303	O	0.722391	0.589810	0.650595
	H304	H	0.742718	0.583663	0.667184
	H305	H	0.728971	0.615276	0.654009
	O306	O	0.608347	0.286513	0.287277
	H307	H	0.602347	0.282904	0.280181
	H308	H	0.613262	0.272006	0.285453
	O309	O	0.671850	0.668799	0.537896
	H310	H	0.693256	0.691560	0.535810
	H311	H	0.661706	0.656701	0.539151
	O312	O	0.537830	0.697967	0.696853
	H313	H	0.520402	0.701743	0.696339
	H314	H	0.524758	0.691905	0.692122
	O315	O	0.917526	1.035489	0.928840
	H316	H	0.916649	1.043597	0.922972
	H317	H	0.920151	1.031450	0.914234
	O318	O	0.550448	0.461481	0.466513
	H319	H	0.545242	0.453412	0.465220
	H320	H	0.544439	0.475254	0.479781
	O321	O	0.088208	0.796142	0.790023
	H322	H	0.088480	0.789200	0.815669
	H323	H	0.095755	0.812358	0.782526
	O324	O	0.972833	0.778058	0.208842
	H325	H	0.939523	0.768697	0.215207
	H326	H	0.963413	0.775710	0.225513
	O327	O	0.028549	0.203896	1.208415
	H328	H	0.043060	0.218402	1.216804
	H329	H	0.025034	0.207950	1.206535
	O330	O	0.715964	0.331176	0.500373
	H331	H	0.729516	0.329417	0.482309
	H332	H	0.713514	0.329170	0.479804
	O333	O	0.474474	0.287616	0.699198
	H334	H	0.470441	0.271917	0.711796
	H335	H	0.483103	0.302889	0.700110
	O336	O	0.693385	0.539670	0.316968
	H337	H	0.676031	0.534533	0.320674
	H338	H	0.682131	0.523283	0.322582
	O339	O	0.789751	0.033467	0.782004
	H340	H	0.799648	0.015956	0.769673
	H341	H	0.786527	0.020254	0.773293
	O342	O	0.180763	0.154957	0.056443
	H343	H	0.165476	0.149316	0.060170
	H344	H	0.189563	0.176524	0.051941
	O345	O	0.215292	0.791714	0.964238
	H346	H	0.223939	0.771771	0.961793
	H347	H	0.203961	0.780866	0.967214
	O348	O	0.216911	0.206977	0.206060
	H349	H	0.207859	0.189517	0.181287
	H350	H	0.208536	0.178658	0.202476
	O351	O	0.739815	0.732816	0.256800
	H352	H	0.732941	0.733915	0.264344
	H353	H	0.717397	0.709616	0.273974
	O354	O	0.169136	0.145936	0.835914
	H355	H	0.170821	0.160856	0.825611
	H356	H	0.155856	0.142240	0.834206
	O357	O	0.638307	0.643656	0.447437
	H358	H	0.627149	0.647891	0.437896
	H359	H	0.627136	0.641949	0.442615
	O360	O	0.304697	0.296023	0.692157
	H361	H	0.322742	0.292865	0.664625
	H362	H	0.311804	0.333039	0.695750
	O363	O	0.014862	-0.027157	0.221381
	H364	H	0.016563	-0.034194	0.222619
	H365	H	0.015609	-0.011505	0.221715
	O366	O	0.701652	0.427878	0.399212
	H367	H	0.696756	0.423850	0.393833
	H368	H	0.706859	0.411475	0.398011
	O369	O	0.745788	0.325681	0.259172
	H370	H	0.736599	0.327754	0.257461
	H371	H	0.770647	0.307827	0.230690
	O372	O	0.780643	0.772028	0.029546
	H373	H	0.772314	0.767247	0.055587
	H374	H	0.757362	0.759732	0.033782
	O375	O	0.809158	-0.044151	0.182821
	H376	H	0.810558	-0.032416	0.176854
	H377	H	0.796471	-0.035906	0.192166
	O378	O	0.449057	0.437815	0.267077
	H379	H	0.459040	0.419307	0.267604
	H380	H	0.434815	0.424392	0.267916
	O381	O	0.007869	0.886819	0.915532
	H382	H	0.020622	0.893732	0.920096
	H383	H	0.008707	0.873172	0.903718
	O384	O	1.158228	-0.020939	1.025359
	H385	H	1.158552	-0.038414	1.008297
	H386	H	1.145475	-0.022411	1.011821
	O387	O	0.908582	0.927264	0.132291
	H388	H	0.911700	0.926312	0.121317
	H389	H	0.894098	0.916588	0.134230
	O390	O	0.310798	0.374796	0.366625
	H391	H	0.305298	0.350761	0.363808
	H392	H	0.301943	0.378121	0.359355
	O393	O	0.360676	0.603969	0.635143
	H394	H	0.345816	0.618676	0.645967
	H395	H	0.357018	0.595183	0.615009
	O396	O	-0.017425	0.983265	0.758075
	H397	H	-0.014530	0.978413	0.756470
	H398	H	-0.003601	0.992317	0.761897
	O399	O	-0.199118	-0.203693	0.774705
	H400	H	-0.212756	-0.219659	0.748003
	H401	H	-0.191744	-0.194256	0.779561
	O402	O	0.505169	0.604443	0.468759
	H403	H	0.503429	0.610642	0.461482
	H404	H	0.507083	0.594283	0.471119
	O405	O	1.136007	-0.127967	1.173334
	H406	H	1.112922	-0.126378	1.169510
	H407	H	1.129043	-0.127762	1.154594
	O408	O	0.043593	0.215527	-0.010291
	H409	H	0.059798	0.218664	-0.015080
	H410	H	0.027172	0.217410	-0.019779
	O411	O	0.683955	0.664329	0.661453
	H412	H	0.657669	0.653260	0.661414
	H413	H	0.675731	0.661560	0.648405
	O414	O	0.688536	0.307981	0.681753
	H415	H	0.673580	0.323981	0.658456
	H416	H	0.677472	0.320224	0.674334
	O417	O	0.445251	0.552985	0.661372
	H418	H	0.444122	0.558637	0.656786
	H419	H	0.423574	0.555502	0.658743
	O420	O	0.286772	0.475456	0.705924
	H421	H	0.281032	0.478379	0.709692
	H422	H	0.274451	0.484092	0.708712
	O423	O	0.056232	0.108209	0.878971
	H424	H	0.067664	0.104027	0.878657
	H425	H	0.045549	0.111043	0.884447
	O426	O	0.311930	0.573358	0.492264
	H427	H	0.314884	0.571577	0.468014
	H428	H	0.290892	0.584941	0.479595
	O429	O	0.778199	0.935173	0.943112
	H430	H	0.777562	0.941584	0.939608
	H431	H	0.777394	0.917173	0.925708
	O432	O	0.454096	0.726056	0.542837
	H433	H	0.440028	0.732612	0.536488
	H434	H	0.440748	0.723721	0.537503
	O435	O	0.089699	0.792423	0.081431
	H436	H	0.066033	0.801466	0.078006
	H437	H	0.075866	0.791399	0.088214
	O438	O	0.216097	0.034691	0.207938
	H439	H	0.238240	0.024044	0.220401
	H440	H	0.206285	0.015556	0.199092
	O441	O	0.072631	0.129734	0.079580
	H442	H	0.066926	0.118868	0.067373
	H443	H	0.073305	0.120946	0.082026
	O444	O	0.476337	0.274506	0.369584
	H445	H	0.479996	0.266293	0.367857
	H446	H	0.474375	0.274821	0.372860
	O447	O	0.224351	0.967810	0.773584
	H448	H	0.239285	0.966328	0.763210
	H449	H	0.233486	0.980807	0.779046
	O450	O	0.232471	1.037457	0.947314
	H451	H	0.232280	1.052069	0.948909
	H452	H	0.222721	1.045350	0.942873
	O453	O	0.533533	0.457026	0.715920
	H454	H	0.531846	0.476065	0.709104
	H455	H	0.543875	0.464228	0.713224
	O456	O	-0.084245	0.048124	0.981638
	H457	H	-0.088484	0.056610	0.968928
	H458	H	-0.085215	0.040392	0.975970
	O459	O	0.799855	0.889363	0.132656
	H460	H	0.793599	0.923236	0.131215
	H461	H	0.781934	0.878077	0.161176
	O462	O	0.520887	0.548851	0.285730
	H463	H	0.533184	0.521879	0.277468
	H464	H	0.493053	0.541642	0.279035
	O465	O	0.972022	-0.037328	-0.023906
	H466	H	0.964763	-0.027721	-0.020280
	H467	H	0.968231	-0.048059	-0.018061
	O468	O	0.290824	0.616876	0.281669
	H469	H	0.267656	0.639508	0.259311
	H470	H	0.282446	0.600079	0.290933
	O471	O	0.402349	0.431015	0.549115
	H472	H	0.414993	0.445622	0.547195
	H473	H	0.398991	0.430243	0.551709
	O474	O	0.299012	0.700427	0.386345
	H475	H	0.309702	0.720265	0.374360
	H476	H	0.289003	0.679631	0.367225
	O477	O	0.496488	0.391875	1.434520
	H478	H	0.500412	0.394543	1.426198
	H479	H	0.501844	0.387096	1.440899
	O480	O	0.560325	0.397710	0.463210
	H481	H	0.568915	0.392708	0.470583
	H482	H	0.550182	0.414773	0.470527
	O483	O	0.730505	0.473546	0.607991
	H484	H	0.734824	0.463673	0.610918
	H485	H	0.734644	0.474579	0.609217
	O486	O	0.794496	0.203536	0.787013
	H487	H	0.779283	0.181546	0.778606
	H488	H	0.789083	0.204764	0.766042
	O489	O	1.037302	0.961701	-0.025267
	H490	H	1.027853	0.970431	-0.031928
	H491	H	1.029978	0.959424	-0.031690
