data_Molecule from HDF5

_cell_length_a		16.346319
_cell_length_b		16.497810
_cell_length_c		16.306945
_cell_angle_alpha	89.799716
_cell_angle_beta	90.047919
_cell_angle_gamma	90.084840
_symmetry_space_group_name_H-M	'P 1'
_symmetry_Int_Tables_number		1

loop_
	_symmetry_equiv_pos_as_xyz
	x,y,z

loop_
	_atom_site_label
	_atom_site_type_symbol
	_atom_site_fract_x
	_atom_site_fract_y
	_atom_site_fract_z
	H0	H	0.386227	0.844702	0.722127
	H1	H	0.602942	0.157919	0.716020
	H2	H	0.605055	0.842009	0.272673
	H3	H	0.394579	0.157732	0.272760
	H4	H	0.720641	0.394755	0.838229
	H5	H	0.720762	0.607524	0.155935
	H6	H	0.273899	0.608201	0.836333
	H7	H	0.276596	0.394609	0.155373
	H8	H	0.838512	0.723050	0.388882
	H9	H	0.154159	0.726578	0.606958
	H10	H	0.840180	0.278680	0.601650
	H11	H	0.153940	0.277693	0.385030
	H12	H	0.839115	0.395380	0.715880
	H13	H	0.156436	0.606917	0.718583
	H14	H	0.838336	0.606976	0.274019
	H15	H	0.158705	0.400657	0.278692
	H16	H	0.386652	0.726823	0.837899
	H17	H	0.608168	0.725272	0.153184
	H18	H	0.606718	0.277024	0.839060
	H19	H	0.390494	0.276781	0.154856
	H20	H	0.722751	0.843337	0.386177
	H21	H	0.720228	0.157367	0.599782
	H22	H	0.273536	0.843682	0.602828
	H23	H	0.275772	0.157703	0.387004
	H24	H	0.895453	0.342037	0.217471
	H25	H	0.102421	0.661024	0.214035
	H26	H	0.102480	0.341765	0.774606
	H27	H	0.888877	0.656670	0.770461
	H28	H	0.215500	0.898624	0.335682
	H29	H	0.220111	0.108092	0.654861
	H30	H	0.778531	0.104149	0.333368
	H31	H	0.776245	0.896389	0.655445
	H32	H	0.338467	0.222899	0.888835
	H33	H	0.657081	0.220223	0.102465
	H34	H	0.339931	0.776865	0.102452
	H35	H	0.655535	0.777939	0.885738
	H36	H	0.338245	0.896157	0.213396
	H37	H	0.658405	0.100952	0.214059
	H38	H	0.337978	0.106705	0.774410
	H39	H	0.656046	0.897265	0.774640
	H40	H	0.892301	0.222465	0.335013
	H41	H	0.104848	0.224587	0.653801
	H42	H	0.103237	0.780008	0.337599
	H43	H	0.887258	0.777554	0.654014
	H44	H	0.219783	0.342195	0.889490
	H45	H	0.219561	0.659812	0.098946
	H46	H	0.778482	0.341914	0.102064
	H47	H	0.775087	0.657955	0.889276
	H48	H	0.408148	0.112413	0.580119
	H49	H	0.585218	0.888788	0.581230
	H50	H	0.582080	0.108309	0.409294
	H51	H	0.407337	0.886692	0.405787
	H52	H	0.579478	0.409050	0.109705
	H53	H	0.584404	0.584702	0.886236
	H54	H	0.405673	0.589229	0.110297
	H55	H	0.407149	0.409410	0.881119
	H56	H	0.112921	0.596284	0.405626
	H57	H	0.883173	0.589165	0.586825
	H58	H	0.113321	0.411329	0.586261
	H59	H	0.883910	0.418250	0.403749
	H60	H	0.111834	0.409904	0.579678
	H61	H	0.884323	0.592302	0.579579
	H62	H	0.110071	0.592835	0.411842
	H63	H	0.880718	0.407019	0.405235
	H64	H	0.412564	0.581924	0.105194
	H65	H	0.582207	0.591753	0.882248
	H66	H	0.590216	0.404168	0.114321
	H67	H	0.410705	0.415208	0.883650
	H68	H	0.594043	0.113634	0.409506
	H69	H	0.587054	0.886453	0.585189
	H70	H	0.407285	0.114139	0.585249
	H71	H	0.407206	0.887280	0.406709
	H72	H	0.916389	0.611588	0.082738
	H73	H	0.088857	0.387495	0.088004
	H74	H	0.082683	0.611112	0.907178
	H75	H	0.915366	0.390236	0.908401
	H76	H	0.082396	0.912948	0.609442
	H77	H	0.084530	0.097605	0.380188
	H78	H	0.904176	0.089340	0.610308
	H79	H	0.901313	0.913439	0.378961
	H80	H	0.609313	0.088655	0.912449
	H81	H	0.384360	0.082223	0.087882
	H82	H	0.611324	0.910950	0.078909
	H83	H	0.383701	0.912400	0.908544
	H84	H	0.611342	0.914788	0.085716
	H85	H	0.379756	0.096394	0.087022
	H86	H	0.611225	0.086155	0.903987
	H87	H	0.384342	0.911502	0.911185
	H88	H	0.911738	0.086071	0.606600
	H89	H	0.091520	0.087427	0.380100
	H90	H	0.084962	0.912745	0.610511
	H91	H	0.913643	0.919309	0.384811
	H92	H	0.087849	0.611865	0.911124
	H93	H	0.086842	0.388518	0.088015
	H94	H	0.902752	0.613800	0.078987
	H95	H	0.905800	0.388398	0.913449
	H96	H	0.411465	0.111920	0.583659
	H97	H	0.582319	0.888533	0.585151
	H98	H	0.586332	0.114629	0.398852
	H99	H	0.406247	0.886278	0.406135
	H100	H	0.589868	0.415867	0.109944
	H101	H	0.590054	0.588791	0.881522
	H102	H	0.416152	0.592131	0.107159
	H103	H	0.414273	0.408734	0.882577
	H104	H	0.110745	0.589131	0.404821
	H105	H	0.886554	0.584708	0.581190
	H106	H	0.110803	0.416072	0.582292
	H107	H	0.885934	0.412610	0.414312
	H108	H	0.907157	0.616855	0.092847
	H109	H	0.087733	0.387700	0.086711
	H110	H	0.087985	0.613537	0.905201
	H111	H	0.907739	0.385616	0.902768
	H112	H	0.083976	0.915482	0.609120
	H113	H	0.080031	0.087078	0.384820
	H114	H	0.911170	0.094669	0.609043
	H115	H	0.913484	0.904633	0.381243
	H116	H	0.613368	0.094510	0.906112
	H117	H	0.387002	0.089694	0.074945
	H118	H	0.614428	0.907371	0.085553
	H119	H	0.384872	0.913909	0.909705
	C120	C	0.375507	0.009133	0.617008
	C121	C	0.618032	0.992006	0.616216
	C122	C	0.619969	0.008071	0.372973
	C123	C	0.375505	0.991136	0.373020
	C124	C	0.619512	0.378146	0.005886
	C125	C	0.618818	0.621441	0.988242
	C126	C	0.377163	0.621718	0.003126
	C127	C	0.377059	0.378617	0.987307
	C128	C	0.006198	0.624483	0.374330
	C129	C	0.988834	0.622527	0.617254
	C130	C	0.006898	0.379728	0.615897
	C131	C	0.988916	0.381333	0.375117
	C132	C	0.876423	0.509507	0.118665
	C133	C	0.120326	0.492680	0.118311
	C134	C	0.119402	0.508134	0.874276
	C135	C	0.876223	0.491702	0.874496
	C136	C	0.117060	0.880846	0.504864
	C137	C	0.118768	0.123198	0.486921
	C138	C	0.876522	0.122320	0.503026
	C139	C	0.875500	0.879451	0.486643
	C140	C	0.506026	0.122593	0.874418
	C141	C	0.489107	0.120984	0.116245
	C142	C	0.507299	0.877965	0.116456
	C143	C	0.488722	0.880196	0.875017
	C144	C	0.370003	0.891678	0.680375
	C145	C	0.620853	0.110604	0.675977
	C146	C	0.622572	0.889493	0.312600
	C147	C	0.374791	0.110173	0.312622
	C148	C	0.680378	0.376377	0.886100
	C149	C	0.680362	0.625103	0.107566
	C150	C	0.314346	0.626007	0.884191
	C151	C	0.316354	0.376249	0.107429
	C152	C	0.886287	0.683822	0.371059
	C153	C	0.107280	0.684962	0.622969
	C154	C	0.887565	0.318778	0.619478
	C155	C	0.107496	0.319537	0.369824
	C156	C	0.886976	0.377069	0.676067
	C157	C	0.108208	0.625420	0.678795
	C158	C	0.886433	0.625921	0.313595
	C159	C	0.109852	0.380808	0.316752
	C160	C	0.370927	0.685055	0.884807
	C161	C	0.623958	0.683805	0.106541
	C162	C	0.623492	0.317891	0.886550
	C163	C	0.373142	0.317604	0.107246
	C164	C	0.681198	0.889970	0.369494
	C165	C	0.679274	0.110130	0.618219
	C166	C	0.313625	0.891077	0.620978
	C167	C	0.315871	0.110290	0.369635
	C168	C	0.875937	0.389994	0.178546
	C169	C	0.121409	0.612879	0.175506
	C170	C	0.121552	0.389506	0.813879
	C171	C	0.872238	0.609870	0.812047
	C172	C	0.176921	0.879078	0.384390
	C173	C	0.179542	0.125668	0.606985
	C174	C	0.817449	0.123497	0.382112
	C175	C	0.815156	0.877518	0.607065
	C176	C	0.386448	0.183137	0.870921
	C177	C	0.609206	0.180652	0.120106
	C178	C	0.387777	0.817023	0.119918
	C179	C	0.607921	0.818840	0.869264
	C180	C	0.386703	0.876394	0.175425
	C181	C	0.609887	0.121079	0.175511
	C182	C	0.386055	0.125373	0.813890
	C183	C	0.608110	0.877914	0.813482
	C184	C	0.874130	0.182497	0.382692
	C185	C	0.122279	0.183896	0.606368
	C186	C	0.120980	0.820056	0.385427
	C187	C	0.870580	0.818437	0.606460
	C188	C	0.179872	0.389553	0.871397
	C189	C	0.179793	0.612088	0.118018
	C190	C	0.817780	0.389790	0.120906
	C191	C	0.815065	0.610304	0.871026
	C192	C	0.401650	0.091455	0.590563
	C193	C	0.592067	0.909313	0.591132
	C194	C	0.594688	0.090553	0.398343
	C195	C	0.399983	0.908298	0.398832
	C196	C	0.593770	0.402753	0.089484
	C197	C	0.592756	0.595776	0.905105
	C198	C	0.404094	0.595290	0.085993
	C199	C	0.403115	0.403863	0.904187
	C200	C	0.089670	0.599983	0.400147
	C201	C	0.906237	0.596304	0.590387
	C202	C	0.090280	0.405307	0.590213
	C203	C	0.905284	0.405745	0.400344
	C204	C	0.901330	0.592380	0.092515
	C205	C	0.095235	0.409487	0.094606
	C206	C	0.093726	0.590705	0.900230
	C207	C	0.902076	0.409560	0.900728
	C208	C	0.091427	0.906140	0.587991
	C209	C	0.092906	0.097868	0.403520
	C210	C	0.901710	0.097298	0.586866
	C211	C	0.902000	0.904868	0.403572
	C212	C	0.589365	0.097152	0.900172
	C213	C	0.405510	0.096547	0.090825
	C214	C	0.590661	0.903373	0.090816
	C215	C	0.405873	0.905379	0.901911
	Zn216	Zn	0.496378	0.001065	0.746564
	Zn217	Zn	0.497946	-0.000452	0.244280
	Zn218	Zn	0.747695	0.500298	-0.002860
	Zn219	Zn	0.248662	0.500211	-0.004764
	Zn220	Zn	-0.003428	0.752188	0.496667
	Zn221	Zn	-0.002681	0.252097	0.494549
	Zn222	Zn	-0.002068	0.499901	0.745144
	Zn223	Zn	-0.001548	0.501952	0.247160
	Zn224	Zn	0.498312	0.750742	-0.005551
	Zn225	Zn	0.497431	0.249472	-0.003590
	Zn226	Zn	0.748345	0.000471	0.494338
	Zn227	Zn	0.246449	0.001393	0.495521
	N228	N	0.407862	0.966021	0.677799
	N229	N	0.583408	0.035922	0.674764
	N230	N	0.584949	0.963927	0.314768
	N231	N	0.410864	0.035138	0.314456
	N232	N	0.678041	0.413208	0.961507
	N233	N	0.677422	0.586800	0.032965
	N234	N	0.318354	0.587016	0.958595
	N235	N	0.318484	0.413512	0.031937
	N236	N	0.961736	0.682976	0.408062
	N237	N	0.032045	0.683211	0.585450
	N238	N	0.963228	0.320370	0.582770
	N239	N	0.031385	0.319714	0.405443
	N240	N	0.962133	0.414236	0.673931
	N241	N	0.033381	0.587467	0.675635
	N242	N	0.962064	0.589874	0.315337
	N243	N	0.035166	0.418631	0.320044
	N244	N	0.409543	0.682258	0.959661
	N245	N	0.586102	0.681509	0.031321
	N246	N	0.586255	0.318868	0.961966
	N247	N	0.410242	0.318959	0.031719
	N248	N	0.679516	0.964543	0.406428
	N249	N	0.677923	0.035155	0.581889
	N250	N	0.316913	0.965089	0.582154
	N251	N	0.315876	0.035036	0.406279
	N252	N	0.911480	0.465731	0.177319
	N253	N	0.085178	0.537649	0.175956
	N254	N	0.084815	0.464470	0.815399
	N255	N	0.909650	0.535294	0.814116
	N256	N	0.174668	0.916269	0.459600
	N257	N	0.177536	0.088739	0.531599
	N258	N	0.818822	0.086779	0.457892
	N259	N	0.817738	0.914383	0.531402
	N260	N	0.462338	0.182006	0.907502
	N261	N	0.533181	0.180570	0.084004
	N262	N	0.464026	0.817560	0.084435
	N263	N	0.532591	0.819946	0.906752
	N264	N	0.461985	0.913545	0.173476
	N265	N	0.534142	0.084902	0.173389
	N266	N	0.461574	0.088769	0.815532
	N267	N	0.533114	0.915297	0.816959
	N268	N	0.910176	0.181967	0.458897
	N269	N	0.085448	0.182719	0.530583
	N270	N	0.084801	0.820740	0.461458
	N271	N	0.907125	0.819225	0.530523
	N272	N	0.178633	0.464396	0.908097
	N273	N	0.179552	0.536144	0.083326
	N274	N	0.817900	0.465098	0.084831
	N275	N	0.817382	0.535891	0.909060
	O276	O	0.631004	0.316039	0.314720
	H277	H	0.599519	0.314066	0.314159
	H278	H	0.624082	0.322784	0.304384
	O279	O	0.288768	0.478903	0.705734
	H280	H	0.307630	0.501827	0.712212
	H281	H	0.261406	0.485860	0.721110
	O282	O	0.677978	0.676976	0.679501
	H283	H	0.642160	0.690903	0.674450
	H284	H	0.673697	0.687744	0.640869
	O285	O	1.169410	0.987951	0.196409
	H286	H	1.177246	0.991477	0.204483
	H287	H	1.161601	0.978737	0.209260
	O288	O	0.024739	0.168933	0.127575
	H289	H	0.037506	0.180396	0.124191
	H290	H	0.021855	0.149163	0.123270
	O291	O	0.793498	0.025449	0.814376
	H292	H	0.814968	0.015838	0.811895
	H293	H	0.782857	0.022202	0.801174
	O294	O	0.909764	0.981441	1.122488
	H295	H	0.917670	0.984546	1.103159
	H296	H	0.918946	0.992927	1.143816
	O297	O	0.708635	0.712580	0.517968
	H298	H	0.724554	0.736170	0.510612
	H299	H	0.698039	0.708514	0.496134
	O300	O	0.301069	0.524468	0.514968
	H301	H	0.306418	0.512272	0.515386
	H302	H	0.291906	0.537067	0.504644
	O303	O	0.302058	0.519307	0.304322
	H304	H	0.318194	0.531751	0.297014
	H305	H	0.286362	0.516527	0.296580
	O306	O	-0.147289	-0.205120	1.055508
	H307	H	-0.160941	-0.205911	1.058542
	H308	H	-0.142808	-0.221922	1.054172
	O309	O	0.803629	-0.018500	0.004650
	H310	H	0.806311	-0.023177	-0.003948
	H311	H	0.807507	-0.025094	-0.005750
	O312	O	0.320551	0.324151	0.659942
	H313	H	0.310379	0.374765	0.674534
	H314	H	0.371733	0.311121	0.676102
	O315	O	0.513597	0.603295	0.452361
	H316	H	0.518771	0.617182	0.433321
	H317	H	0.505712	0.599039	0.445736
	O318	O	0.125579	0.176088	0.006284
	H319	H	0.114604	0.177115	0.017603
	H320	H	0.119421	0.178173	0.009966
	O321	O	0.477462	0.381978	0.706335
	H322	H	0.500693	0.398545	0.703901
	H323	H	0.470822	0.359213	0.719668
	O324	O	1.070552	-0.134178	1.015426
	H325	H	1.076500	-0.117568	1.002179
	H326	H	1.058956	-0.130010	1.033990
	O327	O	0.456941	0.650870	0.382147
	H328	H	0.464694	0.638203	0.381590
	H329	H	0.464182	0.657305	0.359747
	O330	O	-0.143955	0.963431	1.177877
	H331	H	-0.148801	0.974504	1.160683
	H332	H	-0.144836	0.976912	1.171197
	O333	O	0.195510	0.914954	-0.195740
	H334	H	0.208416	0.912731	-0.193111
	H335	H	0.198405	0.909073	-0.196567
	O336	O	1.206308	1.026165	-0.003332
	H337	H	1.201276	1.039969	-0.000204
	H338	H	1.211176	1.045309	0.002495
	O339	O	0.106235	1.039885	0.874409
	H340	H	0.114657	1.039923	0.870009
	H341	H	0.114355	1.043183	0.886845
	O342	O	0.291606	0.706984	0.428323
	H343	H	0.288775	0.717238	0.419428
	H344	H	0.287303	0.714799	0.417051
	O345	O	-0.022975	0.135897	0.793798
	H346	H	-0.034681	0.138925	0.795511
	H347	H	-0.018294	0.132749	0.778653
	O348	O	0.483992	0.351406	0.305218
	H349	H	0.475494	0.345154	0.313308
	H350	H	0.461897	0.359149	0.305941
	O351	O	0.482581	0.715064	0.475256
	H352	H	0.462350	0.711605	0.451371
	H353	H	0.480742	0.711033	0.488880
	O354	O	1.076402	1.173929	1.107978
	H355	H	1.099439	1.184534	1.098428
	H356	H	1.067540	1.181163	1.113723
	O357	O	-0.002635	-0.149117	-0.129144
	H358	H	-0.001797	-0.168508	-0.143838
	H359	H	-0.008367	-0.152016	-0.117445
	O360	O	0.605308	0.558362	0.371177
	H361	H	0.615639	0.539104	0.400729
	H362	H	0.617442	0.537882	0.347269
	O363	O	1.075901	0.153049	0.039739
	H364	H	1.089697	0.160232	0.046516
	H365	H	1.054851	0.167470	0.027730
	O366	O	-0.061138	-0.154423	0.898037
	H367	H	-0.051961	-0.161037	0.910760
	H368	H	-0.068216	-0.144792	0.904629
	O369	O	1.497321	0.501049	0.279099
	H370	H	1.505659	0.489955	0.290900
	H371	H	1.527130	0.491103	0.269559
	O372	O	0.540536	0.295203	0.589328
	H373	H	0.541063	0.292194	0.603461
	H374	H	0.526136	0.303490	0.587696
	O375	O	-0.166673	0.169933	1.012689
	H376	H	-0.159394	0.175028	0.997727
	H377	H	-0.171822	0.192931	0.999634
	O378	O	0.710335	0.482237	0.285262
	H379	H	0.720156	0.457699	0.288988
	H380	H	0.734989	0.482361	0.279012
	O381	O	-0.136113	0.821073	0.181977
	H382	H	-0.133686	0.811129	0.179645
	H383	H	-0.158273	0.848265	0.171889
	O384	O	0.697972	0.514894	0.708371
	H385	H	0.707220	0.544379	0.716231
	H386	H	0.707271	0.536933	0.716852
	O387	O	0.312773	0.373944	0.383186
	H388	H	0.310103	0.373582	0.387624
	H389	H	0.311008	0.378126	0.390304
	O390	O	1.057083	1.030061	-0.176176
	H391	H	1.074466	1.019415	-0.178801
	H392	H	1.054089	1.055328	-0.175943
	O393	O	1.017584	0.033216	1.069257
	H394	H	0.998127	0.038019	1.074427
	H395	H	1.032321	0.056543	1.060944
	O396	O	0.523947	0.360533	0.538957
	H397	H	0.510130	0.362469	0.529900
	H398	H	0.515120	0.380149	0.527707
	O399	O	0.650868	0.314486	0.654477
	H400	H	0.638752	0.331544	0.645123
	H401	H	0.646887	0.330629	0.633712
	O402	O	0.986247	0.982589	0.046260
	H403	H	0.976252	0.987251	0.049141
	H404	H	0.994984	0.968201	0.039837
	O405	O	0.423385	0.492699	0.350779
	H406	H	0.422997	0.505569	0.345759
	H407	H	0.423820	0.468569	0.357439
	O408	O	0.283772	0.286294	0.505334
	H409	H	0.260256	0.263991	0.528252
	H410	H	0.284696	0.297760	0.540950
	O411	O	1.212219	0.769383	1.232945
	H412	H	1.194132	0.745656	1.232112
	H413	H	1.220987	0.764913	1.224734
	O414	O	0.457219	0.535363	0.653117
	H415	H	0.460487	0.549580	0.651095
	H416	H	0.471818	0.543551	0.645654
	O417	O	0.118658	0.790157	0.887510
	H418	H	0.138426	0.760105	0.874004
	H419	H	0.145463	0.821380	0.907016
	O420	O	0.075234	0.960411	0.863687
	H421	H	0.077207	0.956496	0.899553
	H422	H	0.039705	0.950781	0.860060
	O423	O	-0.036015	0.920918	0.113038
	H424	H	-0.041543	0.901109	0.129813
	H425	H	-0.051886	0.927035	0.097472
	O426	O	0.500222	0.717586	0.661045
	H427	H	0.467948	0.728883	0.628945
	H428	H	0.500609	0.744725	0.693893
	O429	O	0.613912	0.457556	0.623810
	H430	H	0.620945	0.453696	0.625996
	H431	H	0.612331	0.470210	0.641169
	O432	O	0.695774	0.507774	0.485688
	H433	H	0.697870	0.491427	0.510005
	H434	H	0.699436	0.518747	0.502990
	O435	O	-0.151008	0.208161	-0.154725
	H436	H	-0.141933	0.175027	-0.160957
	H437	H	-0.166830	0.226851	-0.178940
	O438	O	-0.565562	1.686221	1.595731
	H439	H	-0.559503	1.668429	1.579892
	H440	H	-0.577443	1.694012	1.592264
	O441	O	0.698459	0.312463	0.439199
	H442	H	0.679453	0.314904	0.438671
	H443	H	0.701838	0.290655	0.420517
