data_Molecule from HDF5

_cell_length_a		16.225112
_cell_length_b		16.194045
_cell_length_c		16.343155
_cell_angle_alpha	90.189683
_cell_angle_beta	90.095567
_cell_angle_gamma	89.815513
_symmetry_space_group_name_H-M	'P 1'
_symmetry_Int_Tables_number		1

loop_
	_symmetry_equiv_pos_as_xyz
	x,y,z

loop_
	_atom_site_label
	_atom_site_type_symbol
	_atom_site_fract_x
	_atom_site_fract_y
	_atom_site_fract_z
	H0	H	0.411011	0.834765	0.723275
	H1	H	0.610067	0.161955	0.726820
	H2	H	0.609983	0.835563	0.294725
	H3	H	0.409418	0.163214	0.295169
	H4	H	0.721682	0.399867	0.845831
	H5	H	0.722640	0.596035	0.173096
	H6	H	0.293000	0.595876	0.846142
	H7	H	0.293271	0.401132	0.172893
	H8	H	0.844516	0.713459	0.412946
	H9	H	0.173918	0.712284	0.608436
	H10	H	0.844413	0.288640	0.604938
	H11	H	0.173778	0.286374	0.412222
	H12	H	0.844419	0.401616	0.721653
	H13	H	0.172100	0.599097	0.726986
	H14	H	0.844338	0.598647	0.295686
	H15	H	0.172327	0.399948	0.294992
	H16	H	0.408720	0.712508	0.845503
	H17	H	0.606609	0.712939	0.173061
	H18	H	0.605028	0.284790	0.845550
	H19	H	0.410228	0.284301	0.173346
	H20	H	0.723736	0.835385	0.411876
	H21	H	0.720752	0.164723	0.607914
	H22	H	0.295993	0.834938	0.607311
	H23	H	0.296370	0.164470	0.412831
	H24	H	0.908624	0.335096	0.224887
	H25	H	0.109152	0.662631	0.226580
	H26	H	0.107770	0.334437	0.794437
	H27	H	0.906887	0.662581	0.794686
	H28	H	0.225043	0.898867	0.346559
	H29	H	0.222926	0.097299	0.673115
	H30	H	0.793560	0.098748	0.347445
	H31	H	0.795029	0.902666	0.673458
	H32	H	0.344830	0.211605	0.911292
	H33	H	0.672785	0.212110	0.107597
	H34	H	0.343721	0.787821	0.105993
	H35	H	0.672695	0.782879	0.911133
	H36	H	0.346059	0.898466	0.225775
	H37	H	0.672200	0.098168	0.225161
	H38	H	0.346407	0.098887	0.793675
	H39	H	0.673036	0.897491	0.794682
	H40	H	0.911154	0.212881	0.346349
	H41	H	0.107159	0.213442	0.673305
	H42	H	0.106773	0.784614	0.345972
	H43	H	0.911898	0.786956	0.673020
	H44	H	0.220983	0.333158	0.912353
	H45	H	0.222456	0.663080	0.110006
	H46	H	0.796497	0.333116	0.106079
	H47	H	0.794134	0.662949	0.913389
	H48	H	0.411060	0.117812	0.604222
	H49	H	0.614336	0.880616	0.593910
	H50	H	0.598439	0.119078	0.407627
	H51	H	0.411678	0.880829	0.419841
	H52	H	0.601467	0.398950	0.127108
	H53	H	0.602603	0.585961	0.894204
	H54	H	0.411427	0.604045	0.129631
	H55	H	0.416105	0.394446	0.891745
	H56	H	0.126433	0.590098	0.412612
	H57	H	0.892388	0.598705	0.595448
	H58	H	0.128179	0.400746	0.601839
	H59	H	0.893307	0.407086	0.420019
	H60	H	0.124576	0.410637	0.599704
	H61	H	0.894152	0.584672	0.603358
	H62	H	0.126304	0.595223	0.418325
	H63	H	0.891098	0.409816	0.413296
	H64	H	0.406062	0.582439	0.125300
	H65	H	0.596357	0.591737	0.894380
	H66	H	0.607482	0.407556	0.126345
	H67	H	0.404129	0.408218	0.891840
	H68	H	0.595319	0.113972	0.422133
	H69	H	0.603435	0.877462	0.616769
	H70	H	0.420841	0.117068	0.607955
	H71	H	0.418728	0.880496	0.409626
	H72	H	0.915725	0.616986	0.107755
	H73	H	0.094677	0.382240	0.106461
	H74	H	0.094301	0.614818	0.914946
	H75	H	0.912595	0.380234	0.918140
	H76	H	0.105024	0.909840	0.625381
	H77	H	0.105577	0.090532	0.392854
	H78	H	0.918900	0.093542	0.625125
	H79	H	0.911488	0.899357	0.389968
	H80	H	0.627709	0.096203	0.919556
	H81	H	0.394974	0.085787	0.095885
	H82	H	0.629178	0.895882	0.103183
	H83	H	0.390704	0.904868	0.912333
	H84	H	0.622246	0.909174	0.094335
	H85	H	0.390963	0.086623	0.111761
	H86	H	0.624525	0.085594	0.920377
	H87	H	0.392733	0.905508	0.919153
	H88	H	0.914368	0.098703	0.627910
	H89	H	0.098803	0.092228	0.393443
	H90	H	0.099590	0.906973	0.624354
	H91	H	0.911339	0.915328	0.395020
	H92	H	0.099899	0.613786	0.923135
	H93	H	0.099923	0.383404	0.096906
	H94	H	0.919707	0.613790	0.100844
	H95	H	0.915172	0.378902	0.910334
	H96	H	0.418961	0.114988	0.598199
	H97	H	0.590242	0.887012	0.596624
	H98	H	0.608874	0.119254	0.418869
	H99	H	0.422913	0.884821	0.420605
	H100	H	0.597827	0.407601	0.123524
	H101	H	0.604633	0.593991	0.891843
	H102	H	0.426902	0.590013	0.120763
	H103	H	0.421372	0.410953	0.897795
	H104	H	0.123584	0.588034	0.419231
	H105	H	0.888106	0.598355	0.610983
	H106	H	0.127509	0.407345	0.609962
	H107	H	0.890255	0.402622	0.414747
	H108	H	0.911582	0.615962	0.100568
	H109	H	0.105129	0.379894	0.105813
	H110	H	0.104252	0.617469	0.914121
	H111	H	0.919906	0.383349	0.915437
	H112	H	0.103997	0.904116	0.626161
	H113	H	0.103081	0.096687	0.391818
	H114	H	0.911621	0.091774	0.627207
	H115	H	0.924819	0.906919	0.396285
	H116	H	0.628475	0.089508	0.910205
	H117	H	0.388745	0.100267	0.101666
	H118	H	0.626612	0.910811	0.110788
	H119	H	0.393489	0.910764	0.915184
	C120	C	0.388419	0.008057	0.631605
	C121	C	0.630745	0.990392	0.630896
	C122	C	0.630110	0.008359	0.388223
	C123	C	0.388376	0.990781	0.388310
	C124	C	0.630269	0.375993	0.017805
	C125	C	0.629746	0.619141	1.001357
	C126	C	0.385791	0.620336	0.017456
	C127	C	0.385858	0.376179	1.001630
	C128	C	0.017213	0.620491	0.388466
	C129	C	1.000272	0.621801	0.632237
	C130	C	0.017649	0.378529	0.630707
	C131	C	1.000396	0.377920	0.387713
	C132	C	0.887032	0.506995	0.130980
	C133	C	0.129131	0.490325	0.131750
	C134	C	0.128841	0.506907	0.888598
	C135	C	0.886818	0.489713	0.887419
	C136	C	0.131361	0.877614	0.517808
	C137	C	0.130552	0.121031	0.501057
	C138	C	0.886453	0.122465	0.518633
	C139	C	0.887321	0.878634	0.501756
	C140	C	0.518082	0.119201	0.888549
	C141	C	0.499980	0.119807	0.131132
	C142	C	0.517633	0.876802	0.131338
	C143	C	0.500495	0.876877	0.887103
	C144	C	0.390718	0.884002	0.685894
	C145	C	0.628993	0.113718	0.687507
	C146	C	0.629555	0.884491	0.332978
	C147	C	0.389699	0.114182	0.333336
	C148	C	0.684446	0.378813	0.894681
	C149	C	0.684870	0.616868	0.124226
	C150	C	0.330391	0.617156	0.894888
	C151	C	0.331269	0.379894	0.124402
	C152	C	0.893588	0.676090	0.391679
	C153	C	0.124302	0.675589	0.629532
	C154	C	0.893732	0.325014	0.626216
	C155	C	0.124377	0.323654	0.391341
	C156	C	0.893613	0.381477	0.684127
	C157	C	0.123767	0.618919	0.687818
	C158	C	0.893504	0.619175	0.333350
	C159	C	0.123463	0.379822	0.332620
	C160	C	0.387913	0.675265	0.894725
	C161	C	0.627114	0.674870	0.124192
	C162	C	0.626429	0.321727	0.894558
	C163	C	0.389481	0.322098	0.124662
	C164	C	0.686065	0.884669	0.391231
	C165	C	0.684089	0.115028	0.628579
	C166	C	0.333585	0.884068	0.627956
	C167	C	0.333496	0.114948	0.391677
	C168	C	0.888711	0.383528	0.186380
	C169	C	0.128348	0.613905	0.187826
	C170	C	0.127626	0.383333	0.833051
	C171	C	0.887607	0.613526	0.832863
	C172	C	0.186676	0.879094	0.395019
	C173	C	0.185310	0.118019	0.624182
	C174	C	0.831675	0.119178	0.395938
	C175	C	0.832530	0.881900	0.624419
	C176	C	0.394190	0.174191	0.890895
	C177	C	0.623884	0.174357	0.128149
	C178	C	0.393586	0.823441	0.127721
	C179	C	0.623656	0.820629	0.890268
	C180	C	0.394686	0.878835	0.187140
	C181	C	0.623602	0.118263	0.186756
	C182	C	0.394907	0.117946	0.832636
	C183	C	0.623970	0.877492	0.832241
	C184	C	0.890119	0.176017	0.395473
	C185	C	0.127342	0.175450	0.624466
	C186	C	0.127940	0.822526	0.394674
	C187	C	0.890603	0.824103	0.624297
	C188	C	0.183846	0.382783	0.891485
	C189	C	0.184828	0.614013	0.130027
	C190	C	0.833173	0.382588	0.127347
	C191	C	0.831451	0.613626	0.891634
	C192	C	0.410385	0.094292	0.610010
	C193	C	0.609080	0.903987	0.608742
	C194	C	0.607373	0.094957	0.409648
	C195	C	0.411250	0.904400	0.410341
	C196	C	0.608631	0.398246	0.103589
	C197	C	0.607730	0.597029	0.915648
	C198	C	0.408143	0.598609	0.103145
	C199	C	0.407410	0.398020	0.916010
	C200	C	0.103195	0.597717	0.410216
	C201	C	0.913960	0.600305	0.609978
	C202	C	0.104406	0.400015	0.610035
	C203	C	0.913699	0.400180	0.409530
	C204	C	0.909113	0.593308	0.109430
	C205	C	0.106528	0.404169	0.109555
	C206	C	0.106021	0.593200	0.910847
	C207	C	0.909398	0.403159	0.908256
	C208	C	0.109319	0.900337	0.603194
	C209	C	0.108973	0.099431	0.414875
	C210	C	0.908429	0.100917	0.604825
	C211	C	0.909406	0.900717	0.415847
	C212	C	0.604641	0.096904	0.910423
	C213	C	0.413931	0.097445	0.109450
	C214	C	0.603840	0.898943	0.109382
	C215	C	0.414504	0.900298	0.909102
	Zn216	Zn	0.510203	-0.001103	0.759412
	Zn217	Zn	0.509127	-0.001206	0.259480
	Zn218	Zn	0.759166	0.497276	0.009473
	Zn219	Zn	0.256523	0.498499	0.010059
	Zn220	Zn	0.009568	0.749139	0.509821
	Zn221	Zn	0.009526	0.250436	0.509749
	Zn222	Zn	0.008334	0.498844	0.759258
	Zn223	Zn	0.008167	0.499213	0.259325
	Zn224	Zn	0.508045	0.749255	0.008897
	Zn225	Zn	0.508616	0.247437	0.009339
	Zn226	Zn	0.757884	0.000665	0.510057
	Zn227	Zn	0.259939	-0.000474	0.509367
	N228	N	0.424049	0.962068	0.688170
	N229	N	0.596549	0.035273	0.689198
	N230	N	0.595483	0.962428	0.331051
	N231	N	0.422961	0.035971	0.330990
	N232	N	0.687097	0.411877	0.972303
	N233	N	0.686722	0.583167	0.046976
	N234	N	0.328796	0.583776	0.972304
	N235	N	0.329072	0.412932	0.046996
	N236	N	0.971487	0.677034	0.425085
	N237	N	0.046622	0.677413	0.595748
	N238	N	0.971848	0.323219	0.593681
	N239	N	0.046564	0.322195	0.424756
	N240	N	0.971862	0.413964	0.687013
	N241	N	0.045430	0.586451	0.690100
	N242	N	0.971210	0.585176	0.331305
	N243	N	0.045249	0.412773	0.330450
	N244	N	0.421637	0.677293	0.971874
	N245	N	0.593528	0.676553	0.046691
	N246	N	0.593297	0.320088	0.972041
	N247	N	0.422691	0.319716	0.047334
	N248	N	0.686423	0.962624	0.424721
	N249	N	0.685138	0.037467	0.593954
	N250	N	0.332064	0.961933	0.594810
	N251	N	0.332495	0.037028	0.425177
	N252	N	0.921613	0.461650	0.188696
	N253	N	0.094605	0.536056	0.189199
	N254	N	0.094051	0.461457	0.831313
	N255	N	0.921336	0.535480	0.830160
	N256	N	0.188933	0.912755	0.472537
	N257	N	0.187364	0.084837	0.546503
	N258	N	0.829458	0.086786	0.473537
	N259	N	0.830379	0.914977	0.546942
	N260	N	0.471755	0.174870	0.924994
	N261	N	0.545980	0.175583	0.094474
	N262	N	0.471006	0.822159	0.093686
	N263	N	0.545793	0.820160	0.923524
	N264	N	0.472918	0.911385	0.189518
	N265	N	0.545765	0.084999	0.188680
	N266	N	0.473004	0.084538	0.830941
	N267	N	0.546268	0.911667	0.830069
	N268	N	0.923550	0.178270	0.473015
	N269	N	0.094115	0.177526	0.546883
	N270	N	0.094508	0.821260	0.471848
	N271	N	0.923853	0.821944	0.546904
	N272	N	0.184804	0.460628	0.925429
	N273	N	0.185582	0.536181	0.095986
	N274	N	0.832206	0.460279	0.093518
	N275	N	0.830902	0.535781	0.924956
	O276	O	0.494967	0.512402	0.520109
	H277	H	0.503175	0.506225	0.522916
	H278	H	0.512671	0.519129	0.526792
	O279	O	-0.431150	0.534301	-0.481310
	H280	H	-0.430283	0.547052	-0.489480
	H281	H	-0.423356	0.543658	-0.471006
	O282	O	0.503803	0.576738	0.526242
	H283	H	0.495609	0.581751	0.517390
	H284	H	0.502416	0.571754	0.522039
	O285	O	0.553110	0.557616	0.485232
	H286	H	0.542440	0.563098	0.484512
	H287	H	0.556338	0.561646	0.482571
	O288	O	1.099592	-0.016986	0.001763
	H289	H	1.092842	-0.014195	0.012974
	H290	H	1.112593	-0.005439	0.008894
	O291	O	-0.884479	0.919469	-0.972732
	H292	H	-0.878584	0.917825	-0.979055
	H293	H	-0.886284	0.917221	-0.971385
	O294	O	0.489589	0.509758	0.470845
	H295	H	0.490929	0.506822	0.482562
	H296	H	0.486198	0.512213	0.472850
	O297	O	0.100523	0.931808	0.031516
	H298	H	0.105132	0.919870	0.028575
	H299	H	0.099400	0.915722	0.029258
	O300	O	1.096958	-0.036630	0.978505
	H301	H	1.097354	-0.022378	0.981173
	H302	H	1.087547	-0.052321	0.969866
	O303	O	0.461595	0.557195	0.492747
	H304	H	0.464568	0.547654	0.491918
	H305	H	0.462374	0.553120	0.487806
	O306	O	0.073705	0.907954	0.953971
	H307	H	0.076842	0.901819	0.946902
	H308	H	0.077040	0.920799	0.953678
	O309	O	0.479190	0.573421	0.486208
	H310	H	0.473975	0.574219	0.476824
	H311	H	0.465918	0.580402	0.490301
