data_Molecule from HDF5

_cell_length_a		16.079166
_cell_length_b		16.260974
_cell_length_c		16.325293
_cell_angle_alpha	90.260060
_cell_angle_beta	89.693586
_cell_angle_gamma	89.031139
_symmetry_space_group_name_H-M	'P 1'
_symmetry_Int_Tables_number		1

loop_
	_symmetry_equiv_pos_as_xyz
	x,y,z

loop_
	_atom_site_label
	_atom_site_type_symbol
	_atom_site_fract_x
	_atom_site_fract_y
	_atom_site_fract_z
	H0	H	0.391240	0.833100	0.716848
	H1	H	0.588712	0.158262	0.715333
	H2	H	0.596204	0.833692	0.277935
	H3	H	0.386242	0.160033	0.285211
	H4	H	0.705623	0.394735	0.837142
	H5	H	0.697206	0.592427	0.164287
	H6	H	0.270730	0.595946	0.836055
	H7	H	0.276389	0.402376	0.164048
	H8	H	0.824412	0.711649	0.401825
	H9	H	0.152969	0.705105	0.602084
	H10	H	0.822901	0.284165	0.597902
	H11	H	0.152334	0.274027	0.397838
	H12	H	0.824669	0.394098	0.716062
	H13	H	0.151381	0.593219	0.715825
	H14	H	0.822726	0.595726	0.287491
	H15	H	0.152058	0.387110	0.281189
	H16	H	0.384151	0.713888	0.835937
	H17	H	0.586389	0.715287	0.160131
	H18	H	0.591292	0.276823	0.836743
	H19	H	0.385784	0.279834	0.160691
	H20	H	0.706623	0.830882	0.399439
	H21	H	0.698575	0.160725	0.594050
	H22	H	0.280329	0.829565	0.597781
	H23	H	0.269310	0.156848	0.399971
	H24	H	0.889729	0.330640	0.214208
	H25	H	0.087145	0.655538	0.218789
	H26	H	0.094869	0.332166	0.780714
	H27	H	0.881389	0.656851	0.781680
	H28	H	0.208984	0.888653	0.335965
	H29	H	0.200714	0.089163	0.662406
	H30	H	0.774342	0.093651	0.334454
	H31	H	0.774245	0.897548	0.660992
	H32	H	0.324464	0.213178	0.899319
	H33	H	0.653477	0.206763	0.096817
	H34	H	0.322239	0.786968	0.098678
	H35	H	0.650827	0.773074	0.892605
	H36	H	0.326000	0.897104	0.217183
	H37	H	0.653431	0.095656	0.212788
	H38	H	0.324983	0.100229	0.783450
	H39	H	0.653138	0.891711	0.782535
	H40	H	0.884287	0.213236	0.337553
	H41	H	0.089903	0.210769	0.660484
	H42	H	0.095566	0.770630	0.337953
	H43	H	0.888830	0.781029	0.662223
	H44	H	0.208035	0.332428	0.899691
	H45	H	0.195113	0.660143	0.097663
	H46	H	0.776982	0.329960	0.097627
	H47	H	0.770867	0.658977	0.903309
	H48	H	0.396290	0.113166	0.597353
	H49	H	0.583533	0.877709	0.594369
	H50	H	0.582323	0.115823	0.396144
	H51	H	0.408470	0.875543	0.387491
	H52	H	0.585110	0.400146	0.118075
	H53	H	0.581702	0.584765	0.882401
	H54	H	0.394971	0.594631	0.114928
	H55	H	0.390422	0.408253	0.881973
	H56	H	0.109161	0.586305	0.401943
	H57	H	0.872547	0.585728	0.586264
	H58	H	0.108713	0.393801	0.587092
	H59	H	0.876066	0.415076	0.411095
	H60	H	0.102293	0.405873	0.584112
	H61	H	0.868937	0.584390	0.596547
	H62	H	0.104444	0.581673	0.416279
	H63	H	0.865478	0.403692	0.393503
	H64	H	0.389924	0.595268	0.116742
	H65	H	0.575780	0.580902	0.886589
	H66	H	0.578205	0.402865	0.114879
	H67	H	0.405399	0.408733	0.887102
	H68	H	0.572289	0.109111	0.405978
	H69	H	0.580850	0.879953	0.588534
	H70	H	0.399244	0.108361	0.587325
	H71	H	0.414674	0.885921	0.416871
	H72	H	0.888756	0.611912	0.091347
	H73	H	0.083419	0.375834	0.095735
	H74	H	0.075543	0.612117	0.903155
	H75	H	0.894828	0.377335	0.906768
	H76	H	0.079521	0.901226	0.613170
	H77	H	0.090510	0.093486	0.376349
	H78	H	0.893263	0.088511	0.615448
	H79	H	0.900753	0.907178	0.385385
	H80	H	0.609552	0.083571	0.897258
	H81	H	0.369441	0.092901	0.089808
	H82	H	0.605312	0.900616	0.080449
	H83	H	0.373653	0.914675	0.909003
	H84	H	0.604171	0.910203	0.086744
	H85	H	0.371364	0.087437	0.090006
	H86	H	0.607843	0.092203	0.908610
	H87	H	0.367642	0.906380	0.897788
	H88	H	0.896567	0.088432	0.613187
	H89	H	0.082914	0.066754	0.386602
	H90	H	0.083513	0.893284	0.617224
	H91	H	0.906782	0.896627	0.383100
	H92	H	0.071147	0.608870	0.907982
	H93	H	0.076268	0.380114	0.089050
	H94	H	0.890146	0.614078	0.100527
	H95	H	0.900577	0.378542	0.902740
	H96	H	0.389110	0.112460	0.588902
	H97	H	0.587247	0.878779	0.589331
	H98	H	0.586593	0.111861	0.411241
	H99	H	0.385050	0.874680	0.409236
	H100	H	0.579127	0.395378	0.116885
	H101	H	0.575345	0.588623	0.884091
	H102	H	0.391251	0.590697	0.114698
	H103	H	0.399231	0.395699	0.881171
	H104	H	0.104921	0.571872	0.405236
	H105	H	0.868003	0.594873	0.592464
	H106	H	0.107880	0.403300	0.597668
	H107	H	0.868919	0.393909	0.413953
	H108	H	0.897504	0.610357	0.094784
	H109	H	0.087542	0.377222	0.086515
	H110	H	0.078486	0.610940	0.909959
	H111	H	0.901021	0.379783	0.910288
	H112	H	0.088847	0.901340	0.615514
	H113	H	0.063102	0.089304	0.386501
	H114	H	0.894705	0.090794	0.614906
	H115	H	0.894537	0.898547	0.379192
	H116	H	0.603589	0.078458	0.909616
	H117	H	0.369782	0.089255	0.094610
	H118	H	0.608278	0.901067	0.091002
	H119	H	0.370159	0.900757	0.911363
	C120	C	0.368035	0.003317	0.620473
	C121	C	0.611139	0.987187	0.619264
	C122	C	0.612375	0.004403	0.374784
	C123	C	0.369299	0.986604	0.376404
	C124	C	0.611419	0.370692	0.008810
	C125	C	0.606809	0.615418	0.991349
	C126	C	0.362804	0.621488	0.007581
	C127	C	0.368154	0.375855	0.990978
	C128	C	-0.002834	0.613079	0.379172
	C129	C	0.978644	0.615500	0.621482
	C130	C	-0.002593	0.373192	0.619289
	C131	C	0.978691	0.371486	0.376490
	C132	C	0.865421	0.503190	0.122650
	C133	C	0.109459	0.485593	0.120529
	C134	C	0.109124	0.503444	0.876844
	C135	C	0.866467	0.486174	0.877685
	C136	C	0.114183	0.867865	0.507846
	C137	C	0.108951	0.113414	0.490456
	C138	C	0.865890	0.117552	0.506763
	C139	C	0.869991	0.873351	0.490195
	C140	C	0.498372	0.116939	0.876382
	C141	C	0.479309	0.117572	0.119868
	C142	C	0.497301	0.876078	0.117546
	C143	C	0.479186	0.874897	0.875816
	C144	C	0.371214	0.881063	0.677483
	C145	C	0.608297	0.109879	0.675867
	C146	C	0.614317	0.881863	0.317300
	C147	C	0.367408	0.110181	0.322227
	C148	C	0.667736	0.373859	0.886066
	C149	C	0.660822	0.613457	0.114705
	C150	C	0.307777	0.617233	0.884887
	C151	C	0.312830	0.380243	0.114356
	C152	C	0.873651	0.672559	0.381776
	C153	C	0.103108	0.668736	0.621213
	C154	C	0.872673	0.320136	0.617952
	C155	C	0.102943	0.312913	0.377698
	C156	C	0.873399	0.374955	0.676747
	C157	C	0.102412	0.613057	0.677922
	C158	C	0.872735	0.614693	0.324829
	C159	C	0.102992	0.369113	0.319678
	C160	C	0.364215	0.675979	0.884918
	C161	C	0.605386	0.674224	0.112898
	C162	C	0.611155	0.315057	0.885706
	C163	C	0.367607	0.319378	0.112693
	C164	C	0.669413	0.880418	0.377542
	C165	C	0.663224	0.110939	0.615693
	C166	C	0.316024	0.879411	0.618330
	C167	C	0.309022	0.108696	0.379394
	C168	C	0.869261	0.379807	0.176744
	C169	C	0.106576	0.607708	0.178897
	C170	C	0.112728	0.381208	0.819484
	C171	C	0.863996	0.608657	0.821237
	C172	C	0.171156	0.868589	0.385309
	C173	C	0.164030	0.110629	0.613078
	C174	C	0.811280	0.114541	0.383716
	C175	C	0.812651	0.877261	0.612603
	C176	C	0.373948	0.174927	0.878861
	C177	C	0.604207	0.170287	0.116990
	C178	C	0.372512	0.823165	0.117993
	C179	C	0.602158	0.813744	0.874578
	C180	C	0.374358	0.878024	0.176931
	C181	C	0.603981	0.115223	0.174870
	C182	C	0.374167	0.118690	0.821214
	C183	C	0.603313	0.872444	0.819578
	C184	C	0.865900	0.174256	0.385292
	C185	C	0.108385	0.171066	0.612252
	C186	C	0.114733	0.809584	0.386301
	C187	C	0.869796	0.819183	0.613140
	C188	C	0.169030	0.381347	0.878699
	C189	C	0.160242	0.610058	0.118526
	C190	C	0.812905	0.379436	0.118847
	C191	C	0.808278	0.609339	0.881303
	C192	C	0.388710	0.089006	0.597903
	C193	C	0.590200	0.901092	0.597342
	C194	C	0.587764	0.090130	0.397631
	C195	C	0.395203	0.900955	0.398231
	C196	C	0.587692	0.392817	0.094462
	C197	C	0.584198	0.591750	0.906321
	C198	C	0.385410	0.600064	0.093259
	C199	C	0.391402	0.397685	0.905449
	C200	C	0.083745	0.587534	0.401291
	C201	C	0.892312	0.594427	0.598597
	C202	C	0.083717	0.394640	0.596435
	C203	C	0.892474	0.396845	0.399617
	C204	C	0.885968	0.589699	0.101763
	C205	C	0.088691	0.399891	0.097362
	C206	C	0.082586	0.588670	0.899996
	C207	C	0.891818	0.400507	0.899810
	C208	C	0.090851	0.891577	0.593185
	C209	C	0.085649	0.090037	0.405138
	C210	C	0.888251	0.095736	0.592332
	C211	C	0.893598	0.894590	0.404686
	C212	C	0.584768	0.091988	0.898555
	C213	C	0.392756	0.096202	0.097872
	C214	C	0.583564	0.897620	0.093059
	C215	C	0.392758	0.900110	0.899255
	Zn216	Zn	0.489405	-0.004041	0.748921
	Zn217	Zn	0.490092	-0.003677	0.246489
	Zn218	Zn	0.737998	0.494654	0.001049
	Zn219	Zn	0.237374	0.497005	-0.000415
	Zn220	Zn	-0.009608	0.741832	0.500417
	Zn221	Zn	-0.012451	0.244843	0.498837
	Zn222	Zn	-0.012412	0.494242	0.747770
	Zn223	Zn	-0.011582	0.493200	0.249459
	Zn224	Zn	0.486626	0.747747	-0.002383
	Zn225	Zn	0.488513	0.243749	-0.001313
	Zn226	Zn	0.739903	-0.004819	0.497659
	Zn227	Zn	0.240184	-0.007788	0.498653
	N228	N	0.402693	0.959139	0.679203
	N229	N	0.576872	0.031634	0.678570
	N230	N	0.579954	0.960029	0.315217
	N231	N	0.404181	0.033148	0.320451
	N232	N	0.668164	0.407543	0.963542
	N233	N	0.661754	0.577550	0.038106
	N234	N	0.306734	0.584182	0.962364
	N235	N	0.312995	0.414596	0.037536
	N236	N	0.952348	0.671741	0.414666
	N237	N	0.025284	0.670562	0.586632
	N238	N	0.950757	0.318637	0.583029
	N239	N	0.024824	0.314167	0.412346
	N240	N	0.951904	0.407186	0.677981
	N241	N	0.024101	0.580560	0.678559
	N242	N	0.950586	0.578276	0.323246
	N243	N	0.024932	0.404912	0.318835
	N244	N	0.397414	0.678880	0.962324
	N245	N	0.572706	0.675570	0.035182
	N246	N	0.576777	0.313064	0.962938
	N247	N	0.401362	0.316534	0.035051
	N248	N	0.668458	0.957596	0.412447
	N249	N	0.665116	0.033654	0.581217
	N250	N	0.313923	0.956304	0.583310
	N251	N	0.309847	0.030777	0.412164
	N252	N	0.901183	0.457871	0.179427
	N253	N	0.075985	0.529239	0.180444
	N254	N	0.075886	0.458248	0.818530
	N255	N	0.899564	0.531017	0.818961
	N256	N	0.171102	0.904129	0.461897
	N257	N	0.164493	0.075586	0.536191
	N258	N	0.811207	0.079791	0.460253
	N259	N	0.812448	0.910237	0.535048
	N260	N	0.452126	0.173917	0.912542
	N261	N	0.525665	0.172210	0.083566
	N262	N	0.450038	0.821745	0.081416
	N263	N	0.523790	0.815055	0.908781
	N264	N	0.452819	0.910252	0.176641
	N265	N	0.525467	0.083165	0.177003
	N266	N	0.452609	0.083347	0.819616
	N267	N	0.525954	0.909889	0.820313
	N268	N	0.899056	0.176228	0.462787
	N269	N	0.074967	0.172959	0.534854
	N270	N	0.080273	0.808817	0.463656
	N271	N	0.905140	0.816787	0.536241
	N272	N	0.167101	0.458636	0.913511
	N273	N	0.162294	0.533174	0.082895
	N274	N	0.810396	0.457173	0.085897
	N275	N	0.809691	0.532197	0.915506
	O276	O	0.862646	-0.137296	1.060607
	H277	H	0.868380	-0.124926	1.064098
	H278	H	0.868346	-0.127879	1.064307
	O279	O	0.484573	0.409792	0.452460
	H280	H	0.486424	0.411279	0.449666
	H281	H	0.497759	0.401434	0.458767
	O282	O	0.517238	0.365722	0.556670
	H283	H	0.538342	0.365792	0.569340
	H284	H	0.515629	0.386759	0.551490
	O285	O	0.384317	0.547800	0.501440
	H286	H	0.371576	0.532120	0.489986
	H287	H	0.395761	0.543930	0.507246
	O288	O	0.477897	0.599289	0.447877
	H289	H	0.470551	0.588260	0.453519
	H290	H	0.459513	0.596101	0.432884
	O291	O	-0.002222	-0.035630	1.142275
	H292	H	-0.001925	-0.031380	1.132739
	H293	H	0.004827	-0.031209	1.151981
	O294	O	0.553303	1.288256	0.489520
	H295	H	0.556402	1.288714	0.478124
	H296	H	0.548754	1.287545	0.497556
	O297	O	0.917806	0.924307	0.176083
	H298	H	0.929670	0.920737	0.179467
	H299	H	0.924813	0.942353	0.166471
	O300	O	0.537972	0.550767	0.597652
	H301	H	0.526828	0.569516	0.602238
	H302	H	0.541907	0.536687	0.591161
	O303	O	0.563959	0.572301	0.483089
	H304	H	0.562719	0.562453	0.480080
	H305	H	0.562240	0.587826	0.471804
	O306	O	1.143526	1.015628	1.081603
	H307	H	1.140523	1.033788	1.079083
	H308	H	1.147264	1.013643	1.094779
	O309	O	0.519667	0.498876	0.459725
	H310	H	0.535138	0.495198	0.468756
	H311	H	0.516476	0.497330	0.451900
	O312	O	0.999297	0.882899	0.969918
	H313	H	0.984942	0.894672	0.973850
	H314	H	0.990921	0.885107	0.980510
	O315	O	1.072836	0.941061	0.023541
	H316	H	1.078310	0.932283	0.015339
	H317	H	1.070815	0.935832	0.022388
	O318	O	0.449508	0.361910	0.538527
	H319	H	0.445689	0.363983	0.545717
	H320	H	0.440648	0.362293	0.545219
	O321	O	0.568360	0.488615	0.580436
	H322	H	0.585478	0.494331	0.589831
	H323	H	0.571651	0.496973	0.574386
	O324	O	-0.082608	0.857855	1.113645
	H325	H	-0.086132	0.848382	1.131080
	H326	H	-0.076018	0.855011	1.121981
	O327	O	-0.066178	0.883020	0.940143
	H328	H	-0.064060	0.883132	0.937857
	H329	H	-0.051690	0.880353	0.939436
	O330	O	-0.136592	0.141072	-0.138394
	H331	H	-0.145781	0.128363	-0.144776
	H332	H	-0.142798	0.152330	-0.152988
	O333	O	0.557350	0.557054	0.486303
	H334	H	0.548334	0.550357	0.495638
	H335	H	0.556838	0.563347	0.481024
	O336	O	0.157180	-0.150447	-0.004749
	H337	H	0.142999	-0.152750	-0.020874
	H338	H	0.182261	-0.170813	-0.005779
	O339	O	0.014412	-0.019993	-0.134690
	H340	H	0.010152	-0.016169	-0.127718
	H341	H	0.005539	-0.015977	-0.144348
	O342	O	0.379755	0.496347	0.407610
	H343	H	0.385901	0.485208	0.412513
	H344	H	0.374306	0.484515	0.401152
	O345	O	-0.039545	1.122271	1.038675
	H346	H	-0.031924	1.112983	1.042592
	H347	H	-0.042887	1.117823	1.037276
	O348	O	0.336376	0.476163	0.531322
	H349	H	0.346120	0.461592	0.543031
	H350	H	0.324506	0.488012	0.526914
	O351	O	0.456815	0.522558	0.338764
	H352	H	0.455028	0.514697	0.345539
	H353	H	0.471031	0.526303	0.345223
	O354	O	0.421998	0.551725	0.587567
	H355	H	0.424699	0.568135	0.587134
	H356	H	0.426658	0.553092	0.589386
	O357	O	0.978597	1.076152	0.056137
	H358	H	0.982071	1.079596	0.051982
	H359	H	0.970989	1.080187	0.050833
	O360	O	1.088936	-0.081165	0.904766
	H361	H	1.074406	-0.083627	0.896409
	H362	H	1.084779	-0.086711	0.901271
	O363	O	0.449172	0.634511	0.532919
	H364	H	0.452016	0.634325	0.517119
	H365	H	0.433399	0.638789	0.522030
	O366	O	0.824468	1.150536	-0.113885
	H367	H	0.798269	1.159624	-0.119946
	H368	H	0.831171	1.126942	-0.123351
	O369	O	1.114382	0.041630	-0.049918
	H370	H	1.114096	0.044529	-0.070016
	H371	H	1.115976	0.046195	-0.050064
	O372	O	0.449917	0.449836	0.393065
	H373	H	0.437487	0.451851	0.391696
	H374	H	0.454660	0.450863	0.385561
	O375	O	0.956805	-0.041354	1.013955
	H376	H	0.957543	-0.037966	1.020418
	H377	H	0.962908	-0.042580	1.012233
	O378	O	-0.110085	1.037078	-0.014459
	H379	H	-0.112004	1.037965	-0.011560
	H380	H	-0.110050	1.033585	-0.016236
	O381	O	0.622128	0.512582	0.431195
	H382	H	0.612782	0.518426	0.431672
	H383	H	0.630076	0.511322	0.426855
	O384	O	0.936583	0.995054	-0.152343
	H385	H	0.949832	0.990951	-0.139242
	H386	H	0.941839	0.982371	-0.164673
	O387	O	1.049051	0.018219	0.908008
	H388	H	1.051425	0.023196	0.912132
	H389	H	1.052944	0.026154	0.920396
	O390	O	1.050345	1.157446	0.045903
	H391	H	1.043629	1.155233	0.044141
	H392	H	1.044331	1.165275	0.033706
	O393	O	0.432509	0.528288	0.552112
	H394	H	0.421628	0.537106	0.547763
	H395	H	0.430145	0.509530	0.547007
