data_Molecule from HDF5

_cell_length_a		16.321563
_cell_length_b		16.245932
_cell_length_c		16.192624
_cell_angle_alpha	90.179727
_cell_angle_beta	89.830023
_cell_angle_gamma	90.084534
_symmetry_space_group_name_H-M	'P 1'
_symmetry_Int_Tables_number		1

loop_
	_symmetry_equiv_pos_as_xyz
	x,y,z

loop_
	_atom_site_label
	_atom_site_type_symbol
	_atom_site_fract_x
	_atom_site_fract_y
	_atom_site_fract_z
	H0	H	0.400234	0.834637	0.709373
	H1	H	0.596037	0.163459	0.710619
	H2	H	0.595956	0.835548	0.281730
	H3	H	0.401595	0.164007	0.283897
	H4	H	0.712335	0.401057	0.832807
	H5	H	0.712663	0.599951	0.160626
	H6	H	0.284479	0.598430	0.832201
	H7	H	0.281972	0.399673	0.160502
	H8	H	0.834232	0.713667	0.397678
	H9	H	0.160738	0.714563	0.594472
	H10	H	0.834993	0.284917	0.594937
	H11	H	0.162155	0.286268	0.397919
	H12	H	0.834640	0.401282	0.711236
	H13	H	0.161679	0.598211	0.709531
	H14	H	0.833617	0.594226	0.284855
	H15	H	0.161960	0.401956	0.282173
	H16	H	0.402705	0.711323	0.830907
	H17	H	0.596138	0.714523	0.160859
	H18	H	0.596279	0.286129	0.832162
	H19	H	0.399627	0.286526	0.161133
	H20	H	0.712989	0.835623	0.396460
	H21	H	0.713920	0.162571	0.598233
	H22	H	0.281739	0.836491	0.596894
	H23	H	0.282721	0.163042	0.396256
	H24	H	0.900115	0.334546	0.209004
	H25	H	0.094577	0.664126	0.210252
	H26	H	0.095175	0.335604	0.781732
	H27	H	0.901158	0.664153	0.783873
	H28	H	0.213441	0.899391	0.333293
	H29	H	0.211633	0.099216	0.661757
	H30	H	0.783715	0.096931	0.332646
	H31	H	0.784137	0.900478	0.661106
	H32	H	0.334662	0.214139	0.897251
	H33	H	0.661323	0.216222	0.095615
	H34	H	0.335529	0.783666	0.096424
	H35	H	0.661402	0.784480	0.895702
	H36	H	0.334470	0.902300	0.210187
	H37	H	0.662259	0.098692	0.210530
	H38	H	0.335004	0.096595	0.782367
	H39	H	0.661662	0.902375	0.781993
	H40	H	0.901281	0.211156	0.330791
	H41	H	0.095938	0.214937	0.660642
	H42	H	0.096199	0.785375	0.332224
	H43	H	0.899398	0.786867	0.660875
	H44	H	0.213340	0.336413	0.895107
	H45	H	0.212657	0.663374	0.096982
	H46	H	0.783030	0.335863	0.095336
	H47	H	0.783707	0.662966	0.898237
	H48	H	0.414904	0.112659	0.588363
	H49	H	0.592277	0.879766	0.597133
	H50	H	0.589749	0.112783	0.412501
	H51	H	0.400729	0.878059	0.393320
	H52	H	0.590702	0.403820	0.114752
	H53	H	0.600262	0.595753	0.874831
	H54	H	0.407686	0.584936	0.110224
	H55	H	0.393616	0.406743	0.876240
	H56	H	0.112774	0.593449	0.409440
	H57	H	0.881211	0.588091	0.594844
	H58	H	0.115638	0.402709	0.588626
	H59	H	0.880929	0.400234	0.403402
	H60	H	0.111964	0.409895	0.584287
	H61	H	0.879104	0.599004	0.592824
	H62	H	0.113520	0.587851	0.400231
	H63	H	0.883114	0.407849	0.406866
	H64	H	0.410481	0.597519	0.113522
	H65	H	0.591532	0.582500	0.882387
	H66	H	0.593175	0.409155	0.114715
	H67	H	0.410004	0.414999	0.882987
	H68	H	0.599441	0.118585	0.404428
	H69	H	0.583933	0.885243	0.586475
	H70	H	0.397441	0.115440	0.581300
	H71	H	0.416050	0.886262	0.405120
	H72	H	0.897894	0.618593	0.090157
	H73	H	0.097355	0.378744	0.095000
	H74	H	0.097779	0.618821	0.905154
	H75	H	0.908998	0.382185	0.898423
	H76	H	0.096137	0.912577	0.614601
	H77	H	0.087971	0.086970	0.382428
	H78	H	0.911246	0.093388	0.611598
	H79	H	0.905080	0.908794	0.379499
	H80	H	0.610148	0.084640	0.909730
	H81	H	0.383819	0.085263	0.094942
	H82	H	0.612565	0.904513	0.080792
	H83	H	0.378822	0.892758	0.906246
	H84	H	0.613333	0.914603	0.091522
	H85	H	0.378344	0.100936	0.094453
	H86	H	0.617446	0.091865	0.892562
	H87	H	0.387161	0.913189	0.911454
	H88	H	0.901764	0.098967	0.616597
	H89	H	0.089611	0.098549	0.378247
	H90	H	0.082818	0.910177	0.610579
	H91	H	0.907119	0.905058	0.379005
	H92	H	0.089270	0.617459	0.898488
	H93	H	0.080520	0.385464	0.090482
	H94	H	0.907189	0.617420	0.095295
	H95	H	0.906355	0.384491	0.909611
	H96	H	0.401308	0.120434	0.599031
	H97	H	0.598239	0.881921	0.583323
	H98	H	0.586888	0.116927	0.399274
	H99	H	0.397633	0.883418	0.412921
	H100	H	0.587542	0.408614	0.113839
	H101	H	0.583872	0.597150	0.880010
	H102	H	0.398315	0.593013	0.115798
	H103	H	0.410568	0.396003	0.877535
	H104	H	0.116329	0.598150	0.399894
	H105	H	0.882852	0.592369	0.584887
	H106	H	0.115220	0.410534	0.593191
	H107	H	0.881267	0.406382	0.398695
	H108	H	0.906514	0.613446	0.085138
	H109	H	0.094200	0.384982	0.078143
	H110	H	0.088233	0.614181	0.908600
	H111	H	0.898159	0.380525	0.902286
	H112	H	0.090237	0.899689	0.616865
	H113	H	0.098658	0.089947	0.377528
	H114	H	0.901135	0.087149	0.613260
	H115	H	0.903013	0.905449	0.378240
	H116	H	0.615932	0.102897	0.908845
	H117	H	0.384805	0.093576	0.080703
	H118	H	0.618451	0.901161	0.094056
	H119	H	0.378675	0.909037	0.891089
	C120	C	0.376395	0.007601	0.618208
	C121	C	0.619599	0.990952	0.617952
	C122	C	0.620186	0.007869	0.375838
	C123	C	0.376688	0.991152	0.375516
	C124	C	0.619082	0.378661	0.005692
	C125	C	0.620014	0.621085	0.987875
	C126	C	0.377244	0.620619	0.004645
	C127	C	0.375630	0.377651	0.987756
	C128	C	0.005854	0.620639	0.375144
	C129	C	0.989243	0.621839	0.618695
	C130	C	0.006404	0.378716	0.617610
	C131	C	0.989780	0.376781	0.374010
	C132	C	0.875611	0.507996	0.118455
	C133	C	0.119347	0.490918	0.117839
	C134	C	0.119889	0.508447	0.874619
	C135	C	0.876637	0.491105	0.875625
	C136	C	0.118892	0.878374	0.505354
	C137	C	0.119837	0.120728	0.488088
	C138	C	0.876531	0.120867	0.505116
	C139	C	0.876568	0.878133	0.487993
	C140	C	0.506325	0.121224	0.875029
	C141	C	0.490067	0.122484	0.118500
	C142	C	0.506900	0.877765	0.118038
	C143	C	0.489693	0.877179	0.874270
	C144	C	0.379681	0.883884	0.672178
	C145	C	0.616663	0.114492	0.672978
	C146	C	0.617080	0.884480	0.319648
	C147	C	0.380198	0.114878	0.321330
	C148	C	0.674311	0.380852	0.881678
	C149	C	0.674849	0.619787	0.111726
	C150	C	0.322434	0.618603	0.881023
	C151	C	0.320317	0.379930	0.111447
	C152	C	0.882949	0.675227	0.377744
	C153	C	0.112146	0.676824	0.615240
	C154	C	0.883704	0.322849	0.615590
	C155	C	0.113087	0.322968	0.376870
	C156	C	0.883267	0.380948	0.673067
	C157	C	0.112474	0.619072	0.672624
	C158	C	0.882710	0.616266	0.321221
	C159	C	0.113066	0.380614	0.319438
	C160	C	0.381041	0.674638	0.880570
	C161	C	0.617237	0.677041	0.111626
	C162	C	0.616359	0.324273	0.881315
	C163	C	0.378662	0.323222	0.111600
	C164	C	0.674710	0.884371	0.377112
	C165	C	0.675363	0.113812	0.617199
	C166	C	0.320331	0.884897	0.616638
	C167	C	0.321308	0.114340	0.377372
	C168	C	0.879180	0.384036	0.172315
	C169	C	0.116068	0.614893	0.173124
	C170	C	0.116174	0.384737	0.819399
	C171	C	0.880342	0.614907	0.821362
	C172	C	0.174754	0.879776	0.381944
	C173	C	0.174183	0.119039	0.612301
	C174	C	0.821692	0.117825	0.381345
	C175	C	0.821930	0.880718	0.611887
	C176	C	0.383482	0.176109	0.877471
	C177	C	0.612816	0.177843	0.115897
	C178	C	0.384341	0.821785	0.116588
	C179	C	0.612655	0.822525	0.875983
	C180	C	0.383722	0.880773	0.173072
	C181	C	0.613278	0.119562	0.173077
	C182	C	0.383508	0.118043	0.820197
	C183	C	0.612916	0.880972	0.819389
	C184	C	0.879947	0.174600	0.380521
	C185	C	0.116568	0.176282	0.612049
	C186	C	0.116620	0.823135	0.381487
	C187	C	0.879040	0.823925	0.611733
	C188	C	0.175023	0.385261	0.875598
	C189	C	0.174625	0.614531	0.116727
	C190	C	0.820839	0.384497	0.115729
	C191	C	0.821889	0.614323	0.877966
	C192	C	0.398458	0.094005	0.596171
	C193	C	0.597720	0.904628	0.595660
	C194	C	0.598363	0.093874	0.398730
	C195	C	0.398380	0.905030	0.397468
	C196	C	0.597076	0.400813	0.091999
	C197	C	0.598388	0.598425	0.901484
	C198	C	0.398986	0.598423	0.091075
	C199	C	0.397935	0.399567	0.901129
	C200	C	0.091967	0.599401	0.396692
	C201	C	0.903165	0.599823	0.597064
	C202	C	0.092024	0.401061	0.595274
	C203	C	0.903947	0.398368	0.396378
	C204	C	0.897426	0.594294	0.096814
	C205	C	0.097307	0.405199	0.094878
	C206	C	0.098225	0.594693	0.897506
	C207	C	0.898168	0.404548	0.897178
	C208	C	0.096462	0.900879	0.591712
	C209	C	0.098483	0.098492	0.401776
	C210	C	0.898327	0.099520	0.591615
	C211	C	0.898561	0.899870	0.401317
	C212	C	0.592282	0.099496	0.897230
	C213	C	0.404447	0.099850	0.096739
	C214	C	0.592704	0.900171	0.095426
	C215	C	0.403813	0.898705	0.896468
	Zn216	Zn	0.498127	-0.000798	0.746321
	Zn217	Zn	0.498689	0.000084	0.247121
	Zn218	Zn	0.747600	0.499363	-0.003058
	Zn219	Zn	0.248331	0.500237	-0.003745
	Zn220	Zn	-0.002589	0.750210	0.496619
	Zn221	Zn	-0.001821	0.249042	0.495964
	Zn222	Zn	-0.002192	0.499813	0.746708
	Zn223	Zn	-0.001980	0.499032	0.246078
	Zn224	Zn	0.498227	0.748907	-0.003991
	Zn225	Zn	0.498105	0.250301	-0.003521
	Zn226	Zn	0.748705	-0.000596	0.497568
	Zn227	Zn	0.248042	-0.000495	0.496969
	N228	N	0.413778	0.961612	0.673419
	N229	N	0.582608	0.036979	0.673628
	N230	N	0.583796	0.962238	0.318789
	N231	N	0.413933	0.037518	0.320000
	N232	N	0.675911	0.414210	0.959861
	N233	N	0.676545	0.585550	0.033803
	N234	N	0.320189	0.585533	0.959209
	N235	N	0.318115	0.412881	0.033220
	N236	N	0.960561	0.678101	0.410569
	N237	N	0.034519	0.678506	0.582176
	N238	N	0.961188	0.321397	0.581637
	N239	N	0.035492	0.320393	0.410018
	N240	N	0.960465	0.415047	0.674237
	N241	N	0.035103	0.585458	0.674616
	N242	N	0.960188	0.582923	0.319800
	N243	N	0.035409	0.413467	0.317587
	N244	N	0.414463	0.675796	0.958387
	N245	N	0.583796	0.677795	0.033834
	N246	N	0.582820	0.322718	0.959283
	N247	N	0.412189	0.321788	0.033551
	N248	N	0.676977	0.962076	0.411138
	N249	N	0.677229	0.035935	0.583651
	N250	N	0.318311	0.962790	0.583803
	N251	N	0.318913	0.036271	0.410333
	N252	N	0.912615	0.461822	0.174017
	N253	N	0.082357	0.537271	0.173820
	N254	N	0.082820	0.462373	0.818589
	N255	N	0.913558	0.537081	0.819720
	N256	N	0.176328	0.913522	0.459919
	N257	N	0.176278	0.085096	0.534275
	N258	N	0.819571	0.085215	0.459748
	N259	N	0.820309	0.913841	0.533797
	N260	N	0.461032	0.178138	0.910810
	N261	N	0.535351	0.179746	0.083040
	N262	N	0.461775	0.820209	0.082824
	N263	N	0.534997	0.820068	0.909288
	N264	N	0.461021	0.914929	0.174183
	N265	N	0.535903	0.085658	0.174794
	N266	N	0.460988	0.084908	0.818410
	N267	N	0.535468	0.914281	0.818141
	N268	N	0.913424	0.176553	0.458472
	N269	N	0.083661	0.177579	0.534008
	N270	N	0.082652	0.822130	0.459387
	N271	N	0.912508	0.822238	0.533609
	N272	N	0.177633	0.463277	0.909153
	N273	N	0.177085	0.536652	0.083088
	N274	N	0.818575	0.462477	0.082995
	N275	N	0.819473	0.536365	0.910868
	O276	O	0.056019	0.031191	1.035917
	H277	H	0.059055	0.026925	1.035717
	H278	H	0.058044	0.036598	1.040815
	O279	O	0.482973	0.462003	0.427485
	H280	H	0.486963	0.473711	0.419644
	H281	H	0.475019	0.466949	0.425770
	O282	O	0.480262	0.446710	0.465494
	H283	H	0.476735	0.447282	0.463841
	H284	H	0.481954	0.446602	0.479232
	O285	O	0.471085	0.463941	0.467758
	H286	H	0.466368	0.459992	0.463896
	H287	H	0.475224	0.461218	0.460308
	O288	O	0.492680	0.454424	0.437631
	H289	H	0.492121	0.448362	0.436240
	H290	H	0.499273	0.455372	0.443871
	O291	O	0.053410	1.043193	1.046410
	H292	H	0.059078	1.044175	1.052664
	H293	H	0.057033	1.048315	1.047423
	O294	O	0.459549	0.478994	0.432136
	H295	H	0.466782	0.482475	0.441267
	H296	H	0.457303	0.476858	0.427182
	O297	O	1.458009	0.497819	0.504384
	H298	H	1.459116	0.493365	0.502843
	H299	H	1.455231	0.493921	0.501688
