data_Molecule from HDF5

_cell_length_a		16.356796
_cell_length_b		16.332118
_cell_length_c		16.114134
_cell_angle_alpha	90.040558
_cell_angle_beta	90.311113
_cell_angle_gamma	89.931562
_symmetry_space_group_name_H-M	'P 1'
_symmetry_Int_Tables_number		1

loop_
	_symmetry_equiv_pos_as_xyz
	x,y,z

loop_
	_atom_site_label
	_atom_site_type_symbol
	_atom_site_fract_x
	_atom_site_fract_y
	_atom_site_fract_z
	H0	H	0.401264	0.833954	0.701134
	H1	H	0.598737	0.158753	0.704469
	H2	H	0.596303	0.834307	0.271777
	H3	H	0.396393	0.159653	0.270131
	H4	H	0.717786	0.396226	0.824595
	H5	H	0.718234	0.600338	0.153068
	H6	H	0.281346	0.602857	0.825937
	H7	H	0.284101	0.397354	0.150821
	H8	H	0.839283	0.716182	0.380710
	H9	H	0.159437	0.718334	0.592619
	H10	H	0.839450	0.278246	0.588298
	H11	H	0.161114	0.276672	0.383909
	H12	H	0.837840	0.397011	0.701830
	H13	H	0.161510	0.598817	0.704983
	H14	H	0.838303	0.596790	0.269885
	H15	H	0.163559	0.398462	0.273919
	H16	H	0.400271	0.712132	0.823619
	H17	H	0.603008	0.715243	0.152052
	H18	H	0.602767	0.280172	0.824512
	H19	H	0.401074	0.282548	0.151771
	H20	H	0.716873	0.835460	0.382911
	H21	H	0.719169	0.157564	0.591990
	H22	H	0.282176	0.835927	0.588619
	H23	H	0.280933	0.159472	0.384366
	H24	H	0.904950	0.334181	0.200500
	H25	H	0.101832	0.660381	0.206384
	H26	H	0.099974	0.335080	0.773305
	H27	H	0.899555	0.659459	0.770650
	H28	H	0.214847	0.898179	0.322021
	H29	H	0.216186	0.098561	0.650789
	H30	H	0.780520	0.099078	0.323461
	H31	H	0.783575	0.893907	0.650323
	H32	H	0.339561	0.217771	0.883482
	H33	H	0.660298	0.216313	0.094185
	H34	H	0.337913	0.777575	0.090524
	H35	H	0.661960	0.779179	0.887722
	H36	H	0.334963	0.898900	0.200010
	H37	H	0.660494	0.097097	0.206383
	H38	H	0.335836	0.095229	0.773713
	H39	H	0.662173	0.896677	0.772821
	H40	H	0.898652	0.211624	0.322319
	H41	H	0.100753	0.211849	0.651162
	H42	H	0.099394	0.781387	0.321974
	H43	H	0.900640	0.781393	0.650569
	H44	H	0.218923	0.337547	0.885301
	H45	H	0.219574	0.660825	0.091956
	H46	H	0.781763	0.338228	0.095598
	H47	H	0.782755	0.659900	0.885934
	H48	H	0.408504	0.109487	0.569118
	H49	H	0.593074	0.880733	0.577690
	H50	H	0.592491	0.110987	0.400362
	H51	H	0.414280	0.883480	0.392147
	H52	H	0.592058	0.403500	0.106447
	H53	H	0.593322	0.590415	0.871022
	H54	H	0.408688	0.589462	0.105881
	H55	H	0.414776	0.406870	0.871664
	H56	H	0.117991	0.583577	0.386157
	H57	H	0.888913	0.587523	0.565511
	H58	H	0.117052	0.401202	0.581090
	H59	H	0.883651	0.403458	0.390782
	H60	H	0.114754	0.403036	0.575825
	H61	H	0.884507	0.580209	0.583780
	H62	H	0.118288	0.603290	0.400428
	H63	H	0.884533	0.399666	0.396591
	H64	H	0.410336	0.586816	0.105059
	H65	H	0.593881	0.585052	0.872862
	H66	H	0.595706	0.409728	0.105596
	H67	H	0.407483	0.405523	0.869270
	H68	H	0.589435	0.112619	0.395381
	H69	H	0.591967	0.881006	0.580351
	H70	H	0.395159	0.117023	0.583104
	H71	H	0.403506	0.883781	0.404561
	H72	H	0.906955	0.614650	0.080075
	H73	H	0.092757	0.385267	0.073582
	H74	H	0.096628	0.616097	0.896913
	H75	H	0.909743	0.381829	0.892443
	H76	H	0.086792	0.903391	0.602744
	H77	H	0.088448	0.087868	0.369911
	H78	H	0.906028	0.090389	0.605408
	H79	H	0.908206	0.907599	0.369330
	H80	H	0.615979	0.089212	0.896337
	H81	H	0.382884	0.087811	0.084331
	H82	H	0.614268	0.895995	0.073065
	H83	H	0.386280	0.911848	0.894851
	H84	H	0.609035	0.916122	0.074898
	H85	H	0.381547	0.098931	0.076655
	H86	H	0.614075	0.089705	0.899630
	H87	H	0.381002	0.899039	0.889508
	H88	H	0.907431	0.083723	0.602450
	H89	H	0.091581	0.089503	0.369064
	H90	H	0.095600	0.905560	0.605021
	H91	H	0.907551	0.906525	0.369282
	H92	H	0.088149	0.613969	0.892305
	H93	H	0.099751	0.381316	0.079095
	H94	H	0.911665	0.613424	0.080293
	H95	H	0.912291	0.384976	0.899893
	H96	H	0.414176	0.113726	0.588530
	H97	H	0.590357	0.881567	0.577944
	H98	H	0.586380	0.110857	0.400615
	H99	H	0.399728	0.877724	0.389537
	H100	H	0.589007	0.409600	0.102828
	H101	H	0.588144	0.587095	0.872715
	H102	H	0.412130	0.590105	0.105668
	H103	H	0.409593	0.411921	0.872336
	H104	H	0.109414	0.582200	0.408868
	H105	H	0.880688	0.598772	0.579621
	H106	H	0.114368	0.406207	0.581110
	H107	H	0.886065	0.406138	0.395870
	H108	H	0.909168	0.612862	0.076051
	H109	H	0.090886	0.383512	0.083275
	H110	H	0.089202	0.610559	0.901477
	H111	H	0.904591	0.381500	0.899172
	H112	H	0.090264	0.911695	0.601110
	H113	H	0.091333	0.085023	0.369381
	H114	H	0.913341	0.088119	0.602893
	H115	H	0.906446	0.907443	0.370084
	H116	H	0.614028	0.086712	0.898113
	H117	H	0.386703	0.087490	0.071948
	H118	H	0.617958	0.905423	0.091474
	H119	H	0.385657	0.899435	0.903482
	C120	C	0.377525	0.005779	0.609019
	C121	C	0.621689	0.987904	0.609860
	C122	C	0.619581	0.004923	0.366654
	C123	C	0.376159	0.988967	0.365174
	C124	C	0.622669	0.376414	-0.002886
	C125	C	0.622200	0.618493	0.980156
	C126	C	0.379887	0.618844	-0.002846
	C127	C	0.380171	0.377694	0.979047
	C128	C	0.008700	0.619158	0.366045
	C129	C	0.991265	0.619046	0.608184
	C130	C	0.008599	0.374486	0.608751
	C131	C	0.991899	0.373876	0.365163
	C132	C	0.880156	0.506707	0.109356
	C133	C	0.124298	0.490110	0.110133
	C134	C	0.121879	0.506897	0.866272
	C135	C	0.878370	0.489397	0.866142
	C136	C	0.120946	0.876464	0.494780
	C137	C	0.120579	0.117537	0.478077
	C138	C	0.878033	0.117483	0.495463
	C139	C	0.878283	0.876345	0.477828
	C140	C	0.507840	0.118540	0.867175
	C141	C	0.490526	0.120249	0.109678
	C142	C	0.506778	0.875476	0.109259
	C143	C	0.491447	0.874106	0.866226
	C144	C	0.380311	0.882947	0.663881
	C145	C	0.619805	0.109919	0.666800
	C146	C	0.617505	0.882946	0.309479
	C147	C	0.377005	0.111098	0.308544
	C148	C	0.679533	0.376785	0.873829
	C149	C	0.679483	0.618951	0.103804
	C150	C	0.321597	0.620378	0.874071
	C151	C	0.323014	0.378161	0.102090
	C152	C	0.887294	0.676884	0.362965
	C153	C	0.111899	0.677923	0.610138
	C154	C	0.887366	0.317483	0.607826
	C155	C	0.113255	0.316425	0.365540
	C156	C	0.886685	0.376426	0.664421
	C157	C	0.112844	0.618483	0.666156
	C158	C	0.886793	0.617210	0.308125
	C159	C	0.114552	0.376800	0.310508
	C160	C	0.380377	0.675042	0.873229
	C161	C	0.621978	0.675985	0.103579
	C162	C	0.621867	0.319338	0.873635
	C163	C	0.381318	0.321194	0.102604
	C164	C	0.677649	0.883692	0.364854
	C165	C	0.679541	0.109188	0.610783
	C166	C	0.321225	0.883922	0.607831
	C167	C	0.319212	0.110921	0.365183
	C168	C	0.883626	0.383734	0.164456
	C169	C	0.122460	0.611864	0.167901
	C170	C	0.120586	0.384330	0.810571
	C171	C	0.879241	0.611023	0.808728
	C172	C	0.177117	0.877683	0.371167
	C173	C	0.177771	0.117537	0.601800
	C174	C	0.819575	0.118140	0.372285
	C175	C	0.822196	0.875647	0.601318
	C176	C	0.387136	0.177392	0.865597
	C177	C	0.611966	0.176973	0.111873
	C178	C	0.385950	0.817136	0.109158
	C179	C	0.613352	0.817684	0.867573
	C180	C	0.384179	0.877930	0.163497
	C181	C	0.612142	0.117874	0.167968
	C182	C	0.385166	0.116325	0.811093
	C183	C	0.613416	0.876187	0.810451
	C184	C	0.878612	0.173781	0.371673
	C185	C	0.120197	0.173907	0.601899
	C186	C	0.119542	0.819801	0.371226
	C187	C	0.880383	0.819456	0.601336
	C188	C	0.179791	0.385606	0.866392
	C189	C	0.181113	0.611993	0.110850
	C190	C	0.822050	0.385762	0.111974
	C191	C	0.821258	0.611241	0.866425
	C192	C	0.399449	0.091245	0.586778
	C193	C	0.598549	0.903158	0.585621
	C194	C	0.596250	0.089610	0.391421
	C195	C	0.399245	0.903842	0.388569
	C196	C	0.599123	0.400434	0.082725
	C197	C	0.598626	0.594731	0.894527
	C198	C	0.403396	0.595604	0.083170
	C199	C	0.403654	0.401349	0.893354
	C200	C	0.093243	0.596290	0.391041
	C201	C	0.906703	0.595616	0.583614
	C202	C	0.093309	0.396879	0.586034
	C203	C	0.906939	0.396330	0.387727
	C204	C	0.902651	0.591605	0.085847
	C205	C	0.101392	0.405369	0.085623
	C206	C	0.098228	0.591688	0.889969
	C207	C	0.901944	0.404756	0.890146
	C208	C	0.097896	0.899977	0.580746
	C209	C	0.097320	0.094253	0.391706
	C210	C	0.901791	0.094233	0.581320
	C211	C	0.900874	0.900201	0.391845
	C212	C	0.592801	0.095275	0.891067
	C213	C	0.405705	0.097765	0.084799
	C214	C	0.591735	0.898919	0.086608
	C215	C	0.406224	0.896969	0.889364
	Zn216	Zn	0.498884	-0.003351	0.738036
	Zn217	Zn	0.497980	-0.002496	0.237496
	Zn218	Zn	0.750864	0.497930	-0.010636
	Zn219	Zn	0.252252	0.499746	-0.012843
	Zn220	Zn	-0.000887	0.748015	0.486055
	Zn221	Zn	0.000285	0.244862	0.486555
	Zn222	Zn	0.000321	0.496738	0.737226
	Zn223	Zn	0.001175	0.497551	0.237790
	Zn224	Zn	0.500219	0.745737	-0.011315
	Zn225	Zn	0.500325	0.248642	-0.011891
	Zn226	Zn	0.749944	-0.003443	0.486945
	Zn227	Zn	0.249142	-0.002153	0.486868
	N228	N	0.414707	0.959656	0.664697
	N229	N	0.584796	0.033433	0.666609
	N230	N	0.582184	0.959268	0.310396
	N231	N	0.411667	0.034248	0.308317
	N232	N	0.680082	0.411669	0.951508
	N233	N	0.679854	0.584040	0.026159
	N234	N	0.321025	0.586293	0.951997
	N235	N	0.322345	0.412674	0.024258
	N236	N	0.963886	0.678181	0.398179
	N237	N	0.035299	0.678496	0.574704
	N238	N	0.964193	0.315814	0.574198
	N239	N	0.036017	0.314692	0.398816
	N240	N	0.963203	0.411192	0.665140
	N241	N	0.036950	0.582440	0.665173
	N242	N	0.963179	0.581758	0.309899
	N243	N	0.038290	0.412071	0.310213
	N244	N	0.416103	0.674209	0.950740
	N245	N	0.587002	0.675923	0.025732
	N246	N	0.587581	0.318609	0.951370
	N247	N	0.416315	0.321107	0.025165
	N248	N	0.678669	0.960575	0.399926
	N249	N	0.681031	0.032269	0.576373
	N250	N	0.319291	0.961351	0.574385
	N251	N	0.318659	0.034110	0.399806
	N252	N	0.919066	0.460111	0.163139
	N253	N	0.087907	0.535080	0.167728
	N254	N	0.085233	0.460819	0.810272
	N255	N	0.913908	0.534245	0.808336
	N256	N	0.178098	0.912230	0.449057
	N257	N	0.178151	0.083353	0.523756
	N258	N	0.819034	0.083781	0.450194
	N259	N	0.820816	0.910370	0.523521
	N260	N	0.464375	0.178798	0.899859
	N261	N	0.535382	0.178597	0.076595
	N262	N	0.463433	0.815397	0.076277
	N263	N	0.536315	0.816051	0.901135
	N264	N	0.460254	0.913604	0.163630
	N265	N	0.535470	0.083321	0.166822
	N266	N	0.461384	0.080611	0.811732
	N267	N	0.536475	0.910279	0.809485
	N268	N	0.914281	0.173679	0.449206
	N269	N	0.085597	0.174162	0.523919
	N270	N	0.085581	0.818751	0.449147
	N271	N	0.914441	0.819789	0.523561
	N272	N	0.180878	0.462900	0.900090
	N273	N	0.182501	0.535198	0.075857
	N274	N	0.819914	0.462957	0.078116
	N275	N	0.820430	0.534547	0.901281
	O276	O	-0.046967	-0.015153	-0.012650
	H277	H	-0.048733	-0.024542	-0.008687
	H278	H	-0.047966	0.009794	-0.027914
	O279	O	0.443025	0.356546	0.433301
	H280	H	0.442745	0.372061	0.424874
	H281	H	0.444174	0.355950	0.441691
	O282	O	0.372997	-0.417315	-0.661863
	H283	H	0.375293	-0.416198	-0.663599
	H284	H	0.377893	-0.418331	-0.669969
	O285	O	0.013581	0.972322	0.088175
	H286	H	0.011181	0.969766	0.086613
	H287	H	0.006291	0.976905	0.096551
	O288	O	0.507836	0.623930	0.406998
	H289	H	0.512837	0.626397	0.420410
	H290	H	0.508234	0.615528	0.413888
	O291	O	1.451609	0.511194	0.506244
	H292	H	1.442464	0.499528	0.489385
	H293	H	1.433994	0.518757	0.511855
	O294	O	1.112704	0.955248	0.958724
	H295	H	1.117157	0.951138	0.953261
	H296	H	1.112884	0.955984	0.963447
	O297	O	-0.065527	0.075684	-0.009678
	H298	H	-0.072716	0.087210	-0.007061
	H299	H	-0.064577	0.076014	-0.013047
	O300	O	0.538600	0.456781	0.383970
	H301	H	0.546314	0.462249	0.393494
	H302	H	0.531199	0.460263	0.388949
	O303	O	-0.048023	0.934574	0.891606
	H304	H	-0.052984	0.927205	0.899753
	H305	H	-0.043318	0.931932	0.881509
	O306	O	0.313310	0.546125	0.581061
	H307	H	0.308938	0.546432	0.596129
	H308	H	0.322562	0.517788	0.564337
	O309	O	0.974252	-0.000401	-0.030237
	H310	H	0.978488	0.001040	-0.030602
	H311	H	0.965130	-0.002654	-0.034194
	O312	O	-0.148744	0.159082	0.869711
	H313	H	-0.153899	0.149897	0.851049
	H314	H	-0.168747	0.175941	0.863678
	O315	O	0.485535	0.461335	0.574137
	H316	H	0.490928	0.459987	0.564165
	H317	H	0.474350	0.455432	0.576419
	O318	O	0.932047	1.018323	1.047651
	H319	H	0.920237	1.022282	1.049134
	H320	H	0.924800	1.015444	1.045098
	O321	O	0.693626	0.454078	0.511629
	H322	H	0.690498	0.463623	0.504768
	H323	H	0.692546	0.453218	0.519622
	O324	O	0.683680	0.586360	0.544456
	H325	H	0.691108	0.590819	0.563144
	H326	H	0.690356	0.592825	0.546702
	O327	O	0.006833	1.067813	0.882343
	H328	H	0.010921	1.082068	0.874978
	H329	H	0.007097	1.068428	0.880855
	O330	O	-0.090390	0.007784	-0.064101
	H331	H	-0.095655	-0.001139	-0.056571
	H332	H	-0.087223	0.024373	-0.054348
	O333	O	-0.572442	1.641170	1.499002
	H334	H	-0.588975	1.649904	1.494255
	H335	H	-0.557918	1.635468	1.505271
	O336	O	0.993060	0.977892	1.089727
	H337	H	0.997696	0.968501	1.095497
	H338	H	1.005353	0.992885	1.107361
	O339	O	0.546860	0.696404	0.525155
	H340	H	0.540492	0.713467	0.540107
	H341	H	0.531365	0.692237	0.521201
	O342	O	1.116710	-0.019492	0.074634
	H343	H	1.107776	-0.013587	0.079082
	H344	H	1.117357	-0.007842	0.075172
	O345	O	0.428533	0.523501	0.383080
	H346	H	0.429526	0.526324	0.386188
	H347	H	0.431156	0.527629	0.378405
	O348	O	1.095821	1.089998	1.011022
	H349	H	1.099740	1.088599	1.009469
	H350	H	1.079254	1.092985	1.012242
	O351	O	0.915927	0.956066	-0.065333
	H352	H	0.914717	0.962162	-0.052280
	H353	H	0.918936	0.947675	-0.056948
	O354	O	1.145881	1.004513	0.971092
	H355	H	1.147895	1.001426	0.960779
	H356	H	1.144288	0.991120	0.965300
	O357	O	0.631700	0.374381	0.359637
	H358	H	0.629967	0.381698	0.359718
	H359	H	0.626722	0.385023	0.352859
	O360	O	-0.518901	0.398097	0.584730
	H361	H	-0.511122	0.396135	0.582158
	H362	H	-0.514894	0.413017	0.583746
	O363	O	0.553368	0.614237	0.499080
	H364	H	0.534056	0.603179	0.490797
	H365	H	0.552796	0.624291	0.494531
	O366	O	0.594509	0.375695	0.582128
	H367	H	0.585512	0.381721	0.590341
	H368	H	0.608166	0.378164	0.568272
	O369	O	0.415758	0.530686	0.497143
	H370	H	0.408311	0.537305	0.491665
	H371	H	0.411744	0.522500	0.482426
	O372	O	0.608468	0.597268	0.590892
	H373	H	0.602211	0.599090	0.597592
	H374	H	0.615030	0.602955	0.593459
	O375	O	0.474259	0.528151	0.582735
	H376	H	0.477119	0.539969	0.573304
	H377	H	0.474392	0.505529	0.585825
	O378	O	0.455677	0.353682	0.492574
	H379	H	0.475026	0.348791	0.485969
	H380	H	0.449412	0.351864	0.486081
	O381	O	0.389750	0.370491	0.520759
	H382	H	0.407840	0.373003	0.515757
	H383	H	0.391156	0.361715	0.508182
	O384	O	0.038027	0.984611	-0.019787
	H385	H	0.046591	0.977235	-0.011961
	H386	H	0.038240	0.974874	-0.013078
	O387	O	0.942391	-0.009557	0.796717
	H388	H	0.951524	-0.010964	0.788089
	H389	H	0.944667	-0.021550	0.782972
	O390	O	0.087049	0.978811	0.043866
	H391	H	0.078615	0.974565	0.041405
	H392	H	0.094452	0.986368	0.042390
	O393	O	0.929098	1.052267	0.087348
	H394	H	0.934277	1.063327	0.075063
	H395	H	0.931451	1.066853	0.077585
	O396	O	0.429647	0.360158	0.468931
	H397	H	0.418901	0.347169	0.476234
	H398	H	0.435906	0.358753	0.473756
	O399	O	0.440413	0.502723	1.530517
	H400	H	0.428108	0.485716	1.522844
	H401	H	0.450004	0.511261	1.528571
	O402	O	0.989819	0.892956	1.013281
	H403	H	0.997428	0.878109	1.007583
	H404	H	0.981136	0.892720	1.020158
	O405	O	-0.005500	-0.063958	0.959191
	H406	H	-0.011644	-0.059051	0.950719
	H407	H	0.010442	-0.064719	0.951283
