data_Molecule from HDF5

_cell_length_a		16.221583
_cell_length_b		16.142089
_cell_length_c		16.310783
_cell_angle_alpha	89.854831
_cell_angle_beta	90.267570
_cell_angle_gamma	90.444641
_symmetry_space_group_name_H-M	'P 1'
_symmetry_Int_Tables_number		1

loop_
	_symmetry_equiv_pos_as_xyz
	x,y,z

loop_
	_atom_site_label
	_atom_site_type_symbol
	_atom_site_fract_x
	_atom_site_fract_y
	_atom_site_fract_z
	H0	H	0.389139	0.840943	0.721503
	H1	H	0.591741	0.169462	0.716855
	H2	H	0.590140	0.840217	0.290080
	H3	H	0.390266	0.168845	0.288301
	H4	H	0.704202	0.407742	0.838122
	H5	H	0.711740	0.606047	0.164112
	H6	H	0.276461	0.605182	0.839642
	H7	H	0.276209	0.403707	0.165036
	H8	H	0.826803	0.716134	0.402948
	H9	H	0.155953	0.717932	0.600713
	H10	H	0.827777	0.288777	0.599150
	H11	H	0.156924	0.292740	0.405659
	H12	H	0.827523	0.403528	0.715683
	H13	H	0.155410	0.604795	0.718267
	H14	H	0.828819	0.604562	0.283746
	H15	H	0.154926	0.402963	0.286109
	H16	H	0.394272	0.719863	0.839522
	H17	H	0.594979	0.719851	0.165980
	H18	H	0.587322	0.292152	0.837933
	H19	H	0.391689	0.288621	0.165180
	H20	H	0.702191	0.838573	0.407503
	H21	H	0.709340	0.167608	0.605427
	H22	H	0.276035	0.839695	0.603880
	H23	H	0.278575	0.169342	0.406515
	H24	H	0.891015	0.339573	0.215675
	H25	H	0.094892	0.667794	0.218556
	H26	H	0.089833	0.339743	0.789151
	H27	H	0.892578	0.667979	0.785702
	H28	H	0.206000	0.904405	0.341282
	H29	H	0.206740	0.102826	0.667566
	H30	H	0.774538	0.102687	0.340766
	H31	H	0.777546	0.903215	0.667692
	H32	H	0.326834	0.214859	0.905598
	H33	H	0.656166	0.219851	0.100992
	H34	H	0.328949	0.787238	0.101903
	H35	H	0.657206	0.794778	0.908241
	H36	H	0.327861	0.902408	0.218757
	H37	H	0.655075	0.106312	0.221165
	H38	H	0.329279	0.104975	0.787042
	H39	H	0.655284	0.905679	0.788414
	H40	H	0.893646	0.216692	0.338594
	H41	H	0.091458	0.220178	0.666523
	H42	H	0.087187	0.792134	0.339171
	H43	H	0.892763	0.786740	0.666455
	H44	H	0.203253	0.339468	0.904873
	H45	H	0.207593	0.668531	0.101011
	H46	H	0.776403	0.339858	0.099181
	H47	H	0.780700	0.669680	0.903299
	H48	H	0.400380	0.121248	0.596937
	H49	H	0.589722	0.883322	0.601095
	H50	H	0.581861	0.121564	0.410781
	H51	H	0.394419	0.884376	0.406567
	H52	H	0.585963	0.416915	0.117271
	H53	H	0.574616	0.604411	0.887071
	H54	H	0.403181	0.590383	0.116858
	H55	H	0.396598	0.407883	0.883972
	H56	H	0.110830	0.611577	0.415687
	H57	H	0.872740	0.596976	0.598255
	H58	H	0.111834	0.408604	0.602395
	H59	H	0.873342	0.412009	0.401538
	H60	H	0.108412	0.409990	0.590498
	H61	H	0.875533	0.595821	0.590168
	H62	H	0.101490	0.584875	0.418717
	H63	H	0.873894	0.403921	0.411061
	H64	H	0.403144	0.600833	0.119173
	H65	H	0.593776	0.606590	0.880816
	H66	H	0.581069	0.412020	0.117574
	H67	H	0.393327	0.412225	0.885097
	H68	H	0.583682	0.121185	0.414914
	H69	H	0.576981	0.886236	0.602491
	H70	H	0.400732	0.122450	0.595671
	H71	H	0.404224	0.888564	0.410888
	H72	H	0.894923	0.627504	0.105493
	H73	H	0.072278	0.391572	0.087379
	H74	H	0.077188	0.617651	0.918333
	H75	H	0.905087	0.388100	0.908876
	H76	H	0.081952	0.908126	0.620634
	H77	H	0.085548	0.102810	0.385865
	H78	H	0.901809	0.098015	0.620223
	H79	H	0.895017	0.914883	0.388217
	H80	H	0.612060	0.110392	0.913069
	H81	H	0.371971	0.093166	0.107180
	H82	H	0.612839	0.905624	0.102399
	H83	H	0.375464	0.912769	0.910058
	H84	H	0.606641	0.915297	0.089923
	H85	H	0.372657	0.106251	0.093594
	H86	H	0.605544	0.092581	0.917980
	H87	H	0.375480	0.911453	0.913085
	H88	H	0.898632	0.095010	0.619092
	H89	H	0.088668	0.093561	0.387377
	H90	H	0.086793	0.910237	0.621086
	H91	H	0.899464	0.907634	0.387283
	H92	H	0.096106	0.625229	0.911321
	H93	H	0.094274	0.384938	0.089241
	H94	H	0.915911	0.617617	0.095306
	H95	H	0.891458	0.385979	0.914815
	H96	H	0.399477	0.122250	0.596871
	H97	H	0.583595	0.888418	0.591622
	H98	H	0.586098	0.123003	0.410729
	H99	H	0.394771	0.887434	0.417137
	H100	H	0.587108	0.410046	0.119634
	H101	H	0.587121	0.588833	0.888681
	H102	H	0.393875	0.594873	0.120963
	H103	H	0.399537	0.412463	0.886741
	H104	H	0.112580	0.593970	0.394233
	H105	H	0.875589	0.589763	0.595483
	H106	H	0.107972	0.419574	0.598485
	H107	H	0.877318	0.415669	0.412597
	H108	H	0.895068	0.621025	0.081539
	H109	H	0.081265	0.383080	0.108077
	H110	H	0.078771	0.623995	0.897820
	H111	H	0.893857	0.382420	0.900446
	H112	H	0.082969	0.913284	0.618762
	H113	H	0.079890	0.096197	0.389020
	H114	H	0.902020	0.094210	0.618264
	H115	H	0.891067	0.907649	0.384471
	H116	H	0.612380	0.096079	0.900238
	H117	H	0.379134	0.088309	0.091144
	H118	H	0.608695	0.921517	0.105248
	H119	H	0.375778	0.915050	0.912672
	C120	C	0.370146	0.013343	0.626030
	C121	C	0.612876	0.995081	0.626431
	C122	C	0.612007	0.012775	0.383870
	C123	C	0.369217	0.995635	0.382619
	C124	C	0.612799	0.384114	0.010279
	C125	C	0.615145	0.627602	0.993666
	C126	C	0.371068	0.625665	0.011242
	C127	C	0.368040	0.381771	0.993384
	C128	C	0.000039	0.625384	0.380178
	C129	C	0.982870	0.624532	0.623866
	C130	C	0.000762	0.382689	0.624419
	C131	C	0.983288	0.382211	0.380404
	C132	C	0.871488	0.512991	0.122471
	C133	C	0.113181	0.495398	0.123770
	C134	C	0.112265	0.513136	0.881374
	C135	C	0.869609	0.495106	0.879834
	C136	C	0.112554	0.882294	0.512214
	C137	C	0.114029	0.126398	0.495369
	C138	C	0.870764	0.124755	0.511423
	C139	C	0.867992	0.880707	0.494954
	C140	C	0.501168	0.126698	0.881799
	C141	C	0.482679	0.126544	0.126255
	C142	C	0.501064	0.883189	0.126984
	C143	C	0.483756	0.884651	0.883348
	C144	C	0.370507	0.889659	0.682470
	C145	C	0.612111	0.119758	0.680356
	C146	C	0.609807	0.889135	0.328260
	C147	C	0.371234	0.119818	0.326935
	C148	C	0.667080	0.386563	0.887147
	C149	C	0.672497	0.625566	0.116030
	C150	C	0.315022	0.624856	0.888413
	C151	C	0.313469	0.383735	0.116167
	C152	C	0.876213	0.679211	0.382509
	C153	C	0.106765	0.680347	0.621479
	C154	C	0.876602	0.326936	0.620285
	C155	C	0.107443	0.329122	0.384398
	C156	C	0.876795	0.383408	0.678598
	C157	C	0.106369	0.624122	0.679886
	C158	C	0.877161	0.623414	0.323302
	C159	C	0.106327	0.383791	0.324908
	C160	C	0.373314	0.682282	0.888537
	C161	C	0.614352	0.682311	0.116959
	C162	C	0.608472	0.329748	0.886910
	C163	C	0.371152	0.326324	0.116326
	C164	C	0.665431	0.888295	0.386705
	C165	C	0.670113	0.118801	0.624496
	C166	C	0.314137	0.889029	0.624157
	C167	C	0.315474	0.119938	0.385512
	C168	C	0.871402	0.388708	0.177718
	C169	C	0.113695	0.618966	0.180019
	C170	C	0.109760	0.388838	0.826807
	C171	C	0.872404	0.619083	0.823958
	C172	C	0.167610	0.884764	0.389589
	C173	C	0.169380	0.123921	0.618387
	C174	C	0.813453	0.122784	0.388981
	C175	C	0.814811	0.883006	0.618550
	C176	C	0.376733	0.179255	0.884545
	C177	C	0.606779	0.182235	0.122577
	C178	C	0.377657	0.825816	0.123261
	C179	C	0.607766	0.830773	0.886564
	C180	C	0.377197	0.883004	0.181164
	C181	C	0.606333	0.125903	0.182215
	C182	C	0.377837	0.124400	0.825738
	C183	C	0.606874	0.886479	0.827546
	C184	C	0.872697	0.179305	0.387795
	C185	C	0.112093	0.182041	0.617983
	C186	C	0.108844	0.828697	0.388620
	C187	C	0.872285	0.825254	0.617991
	C188	C	0.166366	0.388757	0.884228
	C189	C	0.169886	0.619158	0.121871
	C190	C	0.814583	0.388925	0.119996
	C191	C	0.816970	0.619943	0.882666
	C192	C	0.393389	0.099736	0.603032
	C193	C	0.589969	0.908447	0.605116
	C194	C	0.590286	0.099543	0.405755
	C195	C	0.391327	0.909050	0.404929
	C196	C	0.591144	0.406300	0.095964
	C197	C	0.592083	0.606189	0.907895
	C198	C	0.393530	0.602324	0.096966
	C199	C	0.389969	0.404115	0.907440
	C200	C	0.086197	0.603345	0.402896
	C201	C	0.896725	0.601033	0.601139
	C202	C	0.086981	0.405735	0.603345
	C203	C	0.897165	0.403930	0.402093
	C204	C	0.895095	0.599625	0.100499
	C205	C	0.089597	0.409023	0.101319
	C206	C	0.090490	0.599948	0.902863
	C207	C	0.890600	0.407927	0.901673
	C208	C	0.090357	0.904141	0.598118
	C209	C	0.091435	0.103921	0.409610
	C210	C	0.893928	0.102361	0.596952
	C211	C	0.888946	0.903222	0.408957
	C212	C	0.587660	0.105670	0.903873
	C213	C	0.396711	0.103132	0.103844
	C214	C	0.587146	0.907179	0.105628
	C215	C	0.397738	0.906557	0.905357
	Zn216	Zn	0.491826	0.005072	0.754105
	Zn217	Zn	0.491120	0.004464	0.255697
	Zn218	Zn	0.742917	0.505134	0.001728
	Zn219	Zn	0.240621	0.504205	0.001973
	Zn220	Zn	-0.008757	0.753038	0.502480
	Zn221	Zn	-0.007704	0.254857	0.502296
	Zn222	Zn	-0.008317	0.504063	0.752906
	Zn223	Zn	-0.008097	0.503493	0.251406
	Zn224	Zn	0.493117	0.755354	0.003970
	Zn225	Zn	0.491362	0.254570	0.002099
	Zn226	Zn	0.740215	0.003468	0.504786
	Zn227	Zn	0.241899	0.003737	0.504040
	N228	N	0.404761	0.967972	0.683688
	N229	N	0.577176	0.041859	0.681786
	N230	N	0.577057	0.967606	0.326591
	N231	N	0.404088	0.041449	0.325237
	N232	N	0.669696	0.419841	0.964673
	N233	N	0.673085	0.592254	0.038469
	N234	N	0.313521	0.590314	0.965674
	N235	N	0.311402	0.417203	0.038543
	N236	N	0.953545	0.680469	0.417359
	N237	N	0.028973	0.680658	0.587203
	N238	N	0.954532	0.326152	0.587401
	N239	N	0.029902	0.327809	0.418226
	N240	N	0.954809	0.417409	0.681351
	N241	N	0.028336	0.590202	0.681471
	N242	N	0.955244	0.590648	0.321769
	N243	N	0.028288	0.416406	0.322419
	N244	N	0.407746	0.682756	0.965891
	N245	N	0.579338	0.683711	0.040061
	N246	N	0.575618	0.327973	0.964594
	N247	N	0.404409	0.324976	0.039033
	N248	N	0.666849	0.966182	0.420649
	N249	N	0.670768	0.040423	0.591602
	N250	N	0.313749	0.966827	0.589936
	N251	N	0.314052	0.041741	0.419317
	N252	N	0.905923	0.466871	0.179514
	N253	N	0.079057	0.540900	0.181268
	N254	N	0.076641	0.467082	0.825069
	N255	N	0.904464	0.540366	0.822068
	N256	N	0.170106	0.917347	0.467460
	N257	N	0.170403	0.089976	0.541144
	N258	N	0.812129	0.089626	0.466926
	N259	N	0.812001	0.916766	0.541066
	N260	N	0.454334	0.180658	0.919022
	N261	N	0.529042	0.182835	0.088461
	N262	N	0.455761	0.825735	0.090310
	N263	N	0.530252	0.829591	0.920580
	N264	N	0.454905	0.917801	0.183692
	N265	N	0.528267	0.092084	0.184654
	N266	N	0.456104	0.092200	0.824082
	N267	N	0.528833	0.919113	0.825339
	N268	N	0.907771	0.180581	0.464721
	N269	N	0.078578	0.183992	0.540395
	N270	N	0.075235	0.827029	0.465891
	N271	N	0.904472	0.823550	0.540096
	N272	N	0.167936	0.467058	0.917455
	N273	N	0.169807	0.541298	0.087753
	N274	N	0.814509	0.467224	0.086395
	N275	N	0.814992	0.541804	0.916431
	O276	O	0.555759	0.521487	0.521870
	H277	H	0.546127	0.522599	0.521973
	H278	H	0.548262	0.529902	0.517402
	O279	O	0.532555	0.451217	0.417198
	H280	H	0.552855	0.446622	0.433845
	H281	H	0.532436	0.448774	0.417620
	O282	O	0.434115	0.391073	0.520484
	H283	H	0.424574	0.379965	0.521533
	H284	H	0.453634	0.393199	0.521247
	O285	O	0.090208	1.052705	0.994343
	H286	H	0.089427	1.045022	0.989572
	H287	H	0.095685	1.051382	0.994353
	O288	O	0.595793	0.467322	0.498062
	H289	H	0.609885	0.469419	0.503638
	H290	H	0.581501	0.461276	0.497038
	O291	O	0.076207	-0.019288	1.019479
	H292	H	0.080078	-0.024719	1.019024
	H293	H	0.077198	-0.023609	1.019146
	O294	O	0.505609	0.538346	0.524348
	H295	H	0.500016	0.535394	0.526655
	H296	H	0.493061	0.546812	0.518389
	O297	O	0.546719	0.479318	0.491226
	H298	H	0.553870	0.499272	0.497417
	H299	H	0.553892	0.480473	0.484252
	O300	O	0.422568	0.568668	0.432104
	H301	H	0.416340	0.567796	0.426922
	H302	H	0.422247	0.552724	0.430635
	O303	O	0.575917	0.419259	0.481138
	H304	H	0.581103	0.424404	0.488705
	H305	H	0.574077	0.418661	0.478892
	O306	O	1.041881	0.006899	1.019848
	H307	H	1.044358	0.000927	1.027355
	H308	H	1.038245	0.030021	1.018299
	O309	O	0.509737	0.497191	0.494872
	H310	H	0.511078	0.499596	0.500385
	H311	H	0.517047	0.497374	0.490233
	O312	O	0.486252	0.492148	0.346704
	H313	H	0.501701	0.486008	0.353995
	H314	H	0.489084	0.497406	0.335688
	O315	O	1.041115	0.058038	1.003969
	H316	H	1.040460	0.050059	1.004759
	H317	H	1.033137	0.056167	1.002774
	O318	O	0.052287	-0.047416	0.006020
	H319	H	0.057112	-0.039330	0.013951
	H320	H	0.048342	-0.045528	0.001135
	O321	O	0.407379	0.599543	0.468501
	H322	H	0.400275	0.594099	0.453853
	H323	H	0.399265	0.602164	0.482236
	O324	O	1.450447	-0.453727	-0.605932
	H325	H	1.451854	-0.452540	-0.604226
	H326	H	1.456080	-0.460621	-0.623565
	O327	O	1.025421	1.046376	0.032414
	H328	H	1.032090	1.054909	0.036031
	H329	H	1.021950	1.052994	0.030622
	O330	O	0.505046	0.561355	0.544749
	H331	H	0.501225	0.554334	0.551451
	H332	H	0.507604	0.561214	0.540744
	O333	O	0.470338	0.593724	0.567162
	H334	H	0.472923	0.602287	0.555272
	H335	H	0.452711	0.589280	0.558549
