data_Molecule from HDF5

_cell_length_a		16.261729
_cell_length_b		16.197183
_cell_length_c		16.283809
_cell_angle_alpha	89.920021
_cell_angle_beta	90.043432
_cell_angle_gamma	89.872833
_symmetry_space_group_name_H-M	'P 1'
_symmetry_Int_Tables_number		1

loop_
	_symmetry_equiv_pos_as_xyz
	x,y,z

loop_
	_atom_site_label
	_atom_site_type_symbol
	_atom_site_fract_x
	_atom_site_fract_y
	_atom_site_fract_z
	H0	H	0.411567	0.835463	0.720906
	H1	H	0.608907	0.163464	0.721810
	H2	H	0.608038	0.834691	0.293176
	H3	H	0.409730	0.163581	0.290706
	H4	H	0.725492	0.401736	0.845031
	H5	H	0.723305	0.598677	0.172310
	H6	H	0.295171	0.598657	0.844095
	H7	H	0.295245	0.400787	0.171680
	H8	H	0.844781	0.712327	0.411190
	H9	H	0.173136	0.715400	0.607195
	H10	H	0.845362	0.288579	0.605890
	H11	H	0.173708	0.285067	0.410562
	H12	H	0.846486	0.402494	0.723332
	H13	H	0.173873	0.599098	0.722027
	H14	H	0.846953	0.599918	0.293578
	H15	H	0.175070	0.401639	0.295290
	H16	H	0.411553	0.712809	0.843183
	H17	H	0.607539	0.714535	0.171014
	H18	H	0.608843	0.286259	0.843824
	H19	H	0.411948	0.285119	0.171947
	H20	H	0.723372	0.834782	0.409294
	H21	H	0.722470	0.163950	0.605261
	H22	H	0.296301	0.835447	0.605582
	H23	H	0.294408	0.164437	0.407607
	H24	H	0.912022	0.336286	0.223447
	H25	H	0.108541	0.665829	0.221622
	H26	H	0.110236	0.336419	0.793850
	H27	H	0.911677	0.665242	0.793875
	H28	H	0.225221	0.899624	0.345158
	H29	H	0.226170	0.100967	0.671298
	H30	H	0.793159	0.100404	0.343458
	H31	H	0.794918	0.902685	0.671007
	H32	H	0.346511	0.214996	0.908018
	H33	H	0.674642	0.211613	0.104679
	H34	H	0.345960	0.786483	0.104419
	H35	H	0.673753	0.786235	0.909804
	H36	H	0.346121	0.899256	0.221321
	H37	H	0.672931	0.098096	0.221683
	H38	H	0.346331	0.098992	0.793003
	H39	H	0.672884	0.899710	0.791999
	H40	H	0.910685	0.215627	0.343813
	H41	H	0.106193	0.212802	0.673015
	H42	H	0.106184	0.787036	0.344392
	H43	H	0.912399	0.786836	0.671402
	H44	H	0.223982	0.335657	0.910270
	H45	H	0.223388	0.665968	0.105353
	H46	H	0.797553	0.335676	0.106953
	H47	H	0.795770	0.665074	0.910353
	H48	H	0.409018	0.118785	0.598577
	H49	H	0.601340	0.883651	0.596166
	H50	H	0.606270	0.115956	0.419528
	H51	H	0.421859	0.883777	0.413718
	H52	H	0.611628	0.406497	0.126889
	H53	H	0.601521	0.593340	0.890898
	H54	H	0.401336	0.587522	0.126996
	H55	H	0.423309	0.403972	0.892674
	H56	H	0.128453	0.592055	0.411123
	H57	H	0.894513	0.584784	0.603840
	H58	H	0.126417	0.407825	0.601895
	H59	H	0.889001	0.401961	0.405528
	H60	H	0.127489	0.406076	0.601805
	H61	H	0.889491	0.599399	0.608138
	H62	H	0.127913	0.598306	0.416039
	H63	H	0.895331	0.403285	0.426310
	H64	H	0.428478	0.584441	0.118964
	H65	H	0.605398	0.593704	0.890252
	H66	H	0.599875	0.411153	0.122079
	H67	H	0.411548	0.404646	0.889925
	H68	H	0.602634	0.119772	0.406019
	H69	H	0.606767	0.880416	0.601119
	H70	H	0.421661	0.118364	0.606594
	H71	H	0.412700	0.883672	0.418474
	H72	H	0.915171	0.616628	0.097192
	H73	H	0.101585	0.382338	0.109665
	H74	H	0.107817	0.618450	0.918115
	H75	H	0.921264	0.383281	0.910307
	H76	H	0.111954	0.912605	0.625849
	H77	H	0.100885	0.096519	0.390428
	H78	H	0.916888	0.093924	0.623370
	H79	H	0.926919	0.900685	0.391837
	H80	H	0.626218	0.093810	0.920610
	H81	H	0.391150	0.100839	0.097771
	H82	H	0.627997	0.910782	0.108202
	H83	H	0.389992	0.905644	0.905503
	H84	H	0.629453	0.897663	0.099335
	H85	H	0.396803	0.088230	0.093170
	H86	H	0.625599	0.085316	0.911178
	H87	H	0.391463	0.900507	0.918873
	H88	H	0.913474	0.096487	0.625758
	H89	H	0.106185	0.090340	0.391756
	H90	H	0.094966	0.912870	0.620727
	H91	H	0.904440	0.898864	0.384435
	H92	H	0.103285	0.620171	0.909284
	H93	H	0.098118	0.386682	0.096960
	H94	H	0.912860	0.620181	0.104126
	H95	H	0.919685	0.385851	0.920381
	H96	H	0.422138	0.113105	0.592001
	H97	H	0.599660	0.881844	0.603343
	H98	H	0.592928	0.113258	0.414721
	H99	H	0.413999	0.880171	0.408717
	H100	H	0.600729	0.398491	0.126141
	H101	H	0.603733	0.590763	0.891649
	H102	H	0.419120	0.609983	0.128570
	H103	H	0.417347	0.414195	0.893364
	H104	H	0.125683	0.591502	0.418008
	H105	H	0.894450	0.596732	0.592918
	H106	H	0.126623	0.405842	0.600780
	H107	H	0.896677	0.421486	0.413229
	H108	H	0.920400	0.616116	0.102461
	H109	H	0.110648	0.382214	0.099218
	H110	H	0.097132	0.615671	0.917175
	H111	H	0.912212	0.381022	0.914753
	H112	H	0.102384	0.898043	0.627703
	H113	H	0.097531	0.089783	0.394100
	H114	H	0.912527	0.092206	0.623840
	H115	H	0.912895	0.919537	0.393732
	H116	H	0.629940	0.097001	0.908764
	H117	H	0.392059	0.088916	0.106219
	H118	H	0.623673	0.911943	0.092936
	H119	H	0.395505	0.914278	0.915687
	C120	C	0.388890	0.008276	0.628062
	C121	C	0.630969	0.990686	0.628645
	C122	C	0.630392	0.007810	0.385164
	C123	C	0.387113	0.991197	0.384541
	C124	C	0.632449	0.377597	0.016661
	C125	C	0.631562	0.621271	0.999226
	C126	C	0.388170	0.621814	0.016195
	C127	C	0.388642	0.378625	0.999936
	C128	C	0.018720	0.622549	0.386690
	C129	C	1.001211	0.622225	0.629794
	C130	C	0.018523	0.378920	0.630072
	C131	C	1.001876	0.379147	0.386736
	C132	C	0.888727	0.508838	0.130172
	C133	C	0.131580	0.492883	0.129517
	C134	C	0.131545	0.508977	0.886724
	C135	C	0.889008	0.491992	0.886507
	C136	C	0.130702	0.879077	0.516635
	C137	C	0.130508	0.121467	0.500412
	C138	C	0.886123	0.122823	0.515693
	C139	C	0.887367	0.878682	0.498472
	C140	C	0.518821	0.121346	0.884971
	C141	C	0.501640	0.120667	0.127915
	C142	C	0.518406	0.877856	0.128405
	C143	C	0.500753	0.878048	0.885238
	C144	C	0.391239	0.884575	0.683206
	C145	C	0.628596	0.114369	0.683880
	C146	C	0.628447	0.883863	0.330750
	C147	C	0.389665	0.114900	0.329281
	C148	C	0.687542	0.380874	0.893645
	C149	C	0.685884	0.618788	0.123022
	C150	C	0.333148	0.619070	0.892699
	C151	C	0.333472	0.380996	0.123008
	C152	C	0.894682	0.676078	0.390170
	C153	C	0.124553	0.677084	0.627189
	C154	C	0.894564	0.325386	0.627095
	C155	C	0.125142	0.323083	0.389820
	C156	C	0.895117	0.381929	0.685332
	C157	C	0.124846	0.619504	0.684396
	C158	C	0.895526	0.620061	0.331738
	C159	C	0.125710	0.381213	0.332624
	C160	C	0.391136	0.675710	0.892273
	C161	C	0.628497	0.676688	0.122505
	C162	C	0.629414	0.323674	0.893092
	C163	C	0.391623	0.323351	0.123120
	C164	C	0.685782	0.884031	0.388195
	C165	C	0.685014	0.114746	0.625809
	C166	C	0.334144	0.884482	0.625633
	C167	C	0.332067	0.115068	0.387013
	C168	C	0.891930	0.385100	0.185317
	C169	C	0.128840	0.616740	0.183981
	C170	C	0.129873	0.385377	0.831796
	C171	C	0.891456	0.616035	0.831962
	C172	C	0.186277	0.880399	0.393637
	C173	C	0.186675	0.119908	0.623005
	C174	C	0.830900	0.120785	0.392590
	C175	C	0.832934	0.881768	0.622224
	C176	C	0.395372	0.177013	0.887614
	C177	C	0.625233	0.174767	0.125571
	C178	C	0.394919	0.823705	0.124982
	C179	C	0.624678	0.823494	0.888573
	C180	C	0.395053	0.879645	0.183206
	C181	C	0.624517	0.118350	0.183713
	C182	C	0.395226	0.119424	0.830247
	C183	C	0.624290	0.879963	0.830246
	C184	C	0.889527	0.177881	0.392574
	C185	C	0.127369	0.176041	0.623560
	C186	C	0.127331	0.824325	0.393228
	C187	C	0.891132	0.824509	0.622554
	C188	C	0.186718	0.385070	0.889546
	C189	C	0.186157	0.616657	0.126546
	C190	C	0.835006	0.384717	0.127314
	C191	C	0.833644	0.615933	0.889475
	C192	C	0.411065	0.094482	0.605495
	C193	C	0.609068	0.904264	0.606602
	C194	C	0.607345	0.094120	0.407052
	C195	C	0.409682	0.904872	0.406864
	C196	C	0.610476	0.398994	0.103048
	C197	C	0.609863	0.599286	0.913294
	C198	C	0.409776	0.600303	0.102375
	C199	C	0.410834	0.401066	0.914003
	C200	C	0.105207	0.600458	0.408607
	C201	C	0.915040	0.600242	0.608023
	C202	C	0.104508	0.400203	0.608025
	C203	C	0.915995	0.402132	0.408622
	C204	C	0.910070	0.595326	0.108119
	C205	C	0.109895	0.406205	0.108167
	C206	C	0.109278	0.595757	0.908428
	C207	C	0.911173	0.405556	0.908543
	C208	C	0.109263	0.901109	0.602456
	C209	C	0.108001	0.098898	0.414335
	C210	C	0.907895	0.100646	0.601966
	C211	C	0.908425	0.900120	0.412471
	C212	C	0.604759	0.098673	0.906953
	C213	C	0.415560	0.099029	0.105580
	C214	C	0.604795	0.900265	0.106693
	C215	C	0.414549	0.900088	0.906963
	Zn216	Zn	0.509749	-0.000618	0.756912
	Zn217	Zn	0.509500	-0.000948	0.256385
	Zn218	Zn	0.760671	0.499940	0.008725
	Zn219	Zn	0.259818	0.500919	0.007912
	Zn220	Zn	0.009728	0.750213	0.507914
	Zn221	Zn	0.009097	0.250624	0.508240
	Zn222	Zn	0.010441	0.500702	0.758300
	Zn223	Zn	0.010783	0.501213	0.258225
	Zn224	Zn	0.509824	0.749907	0.007009
	Zn225	Zn	0.510472	0.249078	0.007370
	Zn226	Zn	0.758066	0.000249	0.506921
	Zn227	Zn	0.259653	0.000219	0.507971
	N228	N	0.424554	0.962591	0.684872
	N229	N	0.595529	0.036272	0.685578
	N230	N	0.594502	0.961805	0.328798
	N231	N	0.423247	0.036811	0.327503
	N232	N	0.689672	0.413524	0.971619
	N233	N	0.688225	0.585274	0.045431
	N234	N	0.331265	0.586223	0.970561
	N235	N	0.331513	0.414654	0.045317
	N236	N	0.972444	0.677635	0.423517
	N237	N	0.046812	0.678660	0.593858
	N238	N	0.972166	0.323466	0.593315
	N239	N	0.047217	0.321791	0.422935
	N240	N	0.973042	0.414609	0.687254
	N241	N	0.047098	0.586145	0.686276
	N242	N	0.973692	0.587201	0.329517
	N243	N	0.048153	0.415115	0.330396
	N244	N	0.424683	0.677680	0.969906
	N245	N	0.595312	0.678176	0.044691
	N246	N	0.596058	0.321490	0.970584
	N247	N	0.424940	0.321559	0.045514
	N248	N	0.686922	0.962083	0.421368
	N249	N	0.686519	0.036897	0.592124
	N250	N	0.332659	0.962484	0.592019
	N251	N	0.330417	0.037252	0.420622
	N252	N	0.924529	0.463365	0.187174
	N253	N	0.095805	0.538657	0.185993
	N254	N	0.096376	0.463443	0.830135
	N255	N	0.925091	0.538000	0.830153
	N256	N	0.188509	0.913831	0.471247
	N257	N	0.188757	0.086937	0.545190
	N258	N	0.828852	0.087409	0.470224
	N259	N	0.830350	0.914592	0.544322
	N260	N	0.473195	0.178550	0.920692
	N261	N	0.547902	0.175938	0.091311
	N262	N	0.472711	0.822721	0.091543
	N263	N	0.546890	0.822071	0.921944
	N264	N	0.472933	0.912810	0.185242
	N265	N	0.546565	0.085326	0.185143
	N266	N	0.472979	0.085706	0.828389
	N267	N	0.546343	0.913274	0.828216
	N268	N	0.922990	0.179392	0.470302
	N269	N	0.093097	0.177070	0.546141
	N270	N	0.093563	0.823444	0.470612
	N271	N	0.924372	0.822368	0.544866
	N272	N	0.187885	0.463068	0.923116
	N273	N	0.188041	0.538585	0.093288
	N274	N	0.833017	0.462481	0.093452
	N275	N	0.831920	0.537751	0.922596
	O276	O	0.486932	0.430383	0.546593
	H277	H	0.485239	0.413970	0.557772
	H278	H	0.487411	0.432230	0.546694
	O279	O	-0.432930	0.418742	-0.510826
	H280	H	-0.427474	0.419306	-0.511799
	H281	H	-0.428212	0.407102	-0.508591
	O282	O	0.523131	0.467501	0.514619
	H283	H	0.529004	0.466595	0.509633
	H284	H	0.511361	0.469214	0.519186
	O285	O	0.554938	0.394346	0.447488
	H286	H	0.564697	0.390564	0.447989
	H287	H	0.556108	0.408565	0.443410
	O288	O	1.016173	0.073940	-0.013132
	H289	H	1.016850	0.070059	-0.017550
	H290	H	1.021080	0.082448	-0.004757
	O291	O	-0.945750	1.070771	-0.939248
	H292	H	-0.945433	1.072565	-0.950001
	H293	H	-0.957659	1.068780	-0.940802
	O294	O	0.511258	0.448502	0.562670
	H295	H	0.510543	0.445082	0.570536
	H296	H	0.494264	0.460502	0.564122
	O297	O	0.024376	1.068240	0.055366
	H298	H	0.022242	1.070664	0.048300
	H299	H	0.021391	1.066936	0.044977
	O300	O	1.037218	0.066450	1.067101
	H301	H	1.045111	0.073181	1.074587
	H302	H	1.040144	0.067999	1.077536
	O303	O	0.536714	0.429551	0.499885
	H304	H	0.534965	0.422862	0.496474
	H305	H	0.535243	0.433414	0.507631
	O306	O	0.024843	1.085557	1.092478
	H307	H	0.030953	1.084264	1.089833
	H308	H	0.020831	1.096249	1.104736
	O309	O	0.541542	0.399131	0.474505
	H310	H	0.542952	0.403187	0.462529
	H311	H	0.544726	0.390447	0.472004
