data_Molecule from HDF5

_cell_length_a		16.352665
_cell_length_b		16.533875
_cell_length_c		16.263170
_cell_angle_alpha	90.225947
_cell_angle_beta	89.741121
_cell_angle_gamma	89.965985
_symmetry_space_group_name_H-M	'P 1'
_symmetry_Int_Tables_number		1

loop_
	_symmetry_equiv_pos_as_xyz
	x,y,z

loop_
	_atom_site_label
	_atom_site_type_symbol
	_atom_site_fract_x
	_atom_site_fract_y
	_atom_site_fract_z
	H0	H	0.394112	0.841502	0.717889
	H1	H	0.604322	0.157636	0.720391
	H2	H	0.604613	0.841890	0.274919
	H3	H	0.396547	0.158888	0.278098
	H4	H	0.722811	0.392522	0.836911
	H5	H	0.717708	0.602381	0.157775
	H6	H	0.280900	0.603383	0.837181
	H7	H	0.278095	0.394939	0.157045
	H8	H	0.844176	0.723007	0.387007
	H9	H	0.158538	0.721380	0.602799
	H10	H	0.842272	0.274653	0.606897
	H11	H	0.158341	0.275117	0.387196
	H12	H	0.839940	0.395207	0.718003
	H13	H	0.160405	0.601680	0.714825
	H14	H	0.839267	0.600113	0.280248
	H15	H	0.159743	0.393636	0.274383
	H16	H	0.393022	0.721145	0.837981
	H17	H	0.606128	0.721854	0.155751
	H18	H	0.611008	0.273739	0.839198
	H19	H	0.392036	0.277735	0.156612
	H20	H	0.721887	0.842446	0.389832
	H21	H	0.724995	0.155851	0.607102
	H22	H	0.277786	0.841665	0.600457
	H23	H	0.277538	0.157510	0.391177
	H24	H	0.894484	0.340531	0.217467
	H25	H	0.103806	0.657673	0.217932
	H26	H	0.106459	0.341423	0.773703
	H27	H	0.896026	0.658048	0.776459
	H28	H	0.217015	0.898916	0.333755
	H29	H	0.218095	0.103358	0.657560
	H30	H	0.780390	0.103063	0.337057
	H31	H	0.776188	0.891058	0.655249
	H32	H	0.341345	0.221397	0.893073
	H33	H	0.658077	0.223505	0.105857
	H34	H	0.340977	0.778638	0.103645
	H35	H	0.658539	0.777350	0.888012
	H36	H	0.338347	0.900454	0.214215
	H37	H	0.660870	0.103192	0.215745
	H38	H	0.338011	0.100396	0.782251
	H39	H	0.659008	0.894750	0.774641
	H40	H	0.893775	0.219298	0.337641
	H41	H	0.107149	0.222425	0.655285
	H42	H	0.108317	0.777081	0.336594
	H43	H	0.891923	0.776278	0.655226
	H44	H	0.223906	0.341673	0.889901
	H45	H	0.220688	0.658140	0.100941
	H46	H	0.776436	0.342419	0.104098
	H47	H	0.778729	0.657454	0.892460
	H48	H	0.398309	0.116025	0.588660
	H49	H	0.590317	0.887310	0.584161
	H50	H	0.592857	0.114771	0.405039
	H51	H	0.408232	0.885821	0.402899
	H52	H	0.590016	0.418787	0.109424
	H53	H	0.589234	0.583636	0.883248
	H54	H	0.409307	0.589673	0.112344
	H55	H	0.406814	0.412661	0.881765
	H56	H	0.114369	0.587882	0.410024
	H57	H	0.885474	0.589769	0.588342
	H58	H	0.114276	0.408641	0.587693
	H59	H	0.885883	0.409195	0.405922
	H60	H	0.112836	0.407187	0.578876
	H61	H	0.886313	0.592001	0.582746
	H62	H	0.114273	0.586231	0.407796
	H63	H	0.886111	0.404679	0.409746
	H64	H	0.413197	0.586897	0.110640
	H65	H	0.584496	0.591965	0.882349
	H66	H	0.580773	0.411081	0.108183
	H67	H	0.419070	0.416174	0.887070
	H68	H	0.585221	0.111226	0.408051
	H69	H	0.585783	0.888540	0.586480
	H70	H	0.413190	0.113971	0.597434
	H71	H	0.412346	0.888141	0.407911
	H72	H	0.915560	0.609107	0.084403
	H73	H	0.091312	0.385475	0.087914
	H74	H	0.098788	0.613852	0.908421
	H75	H	0.909307	0.386976	0.908011
	H76	H	0.093339	0.912312	0.611132
	H77	H	0.088755	0.085507	0.382095
	H78	H	0.920016	0.082771	0.607391
	H79	H	0.908696	0.914670	0.382495
	H80	H	0.613472	0.088049	0.908247
	H81	H	0.385607	0.092627	0.086870
	H82	H	0.616152	0.902180	0.085993
	H83	H	0.382958	0.910106	0.899915
	H84	H	0.611529	0.911572	0.077570
	H85	H	0.386227	0.090423	0.084575
	H86	H	0.613106	0.089421	0.912628
	H87	H	0.384234	0.899857	0.912986
	H88	H	0.914695	0.095570	0.613083
	H89	H	0.086167	0.089099	0.381999
	H90	H	0.083204	0.912066	0.608221
	H91	H	0.919402	0.911937	0.385554
	H92	H	0.087449	0.612774	0.900557
	H93	H	0.084831	0.388980	0.084295
	H94	H	0.902905	0.613408	0.083699
	H95	H	0.913542	0.387484	0.906086
	H96	H	0.412197	0.109419	0.580112
	H97	H	0.587124	0.889576	0.581466
	H98	H	0.592702	0.111676	0.412661
	H99	H	0.405618	0.886999	0.408699
	H100	H	0.591569	0.407449	0.113565
	H101	H	0.593791	0.590706	0.879018
	H102	H	0.413934	0.591531	0.111276
	H103	H	0.417285	0.403015	0.882769
	H104	H	0.115233	0.588767	0.407953
	H105	H	0.887391	0.586000	0.583672
	H106	H	0.110305	0.415259	0.582810
	H107	H	0.887857	0.410292	0.411411
	H108	H	0.909300	0.614365	0.095580
	H109	H	0.091977	0.388140	0.080016
	H110	H	0.087246	0.608146	0.913035
	H111	H	0.912577	0.388963	0.910947
	H112	H	0.087454	0.904165	0.612970
	H113	H	0.090565	0.089256	0.381333
	H114	H	0.905829	0.083551	0.612012
	H115	H	0.912118	0.903374	0.381071
	H116	H	0.611885	0.085275	0.911156
	H117	H	0.385374	0.089416	0.087584
	H118	H	0.613416	0.914724	0.090429
	H119	H	0.389311	0.915327	0.914233
	C120	C	0.376441	0.008323	0.619387
	C121	C	0.620965	0.991652	0.618524
	C122	C	0.622004	0.008496	0.375417
	C123	C	0.377519	0.991511	0.375053
	C124	C	0.621782	0.378171	0.005471
	C125	C	0.621015	0.620809	0.987630
	C126	C	0.379623	0.620829	0.005873
	C127	C	0.380584	0.378879	0.989296
	C128	C	0.009383	0.619475	0.376108
	C129	C	0.991567	0.621253	0.617578
	C130	C	0.008153	0.377562	0.617500
	C131	C	0.991447	0.376199	0.375281
	C132	C	0.877473	0.507681	0.119518
	C133	C	0.121739	0.491469	0.117581
	C134	C	0.123698	0.507586	0.874121
	C135	C	0.879017	0.491557	0.875563
	C136	C	0.121007	0.877782	0.504708
	C137	C	0.121006	0.120670	0.487697
	C138	C	0.879959	0.119569	0.505523
	C139	C	0.879067	0.877105	0.487874
	C140	C	0.507826	0.119764	0.878018
	C141	C	0.491372	0.122548	0.119119
	C142	C	0.508095	0.878906	0.117176
	C143	C	0.490657	0.876672	0.875367
	C144	C	0.375557	0.888883	0.677687
	C145	C	0.623514	0.110074	0.680606
	C146	C	0.623626	0.889788	0.314640
	C147	C	0.377325	0.111039	0.316945
	C148	C	0.683068	0.374364	0.885183
	C149	C	0.679164	0.621613	0.109171
	C150	C	0.320131	0.622116	0.885215
	C151	C	0.318590	0.376389	0.109425
	C152	C	0.890622	0.681245	0.371296
	C153	C	0.111061	0.681074	0.620482
	C154	C	0.889486	0.315999	0.623299
	C155	C	0.110957	0.315842	0.370471
	C156	C	0.888210	0.376089	0.678655
	C157	C	0.111990	0.621707	0.676353
	C158	C	0.888218	0.619710	0.318284
	C159	C	0.111714	0.375202	0.314398
	C160	C	0.376066	0.680913	0.885822
	C161	C	0.623818	0.681351	0.107952
	C162	C	0.627206	0.315148	0.886614
	C163	C	0.375453	0.318278	0.109103
	C164	C	0.682182	0.889908	0.371927
	C165	C	0.683387	0.109214	0.623904
	C166	C	0.317284	0.889074	0.619702
	C167	C	0.318048	0.110539	0.373318
	C168	C	0.876012	0.388623	0.178372
	C169	C	0.122854	0.610338	0.177996
	C170	C	0.125206	0.388859	0.813836
	C171	C	0.877051	0.610445	0.816022
	C172	C	0.179160	0.878608	0.382891
	C173	C	0.179621	0.122428	0.608950
	C174	C	0.819838	0.121399	0.385290
	C175	C	0.817304	0.873838	0.607720
	C176	C	0.388296	0.180420	0.875196
	C177	C	0.610744	0.182794	0.122606
	C178	C	0.388278	0.819596	0.120572
	C179	C	0.610724	0.817044	0.870921
	C180	C	0.387014	0.879946	0.175896
	C181	C	0.611921	0.122737	0.177639
	C182	C	0.386916	0.120312	0.819957
	C183	C	0.610890	0.875640	0.814596
	C184	C	0.876286	0.179603	0.385622
	C185	C	0.124282	0.181800	0.607874
	C186	C	0.125086	0.817864	0.384367
	C187	C	0.874917	0.816203	0.607412
	C188	C	0.183997	0.389036	0.871372
	C189	C	0.181172	0.610626	0.119806
	C190	C	0.816994	0.389327	0.121648
	C191	C	0.818845	0.610434	0.873863
	C192	C	0.400715	0.091344	0.595570
	C193	C	0.595197	0.909805	0.591766
	C194	C	0.597315	0.091128	0.401253
	C195	C	0.401845	0.908610	0.399461
	C196	C	0.595288	0.404796	0.088675
	C197	C	0.596361	0.595849	0.903602
	C198	C	0.404941	0.596360	0.089586
	C199	C	0.406952	0.403532	0.905771
	C200	C	0.092823	0.594650	0.401274
	C201	C	0.908129	0.596435	0.592343
	C202	C	0.090768	0.402904	0.590730
	C203	C	0.908283	0.400806	0.401611
	C204	C	0.902129	0.590615	0.094937
	C205	C	0.096684	0.408925	0.091499
	C206	C	0.098370	0.590128	0.899854
	C207	C	0.904374	0.409384	0.900975
	C208	C	0.095496	0.902401	0.588962
	C209	C	0.095803	0.095404	0.403726
	C210	C	0.905977	0.094372	0.589141
	C211	C	0.905657	0.902606	0.404554
	C212	C	0.591314	0.094649	0.903172
	C213	C	0.407530	0.097940	0.093679
	C214	C	0.592003	0.902645	0.092069
	C215	C	0.407363	0.901360	0.901580
	Zn216	Zn	0.498981	-0.000274	0.748663
	Zn217	Zn	0.499827	0.000249	0.246311
	Zn218	Zn	0.749374	0.499720	-0.003378
	Zn219	Zn	0.252346	0.499231	-0.002797
	Zn220	Zn	0.000614	0.749051	0.495619
	Zn221	Zn	-0.000029	0.248152	0.497081
	Zn222	Zn	0.000428	0.499397	0.746008
	Zn223	Zn	-0.000132	0.499117	0.247392
	Zn224	Zn	0.499907	0.749073	-0.003509
	Zn225	Zn	0.500474	0.249954	-0.002713
	Zn226	Zn	0.751509	-0.000565	0.497122
	Zn227	Zn	0.248249	-0.000456	0.496143
	N228	N	0.411498	0.963922	0.677884
	N229	N	0.585452	0.035911	0.677377
	N230	N	0.587082	0.964567	0.316469
	N231	N	0.413686	0.036087	0.317963
	N232	N	0.680062	0.412700	0.960178
	N233	N	0.677672	0.584784	0.033273
	N234	N	0.322044	0.585534	0.960817
	N235	N	0.321818	0.413348	0.034029
	N236	N	0.966893	0.681009	0.406631
	N237	N	0.034956	0.681167	0.584905
	N238	N	0.964908	0.316809	0.585974
	N239	N	0.035497	0.316524	0.407718
	N240	N	0.962982	0.413900	0.675136
	N241	N	0.036679	0.585198	0.674613
	N242	N	0.963044	0.581979	0.320912
	N243	N	0.036344	0.412008	0.316940
	N244	N	0.412437	0.680081	0.961905
	N245	N	0.588679	0.681186	0.031331
	N246	N	0.589843	0.317485	0.962479
	N247	N	0.413393	0.319742	0.033506
	N248	N	0.681442	0.964846	0.408952
	N249	N	0.682146	0.034590	0.586330
	N250	N	0.317689	0.964413	0.584252
	N251	N	0.318117	0.035369	0.409058
	N252	N	0.912857	0.463361	0.177179
	N253	N	0.086732	0.535274	0.176860
	N254	N	0.088407	0.463588	0.815354
	N255	N	0.913671	0.535607	0.816935
	N256	N	0.176841	0.914951	0.459094
	N257	N	0.177905	0.085398	0.533235
	N258	N	0.821969	0.084925	0.461083
	N259	N	0.819730	0.911127	0.532420
	N260	N	0.464615	0.180574	0.910257
	N261	N	0.534583	0.182875	0.087298
	N262	N	0.464677	0.818663	0.085017
	N263	N	0.535042	0.817747	0.908005
	N264	N	0.462652	0.916129	0.173824
	N265	N	0.536398	0.086388	0.175947
	N266	N	0.462309	0.083263	0.821752
	N267	N	0.535148	0.911649	0.816678
	N268	N	0.912987	0.178544	0.461503
	N269	N	0.088858	0.180832	0.531348
	N270	N	0.089715	0.817107	0.461231
	N271	N	0.912580	0.818116	0.531677
	N272	N	0.183341	0.464035	0.907945
	N273	N	0.180577	0.535528	0.083188
	N274	N	0.817606	0.464487	0.085728
	N275	N	0.819759	0.535430	0.909962
	O276	O	0.437976	0.667271	0.444348
	H277	H	0.446169	0.658413	0.462346
	H278	H	0.437892	0.649331	0.431103
	O279	O	0.282967	0.286929	0.526715
	H280	H	0.277144	0.274255	0.537257
	H281	H	0.272442	0.273500	0.551238
	O282	O	0.532209	0.462995	0.460064
	H283	H	0.519170	0.473224	0.460996
	H284	H	0.526621	0.458504	0.435027
	O285	O	1.121587	1.160892	0.148795
	H286	H	1.130101	1.156558	0.136235
	H287	H	1.125738	1.154261	0.142783
	O288	O	0.296196	0.394426	0.597934
	H289	H	0.322378	0.393170	0.613671
	H290	H	0.277877	0.385586	0.611591
	O291	O	0.358520	0.585177	0.415435
	H292	H	0.334845	0.590244	0.411041
	H293	H	0.373376	0.573003	0.400659
	O294	O	0.871662	0.835713	1.075876
	H295	H	0.862251	0.819858	1.080117
	H296	H	0.857651	0.842930	1.064532
	O297	O	0.416564	0.367875	0.591895
	H298	H	0.441891	0.363387	0.598337
	H299	H	0.420870	0.387809	0.586603
	O300	O	0.333337	0.523606	0.643199
	H301	H	0.332644	0.533366	0.658333
	H302	H	0.336779	0.520206	0.645288
	O303	O	0.376281	0.694377	0.370013
	H304	H	0.374078	0.680342	0.372263
	H305	H	0.379186	0.706160	0.381876
	O306	O	0.151176	0.127689	0.984076
	H307	H	0.153981	0.123087	0.965792
	H308	H	0.159342	0.115235	0.990715
	O309	O	0.809577	0.019812	-0.174592
	H310	H	0.810234	0.048474	-0.161280
	H311	H	0.801473	0.013416	-0.194750
	O312	O	0.688392	0.489962	0.301933
	H313	H	0.666993	0.514256	0.311544
	H314	H	0.701949	0.497523	0.275850
	O315	O	0.481585	0.306312	0.701937
	H316	H	0.481398	0.306144	0.712304
	H317	H	0.498597	0.309946	0.697257
	O318	O	-0.164963	0.136830	-0.116703
	H319	H	-0.172100	0.133240	-0.119271
	H320	H	-0.168667	0.151090	-0.113849
	O321	O	0.535344	0.536452	0.330312
	H322	H	0.516417	0.534400	0.328920
	H323	H	0.528549	0.528442	0.319667
	O324	O	0.916367	-0.166277	1.184154
	H325	H	0.911551	-0.160761	1.184263
	H326	H	0.899868	-0.155360	1.191584
	O327	O	0.678068	0.643004	0.667728
	H328	H	0.669814	0.622623	0.683078
	H329	H	0.663133	0.633294	0.659813
	O330	O	0.014652	1.164181	0.811310
	H331	H	0.013063	1.158840	0.804605
	H332	H	0.014180	1.155888	0.803351
	O333	O	0.017211	0.910910	-0.065447
	H334	H	0.015458	0.909879	-0.059164
	H335	H	0.012798	0.911563	-0.048628
	O336	O	0.992780	0.970432	0.034821
	H337	H	0.982719	0.977934	0.036202
	H338	H	0.995668	0.975921	0.059918
	O339	O	0.161485	1.083908	1.134046
	H340	H	0.171582	1.074594	1.139084
	H341	H	0.172423	1.084693	1.118317
	O342	O	0.674402	0.630285	0.389909
	H343	H	0.680538	0.643515	0.415569
	H344	H	0.656645	0.628896	0.390524
	O345	O	0.042436	0.040492	1.040073
	H346	H	0.037514	0.025457	1.058753
	H347	H	0.063883	0.042555	1.037039
	O348	O	0.554059	0.441740	0.529116
	H349	H	0.566637	0.437609	0.538209
	H350	H	0.529753	0.446560	0.532953
	O351	O	0.306158	0.632865	0.297195
	H352	H	0.290771	0.615923	0.299919
	H353	H	0.313115	0.631889	0.295325
	O354	O	1.205125	0.854166	0.800120
	H355	H	1.201302	0.838024	0.797072
	H356	H	1.195222	0.846440	0.779800
	O357	O	-0.175051	0.040543	-0.041757
	H358	H	-0.174901	0.032815	-0.038202
	H359	H	-0.157386	0.043988	-0.049723
	O360	O	0.707684	0.706360	0.507712
	H361	H	0.718713	0.724674	0.523542
	H362	H	0.707143	0.706364	0.533807
	O363	O	0.906189	0.151328	0.027718
	H364	H	0.906406	0.148906	0.030767
	H365	H	0.898909	0.157521	0.023690
	O366	O	0.141374	-0.097158	1.149406
	H367	H	0.142530	-0.097084	1.141459
	H368	H	0.135636	-0.112657	1.150626
	O369	O	1.007818	-0.156042	0.816893
	H370	H	1.006116	-0.154190	0.809921
	H371	H	1.005006	-0.151926	0.825627
	O372	O	0.449436	0.310867	0.478583
	H373	H	0.444318	0.318179	0.466126
	H374	H	0.433260	0.306019	0.476382
	O375	O	0.158351	-0.004598	0.811179
	H376	H	0.167714	-0.021214	0.798085
	H377	H	0.158111	-0.026825	0.815026
	O378	O	0.486814	0.593754	0.570040
	H379	H	0.467287	0.594221	0.556329
	H380	H	0.479855	0.593662	0.557227
	O381	O	-0.198978	0.987763	0.157268
	H382	H	-0.206351	0.984331	0.173568
	H383	H	-0.193187	1.012031	0.138720
	O384	O	0.545919	0.493095	0.609916
	H385	H	0.548114	0.476047	0.595639
	H386	H	0.556313	0.501800	0.602600
	O387	O	0.484736	0.503443	0.703405
	H388	H	0.489568	0.504797	0.702678
	H389	H	0.489885	0.520584	0.697044
	O390	O	0.847191	0.796372	0.106935
	H391	H	0.837782	0.804033	0.089175
	H392	H	0.829936	0.803537	0.119687
	O393	O	1.187162	-0.066548	0.979051
	H394	H	1.201503	-0.071629	0.974308
	H395	H	1.183342	-0.066663	0.970798
	O396	O	0.350447	0.485623	0.292458
	H397	H	0.347460	0.467722	0.292950
	H398	H	0.335623	0.477584	0.297907
	O399	O	0.634869	0.303328	0.305518
	H400	H	0.627518	0.285778	0.314123
	H401	H	0.659172	0.343137	0.304061
	O402	O	1.010633	0.975804	0.085948
	H403	H	1.005825	0.989886	0.096051
	H404	H	1.015928	0.973464	0.076967
	O405	O	0.302567	0.544618	0.540745
	H406	H	0.316981	0.552945	0.527051
	H407	H	0.300018	0.512740	0.541800
	O408	O	0.696730	0.498676	0.671488
	H409	H	0.708206	0.498642	0.661770
	H410	H	0.695943	0.503221	0.667513
	O411	O	0.948973	1.187440	0.934388
	H412	H	0.947204	1.181476	0.950060
	H413	H	0.959052	1.193108	0.931108
	O414	O	0.694188	0.317013	0.448960
	H415	H	0.699358	0.333252	0.434266
	H416	H	0.705468	0.314542	0.470649
	O417	O	-0.200136	0.936966	1.034486
	H418	H	-0.216754	0.926005	1.050105
	H419	H	-0.195934	0.938454	1.031224
	O420	O	0.051670	1.063122	0.871541
	H421	H	0.047719	1.051996	0.868318
	H422	H	0.031149	1.076624	0.867264
	O423	O	0.007375	1.159884	0.134895
	H424	H	0.018760	1.172027	0.125272
	H425	H	0.025221	1.167812	0.145330
	O426	O	0.500447	0.328702	0.306905
	H427	H	0.524905	0.329804	0.313790
	H428	H	0.507318	0.303936	0.281979
	O429	O	0.471716	0.710992	0.458218
	H430	H	0.476757	0.711777	0.435431
	H431	H	0.452794	0.700873	0.452361
	O432	O	0.553209	0.708552	0.704783
	H433	H	0.552053	0.737184	0.735228
	H434	H	0.545533	0.703828	0.680180
	O435	O	0.053466	-0.191968	-0.090370
	H436	H	0.049895	-0.186542	-0.097979
	H437	H	0.036130	-0.194165	-0.084431
	O438	O	0.028081	0.907649	1.098990
	H439	H	0.019805	0.910523	1.105436
	H440	H	0.023677	0.909385	1.101151
	O441	O	0.628913	0.367714	0.554543
	H442	H	0.619676	0.364802	0.532560
	H443	H	0.647325	0.372774	0.548748
