data_Molecule from HDF5

_cell_length_a		16.199346
_cell_length_b		16.367557
_cell_length_c		16.208352
_cell_angle_alpha	90.006664
_cell_angle_beta	90.002259
_cell_angle_gamma	89.931246
_symmetry_space_group_name_H-M	'P 1'
_symmetry_Int_Tables_number		1

loop_
	_symmetry_equiv_pos_as_xyz
	x,y,z

loop_
	_atom_site_label
	_atom_site_type_symbol
	_atom_site_fract_x
	_atom_site_fract_y
	_atom_site_fract_z
	H0	H	0.399507	0.838881	0.706348
	H1	H	0.602073	0.161849	0.706032
	H2	H	0.600947	0.837926	0.273558
	H3	H	0.396446	0.161290	0.268946
	H4	H	0.718985	0.399982	0.827890
	H5	H	0.715194	0.600630	0.153306
	H6	H	0.285115	0.602188	0.825721
	H7	H	0.286068	0.401170	0.153550
	H8	H	0.837043	0.717074	0.387214
	H9	H	0.160674	0.721379	0.594615
	H10	H	0.837727	0.283597	0.595066
	H11	H	0.163022	0.282946	0.387757
	H12	H	0.836723	0.401505	0.706811
	H13	H	0.162970	0.600988	0.705670
	H14	H	0.837285	0.602035	0.273676
	H15	H	0.164432	0.399793	0.274170
	H16	H	0.400614	0.717226	0.825606
	H17	H	0.606897	0.720383	0.150398
	H18	H	0.606349	0.283709	0.827820
	H19	H	0.398811	0.282830	0.151486
	H20	H	0.718668	0.840270	0.387629
	H21	H	0.714462	0.163427	0.589254
	H22	H	0.283057	0.839280	0.590021
	H23	H	0.283111	0.163447	0.388197
	H24	H	0.901491	0.338910	0.208026
	H25	H	0.102245	0.664187	0.207271
	H26	H	0.099791	0.339318	0.774672
	H27	H	0.896767	0.661744	0.772296
	H28	H	0.215010	0.899798	0.326080
	H29	H	0.215349	0.101326	0.652648
	H30	H	0.785518	0.100816	0.326274
	H31	H	0.784654	0.903844	0.653756
	H32	H	0.340022	0.219432	0.884959
	H33	H	0.664784	0.216597	0.091027
	H34	H	0.338259	0.783359	0.088756
	H35	H	0.665820	0.783737	0.885350
	H36	H	0.337723	0.898484	0.203859
	H37	H	0.664854	0.097758	0.203515
	H38	H	0.337548	0.097919	0.775673
	H39	H	0.665678	0.901771	0.773131
	H40	H	0.897766	0.218860	0.327799
	H41	H	0.102083	0.217264	0.652408
	H42	H	0.100799	0.782605	0.327247
	H43	H	0.894957	0.784127	0.652269
	H44	H	0.218640	0.340754	0.887411
	H45	H	0.217229	0.664295	0.088997
	H46	H	0.784393	0.338948	0.092558
	H47	H	0.785063	0.663037	0.891616
	H48	H	0.406128	0.117758	0.581933
	H49	H	0.593762	0.884720	0.580392
	H50	H	0.594768	0.116344	0.398574
	H51	H	0.406976	0.884354	0.394419
	H52	H	0.595859	0.407855	0.108061
	H53	H	0.596099	0.590440	0.872313
	H54	H	0.409403	0.597501	0.107017
	H55	H	0.417243	0.411751	0.876654
	H56	H	0.118132	0.596907	0.400463
	H57	H	0.883602	0.596576	0.576676
	H58	H	0.119240	0.405378	0.587916
	H59	H	0.885979	0.410627	0.403410
	H60	H	0.115229	0.404281	0.574970
	H61	H	0.883862	0.587555	0.581439
	H62	H	0.114920	0.591361	0.405519
	H63	H	0.884819	0.413252	0.397873
	H64	H	0.409295	0.588186	0.104851
	H65	H	0.590717	0.590223	0.873582
	H66	H	0.589905	0.411752	0.104823
	H67	H	0.409977	0.401949	0.870756
	H68	H	0.591342	0.118081	0.392555
	H69	H	0.591978	0.884675	0.582900
	H70	H	0.407794	0.116443	0.583091
	H71	H	0.410296	0.886397	0.397144
	H72	H	0.909634	0.614095	0.077892
	H73	H	0.086880	0.386280	0.091938
	H74	H	0.096498	0.617297	0.902684
	H75	H	0.906817	0.383692	0.897886
	H76	H	0.100776	0.909027	0.609619
	H77	H	0.087981	0.095233	0.373918
	H78	H	0.906509	0.092361	0.607640
	H79	H	0.911585	0.911299	0.374610
	H80	H	0.616440	0.091335	0.904709
	H81	H	0.384391	0.094863	0.074971
	H82	H	0.618913	0.901025	0.075381
	H83	H	0.384248	0.903407	0.896437
	H84	H	0.614392	0.915257	0.076784
	H85	H	0.386740	0.088074	0.075987
	H86	H	0.618755	0.087900	0.892353
	H87	H	0.387487	0.907603	0.903275
	H88	H	0.908885	0.093706	0.606928
	H89	H	0.091614	0.093331	0.372668
	H90	H	0.086058	0.919812	0.601027
	H91	H	0.909673	0.904411	0.372334
	H92	H	0.093535	0.619649	0.893025
	H93	H	0.088801	0.391384	0.073401
	H94	H	0.903416	0.618302	0.083615
	H95	H	0.913091	0.385793	0.897007
	H96	H	0.407547	0.115469	0.580822
	H97	H	0.590854	0.886073	0.579963
	H98	H	0.588249	0.114128	0.397705
	H99	H	0.405900	0.885502	0.399280
	H100	H	0.588494	0.404216	0.107089
	H101	H	0.592365	0.595375	0.872195
	H102	H	0.416415	0.592435	0.103339
	H103	H	0.404365	0.414487	0.872323
	H104	H	0.116064	0.589606	0.397738
	H105	H	0.880778	0.594766	0.586706
	H106	H	0.114915	0.416669	0.581446
	H107	H	0.883957	0.407978	0.398602
	H108	H	0.912342	0.615880	0.086739
	H109	H	0.104157	0.382307	0.082599
	H110	H	0.086848	0.614622	0.899741
	H111	H	0.909876	0.387242	0.903586
	H112	H	0.082926	0.901699	0.606027
	H113	H	0.088822	0.090900	0.373606
	H114	H	0.906387	0.095189	0.607462
	H115	H	0.904134	0.910282	0.371626
	H116	H	0.621892	0.099997	0.896683
	H117	H	0.384052	0.092376	0.081775
	H118	H	0.620529	0.907629	0.088760
	H119	H	0.385706	0.911390	0.895889
	C120	C	0.377888	0.009411	0.611739
	C121	C	0.621703	0.992482	0.610584
	C122	C	0.621671	0.009208	0.367251
	C123	C	0.377253	0.992171	0.366673
	C124	C	0.622808	0.378923	-0.000921
	C125	C	0.622967	0.621828	0.980641
	C126	C	0.381239	0.622480	-0.002612
	C127	C	0.380077	0.379330	0.980894
	C128	C	0.008788	0.622615	0.369637
	C129	C	0.990354	0.623193	0.612196
	C130	C	0.008709	0.379903	0.611769
	C131	C	0.992336	0.379895	0.369485
	C132	C	0.879039	0.509314	0.113152
	C133	C	0.123455	0.493390	0.112631
	C134	C	0.122084	0.510147	0.868491
	C135	C	0.878939	0.492296	0.869385
	C136	C	0.120664	0.879234	0.498229
	C137	C	0.120275	0.122331	0.481011
	C138	C	0.877754	0.123910	0.499418
	C139	C	0.878010	0.879981	0.481330
	C140	C	0.511139	0.122575	0.867699
	C141	C	0.492774	0.121117	0.108965
	C142	C	0.509962	0.878028	0.109512
	C143	C	0.493795	0.878715	0.867494
	C144	C	0.379379	0.887633	0.668308
	C145	C	0.621292	0.113670	0.667669
	C146	C	0.620694	0.886884	0.311385
	C147	C	0.377301	0.113313	0.308263
	C148	C	0.680863	0.379901	0.876670
	C149	C	0.678466	0.620855	0.103891
	C150	C	0.323753	0.621461	0.874586
	C151	C	0.323724	0.380919	0.103967
	C152	C	0.885821	0.678839	0.368634
	C153	C	0.112534	0.681409	0.612883
	C154	C	0.886188	0.322866	0.612804
	C155	C	0.114657	0.322087	0.369250
	C156	C	0.885490	0.381709	0.668485
	C157	C	0.113666	0.621802	0.668336
	C158	C	0.886197	0.621239	0.312049
	C159	C	0.115525	0.380471	0.312896
	C160	C	0.381283	0.678668	0.874304
	C161	C	0.624319	0.680500	0.102321
	C162	C	0.624474	0.322366	0.876460
	C163	C	0.379626	0.321644	0.102994
	C164	C	0.679387	0.887918	0.368258
	C165	C	0.677481	0.114405	0.609426
	C166	C	0.321279	0.887733	0.610456
	C167	C	0.320304	0.114063	0.367222
	C168	C	0.881166	0.387470	0.169679
	C169	C	0.122231	0.615459	0.168930
	C170	C	0.120612	0.388076	0.812278
	C171	C	0.878235	0.613652	0.811644
	C172	C	0.177540	0.879527	0.375348
	C173	C	0.177069	0.120719	0.603917
	C174	C	0.822647	0.121490	0.375631
	C175	C	0.821853	0.882816	0.604488
	C176	C	0.388456	0.180008	0.866698
	C177	C	0.615719	0.177860	0.109877
	C178	C	0.387223	0.821428	0.108477
	C179	C	0.616727	0.822576	0.867225
	C180	C	0.386816	0.878978	0.165682
	C181	C	0.615667	0.118593	0.165803
	C182	C	0.387179	0.119381	0.812648
	C183	C	0.616689	0.881054	0.810929
	C184	C	0.878209	0.180674	0.376667
	C185	C	0.120399	0.178292	0.604038
	C186	C	0.120273	0.821599	0.375849
	C187	C	0.876794	0.823179	0.603586
	C188	C	0.179206	0.388620	0.868890
	C189	C	0.179611	0.615614	0.110327
	C190	C	0.822585	0.387477	0.112486
	C191	C	0.822310	0.614157	0.870920
	C192	C	0.400648	0.094469	0.588699
	C193	C	0.598842	0.907100	0.587718
	C194	C	0.598264	0.094159	0.389687
	C195	C	0.400735	0.907461	0.390198
	C196	C	0.598440	0.401468	0.084621
	C197	C	0.599796	0.598781	0.894961
	C198	C	0.404974	0.599351	0.082921
	C199	C	0.403709	0.402612	0.895390
	C200	C	0.094135	0.599354	0.394147
	C201	C	0.904889	0.599648	0.588626
	C202	C	0.093979	0.402554	0.588223
	C203	C	0.906935	0.403632	0.393173
	C204	C	0.901838	0.594165	0.089588
	C205	C	0.100102	0.408484	0.089555
	C206	C	0.098901	0.595057	0.891547
	C207	C	0.902961	0.407533	0.892633
	C208	C	0.097020	0.903259	0.583563
	C209	C	0.096364	0.099746	0.395688
	C210	C	0.900706	0.100626	0.585163
	C211	C	0.901513	0.902226	0.395224
	C212	C	0.596699	0.099864	0.890962
	C213	C	0.407319	0.098542	0.084508
	C214	C	0.595828	0.901077	0.086856
	C215	C	0.407990	0.901151	0.891400
	Zn216	Zn	0.501678	0.000659	0.739882
	Zn217	Zn	0.500309	-0.000073	0.237930
	Zn218	Zn	0.749782	0.500144	-0.009155
	Zn219	Zn	0.251876	0.501977	-0.010420
	Zn220	Zn	-0.001467	0.751141	0.489999
	Zn221	Zn	0.000297	0.251176	0.490722
	Zn222	Zn	0.000003	0.501026	0.740001
	Zn223	Zn	0.001478	0.501909	0.242215
	Zn224	Zn	0.502848	0.749939	-0.011726
	Zn225	Zn	0.502054	0.251116	-0.011095
	Zn226	Zn	0.750269	0.001354	0.489777
	Zn227	Zn	0.248749	0.001088	0.489331
	N228	N	0.413641	0.964429	0.669494
	N229	N	0.587220	0.036829	0.668397
	N230	N	0.585359	0.963340	0.310783
	N231	N	0.411742	0.036505	0.307427
	N232	N	0.679806	0.414440	0.953845
	N233	N	0.677738	0.584914	0.027246
	N234	N	0.323608	0.587233	0.952166
	N235	N	0.323902	0.416135	0.027027
	N236	N	0.963015	0.679729	0.403924
	N237	N	0.034888	0.682537	0.578751
	N238	N	0.963763	0.321302	0.578359
	N239	N	0.037004	0.321644	0.403684
	N240	N	0.962557	0.416658	0.667989
	N241	N	0.036682	0.586470	0.668079
	N242	N	0.963713	0.587018	0.312700
	N243	N	0.038507	0.415665	0.312707
	N244	N	0.416272	0.679542	0.951580
	N245	N	0.590373	0.680964	0.024687
	N246	N	0.588831	0.321814	0.953534
	N247	N	0.413701	0.320334	0.025265
	N248	N	0.680110	0.964831	0.402370
	N249	N	0.677824	0.037842	0.574655
	N250	N	0.320330	0.964364	0.575968
	N251	N	0.320116	0.037626	0.402606
	N252	N	0.915254	0.464340	0.170437
	N253	N	0.088263	0.538470	0.170467
	N254	N	0.085877	0.464807	0.811864
	N255	N	0.912717	0.536887	0.810409
	N256	N	0.177699	0.914687	0.452446
	N257	N	0.177194	0.086525	0.526501
	N258	N	0.821962	0.087086	0.452980
	N259	N	0.822473	0.917282	0.527123
	N260	N	0.466396	0.182178	0.900279
	N261	N	0.538161	0.179671	0.075214
	N262	N	0.464961	0.820627	0.074274
	N263	N	0.539147	0.820894	0.901535
	N264	N	0.464163	0.913251	0.166581
	N265	N	0.538270	0.084197	0.165411
	N266	N	0.464303	0.084392	0.813072
	N267	N	0.539222	0.915346	0.811105
	N268	N	0.911732	0.182223	0.454583
	N269	N	0.086200	0.179681	0.526528
	N270	N	0.085817	0.821074	0.453346
	N271	N	0.910898	0.821348	0.525888
	N272	N	0.180590	0.465453	0.902975
	N273	N	0.180831	0.538569	0.076362
	N274	N	0.821044	0.464167	0.078073
	N275	N	0.822623	0.537681	0.906183
	O276	O	0.030318	0.080008	0.100508
	H277	H	0.025576	0.097581	0.095017
	H278	H	0.041330	0.084553	0.106561
	O279	O	0.528955	0.639698	0.558634
	H280	H	0.528212	0.634902	0.567477
	H281	H	0.535924	0.630615	0.559611
	O282	O	0.401203	-0.626430	-0.411960
	H283	H	0.413054	-0.635624	-0.418636
	H284	H	0.391549	-0.632526	-0.401259
	O285	O	0.028106	0.868049	-0.171657
	H286	H	0.038222	0.861253	-0.177758
	H287	H	0.042936	0.858534	-0.156447
	O288	O	0.500557	0.577452	0.368772
	H289	H	0.492483	0.576114	0.365037
	H290	H	0.496172	0.576967	0.369127
	O291	O	1.269103	0.317752	0.705664
	H292	H	1.257028	0.296097	0.692789
	H293	H	1.265639	0.310671	0.708971
	O294	O	1.079291	1.074423	1.112993
	H295	H	1.077316	1.072947	1.105081
	H296	H	1.078875	1.093189	1.123125
	O297	O	0.059197	0.050583	0.119677
	H298	H	0.069471	0.062977	0.103336
	H299	H	0.052845	0.059260	0.129407
	O300	O	0.426080	0.551533	0.351565
	H301	H	0.415457	0.559993	0.336653
	H302	H	0.431156	0.557618	0.357065
	O303	O	0.148099	0.969059	1.061293
	H304	H	0.153162	0.989036	1.061302
	H305	H	0.148361	0.978552	1.070970
	O306	O	0.446253	0.371292	0.467427
	H307	H	0.448474	0.368433	0.453227
	H308	H	0.448497	0.376611	0.459914
	O309	O	0.924503	-0.053546	-0.000054
	H310	H	0.937202	-0.048437	-0.006058
	H311	H	0.941189	-0.062392	-0.000250
	O312	O	0.048287	0.007202	1.080896
	H313	H	0.041928	0.021182	1.096111
	H314	H	0.040885	0.007190	1.084433
	O315	O	0.391468	0.495174	0.486255
	H316	H	0.383685	0.498894	0.475334
	H317	H	0.392847	0.493045	0.502743
	O318	O	1.047342	1.183840	1.058995
	H319	H	1.035206	1.182030	1.049506
	H320	H	1.045977	1.196997	1.065166
	O321	O	0.584928	0.315280	0.504121
	H322	H	0.592845	0.306900	0.499936
	H323	H	0.580389	0.311399	0.499339
	O324	O	0.467394	0.585279	0.523017
	H325	H	0.465014	0.593801	0.513853
	H326	H	0.464668	0.563557	0.529154
	O327	O	-0.147396	1.000273	0.934557
	H328	H	-0.138863	0.988936	0.936268
	H329	H	-0.143184	1.005599	0.930505
	O330	O	0.047698	-0.079053	-0.017280
	H331	H	0.050186	-0.084877	-0.014188
	H332	H	0.053713	-0.087427	-0.022422
	O333	O	-0.456124	1.433694	1.651604
	H334	H	-0.464872	1.436401	1.652055
	H335	H	-0.459557	1.432202	1.651532
	O336	O	0.919828	1.061974	1.010220
	H337	H	0.920319	1.073998	0.988909
	H338	H	0.909985	1.059938	1.014859
	O339	O	0.656835	0.444923	0.367438
	H340	H	0.660399	0.443960	0.372565
	H341	H	0.657762	0.444631	0.378352
	O342	O	1.036369	0.030344	0.038364
	H343	H	1.030474	0.022149	0.022424
	H344	H	1.052325	0.038661	0.042469
	O345	O	0.575293	0.428590	0.340618
	H346	H	0.574321	0.427399	0.337749
	H347	H	0.568043	0.444325	0.345160
	O348	O	0.978518	0.945760	0.930370
	H349	H	0.966360	0.939319	0.933389
	H350	H	0.976152	0.927081	0.935770
	O351	O	0.914685	0.967918	-0.003722
	H352	H	0.910909	0.960846	-0.011041
	H353	H	0.915752	0.967074	0.004761
	O354	O	0.606973	0.583721	0.472061
	H355	H	0.607310	0.588421	0.473256
	H356	H	0.603917	0.587617	0.475682
	O357	O	0.415810	0.619172	0.352173
	H358	H	0.409487	0.615434	0.351507
	H359	H	0.421897	0.623059	0.360004
	O360	O	-0.498766	0.659990	0.490956
	H361	H	-0.492305	0.655237	0.483221
	H362	H	-0.505635	0.666694	0.497309
	O363	O	0.414059	0.401178	0.405631
	H364	H	0.418080	0.414372	0.402989
	H365	H	0.431033	0.411117	0.404050
	O366	O	0.316422	0.497517	0.544884
	H367	H	0.312154	0.504442	0.552722
	H368	H	0.310666	0.489967	0.553329
	O369	O	0.623574	0.496523	0.550029
	H370	H	0.626625	0.494780	0.550025
	H371	H	0.627295	0.494581	0.534694
	O372	O	0.489374	0.643115	0.613030
	H373	H	0.501574	0.632213	0.624495
	H374	H	0.470459	0.641812	0.614926
	O375	O	0.622698	0.541822	0.415403
	H376	H	0.623312	0.536766	0.405701
	H377	H	0.625264	0.567071	0.425585
	O378	O	0.603860	0.500032	0.633312
	H379	H	0.597928	0.494189	0.638862
	H380	H	0.601691	0.488275	0.637461
	O381	O	0.352286	0.517723	0.440780
	H382	H	0.341532	0.512940	0.450710
	H383	H	0.366361	0.508094	0.423142
	O384	O	0.160890	0.918018	-0.123952
	H385	H	0.156656	0.920972	-0.123926
	H386	H	0.165116	0.906776	-0.114478
	O387	O	0.944769	0.079113	1.002594
	H388	H	0.930999	0.087904	0.985806
	H389	H	0.935097	0.079158	0.988982
	O390	O	0.182728	1.004462	-0.123913
	H391	H	0.180311	0.984748	-0.108105
	H392	H	0.196962	0.996818	-0.135473
	O393	O	0.885516	0.942632	-0.078460
	H394	H	0.882154	0.939090	-0.079667
	H395	H	0.887411	0.938583	-0.066759
	O396	O	0.444866	0.397505	0.543612
	H397	H	0.451438	0.415735	0.537594
	H398	H	0.470083	0.394938	0.552780
	O399	O	0.622918	0.398516	1.408357
	H400	H	0.626244	0.417688	1.414577
	H401	H	0.607567	0.391237	1.406144
	O402	O	1.006104	0.960142	1.004559
	H403	H	1.010454	0.973083	1.006568
	H404	H	1.012624	0.963156	1.018618
	O405	O	0.061761	0.127519	0.932182
	H406	H	0.048199	0.122293	0.930252
	H407	H	0.072039	0.102218	0.910127
