data_Molecule from HDF5

_cell_length_a		16.460198
_cell_length_b		16.547130
_cell_length_c		16.582759
_cell_angle_alpha	90.151910
_cell_angle_beta	90.145553
_cell_angle_gamma	89.830937
_symmetry_space_group_name_H-M	'P 1'
_symmetry_Int_Tables_number		1

loop_
	_symmetry_equiv_pos_as_xyz
	x,y,z

loop_
	_atom_site_label
	_atom_site_type_symbol
	_atom_site_fract_x
	_atom_site_fract_y
	_atom_site_fract_z
	H0	H	0.423041	0.871244	0.722228
	H1	H	0.633363	0.184949	0.722291
	H2	H	0.634101	0.871561	0.277744
	H3	H	0.421781	0.183853	0.278328
	H4	H	0.752415	0.420397	0.844449
	H5	H	0.749170	0.631672	0.156957
	H6	H	0.304109	0.634486	0.842618
	H7	H	0.309372	0.426212	0.157370
	H8	H	0.870574	0.748892	0.395833
	H9	H	0.185546	0.750685	0.606892
	H10	H	0.870895	0.306827	0.603580
	H11	H	0.187105	0.308365	0.395989
	H12	H	0.871605	0.421287	0.721790
	H13	H	0.184856	0.635711	0.724225
	H14	H	0.871361	0.633139	0.278721
	H15	H	0.187652	0.425507	0.281411
	H16	H	0.419574	0.752459	0.843651
	H17	H	0.632966	0.749438	0.156779
	H18	H	0.636713	0.302718	0.845603
	H19	H	0.425689	0.309404	0.157105
	H20	H	0.747417	0.869759	0.397800
	H21	H	0.748118	0.186067	0.604322
	H22	H	0.306911	0.870530	0.605291
	H23	H	0.305324	0.183821	0.394313
	H24	H	0.923938	0.370913	0.220307
	H25	H	0.131223	0.685336	0.220028
	H26	H	0.132312	0.371114	0.779265
	H27	H	0.919335	0.683539	0.775505
	H28	H	0.248064	0.923160	0.344093
	H29	H	0.249877	0.133131	0.656802
	H30	H	0.807595	0.129545	0.342090
	H31	H	0.806857	0.922646	0.657237
	H32	H	0.371279	0.249082	0.896688
	H33	H	0.686124	0.248856	0.106372
	H34	H	0.369805	0.809014	0.101864
	H35	H	0.685164	0.804248	0.892672
	H36	H	0.370775	0.923967	0.219911
	H37	H	0.685959	0.131505	0.221083
	H38	H	0.372048	0.133634	0.778830
	H39	H	0.686434	0.922176	0.779499
	H40	H	0.923686	0.247357	0.342233
	H41	H	0.133343	0.250563	0.655763
	H42	H	0.131042	0.807678	0.343805
	H43	H	0.920670	0.804036	0.656302
	H44	H	0.248365	0.371098	0.896765
	H45	H	0.245635	0.687095	0.101003
	H46	H	0.810300	0.370036	0.101392
	H47	H	0.806848	0.684748	0.895484
	H48	H	0.437916	0.138621	0.587106
	H49	H	0.615927	0.916183	0.591689
	H50	H	0.612160	0.138081	0.412219
	H51	H	0.443302	0.916547	0.407587
	H52	H	0.623299	0.436316	0.114539
	H53	H	0.619421	0.619755	0.886758
	H54	H	0.437956	0.613423	0.109025
	H55	H	0.436920	0.443916	0.888916
	H56	H	0.138113	0.611535	0.415782
	H57	H	0.917898	0.622600	0.578020
	H58	H	0.140478	0.439012	0.587148
	H59	H	0.914675	0.434640	0.410528
	H60	H	0.140439	0.441581	0.588451
	H61	H	0.921343	0.605386	0.585000
	H62	H	0.143919	0.615635	0.403432
	H63	H	0.916609	0.441717	0.411269
	H64	H	0.443561	0.621284	0.110352
	H65	H	0.618406	0.612117	0.889074
	H66	H	0.619134	0.443934	0.109756
	H67	H	0.444533	0.437777	0.889529
	H68	H	0.619794	0.140129	0.414536
	H69	H	0.616143	0.916566	0.587151
	H70	H	0.438270	0.140244	0.591833
	H71	H	0.439770	0.916304	0.414931
	H72	H	0.940410	0.639781	0.090801
	H73	H	0.124919	0.412648	0.093071
	H74	H	0.113885	0.640421	0.909146
	H75	H	0.939275	0.415719	0.910729
	H76	H	0.114108	0.937326	0.612920
	H77	H	0.118520	0.116995	0.387243
	H78	H	0.944627	0.124809	0.611667
	H79	H	0.934281	0.940255	0.387800
	H80	H	0.643240	0.118028	0.909362
	H81	H	0.411721	0.125498	0.090316
	H82	H	0.640471	0.945530	0.092490
	H83	H	0.415893	0.944505	0.904517
	H84	H	0.643998	0.933481	0.091325
	H85	H	0.417088	0.117524	0.084074
	H86	H	0.641076	0.117786	0.915192
	H87	H	0.414762	0.932896	0.911065
	H88	H	0.932211	0.120193	0.614410
	H89	H	0.117344	0.116069	0.388532
	H90	H	0.119487	0.939931	0.613917
	H91	H	0.941986	0.941428	0.391515
	H92	H	0.114890	0.640227	0.912642
	H93	H	0.114042	0.416131	0.093192
	H94	H	0.941106	0.639354	0.088204
	H95	H	0.942027	0.415856	0.907784
	H96	H	0.442673	0.138213	0.589482
	H97	H	0.619732	0.915830	0.590080
	H98	H	0.617866	0.141404	0.406674
	H99	H	0.435943	0.913497	0.408261
	H100	H	0.613666	0.435795	0.112055
	H101	H	0.612329	0.616754	0.889172
	H102	H	0.434187	0.621858	0.112895
	H103	H	0.436281	0.435129	0.885774
	H104	H	0.143431	0.625062	0.414412
	H105	H	0.913210	0.618531	0.596091
	H106	H	0.141792	0.439079	0.589726
	H107	H	0.913938	0.439210	0.404620
	H108	H	0.938797	0.640474	0.088850
	H109	H	0.120265	0.417159	0.083800
	H110	H	0.117044	0.641249	0.910087
	H111	H	0.942324	0.417550	0.911422
	H112	H	0.115194	0.942172	0.610993
	H113	H	0.116623	0.117957	0.387559
	H114	H	0.941520	0.111865	0.609809
	H115	H	0.939723	0.933552	0.388676
	H116	H	0.640378	0.112888	0.911261
	H117	H	0.414651	0.115445	0.094911
	H118	H	0.638212	0.939471	0.081688
	H119	H	0.419585	0.944008	0.917328
	C120	C	0.406885	0.035902	0.622091
	C121	C	0.649796	1.019691	0.622102
	C122	C	0.648661	0.036119	0.379393
	C123	C	0.406772	1.018954	0.378301
	C124	C	0.651532	0.405413	0.008942
	C125	C	0.649250	0.648834	0.991429
	C126	C	0.406090	0.650594	0.007150
	C127	C	0.407271	0.407443	0.991553
	C128	C	0.037041	0.649120	0.379294
	C129	C	1.020402	0.649194	0.620655
	C130	C	0.036594	0.407194	0.620218
	C131	C	1.019925	0.407065	0.377769
	C132	C	0.907856	0.536320	0.120696
	C133	C	0.150048	0.519707	0.121171
	C134	C	0.148333	0.536779	0.878717
	C135	C	0.907305	0.519524	0.877421
	C136	C	0.148555	0.907323	0.509018
	C137	C	0.149771	0.149612	0.491340
	C138	C	0.907021	0.149518	0.507991
	C139	C	0.906058	0.905784	0.492436
	C140	C	0.537707	0.149192	0.879582
	C141	C	0.519533	0.149872	0.121725
	C142	C	0.536450	0.907656	0.119999
	C143	C	0.520272	0.906745	0.878207
	C144	C	0.404735	0.918105	0.682187
	C145	C	0.651512	0.138030	0.682038
	C146	C	0.651552	0.917978	0.319057
	C147	C	0.403404	0.136688	0.318206
	C148	C	0.711975	0.402158	0.891369
	C149	C	0.709071	0.650547	0.109937
	C150	C	0.344946	0.652755	0.889576
	C151	C	0.348740	0.407048	0.110085
	C152	C	0.918105	0.708615	0.377574
	C153	C	0.138281	0.710554	0.625007
	C154	C	0.918479	0.346471	0.622511
	C155	C	0.139520	0.347969	0.377158
	C156	C	0.918492	0.403718	0.680993
	C157	C	0.138069	0.653096	0.682862
	C158	C	0.918400	0.651192	0.319286
	C159	C	0.139751	0.406006	0.320096
	C160	C	0.402381	0.711300	0.889920
	C161	C	0.651506	0.709215	0.109653
	C162	C	0.654585	0.343747	0.891926
	C163	C	0.406461	0.348793	0.109944
	C164	C	0.708199	0.917288	0.378467
	C165	C	0.708744	0.138572	0.623594
	C166	C	0.347033	0.917777	0.623899
	C167	C	0.345880	0.136786	0.376256
	C168	C	0.906089	0.417908	0.180039
	C169	C	0.150561	0.638479	0.180049
	C170	C	0.150912	0.418270	0.819199
	C171	C	0.902537	0.637021	0.816681
	C172	C	0.208075	0.905036	0.391004
	C173	C	0.209717	0.151816	0.609555
	C174	C	0.847133	0.149278	0.389576
	C175	C	0.846267	0.903901	0.610141
	C176	C	0.418706	0.209375	0.877485
	C177	C	0.638463	0.208904	0.124424
	C178	C	0.417501	0.848517	0.121178
	C179	C	0.638297	0.845303	0.875362
	C180	C	0.417780	0.905775	0.179611
	C181	C	0.638441	0.150791	0.181630
	C182	C	0.419084	0.151957	0.819230
	C183	C	0.638800	0.903836	0.818792
	C184	C	0.904886	0.207722	0.389296
	C185	C	0.151946	0.210324	0.608997
	C186	C	0.150162	0.847394	0.390956
	C187	C	0.902975	0.844766	0.609541
	C188	C	0.208485	0.418260	0.877565
	C189	C	0.207231	0.639209	0.121005
	C190	C	0.849351	0.417509	0.121017
	C191	C	0.846632	0.637760	0.876280
	C192	C	0.432264	0.117781	0.596648
	C193	C	0.624654	0.937615	0.596993
	C194	C	0.623901	0.118421	0.404085
	C195	C	0.432372	0.936837	0.403130
	C196	C	0.626033	0.431327	0.090781
	C197	C	0.623944	0.623424	0.909866
	C198	C	0.431589	0.625909	0.089230
	C199	C	0.432335	0.431813	0.909611
	C200	C	0.120220	0.624253	0.403907
	C201	C	0.938930	0.622973	0.594240
	C202	C	0.119289	0.432678	0.595528
	C203	C	0.936815	0.431566	0.401844
	C204	C	0.932886	0.618523	0.096246
	C205	C	0.126450	0.436937	0.097162
	C206	C	0.122693	0.619282	0.903514
	C207	C	0.933692	0.437870	0.902675
	C208	C	0.123690	0.932668	0.591116
	C209	C	0.124619	0.124166	0.409069
	C210	C	0.932295	0.125881	0.590382
	C211	C	0.931492	0.931153	0.410503
	C212	C	0.620055	0.123685	0.904867
	C213	C	0.436161	0.126220	0.096770
	C214	C	0.619194	0.932348	0.095502
	C215	C	0.438117	0.932831	0.903634
	Zn216	Zn	0.528905	0.027967	0.750875
	Zn217	Zn	0.528113	0.027825	0.249349
	Zn218	Zn	0.779048	0.528136	-0.000558
	Zn219	Zn	0.278138	0.528821	-0.000448
	Zn220	Zn	0.028361	0.777846	0.500778
	Zn221	Zn	0.028382	0.278938	0.498483
	Zn222	Zn	0.028228	0.528096	0.749051
	Zn223	Zn	0.028731	0.528052	0.250075
	Zn224	Zn	0.528367	0.778585	-0.000975
	Zn225	Zn	0.528832	0.277966	0.000411
	Zn226	Zn	0.777921	0.028046	0.500934
	Zn227	Zn	0.278345	0.027527	0.500277
	N228	N	0.441269	0.992554	0.681224
	N229	N	0.615903	0.063014	0.681430
	N230	N	0.615466	0.992874	0.319245
	N231	N	0.440500	0.062373	0.319164
	N232	N	0.709996	0.440120	0.965148
	N233	N	0.708266	0.614246	0.035461
	N234	N	0.347292	0.615611	0.963527
	N235	N	0.349019	0.442758	0.035437
	N236	N	0.993079	0.707492	0.414031
	N237	N	0.064206	0.708268	0.586928
	N238	N	0.993158	0.348367	0.585615
	N239	N	0.063908	0.348218	0.411991
	N240	N	0.993062	0.440748	0.679570
	N241	N	0.063665	0.615784	0.680596
	N242	N	0.993617	0.615009	0.320187
	N243	N	0.064263	0.441754	0.319885
	N244	N	0.439592	0.710113	0.964047
	N245	N	0.615066	0.708526	0.035058
	N246	N	0.617792	0.345706	0.966091
	N247	N	0.442439	0.348913	0.035252
	N248	N	0.706617	0.991762	0.415245
	N249	N	0.707921	0.064044	0.587196
	N250	N	0.348218	0.992010	0.587214
	N251	N	0.347727	0.062534	0.412872
	N252	N	0.941797	0.492828	0.180040
	N253	N	0.115910	0.563188	0.180442
	N254	N	0.114392	0.493049	0.819886
	N255	N	0.939219	0.562515	0.817064
	N256	N	0.207194	0.941644	0.465404
	N257	N	0.208503	0.114894	0.535341
	N258	N	0.848172	0.114050	0.464534
	N259	N	0.848024	0.941043	0.536320
	N260	N	0.493526	0.207861	0.914208
	N261	N	0.563416	0.208576	0.088094
	N262	N	0.492338	0.849322	0.084866
	N263	N	0.563523	0.846936	0.911596
	N264	N	0.492813	0.941573	0.179063
	N265	N	0.563231	0.114878	0.180252
	N266	N	0.494015	0.115458	0.820285
	N267	N	0.564329	0.941362	0.820371
	N268	N	0.941292	0.208132	0.463790
	N269	N	0.115636	0.209160	0.534291
	N270	N	0.113863	0.848714	0.465386
	N271	N	0.939475	0.845727	0.535129
	N272	N	0.207123	0.493024	0.913712
	N273	N	0.207134	0.564314	0.085229
	N274	N	0.850337	0.492047	0.084796
	N275	N	0.849207	0.563583	0.913293
	O276	O	0.832486	1.226825	0.801977
	H277	H	0.869014	1.230155	0.812016
	H278	H	0.838156	1.236717	0.819012
	O279	O	0.030348	0.231283	1.204026
	H280	H	0.036903	0.240638	1.200037
	H281	H	0.035477	0.248327	1.211371
	O282	O	0.402079	0.557754	0.496426
	H283	H	0.410582	0.553224	0.504871
	H284	H	0.386196	0.556828	0.507315
	O285	O	0.067803	0.087254	1.020008
	H286	H	0.049036	0.082691	1.012375
	H287	H	0.074472	0.095822	1.008010
	O288	O	0.577056	-0.436307	0.305944
	H289	H	0.589217	-0.437147	0.291687
	H290	H	0.565067	-0.428628	0.316060
	O291	O	-0.006083	-0.163507	0.210451
	H292	H	-0.005892	-0.175518	0.209228
	H293	H	-0.002013	-0.172806	0.208780
	O294	O	0.094164	0.013188	0.146905
	H295	H	0.108399	0.033616	0.152018
	H296	H	0.086903	0.018832	0.149981
	O297	O	0.903006	-0.850455	0.199227
	H298	H	0.926899	-0.861262	0.190036
	H299	H	0.912637	-0.870642	0.188761
	O300	O	0.240964	0.052684	0.213661
	H301	H	0.255252	0.080846	0.222317
	H302	H	0.254009	0.069281	0.203369
	O303	O	0.044830	-0.015393	0.141303
	H304	H	0.037194	-0.006144	0.158799
	H305	H	0.060607	-0.012999	0.139326
	O306	O	1.062718	0.224471	-0.007390
	H307	H	1.076712	0.224756	-0.002560
	H308	H	1.055543	0.221806	-0.020055
	O309	O	0.319234	0.353009	0.522775
	H310	H	0.333936	0.358270	0.502774
	H311	H	0.300841	0.336470	0.516057
	O312	O	-0.812440	-0.767267	0.993058
	H313	H	-0.813873	-0.781045	0.988564
	H314	H	-0.802272	-0.766653	0.976349
	O315	O	0.731649	0.480054	0.524784
	H316	H	0.716715	0.478068	0.514347
	H317	H	0.740578	0.476394	0.519561
	O318	O	0.917030	1.110534	-0.067612
	H319	H	0.908798	1.110410	-0.061856
	H320	H	0.906454	1.107636	-0.061060
	O321	O	-0.132728	0.953337	0.937771
	H322	H	-0.140062	0.936171	0.938177
	H323	H	-0.127297	0.963858	0.940765
	O324	O	1.361481	0.364225	1.355430
	H325	H	1.364570	0.384092	1.337421
	H326	H	1.384286	0.377246	1.368557
	O327	O	0.557115	0.315895	0.294857
	H328	H	0.548120	0.328117	0.288264
	H329	H	0.557361	0.309449	0.281031
	O330	O	0.500765	0.361618	0.556932
	H331	H	0.498513	0.362668	0.559956
	H332	H	0.506574	0.381333	0.545081
	O333	O	0.623863	0.518737	0.553691
	H334	H	0.625930	0.514214	0.539656
	H335	H	0.628991	0.517207	0.554962
	O336	O	0.320198	0.739390	0.455841
	H337	H	0.325113	0.738797	0.481146
	H338	H	0.311451	0.739282	0.476054
	O339	O	0.554690	0.476578	0.377219
	H340	H	0.547833	0.472192	0.382787
	H341	H	0.563924	0.473910	0.377601
	O342	O	-0.405731	0.533253	-0.273598
	H343	H	-0.389315	0.546905	-0.264108
	H344	H	-0.411142	0.523293	-0.272789
	O345	O	0.313516	0.561549	0.282776
	H346	H	0.315325	0.594228	0.283110
	H347	H	0.288889	0.576028	0.262411
	O348	O	0.485713	0.734880	0.546218
	H349	H	0.493245	0.723431	0.561073
	H350	H	0.481450	0.731097	0.549922
	O351	O	-0.767585	-0.872355	1.968782
	H352	H	-0.778938	-0.880841	1.959189
	H353	H	-0.770081	-0.868133	1.954414
	O354	O	0.835192	-0.006157	1.144167
	H355	H	0.835728	-0.001934	1.169259
	H356	H	0.831848	-0.012530	1.126498
	O357	O	0.744121	0.719808	0.307287
	H358	H	0.726269	0.714876	0.320868
	H359	H	0.735558	0.710250	0.309569
	O360	O	0.498875	0.319949	0.715536
	H361	H	0.501777	0.328151	0.720630
	H362	H	0.503046	0.310268	0.733886
	O363	O	1.446511	0.443308	0.404915
	H364	H	1.450873	0.452973	0.414574
	H365	H	1.461754	0.451327	0.403835
	O366	O	0.212866	-0.157234	1.188646
	H367	H	0.193960	-0.142152	1.171434
	H368	H	0.202893	-0.135337	1.169589
	O369	O	0.042462	0.141074	0.805373
	H370	H	0.063326	0.138996	0.798142
	H371	H	0.042596	0.119055	0.800952
	O372	O	-0.654046	1.664294	1.618086
	H373	H	-0.648562	1.655478	1.628818
	H374	H	-0.648543	1.647308	1.625465
	O375	O	0.991202	0.040883	-0.031273
	H376	H	0.982119	0.046472	-0.031131
	H377	H	0.991641	0.041761	-0.021538
	O378	O	0.731698	0.327153	0.292333
	H379	H	0.732743	0.311652	0.313143
	H380	H	0.715780	0.307862	0.279489
	O381	O	0.222634	0.838923	-0.191162
	H382	H	0.195057	0.833114	-0.179736
	H383	H	0.210007	0.836662	-0.180089
	O384	O	0.724055	0.729011	0.700764
	H385	H	0.723760	0.704635	0.683984
	H386	H	0.723212	0.735253	0.674140
	O387	O	0.633711	0.476195	0.327085
	H388	H	0.638986	0.475923	0.318292
	H389	H	0.642653	0.470349	0.322271
	O390	O	-0.149425	1.091211	1.009576
	H391	H	-0.155799	1.085043	1.021966
	H392	H	-0.142618	1.078285	1.003343
	O393	O	1.149368	0.146495	0.200389
	H394	H	1.160403	0.147449	0.187863
	H395	H	1.142242	0.157805	0.203487
	O396	O	0.547886	0.312684	0.500676
	H397	H	0.560562	0.312463	0.481601
	H398	H	0.558945	0.316654	0.517295
	O399	O	0.422672	0.544001	0.529972
	H400	H	0.428356	0.552991	0.520953
	H401	H	0.427308	0.537909	0.534155
	O402	O	0.926759	0.196619	0.906723
	H403	H	0.930778	0.199558	0.907997
	H404	H	0.932447	0.184137	0.900176
	O405	O	0.852396	-0.155818	0.187916
	H406	H	0.844424	-0.178346	0.213361
	H407	H	0.873612	-0.136523	0.192300
	O408	O	1.223567	1.169138	0.851818
	H409	H	1.222085	1.154913	0.836786
	H410	H	1.236627	1.181994	0.833989
	O411	O	0.581508	1.735499	0.433720
	H412	H	0.558849	1.728408	0.438633
	H413	H	0.565659	1.747000	0.421166
	O414	O	-0.188223	-0.189468	0.029590
	H415	H	-0.191202	-0.187611	0.067362
	H416	H	-0.211580	-0.206515	0.041654
	O417	O	0.324470	0.734090	0.290006
	H418	H	0.289864	0.766862	0.266463
	H419	H	0.317350	0.738312	0.342029
	O420	O	0.501082	-0.254933	0.280951
	H421	H	0.461075	-0.256441	0.275340
	H422	H	0.488288	-0.239244	0.261612
	O423	O	1.188491	0.952632	-0.214771
	H424	H	1.204727	0.945189	-0.241388
	H425	H	1.175424	0.920294	-0.201254
	O426	O	0.323161	0.323192	0.703231
	H427	H	0.329969	0.317393	0.677005
	H428	H	0.341940	0.330510	0.687789
	O429	O	0.734664	0.737220	0.532600
	H430	H	0.728151	0.736301	0.509867
	H431	H	0.747697	0.735488	0.516913
	O432	O	0.998824	0.037650	0.924134
	H433	H	0.982864	0.032983	0.940783
	H434	H	1.005514	0.039311	0.921390
	O435	O	0.951862	0.992585	0.817014
	H436	H	0.943785	0.975556	0.820510
	H437	H	0.940848	0.990418	0.811987
	O438	O	0.687484	1.364680	-0.308984
	H439	H	0.684834	1.375957	-0.306047
	H440	H	0.688486	1.369843	-0.300829
	O441	O	0.685556	0.345489	0.417696
	H442	H	0.665922	0.359171	0.427123
	H443	H	0.714149	0.332015	0.419174
	O444	O	0.007580	0.838985	0.802384
	H445	H	-0.009391	0.832643	0.804835
	H446	H	-0.005147	0.851252	0.804624
	O447	O	0.049859	0.816987	0.016402
	H448	H	0.032215	0.816720	0.008024
	H449	H	0.046120	0.812912	0.002118
	O450	O	0.747390	-0.468873	-0.322380
	H451	H	0.752093	-0.466357	-0.335469
	H452	H	0.765365	-0.465168	-0.303928
	O453	O	0.553139	0.741393	0.716776
	H454	H	0.559258	0.749199	0.726560
	H455	H	0.574157	0.746754	0.722805
	O456	O	0.148462	0.941189	1.002751
	H457	H	0.146539	0.941447	0.998927
	H458	H	0.133883	0.953749	0.994274
	O459	O	0.496403	0.589991	0.686926
	H460	H	0.495225	0.587710	0.692798
	H461	H	0.486390	0.601638	0.685254
	O462	O	0.314347	0.490990	0.716074
	H463	H	0.307079	0.475284	0.716188
	H464	H	0.306978	0.476987	0.730115
	O465	O	0.681649	0.439956	0.371129
	H466	H	0.682102	0.424274	0.374706
	H467	H	0.706799	0.430507	0.364473
	O468	O	0.171376	-0.152774	-0.011801
	H469	H	0.170906	-0.145299	-0.019671
	H470	H	0.176356	-0.153816	-0.003781
	O471	O	-0.191589	0.056083	-0.222212
	H472	H	-0.191672	0.093668	-0.216062
	H473	H	-0.220744	0.069389	-0.248676
	O474	O	0.958602	1.032227	0.012459
	H475	H	0.953980	1.028542	0.002200
	H476	H	0.961775	1.024746	0.019251
	O477	O	0.430533	0.513727	0.448786
	H478	H	0.424262	0.503908	0.444325
	H479	H	0.428372	0.522883	0.433811
