data_Molecule from HDF5

_cell_length_a		16.298968
_cell_length_b		16.171543
_cell_length_c		16.223536
_cell_angle_alpha	89.789712
_cell_angle_beta	89.894185
_cell_angle_gamma	90.228560
_symmetry_space_group_name_H-M	'P 1'
_symmetry_Int_Tables_number		1

loop_
	_symmetry_equiv_pos_as_xyz
	x,y,z

loop_
	_atom_site_label
	_atom_site_type_symbol
	_atom_site_fract_x
	_atom_site_fract_y
	_atom_site_fract_z
	H0	H	0.402717	0.834900	0.711753
	H1	H	0.599052	0.164823	0.707737
	H2	H	0.600515	0.834943	0.284883
	H3	H	0.405969	0.164599	0.283851
	H4	H	0.716626	0.402599	0.832401
	H5	H	0.719035	0.599800	0.160112
	H6	H	0.290729	0.599097	0.831992
	H7	H	0.287444	0.398549	0.160347
	H8	H	0.838984	0.712527	0.399175
	H9	H	0.166947	0.713259	0.593736
	H10	H	0.838989	0.285294	0.595622
	H11	H	0.166701	0.286521	0.398638
	H12	H	0.839968	0.398958	0.713967
	H13	H	0.166777	0.598188	0.710024
	H14	H	0.840059	0.598689	0.280609
	H15	H	0.166738	0.401875	0.282787
	H16	H	0.407794	0.712578	0.831663
	H17	H	0.601781	0.713612	0.160919
	H18	H	0.599924	0.287246	0.832181
	H19	H	0.405724	0.285766	0.161494
	H20	H	0.715990	0.834867	0.399236
	H21	H	0.717396	0.163494	0.595801
	H22	H	0.287861	0.835427	0.597750
	H23	H	0.289891	0.163535	0.397195
	H24	H	0.903260	0.335301	0.210329
	H25	H	0.103177	0.664007	0.210219
	H26	H	0.099910	0.334436	0.785708
	H27	H	0.907175	0.664629	0.784189
	H28	H	0.218387	0.900480	0.333598
	H29	H	0.217783	0.098713	0.661194
	H30	H	0.788414	0.099899	0.334398
	H31	H	0.788207	0.898724	0.661937
	H32	H	0.339782	0.213046	0.899431
	H33	H	0.667018	0.212794	0.094167
	H34	H	0.339869	0.784321	0.095951
	H35	H	0.667429	0.787031	0.898020
	H36	H	0.339975	0.899831	0.212651
	H37	H	0.665541	0.100120	0.212232
	H38	H	0.339171	0.097507	0.783077
	H39	H	0.666529	0.902044	0.781849
	H40	H	0.905764	0.213441	0.333383
	H41	H	0.100369	0.213155	0.661754
	H42	H	0.100404	0.787369	0.332439
	H43	H	0.905323	0.784995	0.662054
	H44	H	0.217862	0.335291	0.897509
	H45	H	0.218485	0.664214	0.094329
	H46	H	0.786922	0.336662	0.097408
	H47	H	0.790473	0.664108	0.896104
	H48	H	0.411565	0.114126	0.579915
	H49	H	0.593302	0.880739	0.591562
	H50	H	0.603430	0.120311	0.401545
	H51	H	0.414208	0.881839	0.402655
	H52	H	0.596479	0.411848	0.113100
	H53	H	0.593542	0.586493	0.882366
	H54	H	0.411676	0.591623	0.113694
	H55	H	0.413298	0.406839	0.880240
	H56	H	0.119601	0.587866	0.398092
	H57	H	0.887996	0.585851	0.592629
	H58	H	0.118910	0.404968	0.585648
	H59	H	0.885410	0.402743	0.404506
	H60	H	0.117835	0.412381	0.591351
	H61	H	0.883586	0.595799	0.596829
	H62	H	0.122447	0.600406	0.400322
	H63	H	0.887375	0.408472	0.405485
	H64	H	0.409766	0.591797	0.114698
	H65	H	0.594123	0.602055	0.877728
	H66	H	0.592846	0.403525	0.113622
	H67	H	0.409675	0.403762	0.878122
	H68	H	0.591004	0.116474	0.399521
	H69	H	0.595269	0.881678	0.588104
	H70	H	0.399602	0.121181	0.593691
	H71	H	0.409385	0.883144	0.410703
	H72	H	0.912917	0.618852	0.092981
	H73	H	0.091028	0.379494	0.103357
	H74	H	0.101841	0.616727	0.911433
	H75	H	0.916844	0.384326	0.908795
	H76	H	0.109328	0.905919	0.619196
	H77	H	0.090848	0.092198	0.382193
	H78	H	0.902733	0.089842	0.616518
	H79	H	0.906989	0.911927	0.381524
	H80	H	0.621956	0.093992	0.896105
	H81	H	0.388142	0.092980	0.083263
	H82	H	0.621929	0.897715	0.089358
	H83	H	0.394357	0.914846	0.920998
	H84	H	0.616462	0.913472	0.083848
	H85	H	0.386136	0.085105	0.095545
	H86	H	0.620584	0.098051	0.906013
	H87	H	0.383980	0.916110	0.887380
	H88	H	0.914473	0.088062	0.613022
	H89	H	0.099416	0.099117	0.377572
	H90	H	0.090946	0.918862	0.608491
	H91	H	0.913885	0.906598	0.382215
	H92	H	0.103814	0.621265	0.896872
	H93	H	0.087063	0.387567	0.078608
	H94	H	0.916269	0.614521	0.085313
	H95	H	0.901583	0.381017	0.909883
	H96	H	0.418425	0.117182	0.598056
	H97	H	0.597865	0.880056	0.591352
	H98	H	0.596715	0.115243	0.412030
	H99	H	0.404940	0.879705	0.403290
	H100	H	0.601505	0.404922	0.116016
	H101	H	0.607075	0.593362	0.876572
	H102	H	0.409994	0.590924	0.113748
	H103	H	0.408519	0.409071	0.880178
	H104	H	0.117685	0.592841	0.410098
	H105	H	0.886319	0.595178	0.585706
	H106	H	0.121636	0.404104	0.595118
	H107	H	0.884940	0.406397	0.399696
	H108	H	0.907483	0.617924	0.085719
	H109	H	0.110151	0.379070	0.085349
	H110	H	0.089432	0.615634	0.901715
	H111	H	0.909064	0.379520	0.896183
	H112	H	0.087276	0.894517	0.615820
	H113	H	0.101154	0.088051	0.380113
	H114	H	0.910548	0.099542	0.617179
	H115	H	0.906247	0.903296	0.378033
	H116	H	0.617796	0.087479	0.904306
	H117	H	0.382839	0.100007	0.095330
	H118	H	0.621592	0.911511	0.099462
	H119	H	0.381077	0.886123	0.905239
	C120	C	0.381221	0.008234	0.618860
	C121	C	0.623984	0.990127	0.618619
	C122	C	0.625304	0.008761	0.376003
	C123	C	0.382206	0.990896	0.376720
	C124	C	0.624749	0.378749	0.005367
	C125	C	0.626255	0.622347	0.987539
	C126	C	0.383013	0.620490	0.004916
	C127	C	0.381689	0.377856	0.988172
	C128	C	0.011845	0.622056	0.374219
	C129	C	0.994136	0.621186	0.619254
	C130	C	0.011562	0.377809	0.619572
	C131	C	0.994453	0.378057	0.375177
	C132	C	0.882174	0.508615	0.117694
	C133	C	0.125468	0.490696	0.117929
	C134	C	0.125904	0.508567	0.875089
	C135	C	0.882311	0.490917	0.876256
	C136	C	0.124862	0.877812	0.505853
	C137	C	0.125229	0.121846	0.488740
	C138	C	0.881602	0.120621	0.506620
	C139	C	0.881003	0.877990	0.489204
	C140	C	0.511672	0.121308	0.874677
	C141	C	0.493970	0.121177	0.119057
	C142	C	0.511812	0.877979	0.119540
	C143	C	0.494651	0.878066	0.875435
	C144	C	0.383039	0.884273	0.674222
	C145	C	0.620780	0.114964	0.671828
	C146	C	0.621700	0.884306	0.321864
	C147	C	0.385278	0.115131	0.321404
	C148	C	0.678989	0.381761	0.881399
	C149	C	0.681230	0.620143	0.111291
	C150	C	0.328554	0.618962	0.881085
	C151	C	0.326023	0.379345	0.111575
	C152	C	0.888266	0.675548	0.377756
	C153	C	0.117786	0.676150	0.615184
	C154	C	0.887980	0.323002	0.616303
	C155	C	0.117609	0.323953	0.378339
	C156	C	0.888621	0.379226	0.675415
	C157	C	0.117834	0.618799	0.672997
	C158	C	0.888776	0.619109	0.318984
	C159	C	0.117766	0.381066	0.320521
	C160	C	0.386649	0.675763	0.881148
	C161	C	0.622643	0.676278	0.111838
	C162	C	0.621031	0.324375	0.881337
	C163	C	0.384979	0.323338	0.112317
	C164	C	0.679370	0.884557	0.378514
	C165	C	0.679308	0.114412	0.616187
	C166	C	0.326129	0.884316	0.617204
	C167	C	0.327303	0.114538	0.377775
	C168	C	0.883342	0.384652	0.172976
	C169	C	0.123480	0.614825	0.172756
	C170	C	0.121610	0.384194	0.821726
	C171	C	0.886633	0.615535	0.821602
	C172	C	0.180027	0.880440	0.382424
	C173	C	0.179859	0.119286	0.612323
	C174	C	0.826530	0.119443	0.383193
	C175	C	0.825902	0.878894	0.612706
	C176	C	0.388428	0.175573	0.878614
	C177	C	0.617769	0.175685	0.115510
	C178	C	0.388821	0.822193	0.116760
	C179	C	0.618252	0.824350	0.877779
	C180	C	0.388790	0.879387	0.175114
	C181	C	0.617259	0.119491	0.173928
	C182	C	0.388154	0.118236	0.820597
	C183	C	0.617690	0.881191	0.819690
	C184	C	0.884886	0.175852	0.382772
	C185	C	0.121386	0.175976	0.612608
	C186	C	0.121694	0.823884	0.381922
	C187	C	0.884281	0.822570	0.612919
	C188	C	0.179994	0.384370	0.877615
	C189	C	0.180910	0.614889	0.115292
	C190	C	0.825277	0.385490	0.116778
	C191	C	0.828254	0.615112	0.876958
	C192	C	0.403303	0.095079	0.596782
	C193	C	0.602072	0.903365	0.596915
	C194	C	0.603520	0.095034	0.397675
	C195	C	0.403462	0.904129	0.398822
	C196	C	0.603284	0.400149	0.091852
	C197	C	0.604607	0.600503	0.901232
	C198	C	0.404167	0.597998	0.091589
	C199	C	0.403973	0.400024	0.901696
	C200	C	0.097765	0.600394	0.396346
	C201	C	0.908191	0.598904	0.597981
	C202	C	0.097407	0.400457	0.597302
	C203	C	0.908236	0.399572	0.396808
	C204	C	0.905510	0.594950	0.094774
	C205	C	0.102762	0.404420	0.095597
	C206	C	0.104808	0.595389	0.897047
	C207	C	0.902972	0.404078	0.898535
	C208	C	0.102357	0.899916	0.592242
	C209	C	0.103688	0.099672	0.402298
	C210	C	0.902917	0.098687	0.593265
	C211	C	0.902799	0.900593	0.402860
	C212	C	0.597791	0.099683	0.895926
	C213	C	0.407911	0.099169	0.097809
	C214	C	0.597744	0.900842	0.097449
	C215	C	0.408570	0.899405	0.897768
	Zn216	Zn	0.502767	-0.000669	0.746356
	Zn217	Zn	0.503357	0.000055	0.248312
	Zn218	Zn	0.754172	0.500692	-0.003557
	Zn219	Zn	0.253727	0.499658	-0.003706
	Zn220	Zn	0.002702	0.749767	0.496847
	Zn221	Zn	0.003145	0.249547	0.497016
	Zn222	Zn	0.003280	0.499898	0.748573
	Zn223	Zn	0.003470	0.499387	0.246072
	Zn224	Zn	0.503931	0.749462	-0.002897
	Zn225	Zn	0.503355	0.249474	-0.002566
	Zn226	Zn	0.752394	-0.000640	0.498214
	Zn227	Zn	0.253518	-0.000493	0.497777
	N228	N	0.416505	0.962385	0.675440
	N229	N	0.586943	0.036726	0.673526
	N230	N	0.588682	0.962487	0.320022
	N231	N	0.418551	0.037199	0.320406
	N232	N	0.681191	0.415060	0.959310
	N233	N	0.683647	0.587486	0.033137
	N234	N	0.326288	0.585306	0.959087
	N235	N	0.324151	0.412467	0.033415
	N236	N	0.965749	0.677477	0.411326
	N237	N	0.040028	0.677887	0.582417
	N238	N	0.965479	0.321908	0.582350
	N239	N	0.039919	0.322118	0.411589
	N240	N	0.966257	0.412758	0.677449
	N241	N	0.040114	0.585397	0.675724
	N242	N	0.966684	0.586418	0.316796
	N243	N	0.040136	0.414165	0.318606
	N244	N	0.419746	0.676711	0.959171
	N245	N	0.589487	0.677974	0.033885
	N246	N	0.588169	0.322294	0.959425
	N247	N	0.418825	0.322129	0.034497
	N248	N	0.681646	0.962688	0.411463
	N249	N	0.681294	0.035883	0.583803
	N250	N	0.324746	0.962474	0.583509
	N251	N	0.325371	0.036323	0.411497
	N252	N	0.918156	0.462302	0.173739
	N253	N	0.089911	0.536597	0.174704
	N254	N	0.088714	0.462376	0.820285
	N255	N	0.919546	0.537250	0.820930
	N256	N	0.182121	0.913101	0.460662
	N257	N	0.182327	0.086277	0.534303
	N258	N	0.824386	0.085792	0.461240
	N259	N	0.823969	0.912735	0.534824
	N260	N	0.466111	0.177374	0.911805
	N261	N	0.540330	0.176744	0.082106
	N262	N	0.466270	0.821354	0.082920
	N263	N	0.540795	0.822124	0.911752
	N264	N	0.466349	0.913518	0.176848
	N265	N	0.539470	0.086127	0.176286
	N266	N	0.465758	0.085289	0.818205
	N267	N	0.539782	0.913916	0.818282
	N268	N	0.918461	0.176733	0.460398
	N269	N	0.088145	0.177504	0.534719
	N270	N	0.087883	0.822324	0.459648
	N271	N	0.917751	0.821624	0.535000
	N272	N	0.182747	0.462834	0.910117
	N273	N	0.182235	0.536734	0.081964
	N274	N	0.824413	0.463765	0.083195
	N275	N	0.825523	0.536829	0.910238
	O276	O	1.014958	0.993684	0.005634
	H277	H	1.023207	1.004350	-0.000388
	H278	H	1.010622	0.995518	-0.001073
	O279	O	-0.039662	0.001301	0.010501
	H280	H	-0.043900	-0.004060	0.007716
	H281	H	-0.040758	-0.000852	0.022142
	O282	O	-0.012026	-0.054245	1.037832
	H283	H	-0.004535	-0.048913	1.031639
	H284	H	-0.008123	-0.055986	1.031825
	O285	O	0.440014	0.425098	0.499858
	H286	H	0.445554	0.427800	0.491523
	H287	H	0.435500	0.424559	0.490002
	O288	O	0.475637	0.476227	0.460227
	H289	H	0.477482	0.480079	0.467272
	H290	H	0.470521	0.486001	0.465063
	O291	O	0.423659	0.504670	0.500257
	H292	H	0.419497	0.512184	0.496015
	H293	H	0.414150	0.502716	0.503930
	O294	O	-0.081896	-0.005233	0.046202
	H295	H	-0.081593	-0.012515	0.052941
	H296	H	-0.078477	-0.000485	0.046274
	O297	O	0.485592	0.547047	0.527407
	H298	H	0.484201	0.540404	0.541950
	H299	H	0.493103	0.551156	0.531487
	O300	O	0.026544	0.893945	0.983226
	H301	H	0.022402	0.892875	0.988947
	H302	H	0.030826	0.892785	0.978364
	O303	O	0.490736	0.498280	0.454606
	H304	H	0.489986	0.493734	0.457724
	H305	H	0.490785	0.499060	0.455668
	O306	O	0.016360	0.007692	1.071382
	H307	H	0.020336	0.008955	1.079786
	H308	H	0.016988	-0.000861	1.085358
	O309	O	0.990360	0.994129	1.094981
	H310	H	0.984147	0.984679	1.092554
	H311	H	0.977165	0.988174	1.108425
	O312	O	0.497873	0.496440	0.577235
	H313	H	0.491861	0.494058	0.574505
	H314	H	0.494621	0.486604	0.578791
	O315	O	0.459538	0.451905	0.562423
	H316	H	0.453102	0.445860	0.553553
	H317	H	0.461052	0.449195	0.552433
	O318	O	0.017341	0.979634	0.011199
	H319	H	0.011092	0.972465	0.005951
	H320	H	0.024195	0.983862	0.006694
	O321	O	0.955184	0.983675	0.041338
	H322	H	0.955595	0.988646	0.037058
	H323	H	0.952565	0.982922	0.035979
