data_Molecule from HDF5

_cell_length_a		16.175339
_cell_length_b		16.330697
_cell_length_c		16.251452
_cell_angle_alpha	89.938119
_cell_angle_beta	89.749335
_cell_angle_gamma	90.057406
_symmetry_space_group_name_H-M	'P 1'
_symmetry_Int_Tables_number		1

loop_
	_symmetry_equiv_pos_as_xyz
	x,y,z

loop_
	_atom_site_label
	_atom_site_type_symbol
	_atom_site_fract_x
	_atom_site_fract_y
	_atom_site_fract_z
	H0	H	0.401214	0.840840	0.714843
	H1	H	0.600807	0.166844	0.714327
	H2	H	0.600904	0.840717	0.282329
	H3	H	0.402051	0.167146	0.284472
	H4	H	0.714005	0.407589	0.833857
	H5	H	0.712449	0.600355	0.163258
	H6	H	0.288481	0.600489	0.833361
	H7	H	0.285875	0.405824	0.162921
	H8	H	0.836730	0.718637	0.399100
	H9	H	0.165745	0.717288	0.596674
	H10	H	0.836451	0.289101	0.598099
	H11	H	0.165112	0.290625	0.399540
	H12	H	0.835720	0.405808	0.712917
	H13	H	0.165399	0.601551	0.711622
	H14	H	0.835142	0.600441	0.286479
	H15	H	0.164792	0.405705	0.283390
	H16	H	0.401184	0.719773	0.834848
	H17	H	0.599223	0.719162	0.162269
	H18	H	0.599654	0.289562	0.834598
	H19	H	0.399632	0.288484	0.161859
	H20	H	0.715814	0.840241	0.399256
	H21	H	0.714217	0.167277	0.596618
	H22	H	0.286456	0.839947	0.597121
	H23	H	0.286686	0.167100	0.401769
	H24	H	0.901212	0.340650	0.213130
	H25	H	0.098443	0.666461	0.212021
	H26	H	0.100061	0.340558	0.783030
	H27	H	0.903070	0.666907	0.784469
	H28	H	0.214961	0.906653	0.334800
	H29	H	0.210017	0.098652	0.664277
	H30	H	0.787295	0.101546	0.334634
	H31	H	0.786377	0.906053	0.663488
	H32	H	0.335820	0.216936	0.901385
	H33	H	0.664720	0.217896	0.096650
	H34	H	0.335650	0.789263	0.099123
	H35	H	0.665191	0.789658	0.899855
	H36	H	0.335762	0.905607	0.213427
	H37	H	0.665589	0.100691	0.210770
	H38	H	0.335423	0.101094	0.786659
	H39	H	0.665616	0.905495	0.784385
	H40	H	0.901372	0.218750	0.335016
	H41	H	0.099958	0.219557	0.661830
	H42	H	0.101358	0.788492	0.335336
	H43	H	0.899059	0.785754	0.661620
	H44	H	0.215761	0.340203	0.899998
	H45	H	0.213952	0.667290	0.095466
	H46	H	0.786801	0.340291	0.095958
	H47	H	0.787869	0.668008	0.902094
	H48	H	0.407000	0.116258	0.580292
	H49	H	0.595399	0.885812	0.598488
	H50	H	0.596743	0.122113	0.400013
	H51	H	0.398287	0.885352	0.407316
	H52	H	0.594840	0.400777	0.118882
	H53	H	0.595187	0.605999	0.879209
	H54	H	0.404698	0.592733	0.114638
	H55	H	0.410462	0.409344	0.881796
	H56	H	0.118004	0.588635	0.398130
	H57	H	0.884081	0.593994	0.591106
	H58	H	0.118606	0.409600	0.592495
	H59	H	0.883486	0.410179	0.408516
	H60	H	0.118001	0.410048	0.588733
	H61	H	0.883219	0.596149	0.592585
	H62	H	0.121797	0.604692	0.401417
	H63	H	0.882374	0.411117	0.404517
	H64	H	0.411847	0.597302	0.113865
	H65	H	0.600038	0.593367	0.881522
	H66	H	0.599687	0.416402	0.115525
	H67	H	0.408391	0.408941	0.881330
	H68	H	0.586445	0.117166	0.404783
	H69	H	0.585471	0.889853	0.591878
	H70	H	0.393553	0.125719	0.598958
	H71	H	0.411434	0.885867	0.396615
	H72	H	0.897186	0.623964	0.095400
	H73	H	0.090162	0.389305	0.086233
	H74	H	0.095809	0.619393	0.908610
	H75	H	0.908610	0.387471	0.904754
	H76	H	0.092651	0.914141	0.615039
	H77	H	0.095544	0.111015	0.377476
	H78	H	0.905926	0.099383	0.616731
	H79	H	0.903761	0.915433	0.382096
	H80	H	0.616754	0.101090	0.913958
	H81	H	0.381159	0.107450	0.086333
	H82	H	0.617560	0.908182	0.088276
	H83	H	0.383891	0.911508	0.908093
	H84	H	0.615983	0.913813	0.088431
	H85	H	0.386833	0.086854	0.087631
	H86	H	0.616230	0.087375	0.904776
	H87	H	0.383706	0.911345	0.906330
	H88	H	0.907606	0.094562	0.614368
	H89	H	0.105188	0.089812	0.381303
	H90	H	0.087817	0.906486	0.615176
	H91	H	0.916487	0.912364	0.384950
	H92	H	0.096613	0.620452	0.902032
	H93	H	0.098384	0.385697	0.091465
	H94	H	0.914131	0.620328	0.099382
	H95	H	0.905467	0.387080	0.906305
	H96	H	0.418072	0.119223	0.601944
	H97	H	0.596631	0.888317	0.585881
	H98	H	0.596636	0.118813	0.411646
	H99	H	0.413180	0.891333	0.412766
	H100	H	0.583924	0.411924	0.112466
	H101	H	0.586899	0.596447	0.883936
	H102	H	0.404471	0.600719	0.117044
	H103	H	0.408456	0.410963	0.880909
	H104	H	0.114490	0.595584	0.413905
	H105	H	0.884096	0.596924	0.590149
	H106	H	0.116394	0.413627	0.590576
	H107	H	0.882115	0.407245	0.405420
	H108	H	0.908361	0.617274	0.083389
	H109	H	0.088953	0.386758	0.096484
	H110	H	0.090507	0.619134	0.904276
	H111	H	0.905543	0.386645	0.902748
	H112	H	0.096888	0.906277	0.617737
	H113	H	0.082057	0.093191	0.385832
	H114	H	0.910936	0.098838	0.615236
	H115	H	0.907725	0.903266	0.380801
	H116	H	0.621530	0.101815	0.898316
	H117	H	0.379494	0.096982	0.104848
	H118	H	0.619184	0.911060	0.093995
	H119	H	0.383181	0.909622	0.906873
	C120	C	0.378039	0.012313	0.621916
	C121	C	0.621692	0.995544	0.620618
	C122	C	0.622193	0.011348	0.376882
	C123	C	0.379132	0.995527	0.377354
	C124	C	0.622058	0.381777	0.007174
	C125	C	0.622077	0.625992	0.990065
	C126	C	0.378786	0.625392	0.006427
	C127	C	0.379151	0.381802	0.989956
	C128	C	0.009188	0.624932	0.376746
	C129	C	0.992522	0.624649	0.619799
	C130	C	0.008987	0.382200	0.619816
	C131	C	0.991417	0.381721	0.377044
	C132	C	0.878344	0.512539	0.120610
	C133	C	0.121508	0.495120	0.119501
	C134	C	0.122981	0.511660	0.876307
	C135	C	0.878608	0.495204	0.876584
	C136	C	0.122076	0.881139	0.507580
	C137	C	0.122303	0.125541	0.490065
	C138	C	0.879368	0.125537	0.507307
	C139	C	0.879326	0.881470	0.490514
	C140	C	0.509087	0.124740	0.877670
	C141	C	0.491873	0.124944	0.120355
	C142	C	0.508735	0.882437	0.119798
	C143	C	0.492421	0.882705	0.877717
	C144	C	0.381016	0.889285	0.676808
	C145	C	0.620510	0.118170	0.676284
	C146	C	0.620752	0.889142	0.320804
	C147	C	0.381699	0.118444	0.322377
	C148	C	0.676378	0.385992	0.883005
	C149	C	0.675821	0.622005	0.114065
	C150	C	0.325364	0.621604	0.882599
	C151	C	0.323545	0.385199	0.113683
	C152	C	0.885600	0.680096	0.379296
	C153	C	0.116562	0.679368	0.616510
	C154	C	0.885326	0.327234	0.618045
	C155	C	0.116012	0.328005	0.379163
	C156	C	0.884991	0.385165	0.675149
	C157	C	0.116283	0.622159	0.674249
	C158	C	0.884827	0.621593	0.323281
	C159	C	0.115827	0.385126	0.321677
	C160	C	0.381203	0.681140	0.883403
	C161	C	0.619556	0.681071	0.113444
	C162	C	0.619811	0.327324	0.883552
	C163	C	0.379991	0.326837	0.113292
	C164	C	0.677728	0.888878	0.379308
	C165	C	0.677168	0.118420	0.617840
	C166	C	0.323609	0.888952	0.618662
	C167	C	0.324421	0.118434	0.380799
	C168	C	0.880734	0.389413	0.175449
	C169	C	0.119097	0.617938	0.174176
	C170	C	0.120328	0.389059	0.821139
	C171	C	0.881770	0.618326	0.822014
	C172	C	0.177454	0.885340	0.383889
	C173	C	0.174599	0.120968	0.614597
	C174	C	0.824852	0.122189	0.383558
	C175	C	0.824065	0.884818	0.614188
	C176	C	0.385072	0.179558	0.880522
	C177	C	0.615780	0.179855	0.117239
	C178	C	0.384870	0.827250	0.118750
	C179	C	0.616264	0.827947	0.879548
	C180	C	0.384883	0.884919	0.175497
	C181	C	0.616073	0.121901	0.174074
	C182	C	0.384762	0.121767	0.823677
	C183	C	0.616345	0.885421	0.822372
	C184	C	0.881154	0.180833	0.383824
	C185	C	0.119517	0.180672	0.613501
	C186	C	0.121128	0.826528	0.384162
	C187	C	0.879968	0.825067	0.613328
	C188	C	0.177868	0.388815	0.879002
	C189	C	0.176541	0.618240	0.116302
	C190	C	0.824015	0.389218	0.117217
	C191	C	0.824459	0.618804	0.880334
	C192	C	0.399726	0.098137	0.599936
	C193	C	0.599226	0.910086	0.598370
	C194	C	0.599878	0.097218	0.398951
	C195	C	0.401196	0.909590	0.399159
	C196	C	0.599609	0.403253	0.093206
	C197	C	0.600445	0.604738	0.903834
	C198	C	0.400564	0.603527	0.092863
	C199	C	0.402274	0.403520	0.903608
	C200	C	0.095768	0.602790	0.398175
	C201	C	0.905936	0.602329	0.597720
	C202	C	0.095258	0.404428	0.597292
	C203	C	0.905028	0.403234	0.399574
	C204	C	0.899968	0.598338	0.099055
	C205	C	0.099179	0.409323	0.097746
	C206	C	0.100734	0.597495	0.898309
	C207	C	0.900170	0.409453	0.898138
	C208	C	0.099088	0.902591	0.593720
	C209	C	0.100579	0.104457	0.403809
	C210	C	0.901513	0.103850	0.593166
	C211	C	0.902373	0.903814	0.404816
	C212	C	0.595879	0.103114	0.899342
	C213	C	0.404944	0.103447	0.099030
	C214	C	0.595189	0.904446	0.096959
	C215	C	0.405909	0.904369	0.900516
	Zn216	Zn	0.500429	0.003750	0.749884
	Zn217	Zn	0.500469	0.003594	0.247959
	Zn218	Zn	0.749792	0.504099	-0.001101
	Zn219	Zn	0.250912	0.503130	-0.001814
	Zn220	Zn	0.000803	0.752618	0.498246
	Zn221	Zn	0.000711	0.253768	0.498332
	Zn222	Zn	0.001074	0.503558	0.747988
	Zn223	Zn	0.000290	0.503301	0.248932
	Zn224	Zn	0.500102	0.754256	-0.001438
	Zn225	Zn	0.500144	0.253122	-0.001365
	Zn226	Zn	0.750819	0.003852	0.499030
	Zn227	Zn	0.249725	0.003690	0.499386
	N228	N	0.414109	0.966926	0.678961
	N229	N	0.586491	0.040936	0.678068
	N230	N	0.586903	0.966338	0.319349
	N231	N	0.415039	0.040975	0.320251
	N232	N	0.678022	0.419077	0.960705
	N233	N	0.677367	0.588586	0.036399
	N234	N	0.323604	0.587920	0.960275
	N235	N	0.323041	0.418690	0.035805
	N236	N	0.963905	0.682154	0.411980
	N237	N	0.038399	0.680880	0.583462
	N238	N	0.963295	0.325627	0.584047
	N239	N	0.037980	0.325882	0.413088
	N240	N	0.963036	0.418672	0.676290
	N241	N	0.038138	0.588920	0.676324
	N242	N	0.962807	0.587883	0.321572
	N243	N	0.037591	0.417873	0.320331
	N244	N	0.413723	0.683409	0.961488
	N245	N	0.586690	0.683593	0.035599
	N246	N	0.586639	0.324691	0.961786
	N247	N	0.413985	0.324830	0.035494
	N248	N	0.678727	0.966026	0.413382
	N249	N	0.677993	0.041235	0.583917
	N250	N	0.321758	0.966207	0.585197
	N251	N	0.322696	0.041030	0.414215
	N252	N	0.913967	0.466982	0.177706
	N253	N	0.085569	0.540541	0.176243
	N254	N	0.087014	0.466584	0.819373
	N255	N	0.914704	0.540752	0.819687
	N256	N	0.178114	0.918658	0.461619
	N257	N	0.176389	0.087362	0.537075
	N258	N	0.823313	0.088688	0.461200
	N259	N	0.823379	0.919057	0.536745
	N260	N	0.463301	0.181347	0.913415
	N261	N	0.537310	0.182145	0.084888
	N262	N	0.462898	0.825479	0.084729
	N263	N	0.538155	0.826038	0.913281
	N264	N	0.462927	0.918469	0.176166
	N265	N	0.538128	0.088121	0.175672
	N266	N	0.462841	0.088360	0.821886
	N267	N	0.538209	0.918548	0.821147
	N268	N	0.914573	0.182828	0.461593
	N269	N	0.087532	0.183437	0.535208
	N270	N	0.087419	0.823864	0.461910
	N271	N	0.913638	0.823135	0.535544
	N272	N	0.179517	0.466016	0.912543
	N273	N	0.177964	0.540761	0.082856
	N274	N	0.822457	0.466562	0.083790
	N275	N	0.822463	0.541284	0.913782
	O276	O	0.003230	-0.075273	1.001341
	H277	H	0.005413	-0.075471	1.000917
	H278	H	0.008715	-0.075964	0.994945
	O279	O	0.545890	0.462500	0.518561
	H280	H	0.551862	0.453677	0.524295
	H281	H	0.551054	0.458442	0.521258
	O282	O	0.514333	0.502946	0.508157
	H283	H	0.503162	0.509339	0.495243
	H284	H	0.504579	0.509159	0.510887
	O285	O	0.507540	0.521110	0.545591
	H286	H	0.505628	0.521740	0.553253
	H287	H	0.509727	0.517805	0.535869
	O288	O	0.535944	0.489381	0.479719
	H289	H	0.551223	0.498287	0.482046
	H290	H	0.527325	0.484185	0.486910
	O291	O	0.020127	0.933899	0.996054
	H292	H	0.016168	0.927646	0.997612
	H293	H	0.014355	0.935870	0.992755
	O294	O	0.472386	0.511038	0.470036
	H295	H	0.466047	0.509483	0.467766
	H296	H	0.486208	0.508721	0.469232
	O297	O	0.991865	-0.079498	-0.020435
	H298	H	0.989316	-0.088214	-0.021645
	H299	H	0.993396	-0.080120	-0.017067
