data_Molecule from HDF5

_cell_length_a		16.289699
_cell_length_b		16.197046
_cell_length_c		16.230421
_cell_angle_alpha	89.772764
_cell_angle_beta	89.665091
_cell_angle_gamma	90.155882
_symmetry_space_group_name_H-M	'P 1'
_symmetry_Int_Tables_number		1

loop_
	_symmetry_equiv_pos_as_xyz
	x,y,z

loop_
	_atom_site_label
	_atom_site_type_symbol
	_atom_site_fract_x
	_atom_site_fract_y
	_atom_site_fract_z
	H0	H	0.415466	0.831352	0.720678
	H1	H	0.611905	0.161375	0.717253
	H2	H	0.613592	0.831985	0.292395
	H3	H	0.417617	0.160229	0.291346
	H4	H	0.730826	0.397418	0.841473
	H5	H	0.729919	0.595721	0.168638
	H6	H	0.301145	0.596917	0.841495
	H7	H	0.298195	0.396272	0.168813
	H8	H	0.851004	0.709972	0.407849
	H9	H	0.178075	0.711649	0.602923
	H10	H	0.851701	0.280621	0.605079
	H11	H	0.178794	0.282880	0.405795
	H12	H	0.852158	0.395763	0.721906
	H13	H	0.178565	0.594928	0.717964
	H14	H	0.850701	0.594798	0.291355
	H15	H	0.177447	0.398662	0.289789
	H16	H	0.418581	0.711081	0.840744
	H17	H	0.612809	0.709689	0.169851
	H18	H	0.612819	0.284431	0.840455
	H19	H	0.415986	0.282453	0.169831
	H20	H	0.728855	0.831953	0.406962
	H21	H	0.729247	0.160607	0.604009
	H22	H	0.297799	0.832730	0.607280
	H23	H	0.303235	0.161238	0.407833
	H24	H	0.914198	0.332036	0.220786
	H25	H	0.112979	0.660705	0.218030
	H26	H	0.113374	0.332144	0.792139
	H27	H	0.918286	0.660449	0.791145
	H28	H	0.230407	0.897830	0.342433
	H29	H	0.227277	0.095740	0.669259
	H30	H	0.800479	0.096537	0.341802
	H31	H	0.798504	0.895988	0.669440
	H32	H	0.350848	0.210871	0.907129
	H33	H	0.678682	0.210729	0.101585
	H34	H	0.351751	0.780030	0.106350
	H35	H	0.679518	0.785226	0.907679
	H36	H	0.351232	0.895768	0.222162
	H37	H	0.678520	0.094945	0.219292
	H38	H	0.352079	0.097131	0.790449
	H39	H	0.678350	0.899515	0.789947
	H40	H	0.918711	0.209370	0.341125
	H41	H	0.110648	0.208970	0.669572
	H42	H	0.113544	0.783774	0.340895
	H43	H	0.915503	0.781077	0.669107
	H44	H	0.228685	0.332626	0.906328
	H45	H	0.229256	0.660749	0.103445
	H46	H	0.798062	0.332586	0.105736
	H47	H	0.802323	0.660549	0.905663
	H48	H	0.433174	0.112742	0.606903
	H49	H	0.616180	0.875830	0.601241
	H50	H	0.607512	0.114114	0.411308
	H51	H	0.410676	0.874091	0.410121
	H52	H	0.607838	0.398011	0.124943
	H53	H	0.610382	0.600948	0.884398
	H54	H	0.428618	0.591906	0.120397
	H55	H	0.421561	0.403660	0.888239
	H56	H	0.133668	0.589894	0.401540
	H57	H	0.900278	0.587618	0.592375
	H58	H	0.130553	0.403426	0.593671
	H59	H	0.894875	0.396290	0.409893
	H60	H	0.131950	0.405938	0.600787
	H61	H	0.899501	0.581450	0.603305
	H62	H	0.131665	0.598444	0.416255
	H63	H	0.899439	0.402262	0.421433
	H64	H	0.414252	0.591232	0.125311
	H65	H	0.617758	0.583896	0.887591
	H66	H	0.612268	0.407429	0.122357
	H67	H	0.421180	0.404340	0.888092
	H68	H	0.608462	0.113440	0.412823
	H69	H	0.597399	0.879428	0.605862
	H70	H	0.422423	0.108331	0.584057
	H71	H	0.430655	0.879560	0.407578
	H72	H	0.920451	0.617310	0.108041
	H73	H	0.109495	0.381937	0.084166
	H74	H	0.114286	0.615333	0.913878
	H75	H	0.914348	0.376939	0.913700
	H76	H	0.100815	0.897212	0.623129
	H77	H	0.105147	0.093302	0.388357
	H78	H	0.918379	0.092167	0.624931
	H79	H	0.916542	0.908953	0.388196
	H80	H	0.633684	0.096199	0.911086
	H81	H	0.399099	0.080448	0.106472
	H82	H	0.632685	0.902381	0.099653
	H83	H	0.396875	0.899263	0.913782
	H84	H	0.630956	0.903817	0.097038
	H85	H	0.394219	0.098057	0.102729
	H86	H	0.629573	0.088901	0.915106
	H87	H	0.399828	0.905454	0.917262
	H88	H	0.917932	0.083233	0.621888
	H89	H	0.114865	0.093404	0.385514
	H90	H	0.113743	0.902742	0.624478
	H91	H	0.927515	0.904791	0.390227
	H92	H	0.108435	0.615910	0.905623
	H93	H	0.117385	0.373750	0.106860
	H94	H	0.931676	0.608814	0.094238
	H95	H	0.926630	0.377477	0.907984
	H96	H	0.408319	0.119224	0.603504
	H97	H	0.604062	0.882688	0.587054
	H98	H	0.609712	0.115044	0.411001
	H99	H	0.421437	0.882190	0.426093
	H100	H	0.602141	0.404953	0.120484
	H101	H	0.600401	0.586759	0.891528
	H102	H	0.420626	0.579170	0.119959
	H103	H	0.421937	0.404437	0.888192
	H104	H	0.127620	0.581844	0.415228
	H105	H	0.894862	0.593589	0.601685
	H106	H	0.133125	0.398149	0.599357
	H107	H	0.898734	0.409759	0.409345
	H108	H	0.913176	0.614483	0.090288
	H109	H	0.093848	0.381606	0.102989
	H110	H	0.105019	0.611897	0.914140
	H111	H	0.924808	0.381948	0.920734
	H112	H	0.103058	0.910280	0.619932
	H113	H	0.110791	0.084038	0.388738
	H114	H	0.925551	0.088431	0.621088
	H115	H	0.919456	0.897850	0.385185
	H116	H	0.632365	0.088092	0.906513
	H117	H	0.400555	0.087546	0.089853
	H118	H	0.631006	0.905343	0.099955
	H119	H	0.398224	0.905849	0.910787
	C120	C	0.392029	0.004885	0.628273
	C121	C	0.635189	0.988087	0.626141
	C122	C	0.636738	0.005146	0.383744
	C123	C	0.393337	0.987578	0.385283
	C124	C	0.636089	0.375390	0.013695
	C125	C	0.637086	0.618554	0.996680
	C126	C	0.393413	0.617424	0.013616
	C127	C	0.392245	0.374586	0.996512
	C128	C	0.023024	0.618071	0.382824
	C129	C	1.006261	0.617414	0.627012
	C130	C	0.023787	0.373545	0.627495
	C131	C	1.006088	0.375185	0.384348
	C132	C	0.892453	0.505117	0.127208
	C133	C	0.135579	0.487788	0.126057
	C134	C	0.137117	0.505646	0.883252
	C135	C	0.893965	0.487435	0.884488
	C136	C	0.135635	0.875083	0.514139
	C137	C	0.136591	0.118280	0.496223
	C138	C	0.893161	0.117240	0.514003
	C139	C	0.891990	0.874301	0.496557
	C140	C	0.523593	0.119363	0.882898
	C141	C	0.506322	0.117762	0.127284
	C142	C	0.523588	0.873985	0.128249
	C143	C	0.506359	0.875560	0.884503
	C144	C	0.394603	0.880888	0.683597
	C145	C	0.632477	0.112274	0.679683
	C146	C	0.633923	0.880921	0.329766
	C147	C	0.396914	0.111229	0.329447
	C148	C	0.692269	0.377899	0.890251
	C149	C	0.691837	0.615957	0.119979
	C150	C	0.338955	0.616756	0.890322
	C151	C	0.336241	0.376134	0.119852
	C152	C	0.899650	0.672214	0.386540
	C153	C	0.129210	0.673310	0.623237
	C154	C	0.900553	0.318635	0.625304
	C155	C	0.129658	0.320871	0.386109
	C156	C	0.900956	0.375503	0.683783
	C157	C	0.129471	0.615505	0.680740
	C158	C	0.899723	0.615134	0.328686
	C159	C	0.129127	0.378119	0.328212
	C160	C	0.397331	0.673482	0.890051
	C161	C	0.633454	0.672330	0.120546
	C162	C	0.633701	0.321654	0.889591
	C163	C	0.394785	0.319502	0.120358
	C164	C	0.691452	0.881189	0.386430
	C165	C	0.691170	0.111516	0.623771
	C166	C	0.336154	0.881453	0.627172
	C167	C	0.340021	0.111663	0.387115
	C168	C	0.894100	0.381181	0.182894
	C169	C	0.133190	0.611791	0.180235
	C170	C	0.134113	0.381505	0.829069
	C171	C	0.897609	0.611407	0.829140
	C172	C	0.191979	0.877600	0.391087
	C173	C	0.190176	0.115915	0.620217
	C174	C	0.838611	0.116097	0.390615
	C175	C	0.836215	0.875687	0.620215
	C176	C	0.399989	0.173348	0.886649
	C177	C	0.629695	0.173043	0.123324
	C178	C	0.400392	0.818407	0.126269
	C179	C	0.630113	0.821711	0.886557
	C180	C	0.400287	0.875466	0.184295
	C181	C	0.629594	0.115383	0.181416
	C182	C	0.400665	0.116932	0.828316
	C183	C	0.629651	0.878310	0.828017
	C184	C	0.897219	0.172378	0.390267
	C185	C	0.132291	0.172251	0.620274
	C186	C	0.133614	0.821094	0.390315
	C187	C	0.893764	0.818156	0.620087
	C188	C	0.191496	0.381707	0.885822
	C189	C	0.190890	0.611762	0.123182
	C190	C	0.836547	0.381466	0.125663
	C191	C	0.839885	0.611425	0.885883
	C192	C	0.414612	0.091213	0.605120
	C193	C	0.612511	0.901528	0.604448
	C194	C	0.614986	0.091660	0.405273
	C195	C	0.414584	0.900926	0.407879
	C196	C	0.613883	0.397021	0.100250
	C197	C	0.615770	0.596955	0.910121
	C198	C	0.414729	0.594241	0.099829
	C199	C	0.415045	0.397403	0.910343
	C200	C	0.108927	0.596448	0.404495
	C201	C	0.920246	0.594403	0.605325
	C202	C	0.109670	0.396049	0.604709
	C203	C	0.919842	0.396570	0.406836
	C204	C	0.915173	0.591381	0.104366
	C205	C	0.113380	0.401399	0.104444
	C206	C	0.115661	0.592003	0.904799
	C207	C	0.915566	0.401142	0.907240
	C208	C	0.112566	0.896798	0.600296
	C209	C	0.116274	0.096633	0.409953
	C210	C	0.914385	0.094626	0.600374
	C211	C	0.914390	0.897182	0.410230
	C212	C	0.609651	0.097478	0.904381
	C213	C	0.420195	0.095374	0.105871
	C214	C	0.609350	0.897007	0.105545
	C215	C	0.420534	0.897068	0.907250
	Zn216	Zn	0.514584	-0.003496	0.755531
	Zn217	Zn	0.514996	-0.004324	0.256727
	Zn218	Zn	0.764723	0.496917	0.005430
	Zn219	Zn	0.264199	0.496711	0.004846
	Zn220	Zn	0.013981	0.746411	0.505105
	Zn221	Zn	0.015200	0.245653	0.505275
	Zn222	Zn	0.015295	0.495713	0.756366
	Zn223	Zn	0.014308	0.496122	0.254744
	Zn224	Zn	0.515170	0.746366	0.005844
	Zn225	Zn	0.514683	0.246912	0.004727
	Zn226	Zn	0.763997	-0.003794	0.505203
	Zn227	Zn	0.264370	-0.003470	0.505846
	N228	N	0.428561	0.958784	0.684493
	N229	N	0.598428	0.034388	0.681432
	N230	N	0.600443	0.958930	0.328018
	N231	N	0.429496	0.032938	0.328217
	N232	N	0.693998	0.410505	0.968559
	N233	N	0.694064	0.583160	0.041974
	N234	N	0.336661	0.582592	0.967958
	N235	N	0.334555	0.409497	0.041761
	N236	N	0.977193	0.674337	0.419488
	N237	N	0.051448	0.674387	0.590433
	N238	N	0.977859	0.317342	0.591146
	N239	N	0.052022	0.318899	0.420260
	N240	N	0.978647	0.409321	0.685008
	N241	N	0.052084	0.581397	0.683149
	N242	N	0.977498	0.582164	0.326358
	N243	N	0.051352	0.410922	0.326949
	N244	N	0.430268	0.674258	0.968024
	N245	N	0.600146	0.674007	0.042801
	N246	N	0.599358	0.320193	0.967206
	N247	N	0.428932	0.318442	0.042614
	N248	N	0.693178	0.959335	0.419284
	N249	N	0.692641	0.033280	0.591129
	N250	N	0.334378	0.959585	0.593636
	N251	N	0.337751	0.033757	0.421120
	N252	N	0.928207	0.459001	0.183828
	N253	N	0.099392	0.533809	0.182042
	N254	N	0.101163	0.459552	0.827128
	N255	N	0.930448	0.533265	0.828150
	N256	N	0.193509	0.910118	0.469156
	N257	N	0.192895	0.082778	0.542320
	N258	N	0.836205	0.082344	0.468399
	N259	N	0.834912	0.909724	0.542237
	N260	N	0.477438	0.174873	0.919928
	N261	N	0.552081	0.174411	0.090138
	N262	N	0.477842	0.817384	0.092253
	N263	N	0.552654	0.819899	0.920988
	N264	N	0.477956	0.909285	0.185807
	N265	N	0.552075	0.081489	0.183857
	N266	N	0.478397	0.084048	0.825988
	N267	N	0.551930	0.911240	0.826743
	N268	N	0.930306	0.173396	0.468154
	N269	N	0.099697	0.173782	0.542335
	N270	N	0.099075	0.819491	0.467935
	N271	N	0.927875	0.817455	0.542453
	N272	N	0.193349	0.459694	0.918934
	N273	N	0.192428	0.533623	0.090242
	N274	N	0.835370	0.459437	0.091771
	N275	N	0.837576	0.533474	0.919807
	O276	O	0.469830	0.507982	0.460209
	H277	H	0.479134	0.504587	0.458074
	H278	H	0.463184	0.508243	0.454097
	O279	O	-0.527195	0.485372	-0.490910
	H280	H	-0.527085	0.485216	-0.488268
	H281	H	-0.529113	0.481916	-0.487748
	O282	O	0.446440	0.500742	0.546411
	H283	H	0.449232	0.498584	0.554139
	H284	H	0.450534	0.506469	0.544515
	O285	O	0.064950	0.941287	1.055939
	H286	H	0.068992	0.952215	1.059668
	H287	H	0.071002	0.941788	1.055423
	O288	O	1.060739	0.018517	-0.024129
	H289	H	1.065518	0.014109	-0.028302
	H290	H	1.055042	0.021459	-0.031589
	O291	O	-0.961080	1.013653	-0.998227
	H292	H	-0.955985	1.003063	-1.005262
	H293	H	-0.958977	1.006031	-0.995543
	O294	O	0.492297	0.511670	0.488334
	H295	H	0.481745	0.505596	0.477617
	H296	H	0.492961	0.514362	0.491869
	O297	O	0.068699	0.991193	0.041441
	H298	H	0.065808	0.988329	0.035655
	H299	H	0.077571	0.997698	0.045925
	O300	O	1.029188	-0.056257	0.996752
	H301	H	1.022762	-0.062998	1.002564
	H302	H	1.026152	-0.060100	0.999765
	O303	O	0.494172	0.524019	0.502748
	H304	H	0.497927	0.522956	0.496864
	H305	H	0.498884	0.530072	0.503022
	O306	O	0.052246	1.004473	1.037029
	H307	H	0.051707	1.010054	1.048457
	H308	H	0.047136	1.011018	1.037435
	O309	O	0.447806	0.481092	0.515116
	H310	H	0.449234	0.482215	0.519432
	H311	H	0.436955	0.480289	0.520289
