data_Molecule from HDF5

_cell_length_a		16.274354
_cell_length_b		16.202553
_cell_length_c		16.114048
_cell_angle_alpha	89.576143
_cell_angle_beta	90.618343
_cell_angle_gamma	89.260817
_symmetry_space_group_name_H-M	'P 1'
_symmetry_Int_Tables_number		1

loop_
	_symmetry_equiv_pos_as_xyz
	x,y,z

loop_
	_atom_site_label
	_atom_site_type_symbol
	_atom_site_fract_x
	_atom_site_fract_y
	_atom_site_fract_z
	H0	H	0.403650	0.835267	0.711832
	H1	H	0.593994	0.165342	0.712453
	H2	H	0.595612	0.836444	0.288631
	H3	H	0.393945	0.165270	0.280615
	H4	H	0.712218	0.399891	0.833278
	H5	H	0.712530	0.596603	0.162678
	H6	H	0.277332	0.606330	0.835820
	H7	H	0.287456	0.401792	0.163702
	H8	H	0.834461	0.720041	0.395160
	H9	H	0.161258	0.712156	0.598492
	H10	H	0.833288	0.286092	0.599040
	H11	H	0.159705	0.282765	0.401042
	H12	H	0.831846	0.403961	0.711952
	H13	H	0.160402	0.596555	0.714761
	H14	H	0.832731	0.602382	0.282094
	H15	H	0.161062	0.401768	0.289012
	H16	H	0.395344	0.716428	0.833119
	H17	H	0.596366	0.710461	0.163960
	H18	H	0.597800	0.285658	0.833726
	H19	H	0.401200	0.285655	0.162702
	H20	H	0.713153	0.837557	0.401277
	H21	H	0.711125	0.164891	0.599908
	H22	H	0.285604	0.835994	0.599308
	H23	H	0.276366	0.163715	0.392933
	H24	H	0.904096	0.336251	0.211538
	H25	H	0.092170	0.667274	0.210958
	H26	H	0.096033	0.335818	0.787967
	H27	H	0.895673	0.665611	0.783275
	H28	H	0.211855	0.901223	0.333492
	H29	H	0.214298	0.100217	0.662323
	H30	H	0.778012	0.105097	0.335215
	H31	H	0.788696	0.902992	0.663822
	H32	H	0.335343	0.220599	0.894213
	H33	H	0.661274	0.211696	0.100351
	H34	H	0.332541	0.786233	0.096369
	H35	H	0.659990	0.782798	0.901758
	H36	H	0.332724	0.902907	0.212627
	H37	H	0.660830	0.095059	0.214470
	H38	H	0.334096	0.102303	0.781416
	H39	H	0.662295	0.901614	0.790267
	H40	H	0.893952	0.218357	0.334376
	H41	H	0.095115	0.210362	0.664583
	H42	H	0.094714	0.788155	0.331431
	H43	H	0.902326	0.787981	0.662567
	H44	H	0.214465	0.337594	0.901494
	H45	H	0.212927	0.665035	0.100832
	H46	H	0.787472	0.335924	0.097308
	H47	H	0.776981	0.663633	0.894120
	H48	H	0.405764	0.119423	0.593740
	H49	H	0.599763	0.879326	0.602926
	H50	H	0.592430	0.119473	0.411135
	H51	H	0.406512	0.885517	0.412107
	H52	H	0.587149	0.408979	0.113672
	H53	H	0.590469	0.590524	0.880082
	H54	H	0.409172	0.592858	0.115087
	H55	H	0.410929	0.404603	0.879988
	H56	H	0.109164	0.583078	0.412650
	H57	H	0.880686	0.593307	0.587098
	H58	H	0.114983	0.400376	0.594077
	H59	H	0.880699	0.411195	0.406281
	H60	H	0.111682	0.406843	0.590060
	H61	H	0.878834	0.596691	0.592923
	H62	H	0.118312	0.593007	0.393150
	H63	H	0.878646	0.411017	0.402604
	H64	H	0.404272	0.597219	0.119678
	H65	H	0.584470	0.591604	0.881339
	H66	H	0.593816	0.398043	0.118849
	H67	H	0.396500	0.409777	0.877504
	H68	H	0.588276	0.121115	0.399893
	H69	H	0.586484	0.885086	0.594316
	H70	H	0.407551	0.115216	0.585482
	H71	H	0.398272	0.881710	0.406484
	H72	H	0.901862	0.618946	0.088066
	H73	H	0.089963	0.383906	0.098717
	H74	H	0.079012	0.615077	0.909281
	H75	H	0.920198	0.387750	0.905341
	H76	H	0.094032	0.907380	0.616453
	H77	H	0.087604	0.080837	0.383793
	H78	H	0.912390	0.100465	0.617382
	H79	H	0.899156	0.908553	0.377367
	H80	H	0.616201	0.095413	0.904051
	H81	H	0.382933	0.087412	0.087974
	H82	H	0.611934	0.907066	0.091440
	H83	H	0.381182	0.909704	0.907564
	H84	H	0.614919	0.904921	0.097455
	H85	H	0.377719	0.098588	0.094247
	H86	H	0.614405	0.094382	0.910217
	H87	H	0.379806	0.911595	0.901040
	H88	H	0.894512	0.096246	0.621340
	H89	H	0.075707	0.097668	0.382693
	H90	H	0.091270	0.906293	0.615698
	H91	H	0.903005	0.914074	0.380253
	H92	H	0.094559	0.618414	0.913205
	H93	H	0.093287	0.386204	0.087424
	H94	H	0.901885	0.618826	0.089181
	H95	H	0.897381	0.384375	0.920654
	H96	H	0.398152	0.117583	0.587424
	H97	H	0.601772	0.882895	0.587763
	H98	H	0.580678	0.117240	0.408564
	H99	H	0.408145	0.882926	0.401220
	H100	H	0.600393	0.410066	0.116838
	H101	H	0.587945	0.595896	0.878060
	H102	H	0.401422	0.590422	0.117384
	H103	H	0.406634	0.419816	0.883484
	H104	H	0.115724	0.605409	0.411704
	H105	H	0.878796	0.599773	0.587701
	H106	H	0.113614	0.407086	0.598380
	H107	H	0.878973	0.407432	0.405101
	H108	H	0.902713	0.618781	0.088305
	H109	H	0.099909	0.380960	0.095317
	H110	H	0.088557	0.621764	0.897982
	H111	H	0.897107	0.377235	0.893615
	H112	H	0.093859	0.904732	0.616841
	H113	H	0.094505	0.098686	0.375961
	H114	H	0.907186	0.083441	0.613211
	H115	H	0.906380	0.908979	0.378782
	H116	H	0.614457	0.089488	0.905887
	H117	H	0.381224	0.098474	0.081279
	H118	H	0.614403	0.900355	0.092925
	H119	H	0.378193	0.905655	0.902782
	C120	C	0.376774	0.008679	0.619258
	C121	C	0.621635	0.991684	0.622312
	C122	C	0.617054	0.010246	0.378944
	C123	C	0.374115	0.992080	0.375764
	C124	C	0.621214	0.377548	0.007189
	C125	C	0.617496	0.620472	0.989189
	C126	C	0.374839	0.623429	0.007971
	C127	C	0.377616	0.381519	0.989404
	C128	C	0.006179	0.624061	0.375639
	C129	C	0.988267	0.622839	0.619309
	C130	C	0.004797	0.377693	0.622055
	C131	C	0.987789	0.379394	0.377402
	C132	C	0.876158	0.509892	0.118527
	C133	C	0.121133	0.492540	0.122204
	C134	C	0.117755	0.509951	0.878476
	C135	C	0.874421	0.491780	0.875995
	C136	C	0.120227	0.878052	0.506648
	C137	C	0.116562	0.120759	0.489657
	C138	C	0.873983	0.123768	0.508418
	C139	C	0.876704	0.881476	0.488599
	C140	C	0.506652	0.123345	0.876296
	C141	C	0.488735	0.121678	0.118905
	C142	C	0.504951	0.877179	0.121194
	C143	C	0.488211	0.878995	0.877273
	C144	C	0.381682	0.885029	0.674750
	C145	C	0.615718	0.115805	0.675664
	C146	C	0.615936	0.885879	0.325330
	C147	C	0.374560	0.115871	0.318797
	C148	C	0.674871	0.380174	0.882679
	C149	C	0.674248	0.617195	0.113517
	C150	C	0.316744	0.624520	0.884340
	C151	C	0.324174	0.382028	0.113962
	C152	C	0.883164	0.681251	0.375639
	C153	C	0.112106	0.675174	0.618030
	C154	C	0.882049	0.323801	0.619317
	C155	C	0.111080	0.322264	0.381091
	C156	C	0.881460	0.382499	0.675432
	C157	C	0.111519	0.617909	0.676284
	C158	C	0.882553	0.622998	0.319259
	C159	C	0.111722	0.381324	0.324979
	C160	C	0.375301	0.679555	0.883248
	C161	C	0.616265	0.673628	0.114214
	C162	C	0.617954	0.323128	0.882922
	C163	C	0.380938	0.324242	0.113552
	C164	C	0.674405	0.886701	0.381457
	C165	C	0.674366	0.115588	0.619828
	C166	C	0.322935	0.885260	0.618534
	C167	C	0.316034	0.115181	0.374663
	C168	C	0.882182	0.385416	0.173750
	C169	C	0.114901	0.617366	0.175033
	C170	C	0.116090	0.385346	0.825303
	C171	C	0.875434	0.615879	0.820157
	C172	C	0.174268	0.880829	0.382410
	C173	C	0.174916	0.119351	0.613513
	C174	C	0.816571	0.124247	0.384383
	C175	C	0.824812	0.883185	0.613771
	C176	C	0.383956	0.181238	0.875445
	C177	C	0.612203	0.174686	0.119271
	C178	C	0.381763	0.823452	0.117666
	C179	C	0.611551	0.822089	0.881258
	C180	C	0.381689	0.881710	0.175374
	C181	C	0.612024	0.116759	0.176204
	C182	C	0.383323	0.122275	0.819421
	C183	C	0.612812	0.881181	0.825863
	C184	C	0.874349	0.180498	0.384020
	C185	C	0.115524	0.174126	0.614661
	C186	C	0.115935	0.824657	0.381772
	C187	C	0.881627	0.826137	0.613288
	C188	C	0.175430	0.386225	0.881336
	C189	C	0.174713	0.616355	0.120030
	C190	C	0.824121	0.385281	0.117308
	C191	C	0.816319	0.614867	0.875394
	C192	C	0.397595	0.095185	0.595649
	C193	C	0.601733	0.904720	0.601293
	C194	C	0.593905	0.096892	0.400241
	C195	C	0.397503	0.905773	0.399609
	C196	C	0.599933	0.399118	0.094068
	C197	C	0.594348	0.598921	0.902278
	C198	C	0.398117	0.600182	0.094825
	C199	C	0.398644	0.404684	0.902713
	C200	C	0.092138	0.600688	0.399002
	C201	C	0.901870	0.602508	0.596115
	C202	C	0.091154	0.398608	0.600573
	C203	C	0.901769	0.402709	0.398496
	C204	C	0.896176	0.596311	0.095317
	C205	C	0.100584	0.406275	0.100313
	C206	C	0.094484	0.596048	0.900415
	C207	C	0.897899	0.405429	0.899596
	C208	C	0.099367	0.899728	0.593827
	C209	C	0.092980	0.098824	0.403265
	C210	C	0.897766	0.100393	0.595040
	C211	C	0.896769	0.903989	0.401198
	C212	C	0.592781	0.099992	0.899782
	C213	C	0.402707	0.101029	0.095002
	C214	C	0.591455	0.897964	0.100212
	C215	C	0.402180	0.902234	0.897565
	Zn216	Zn	0.498278	0.000418	0.749049
	Zn217	Zn	0.496548	0.000517	0.249361
	Zn218	Zn	0.746821	0.499828	-0.002266
	Zn219	Zn	0.248288	0.502118	-0.000939
	Zn220	Zn	-0.002750	0.751758	0.497545
	Zn221	Zn	-0.003824	0.250016	0.499338
	Zn222	Zn	-0.003862	0.500738	0.749059
	Zn223	Zn	-0.002814	0.501688	0.248260
	Zn224	Zn	0.496436	0.749224	-0.001527
	Zn225	Zn	0.498219	0.251837	-0.001896
	Zn226	Zn	0.747932	0.001821	0.499147
	Zn227	Zn	0.246973	0.000884	0.497835
	N228	N	0.414276	0.962903	0.675286
	N229	N	0.583643	0.037745	0.677637
	N230	N	0.580765	0.963530	0.323639
	N231	N	0.409933	0.038209	0.319397
	N232	N	0.676962	0.413364	0.961004
	N233	N	0.675332	0.584917	0.034685
	N234	N	0.316135	0.590503	0.962882
	N235	N	0.322235	0.417019	0.035986
	N236	N	0.960951	0.681997	0.409822
	N237	N	0.034343	0.678455	0.583627
	N238	N	0.959922	0.320762	0.586628
	N239	N	0.032961	0.321079	0.412981
	N240	N	0.958940	0.415304	0.677267
	N241	N	0.033536	0.586009	0.677135
	N242	N	0.960107	0.587880	0.319200
	N243	N	0.034243	0.416529	0.322653
	N244	N	0.410770	0.678923	0.961296
	N245	N	0.581749	0.675806	0.035907
	N246	N	0.585177	0.321245	0.961283
	N247	N	0.413715	0.323829	0.035118
	N248	N	0.675469	0.965133	0.413894
	N249	N	0.678157	0.037316	0.587397
	N250	N	0.319502	0.963561	0.584703
	N251	N	0.315484	0.037212	0.409296
	N252	N	0.913883	0.463852	0.174793
	N253	N	0.082270	0.539501	0.176658
	N254	N	0.080981	0.462975	0.823476
	N255	N	0.911006	0.538323	0.820545
	N256	N	0.177004	0.913555	0.460953
	N257	N	0.175848	0.086826	0.534794
	N258	N	0.816326	0.089675	0.462714
	N259	N	0.821757	0.917169	0.535120
	N260	N	0.461694	0.182153	0.909946
	N261	N	0.534462	0.178177	0.084440
	N262	N	0.459466	0.820630	0.084982
	N263	N	0.533345	0.820649	0.912567
	N264	N	0.459533	0.914354	0.177724
	N265	N	0.534310	0.084581	0.176151
	N266	N	0.460771	0.087059	0.819742
	N267	N	0.535081	0.915943	0.823090
	N268	N	0.909266	0.180424	0.462124
	N269	N	0.079967	0.175272	0.536804
	N270	N	0.083070	0.822898	0.460170
	N271	N	0.913081	0.824971	0.534471
	N272	N	0.176637	0.464729	0.913746
	N273	N	0.178804	0.537812	0.087884
	N274	N	0.820366	0.463483	0.083405
	N275	N	0.815699	0.536801	0.909476
	O276	O	0.063314	-0.050879	0.033651
	H277	H	0.065143	-0.048580	0.028867
	H278	H	0.058304	-0.046923	0.031352
	O279	O	0.480406	0.422443	0.457030
	H280	H	0.476433	0.429194	0.461111
	H281	H	0.487349	0.421219	0.452663
	O282	O	0.479728	0.485744	0.545724
	H283	H	0.473951	0.498556	0.543349
	H284	H	0.475678	0.478958	0.550069
	O285	O	0.009738	1.026214	1.031232
	H286	H	0.011685	1.024228	1.026144
	H287	H	0.004972	1.021156	1.026876
	O288	O	0.439058	0.411022	0.636741
	H289	H	0.425245	0.396516	0.643600
	H290	H	0.432344	0.410054	0.630910
	O291	O	1.065119	1.043621	0.924090
	H292	H	1.064483	1.050002	0.932399
	H293	H	1.060177	1.045057	0.918923
	O294	O	0.935756	1.054547	0.927923
	H295	H	0.926637	1.060240	0.930850
	H296	H	0.929246	1.043806	0.934163
	O297	O	1.010979	0.065227	0.982545
	H298	H	1.010488	0.080451	0.987808
	H299	H	1.018803	0.061699	0.981024
	O300	O	0.492223	0.543175	0.450007
	H301	H	0.497917	0.540837	0.446225
	H302	H	0.484884	0.551425	0.447101
	O303	O	1.018714	0.018768	0.024023
	H304	H	1.020358	0.024856	0.023097
	H305	H	1.019121	0.024374	0.019382
	O306	O	-0.064849	0.931271	1.028886
	H307	H	-0.061946	0.925747	1.025470
	H308	H	-0.069956	0.926107	1.034170
	O309	O	0.508346	0.461252	0.540924
	H310	H	0.492726	0.466296	0.549111
	H311	H	0.511322	0.463897	0.534842
	O312	O	1.146240	0.151036	0.855793
	H313	H	1.141906	0.147392	0.857638
	H314	H	1.132461	0.146479	0.867295
	O315	O	0.440536	0.490807	0.423913
	H316	H	0.441065	0.510020	0.419487
	H317	H	0.433692	0.481646	0.404921
	O318	O	0.465973	0.507166	0.485295
	H319	H	0.464142	0.511890	0.495875
	H320	H	0.477680	0.501153	0.485177
	O321	O	0.994998	1.021837	0.929836
	H322	H	0.992430	1.020475	0.928185
	H323	H	0.997270	1.025345	0.928290
	O324	O	0.566613	0.445394	0.532211
	H325	H	0.567797	0.454866	0.523364
	H326	H	0.557970	0.432351	0.525716
	O327	O	0.524608	0.436100	0.432171
	H328	H	0.526581	0.430190	0.423995
	H329	H	0.525371	0.446532	0.431941
	O330	O	0.962319	-0.069176	0.963774
	H331	H	0.963614	-0.067354	0.953741
	H332	H	0.964941	-0.069299	0.956988
	O333	O	0.989846	0.999259	0.027364
	H334	H	0.995469	0.997807	0.025877
	H335	H	0.984245	1.000572	0.035946
	O336	O	0.513682	0.574093	0.497976
	H337	H	0.506531	0.571217	0.495523
	H338	H	0.509916	0.561733	0.508057
	O339	O	0.489679	0.631846	0.484970
	H340	H	0.488393	0.635504	0.485178
	H341	H	0.491955	0.639605	0.488173
	O342	O	-0.071903	1.071624	-0.045369
	H343	H	-0.067376	1.068684	-0.046700
	H344	H	-0.074490	1.073011	-0.032587
	O345	O	0.099592	-0.001068	0.005398
	H346	H	0.103562	0.003325	-0.005961
	H347	H	0.108619	0.002388	0.003855
	O348	O	0.501363	0.566451	0.495435
	H349	H	0.498823	0.567397	0.502350
	H350	H	0.506412	0.573558	0.501821
	O351	O	0.490920	0.525261	0.393977
	H352	H	0.485894	0.532496	0.393235
	H353	H	0.513018	0.517978	0.404393
	O354	O	0.537754	0.462961	0.486062
	H355	H	0.533851	0.464929	0.484954
	H356	H	0.541426	0.460622	0.482137
	O357	O	0.364949	0.559385	0.433693
	H358	H	0.347958	0.564195	0.420228
	H359	H	0.366760	0.564027	0.434414
	O360	O	0.021143	-0.056421	-0.025846
	H361	H	0.017906	-0.048112	-0.020920
	H362	H	0.021304	-0.046415	-0.028785
	O363	O	0.399523	0.469443	0.555441
	H364	H	0.399185	0.469563	0.545218
	H365	H	0.401933	0.462984	0.541678
	O366	O	0.000567	0.017754	1.052906
	H367	H	-0.002064	0.022147	1.053392
	H368	H	0.000250	0.006745	1.050068
	O369	O	0.521888	0.486372	0.517622
	H370	H	0.526032	0.484946	0.533540
	H371	H	0.528174	0.477812	0.517153
