data_Molecule from HDF5

_cell_length_a		16.528168
_cell_length_b		16.115753
_cell_length_c		16.329599
_cell_angle_alpha	89.826344
_cell_angle_beta	89.695832
_cell_angle_gamma	89.998795
_symmetry_space_group_name_H-M	'P 1'
_symmetry_Int_Tables_number		1

loop_
	_symmetry_equiv_pos_as_xyz
	x,y,z

loop_
	_atom_site_label
	_atom_site_type_symbol
	_atom_site_fract_x
	_atom_site_fract_y
	_atom_site_fract_z
	H0	H	0.405080	0.837105	0.709702
	H1	H	0.602762	0.166148	0.702916
	H2	H	0.610923	0.840027	0.271304
	H3	H	0.405346	0.165916	0.277552
	H4	H	0.725089	0.394518	0.832105
	H5	H	0.728902	0.611265	0.147952
	H6	H	0.283664	0.610315	0.832489
	H7	H	0.283580	0.394949	0.150747
	H8	H	0.845177	0.720906	0.387437
	H9	H	0.165223	0.717281	0.589010
	H10	H	0.845051	0.280841	0.591374
	H11	H	0.164629	0.282551	0.388464
	H12	H	0.845706	0.393506	0.712800
	H13	H	0.163358	0.604219	0.710285
	H14	H	0.844923	0.605609	0.269274
	H15	H	0.161351	0.392795	0.265769
	H16	H	0.406085	0.719727	0.830408
	H17	H	0.606823	0.719090	0.152405
	H18	H	0.604868	0.287373	0.828866
	H19	H	0.405821	0.287166	0.153351
	H20	H	0.724712	0.838719	0.388618
	H21	H	0.725197	0.161854	0.597489
	H22	H	0.285957	0.837487	0.596945
	H23	H	0.285876	0.162297	0.387813
	H24	H	0.900434	0.336960	0.207762
	H25	H	0.108236	0.661827	0.209938
	H26	H	0.103470	0.336356	0.776875
	H27	H	0.902284	0.662945	0.771960
	H28	H	0.230949	0.891016	0.331952
	H29	H	0.223651	0.105803	0.650062
	H30	H	0.781755	0.111369	0.333886
	H31	H	0.785254	0.893165	0.651018
	H32	H	0.345115	0.219027	0.892085
	H33	H	0.666317	0.219217	0.089132
	H34	H	0.346472	0.781759	0.097563
	H35	H	0.664765	0.781832	0.888213
	H36	H	0.347403	0.897433	0.215463
	H37	H	0.662919	0.111176	0.213607
	H38	H	0.345953	0.105331	0.772583
	H39	H	0.664814	0.896771	0.769445
	H40	H	0.904939	0.217310	0.329466
	H41	H	0.104908	0.216572	0.651190
	H42	H	0.108664	0.782429	0.328055
	H43	H	0.906520	0.784077	0.652624
	H44	H	0.224287	0.339425	0.886099
	H45	H	0.224129	0.661583	0.097468
	H46	H	0.782485	0.339406	0.097172
	H47	H	0.781702	0.660312	0.881183
	H48	H	0.410102	0.116945	0.578800
	H49	H	0.589623	0.886750	0.579840
	H50	H	0.593812	0.116275	0.405622
	H51	H	0.411881	0.884282	0.404600
	H52	H	0.597139	0.419267	0.105566
	H53	H	0.601938	0.587305	0.875787
	H54	H	0.416015	0.588812	0.104799
	H55	H	0.409598	0.422535	0.877895
	H56	H	0.115062	0.587795	0.399239
	H57	H	0.894663	0.588929	0.573165
	H58	H	0.119087	0.408328	0.585438
	H59	H	0.892206	0.410411	0.402088
	H60	H	0.117909	0.407659	0.580376
	H61	H	0.892603	0.583899	0.585639
	H62	H	0.116617	0.587381	0.397158
	H63	H	0.890813	0.411896	0.397638
	H64	H	0.411774	0.594411	0.108055
	H65	H	0.589667	0.584242	0.879965
	H66	H	0.588703	0.411707	0.104778
	H67	H	0.421229	0.409497	0.877556
	H68	H	0.597077	0.116674	0.405228
	H69	H	0.600388	0.884607	0.575972
	H70	H	0.412696	0.118320	0.583867
	H71	H	0.420379	0.884544	0.399347
	H72	H	0.914905	0.614419	0.074377
	H73	H	0.101074	0.381240	0.079954
	H74	H	0.093540	0.617772	0.897986
	H75	H	0.913376	0.381192	0.895593
	H76	H	0.087436	0.908953	0.601298
	H77	H	0.101697	0.084767	0.375744
	H78	H	0.914302	0.089511	0.606706
	H79	H	0.913719	0.908981	0.374642
	H80	H	0.619516	0.094548	0.897472
	H81	H	0.389220	0.096422	0.091537
	H82	H	0.616483	0.916919	0.082011
	H83	H	0.389897	0.914696	0.889804
	H84	H	0.619149	0.912212	0.082955
	H85	H	0.392067	0.097643	0.077973
	H86	H	0.620866	0.092866	0.894146
	H87	H	0.391654	0.903572	0.907172
	H88	H	0.913069	0.086792	0.605020
	H89	H	0.093224	0.088078	0.376358
	H90	H	0.100667	0.903024	0.608689
	H91	H	0.910973	0.914646	0.375800
	H92	H	0.093219	0.615584	0.903615
	H93	H	0.087033	0.384676	0.083132
	H94	H	0.912451	0.616596	0.078245
	H95	H	0.920211	0.387487	0.905508
	H96	H	0.415054	0.115546	0.579270
	H97	H	0.597170	0.881402	0.587477
	H98	H	0.595042	0.117066	0.402449
	H99	H	0.419505	0.887451	0.408996
	H100	H	0.599195	0.408108	0.108890
	H101	H	0.592020	0.596715	0.875535
	H102	H	0.408990	0.587551	0.106766
	H103	H	0.405452	0.406477	0.871002
	H104	H	0.117754	0.589415	0.398059
	H105	H	0.888655	0.596645	0.582893
	H106	H	0.117091	0.412163	0.582827
	H107	H	0.890020	0.407633	0.399256
	H108	H	0.917722	0.615600	0.078762
	H109	H	0.093758	0.387058	0.069328
	H110	H	0.097387	0.618235	0.901581
	H111	H	0.907454	0.384239	0.907276
	H112	H	0.100288	0.918719	0.602716
	H113	H	0.100063	0.093391	0.372854
	H114	H	0.916202	0.087303	0.605801
	H115	H	0.917461	0.914833	0.377022
	H116	H	0.620743	0.096735	0.894571
	H117	H	0.394227	0.085375	0.084094
	H118	H	0.616795	0.913314	0.078329
	H119	H	0.398266	0.923022	0.906166
	C120	C	0.382590	0.009175	0.613112
	C121	C	0.625837	0.992126	0.611830
	C122	C	0.627398	0.010251	0.371347
	C123	C	0.385823	0.992667	0.372605
	C124	C	0.625570	0.381170	0.000053
	C125	C	0.626391	0.622480	0.982391
	C126	C	0.382362	0.622967	0.000320
	C127	C	0.382607	0.380981	0.982116
	C128	C	0.012020	0.621553	0.366804
	C129	C	0.996877	0.621393	0.611539
	C130	C	0.012850	0.377550	0.613413
	C131	C	0.996037	0.378446	0.368270
	C132	C	0.882622	0.508782	0.110153
	C133	C	0.124847	0.491469	0.110477
	C134	C	0.125211	0.509792	0.870068
	C135	C	0.882345	0.491201	0.869575
	C136	C	0.128124	0.878096	0.498334
	C137	C	0.127271	0.120599	0.481277
	C138	C	0.883749	0.121081	0.500115
	C139	C	0.884059	0.880204	0.482264
	C140	C	0.514139	0.125002	0.867216
	C141	C	0.497155	0.124896	0.113673
	C142	C	0.513447	0.881008	0.114206
	C143	C	0.497918	0.880937	0.869382
	C144	C	0.384322	0.886118	0.671041
	C145	C	0.623749	0.116164	0.666633
	C146	C	0.628708	0.888170	0.311696
	C147	C	0.385853	0.116270	0.315399
	C148	C	0.684810	0.378000	0.879504
	C149	C	0.687825	0.627275	0.100982
	C150	C	0.324063	0.627138	0.880073
	C151	C	0.323835	0.377691	0.102890
	C152	C	0.893090	0.681986	0.366912
	C153	C	0.117162	0.679007	0.609861
	C154	C	0.892704	0.319658	0.612219
	C155	C	0.116343	0.320743	0.368601
	C156	C	0.893190	0.375666	0.672563
	C157	C	0.115948	0.622942	0.670443
	C158	C	0.892705	0.624010	0.308486
	C159	C	0.114790	0.375423	0.307302
	C160	C	0.384686	0.681945	0.879097
	C161	C	0.626765	0.680958	0.103463
	C162	C	0.624880	0.324434	0.878041
	C163	C	0.384797	0.323927	0.104194
	C164	C	0.685827	0.887702	0.369498
	C165	C	0.684585	0.114130	0.613940
	C166	C	0.325338	0.886338	0.615014
	C167	C	0.326408	0.114464	0.370347
	C168	C	0.881066	0.386505	0.169641
	C169	C	0.126712	0.613093	0.170684
	C170	C	0.123868	0.386014	0.814245
	C171	C	0.882251	0.613759	0.810407
	C172	C	0.189473	0.874320	0.379058
	C173	C	0.184224	0.123145	0.602157
	C174	C	0.823152	0.126809	0.380700
	C175	C	0.825358	0.876356	0.603095
	C176	C	0.393502	0.181112	0.870867
	C177	C	0.617843	0.181618	0.110535
	C178	C	0.394043	0.821432	0.115957
	C179	C	0.617236	0.821499	0.868892
	C180	C	0.394652	0.878537	0.175078
	C181	C	0.616005	0.127542	0.172549
	C182	C	0.394055	0.124572	0.811051
	C183	C	0.617122	0.878820	0.809554
	C184	C	0.884750	0.179364	0.378178
	C185	C	0.125246	0.178436	0.602711
	C186	C	0.128846	0.819889	0.377043
	C187	C	0.885534	0.821592	0.603882
	C188	C	0.184282	0.387820	0.868411
	C189	C	0.184483	0.612972	0.114465
	C190	C	0.822531	0.387642	0.114190
	C191	C	0.822558	0.612593	0.865085
	C192	C	0.405749	0.094821	0.588059
	C193	C	0.602634	0.906394	0.588091
	C194	C	0.602549	0.094432	0.396873
	C195	C	0.410276	0.907669	0.397126
	C196	C	0.601962	0.405886	0.084293
	C197	C	0.601769	0.596884	0.898718
	C198	C	0.405384	0.597551	0.084625
	C199	C	0.405471	0.405769	0.897412
	C200	C	0.094854	0.595584	0.390981
	C201	C	0.913527	0.596787	0.587598
	C202	C	0.096350	0.402172	0.589664
	C203	C	0.912787	0.403013	0.392586
	C204	C	0.907711	0.593542	0.084556
	C205	C	0.100639	0.406528	0.084974
	C206	C	0.101541	0.595011	0.893952
	C207	C	0.906524	0.406379	0.895409
	C208	C	0.103303	0.903001	0.582447
	C209	C	0.104871	0.096105	0.396905
	C210	C	0.907627	0.095366	0.583887
	C211	C	0.907420	0.905616	0.397816
	C212	C	0.598473	0.101628	0.888946
	C213	C	0.413594	0.100422	0.090904
	C214	C	0.596008	0.906627	0.088398
	C215	C	0.414832	0.906389	0.894030
	Zn216	Zn	0.505777	0.001763	0.738759
	Zn217	Zn	0.505757	0.002635	0.244043
	Zn218	Zn	0.754472	0.500581	-0.009315
	Zn219	Zn	0.253361	0.501089	-0.009027
	Zn220	Zn	0.005058	0.751397	0.489163
	Zn221	Zn	0.005201	0.248361	0.490199
	Zn222	Zn	0.004064	0.500220	0.742482
	Zn223	Zn	0.003372	0.499160	0.237373
	Zn224	Zn	0.505405	0.750893	-0.007522
	Zn225	Zn	0.505273	0.253908	-0.009178
	Zn226	Zn	0.754825	0.001378	0.492422
	Zn227	Zn	0.255621	-0.000057	0.490880
	N228	N	0.419106	0.963590	0.669991
	N229	N	0.587759	0.039318	0.665281
	N230	N	0.593216	0.965285	0.312506
	N231	N	0.421812	0.039465	0.316636
	N232	N	0.685578	0.412535	0.956425
	N233	N	0.687799	0.591686	0.024571
	N234	N	0.322316	0.591390	0.956637
	N235	N	0.322220	0.412250	0.025799
	N236	N	0.968452	0.680740	0.402349
	N237	N	0.042095	0.678224	0.574088
	N238	N	0.968118	0.320518	0.576260
	N239	N	0.041543	0.322353	0.405832
	N240	N	0.968871	0.411120	0.673299
	N241	N	0.040041	0.588014	0.671614
	N242	N	0.967900	0.587464	0.308034
	N243	N	0.039010	0.410465	0.306934
	N244	N	0.420000	0.679697	0.954940
	N245	N	0.589284	0.678010	0.028658
	N246	N	0.588820	0.326211	0.953990
	N247	N	0.420503	0.325791	0.027942
	N248	N	0.685294	0.964507	0.405662
	N249	N	0.686062	0.035860	0.580688
	N250	N	0.324193	0.964000	0.579806
	N251	N	0.326155	0.036619	0.405216
	N252	N	0.917882	0.462902	0.167187
	N253	N	0.090326	0.536572	0.168278
	N254	N	0.087980	0.462821	0.815126
	N255	N	0.918482	0.537192	0.812916
	N256	N	0.189217	0.909387	0.455689
	N257	N	0.185715	0.087958	0.525682
	N258	N	0.822498	0.091126	0.457292
	N259	N	0.824188	0.911947	0.526422
	N260	N	0.469320	0.181744	0.904936
	N261	N	0.542841	0.180262	0.074642
	N262	N	0.469065	0.822613	0.078957
	N263	N	0.542070	0.822447	0.905316
	N264	N	0.469728	0.914898	0.174052
	N265	N	0.539955	0.092734	0.174578
	N266	N	0.470217	0.090395	0.808793
	N267	N	0.541668	0.914769	0.809675
	N268	N	0.922044	0.175911	0.453317
	N269	N	0.090412	0.177075	0.526547
	N270	N	0.091323	0.822186	0.452255
	N271	N	0.921338	0.823821	0.527695
	N272	N	0.185519	0.465885	0.902458
	N273	N	0.183347	0.536286	0.077732
	N274	N	0.823244	0.464796	0.078033
	N275	N	0.822362	0.535280	0.901057
	O276	O	0.532979	0.421707	0.537538
	H277	H	0.534023	0.416354	0.545032
	H278	H	0.541928	0.435821	0.537727
	O279	O	0.552248	0.332808	0.299498
	H280	H	0.549675	0.333028	0.288860
	H281	H	0.524072	0.331878	0.299562
	O282	O	0.421460	0.348724	0.686994
	H283	H	0.427571	0.333107	0.694750
	H284	H	0.425618	0.352983	0.684052
	O285	O	1.438219	0.340641	0.558322
	H286	H	1.449633	0.352437	0.547830
	H287	H	1.444475	0.340501	0.543613
	O288	O	0.206551	-0.129815	0.793215
	H289	H	0.193974	-0.110694	0.785631
	H290	H	0.226470	-0.125548	0.773214
	O291	O	0.707634	0.462916	0.340277
	H292	H	0.716068	0.463744	0.337241
	H293	H	0.716657	0.451135	0.341572
	O294	O	1.135790	0.853406	0.794791
	H295	H	1.154746	0.866856	0.795994
	H296	H	1.148905	0.847630	0.793284
	O297	O	0.843108	0.983091	1.196248
	H298	H	0.816348	0.969767	1.217327
	H299	H	0.851791	0.943469	1.185787
	O300	O	-0.019387	-0.071916	-0.115565
	H301	H	-0.014389	-0.072582	-0.102772
	H302	H	-0.017365	-0.088593	-0.139269
	O303	O	0.079519	1.178735	1.134079
	H304	H	0.076815	1.182130	1.137116
	H305	H	0.075084	1.180086	1.120065
	O306	O	0.819611	-0.186800	0.029764
	H307	H	0.855298	-0.178440	0.008547
	H308	H	0.796484	-0.219210	0.012106
	O309	O	0.352485	0.619578	0.370650
	H310	H	0.358574	0.622449	0.360586
	H311	H	0.339747	0.647140	0.364855
	O312	O	1.012933	0.808403	-0.007940
	H313	H	1.037241	0.808179	0.000089
	H314	H	1.022823	0.815194	-0.000764
	O315	O	0.677915	0.624649	0.641594
	H316	H	0.655469	0.634000	0.635528
	H317	H	0.674450	0.630524	0.638014
	O318	O	0.419755	0.572786	0.509881
	H319	H	0.413894	0.580292	0.513354
	H320	H	0.418389	0.559770	0.516970
	O321	O	1.096568	0.137698	0.882595
	H322	H	1.084222	0.139667	0.879564
	H323	H	1.081051	0.125284	0.866285
	O324	O	0.564727	0.498098	1.388758
	H325	H	0.554051	0.515024	1.404972
	H326	H	0.568689	0.499377	1.394224
	O327	O	0.176542	0.950945	1.116442
	H328	H	0.192734	0.963867	1.127627
	H329	H	0.170601	0.965392	1.111509
	O330	O	0.404922	0.538608	0.632252
	H331	H	0.389128	0.516908	0.641844
	H332	H	0.399416	0.519234	0.616430
	O333	O	0.985711	1.121942	0.893707
	H334	H	0.986256	1.127430	0.898256
	H335	H	0.989546	1.132689	0.879896
	O336	O	0.703227	0.477227	0.636009
	H337	H	0.711229	0.500535	0.635867
	H338	H	0.703262	0.492214	0.647823
	O339	O	0.480487	0.648289	0.383341
	H340	H	0.487319	0.657473	0.384542
	H341	H	0.474241	0.651704	0.386283
	O342	O	0.142839	1.020789	0.833190
	H343	H	0.121379	1.020696	0.839528
	H344	H	0.146629	1.024967	0.831072
	O345	O	-0.146349	1.140684	0.799593
	H346	H	-0.163606	1.147670	0.804570
	H347	H	-0.150089	1.151277	0.796620
	O348	O	0.601001	0.460932	0.475508
	H349	H	0.591913	0.469577	0.454477
	H350	H	0.606063	0.464935	0.466780
	O351	O	-0.066513	-0.165088	0.193849
	H352	H	-0.058980	-0.191934	0.213818
	H353	H	-0.052283	-0.153370	0.191015
	O354	O	0.357906	0.390294	-0.557278
	H355	H	0.352457	0.399524	-0.560103
	H356	H	0.357924	0.382128	-0.569588
	O357	O	-0.022788	1.136124	0.006912
	H358	H	-0.021447	1.129510	0.022802
	H359	H	-0.039024	1.133427	0.002347
	O360	O	-0.014491	-0.133324	-0.171919
	H361	H	-0.007551	-0.126674	-0.168253
	H362	H	-0.001222	-0.139363	-0.177156
	O363	O	0.326487	0.414077	0.450357
	H364	H	0.313697	0.404362	0.438960
	H365	H	0.334174	0.418610	0.454404
	O366	O	0.401224	0.571992	0.431222
	H367	H	0.400228	0.563945	0.429460
	H368	H	0.402471	0.575053	0.431927
	O369	O	0.325548	0.509108	0.540954
	H370	H	0.327807	0.513123	0.552482
	H371	H	0.318615	0.497006	0.559856
	O372	O	0.394862	0.625759	0.380444
	H373	H	0.404162	0.617317	0.378767
	H374	H	0.392337	0.613909	0.379914
	O375	O	0.866898	-0.010970	-0.073289
	H376	H	0.852613	-0.017583	-0.066257
	H377	H	0.865848	-0.011188	-0.059605
	O378	O	0.543263	0.333096	0.433918
	H379	H	0.544059	0.332993	0.429629
	H380	H	0.538818	0.332470	0.445484
	O381	O	0.025433	-0.125255	0.146326
	H382	H	0.021366	-0.120131	0.123111
	H383	H	0.015335	-0.125875	0.167094
	O384	O	0.522329	0.625041	1.576711
	H385	H	0.505173	0.609618	1.571692
	H386	H	0.543310	0.620562	1.572702
	O387	O	1.170728	0.801610	-0.053804
	H388	H	1.173597	0.803393	-0.073930
	H389	H	1.196481	0.781618	-0.046331
	O390	O	0.521088	0.513197	0.523557
	H391	H	0.519538	0.510636	0.521176
	H392	H	0.529117	0.497378	0.519708
	O393	O	1.121517	0.031349	1.020133
	H394	H	1.114175	0.037137	1.017136
	H395	H	1.123162	0.043952	1.035605
	O396	O	-0.194164	1.141273	0.970589
	H397	H	-0.201444	1.133163	0.989420
	H398	H	-0.199082	1.132497	0.990086
	O399	O	0.609961	0.627104	0.495196
	H400	H	0.617632	0.615312	0.509179
	H401	H	0.621205	0.640113	0.493473
	O402	O	0.877991	0.108188	1.027955
	H403	H	0.873817	0.096538	1.033467
	H404	H	0.882342	0.109089	1.039222
	O405	O	0.112339	0.079229	0.088639
	H406	H	0.097490	0.080551	0.090240
	H407	H	0.109363	0.081037	0.085387
	O408	O	0.971119	1.088251	1.073359
	H409	H	0.968072	1.089281	1.078803
	H410	H	0.989914	1.076731	1.070263
	O411	O	0.812305	0.869133	0.108210
	H412	H	0.847315	0.860024	0.112085
	H413	H	0.811997	0.856436	0.078618
	O414	O	0.133486	0.139440	1.188588
	H415	H	0.137286	0.136103	1.201531
	H416	H	0.131818	0.134588	1.180136
	O417	O	0.500710	0.375616	0.622260
	H418	H	0.515700	0.362205	0.612986
	H419	H	0.510915	0.376583	0.623417
	O420	O	0.185735	1.087294	-0.003377
	H421	H	0.176848	1.093778	-0.017731
	H422	H	0.187293	1.084886	-0.023477
	O423	O	0.583550	-0.399385	0.503950
	H424	H	0.593780	-0.405517	0.505400
	H425	H	0.576084	-0.408773	0.516418
	O426	O	-0.160396	-0.026507	0.855978
	H427	H	-0.144190	-0.033988	0.850795
	H428	H	-0.174423	-0.015577	0.846691
	O429	O	0.514928	0.496097	0.547795
	H430	H	0.517777	0.500202	0.545542
	H431	H	0.517292	0.493953	0.539281
