data_Molecule from HDF5

_cell_length_a		16.447767
_cell_length_b		16.165221
_cell_length_c		15.978223
_cell_angle_alpha	89.308038
_cell_angle_beta	90.772232
_cell_angle_gamma	89.806631
_symmetry_space_group_name_H-M	'P 1'
_symmetry_Int_Tables_number		1

loop_
	_symmetry_equiv_pos_as_xyz
	x,y,z

loop_
	_atom_site_label
	_atom_site_type_symbol
	_atom_site_fract_x
	_atom_site_fract_y
	_atom_site_fract_z
	H0	H	0.417830	0.835694	0.712351
	H1	H	0.605771	0.167998	0.708866
	H2	H	0.602067	0.834521	0.293557
	H3	H	0.410871	0.166664	0.283260
	H4	H	0.722791	0.402276	0.834446
	H5	H	0.727967	0.601352	0.164329
	H6	H	0.288548	0.606930	0.835824
	H7	H	0.298443	0.398881	0.165461
	H8	H	0.847137	0.719503	0.396754
	H9	H	0.171634	0.715770	0.600938
	H10	H	0.847412	0.283859	0.602131
	H11	H	0.170308	0.285291	0.404662
	H12	H	0.845676	0.402993	0.713816
	H13	H	0.172698	0.595428	0.715672
	H14	H	0.847178	0.602050	0.282537
	H15	H	0.173196	0.405958	0.293406
	H16	H	0.409939	0.714754	0.832189
	H17	H	0.606319	0.707778	0.168041
	H18	H	0.606255	0.291933	0.832410
	H19	H	0.414500	0.287035	0.165302
	H20	H	0.724987	0.838161	0.401098
	H21	H	0.727229	0.164383	0.602639
	H22	H	0.294239	0.837268	0.602884
	H23	H	0.288641	0.164405	0.390306
	H24	H	0.919387	0.334870	0.212643
	H25	H	0.104973	0.668836	0.209869
	H26	H	0.103540	0.334908	0.795386
	H27	H	0.911060	0.665925	0.785359
	H28	H	0.220861	0.902019	0.333000
	H29	H	0.229237	0.102459	0.663331
	H30	H	0.789621	0.107185	0.335605
	H31	H	0.796045	0.898271	0.665859
	H32	H	0.347370	0.220025	0.894121
	H33	H	0.671405	0.214846	0.100166
	H34	H	0.347245	0.784378	0.098733
	H35	H	0.671647	0.786001	0.903712
	H36	H	0.344926	0.903552	0.211046
	H37	H	0.671885	0.095524	0.214994
	H38	H	0.347078	0.100829	0.781190
	H39	H	0.673584	0.906306	0.791636
	H40	H	0.907991	0.218751	0.335408
	H41	H	0.107106	0.207912	0.668655
	H42	H	0.102414	0.792666	0.332719
	H43	H	0.914397	0.789179	0.666963
	H44	H	0.225296	0.338338	0.902892
	H45	H	0.228863	0.665052	0.103269
	H46	H	0.794203	0.337451	0.105062
	H47	H	0.790976	0.664939	0.894256
	H48	H	0.419734	0.117088	0.584695
	H49	H	0.606081	0.883809	0.592121
	H50	H	0.597545	0.115931	0.414875
	H51	H	0.407967	0.881348	0.403644
	H52	H	0.593691	0.406466	0.116758
	H53	H	0.603085	0.591485	0.880628
	H54	H	0.417011	0.582011	0.117107
	H55	H	0.417662	0.408137	0.879144
	H56	H	0.123922	0.594161	0.408364
	H57	H	0.894999	0.589612	0.592201
	H58	H	0.126501	0.399092	0.598137
	H59	H	0.895298	0.409102	0.414777
	H60	H	0.122362	0.407651	0.593268
	H61	H	0.891822	0.598809	0.597245
	H62	H	0.128363	0.601113	0.402588
	H63	H	0.894605	0.417450	0.404869
	H64	H	0.427401	0.595478	0.116974
	H65	H	0.596704	0.594975	0.881021
	H66	H	0.610274	0.401486	0.123328
	H67	H	0.408670	0.412530	0.879030
	H68	H	0.607997	0.121405	0.406989
	H69	H	0.606637	0.882266	0.596663
	H70	H	0.411855	0.118797	0.582922
	H71	H	0.417932	0.884065	0.406229
	H72	H	0.913716	0.617009	0.082727
	H73	H	0.117768	0.380331	0.099007
	H74	H	0.098819	0.617225	0.914601
	H75	H	0.914159	0.386380	0.922440
	H76	H	0.112301	0.913687	0.619771
	H77	H	0.110873	0.095187	0.377147
	H78	H	0.921843	0.086904	0.617553
	H79	H	0.903264	0.911013	0.376633
	H80	H	0.625277	0.090726	0.900461
	H81	H	0.395481	0.088545	0.089777
	H82	H	0.627215	0.901701	0.102269
	H83	H	0.390037	0.900220	0.901007
	H84	H	0.624167	0.902187	0.091699
	H85	H	0.389820	0.100041	0.094763
	H86	H	0.629253	0.107436	0.903549
	H87	H	0.395704	0.908361	0.914014
	H88	H	0.918235	0.097389	0.621230
	H89	H	0.092911	0.084323	0.386194
	H90	H	0.097407	0.912377	0.616469
	H91	H	0.916297	0.922372	0.384119
	H92	H	0.106897	0.622060	0.909931
	H93	H	0.097988	0.382915	0.105856
	H94	H	0.911254	0.621243	0.092439
	H95	H	0.902320	0.378340	0.906302
	H96	H	0.415457	0.120883	0.590089
	H97	H	0.603275	0.884247	0.595541
	H98	H	0.595570	0.119679	0.401195
	H99	H	0.410870	0.884436	0.413889
	H100	H	0.607136	0.418809	0.116429
	H101	H	0.602460	0.598334	0.877980
	H102	H	0.411354	0.597080	0.122739
	H103	H	0.416217	0.417948	0.881897
	H104	H	0.125681	0.602665	0.412973
	H105	H	0.894061	0.599704	0.586048
	H106	H	0.125430	0.408251	0.603375
	H107	H	0.890823	0.405787	0.402819
	H108	H	0.921525	0.617561	0.090236
	H109	H	0.103555	0.388125	0.085663
	H110	H	0.098512	0.620198	0.904476
	H111	H	0.922822	0.383125	0.902832
	H112	H	0.105116	0.900020	0.621985
	H113	H	0.091763	0.105925	0.379415
	H114	H	0.910504	0.087641	0.620722
	H115	H	0.920189	0.904528	0.380582
	H116	H	0.622867	0.096292	0.916512
	H117	H	0.394153	0.099674	0.081793
	H118	H	0.623733	0.911072	0.098443
	H119	H	0.394473	0.915199	0.899687
	C120	C	0.388279	0.010258	0.618167
	C121	C	0.632617	0.992766	0.622253
	C122	C	0.628376	0.009845	0.380187
	C123	C	0.384463	0.992153	0.376544
	C124	C	0.630881	0.380963	0.008519
	C125	C	0.630288	0.622196	0.990573
	C126	C	0.387988	0.622481	0.008942
	C127	C	0.388117	0.381652	0.989983
	C128	C	0.018209	0.626877	0.377368
	C129	C	1.000928	0.623768	0.622154
	C130	C	0.017240	0.377463	0.625541
	C131	C	1.000815	0.381323	0.380783
	C132	C	0.888537	0.509828	0.120315
	C133	C	0.133811	0.493094	0.124087
	C134	C	0.129381	0.510569	0.882296
	C135	C	0.885356	0.492069	0.878953
	C136	C	0.130435	0.880987	0.508594
	C137	C	0.129130	0.122255	0.491200
	C138	C	0.886665	0.122580	0.510052
	C139	C	0.887096	0.881735	0.490804
	C140	C	0.518123	0.126541	0.875561
	C141	C	0.500550	0.123260	0.119973
	C142	C	0.517404	0.877147	0.124064
	C143	C	0.501136	0.880285	0.878702
	C144	C	0.394479	0.885461	0.674849
	C145	C	0.627762	0.117603	0.674061
	C146	C	0.624160	0.884665	0.328812
	C147	C	0.388664	0.116741	0.320070
	C148	C	0.685116	0.382874	0.883746
	C149	C	0.688324	0.620365	0.115241
	C150	C	0.329506	0.623834	0.884378
	C151	C	0.335600	0.380654	0.115679
	C152	C	0.895587	0.681437	0.377553
	C153	C	0.123012	0.678201	0.621278
	C154	C	0.895661	0.322073	0.622402
	C155	C	0.122395	0.324380	0.384533
	C156	C	0.894720	0.381704	0.677948
	C157	C	0.123558	0.618418	0.678453
	C158	C	0.895855	0.623467	0.320280
	C159	C	0.123940	0.384458	0.329101
	C160	C	0.389286	0.678093	0.882845
	C161	C	0.628006	0.673732	0.116935
	C162	C	0.627060	0.328022	0.882794
	C163	C	0.393280	0.324979	0.115673
	C164	C	0.685259	0.886543	0.382204
	C165	C	0.688274	0.115825	0.620938
	C166	C	0.333278	0.886359	0.620560
	C167	C	0.327992	0.115706	0.373232
	C168	C	0.895580	0.385001	0.176312
	C169	C	0.128194	0.618466	0.175479
	C170	C	0.125180	0.385061	0.830544
	C171	C	0.889341	0.616458	0.822635
	C172	C	0.183640	0.882838	0.383046
	C173	C	0.188698	0.120504	0.614980
	C174	C	0.828826	0.125222	0.385288
	C175	C	0.833968	0.880321	0.616301
	C176	C	0.395986	0.181909	0.875046
	C177	C	0.622937	0.176880	0.119751
	C178	C	0.395292	0.822539	0.119366
	C179	C	0.623586	0.824887	0.883148
	C180	C	0.394204	0.882032	0.175211
	C181	C	0.623070	0.117911	0.177132
	C182	C	0.395867	0.122858	0.818538
	C183	C	0.624570	0.884888	0.827423
	C184	C	0.887421	0.180872	0.385371
	C185	C	0.127972	0.173537	0.617585
	C186	C	0.124580	0.828508	0.382725
	C187	C	0.892799	0.826137	0.616861
	C188	C	0.185742	0.386690	0.883810
	C189	C	0.189725	0.616395	0.122381
	C190	C	0.833842	0.385959	0.122330
	C191	C	0.829484	0.615620	0.876696
	C192	C	0.409287	0.096491	0.593347
	C193	C	0.611507	0.905831	0.600975
	C194	C	0.606795	0.096553	0.401475
	C195	C	0.405866	0.905727	0.400842
	C196	C	0.609655	0.402458	0.096116
	C197	C	0.607523	0.601001	0.902572
	C198	C	0.411575	0.598496	0.096274
	C199	C	0.408218	0.405698	0.902597
	C200	C	0.103546	0.605658	0.401010
	C201	C	0.915710	0.602341	0.598793
	C202	C	0.102602	0.398777	0.604505
	C203	C	0.915860	0.404019	0.401516
	C204	C	0.909355	0.596326	0.095735
	C205	C	0.112750	0.406296	0.103073
	C206	C	0.107774	0.597137	0.903351
	C207	C	0.906911	0.405049	0.903248
	C208	C	0.110745	0.902389	0.596591
	C209	C	0.105399	0.101449	0.403460
	C210	C	0.910081	0.097754	0.597402
	C211	C	0.907164	0.905776	0.403067
	C212	C	0.603561	0.104669	0.899699
	C213	C	0.415373	0.102172	0.095997
	C214	C	0.602905	0.898475	0.103628
	C215	C	0.415496	0.901598	0.898755
	Zn216	Zn	0.510375	0.002297	0.748136
	Zn217	Zn	0.507838	0.000731	0.250998
	Zn218	Zn	0.757894	0.501039	-0.000618
	Zn219	Zn	0.260172	0.501851	0.000900
	Zn220	Zn	0.008382	0.755139	0.499979
	Zn221	Zn	0.008219	0.249691	0.502609
	Zn222	Zn	0.008790	0.500717	0.753741
	Zn223	Zn	0.010492	0.502998	0.250332
	Zn224	Zn	0.509200	0.749553	0.000049
	Zn225	Zn	0.509478	0.254809	-0.001685
	Zn226	Zn	0.759410	0.001336	0.500614
	Zn227	Zn	0.257532	0.001418	0.497968
	N228	N	0.428128	0.963416	0.673557
	N229	N	0.593862	0.040013	0.675136
	N230	N	0.589571	0.962356	0.327243
	N231	N	0.423156	0.038970	0.321665
	N232	N	0.687609	0.415110	0.963077
	N233	N	0.689865	0.589273	0.035440
	N234	N	0.328620	0.590019	0.963812
	N235	N	0.332303	0.415316	0.036637
	N236	N	0.972605	0.683837	0.412431
	N237	N	0.045708	0.681715	0.586961
	N238	N	0.972934	0.319270	0.590612
	N239	N	0.044902	0.322138	0.415957
	N240	N	0.971531	0.415157	0.680396
	N241	N	0.046500	0.585651	0.679451
	N242	N	0.972904	0.590075	0.320082
	N243	N	0.047520	0.419401	0.326483
	N244	N	0.425133	0.677218	0.961259
	N245	N	0.592600	0.674965	0.038335
	N246	N	0.593973	0.326762	0.961393
	N247	N	0.425458	0.325510	0.036574
	N248	N	0.688020	0.965454	0.413635
	N249	N	0.691441	0.036858	0.589543
	N250	N	0.329487	0.964829	0.585861
	N251	N	0.325357	0.037351	0.407759
	N252	N	0.929057	0.463058	0.175030
	N253	N	0.094267	0.540727	0.176980
	N254	N	0.090663	0.462851	0.829396
	N255	N	0.923251	0.538588	0.823984
	N256	N	0.187478	0.914684	0.462491
	N257	N	0.189578	0.089578	0.535099
	N258	N	0.828362	0.089554	0.463994
	N259	N	0.830413	0.914307	0.537002
	N260	N	0.473155	0.184566	0.909475
	N261	N	0.545855	0.180441	0.085063
	N262	N	0.473037	0.819187	0.088487
	N263	N	0.545971	0.821958	0.914191
	N264	N	0.471053	0.915154	0.178426
	N265	N	0.545934	0.085214	0.177397
	N266	N	0.472788	0.089070	0.818795
	N267	N	0.547580	0.918781	0.824487
	N268	N	0.922388	0.179427	0.464108
	N269	N	0.091398	0.174612	0.539510
	N270	N	0.092214	0.827112	0.461752
	N271	N	0.925171	0.826949	0.537721
	N272	N	0.188431	0.465511	0.915410
	N273	N	0.193309	0.537445	0.091244
	N274	N	0.829332	0.464505	0.088312
	N275	N	0.827028	0.537033	0.911082
	O276	O	-0.499793	0.444441	-0.490028
	H277	H	-0.497680	0.439324	-0.499846
	H278	H	-0.501542	0.446003	-0.490792
	O279	O	0.279440	0.631911	0.687038
	H280	H	0.279835	0.626626	0.681790
	H281	H	0.291441	0.621614	0.685298
	O282	O	0.518931	0.540996	0.487538
	H283	H	0.517208	0.551567	0.490281
	H284	H	0.510922	0.544233	0.462840
	O285	O	0.926961	0.003441	0.958158
	H286	H	0.939902	-0.000909	0.948720
	H287	H	0.919514	0.000494	0.957382
	O288	O	1.039549	0.027606	-0.048588
	H289	H	1.046937	0.017121	-0.041566
	H290	H	1.038672	0.039100	-0.051078
	O291	O	0.447793	0.469708	0.531580
	H292	H	0.440237	0.465207	0.534642
	H293	H	0.444389	0.471138	0.510473
	O294	O	0.977069	-0.018728	0.911181
	H295	H	0.979087	-0.020673	0.919088
	H296	H	0.977723	-0.026558	0.906106
	O297	O	-0.031484	0.043113	-0.022638
	H298	H	-0.032320	0.035864	-0.019700
	H299	H	-0.033069	0.032633	-0.026720
	O300	O	0.546511	0.444385	0.524893
	H301	H	0.548045	0.439782	0.519806
	H302	H	0.559292	0.444650	0.537823
	O303	O	0.630635	0.514412	0.443698
	H304	H	0.632471	0.523434	0.443567
	H305	H	0.629680	0.516346	0.449568
	O306	O	1.060519	0.028204	0.059066
	H307	H	1.066624	0.039869	0.052230
	H308	H	1.059432	0.030049	0.055499
	O309	O	-0.067849	-0.030869	1.022857
	H310	H	-0.069648	-0.014834	1.026189
	H311	H	-0.062343	-0.032292	1.024273
	O312	O	1.001000	1.044911	0.919158
	H313	H	0.982952	1.038702	0.927015
	H314	H	1.000370	1.051991	0.909874
	O315	O	0.578152	0.426242	0.495476
	H316	H	0.583866	0.423671	0.489611
	H317	H	0.578361	0.419409	0.505260
	O318	O	0.481780	0.552254	0.544755
	H319	H	0.483757	0.549350	0.537929
	H320	H	0.482156	0.554097	0.543472
	O321	O	0.058011	0.991572	1.066506
	H322	H	0.061045	1.001544	1.053389
	H323	H	0.063298	0.982228	1.065606
	O324	O	0.460457	0.522694	0.605607
	H325	H	0.461674	0.526940	0.614757
	H326	H	0.467942	0.506919	0.612733
	O327	O	0.429970	0.493674	0.423600
	H328	H	0.425352	0.495308	0.422216
	H329	H	0.432683	0.494016	0.414619
	O330	O	0.410997	0.426157	0.538512
	H331	H	0.403600	0.413577	0.554295
	H332	H	0.392864	0.429079	0.534340
	O333	O	0.479635	0.449724	0.432822
	H334	H	0.478761	0.455623	0.426810
	H335	H	0.499093	0.449736	0.432324
	O336	O	0.562735	0.517599	0.458305
	H337	H	0.561189	0.515113	0.461146
	H338	H	0.561922	0.511920	0.457015
	O339	O	0.985212	1.020788	0.024431
	H340	H	0.982661	1.022047	0.018204
	H341	H	0.992819	1.015352	0.038642
	O342	O	0.469469	0.514842	0.386759
	H343	H	0.461175	0.522717	0.380595
	H344	H	0.464891	0.511696	0.387401
	O345	O	0.506143	0.605527	0.419609
	H346	H	0.497544	0.609339	0.426908
	H347	H	0.504871	0.605883	0.432036
	O348	O	0.077742	0.035584	0.034665
	H349	H	0.085943	0.037241	0.035643
	H350	H	0.075541	0.035519	0.041105
	O351	O	0.029308	0.938202	1.009493
	H352	H	0.022226	0.950091	1.015118
	H353	H	0.020329	0.931804	1.020000
	O354	O	0.590807	0.485972	0.529175
	H355	H	0.595472	0.487787	0.532641
	H356	H	0.588180	0.492758	0.537895
	O357	O	0.033643	0.936878	0.964176
	H358	H	0.023836	0.932636	0.959947
	H359	H	0.030783	0.942874	0.969552
