data_Molecule from HDF5

_cell_length_a		16.634723
_cell_length_b		16.559190
_cell_length_c		16.689549
_cell_angle_alpha	90.030551
_cell_angle_beta	90.074337
_cell_angle_gamma	89.879522
_symmetry_space_group_name_H-M	'P 1'
_symmetry_Int_Tables_number		1

loop_
	_symmetry_equiv_pos_as_xyz
	x,y,z

loop_
	_atom_site_label
	_atom_site_type_symbol
	_atom_site_fract_x
	_atom_site_fract_y
	_atom_site_fract_z
	H0	H	0.391193	0.852184	0.718866
	H1	H	0.602759	0.163421	0.721422
	H2	H	0.601337	0.853218	0.276961
	H3	H	0.386431	0.162114	0.274049
	H4	H	0.717347	0.402102	0.843367
	H5	H	0.719048	0.614976	0.152851
	H6	H	0.274632	0.613799	0.842805
	H7	H	0.273368	0.400815	0.151424
	H8	H	0.839510	0.728289	0.395939
	H9	H	0.153554	0.726558	0.600889
	H10	H	0.842769	0.285524	0.607146
	H11	H	0.150160	0.285914	0.394297
	H12	H	0.840662	0.403233	0.720711
	H13	H	0.152270	0.613032	0.719264
	H14	H	0.841760	0.616179	0.275647
	H15	H	0.149122	0.398292	0.274497
	H16	H	0.391596	0.728718	0.842976
	H17	H	0.600629	0.729556	0.152894
	H18	H	0.599431	0.288521	0.842610
	H19	H	0.390901	0.285675	0.152574
	H20	H	0.717399	0.852811	0.393607
	H21	H	0.718695	0.162706	0.606194
	H22	H	0.275705	0.852146	0.603325
	H23	H	0.274395	0.163940	0.392648
	H24	H	0.887865	0.354484	0.222499
	H25	H	0.103351	0.662698	0.220680
	H26	H	0.101417	0.353014	0.777277
	H27	H	0.892580	0.666040	0.780114
	H28	H	0.219024	0.900795	0.344190
	H29	H	0.217050	0.112741	0.653254
	H30	H	0.769863	0.118391	0.346491
	H31	H	0.771955	0.900112	0.651595
	H32	H	0.341487	0.229817	0.893213
	H33	H	0.651549	0.229011	0.103806
	H34	H	0.340885	0.786142	0.103171
	H35	H	0.649755	0.783022	0.890168
	H36	H	0.343046	0.898848	0.222738
	H37	H	0.650305	0.113863	0.221413
	H38	H	0.340617	0.113699	0.777655
	H39	H	0.649776	0.897289	0.772922
	H40	H	0.883919	0.236601	0.348165
	H41	H	0.099514	0.228657	0.653508
	H42	H	0.101731	0.785260	0.343845
	H43	H	0.891166	0.786063	0.653432
	H44	H	0.219590	0.353914	0.890517
	H45	H	0.218547	0.663296	0.103230
	H46	H	0.775411	0.352915	0.103427
	H47	H	0.774988	0.664601	0.894132
	H48	H	0.407712	0.118877	0.584331
	H49	H	0.589166	0.894535	0.588320
	H50	H	0.580832	0.119383	0.410278
	H51	H	0.403786	0.894344	0.407652
	H52	H	0.588399	0.419119	0.110548
	H53	H	0.588004	0.598106	0.885855
	H54	H	0.410608	0.603041	0.109936
	H55	H	0.400530	0.418194	0.884823
	H56	H	0.107814	0.597190	0.408555
	H57	H	0.883820	0.602044	0.587273
	H58	H	0.108225	0.417210	0.588417
	H59	H	0.884619	0.422059	0.409588
	H60	H	0.106888	0.421618	0.586752
	H61	H	0.886132	0.594952	0.586580
	H62	H	0.107035	0.596135	0.410237
	H63	H	0.886328	0.422837	0.414598
	H64	H	0.400217	0.596441	0.111369
	H65	H	0.586148	0.591118	0.888553
	H66	H	0.585507	0.420809	0.109113
	H67	H	0.408239	0.425799	0.889914
	H68	H	0.582377	0.118962	0.413042
	H69	H	0.579298	0.896864	0.590238
	H70	H	0.403413	0.121834	0.587939
	H71	H	0.412385	0.896846	0.406902
	H72	H	0.906952	0.620235	0.083836
	H73	H	0.083386	0.395502	0.089022
	H74	H	0.081425	0.622265	0.901199
	H75	H	0.909789	0.398314	0.910941
	H76	H	0.082566	0.917087	0.608223
	H77	H	0.081860	0.097296	0.387895
	H78	H	0.907802	0.092238	0.607828
	H79	H	0.901147	0.922508	0.386988
	H80	H	0.607336	0.095202	0.908086
	H81	H	0.386477	0.097000	0.081979
	H82	H	0.608100	0.915713	0.085905
	H83	H	0.384084	0.922308	0.902032
	H84	H	0.605476	0.921998	0.083264
	H85	H	0.387022	0.091941	0.086477
	H86	H	0.609137	0.097602	0.907728
	H87	H	0.384123	0.913882	0.911583
	H88	H	0.911051	0.094549	0.608026
	H89	H	0.085657	0.097970	0.386198
	H90	H	0.089939	0.915718	0.611733
	H91	H	0.911904	0.922514	0.390689
	H92	H	0.080386	0.617509	0.916179
	H93	H	0.081948	0.397203	0.084319
	H94	H	0.907239	0.621401	0.089922
	H95	H	0.904593	0.395448	0.909433
	H96	H	0.408239	0.120319	0.590440
	H97	H	0.583511	0.898942	0.581431
	H98	H	0.583640	0.120635	0.410417
	H99	H	0.407596	0.897927	0.414339
	H100	H	0.585386	0.417615	0.109997
	H101	H	0.580847	0.596816	0.888612
	H102	H	0.410280	0.591448	0.106534
	H103	H	0.412233	0.415006	0.886751
	H104	H	0.107161	0.595065	0.408543
	H105	H	0.883334	0.597828	0.593140
	H106	H	0.107992	0.421262	0.591430
	H107	H	0.886979	0.426663	0.410735
	H108	H	0.912446	0.618699	0.086885
	H109	H	0.087256	0.397148	0.085102
	H110	H	0.094260	0.623225	0.910724
	H111	H	0.909091	0.395993	0.905219
	H112	H	0.087665	0.922834	0.609210
	H113	H	0.085000	0.094320	0.388159
	H114	H	0.907244	0.096403	0.609304
	H115	H	0.907300	0.913243	0.385919
	H116	H	0.607073	0.097116	0.910142
	H117	H	0.384127	0.097712	0.088505
	H118	H	0.607882	0.921618	0.090058
	H119	H	0.389310	0.925312	0.913057
	C120	C	0.374759	0.017025	0.619543
	C121	C	0.617229	0.999355	0.620262
	C122	C	0.615826	0.016941	0.378208
	C123	C	0.374349	0.999109	0.376665
	C124	C	0.618273	0.386546	0.007257
	C125	C	0.617356	0.628677	0.989955
	C126	C	0.374690	0.629396	0.006597
	C127	C	0.374830	0.386782	0.989386
	C128	C	0.004524	0.629088	0.377395
	C129	C	0.987841	0.629799	0.620014
	C130	C	0.005055	0.387762	0.620996
	C131	C	0.987512	0.388488	0.378204
	C132	C	0.875807	0.517141	0.119423
	C133	C	0.117214	0.499350	0.118954
	C134	C	0.117684	0.517645	0.877050
	C135	C	0.875404	0.500084	0.877216
	C136	C	0.118176	0.886191	0.506906
	C137	C	0.116384	0.128987	0.489979
	C138	C	0.874064	0.129731	0.507442
	C139	C	0.874898	0.887215	0.490249
	C140	C	0.505204	0.129241	0.876731
	C141	C	0.487859	0.128543	0.119289
	C142	C	0.504635	0.886712	0.118934
	C143	C	0.487724	0.886204	0.875896
	C144	C	0.373205	0.899272	0.678840
	C145	C	0.620710	0.116266	0.681299
	C146	C	0.619479	0.899821	0.317231
	C147	C	0.369888	0.115785	0.315396
	C148	C	0.677575	0.384009	0.890304
	C149	C	0.678167	0.632473	0.106350
	C150	C	0.314757	0.631871	0.889695
	C151	C	0.313955	0.383168	0.105433
	C152	C	0.886941	0.689014	0.376296
	C153	C	0.106273	0.687607	0.620153
	C154	C	0.888611	0.326658	0.624169
	C155	C	0.103659	0.326280	0.375388
	C156	C	0.887892	0.385330	0.680821
	C157	C	0.105510	0.631272	0.679024
	C158	C	0.887820	0.633034	0.316713
	C159	C	0.103005	0.382281	0.316055
	C160	C	0.372991	0.689046	0.889676
	C161	C	0.619520	0.689522	0.106438
	C162	C	0.618683	0.327456	0.889839
	C163	C	0.372467	0.326034	0.105936
	C164	C	0.676900	0.899630	0.375226
	C165	C	0.678232	0.116092	0.623850
	C166	C	0.315608	0.899218	0.621312
	C167	C	0.313812	0.116585	0.374293
	C168	C	0.871586	0.400535	0.180964
	C169	C	0.121111	0.616089	0.180146
	C170	C	0.120028	0.400167	0.816844
	C171	C	0.873757	0.618540	0.819140
	C172	C	0.178468	0.882988	0.390472
	C173	C	0.176621	0.131111	0.606834
	C174	C	0.810983	0.135496	0.392556
	C175	C	0.813462	0.883167	0.605973
	C176	C	0.387891	0.189425	0.875077
	C177	C	0.604552	0.189049	0.122499
	C178	C	0.387809	0.826032	0.121560
	C179	C	0.603404	0.823791	0.872436
	C180	C	0.388603	0.882233	0.180772
	C181	C	0.604146	0.131736	0.180728
	C182	C	0.387595	0.131650	0.817453
	C183	C	0.603398	0.880854	0.814106
	C184	C	0.868001	0.193976	0.393393
	C185	C	0.118295	0.188450	0.607038
	C186	C	0.120395	0.825434	0.390290
	C187	C	0.872596	0.826436	0.606811
	C188	C	0.178236	0.400231	0.873652
	C189	C	0.178183	0.616459	0.121944
	C190	C	0.815329	0.399949	0.122120
	C191	C	0.815503	0.617780	0.875997
	C192	C	0.399306	0.099075	0.594594
	C193	C	0.591417	0.917966	0.594045
	C194	C	0.589651	0.098429	0.403878
	C195	C	0.400536	0.917672	0.402441
	C196	C	0.593587	0.411876	0.088699
	C197	C	0.592236	0.602738	0.908767
	C198	C	0.399768	0.604088	0.088180
	C199	C	0.399934	0.412256	0.908358
	C200	C	0.086133	0.603453	0.401993
	C201	C	0.905774	0.605475	0.595886
	C202	C	0.086459	0.412806	0.595974
	C203	C	0.906957	0.416065	0.404223
	C204	C	0.901549	0.598944	0.093869
	C205	C	0.091427	0.417906	0.093418
	C206	C	0.092710	0.599683	0.902315
	C207	C	0.900610	0.417933	0.901482
	C208	C	0.093594	0.911438	0.588484
	C209	C	0.091237	0.103809	0.408647
	C210	C	0.901186	0.102272	0.587611
	C211	C	0.899710	0.912235	0.408912
	C212	C	0.586665	0.103825	0.901706
	C213	C	0.406782	0.102882	0.093116
	C214	C	0.585767	0.912572	0.093628
	C215	C	0.406736	0.912915	0.901663
	Zn216	Zn	0.496041	0.008120	0.748181
	Zn217	Zn	0.495353	0.008107	0.248429
	Zn218	Zn	0.747018	0.508165	-0.001616
	Zn219	Zn	0.246084	0.507984	-0.002380
	Zn220	Zn	-0.003502	0.758166	0.498271
	Zn221	Zn	-0.004805	0.259217	0.499150
	Zn222	Zn	-0.003784	0.509278	0.748850
	Zn223	Zn	-0.003840	0.508300	0.247751
	Zn224	Zn	0.496245	0.757872	-0.002112
	Zn225	Zn	0.496389	0.257770	-0.001356
	Zn226	Zn	0.745380	0.008478	0.498871
	Zn227	Zn	0.246008	0.008180	0.497970
	N228	N	0.408991	0.973754	0.678224
	N229	N	0.583597	0.042379	0.679538
	N230	N	0.582248	0.973849	0.318927
	N231	N	0.406743	0.041689	0.316432
	N232	N	0.677854	0.419968	0.964494
	N233	N	0.677109	0.595349	0.032730
	N234	N	0.315565	0.595570	0.963631
	N235	N	0.315007	0.419951	0.031845
	N236	N	0.960574	0.686784	0.413234
	N237	N	0.031980	0.687025	0.583995
	N238	N	0.962363	0.327885	0.587587
	N239	N	0.030639	0.329756	0.413328
	N240	N	0.961420	0.422622	0.679120
	N241	N	0.030684	0.596524	0.679502
	N242	N	0.962092	0.596611	0.316986
	N243	N	0.029572	0.420086	0.317511
	N244	N	0.409362	0.687849	0.963625
	N245	N	0.582529	0.687346	0.032986
	N246	N	0.582741	0.328623	0.963713
	N247	N	0.409374	0.327772	0.032611
	N248	N	0.675040	0.973646	0.412337
	N249	N	0.676383	0.042134	0.586668
	N250	N	0.316304	0.973514	0.585007
	N251	N	0.316385	0.042911	0.411822
	N252	N	0.908575	0.474465	0.179333
	N253	N	0.084179	0.542239	0.178690
	N254	N	0.083061	0.474187	0.818845
	N255	N	0.910256	0.544125	0.819553
	N256	N	0.177431	0.919957	0.464211
	N257	N	0.175966	0.095018	0.532737
	N258	N	0.814566	0.096320	0.464752
	N259	N	0.814882	0.920311	0.532484
	N260	N	0.461925	0.187787	0.911636
	N261	N	0.531374	0.186960	0.084736
	N262	N	0.460981	0.828604	0.083737
	N263	N	0.530324	0.826999	0.910316
	N264	N	0.462189	0.919499	0.179325
	N265	N	0.530462	0.094825	0.178814
	N266	N	0.461574	0.095055	0.818138
	N267	N	0.530340	0.919183	0.816219
	N268	N	0.906674	0.190577	0.465993
	N269	N	0.081811	0.187459	0.533312
	N270	N	0.083874	0.827187	0.463754
	N271	N	0.910436	0.828881	0.533800
	N272	N	0.176960	0.474337	0.910579
	N273	N	0.176244	0.542616	0.084707
	N274	N	0.817973	0.473539	0.084345
	N275	N	0.816195	0.543002	0.911345
	O276	O	0.211266	1.031786	0.220376
	H277	H	0.207838	1.042827	0.205364
	H278	H	0.239064	1.045585	0.241326
	O279	O	0.290088	0.302605	0.701266
	H280	H	0.285810	0.337485	0.694189
	H281	H	0.256053	0.272196	0.733821
	O282	O	0.724109	0.276713	0.733108
	H283	H	0.743157	0.252107	0.732364
	H284	H	0.719425	0.278713	0.709642
	O285	O	0.708976	0.650110	0.712210
	H286	H	0.717422	0.661126	0.691906
	H287	H	0.724991	0.669283	0.730054
	O288	O	0.464170	0.551615	0.461875
	H289	H	0.471617	0.547116	0.462923
	H290	H	0.466159	0.554916	0.467414
	O291	O	0.282608	0.725829	0.466839
	H292	H	0.265122	0.737957	0.473123
	H293	H	0.286956	0.718459	0.480041
	O294	O	0.810562	0.026836	1.062429
	H295	H	0.809106	0.042224	1.055560
	H296	H	0.821063	0.033877	1.068902
	O297	O	0.196759	0.844488	0.089830
	H298	H	0.188083	0.855135	0.082233
	H299	H	0.199636	0.855808	0.091594
	O300	O	0.650510	0.403320	0.572290
	H301	H	0.658388	0.368690	0.568506
	H302	H	0.647909	0.409344	0.613534
	O303	O	0.494813	0.560338	0.355626
	H304	H	0.500740	0.574003	0.355784
	H305	H	0.488606	0.562783	0.360240
	O306	O	0.475100	0.497741	0.477125
	H307	H	0.499249	0.503109	0.486694
	H308	H	0.467771	0.491986	0.478694
	O309	O	0.330630	0.547781	0.490257
	H310	H	0.320678	0.532974	0.482603
	H311	H	0.337249	0.522919	0.487355
	O312	O	0.469306	0.481967	0.505785
	H313	H	0.462643	0.471480	0.504332
	H314	H	0.464360	0.483878	0.512054
	O315	O	0.981703	1.234140	1.018247
	H316	H	0.971939	1.231880	1.017349
	H317	H	0.996862	1.234411	1.014317
	O318	O	0.275542	0.286991	0.532691
	H319	H	0.273919	0.269878	0.544378
	H320	H	0.262571	0.280721	0.550771
	O321	O	0.503129	0.513160	0.273544
	H322	H	0.508865	0.516188	0.271519
	H323	H	0.489949	0.513119	0.278669
	O324	O	1.274342	1.530109	-0.727141
	H325	H	1.250112	1.532779	-0.740378
	H326	H	1.271510	1.565095	-0.724169
	O327	O	-0.051807	-0.054507	0.967329
	H328	H	-0.066792	-0.061540	0.980862
	H329	H	-0.052739	-0.058161	0.967586
	O330	O	1.191322	0.203046	0.800942
	H331	H	1.170922	0.181830	0.817489
	H332	H	1.176635	0.186226	0.823293
	O333	O	0.798823	0.148062	0.114630
	H334	H	0.800754	0.145931	0.097515
	H335	H	0.817263	0.136077	0.099575
	O336	O	0.261410	0.461029	0.449318
	H337	H	0.258119	0.452691	0.436459
	H338	H	0.268697	0.452471	0.457294
	O339	O	1.045307	-0.179572	1.067120
	H340	H	1.019280	-0.180828	1.072945
	H341	H	1.046101	-0.186193	1.086346
	O342	O	0.067089	-0.137793	0.068792
	H343	H	0.062200	-0.146411	0.041321
	H344	H	0.065660	-0.150069	0.089964
	O345	O	-0.006799	1.136505	1.118066
	H346	H	0.003442	1.126017	1.133733
	H347	H	-0.010491	1.140447	1.114850
	O348	O	0.028474	0.069417	-0.177148
	H349	H	0.043881	0.065626	-0.179600
	H350	H	0.020784	0.048032	-0.175696
	O351	O	0.870145	0.213163	0.843140
	H352	H	0.897661	0.210766	0.852862
	H353	H	0.885661	0.197359	0.827369
	O354	O	0.031385	-0.206121	0.776029
	H355	H	0.057532	-0.222172	0.765357
	H356	H	0.055019	-0.218191	0.771732
	O357	O	0.293012	0.473788	0.713950
	H358	H	0.282685	0.483262	0.730785
	H359	H	0.314055	0.475809	0.717503
	O360	O	0.458679	0.667751	0.337689
	H361	H	0.455947	0.672506	0.321303
	H362	H	0.451736	0.667226	0.339801
	O363	O	-0.046147	0.032329	0.238693
	H364	H	-0.035154	0.035948	0.239780
	H365	H	-0.026884	0.016443	0.243427
	O366	O	0.521932	0.285271	0.276456
	H367	H	0.526401	0.276620	0.258342
	H368	H	0.524532	0.286590	0.273612
	O369	O	1.349698	0.354070	0.303147
	H370	H	1.355078	0.373978	0.315145
	H371	H	1.369728	0.349160	0.314825
	O372	O	0.582588	0.557920	0.543426
	H373	H	0.592883	0.548384	0.539216
	H374	H	0.578398	0.549151	0.538949
	O375	O	0.804418	-0.208354	0.006494
	H376	H	0.805731	-0.213129	0.043407
	H377	H	0.792699	-0.221440	0.009317
	O378	O	1.215570	-0.016397	-0.204288
	H379	H	1.220901	-0.035163	-0.213242
	H380	H	1.226067	-0.031331	-0.210362
	O381	O	0.204828	1.221094	1.212630
	H382	H	0.234334	1.244461	1.241138
	H383	H	0.189541	1.219720	1.194536
	O384	O	1.145872	0.145732	0.938884
	H385	H	1.143104	0.118504	0.939912
	H386	H	1.132422	0.141671	0.946049
	O387	O	0.970338	1.221196	-0.217831
	H388	H	0.972324	1.224585	-0.237266
	H389	H	0.987630	1.218332	-0.214365
	O390	O	0.600017	0.541061	0.503445
	H391	H	0.608755	0.530007	0.508205
	H392	H	0.599234	0.528764	0.509336
	O393	O	0.472974	0.298665	0.449364
	H394	H	0.462553	0.305398	0.455169
	H395	H	0.475565	0.289319	0.437387
	O396	O	0.040165	1.015332	1.163952
	H397	H	0.069880	1.020752	1.164682
	H398	H	0.035084	0.979541	1.165787
	O399	O	-0.208898	0.042000	0.796290
	H400	H	-0.222107	0.036159	0.786949
	H401	H	-0.211372	0.036702	0.799576
	O402	O	0.515184	0.419138	0.411379
	H403	H	0.515837	0.423743	0.428670
	H404	H	0.514128	0.402334	0.420701
	O405	O	0.983088	-0.072779	0.914910
	H406	H	0.989417	-0.072780	0.908278
	H407	H	0.980560	-0.075796	0.912212
	O408	O	-0.061334	-0.042759	-0.241628
	H409	H	-0.052171	-0.062833	-0.236396
	H410	H	-0.072193	-0.054513	-0.243452
	O411	O	0.585683	0.718380	0.714396
	H412	H	0.607980	0.738500	0.728864
	H413	H	0.613065	0.715359	0.706422
	O414	O	0.563671	0.729568	0.456925
	H415	H	0.554205	0.734091	0.454175
	H416	H	0.567557	0.726715	0.462039
	O417	O	0.710487	0.669899	0.500684
	H418	H	0.718478	0.673303	0.488415
	H419	H	0.711509	0.648009	0.505642
	O420	O	0.333508	0.696654	0.661947
	H421	H	0.361045	0.683154	0.659188
	H422	H	0.343961	0.680911	0.639547
	O423	O	-0.017855	0.002854	0.946015
	H424	H	-0.014023	0.009218	0.931924
	H425	H	-0.010233	-0.004012	0.964426
	O426	O	0.710486	0.298005	0.371647
	H427	H	0.738483	0.278340	0.348977
	H428	H	0.699128	0.307878	0.359695
	O429	O	0.762518	0.961074	0.921791
	H430	H	0.757510	0.946179	0.934323
	H431	H	0.763744	0.966927	0.930432
	O432	O	0.329837	0.666696	0.339014
	H433	H	0.319107	0.683625	0.359868
	H434	H	0.335815	0.662879	0.351803
	O435	O	-0.050540	0.797408	0.205229
	H436	H	-0.064464	0.775369	0.224535
	H437	H	-0.080037	0.793253	0.204827
	O438	O	0.170169	0.050540	0.093088
	H439	H	0.164069	0.066991	0.093844
	H440	H	0.163052	0.044721	0.099660
	O441	O	-0.066093	-0.143166	-0.038662
	H442	H	-0.085562	-0.135889	-0.026786
	H443	H	-0.061457	-0.149084	-0.047505
	O444	O	0.766197	0.243551	0.237234
	H445	H	0.788343	0.219717	0.212331
	H446	H	0.761714	0.233668	0.232042
	O447	O	0.196276	0.844245	0.922099
	H448	H	0.209677	0.839387	0.936299
	H449	H	0.191064	0.836888	0.932815
	O450	O	-0.191784	0.824250	0.808882
	H451	H	-0.175612	0.841780	0.828150
	H452	H	-0.177180	0.839504	0.831678
	O453	O	0.440287	0.713520	0.526530
	H454	H	0.433936	0.712869	0.535515
	H455	H	0.448333	0.716181	0.537796
	O456	O	-0.222088	-0.031534	1.215747
	H457	H	-0.226705	-0.016723	1.233394
	H458	H	-0.216044	-0.007604	1.212550
	O459	O	0.691896	0.306800	0.557661
	H460	H	0.687641	0.301511	0.550584
	H461	H	0.686498	0.309153	0.528978
	O462	O	0.520319	0.483406	0.725397
	H463	H	0.540533	0.492900	0.728409
	H464	H	0.520021	0.459287	0.719955
	O465	O	0.683819	-0.298618	0.308850
	H466	H	0.667848	-0.318905	0.326303
	H467	H	0.664855	-0.318744	0.328091
	O468	O	0.656187	0.379972	0.525317
	H469	H	0.651663	0.389576	0.536270
	H470	H	0.659149	0.359997	0.519822
	O471	O	0.460857	0.617014	0.725411
	H472	H	0.485307	0.634229	0.734761
	H473	H	0.491312	0.610286	0.719645
	O474	O	0.221040	0.782083	0.768402
	H475	H	0.222231	0.777744	0.799316
	H476	H	0.257542	0.757849	0.747027
	O477	O	0.666441	0.508179	1.723759
	H478	H	0.650682	0.542644	1.725229
	H479	H	0.685250	0.508888	1.740911
	O480	O	0.218318	0.233534	0.027905
	H481	H	0.230192	0.244374	0.023343
	H482	H	0.230504	0.230873	0.037924
	O483	O	0.455665	0.291936	0.716070
	H484	H	0.438084	0.268671	0.736803
	H485	H	0.426664	0.295161	0.714554
	O486	O	1.020806	0.223054	1.216239
	H487	H	1.029385	0.230215	1.213484
	H488	H	1.027668	0.229014	1.230508
	O489	O	1.201838	1.021306	-0.023304
	H490	H	1.203906	1.024082	-0.006671
	H491	H	1.192714	1.018625	-0.032721
	O492	O	-0.226977	0.227928	-0.037145
	H493	H	-0.223560	0.235428	-0.058664
	H494	H	-0.245920	0.247898	-0.053359
	O495	O	0.165780	0.791551	1.155711
	H496	H	0.171938	0.800909	1.147164
	H497	H	0.169007	0.778110	1.157913
	O498	O	0.783803	0.797810	1.207477
	H499	H	0.777508	0.852229	1.216763
	H500	H	0.749621	0.769378	1.242188
	O501	O	0.717849	0.484874	0.281681
	H502	H	0.733984	0.475040	0.261755
	H503	H	0.713452	0.468611	0.285307
