data_Molecule from HDF5

_cell_length_a		16.486391
_cell_length_b		16.659711
_cell_length_c		16.563694
_cell_angle_alpha	90.112411
_cell_angle_beta	90.056289
_cell_angle_gamma	89.950680
_symmetry_space_group_name_H-M	'P 1'
_symmetry_Int_Tables_number		1

loop_
	_symmetry_equiv_pos_as_xyz
	x,y,z

loop_
	_atom_site_label
	_atom_site_type_symbol
	_atom_site_fract_x
	_atom_site_fract_y
	_atom_site_fract_z
	H0	H	0.388045	0.846262	0.739534
	H1	H	0.598258	0.157235	0.735406
	H2	H	0.602753	0.846357	0.290235
	H3	H	0.387734	0.154755	0.292924
	H4	H	0.710863	0.402291	0.857867
	H5	H	0.716846	0.605869	0.173076
	H6	H	0.275571	0.603553	0.859214
	H7	H	0.273935	0.395168	0.172408
	H8	H	0.839423	0.722294	0.408430
	H9	H	0.152800	0.719851	0.619729
	H10	H	0.837442	0.280364	0.619199
	H11	H	0.150971	0.278676	0.411745
	H12	H	0.837537	0.397067	0.735734
	H13	H	0.153585	0.603003	0.734666
	H14	H	0.838281	0.603268	0.294458
	H15	H	0.151157	0.394177	0.294629
	H16	H	0.390693	0.720608	0.859078
	H17	H	0.604320	0.726256	0.170549
	H18	H	0.598587	0.281599	0.859559
	H19	H	0.389792	0.279646	0.172605
	H20	H	0.717074	0.844115	0.409443
	H21	H	0.716551	0.155786	0.619930
	H22	H	0.271689	0.845779	0.622249
	H23	H	0.272275	0.155394	0.411017
	H24	H	0.890001	0.343881	0.236179
	H25	H	0.102371	0.653921	0.241075
	H26	H	0.097763	0.343240	0.797024
	H27	H	0.892843	0.657239	0.797269
	H28	H	0.214709	0.896420	0.358239
	H29	H	0.213336	0.102428	0.672424
	H30	H	0.772276	0.104029	0.358266
	H31	H	0.778546	0.900302	0.673910
	H32	H	0.336534	0.217746	0.916006
	H33	H	0.652720	0.221897	0.122619
	H34	H	0.338597	0.779124	0.121534
	H35	H	0.652629	0.779986	0.910377
	H36	H	0.337502	0.897217	0.235527
	H37	H	0.652472	0.105206	0.237908
	H38	H	0.336195	0.101075	0.800107
	H39	H	0.653284	0.897400	0.796432
	H40	H	0.884584	0.223755	0.359759
	H41	H	0.097861	0.220064	0.672271
	H42	H	0.099316	0.778721	0.358374
	H43	H	0.892582	0.780873	0.672548
	H44	H	0.214387	0.342784	0.914729
	H45	H	0.219328	0.654584	0.124494
	H46	H	0.774259	0.343904	0.118137
	H47	H	0.777963	0.658600	0.915602
	H48	H	0.400510	0.112697	0.605000
	H49	H	0.582915	0.890368	0.600521
	H50	H	0.586278	0.113123	0.425895
	H51	H	0.402376	0.890267	0.433984
	H52	H	0.582745	0.406218	0.130020
	H53	H	0.578940	0.598206	0.904458
	H54	H	0.413364	0.591183	0.126330
	H55	H	0.405871	0.410585	0.904628
	H56	H	0.106908	0.590328	0.430544
	H57	H	0.881882	0.593577	0.605096
	H58	H	0.109335	0.407746	0.606746
	H59	H	0.881343	0.409681	0.427561
	H60	H	0.108526	0.408477	0.604956
	H61	H	0.882311	0.589171	0.604248
	H62	H	0.105639	0.584971	0.430922
	H63	H	0.882480	0.412336	0.427681
	H64	H	0.406016	0.593314	0.129337
	H65	H	0.594071	0.592508	0.900326
	H66	H	0.590306	0.411360	0.131286
	H67	H	0.408094	0.408892	0.903973
	H68	H	0.579218	0.109270	0.425350
	H69	H	0.590323	0.886870	0.606335
	H70	H	0.406337	0.113454	0.609650
	H71	H	0.401950	0.885321	0.419129
	H72	H	0.907620	0.610358	0.103103
	H73	H	0.084871	0.386291	0.111276
	H74	H	0.088641	0.611383	0.931304
	H75	H	0.904924	0.389495	0.926282
	H76	H	0.086772	0.913320	0.627020
	H77	H	0.087795	0.086396	0.402437
	H78	H	0.904284	0.096510	0.629044
	H79	H	0.913523	0.909326	0.405501
	H80	H	0.607343	0.086319	0.925677
	H81	H	0.382893	0.093857	0.103874
	H82	H	0.607027	0.912496	0.103456
	H83	H	0.382608	0.910570	0.925676
	H84	H	0.606339	0.914102	0.100337
	H85	H	0.383888	0.088398	0.103782
	H86	H	0.612198	0.093790	0.919998
	H87	H	0.382490	0.910366	0.927422
	H88	H	0.901490	0.084707	0.626911
	H89	H	0.076566	0.086387	0.405536
	H90	H	0.078926	0.910398	0.626320
	H91	H	0.903264	0.904185	0.399515
	H92	H	0.087930	0.614162	0.921027
	H93	H	0.077496	0.392840	0.102611
	H94	H	0.905963	0.611957	0.105977
	H95	H	0.900621	0.387481	0.924359
	H96	H	0.406850	0.109433	0.603292
	H97	H	0.580977	0.887865	0.610256
	H98	H	0.582993	0.109056	0.431989
	H99	H	0.415114	0.891804	0.424636
	H100	H	0.582982	0.414550	0.127731
	H101	H	0.583442	0.582291	0.907682
	H102	H	0.406887	0.585792	0.126882
	H103	H	0.404978	0.407970	0.903597
	H104	H	0.108111	0.586615	0.426318
	H105	H	0.881714	0.590460	0.608394
	H106	H	0.107490	0.409783	0.606901
	H107	H	0.880957	0.411446	0.425225
	H108	H	0.909039	0.610492	0.106332
	H109	H	0.089405	0.389036	0.099878
	H110	H	0.079741	0.609849	0.925536
	H111	H	0.904788	0.387174	0.921696
	H112	H	0.085388	0.904893	0.629048
	H113	H	0.081720	0.095902	0.401247
	H114	H	0.911993	0.089341	0.623601
	H115	H	0.902450	0.916095	0.404297
	H116	H	0.608895	0.095471	0.930027
	H117	H	0.381587	0.090611	0.107753
	H118	H	0.606083	0.915711	0.103598
	H119	H	0.382910	0.912128	0.926834
	C120	C	0.372524	0.008934	0.637726
	C121	C	0.616511	0.991564	0.637309
	C122	C	0.616065	0.008148	0.394268
	C123	C	0.373377	0.991415	0.394067
	C124	C	0.616329	0.380186	0.025356
	C125	C	0.617796	0.623323	1.007547
	C126	C	0.375687	0.621381	0.024008
	C127	C	0.374331	0.378416	1.007623
	C128	C	0.003455	0.619789	0.395623
	C129	C	0.986606	0.621623	0.636638
	C130	C	0.003633	0.378314	0.637113
	C131	C	0.985246	0.378708	0.394550
	C132	C	0.874427	0.508156	0.136757
	C133	C	0.117258	0.491663	0.138422
	C134	C	0.116503	0.508344	0.895136
	C135	C	0.873485	0.492187	0.894005
	C136	C	0.115829	0.878150	0.523688
	C137	C	0.114523	0.120814	0.506820
	C138	C	0.872691	0.121750	0.523111
	C139	C	0.874360	0.878521	0.506807
	C140	C	0.504043	0.121642	0.895837
	C141	C	0.486901	0.122534	0.137909
	C142	C	0.503292	0.880794	0.135577
	C143	C	0.486865	0.879625	0.894423
	C144	C	0.370022	0.892567	0.698516
	C145	C	0.617439	0.110037	0.695739
	C146	C	0.619667	0.891976	0.331901
	C147	C	0.369669	0.108277	0.333316
	C148	C	0.673042	0.381486	0.905604
	C149	C	0.677719	0.625395	0.125438
	C150	C	0.315439	0.622427	0.906371
	C151	C	0.314081	0.376926	0.125367
	C152	C	0.885958	0.681113	0.391279
	C153	C	0.105410	0.680239	0.638300
	C154	C	0.884724	0.319923	0.638384
	C155	C	0.103935	0.318633	0.392678
	C156	C	0.884977	0.377659	0.696304
	C157	C	0.105782	0.622008	0.695383
	C158	C	0.885454	0.622382	0.334413
	C159	C	0.104025	0.375844	0.334655
	C160	C	0.372581	0.680805	0.906289
	C161	C	0.621655	0.684947	0.124271
	C162	C	0.617324	0.321687	0.906706
	C163	C	0.371905	0.319522	0.125594
	C164	C	0.677014	0.891150	0.390647
	C165	C	0.676190	0.109237	0.638464
	C166	C	0.312041	0.892260	0.640334
	C167	C	0.312462	0.108635	0.392085
	C168	C	0.871882	0.390463	0.196047
	C169	C	0.120583	0.607665	0.200450
	C170	C	0.116936	0.390081	0.836777
	C171	C	0.873934	0.610379	0.836560
	C172	C	0.175069	0.877054	0.405232
	C173	C	0.173840	0.121959	0.625085
	C174	C	0.812173	0.122824	0.405397
	C175	C	0.816920	0.879460	0.626231
	C176	C	0.384491	0.179023	0.896308
	C177	C	0.605146	0.182152	0.140763
	C178	C	0.385447	0.820022	0.138855
	C179	C	0.605425	0.820170	0.892311
	C180	C	0.384924	0.878280	0.196104
	C181	C	0.605160	0.124174	0.198126
	C182	C	0.384045	0.121013	0.838751
	C183	C	0.605563	0.878305	0.835235
	C184	C	0.867899	0.182649	0.406211
	C185	C	0.116345	0.180210	0.625025
	C186	C	0.117930	0.818687	0.405493
	C187	C	0.873775	0.820569	0.625605
	C188	C	0.174971	0.389977	0.895011
	C189	C	0.178787	0.607950	0.142527
	C190	C	0.814194	0.390697	0.137687
	C191	C	0.816914	0.611144	0.895544
	C192	C	0.397343	0.090759	0.612894
	C193	C	0.591841	0.909764	0.612714
	C194	C	0.590209	0.089393	0.420329
	C195	C	0.399046	0.910289	0.418875
	C196	C	0.592367	0.403955	0.107995
	C197	C	0.592607	0.598199	0.925561
	C198	C	0.401407	0.596937	0.106175
	C199	C	0.399141	0.402467	0.925488
	C200	C	0.085491	0.594233	0.421727
	C201	C	0.903518	0.597876	0.612633
	C202	C	0.086871	0.401982	0.612918
	C203	C	0.903036	0.403938	0.419722
	C204	C	0.900148	0.589637	0.112319
	C205	C	0.091256	0.410443	0.112083
	C206	C	0.092538	0.590494	0.919193
	C207	C	0.896623	0.409421	0.917373
	C208	C	0.090911	0.902791	0.606095
	C209	C	0.089430	0.096433	0.424465
	C210	C	0.898618	0.097112	0.605193
	C211	C	0.899175	0.902818	0.424563
	C212	C	0.587735	0.098416	0.918747
	C213	C	0.404231	0.097944	0.112543
	C214	C	0.585043	0.906667	0.109799
	C215	C	0.404172	0.903979	0.919542
	Zn216	Zn	0.494969	0.001121	0.766297
	Zn217	Zn	0.495009	0.000836	0.264963
	Zn218	Zn	0.745169	0.501062	0.016324
	Zn219	Zn	0.246279	0.500384	0.016774
	Zn220	Zn	-0.004810	0.749446	0.515072
	Zn221	Zn	-0.006737	0.250263	0.514891
	Zn222	Zn	-0.004668	0.500572	0.765077
	Zn223	Zn	-0.004990	0.499441	0.266689
	Zn224	Zn	0.495717	0.751281	0.015668
	Zn225	Zn	0.496246	0.250543	0.017070
	Zn226	Zn	0.745222	-0.000564	0.515412
	Zn227	Zn	0.244107	-0.000366	0.515217
	N228	N	0.407109	0.966217	0.696887
	N229	N	0.581208	0.035805	0.695360
	N230	N	0.582613	0.965847	0.334053
	N231	N	0.406804	0.034490	0.334309
	N232	N	0.672783	0.416866	0.980485
	N233	N	0.675454	0.587749	0.051698
	N234	N	0.317106	0.586218	0.980848
	N235	N	0.315322	0.412895	0.050919
	N236	N	0.960286	0.679522	0.428724
	N237	N	0.030306	0.680261	0.602573
	N238	N	0.959798	0.319892	0.602609
	N239	N	0.029076	0.319988	0.428955
	N240	N	0.960072	0.413053	0.695785
	N241	N	0.030722	0.586186	0.694654
	N242	N	0.959606	0.585072	0.337088
	N243	N	0.029343	0.412396	0.335622
	N244	N	0.409280	0.680368	0.980669
	N245	N	0.585225	0.683842	0.049797
	N246	N	0.582939	0.320479	0.982204
	N247	N	0.408485	0.319963	0.051291
	N248	N	0.674837	0.964350	0.428733
	N249	N	0.675813	0.034671	0.602929
	N250	N	0.313668	0.965726	0.603098
	N251	N	0.314316	0.034950	0.428860
	N252	N	0.908488	0.464529	0.195696
	N253	N	0.083084	0.534259	0.197866
	N254	N	0.081444	0.464616	0.836587
	N255	N	0.908247	0.535303	0.835334
	N256	N	0.174227	0.913012	0.479985
	N257	N	0.172796	0.085758	0.550590
	N258	N	0.814930	0.085839	0.479288
	N259	N	0.816985	0.914653	0.551350
	N260	N	0.460310	0.179842	0.930761
	N261	N	0.530352	0.181511	0.104368
	N262	N	0.459979	0.821320	0.102097
	N263	N	0.530399	0.820687	0.928415
	N264	N	0.459413	0.915227	0.194381
	N265	N	0.530371	0.088014	0.196476
	N266	N	0.459582	0.086272	0.838057
	N267	N	0.530697	0.914442	0.836224
	N268	N	0.904930	0.181934	0.480516
	N269	N	0.080128	0.179712	0.550288
	N270	N	0.082280	0.819098	0.480326
	N271	N	0.908090	0.819435	0.550164
	N272	N	0.174904	0.464603	0.930528
	N273	N	0.176821	0.534692	0.104603
	N274	N	0.815715	0.464754	0.101494
	N275	N	0.816148	0.536390	0.930306
	O276	O	-0.721142	0.724342	-0.514788
	H277	H	-0.728827	0.728680	-0.533015
	H278	H	-0.733729	0.732279	-0.507401
	O279	O	0.285645	0.288381	0.711878
	H280	H	0.282087	0.281688	0.658612
	H281	H	0.250750	0.253282	0.737228
	O282	O	0.785414	-0.028511	1.230495
	H283	H	0.767374	-0.033288	1.246060
	H284	H	0.803779	-0.025479	1.239688
	O285	O	0.176563	-0.038577	-0.168112
	H286	H	0.193538	-0.046171	-0.174592
	H287	H	0.156456	-0.035499	-0.170638
	O288	O	0.651432	0.367621	0.667597
	H289	H	0.649276	0.381270	0.645491
	H290	H	0.632458	0.379302	0.662996
	O291	O	0.432176	0.667391	0.344904
	H292	H	0.452005	0.676549	0.352285
	H293	H	0.432167	0.681968	0.349599
	O294	O	1.204885	-0.040262	1.055268
	H295	H	1.196618	-0.042874	1.054804
	H296	H	1.210174	-0.039885	1.055998
	O297	O	0.712029	0.420517	0.561260
	H298	H	0.707386	0.416132	0.565724
	H299	H	0.703954	0.420369	0.550136
	O300	O	0.012429	0.071201	0.839696
	H301	H	0.004170	0.074077	0.830605
	H302	H	-0.000204	0.076147	0.858967
	O303	O	0.276269	0.421816	0.478374
	H304	H	0.277294	0.435943	0.481812
	H305	H	0.278094	0.443328	0.469552
	O306	O	1.197573	0.208657	0.225456
	H307	H	1.233352	0.239396	0.255926
	H308	H	1.205966	0.183687	0.201396
	O309	O	0.702690	0.709120	0.720915
	H310	H	0.680553	0.684572	0.729943
	H311	H	0.720907	0.736246	0.753173
	O312	O	0.529097	0.720656	0.729264
	H313	H	0.526174	0.719266	0.722593
	H314	H	0.528798	0.742147	0.743534
	O315	O	1.066989	1.211779	0.964469
	H316	H	1.051275	1.209032	0.960403
	H317	H	1.057076	1.213879	0.982384
	O318	O	0.463114	0.419949	0.506178
	H319	H	0.456931	0.424260	0.518775
	H320	H	0.469242	0.409873	0.502762
	O321	O	0.078500	0.795503	0.019805
	H322	H	0.096755	0.782630	0.010956
	H323	H	0.072532	0.798747	0.009257
	O324	O	0.823958	0.830741	-0.167513
	H325	H	0.845369	0.851443	-0.163808
	H326	H	0.837076	0.845046	-0.143428
	O327	O	-0.032558	0.215429	0.801863
	H328	H	-0.046997	0.223099	0.806553
	H329	H	-0.041778	0.224540	0.785712
	O330	O	0.290319	0.281058	0.546644
	H331	H	0.303738	0.280457	0.527295
	H332	H	0.278980	0.280687	0.531968
	O333	O	0.690291	0.664518	0.348881
	H334	H	0.681975	0.650982	0.360467
	H335	H	0.701566	0.666831	0.359160
	O336	O	1.267957	0.723315	-0.261091
	H337	H	1.276526	0.708615	-0.280685
	H338	H	1.254101	0.737940	-0.259222
	O339	O	1.306195	-0.692433	0.324060
	H340	H	1.329195	-0.675474	0.340712
	H341	H	1.319485	-0.668822	0.340656
	O342	O	0.019754	0.216909	0.235561
	H343	H	0.035295	0.244618	0.258921
	H344	H	0.057092	0.211446	0.234089
	O345	O	-0.116650	0.875498	1.150506
	H346	H	-0.117634	0.873026	1.157177
	H347	H	-0.102926	0.861694	1.153389
	O348	O	0.289520	-0.528889	0.739374
	H349	H	0.266012	-0.546408	0.761087
	H350	H	0.289505	-0.557368	0.737655
	O351	O	0.887773	0.795699	0.195408
	H352	H	0.925361	0.788861	0.188172
	H353	H	0.887815	0.817933	0.191647
	O354	O	0.208103	0.041012	1.227353
	H355	H	0.206441	0.052320	1.225856
	H356	H	0.225998	0.035745	1.236208
	O357	O	0.463398	0.559511	0.639992
	H358	H	0.459064	0.558819	0.644645
	H359	H	0.469719	0.560867	0.649024
	O360	O	0.443987	0.268073	0.463206
	H361	H	0.454303	0.272278	0.469073
	H362	H	0.462493	0.261513	0.449473
	O363	O	-0.222100	-0.017501	-0.087099
	H364	H	-0.220769	-0.007831	-0.085059
	H365	H	-0.233985	-0.002878	-0.107124
	O366	O	0.901117	1.126105	0.075877
	H367	H	0.899185	1.108832	0.072497
	H368	H	0.899407	1.127744	0.079251
	O369	O	0.553139	0.550485	0.303042
	H370	H	0.549668	0.567940	0.299114
	H371	H	0.540654	0.558671	0.315076
	O372	O	1.175007	0.818603	0.197779
	H373	H	1.171455	0.821384	0.196307
	H374	H	1.162658	0.835498	0.181211
	O375	O	0.892969	-0.104534	-0.105101
	H376	H	0.917614	-0.094462	-0.097239
	H377	H	0.869903	-0.103072	-0.101241
	O378	O	0.314091	0.508694	0.298877
	H379	H	0.300864	0.511071	0.290280
	H380	H	0.320244	0.523388	0.300196
	O381	O	-0.244269	1.238628	0.774429
	H382	H	-0.279906	1.266191	0.752790
	H383	H	-0.250200	1.253899	0.801649
	O384	O	0.781026	0.218642	0.976060
	H385	H	0.774245	0.224727	0.987039
	H386	H	0.773997	0.222881	0.980708
	O387	O	1.043191	0.918301	0.229598
	H388	H	1.031921	0.919750	0.224749
	H389	H	1.050007	0.930327	0.223913
	O390	O	0.473084	0.556333	0.340989
	H391	H	0.479100	0.567527	0.329904
	H392	H	0.468643	0.552263	0.341835
	O393	O	0.053316	-0.022549	-0.023951
	H394	H	0.048298	-0.007633	-0.016316
	H395	H	0.060748	-0.026486	-0.027854
	O396	O	-0.456538	1.426057	0.729656
	H397	H	-0.479176	1.417302	0.731410
	H398	H	-0.457347	1.425775	0.734558
	O399	O	0.536549	0.629132	0.545824
	H400	H	0.545552	0.627738	0.548454
	H401	H	0.532366	0.631149	0.545748
	O402	O	0.543492	0.688296	0.399965
	H403	H	0.540497	0.690378	0.406919
	H404	H	0.565033	0.689326	0.401645
	O405	O	0.911906	0.054150	1.013379
	H406	H	0.908307	0.066111	1.013245
	H407	H	0.908564	0.056378	1.030279
	O408	O	-0.049708	0.050870	0.241709
	H409	H	-0.042121	0.034883	0.242363
	H410	H	-0.033979	0.084916	0.250428
	O411	O	0.138549	0.885048	0.932091
	H412	H	0.155567	0.867272	0.921968
	H413	H	0.128966	0.891417	0.911731
	O414	O	0.292128	0.558104	0.552214
	H415	H	0.297958	0.563804	0.568146
	H416	H	0.284874	0.565811	0.553311
	O417	O	0.461502	0.480052	0.519224
	H418	H	0.456721	0.485946	0.532378
	H419	H	0.456798	0.483663	0.519883
	O420	O	0.490155	0.531132	0.438244
	H421	H	0.475672	0.533966	0.427231
	H422	H	0.492654	0.530456	0.442243
	O423	O	0.520459	-0.722331	0.297443
	H424	H	0.531969	-0.717871	0.287585
	H425	H	0.538039	-0.734608	0.277946
	O426	O	0.127417	-0.024182	-0.025906
	H427	H	0.114554	-0.027296	-0.030330
	H428	H	0.129987	-0.013547	-0.022843
	O429	O	0.989559	0.842037	0.858405
	H430	H	0.984142	0.834624	0.868214
	H431	H	0.975643	0.851947	0.854530
	O432	O	1.114580	0.792673	-0.194074
	H433	H	1.096284	0.800124	-0.186058
	H434	H	1.111955	0.790342	-0.204812
	O435	O	-0.217567	1.091511	-0.192674
	H436	H	-0.200275	1.113755	-0.200834
	H437	H	-0.236210	1.117649	-0.216996
	O438	O	-0.048524	0.130698	0.015170
	H439	H	-0.059710	0.127962	0.036054
	H440	H	-0.069829	0.135651	0.009980
	O441	O	0.210143	0.217212	0.054301
	H442	H	0.206912	0.223198	0.062364
	H443	H	0.217122	0.235721	0.052025
	O444	O	0.362554	0.561067	0.633859
	H445	H	0.363680	0.552023	0.634805
	H446	H	0.378467	0.550025	0.641850
	O447	O	-0.221623	0.785993	1.042491
	H448	H	-0.236480	0.774553	1.069806
	H449	H	-0.236032	0.787711	1.056954
	O450	O	-0.280204	0.725576	1.548237
	H451	H	-0.274220	0.732654	1.582595
	H452	H	-0.263422	0.744998	1.568691
	O453	O	0.713813	0.564157	0.481738
	H454	H	0.712048	0.548253	0.492349
	H455	H	0.719113	0.589638	0.499299
	O456	O	0.178852	0.181090	0.824873
	H457	H	0.169365	0.151670	0.839704
	H458	H	0.154859	0.176999	0.851184
	O459	O	0.988689	0.812946	0.131511
	H460	H	1.003351	0.805493	0.135391
	H461	H	0.997633	0.814427	0.128875
	O462	O	0.712841	0.537493	0.730231
	H463	H	0.729166	0.534211	0.730972
	H464	H	0.714959	0.544360	0.738695
	O465	O	1.293093	-0.295402	0.313664
	H466	H	1.295299	-0.277929	0.292253
	H467	H	1.297287	-0.312846	0.340305
	O468	O	0.685469	0.284976	0.490973
	H469	H	0.691201	0.281814	0.478979
	H470	H	0.687966	0.285560	0.495615
	O471	O	0.550596	0.312190	0.585773
	H472	H	0.550773	0.308125	0.581917
	H473	H	0.538993	0.319049	0.601202
	O474	O	0.434978	0.717171	0.590722
	H475	H	0.441295	0.716218	0.591504
	H476	H	0.423655	0.724130	0.575790
	O477	O	0.701987	0.465128	1.305533
	H478	H	0.688891	0.486809	1.302660
	H479	H	0.711484	0.477504	1.296751
	O480	O	0.454619	0.274610	0.742842
	H481	H	0.431285	0.261479	0.754179
	H482	H	0.425663	0.259453	0.756444
	O483	O	0.828512	1.072251	1.056834
	H484	H	0.812220	1.070984	1.063598
	H485	H	0.839538	1.064968	1.067375
	O486	O	0.692150	0.300164	1.312898
	H487	H	0.695070	0.328253	1.311503
	H488	H	0.698946	0.306099	1.321980
	O489	O	1.041290	0.982136	0.059596
	H490	H	1.056463	0.988374	0.056378
	H491	H	1.042392	0.972642	0.048438
