data_Molecule from HDF5

_cell_length_a		16.528054
_cell_length_b		16.488263
_cell_length_c		16.407741
_cell_angle_alpha	90.007210
_cell_angle_beta	90.089773
_cell_angle_gamma	89.921444
_symmetry_space_group_name_H-M	'P 1'
_symmetry_Int_Tables_number		1

loop_
	_symmetry_equiv_pos_as_xyz
	x,y,z

loop_
	_atom_site_label
	_atom_site_type_symbol
	_atom_site_fract_x
	_atom_site_fract_y
	_atom_site_fract_z
	H0	H	0.406198	0.844643	0.703927
	H1	H	0.612016	0.162826	0.704749
	H2	H	0.613148	0.846494	0.262057
	H3	H	0.403678	0.161992	0.265246
	H4	H	0.733564	0.391483	0.827020
	H5	H	0.731213	0.609115	0.140795
	H6	H	0.289625	0.605374	0.824797
	H7	H	0.290654	0.400874	0.143645
	H8	H	0.849350	0.726965	0.374868
	H9	H	0.164830	0.720999	0.585775
	H10	H	0.850347	0.277318	0.592820
	H11	H	0.166067	0.283517	0.382249
	H12	H	0.849970	0.393988	0.708522
	H13	H	0.165770	0.602730	0.700812
	H14	H	0.849864	0.609440	0.259337
	H15	H	0.166924	0.401766	0.266610
	H16	H	0.403663	0.723726	0.825415
	H17	H	0.616725	0.726780	0.140980
	H18	H	0.614773	0.279458	0.826584
	H19	H	0.406392	0.284394	0.143068
	H20	H	0.729859	0.846592	0.378022
	H21	H	0.730951	0.160751	0.591937
	H22	H	0.288616	0.844428	0.588089
	H23	H	0.285895	0.160304	0.379532
	H24	H	0.903294	0.345873	0.205811
	H25	H	0.111884	0.661968	0.204567
	H26	H	0.112519	0.344833	0.763172
	H27	H	0.899739	0.659043	0.759345
	H28	H	0.228955	0.896884	0.325960
	H29	H	0.230107	0.107650	0.642049
	H30	H	0.785386	0.108056	0.327084
	H31	H	0.784031	0.894779	0.641943
	H32	H	0.350835	0.224822	0.878981
	H33	H	0.663393	0.227148	0.092063
	H34	H	0.350081	0.782646	0.087517
	H35	H	0.662708	0.775762	0.873187
	H36	H	0.349616	0.900580	0.203539
	H37	H	0.664094	0.109363	0.207331
	H38	H	0.350782	0.108010	0.762364
	H39	H	0.663820	0.894815	0.758902
	H40	H	0.903285	0.222458	0.325757
	H41	H	0.115200	0.226144	0.641665
	H42	H	0.110824	0.782001	0.325807
	H43	H	0.901370	0.781101	0.642569
	H44	H	0.228834	0.344962	0.879708
	H45	H	0.228737	0.661746	0.087750
	H46	H	0.781904	0.348549	0.093534
	H47	H	0.781138	0.657590	0.871633
	H48	H	0.418558	0.115964	0.572536
	H49	H	0.599741	0.891828	0.567170
	H50	H	0.590872	0.113590	0.397952
	H51	H	0.417775	0.889010	0.393074
	H52	H	0.595371	0.408054	0.098213
	H53	H	0.597374	0.590791	0.870343
	H54	H	0.420277	0.595620	0.097698
	H55	H	0.418993	0.409959	0.869278
	H56	H	0.118447	0.596262	0.398053
	H57	H	0.892818	0.600413	0.566833
	H58	H	0.114233	0.420451	0.569319
	H59	H	0.896060	0.419913	0.392415
	H60	H	0.120207	0.414144	0.579373
	H61	H	0.897503	0.583655	0.567486
	H62	H	0.116672	0.589261	0.395111
	H63	H	0.891892	0.408915	0.389837
	H64	H	0.415370	0.593404	0.098995
	H65	H	0.593843	0.584937	0.873744
	H66	H	0.602615	0.422767	0.096059
	H67	H	0.414237	0.413650	0.868376
	H68	H	0.599609	0.115208	0.401820
	H69	H	0.598078	0.889368	0.576949
	H70	H	0.417059	0.116047	0.572069
	H71	H	0.419969	0.890912	0.394431
	H72	H	0.923456	0.614654	0.073150
	H73	H	0.097531	0.392264	0.072469
	H74	H	0.098815	0.617410	0.890920
	H75	H	0.919512	0.392446	0.900929
	H76	H	0.099075	0.915337	0.597433
	H77	H	0.093898	0.094681	0.370952
	H78	H	0.922303	0.094839	0.598081
	H79	H	0.925048	0.916083	0.374166
	H80	H	0.619216	0.090843	0.899027
	H81	H	0.395021	0.097299	0.070973
	H82	H	0.618269	0.922607	0.074783
	H83	H	0.399359	0.918924	0.900004
	H84	H	0.623152	0.909519	0.079398
	H85	H	0.395693	0.089616	0.071986
	H86	H	0.620292	0.089374	0.894034
	H87	H	0.395121	0.916498	0.889008
	H88	H	0.915471	0.089369	0.598456
	H89	H	0.101035	0.091685	0.370039
	H90	H	0.095725	0.911769	0.597743
	H91	H	0.916194	0.910873	0.369221
	H92	H	0.096346	0.615518	0.894322
	H93	H	0.104246	0.389418	0.072882
	H94	H	0.922213	0.612361	0.065187
	H95	H	0.920037	0.390415	0.895587
	H96	H	0.417255	0.116922	0.573367
	H97	H	0.590411	0.894261	0.571386
	H98	H	0.598038	0.117892	0.392413
	H99	H	0.417474	0.889871	0.396117
	H100	H	0.587222	0.420111	0.090768
	H101	H	0.590092	0.591295	0.872110
	H102	H	0.419861	0.590351	0.097356
	H103	H	0.419576	0.415993	0.871089
	H104	H	0.120367	0.594740	0.390880
	H105	H	0.890777	0.590998	0.581054
	H106	H	0.118525	0.407946	0.567766
	H107	H	0.896919	0.410969	0.401008
	H108	H	0.915701	0.616085	0.069661
	H109	H	0.099627	0.388630	0.078629
	H110	H	0.100913	0.616536	0.895129
	H111	H	0.924444	0.392947	0.898187
	H112	H	0.099938	0.911413	0.598937
	H113	H	0.095000	0.087569	0.373233
	H114	H	0.922901	0.086822	0.595463
	H115	H	0.915017	0.921242	0.373140
	H116	H	0.620880	0.094520	0.895645
	H117	H	0.393751	0.093901	0.077577
	H118	H	0.618602	0.911224	0.065407
	H119	H	0.394763	0.908280	0.897351
	C120	C	0.386591	0.011613	0.605167
	C121	C	0.629300	0.995586	0.605778
	C122	C	0.628451	0.011757	0.364004
	C123	C	0.386348	0.994467	0.362932
	C124	C	0.629278	0.382005	-0.007903
	C125	C	0.628362	0.623295	0.975723
	C126	C	0.387370	0.624495	-0.007389
	C127	C	0.386837	0.381911	0.974983
	C128	C	0.014611	0.625845	0.361294
	C129	C	0.997978	0.623170	0.604176
	C130	C	0.014665	0.380135	0.605939
	C131	C	0.999489	0.382056	0.363278
	C132	C	0.887325	0.511111	0.103854
	C133	C	0.131080	0.494913	0.105884
	C134	C	0.129516	0.511590	0.862537
	C135	C	0.886479	0.494509	0.862916
	C136	C	0.128965	0.881219	0.492668
	C137	C	0.129309	0.124088	0.475829
	C138	C	0.887123	0.123352	0.493191
	C139	C	0.885998	0.882550	0.476189
	C140	C	0.516646	0.124347	0.863040
	C141	C	0.498905	0.125690	0.106316
	C142	C	0.516073	0.882422	0.105122
	C143	C	0.499916	0.881366	0.862100
	C144	C	0.386426	0.892240	0.664491
	C145	C	0.631134	0.114581	0.665797
	C146	C	0.631115	0.893750	0.302525
	C147	C	0.384785	0.114191	0.304327
	C148	C	0.692118	0.375583	0.874231
	C149	C	0.690890	0.627205	0.093460
	C150	C	0.328723	0.625101	0.872539
	C151	C	0.329136	0.381410	0.095454
	C152	C	0.896499	0.686414	0.357654
	C153	C	0.117299	0.681726	0.605188
	C154	C	0.897317	0.318102	0.610322
	C155	C	0.118624	0.323159	0.362810
	C156	C	0.896888	0.376702	0.667724
	C157	C	0.117669	0.622827	0.662187
	C158	C	0.896905	0.628272	0.299742
	C159	C	0.119138	0.382253	0.305620
	C160	C	0.385544	0.683636	0.872840
	C161	C	0.633682	0.685695	0.093620
	C162	C	0.632952	0.319698	0.873766
	C163	C	0.386930	0.323769	0.095478
	C164	C	0.689192	0.893615	0.360345
	C165	C	0.690391	0.113674	0.609516
	C166	C	0.328012	0.892080	0.606950
	C167	C	0.326121	0.113215	0.361027
	C168	C	0.884575	0.393324	0.165589
	C169	C	0.131140	0.614397	0.164767
	C170	C	0.130825	0.392368	0.803250
	C171	C	0.881794	0.611851	0.799922
	C172	C	0.188708	0.878831	0.373344
	C173	C	0.189876	0.126559	0.594700
	C174	C	0.825998	0.126143	0.374318
	C175	C	0.824700	0.878131	0.594722
	C176	C	0.398254	0.184836	0.860345
	C177	C	0.616731	0.186458	0.109752
	C178	C	0.397454	0.822696	0.106564
	C179	C	0.616602	0.818176	0.856971
	C180	C	0.397131	0.881345	0.164071
	C181	C	0.617051	0.127954	0.167133
	C182	C	0.398096	0.126501	0.802494
	C183	C	0.617096	0.877211	0.799899
	C184	C	0.884515	0.183106	0.373757
	C185	C	0.132670	0.185329	0.594419
	C186	C	0.130027	0.821725	0.373278
	C187	C	0.883016	0.821267	0.595000
	C188	C	0.188959	0.392449	0.861108
	C189	C	0.189301	0.614366	0.106872
	C190	C	0.824435	0.394374	0.109687
	C191	C	0.822720	0.611062	0.856084
	C192	C	0.410577	0.094550	0.580066
	C193	C	0.603673	0.913400	0.579390
	C194	C	0.603288	0.093994	0.389848
	C195	C	0.411117	0.911610	0.387499
	C196	C	0.602765	0.409053	0.073525
	C197	C	0.601446	0.596604	0.893391
	C198	C	0.411764	0.600205	0.076261
	C199	C	0.410793	0.406068	0.891465
	C200	C	0.097078	0.600655	0.387257
	C201	C	0.915206	0.598882	0.579142
	C202	C	0.096129	0.406489	0.579845
	C203	C	0.916625	0.406317	0.387519
	C204	C	0.913250	0.592998	0.077009
	C205	C	0.107303	0.411850	0.081540
	C206	C	0.105467	0.594602	0.886612
	C207	C	0.913579	0.413141	0.890270
	C208	C	0.104982	0.905665	0.576198
	C209	C	0.103733	0.098647	0.392835
	C210	C	0.912942	0.097658	0.575901
	C211	C	0.911405	0.908505	0.393919
	C212	C	0.598619	0.098943	0.888722
	C213	C	0.416281	0.100593	0.080813
	C214	C	0.598552	0.907133	0.080213
	C215	C	0.417910	0.907127	0.888313
	Zn216	Zn	0.508304	0.003057	0.733506
	Zn217	Zn	0.507413	0.004123	0.234425
	Zn218	Zn	0.757420	0.502416	-0.017023
	Zn219	Zn	0.259383	0.503597	-0.016153
	Zn220	Zn	0.005949	0.753709	0.484026
	Zn221	Zn	0.007485	0.252116	0.484294
	Zn222	Zn	0.006712	0.502404	0.734304
	Zn223	Zn	0.008052	0.503501	0.233558
	Zn224	Zn	0.507944	0.752507	-0.016308
	Zn225	Zn	0.508574	0.253837	-0.015636
	Zn226	Zn	0.757894	0.003229	0.484953
	Zn227	Zn	0.257588	0.002324	0.483866
	N228	N	0.421758	0.967665	0.663699
	N229	N	0.594139	0.040015	0.663609
	N230	N	0.594138	0.968343	0.304599
	N231	N	0.421483	0.039341	0.305242
	N232	N	0.690047	0.413600	0.948680
	N233	N	0.687630	0.589235	0.018957
	N234	N	0.329654	0.589203	0.948190
	N235	N	0.328590	0.416316	0.019401
	N236	N	0.970922	0.684928	0.395159
	N237	N	0.041854	0.682113	0.569859
	N238	N	0.971395	0.320363	0.572483
	N239	N	0.043155	0.322817	0.397650
	N240	N	0.970872	0.414595	0.665243
	N241	N	0.042275	0.587573	0.662061
	N242	N	0.971520	0.591372	0.301896
	N243	N	0.043867	0.417760	0.305365
	N244	N	0.420846	0.683545	0.948720
	N245	N	0.595661	0.683573	0.019152
	N246	N	0.594566	0.323358	0.947958
	N247	N	0.421776	0.323605	0.019564
	N248	N	0.687733	0.968006	0.397961
	N249	N	0.689568	0.038474	0.573291
	N250	N	0.327864	0.967348	0.570972
	N251	N	0.326983	0.037796	0.396624
	N252	N	0.923004	0.466982	0.161983
	N253	N	0.095733	0.539098	0.164455
	N254	N	0.094239	0.467226	0.804173
	N255	N	0.920840	0.538615	0.804142
	N256	N	0.188189	0.915026	0.448595
	N257	N	0.187920	0.089188	0.519963
	N258	N	0.827358	0.090009	0.449829
	N259	N	0.826341	0.915546	0.519974
	N260	N	0.472996	0.183797	0.897134
	N261	N	0.542097	0.184953	0.072601
	N262	N	0.472599	0.823002	0.070776
	N263	N	0.542700	0.820923	0.895195
	N264	N	0.471930	0.917437	0.163533
	N265	N	0.542752	0.090937	0.164878
	N266	N	0.472750	0.089858	0.803825
	N267	N	0.543707	0.916226	0.803344
	N268	N	0.921433	0.181820	0.448884
	N269	N	0.095914	0.183891	0.519254
	N270	N	0.093521	0.823175	0.448429
	N271	N	0.920306	0.823699	0.520346
	N272	N	0.188170	0.467382	0.897617
	N273	N	0.189495	0.539027	0.071345
	N274	N	0.825923	0.468732	0.072169
	N275	N	0.825557	0.537020	0.894621
	O276	O	0.413915	0.477438	0.288358
	H277	H	0.401210	0.459604	0.277822
	H278	H	0.389995	0.472961	0.299961
	O279	O	1.020462	0.904997	0.997836
	H280	H	1.025125	0.909024	0.994754
	H281	H	1.023964	0.923186	0.982993
	O282	O	0.827568	0.942894	0.158537
	H283	H	0.827343	0.936578	0.155629
	H284	H	0.839424	0.943498	0.158765
	O285	O	0.017983	0.224301	0.976380
	H286	H	0.008194	0.224100	0.986631
	H287	H	0.011570	0.222367	0.961379
	O288	O	0.217598	0.029272	0.196712
	H289	H	0.227308	0.037902	0.224035
	H290	H	0.207001	0.039947	0.200707
	O291	O	0.982163	0.791759	0.196887
	H292	H	0.974216	0.775997	0.188793
	H293	H	0.981013	0.768904	0.193136
	O294	O	0.692002	0.686760	-0.332368
	H295	H	0.685588	0.678852	-0.349848
	H296	H	0.676830	0.673538	-0.319068
	O297	O	0.611394	0.649329	0.381873
	H298	H	0.613553	0.634162	0.379040
	H299	H	0.619159	0.649425	0.373146
	O300	O	0.345441	0.531060	0.490725
	H301	H	0.351806	0.523126	0.473835
	H302	H	0.347342	0.547986	0.473893
	O303	O	0.794180	-0.211283	0.009651
	H304	H	0.767341	-0.241641	0.002766
	H305	H	0.795801	-0.184883	-0.021972
	O306	O	0.206050	1.199471	1.182383
	H307	H	0.216606	1.207371	1.127351
	H308	H	0.232074	1.197854	1.201910
	O309	O	0.718647	0.482186	0.603476
	H310	H	0.726353	0.480626	0.606172
	H311	H	0.706426	0.472422	0.599900
	O312	O	0.463874	0.290327	0.691006
	H313	H	0.496479	0.310340	0.692431
	H314	H	0.474176	0.270132	0.709528
	O315	O	0.383973	-0.289345	1.274567
	H316	H	0.365448	-0.255135	1.237255
	H317	H	0.404760	-0.296982	1.270782
	O318	O	-0.875227	0.044162	-0.042372
	H319	H	-0.877983	0.026641	-0.043314
	H320	H	-0.887828	0.036132	-0.035058
	O321	O	0.796629	0.214410	0.964460
	H322	H	0.814200	0.197609	0.991094
	H323	H	0.763283	0.236371	0.968275
	O324	O	0.805360	0.100381	0.183907
	H325	H	0.806337	0.079479	0.184140
	H326	H	0.818747	0.079488	0.172640
	O327	O	0.785576	0.026931	0.762846
	H328	H	0.781994	0.061953	0.758504
	H329	H	0.768491	0.044245	0.741352
	O330	O	0.064751	0.049707	-0.232719
	H331	H	0.061997	0.031479	-0.238142
	H332	H	0.057159	0.026657	-0.226571
	O333	O	0.988223	1.209538	0.776201
	H334	H	1.000739	1.210854	0.773767
	H335	H	0.997971	1.200405	0.755255
	O336	O	1.203790	-0.197132	0.784556
	H337	H	1.212316	-0.184113	0.799673
	H338	H	1.212784	-0.211575	0.769190
	O339	O	0.447741	0.685008	0.273929
	H340	H	0.461411	0.700886	0.277506
	H341	H	0.458409	0.657970	0.276511
	O342	O	0.399400	0.598633	0.507943
	H343	H	0.411145	0.605284	0.498876
	H344	H	0.397374	0.586118	0.525515
	O345	O	0.222872	0.214231	0.016459
	H346	H	0.238756	0.231232	0.005373
	H347	H	0.198233	0.215120	-0.008121
	O348	O	0.711289	0.297875	0.385481
	H349	H	0.727098	0.275213	0.407487
	H350	H	0.706068	0.323436	0.354372
	O351	O	1.044126	1.226532	0.208184
	H352	H	1.065103	1.245572	0.230317
	H353	H	1.078300	1.232152	0.215481
	O354	O	0.624415	0.346823	0.504412
	H355	H	0.644134	0.349759	0.505952
	H356	H	0.613176	0.334864	0.499464
	O357	O	0.769941	0.790211	1.225215
	H358	H	0.764062	0.777470	1.179892
	H359	H	0.774623	0.810340	1.234642
	O360	O	-0.042720	0.953440	0.774343
	H361	H	-0.073798	0.956302	0.780340
	H362	H	-0.047436	0.930777	0.773007
	O363	O	0.657716	0.492826	0.485026
	H364	H	0.664760	0.485894	0.482854
	H365	H	0.655583	0.510659	0.490112
	O366	O	1.221232	-0.002264	0.995415
	H367	H	1.212445	-0.000591	1.001053
	H368	H	1.221674	0.009051	1.016471
	O369	O	0.602648	0.388816	0.497798
	H370	H	0.597335	0.385248	0.503129
	H371	H	0.593494	0.398871	0.491264
	O372	O	0.225863	-0.030301	0.768002
	H373	H	0.237654	-0.038508	0.763659
	H374	H	0.236450	-0.031478	0.760520
	O375	O	0.246674	0.759437	1.275592
	H376	H	0.240343	0.765975	1.281937
	H377	H	0.232264	0.779895	1.267742
	O378	O	1.137283	0.868965	0.042805
	H379	H	1.133299	0.867423	0.042008
	H380	H	1.128151	0.880897	0.054795
	O381	O	1.369489	-0.702576	0.436655
	H382	H	1.357386	-0.711121	0.455826
	H383	H	1.378420	-0.701313	0.452559
	O384	O	0.020772	-0.006341	0.997069
	H385	H	0.024698	0.011087	0.993731
	H386	H	0.014817	-0.001463	1.004694
	O387	O	-0.538943	1.315621	1.371183
	H388	H	-0.532575	1.325911	1.395188
	H389	H	-0.533748	1.311567	1.358046
	O390	O	0.630009	0.292222	1.277886
	H391	H	0.647812	0.314811	1.268385
	H392	H	0.655521	0.272653	1.255284
	O393	O	-0.116170	0.816245	-0.153375
	H394	H	-0.100955	0.822265	-0.141524
	H395	H	-0.107992	0.815526	-0.174417
	O396	O	0.505934	0.527079	0.596944
	H397	H	0.505143	0.511510	0.597465
	H398	H	0.516451	0.523679	0.592911
	O399	O	0.712210	0.468440	0.284283
	H400	H	0.692390	0.486712	0.278773
	H401	H	0.727913	0.489281	0.284880
	O402	O	-0.092050	0.118211	1.174739
	H403	H	-0.083161	0.125991	1.167402
	H404	H	-0.084322	0.111729	1.190808
	O405	O	0.516504	0.486630	-0.313364
	H406	H	0.527606	0.493542	-0.320772
	H407	H	0.505163	0.480750	-0.321051
	O408	O	1.177826	1.165050	0.816156
	H409	H	1.164383	1.146135	0.821723
	H410	H	1.169448	1.144595	0.827341
	O411	O	0.527765	0.698417	0.675771
	H412	H	0.520271	0.686806	0.681615
	H413	H	0.522104	0.705593	0.660713
	O414	O	0.289246	0.510738	0.304015
	H415	H	0.273027	0.524380	0.295950
	H416	H	0.291182	0.531478	0.310612
	O417	O	0.480859	0.506005	0.466347
	H418	H	0.466826	0.498039	0.452414
	H419	H	0.484809	0.506536	0.467209
	O420	O	0.368703	0.417970	0.364072
	H421	H	0.365104	0.427166	0.355938
	H422	H	0.368773	0.408743	0.378063
	O423	O	-0.213297	1.057779	0.034819
	H424	H	-0.208184	1.037608	0.049044
	H425	H	-0.214088	1.046350	0.025800
	O426	O	1.210421	0.793766	0.954299
	H427	H	1.224320	0.784641	0.946901
	H428	H	1.216882	0.804330	0.960852
	O429	O	0.826431	0.180344	0.802744
	H430	H	0.815840	0.194086	0.855120
	H431	H	0.873413	0.188346	0.792159
	O432	O	0.036597	-0.218221	0.764478
	H433	H	0.043136	-0.241127	0.739362
	H434	H	0.058551	-0.211212	0.767358
	O435	O	0.363834	-0.287470	0.489881
	H436	H	0.370684	-0.283481	0.462204
	H437	H	0.353817	-0.285211	0.488154
	O438	O	1.001522	0.207916	-0.001464
	H439	H	0.988643	0.216820	0.024996
	H440	H	1.014356	0.198781	-0.002503
	O441	O	0.588990	0.583990	0.310620
	H442	H	0.573152	0.589079	0.327700
	H443	H	0.585995	0.582374	0.303742
	O444	O	0.018621	0.833112	1.046509
	H445	H	-0.002111	0.830529	1.043535
	H446	H	0.016029	0.828468	1.045395
	O447	O	0.320001	0.645691	0.666348
	H448	H	0.343420	0.637543	0.657173
	H449	H	0.318792	0.627791	0.648068
	O450	O	0.304594	0.304980	0.629342
	H451	H	0.342694	0.294839	0.643897
	H452	H	0.283722	0.284520	0.654872
	O453	O	-0.209635	0.932930	-0.084230
	H454	H	-0.202399	0.944471	-0.103771
	H455	H	-0.205725	0.939254	-0.102501
	O456	O	0.016458	0.988312	0.206383
	H457	H	0.020746	0.998221	0.208979
	H458	H	-0.001369	0.971938	0.213717
	O459	O	0.656714	0.483312	0.693487
	H460	H	0.661527	0.490290	0.687643
	H461	H	0.660752	0.486233	0.685023
	O462	O	0.717378	0.711488	0.503540
	H463	H	0.734585	0.726938	0.510063
	H464	H	0.709963	0.709088	0.514070
	O465	O	0.304345	0.443260	0.675589
	H466	H	0.302440	0.412032	0.683847
	H467	H	0.298215	0.444185	0.671845
