data_Molecule from HDF5

_cell_length_a		16.616117
_cell_length_b		16.527470
_cell_length_c		16.446301
_cell_angle_alpha	89.987895
_cell_angle_beta	89.993778
_cell_angle_gamma	89.853855
_symmetry_space_group_name_H-M	'P 1'
_symmetry_Int_Tables_number		1

loop_
	_symmetry_equiv_pos_as_xyz
	x,y,z

loop_
	_atom_site_label
	_atom_site_type_symbol
	_atom_site_fract_x
	_atom_site_fract_y
	_atom_site_fract_z
	H0	H	0.403941	0.866163	0.725557
	H1	H	0.605826	0.183964	0.728376
	H2	H	0.607793	0.868075	0.288888
	H3	H	0.399418	0.183560	0.288987
	H4	H	0.726788	0.418232	0.851435
	H5	H	0.728428	0.636173	0.162949
	H6	H	0.281705	0.632964	0.849791
	H7	H	0.283147	0.423725	0.165078
	H8	H	0.846826	0.751546	0.399214
	H9	H	0.159107	0.746217	0.611737
	H10	H	0.847487	0.302510	0.617847
	H11	H	0.159424	0.308051	0.406664
	H12	H	0.847079	0.421228	0.732515
	H13	H	0.157916	0.632808	0.730184
	H14	H	0.846569	0.635546	0.282773
	H15	H	0.159552	0.424062	0.289721
	H16	H	0.396436	0.750194	0.851062
	H17	H	0.608392	0.747192	0.165717
	H18	H	0.609283	0.304133	0.850234
	H19	H	0.401092	0.309314	0.166953
	H20	H	0.725276	0.868776	0.403118
	H21	H	0.727736	0.180262	0.618564
	H22	H	0.286160	0.865417	0.610538
	H23	H	0.280507	0.181424	0.403220
	H24	H	0.896897	0.369384	0.230467
	H25	H	0.105844	0.683495	0.227995
	H26	H	0.107945	0.371017	0.785825
	H27	H	0.893114	0.681665	0.783724
	H28	H	0.221225	0.922661	0.350102
	H29	H	0.224168	0.131707	0.666026
	H30	H	0.777415	0.135473	0.353539
	H31	H	0.777621	0.915993	0.664385
	H32	H	0.345711	0.245387	0.906051
	H33	H	0.657588	0.251087	0.117963
	H34	H	0.348098	0.804466	0.113091
	H35	H	0.658401	0.799955	0.898444
	H36	H	0.347446	0.923340	0.228415
	H37	H	0.659169	0.132487	0.232426
	H38	H	0.345306	0.128302	0.789931
	H39	H	0.658476	0.917287	0.783043
	H40	H	0.895278	0.249437	0.351967
	H41	H	0.107752	0.247760	0.666706
	H42	H	0.104516	0.807187	0.349748
	H43	H	0.892138	0.799141	0.663693
	H44	H	0.226860	0.371809	0.898349
	H45	H	0.222780	0.683182	0.113143
	H46	H	0.777244	0.371473	0.117868
	H47	H	0.773260	0.679145	0.895424
	H48	H	0.407279	0.138831	0.597417
	H49	H	0.591675	0.913045	0.595902
	H50	H	0.592007	0.139589	0.417563
	H51	H	0.411092	0.911858	0.419530
	H52	H	0.585554	0.439854	0.117314
	H53	H	0.589102	0.610611	0.896903
	H54	H	0.415747	0.621277	0.122318
	H55	H	0.411830	0.434488	0.892777
	H56	H	0.113967	0.615997	0.416788
	H57	H	0.891147	0.612331	0.596217
	H58	H	0.115113	0.435249	0.597851
	H59	H	0.890019	0.431982	0.426253
	H60	H	0.111352	0.438186	0.591934
	H61	H	0.890400	0.615360	0.596286
	H62	H	0.113000	0.617171	0.420147
	H63	H	0.892891	0.446274	0.419561
	H64	H	0.405808	0.614995	0.122512
	H65	H	0.587992	0.609218	0.898527
	H66	H	0.592280	0.434421	0.122063
	H67	H	0.411826	0.437810	0.893501
	H68	H	0.585199	0.135301	0.422502
	H69	H	0.589279	0.915036	0.595097
	H70	H	0.410766	0.139105	0.602158
	H71	H	0.411873	0.910837	0.416422
	H72	H	0.921369	0.636203	0.095728
	H73	H	0.093405	0.413849	0.097115
	H74	H	0.096321	0.641249	0.919203
	H75	H	0.921258	0.418728	0.925904
	H76	H	0.092042	0.943236	0.619951
	H77	H	0.093632	0.109547	0.397745
	H78	H	0.915187	0.108576	0.619032
	H79	H	0.915644	0.945706	0.399818
	H80	H	0.614900	0.114002	0.920248
	H81	H	0.395886	0.112772	0.091860
	H82	H	0.613682	0.936476	0.091155
	H83	H	0.394468	0.941615	0.919266
	H84	H	0.615266	0.941201	0.101024
	H85	H	0.390922	0.112382	0.105983
	H86	H	0.615673	0.114687	0.918176
	H87	H	0.391252	0.935158	0.917588
	H88	H	0.919402	0.115798	0.619766
	H89	H	0.085808	0.117102	0.397422
	H90	H	0.086517	0.929289	0.621950
	H91	H	0.920434	0.937536	0.398180
	H92	H	0.091328	0.641341	0.915738
	H93	H	0.093195	0.414337	0.096122
	H94	H	0.912919	0.634684	0.087224
	H95	H	0.912244	0.415334	0.925656
	H96	H	0.412762	0.136887	0.596864
	H97	H	0.592494	0.914935	0.593375
	H98	H	0.593760	0.136715	0.427010
	H99	H	0.413952	0.912226	0.418073
	H100	H	0.594138	0.443707	0.118920
	H101	H	0.587179	0.611318	0.897506
	H102	H	0.415202	0.610038	0.117340
	H103	H	0.414697	0.435836	0.894221
	H104	H	0.112130	0.614010	0.419114
	H105	H	0.891999	0.613962	0.593677
	H106	H	0.112036	0.441928	0.598424
	H107	H	0.886172	0.434584	0.410838
	H108	H	0.910113	0.639449	0.097714
	H109	H	0.094080	0.413371	0.096293
	H110	H	0.091518	0.637991	0.921250
	H111	H	0.917597	0.414870	0.917730
	H112	H	0.100661	0.932107	0.626054
	H113	H	0.096157	0.119334	0.393975
	H114	H	0.912001	0.115164	0.622711
	H115	H	0.910954	0.938126	0.395050
	H116	H	0.614990	0.116179	0.919689
	H117	H	0.388719	0.124922	0.097356
	H118	H	0.618704	0.931094	0.099312
	H119	H	0.394210	0.936247	0.924544
	C120	C	0.380684	0.033449	0.629778
	C121	C	0.624074	1.017318	0.629290
	C122	C	0.623720	0.033884	0.388896
	C123	C	0.381048	1.016103	0.387133
	C124	C	0.624678	0.404852	0.016294
	C125	C	0.622588	0.645600	1.000201
	C126	C	0.380948	0.648307	0.016233
	C127	C	0.381690	0.405585	0.998476
	C128	C	0.010118	0.648515	0.385609
	C129	C	0.993726	0.647745	0.628887
	C130	C	0.010413	0.405373	0.630337
	C131	C	0.993336	0.405571	0.387345
	C132	C	0.881418	0.534213	0.128285
	C133	C	0.123971	0.517980	0.128149
	C134	C	0.125030	0.536631	0.885475
	C135	C	0.882179	0.518402	0.888094
	C136	C	0.123662	0.904012	0.517554
	C137	C	0.123771	0.147597	0.500627
	C138	C	0.881352	0.147395	0.517631
	C139	C	0.881883	0.905441	0.500584
	C140	C	0.511618	0.146733	0.887523
	C141	C	0.494604	0.148984	0.131593
	C142	C	0.512669	0.904255	0.129659
	C143	C	0.495423	0.903985	0.886318
	C144	C	0.383097	0.913671	0.686860
	C145	C	0.625439	0.136052	0.689715
	C146	C	0.626320	0.915304	0.328896
	C147	C	0.380144	0.135542	0.328451
	C148	C	0.685803	0.401114	0.898245
	C149	C	0.686285	0.651907	0.116774
	C150	C	0.321529	0.651356	0.897399
	C151	C	0.322863	0.404951	0.117811
	C152	C	0.893187	0.710331	0.381816
	C153	C	0.111646	0.707358	0.630802
	C154	C	0.893863	0.343685	0.635155
	C155	C	0.111909	0.346965	0.387048
	C156	C	0.893579	0.402519	0.692211
	C157	C	0.111067	0.650602	0.689643
	C158	C	0.893208	0.652359	0.323908
	C159	C	0.111961	0.405022	0.329021
	C160	C	0.378798	0.709497	0.898003
	C161	C	0.626693	0.707450	0.118028
	C162	C	0.627514	0.343962	0.898115
	C163	C	0.381787	0.348252	0.118737
	C164	C	0.685263	0.916219	0.385430
	C165	C	0.685716	0.134385	0.634745
	C166	C	0.324603	0.913400	0.629664
	C167	C	0.321141	0.134752	0.385319
	C168	C	0.878538	0.416524	0.189960
	C169	C	0.124680	0.636157	0.188087
	C170	C	0.127082	0.418326	0.825151
	C171	C	0.876417	0.634950	0.824806
	C172	C	0.181748	0.903628	0.397748
	C173	C	0.183905	0.150012	0.618905
	C174	C	0.818807	0.152158	0.400137
	C175	C	0.818961	0.899698	0.617521
	C176	C	0.393092	0.205687	0.886905
	C177	C	0.611182	0.210238	0.135370
	C178	C	0.394755	0.844963	0.131453
	C179	C	0.611924	0.841587	0.881628
	C180	C	0.394317	0.903725	0.188739
	C181	C	0.611751	0.151420	0.192720
	C182	C	0.392904	0.147603	0.828942
	C183	C	0.612056	0.899802	0.823987
	C184	C	0.877252	0.209263	0.399386
	C185	C	0.125835	0.207766	0.619166
	C186	C	0.123835	0.846167	0.397508
	C187	C	0.876168	0.841511	0.617434
	C188	C	0.186210	0.418846	0.881166
	C189	C	0.182946	0.636148	0.130691
	C190	C	0.819036	0.417465	0.133949
	C191	C	0.816768	0.633661	0.880594
	C192	C	0.403452	0.116662	0.605757
	C193	C	0.598470	0.935811	0.602693
	C194	C	0.597592	0.115855	0.414883
	C195	C	0.405214	0.933300	0.411171
	C196	C	0.598263	0.431747	0.098524
	C197	C	0.595607	0.618376	0.918811
	C198	C	0.405428	0.622732	0.099215
	C199	C	0.405778	0.429304	0.915052
	C200	C	0.091720	0.623010	0.411327
	C201	C	0.912323	0.621537	0.602908
	C202	C	0.091734	0.431014	0.603640
	C203	C	0.911082	0.430284	0.411976
	C204	C	0.907453	0.615437	0.101320
	C205	C	0.100346	0.435261	0.103411
	C206	C	0.100023	0.618871	0.911158
	C207	C	0.909418	0.437354	0.915455
	C208	C	0.099849	0.928048	0.600882
	C209	C	0.098939	0.122400	0.417928
	C210	C	0.907981	0.120852	0.599106
	C211	C	0.908438	0.932484	0.418914
	C212	C	0.593695	0.122046	0.912235
	C213	C	0.413010	0.123692	0.105800
	C214	C	0.594709	0.929045	0.104547
	C215	C	0.414448	0.930263	0.912732
	Zn216	Zn	0.503306	0.025431	0.757348
	Zn217	Zn	0.503709	0.025575	0.259111
	Zn218	Zn	0.752451	0.525865	0.007554
	Zn219	Zn	0.253091	0.526897	0.006726
	Zn220	Zn	0.001586	0.776550	0.508114
	Zn221	Zn	0.001745	0.276071	0.509028
	Zn222	Zn	0.001966	0.527019	0.758853
	Zn223	Zn	0.002160	0.526331	0.257128
	Zn224	Zn	0.504091	0.775255	0.007640
	Zn225	Zn	0.503333	0.276801	0.008215
	Zn226	Zn	0.753180	0.026249	0.509219
	Zn227	Zn	0.251896	0.024983	0.509101
	N228	N	0.416721	0.989438	0.687505
	N229	N	0.587837	0.062099	0.686586
	N230	N	0.588928	0.989534	0.330591
	N231	N	0.416538	0.060846	0.329110
	N232	N	0.684429	0.437817	0.973246
	N233	N	0.683989	0.613998	0.042438
	N234	N	0.322754	0.614064	0.972042
	N235	N	0.322599	0.439766	0.041939
	N236	N	0.966791	0.707906	0.419663
	N237	N	0.037470	0.705863	0.593988
	N238	N	0.967399	0.345480	0.597093
	N239	N	0.036987	0.346827	0.422295
	N240	N	0.967102	0.440130	0.689253
	N241	N	0.036597	0.614503	0.688862
	N242	N	0.966853	0.614624	0.326102
	N243	N	0.037050	0.440567	0.328827
	N244	N	0.414879	0.707907	0.973134
	N245	N	0.587685	0.703408	0.044494
	N246	N	0.590286	0.346169	0.972676
	N247	N	0.417211	0.348027	0.043309
	N248	N	0.684054	0.991309	0.421609
	N249	N	0.685148	0.059744	0.598138
	N250	N	0.322597	0.989263	0.595286
	N251	N	0.321193	0.059434	0.420657
	N252	N	0.916297	0.490233	0.186826
	N253	N	0.088793	0.561599	0.186817
	N254	N	0.089854	0.492536	0.827574
	N255	N	0.916550	0.562396	0.829648
	N256	N	0.181984	0.938619	0.473462
	N257	N	0.182914	0.113233	0.544088
	N258	N	0.821259	0.114445	0.474486
	N259	N	0.822842	0.939182	0.544149
	N260	N	0.468050	0.205842	0.922031
	N261	N	0.537187	0.209116	0.098200
	N262	N	0.469386	0.845113	0.095627
	N263	N	0.538493	0.843956	0.919656
	N264	N	0.468732	0.939726	0.187890
	N265	N	0.538089	0.113965	0.190494
	N266	N	0.467677	0.111768	0.828949
	N267	N	0.538599	0.938000	0.826754
	N268	N	0.915593	0.206459	0.473349
	N269	N	0.089122	0.206398	0.544410
	N270	N	0.088423	0.846171	0.473102
	N271	N	0.914662	0.845019	0.543662
	N272	N	0.185333	0.493571	0.917773
	N273	N	0.182763	0.561562	0.094083
	N274	N	0.820583	0.491684	0.096365
	N275	N	0.820462	0.560305	0.919650
	O276	O	1.211884	1.233265	0.210279
	H277	H	1.233653	1.262851	0.242583
	H278	H	1.186367	1.213065	0.216990
	O279	O	-0.088614	0.170014	0.883941
	H280	H	-0.083649	0.166123	0.879434
	H281	H	-0.084203	0.161497	0.882110
	O282	O	0.559262	0.455380	0.727333
	H283	H	0.559137	0.424035	0.726119
	H284	H	0.559074	0.453799	0.733895
	O285	O	0.194581	0.056396	0.988087
	H286	H	0.197322	0.069025	0.993743
	H287	H	0.198614	0.073770	0.996974
	O288	O	1.026972	-0.193287	0.787385
	H289	H	1.033220	-0.227346	0.752793
	H290	H	1.067309	-0.185345	0.805881
	O291	O	0.321266	0.347286	0.328505
	H292	H	0.336670	0.378836	0.334232
	H293	H	0.338621	0.348428	0.357561
	O294	O	0.245695	-0.218683	0.251698
	H295	H	0.221574	-0.198887	0.225612
	H296	H	0.254814	-0.206494	0.247227
	O297	O	0.789447	0.093473	0.066077
	H298	H	0.799257	0.083548	0.049363
	H299	H	0.782977	0.088433	0.058286
	O300	O	0.191190	-0.171719	-0.182629
	H301	H	0.198873	-0.153369	-0.170170
	H302	H	0.211029	-0.188258	-0.174474
	O303	O	-0.050017	0.084583	0.205243
	H304	H	-0.066958	0.086898	0.212383
	H305	H	-0.043570	0.069948	0.198123
	O306	O	0.989580	-0.017943	-0.089735
	H307	H	0.985781	-0.029119	-0.087578
	H308	H	0.996756	-0.021130	-0.088242
	O309	O	0.710247	0.323711	0.547512
	H310	H	0.707608	0.329636	0.535664
	H311	H	0.726977	0.309844	0.539801
	O312	O	-0.062294	0.005515	0.842611
	H313	H	-0.077199	0.001305	0.846017
	H314	H	-0.051858	-0.003731	0.827471
	O315	O	0.622877	0.699035	0.497530
	H316	H	0.629062	0.717199	0.501131
	H317	H	0.618347	0.689092	0.475031
	O318	O	1.037487	1.248893	0.228652
	H319	H	1.036679	1.268670	0.248491
	H320	H	1.032306	1.251788	0.219066
	O321	O	0.082286	1.170011	1.001582
	H322	H	0.074172	1.186071	0.999381
	H323	H	0.081081	1.181107	1.010671
	O324	O	0.764227	0.242004	1.193222
	H325	H	0.762343	0.228607	1.169101
	H326	H	0.758549	0.233827	1.180938
	O327	O	0.722690	0.509877	0.332271
	H328	H	0.738204	0.487297	0.313349
	H329	H	0.721817	0.478176	0.335443
	O330	O	0.383920	0.600227	0.647845
	H331	H	0.387922	0.590353	0.646144
	H332	H	0.392247	0.602549	0.655343
	O333	O	0.702269	0.335859	0.376669
	H334	H	0.674926	0.322889	0.371174
	H335	H	0.700525	0.327193	0.382033
	O336	O	0.818866	0.837432	0.056360
	H337	H	0.821694	0.820598	0.049056
	H338	H	0.821158	0.828096	0.041373
	O339	O	0.395485	0.642281	0.381327
	H340	H	0.410189	0.639327	0.366679
	H341	H	0.393121	0.659045	0.383967
	O342	O	-0.442019	0.640882	-0.506072
	H343	H	-0.445267	0.624815	-0.505041
	H344	H	-0.451821	0.627460	-0.513308
	O345	O	0.523751	0.729940	0.725940
	H346	H	0.549921	0.734963	0.718729
	H347	H	0.537554	0.744848	0.734702
	O348	O	0.365016	0.501958	0.523892
	H349	H	0.380082	0.482794	0.531470
	H350	H	0.359530	0.489832	0.526309
	O351	O	-0.195584	-0.178024	1.207329
	H352	H	-0.193094	-0.145500	1.220494
	H353	H	-0.204711	-0.189729	1.170649
	O354	O	0.898013	0.099444	0.978308
	H355	H	0.903056	0.104722	0.985239
	H356	H	0.900442	0.084741	0.972242
	O357	O	0.703100	0.552911	0.709616
	H358	H	0.725733	0.539475	0.700024
	H359	H	0.688911	0.538426	0.710531
	O360	O	0.306331	0.526550	0.373032
	H361	H	0.306056	0.539751	0.348637
	H362	H	0.309108	0.543795	0.375551
	O363	O	1.030877	0.178956	-0.061599
	H364	H	1.032465	0.180698	-0.054004
	H365	H	1.034902	0.184860	-0.053143
	O366	O	0.306570	0.328532	0.701903
	H367	H	0.280116	0.307198	0.702792
	H368	H	0.295698	0.373635	0.699846
	O369	O	0.087627	0.044292	1.004787
	H370	H	0.094601	0.055110	1.003076
	H371	H	0.081062	0.033633	1.020866
	O372	O	0.214996	0.814401	0.982794
	H373	H	0.228000	0.819094	0.984157
	H374	H	0.217632	0.817613	0.993985
	O375	O	1.123414	-0.180052	0.132116
	H376	H	1.120839	-0.161440	0.114391
	H377	H	1.105412	-0.175979	0.119888
	O378	O	0.468920	0.740304	0.289718
	H379	H	0.466805	0.750437	0.270685
	H380	H	0.449419	0.744811	0.281644
	O381	O	-0.212290	1.044571	-0.204060
	H382	H	-0.209069	1.035083	-0.221357
	H383	H	-0.214348	1.030827	-0.212369
	O384	O	0.471658	0.419594	0.426436
	H385	H	0.458291	0.431410	0.430230
	H386	H	0.487261	0.404791	0.447400
	O387	O	0.537989	0.313344	0.567129
	H388	H	0.526463	0.308204	0.604396
	H389	H	0.563361	0.321576	0.562447
	O390	O	-0.013865	1.018713	1.188900
	H391	H	-0.019242	1.033059	1.185273
	H392	H	-0.022964	0.992893	1.177092
	O393	O	1.227754	-0.015176	-0.218291
	H394	H	1.224117	-0.029491	-0.196470
	H395	H	1.267378	-0.014437	-0.256348
	O396	O	0.373887	0.537507	0.363144
	H397	H	0.374996	0.536565	0.365521
	H398	H	0.365250	0.555087	0.359424
	O399	O	0.576289	0.566365	0.327516
	H400	H	0.591024	0.565119	0.337746
	H401	H	0.578772	0.567295	0.322515
	O402	O	1.146874	0.169541	0.808988
	H403	H	1.131706	0.171022	0.821392
	H404	H	1.140277	0.153736	0.819391
	O405	O	1.081780	0.029041	-0.156687
	H406	H	1.086404	0.003889	-0.174847
	H407	H	1.086505	0.027567	-0.157876
	O408	O	0.980710	0.814707	1.218386
	H409	H	0.945007	0.810599	1.213120
	H410	H	0.979461	0.790107	1.225686
	O411	O	0.968870	1.201298	0.024586
	H412	H	0.939453	1.200665	0.027390
	H413	H	0.980457	1.188648	0.038750
	O414	O	-0.049559	-0.202584	-0.044547
	H415	H	-0.038882	-0.196240	-0.064453
	H416	H	-0.028944	-0.205590	-0.047086
	O417	O	0.511035	0.492822	0.361420
	H418	H	0.510079	0.491127	0.353110
	H419	H	0.497951	0.497146	0.380039
	O420	O	0.794938	-0.113000	0.934814
	H421	H	0.805140	-0.113198	0.946563
	H422	H	0.792426	-0.141018	0.924918
	O423	O	1.227075	1.058802	0.225509
	H424	H	1.204531	1.072491	0.225553
	H425	H	1.254779	1.063169	0.256781
	O426	O	0.695483	0.718505	0.702684
	H427	H	0.699281	0.726976	0.648681
	H428	H	0.689943	0.673758	0.710545
	O429	O	0.801298	0.222588	0.813284
	H430	H	0.829453	0.209143	0.815340
	H431	H	0.812426	0.195613	0.812440
	O432	O	0.811263	0.243781	1.001399
	H433	H	0.822881	0.227090	0.978755
	H434	H	0.781607	0.275312	0.986451
	O435	O	0.287297	0.498728	0.716806
	H436	H	0.271927	0.503167	0.730470
	H437	H	0.305523	0.513925	0.727719
	O438	O	0.707303	0.488585	0.537600
	H439	H	0.709543	0.488686	0.531333
	H440	H	0.698910	0.484667	0.531195
	O441	O	0.298378	0.726634	0.591111
	H442	H	0.303258	0.710062	0.595347
	H443	H	0.301403	0.722629	0.588470
	O444	O	0.467732	0.299886	0.731551
	H445	H	0.433263	0.293881	0.738701
	H446	H	0.447228	0.279199	0.753158
	O447	O	0.384196	0.731230	0.404383
	H448	H	0.388764	0.739388	0.419078
	H449	H	0.357989	0.748760	0.390280
	O450	O	1.034500	-0.034476	0.049002
	H451	H	1.032675	-0.031339	0.047932
	H452	H	1.028909	-0.028272	0.045190
	O453	O	0.559775	0.640410	0.469720
	H454	H	0.549538	0.626766	0.451398
	H455	H	0.553251	0.636888	0.450030
	O456	O	-0.546620	0.536064	0.659264
	H457	H	-0.527167	0.510526	0.652859
	H458	H	-0.529801	0.573273	0.673114
	O459	O	0.645814	0.725825	0.543506
	H460	H	0.636991	0.716141	0.513308
	H461	H	0.657040	0.734679	0.528303
	O462	O	0.546065	0.322562	0.542035
	H463	H	0.563348	0.326379	0.544730
	H464	H	0.556024	0.303664	0.553622
	O465	O	0.292551	0.313123	0.529767
	H466	H	0.299740	0.310944	0.544601
	H467	H	0.281118	0.305188	0.523797
	O468	O	-0.213101	-0.001813	0.227515
	H469	H	-0.235415	0.003053	0.246283
	H470	H	-0.210741	-0.002771	0.219827
	O471	O	0.221366	0.246512	0.036931
	H472	H	0.217077	0.247380	0.066969
	H473	H	0.243213	0.269082	0.060198
	O474	O	1.129113	0.909609	0.052123
	H475	H	1.125780	0.921257	0.075652
	H476	H	1.127728	0.916340	0.059676
	O477	O	0.551637	0.375521	0.313597
	H478	H	0.542838	0.381927	0.325796
	H479	H	0.537899	0.384482	0.308067
