data_Molecule from HDF5

_cell_length_a		16.079363
_cell_length_b		16.170908
_cell_length_c		16.377848
_cell_angle_alpha	89.170747
_cell_angle_beta	89.897311
_cell_angle_gamma	89.386621
_symmetry_space_group_name_H-M	'P 1'
_symmetry_Int_Tables_number		1

loop_
	_symmetry_equiv_pos_as_xyz
	x,y,z

loop_
	_atom_site_label
	_atom_site_type_symbol
	_atom_site_fract_x
	_atom_site_fract_y
	_atom_site_fract_z
	H0	H	0.401617	0.833914	0.725781
	H1	H	0.606006	0.158670	0.716151
	H2	H	0.607850	0.832646	0.285551
	H3	H	0.400509	0.159760	0.286691
	H4	H	0.715131	0.401209	0.842681
	H5	H	0.709905	0.591671	0.168662
	H6	H	0.279952	0.602127	0.842184
	H7	H	0.284827	0.401116	0.168782
	H8	H	0.837488	0.712251	0.403846
	H9	H	0.168317	0.696967	0.598848
	H10	H	0.836428	0.276585	0.606219
	H11	H	0.168247	0.282701	0.409484
	H12	H	0.834809	0.390987	0.721536
	H13	H	0.161897	0.592244	0.720628
	H14	H	0.833189	0.594732	0.293208
	H15	H	0.162427	0.389575	0.286742
	H16	H	0.393732	0.719617	0.842670
	H17	H	0.593199	0.709156	0.167807
	H18	H	0.598641	0.286055	0.840967
	H19	H	0.396128	0.276892	0.166019
	H20	H	0.716553	0.828800	0.407604
	H21	H	0.715893	0.158536	0.597047
	H22	H	0.297028	0.826664	0.600719
	H23	H	0.285370	0.158004	0.402670
	H24	H	0.894103	0.331434	0.224861
	H25	H	0.096177	0.658106	0.221197
	H26	H	0.102530	0.332064	0.792712
	H27	H	0.889944	0.656341	0.782351
	H28	H	0.219486	0.894793	0.340395
	H29	H	0.217135	0.085415	0.666855
	H30	H	0.788119	0.096115	0.340155
	H31	H	0.786534	0.890312	0.665806
	H32	H	0.333905	0.213754	0.901519
	H33	H	0.666125	0.206643	0.097756
	H34	H	0.332010	0.789153	0.103556
	H35	H	0.662624	0.780885	0.904971
	H36	H	0.337685	0.896000	0.223206
	H37	H	0.664970	0.097754	0.215919
	H38	H	0.338209	0.105029	0.780806
	H39	H	0.665484	0.896005	0.792019
	H40	H	0.902061	0.214857	0.342621
	H41	H	0.105065	0.205858	0.667330
	H42	H	0.104127	0.778238	0.340338
	H43	H	0.904478	0.775406	0.666003
	H44	H	0.217345	0.335151	0.907517
	H45	H	0.204582	0.663865	0.101073
	H46	H	0.783840	0.331653	0.106616
	H47	H	0.786843	0.662341	0.908547
	H48	H	0.417296	0.106541	0.581667
	H49	H	0.593682	0.876980	0.599856
	H50	H	0.593992	0.110631	0.411559
	H51	H	0.409241	0.872719	0.396788
	H52	H	0.595793	0.404534	0.121611
	H53	H	0.594050	0.592694	0.887418
	H54	H	0.409857	0.594361	0.118936
	H55	H	0.412227	0.414057	0.892587
	H56	H	0.116028	0.579090	0.415912
	H57	H	0.883449	0.577295	0.594413
	H58	H	0.126382	0.397945	0.625237
	H59	H	0.881009	0.396420	0.417004
	H60	H	0.120051	0.379341	0.584254
	H61	H	0.877825	0.588982	0.601499
	H62	H	0.119714	0.578322	0.401859
	H63	H	0.885235	0.408010	0.418830
	H64	H	0.396698	0.599433	0.124802
	H65	H	0.588971	0.589443	0.890204
	H66	H	0.583849	0.404075	0.118427
	H67	H	0.408740	0.400631	0.887234
	H68	H	0.597711	0.114618	0.405815
	H69	H	0.593420	0.878292	0.598601
	H70	H	0.396913	0.115416	0.589915
	H71	H	0.428937	0.882079	0.411206
	H72	H	0.904628	0.609943	0.092352
	H73	H	0.092249	0.379719	0.093645
	H74	H	0.082774	0.611637	0.915680
	H75	H	0.900571	0.375706	0.914517
	H76	H	0.100804	0.886892	0.622184
	H77	H	0.089785	0.079548	0.392409
	H78	H	0.906641	0.088628	0.621667
	H79	H	0.906064	0.906038	0.386890
	H80	H	0.619767	0.097879	0.910984
	H81	H	0.379830	0.092966	0.097948
	H82	H	0.618865	0.894944	0.089212
	H83	H	0.385629	0.923450	0.909883
	H84	H	0.613592	0.911111	0.089724
	H85	H	0.383572	0.087824	0.088674
	H86	H	0.615458	0.085824	0.913172
	H87	H	0.377147	0.907644	0.902534
	H88	H	0.907199	0.075816	0.618272
	H89	H	0.088177	0.096170	0.388044
	H90	H	0.104255	0.896999	0.620704
	H91	H	0.918240	0.904831	0.390140
	H92	H	0.090214	0.615953	0.907898
	H93	H	0.092125	0.377719	0.101340
	H94	H	0.895746	0.616446	0.102166
	H95	H	0.910002	0.376609	0.908805
	H96	H	0.415105	0.113839	0.603431
	H97	H	0.595481	0.875943	0.598837
	H98	H	0.590035	0.111773	0.404256
	H99	H	0.405548	0.877568	0.421456
	H100	H	0.589625	0.394242	0.122149
	H101	H	0.588383	0.595488	0.888699
	H102	H	0.397846	0.586154	0.119992
	H103	H	0.398669	0.411097	0.887784
	H104	H	0.121903	0.590423	0.408463
	H105	H	0.882624	0.589831	0.587416
	H106	H	0.108190	0.423643	0.591505
	H107	H	0.880307	0.404254	0.409101
	H108	H	0.908780	0.613853	0.104912
	H109	H	0.085585	0.381408	0.096862
	H110	H	0.078617	0.613779	0.904820
	H111	H	0.910564	0.380415	0.918796
	H112	H	0.094348	0.894021	0.618293
	H113	H	0.103300	0.087680	0.385378
	H114	H	0.918184	0.083557	0.616796
	H115	H	0.911129	0.895440	0.385628
	H116	H	0.620588	0.089265	0.901235
	H117	H	0.382910	0.081667	0.099092
	H118	H	0.621264	0.903022	0.103200
	H119	H	0.382548	0.907380	0.921482
	C120	C	0.382150	0.003453	0.623280
	C121	C	0.623929	0.985814	0.625067
	C122	C	0.625086	0.003822	0.379538
	C123	C	0.382308	0.985787	0.380581
	C124	C	0.619869	0.374590	0.013008
	C125	C	0.618369	0.619147	0.996455
	C126	C	0.372687	0.623350	0.013364
	C127	C	0.376460	0.377254	0.996273
	C128	C	0.009677	0.614123	0.381559
	C129	C	0.990663	0.612587	0.623427
	C130	C	0.009092	0.370649	0.628620
	C131	C	0.991446	0.372870	0.384952
	C132	C	0.874831	0.504200	0.128745
	C133	C	0.117466	0.488124	0.125635
	C134	C	0.117410	0.505807	0.882815
	C135	C	0.876615	0.486502	0.884040
	C136	C	0.127648	0.867154	0.512106
	C137	C	0.124001	0.114044	0.496030
	C138	C	0.880916	0.115089	0.511950
	C139	C	0.882006	0.871287	0.494940
	C140	C	0.509671	0.121440	0.878571
	C141	C	0.491324	0.116655	0.122814
	C142	C	0.508568	0.875654	0.125110
	C143	C	0.490832	0.879742	0.883290
	C144	C	0.383598	0.881228	0.683866
	C145	C	0.623917	0.109466	0.678333
	C146	C	0.626093	0.880988	0.324348
	C147	C	0.381586	0.110294	0.325092
	C148	C	0.676311	0.379873	0.890780
	C149	C	0.672533	0.613792	0.119586
	C150	C	0.317615	0.622183	0.890806
	C151	C	0.321551	0.379096	0.119353
	C152	C	0.885908	0.672701	0.384241
	C153	C	0.117198	0.662700	0.620144
	C154	C	0.885316	0.314908	0.626149
	C155	C	0.117518	0.318718	0.387806
	C156	C	0.884705	0.371188	0.683920
	C157	C	0.113867	0.610615	0.680887
	C158	C	0.883899	0.614429	0.329123
	C159	C	0.114364	0.371873	0.326624
	C160	C	0.374245	0.680610	0.891148
	C161	C	0.614104	0.671960	0.119228
	C162	C	0.618641	0.322415	0.889997
	C163	C	0.377132	0.317591	0.117811
	C164	C	0.680334	0.879043	0.384956
	C165	C	0.678929	0.109535	0.619240
	C166	C	0.331219	0.877629	0.622160
	C167	C	0.324083	0.109180	0.382428
	C168	C	0.875857	0.380569	0.185626
	C169	C	0.114939	0.610479	0.181851
	C170	C	0.121026	0.381975	0.829379
	C171	C	0.873561	0.608620	0.823782
	C172	C	0.182147	0.872924	0.389372
	C173	C	0.179836	0.107991	0.618294
	C174	C	0.825545	0.115722	0.389306
	C175	C	0.825320	0.871147	0.617124
	C176	C	0.384566	0.177027	0.880671
	C177	C	0.616126	0.170448	0.118736
	C178	C	0.382898	0.824097	0.123964
	C179	C	0.613979	0.820343	0.885585
	C180	C	0.385680	0.877592	0.183393
	C181	C	0.615841	0.115971	0.177518
	C182	C	0.386613	0.122562	0.820839
	C183	C	0.615332	0.877557	0.829038
	C184	C	0.882160	0.174880	0.390623
	C185	C	0.123719	0.167917	0.618489
	C186	C	0.124548	0.814980	0.389334
	C187	C	0.883963	0.813811	0.617214
	C188	C	0.177817	0.383261	0.886816
	C189	C	0.169583	0.613193	0.122524
	C190	C	0.820883	0.380445	0.126647
	C191	C	0.822203	0.611634	0.886640
	C192	C	0.403422	0.089402	0.598736
	C193	C	0.600914	0.899469	0.605100
	C194	C	0.601295	0.090133	0.400809
	C195	C	0.407272	0.899807	0.403147
	C196	C	0.596862	0.394987	0.098538
	C197	C	0.596854	0.598611	0.911021
	C198	C	0.394882	0.600148	0.099028
	C199	C	0.399628	0.401537	0.911234
	C200	C	0.096716	0.589681	0.402610
	C201	C	0.903855	0.591604	0.600893
	C202	C	0.095593	0.393394	0.606814
	C203	C	0.904687	0.396151	0.408179
	C204	C	0.896583	0.591049	0.106282
	C205	C	0.096328	0.401944	0.103551
	C206	C	0.091423	0.591361	0.903560
	C207	C	0.900236	0.400047	0.907400
	C208	C	0.106047	0.886746	0.598283
	C209	C	0.100664	0.093653	0.410722
	C210	C	0.903881	0.090052	0.596774
	C211	C	0.904990	0.895044	0.409629
	C212	C	0.596184	0.097832	0.901447
	C213	C	0.404678	0.094232	0.101440
	C214	C	0.595475	0.896816	0.101175
	C215	C	0.404169	0.905431	0.905069
	Zn216	Zn	0.501769	-0.002439	0.752856
	Zn217	Zn	0.502869	-0.003740	0.251193
	Zn218	Zn	0.748890	0.496215	0.005736
	Zn219	Zn	0.245687	0.500029	0.004666
	Zn220	Zn	0.003510	0.740085	0.503168
	Zn221	Zn	0.002597	0.244714	0.505988
	Zn222	Zn	-0.002985	0.494136	0.754138
	Zn223	Zn	-0.002311	0.493378	0.254962
	Zn224	Zn	0.496492	0.750340	0.003448
	Zn225	Zn	0.499257	0.245664	0.003286
	Zn226	Zn	0.751610	-0.006645	0.503347
	Zn227	Zn	0.253921	-0.008181	0.503043
	N228	N	0.414339	0.960393	0.684763
	N229	N	0.590305	0.031592	0.682123
	N230	N	0.592474	0.959654	0.320746
	N231	N	0.416889	0.032709	0.323634
	N232	N	0.677139	0.411451	0.968251
	N233	N	0.675367	0.581863	0.042218
	N234	N	0.316440	0.587362	0.967851
	N235	N	0.321116	0.415608	0.042839
	N236	N	0.965084	0.672727	0.416221
	N237	N	0.039548	0.664350	0.585070
	N238	N	0.963814	0.314242	0.592726
	N239	N	0.039974	0.319248	0.423250
	N240	N	0.962681	0.405112	0.685811
	N241	N	0.034193	0.580186	0.683112
	N242	N	0.961735	0.578734	0.327349
	N243	N	0.035025	0.404824	0.324955
	N244	N	0.407664	0.681483	0.968330
	N245	N	0.581246	0.675630	0.041659
	N246	N	0.584127	0.319158	0.966882
	N247	N	0.410199	0.316098	0.040147
	N248	N	0.679803	0.956577	0.418421
	N249	N	0.679093	0.031588	0.586901
	N250	N	0.330034	0.954476	0.585151
	N251	N	0.324622	0.030785	0.416523
	N252	N	0.908927	0.458606	0.186906
	N253	N	0.083334	0.531659	0.183980
	N254	N	0.084093	0.459019	0.826671
	N255	N	0.906801	0.529857	0.821937
	N256	N	0.184067	0.904718	0.466754
	N257	N	0.180056	0.075157	0.541178
	N258	N	0.824756	0.079003	0.465669
	N259	N	0.824122	0.906228	0.540087
	N260	N	0.462198	0.176668	0.915830
	N261	N	0.537638	0.171149	0.085406
	N262	N	0.460328	0.822673	0.088364
	N263	N	0.535349	0.821429	0.918316
	N264	N	0.465152	0.908773	0.184346
	N265	N	0.537337	0.083094	0.180118
	N266	N	0.465428	0.088739	0.819093
	N267	N	0.537645	0.914053	0.827871
	N268	N	0.915820	0.174698	0.467837
	N269	N	0.089652	0.171773	0.541463
	N270	N	0.091365	0.811151	0.466790
	N271	N	0.918460	0.813618	0.540116
	N272	N	0.176050	0.461285	0.919168
	N273	N	0.171125	0.536188	0.087767
	N274	N	0.820173	0.458272	0.091894
	N275	N	0.823990	0.534542	0.923462
	O276	O	0.971831	0.994848	-0.064911
	H277	H	0.969305	0.989509	-0.068003
	H278	H	0.979765	0.989020	-0.075340
	O279	O	0.538672	0.433578	0.503451
	H280	H	0.537118	0.445630	0.505255
	H281	H	0.542774	0.439497	0.500599
	O282	O	1.019364	0.989217	0.129131
	H283	H	1.027734	0.997720	0.125138
	H284	H	1.010588	0.994535	0.131083
	O285	O	0.949016	0.010699	1.069826
	H286	H	0.952857	0.001913	1.072336
	H287	H	0.951502	0.000711	1.089487
	O288	O	0.482721	0.488221	0.622911
	H289	H	0.495084	0.485085	0.611519
	H290	H	0.477652	0.488658	0.629116
	O291	O	0.449762	0.506586	0.592976
	H292	H	0.445241	0.518970	0.589270
	H293	H	0.450321	0.509720	0.575327
	O294	O	0.535749	0.475047	0.502563
	H295	H	0.537299	0.472104	0.500637
	H296	H	0.535067	0.467081	0.509569
	O297	O	0.076718	0.174250	1.067894
	H298	H	0.086107	0.174141	1.074486
	H299	H	0.079239	0.175349	1.060281
	O300	O	0.574325	0.470567	0.495081
	H301	H	0.585856	0.460419	0.491972
	H302	H	0.562482	0.464607	0.501604
	O303	O	0.962668	1.072347	-0.132143
	H304	H	0.946867	1.060354	-0.120924
	H305	H	0.957463	1.090423	-0.145406
	O306	O	-0.147348	1.037848	1.001147
	H307	H	-0.151570	1.034449	1.007883
	H308	H	-0.151025	1.039902	1.003028
	O309	O	0.425352	0.442826	0.502279
	H310	H	0.420080	0.435273	0.498925
	H311	H	0.433451	0.433536	0.514112
	O312	O	0.012178	0.059019	0.100549
	H313	H	0.010965	0.063373	0.082093
	H314	H	0.018743	0.065689	0.107573
	O315	O	1.060754	-0.001716	-0.037220
	H316	H	1.061913	0.009235	-0.033106
	H317	H	1.061750	-0.010183	-0.052618
	O318	O	0.995427	0.858076	1.022126
	H319	H	1.002927	0.865999	1.018211
	H320	H	1.011388	0.851551	1.028227
	O321	O	0.104867	-0.034659	1.069264
	H322	H	0.108784	-0.040939	1.061855
	H323	H	0.111644	-0.038174	1.062841
	O324	O	0.516290	0.538803	0.567272
	H325	H	0.509531	0.537996	0.557723
	H326	H	0.511443	0.535369	0.573441
	O327	O	-0.105320	0.061212	-0.122417
	H328	H	-0.106747	0.043911	-0.107950
	H329	H	-0.115314	0.056977	-0.095144
	O330	O	0.560263	0.582340	0.571828
	H331	H	0.550111	0.584800	0.571111
	H332	H	0.557340	0.584328	0.577626
	O333	O	0.068547	1.043747	0.924253
	H334	H	0.070338	1.052682	0.911960
	H335	H	0.067327	1.054739	0.924072
	O336	O	0.082879	0.026406	-0.074195
	H337	H	0.092332	0.028759	-0.067390
	H338	H	0.082977	0.032963	-0.061365
	O339	O	0.465433	0.418033	0.535937
	H340	H	0.471203	0.410867	0.539511
	H341	H	0.472234	0.402311	0.540770
	O342	O	1.045505	1.056306	1.034673
	H343	H	1.039093	1.053102	1.041737
	H344	H	1.042042	1.064749	1.055252
	O345	O	0.898006	1.116809	-0.128993
	H346	H	0.876476	1.112419	-0.134871
	H347	H	0.890031	1.128061	-0.137404
	O348	O	0.530417	0.502997	0.455326
	H349	H	0.522365	0.506344	0.450030
	H350	H	0.527700	0.507832	0.460464
	O351	O	0.066792	0.867518	0.044209
	H352	H	0.077286	0.844278	0.042960
	H353	H	0.057659	0.869400	0.018262
	O354	O	0.521144	0.496084	0.542467
	H355	H	0.527754	0.497655	0.540019
	H356	H	0.518257	0.500902	0.539494
	O357	O	0.855544	0.067975	1.091322
	H358	H	0.867215	0.055966	1.090776
	H359	H	0.851200	0.057412	1.109003
	O360	O	0.547875	0.525715	0.480050
	H361	H	0.541630	0.530657	0.489443
	H362	H	0.548537	0.514001	0.479168
	O363	O	0.500065	0.447181	0.473100
	H364	H	0.500255	0.441898	0.477026
	H365	H	0.510024	0.451790	0.469043
	O366	O	1.063240	0.975059	0.977214
	H367	H	1.057745	0.978108	0.962499
	H368	H	1.050519	0.981880	0.973222
	O369	O	1.116463	-0.143439	0.937526
	H370	H	1.115324	-0.129719	0.937233
	H371	H	1.111032	-0.136672	0.924552
	O372	O	-0.014989	-0.080974	0.168979
	H373	H	-0.016463	-0.089775	0.170413
	H374	H	-0.007479	-0.062756	0.171332
	O375	O	0.911489	-0.085318	-0.093729
	H376	H	0.921465	-0.086158	-0.076736
	H377	H	0.911648	-0.085420	-0.106747
	O378	O	0.445138	0.454221	0.490764
	H379	H	0.440077	0.453198	0.489405
	H380	H	0.453322	0.458651	0.498844
	O381	O	0.495977	0.482097	0.508400
	H382	H	0.504358	0.479273	0.507556
	H383	H	0.492157	0.483997	0.507943
