data_Molecule from HDF5

_cell_length_a		16.426478
_cell_length_b		16.320127
_cell_length_c		16.237468
_cell_angle_alpha	90.035681
_cell_angle_beta	90.230274
_cell_angle_gamma	90.225722
_symmetry_space_group_name_H-M	'P 1'
_symmetry_Int_Tables_number		1

loop_
	_symmetry_equiv_pos_as_xyz
	x,y,z

loop_
	_atom_site_label
	_atom_site_type_symbol
	_atom_site_fract_x
	_atom_site_fract_y
	_atom_site_fract_z
	H0	H	0.405235	0.832504	0.710900
	H1	H	0.608149	0.155808	0.715602
	H2	H	0.602855	0.832829	0.278329
	H3	H	0.399617	0.154799	0.275681
	H4	H	0.722742	0.389858	0.836065
	H5	H	0.724295	0.600933	0.157366
	H6	H	0.281057	0.602365	0.836229
	H7	H	0.282323	0.388916	0.155262
	H8	H	0.843021	0.713789	0.391232
	H9	H	0.162385	0.715911	0.602256
	H10	H	0.844993	0.270954	0.601721
	H11	H	0.164041	0.274874	0.393622
	H12	H	0.843011	0.389299	0.714582
	H13	H	0.162570	0.598017	0.717497
	H14	H	0.843515	0.597372	0.275258
	H15	H	0.163747	0.390097	0.276155
	H16	H	0.402304	0.711655	0.833861
	H17	H	0.606552	0.712567	0.158853
	H18	H	0.607920	0.275045	0.835915
	H19	H	0.397884	0.274694	0.155835
	H20	H	0.721336	0.834393	0.391594
	H21	H	0.725457	0.154929	0.602067
	H22	H	0.286534	0.833236	0.597892
	H23	H	0.283544	0.154308	0.390179
	H24	H	0.900807	0.333012	0.213803
	H25	H	0.105661	0.655668	0.215189
	H26	H	0.102776	0.332685	0.779638
	H27	H	0.900893	0.655573	0.777472
	H28	H	0.221142	0.890161	0.334692
	H29	H	0.225758	0.100481	0.656950
	H30	H	0.781068	0.100725	0.336435
	H31	H	0.782995	0.889998	0.656831
	H32	H	0.345080	0.217475	0.887433
	H33	H	0.661706	0.217097	0.102824
	H34	H	0.343388	0.774002	0.097740
	H35	H	0.664487	0.776371	0.893397
	H36	H	0.342401	0.890819	0.213255
	H37	H	0.662208	0.098889	0.216554
	H38	H	0.343972	0.098815	0.774608
	H39	H	0.665052	0.895418	0.779275
	H40	H	0.899101	0.213996	0.334969
	H41	H	0.107097	0.212462	0.658604
	H42	H	0.102281	0.777324	0.334075
	H43	H	0.900468	0.776614	0.657541
	H44	H	0.224977	0.335303	0.888056
	H45	H	0.223973	0.655376	0.101261
	H46	H	0.781951	0.335181	0.101329
	H47	H	0.784619	0.655815	0.892160
	H48	H	0.415095	0.107031	0.579150
	H49	H	0.597643	0.877925	0.588483
	H50	H	0.593632	0.108897	0.409902
	H51	H	0.421111	0.881665	0.404575
	H52	H	0.599330	0.405967	0.113202
	H53	H	0.590231	0.587450	0.881283
	H54	H	0.415553	0.588144	0.111857
	H55	H	0.407911	0.405508	0.878391
	H56	H	0.118101	0.582461	0.401271
	H57	H	0.889260	0.589352	0.582497
	H58	H	0.119505	0.406583	0.597124
	H59	H	0.889037	0.400080	0.404800
	H60	H	0.119281	0.395103	0.584331
	H61	H	0.891228	0.579378	0.583652
	H62	H	0.118657	0.591305	0.408526
	H63	H	0.891580	0.403678	0.410120
	H64	H	0.410399	0.582709	0.112013
	H65	H	0.598420	0.588196	0.878584
	H66	H	0.591216	0.413002	0.108767
	H67	H	0.414789	0.413643	0.883261
	H68	H	0.593400	0.109672	0.405755
	H69	H	0.591571	0.879919	0.588789
	H70	H	0.408043	0.112218	0.586625
	H71	H	0.408646	0.882264	0.414065
	H72	H	0.910601	0.613048	0.091254
	H73	H	0.089949	0.380949	0.086397
	H74	H	0.099733	0.610182	0.911862
	H75	H	0.910275	0.378475	0.905207
	H76	H	0.093535	0.908891	0.610668
	H77	H	0.092689	0.089825	0.379951
	H78	H	0.917676	0.085061	0.611392
	H79	H	0.917588	0.898899	0.381092
	H80	H	0.613017	0.079412	0.913543
	H81	H	0.391151	0.080327	0.082114
	H82	H	0.618968	0.903070	0.089762
	H83	H	0.390452	0.906601	0.902043
	H84	H	0.617070	0.901835	0.084769
	H85	H	0.388612	0.084721	0.086576
	H86	H	0.619133	0.083697	0.899052
	H87	H	0.387381	0.898653	0.900615
	H88	H	0.910899	0.081945	0.611652
	H89	H	0.099177	0.081087	0.380333
	H90	H	0.093493	0.901105	0.612859
	H91	H	0.904094	0.902788	0.378103
	H92	H	0.092043	0.609892	0.900563
	H93	H	0.093604	0.381262	0.080435
	H94	H	0.921552	0.606623	0.086649
	H95	H	0.913930	0.381187	0.907770
	H96	H	0.418414	0.109647	0.589590
	H97	H	0.594644	0.881278	0.583087
	H98	H	0.590119	0.107620	0.407657
	H99	H	0.406929	0.876095	0.399510
	H100	H	0.588766	0.401845	0.111099
	H101	H	0.595541	0.580683	0.882449
	H102	H	0.417773	0.580969	0.109669
	H103	H	0.419124	0.402683	0.881361
	H104	H	0.113443	0.581252	0.412090
	H105	H	0.887386	0.584823	0.591564
	H106	H	0.113480	0.410440	0.581297
	H107	H	0.890341	0.406313	0.404506
	H108	H	0.910590	0.608242	0.078923
	H109	H	0.096669	0.379255	0.086773
	H110	H	0.086813	0.605480	0.912395
	H111	H	0.909758	0.380052	0.909557
	H112	H	0.100315	0.904924	0.613337
	H113	H	0.088823	0.080911	0.384209
	H114	H	0.916250	0.078183	0.608627
	H115	H	0.912586	0.912661	0.383261
	H116	H	0.618490	0.094386	0.911081
	H117	H	0.390120	0.086444	0.080417
	H118	H	0.616484	0.906781	0.086442
	H119	H	0.390442	0.900931	0.908264
	C120	C	0.383448	0.003161	0.616269
	C121	C	0.626314	0.986175	0.618369
	C122	C	0.623419	0.002827	0.375450
	C123	C	0.380687	0.985881	0.373576
	C124	C	0.624314	0.374811	0.005079
	C125	C	0.625705	0.616440	0.988114
	C126	C	0.382822	0.615715	0.004534
	C127	C	0.381823	0.374195	0.987015
	C128	C	0.011291	0.616369	0.374749
	C129	C	0.994734	0.616023	0.618415
	C130	C	0.011885	0.372056	0.618668
	C131	C	0.995838	0.372413	0.374857
	C132	C	0.881983	0.503282	0.117383
	C133	C	0.125367	0.486348	0.117068
	C134	C	0.124291	0.502608	0.875711
	C135	C	0.880968	0.486155	0.875340
	C136	C	0.125059	0.873565	0.505095
	C137	C	0.125448	0.115735	0.488042
	C138	C	0.882741	0.114682	0.504462
	C139	C	0.880947	0.873398	0.487559
	C140	C	0.512034	0.117504	0.874383
	C141	C	0.494578	0.116403	0.116632
	C142	C	0.511820	0.872500	0.117489
	C143	C	0.495604	0.872517	0.873858
	C144	C	0.384544	0.881234	0.673208
	C145	C	0.627171	0.107623	0.676787
	C146	C	0.622873	0.881414	0.316978
	C147	C	0.380341	0.106597	0.314619
	C148	C	0.683310	0.371987	0.884264
	C149	C	0.684577	0.618637	0.109343
	C150	C	0.322215	0.618989	0.883874
	C151	C	0.322012	0.370898	0.107306
	C152	C	0.891045	0.674490	0.372957
	C153	C	0.114552	0.675994	0.620767
	C154	C	0.892584	0.311358	0.619879
	C155	C	0.116241	0.314344	0.374381
	C156	C	0.891168	0.370611	0.676074
	C157	C	0.114772	0.617355	0.678029
	C158	C	0.891358	0.616609	0.314974
	C159	C	0.115929	0.371445	0.315703
	C160	C	0.382433	0.673617	0.882610
	C161	C	0.625684	0.674146	0.110233
	C162	C	0.626346	0.314470	0.884319
	C163	C	0.379828	0.314134	0.107461
	C164	C	0.681574	0.882221	0.373688
	C165	C	0.685577	0.106962	0.620215
	C166	C	0.325437	0.881655	0.616946
	C167	C	0.322475	0.106302	0.371612
	C168	C	0.881378	0.381561	0.175332
	C169	C	0.125758	0.607274	0.176528
	C170	C	0.123640	0.381316	0.817311
	C171	C	0.881359	0.607297	0.816576
	C172	C	0.181955	0.872229	0.382987
	C173	C	0.185534	0.118192	0.608965
	C174	C	0.821950	0.118052	0.384098
	C175	C	0.822366	0.871706	0.608514
	C176	C	0.392810	0.177279	0.870226
	C177	C	0.613997	0.176995	0.120399
	C178	C	0.391263	0.813430	0.117339
	C179	C	0.616578	0.815958	0.874801
	C180	C	0.390618	0.871808	0.174484
	C181	C	0.614407	0.118009	0.177033
	C182	C	0.392158	0.117932	0.813799
	C183	C	0.616791	0.874795	0.817649
	C184	C	0.880694	0.174520	0.383445
	C185	C	0.126495	0.174050	0.609836
	C186	C	0.123189	0.815612	0.382909
	C187	C	0.880886	0.815208	0.609193
	C188	C	0.184180	0.382787	0.871741
	C189	C	0.184328	0.607210	0.119655
	C190	C	0.821903	0.382954	0.119699
	C191	C	0.823602	0.607443	0.873780
	C192	C	0.406865	0.087716	0.592149
	C193	C	0.601789	0.901654	0.594016
	C194	C	0.599305	0.086849	0.400511
	C195	C	0.404916	0.901842	0.398724
	C196	C	0.599935	0.399626	0.089220
	C197	C	0.601703	0.592330	0.903047
	C198	C	0.407461	0.591065	0.089054
	C199	C	0.406697	0.399752	0.902948
	C200	C	0.094980	0.592040	0.399819
	C201	C	0.911249	0.591470	0.593170
	C202	C	0.095557	0.397034	0.594737
	C203	C	0.912246	0.396362	0.399425
	C204	C	0.906764	0.587276	0.092727
	C205	C	0.100787	0.402393	0.091794
	C206	C	0.099920	0.586510	0.900836
	C207	C	0.904387	0.401954	0.900203
	C208	C	0.102422	0.897815	0.590060
	C209	C	0.100754	0.091038	0.403468
	C210	C	0.907832	0.089221	0.588689
	C211	C	0.904777	0.897594	0.402913
	C212	C	0.595232	0.092989	0.900376
	C213	C	0.411623	0.091179	0.090542
	C214	C	0.595539	0.897046	0.094050
	C215	C	0.411249	0.895460	0.896785
	Zn216	Zn	0.504250	-0.004584	0.745692
	Zn217	Zn	0.502701	-0.005563	0.245806
	Zn218	Zn	0.752889	0.495493	-0.003179
	Zn219	Zn	0.253996	0.495214	-0.004314
	Zn220	Zn	0.002881	0.745399	0.496684
	Zn221	Zn	0.004073	0.243257	0.496401
	Zn222	Zn	0.002603	0.493718	0.747184
	Zn223	Zn	0.003503	0.494119	0.245627
	Zn224	Zn	0.504104	0.743544	-0.003827
	Zn225	Zn	0.503306	0.246652	-0.003947
	Zn226	Zn	0.752880	-0.005000	0.496105
	Zn227	Zn	0.253488	-0.005177	0.495718
	N228	N	0.419581	0.957915	0.673216
	N229	N	0.591086	0.031460	0.675867
	N230	N	0.587382	0.957505	0.317927
	N231	N	0.415886	0.030664	0.315923
	N232	N	0.682219	0.408816	0.960327
	N233	N	0.684813	0.583726	0.032312
	N234	N	0.322523	0.583554	0.960681
	N235	N	0.323310	0.407523	0.031229
	N236	N	0.966806	0.674588	0.409286
	N237	N	0.038844	0.675563	0.584609
	N238	N	0.968599	0.312100	0.584908
	N239	N	0.040578	0.314578	0.410062
	N240	N	0.966345	0.407755	0.675460
	N241	N	0.039251	0.580811	0.676853
	N242	N	0.967120	0.581048	0.315947
	N243	N	0.040001	0.406762	0.315657
	N244	N	0.419425	0.671654	0.958625
	N245	N	0.589888	0.673044	0.033608
	N246	N	0.590233	0.315990	0.960467
	N247	N	0.416213	0.315896	0.031430
	N248	N	0.682023	0.958748	0.409118
	N249	N	0.685076	0.030513	0.584703
	N250	N	0.324678	0.958504	0.582212
	N251	N	0.322717	0.030148	0.407612
	N252	N	0.918060	0.457425	0.174048
	N253	N	0.090001	0.530941	0.175420
	N254	N	0.087102	0.456760	0.819596
	N255	N	0.916306	0.530929	0.817455
	N256	N	0.183473	0.907292	0.460111
	N257	N	0.185225	0.082730	0.532129
	N258	N	0.823182	0.081569	0.460356
	N259	N	0.822205	0.906841	0.531743
	N260	N	0.468349	0.177356	0.906814
	N261	N	0.538621	0.176036	0.083337
	N262	N	0.467515	0.813619	0.082663
	N263	N	0.540127	0.814356	0.908881
	N264	N	0.466363	0.907970	0.174616
	N265	N	0.539082	0.081151	0.175067
	N266	N	0.467564	0.081497	0.816180
	N267	N	0.540695	0.909465	0.817067
	N268	N	0.917859	0.172432	0.459412
	N269	N	0.090100	0.172660	0.533568
	N270	N	0.088737	0.816253	0.459793
	N271	N	0.916370	0.815840	0.532819
	N272	N	0.184557	0.459220	0.907467
	N273	N	0.184350	0.530839	0.083818
	N274	N	0.821997	0.459629	0.084699
	N275	N	0.823155	0.531083	0.909422
	O276	O	0.392338	0.681691	0.310014
	H277	H	0.387166	0.681425	0.297160
	H278	H	0.392959	0.673638	0.306008
	O279	O	0.293411	0.425014	0.666346
	H280	H	0.286616	0.411416	0.693795
	H281	H	0.282176	0.390804	0.670259
	O282	O	0.707694	0.498061	0.706193
	H283	H	0.730663	0.515563	0.715625
	H284	H	0.710476	0.536039	0.713273
	O285	O	1.405704	0.577567	0.487620
	H286	H	1.391774	0.559832	0.483336
	H287	H	1.423520	0.586855	0.492471
	O288	O	0.144623	-0.095075	0.980451
	H289	H	0.146633	-0.091695	1.002876
	H290	H	0.135021	-0.092166	0.982342
	O291	O	0.520396	0.528177	0.299766
	H292	H	0.540813	0.522489	0.291257
	H293	H	0.523540	0.505275	0.299905
	O294	O	0.691589	0.697818	0.509067
	H295	H	0.692581	0.698573	0.499124
	H296	H	0.689761	0.698345	0.486385
	O297	O	0.821881	0.984394	0.953058
	H298	H	0.833889	0.974145	0.955096
	H299	H	0.820663	0.981227	0.959856
	O300	O	0.083166	-0.016524	-0.100246
	H301	H	0.078931	-0.024345	-0.110066
	H302	H	0.090008	-0.014250	-0.106662
	O303	O	0.309365	0.560101	0.558775
	H304	H	0.320556	0.552948	0.575403
	H305	H	0.303546	0.529965	0.554403
	O306	O	1.109930	-0.002770	-0.162904
	H307	H	1.110454	-0.020056	-0.156228
	H308	H	1.132459	-0.002852	-0.165159
	O309	O	0.406053	0.447679	0.400249
	H310	H	0.387782	0.459580	0.391187
	H311	H	0.408311	0.456635	0.409057
	O312	O	0.893271	0.896877	-0.096371
	H313	H	0.892340	0.893836	-0.108744
	H314	H	0.896072	0.897024	-0.101289
	O315	O	0.565479	0.307866	0.489893
	H316	H	0.569727	0.301871	0.495959
	H317	H	0.568576	0.332980	0.509403
	O318	O	0.684578	0.351370	0.333576
	H319	H	0.673636	0.344891	0.364228
	H320	H	0.655258	0.343729	0.324965
	O321	O	1.091817	0.172165	1.125592
	H322	H	1.101968	0.165739	1.129038
	H323	H	1.094290	0.178860	1.137358
	O324	O	-0.068531	-0.001424	0.876967
	H325	H	-0.061304	0.008245	0.873349
	H326	H	-0.079264	-0.018270	0.881360
	O327	O	0.093546	1.011792	1.145096
	H328	H	0.108648	1.006007	1.147809
	H329	H	0.091296	1.012717	1.135204
	O330	O	0.583811	0.467316	0.559018
	H331	H	0.588297	0.487872	0.559031
	H332	H	0.585980	0.485611	0.561062
	O333	O	0.880242	0.949239	1.172245
	H334	H	0.889829	0.957089	1.162368
	H335	H	0.876648	0.970512	1.188697
	O336	O	0.685421	0.489693	0.303491
	H337	H	0.700256	0.481067	0.284873
	H338	H	0.684943	0.461254	0.304923
	O339	O	0.600192	0.377480	0.576123
	H340	H	0.600248	0.383148	0.574495
	H341	H	0.615752	0.382735	0.579012
	O342	O	0.085543	1.155812	0.922552
	H343	H	0.094356	1.162506	0.929750
	H344	H	0.091685	1.151680	0.920735
	O345	O	-0.083211	0.905316	0.865990
	H346	H	-0.085001	0.908040	0.866035
	H347	H	-0.081206	0.906664	0.868185
	O348	O	0.547172	0.296571	0.319428
	H349	H	0.531182	0.310141	0.314999
	H350	H	0.532061	0.282318	0.322667
	O351	O	0.061611	-0.034152	0.025336
	H352	H	0.064287	-0.017415	0.037932
	H353	H	0.049994	-0.038497	0.023272
	O354	O	0.490640	0.639823	-0.511393
	H355	H	0.488930	0.652596	-0.514712
	H356	H	0.473325	0.634805	-0.512697
	O357	O	0.140436	1.143666	0.031808
	H358	H	0.155357	1.165697	0.024281
	H359	H	0.132427	1.135929	0.025456
	O360	O	0.294595	0.374884	0.484777
	H361	H	0.305758	0.350766	0.486106
	H362	H	0.293485	0.371343	0.472871
	O363	O	0.498733	0.656237	0.583875
	H364	H	0.494813	0.670887	0.593923
	H365	H	0.506035	0.641039	0.584611
	O366	O	0.506303	0.534557	0.669787
	H367	H	0.491745	0.529800	0.682531
	H368	H	0.508713	0.531122	0.655728
	O369	O	0.429259	0.293937	0.397961
	H370	H	0.441639	0.292994	0.391231
	H371	H	0.443165	0.299015	0.402938
	O372	O	0.291745	0.701073	0.387493
	H373	H	0.278864	0.712776	0.380890
	H374	H	0.281296	0.700797	0.392887
	O375	O	0.687546	0.588990	0.548917
	H376	H	0.700260	0.597652	0.532316
	H377	H	0.674757	0.598134	0.539171
	O378	O	0.590164	0.617189	0.432256
	H379	H	0.576303	0.619670	0.439885
	H380	H	0.586765	0.599953	0.422036
	O381	O	0.469276	0.354454	0.693023
	H382	H	0.490047	0.387948	0.691141
	H383	H	0.485148	0.337814	0.709714
	O384	O	-0.093550	0.842907	1.123315
	H385	H	-0.107884	0.824693	1.113496
	H386	H	-0.098677	0.872234	1.132521
	O387	O	0.894772	1.101223	-0.132739
	H388	H	0.898249	1.095942	-0.132175
	H389	H	0.895929	1.086627	-0.138051
	O390	O	0.311834	0.526367	0.292895
	H391	H	0.283804	0.528382	0.286330
	H392	H	0.316298	0.536673	0.306178
	O393	O	1.059608	0.060931	1.048856
	H394	H	1.050806	0.049219	1.053049
	H395	H	1.050909	0.063319	1.051003
	O396	O	0.068502	0.966745	1.038078
	H397	H	0.061396	0.970786	1.042601
	H398	H	0.072394	0.964783	1.035488
	O399	O	0.342341	0.319444	0.674889
	H400	H	0.356607	0.317928	0.661264
	H401	H	0.367723	0.312256	0.671233
	O402	O	1.184855	-0.172027	0.820680
	H403	H	1.191344	-0.162973	0.835873
	H404	H	1.190612	-0.179571	0.807485
	O405	O	0.099135	-0.114533	-0.101732
	H406	H	0.109517	-0.103794	-0.123960
	H407	H	0.112196	-0.136355	-0.106590
	O408	O	0.979439	1.007309	1.147568
	H409	H	0.976710	1.019422	1.136144
	H410	H	0.979402	1.010128	1.162630
	O411	O	0.841230	1.096991	-0.000969
	H412	H	0.839308	1.091958	-0.009547
	H413	H	0.833782	1.119268	-0.007219
	O414	O	0.047369	-0.137170	1.054146
	H415	H	0.030764	-0.147462	1.062419
	H416	H	0.031391	-0.140225	1.044966
	O417	O	0.625494	0.677634	0.673791
	H418	H	0.613408	0.696551	0.676358
	H419	H	0.626850	0.681360	0.646270
	O420	O	-0.129841	0.856790	-0.034978
	H421	H	-0.134871	0.854426	-0.034209
	H422	H	-0.130151	0.863625	-0.035695
	O423	O	1.149572	0.123428	0.193186
	H424	H	1.160541	0.128688	0.181892
	H425	H	1.156147	0.106275	0.204013
	O426	O	-0.097223	0.171150	1.029570
	H427	H	-0.096661	0.172304	1.032760
	H428	H	-0.098767	0.175045	1.021257
	O429	O	0.649080	0.338075	0.563732
	H430	H	0.656681	0.343360	0.563122
	H431	H	0.649346	0.361450	0.566586
