data_Molecule from HDF5

_cell_length_a		16.536851
_cell_length_b		16.213167
_cell_length_c		16.026670
_cell_angle_alpha	90.007177
_cell_angle_beta	90.000812
_cell_angle_gamma	90.107908
_symmetry_space_group_name_H-M	'P 1'
_symmetry_Int_Tables_number		1

loop_
	_symmetry_equiv_pos_as_xyz
	x,y,z

loop_
	_atom_site_label
	_atom_site_type_symbol
	_atom_site_fract_x
	_atom_site_fract_y
	_atom_site_fract_z
	H0	H	0.403612	0.833323	0.700210
	H1	H	0.597216	0.161825	0.702186
	H2	H	0.600677	0.834686	0.271917
	H3	H	0.403478	0.162553	0.275317
	H4	H	0.717897	0.390630	0.825460
	H5	H	0.719764	0.601432	0.150992
	H6	H	0.280342	0.603449	0.827139
	H7	H	0.279363	0.389672	0.151208
	H8	H	0.839854	0.717348	0.384723
	H9	H	0.158644	0.718343	0.592265
	H10	H	0.841987	0.276206	0.595401
	H11	H	0.159816	0.278242	0.385485
	H12	H	0.838347	0.399093	0.703860
	H13	H	0.159229	0.598502	0.706416
	H14	H	0.838910	0.597483	0.270485
	H15	H	0.160102	0.395577	0.270188
	H16	H	0.400833	0.709879	0.822772
	H17	H	0.601733	0.713614	0.152074
	H18	H	0.596289	0.284239	0.822909
	H19	H	0.398358	0.280282	0.153241
	H20	H	0.721299	0.837527	0.381256
	H21	H	0.720325	0.159157	0.595577
	H22	H	0.278592	0.838325	0.596297
	H23	H	0.279493	0.158086	0.380274
	H24	H	0.902059	0.332531	0.202758
	H25	H	0.097738	0.661650	0.202874
	H26	H	0.094754	0.333226	0.776852
	H27	H	0.903095	0.661507	0.777536
	H28	H	0.217411	0.893946	0.325269
	H29	H	0.219681	0.104293	0.651282
	H30	H	0.781844	0.104151	0.325499
	H31	H	0.782055	0.894603	0.651530
	H32	H	0.339091	0.214896	0.885728
	H33	H	0.658599	0.218269	0.092228
	H34	H	0.340190	0.776914	0.090348
	H35	H	0.658931	0.776631	0.882537
	H36	H	0.339431	0.896251	0.205892
	H37	H	0.660892	0.099371	0.204540
	H38	H	0.338553	0.094424	0.772797
	H39	H	0.661071	0.898279	0.770753
	H40	H	0.903143	0.211947	0.323640
	H41	H	0.098799	0.211213	0.654378
	H42	H	0.097929	0.784377	0.323098
	H43	H	0.900608	0.785051	0.654046
	H44	H	0.219646	0.336891	0.882347
	H45	H	0.222179	0.657100	0.098209
	H46	H	0.778884	0.335857	0.096009
	H47	H	0.779047	0.656620	0.880672
	H48	H	0.406869	0.116421	0.581871
	H49	H	0.592786	0.880329	0.578132
	H50	H	0.593430	0.112368	0.405496
	H51	H	0.410807	0.880804	0.393299
	H52	H	0.587744	0.406236	0.106143
	H53	H	0.587157	0.595240	0.869400
	H54	H	0.412876	0.588546	0.105931
	H55	H	0.401158	0.406939	0.868715
	H56	H	0.110393	0.584253	0.398009
	H57	H	0.884604	0.591785	0.583147
	H58	H	0.115675	0.397046	0.579225
	H59	H	0.887763	0.406710	0.398602
	H60	H	0.111453	0.410526	0.575716
	H61	H	0.883980	0.593887	0.581157
	H62	H	0.115843	0.594052	0.390896
	H63	H	0.885834	0.405271	0.397120
	H64	H	0.406753	0.585878	0.107452
	H65	H	0.602267	0.583199	0.868443
	H66	H	0.593660	0.406218	0.106471
	H67	H	0.410345	0.413870	0.873779
	H68	H	0.598572	0.116952	0.395892
	H69	H	0.591270	0.883210	0.574897
	H70	H	0.411682	0.113338	0.576650
	H71	H	0.409532	0.884874	0.404850
	H72	H	0.911951	0.608890	0.068390
	H73	H	0.095928	0.378656	0.081494
	H74	H	0.095206	0.616516	0.896148
	H75	H	0.913603	0.383102	0.901091
	H76	H	0.091950	0.907859	0.606681
	H77	H	0.089201	0.089622	0.370905
	H78	H	0.908168	0.087303	0.606589
	H79	H	0.909604	0.908496	0.370620
	H80	H	0.613930	0.100249	0.905612
	H81	H	0.385802	0.085231	0.084417
	H82	H	0.615048	0.902827	0.082292
	H83	H	0.383241	0.896504	0.895624
	H84	H	0.611955	0.903189	0.071734
	H85	H	0.383649	0.095508	0.080799
	H86	H	0.609185	0.079518	0.899700
	H87	H	0.389231	0.906698	0.901827
	H88	H	0.908170	0.085393	0.606312
	H89	H	0.095330	0.088748	0.369821
	H90	H	0.092125	0.910295	0.606600
	H91	H	0.908085	0.908224	0.370358
	H92	H	0.089183	0.612642	0.899693
	H93	H	0.086114	0.382556	0.079333
	H94	H	0.899758	0.615062	0.076306
	H95	H	0.900736	0.379896	0.904525
	H96	H	0.404252	0.114865	0.575224
	H97	H	0.595103	0.881784	0.575176
	H98	H	0.586746	0.113174	0.395665
	H99	H	0.400758	0.879050	0.399011
	H100	H	0.590158	0.410762	0.105866
	H101	H	0.584992	0.576174	0.874938
	H102	H	0.411243	0.581277	0.103995
	H103	H	0.412685	0.402274	0.871132
	H104	H	0.112793	0.594978	0.403662
	H105	H	0.884381	0.592019	0.580569
	H106	H	0.116595	0.407562	0.589846
	H107	H	0.887017	0.404399	0.400283
	H108	H	0.913407	0.613305	0.084621
	H109	H	0.093491	0.382793	0.071432
	H110	H	0.095287	0.614247	0.903576
	H111	H	0.905415	0.377452	0.891518
	H112	H	0.090093	0.909017	0.605473
	H113	H	0.091484	0.084073	0.372099
	H114	H	0.909970	0.085879	0.606017
	H115	H	0.908688	0.909814	0.371121
	H116	H	0.618272	0.092813	0.885032
	H117	H	0.387274	0.088048	0.074080
	H118	H	0.611045	0.912748	0.077887
	H119	H	0.384908	0.908035	0.889574
	C120	C	0.378238	0.007218	0.609060
	C121	C	0.622083	0.989252	0.608166
	C122	C	0.622691	0.007045	0.366850
	C123	C	0.378059	0.989312	0.367640
	C124	C	0.620186	0.376598	-0.002367
	C125	C	0.621984	0.617064	0.979127
	C126	C	0.379612	0.617072	-0.002459
	C127	C	0.377631	0.375995	0.979737
	C128	C	0.007301	0.620330	0.366705
	C129	C	0.990251	0.621842	0.611379
	C130	C	0.008732	0.375342	0.611564
	C131	C	0.992154	0.375012	0.367308
	C132	C	0.878305	0.505339	0.108933
	C133	C	0.121956	0.488333	0.109905
	C134	C	0.121605	0.506726	0.868536
	C135	C	0.877411	0.487526	0.867575
	C136	C	0.120938	0.877996	0.497645
	C137	C	0.121588	0.118554	0.479828
	C138	C	0.879480	0.117986	0.497794
	C139	C	0.878738	0.878139	0.479379
	C140	C	0.507659	0.119560	0.866268
	C141	C	0.491052	0.120396	0.110477
	C142	C	0.507928	0.874871	0.109416
	C143	C	0.491542	0.874128	0.864827
	C144	C	0.381750	0.883304	0.663880
	C145	C	0.619055	0.112584	0.665173
	C146	C	0.621222	0.884100	0.309474
	C147	C	0.381369	0.112476	0.311334
	C148	C	0.678334	0.373714	0.874370
	C149	C	0.680171	0.619553	0.102179
	C150	C	0.320464	0.620142	0.875105
	C151	C	0.318896	0.372793	0.102376
	C152	C	0.887636	0.678036	0.365807
	C153	C	0.110869	0.679119	0.611351
	C154	C	0.889103	0.316557	0.612829
	C155	C	0.111918	0.317175	0.366501
	C156	C	0.887233	0.377694	0.667073
	C157	C	0.111272	0.619561	0.667993
	C158	C	0.886944	0.618259	0.308970
	C159	C	0.112226	0.375946	0.309119
	C160	C	0.380666	0.673098	0.872997
	C161	C	0.621356	0.675252	0.102671
	C162	C	0.617641	0.320635	0.872856
	C163	C	0.378471	0.318284	0.103592
	C164	C	0.681295	0.885416	0.363944
	C165	C	0.679892	0.111252	0.611582
	C166	C	0.319527	0.885792	0.612062
	C167	C	0.319956	0.110578	0.364386
	C168	C	0.880534	0.382171	0.166025
	C169	C	0.119714	0.611717	0.166779
	C170	C	0.117403	0.383160	0.812789
	C171	C	0.880992	0.611372	0.813034
	C172	C	0.177943	0.876384	0.374039
	C173	C	0.179692	0.120968	0.602862
	C174	C	0.821610	0.121320	0.374421
	C175	C	0.821118	0.876536	0.602884
	C176	C	0.387158	0.175979	0.866693
	C177	C	0.611083	0.178764	0.111170
	C178	C	0.388042	0.816373	0.109726
	C179	C	0.611460	0.816684	0.864159
	C180	C	0.387621	0.875645	0.167356
	C181	C	0.612176	0.119281	0.167000
	C182	C	0.386860	0.116332	0.810055
	C183	C	0.612525	0.876945	0.808227
	C184	C	0.881923	0.175066	0.373522
	C185	C	0.119722	0.174307	0.604558
	C186	C	0.118561	0.821690	0.372994
	C187	C	0.880293	0.821935	0.603963
	C188	C	0.179365	0.384922	0.865789
	C189	C	0.181249	0.609548	0.114282
	C190	C	0.819538	0.383773	0.112334
	C191	C	0.819808	0.609156	0.865071
	C192	C	0.401005	0.092810	0.584860
	C193	C	0.599470	0.904083	0.583397
	C194	C	0.599607	0.091993	0.391764
	C195	C	0.400520	0.903653	0.392022
	C196	C	0.597220	0.400793	0.083813
	C197	C	0.598409	0.592194	0.893163
	C198	C	0.403369	0.592296	0.083523
	C199	C	0.401085	0.400473	0.893543
	C200	C	0.091359	0.597485	0.390628
	C201	C	0.906243	0.599195	0.588354
	C202	C	0.092737	0.398406	0.588255
	C203	C	0.908537	0.398684	0.391581
	C204	C	0.901600	0.590318	0.083737
	C205	C	0.098629	0.403396	0.084723
	C206	C	0.099564	0.592346	0.892716
	C207	C	0.900086	0.402173	0.891766
	C208	C	0.098195	0.902132	0.583996
	C209	C	0.098727	0.094570	0.393438
	C210	C	0.902198	0.093195	0.583844
	C211	C	0.901896	0.901864	0.393004
	C212	C	0.592085	0.097214	0.889665
	C213	C	0.407324	0.096653	0.086768
	C214	C	0.591057	0.899147	0.084529
	C215	C	0.407704	0.896989	0.888615
	Zn216	Zn	0.500008	-0.002399	0.735649
	Zn217	Zn	0.500123	-0.002320	0.239977
	Zn218	Zn	0.749265	0.495985	-0.011898
	Zn219	Zn	0.250942	0.497698	-0.010738
	Zn220	Zn	-0.000683	0.751140	0.488692
	Zn221	Zn	0.000768	0.245536	0.490162
	Zn222	Zn	-0.001131	0.498030	0.740512
	Zn223	Zn	-0.000258	0.497154	0.236806
	Zn224	Zn	0.500006	0.743967	-0.012599
	Zn225	Zn	0.499286	0.249132	-0.011391
	Zn226	Zn	0.751174	-0.001528	0.488110
	Zn227	Zn	0.249424	-0.001542	0.488535
	N228	N	0.417604	0.959822	0.662116
	N229	N	0.583839	0.035797	0.663355
	N230	N	0.585517	0.960567	0.310996
	N231	N	0.416976	0.036021	0.313336
	N232	N	0.680188	0.407626	0.952931
	N233	N	0.680683	0.584263	0.024114
	N234	N	0.319887	0.585656	0.953566
	N235	N	0.318557	0.408146	0.024339
	N236	N	0.963442	0.679364	0.400770
	N237	N	0.034668	0.680646	0.577028
	N238	N	0.965575	0.315048	0.579091
	N239	N	0.036151	0.316322	0.401850
	N240	N	0.962560	0.413582	0.666557
	N241	N	0.035457	0.584603	0.668258
	N242	N	0.962476	0.583147	0.309308
	N243	N	0.036706	0.411235	0.309291
	N244	N	0.416711	0.671267	0.950211
	N245	N	0.586225	0.674215	0.025047
	N246	N	0.582388	0.321874	0.950547
	N247	N	0.414377	0.320182	0.026339
	N248	N	0.682439	0.962885	0.398756
	N249	N	0.681902	0.033699	0.576910
	N250	N	0.317138	0.963940	0.578609
	N251	N	0.317770	0.032747	0.398728
	N252	N	0.916430	0.458659	0.163930
	N253	N	0.083621	0.535274	0.164425
	N254	N	0.082313	0.460002	0.814186
	N255	N	0.916109	0.534722	0.814511
	N256	N	0.179591	0.910479	0.452611
	N257	N	0.181000	0.086856	0.524241
	N258	N	0.819966	0.086820	0.452698
	N259	N	0.819871	0.910516	0.524364
	N260	N	0.463348	0.177878	0.900992
	N261	N	0.534888	0.179737	0.076788
	N262	N	0.463826	0.815761	0.074537
	N263	N	0.535317	0.814734	0.898495
	N264	N	0.463113	0.911210	0.167440
	N265	N	0.536679	0.083592	0.166771
	N266	N	0.462968	0.082314	0.809398
	N267	N	0.537051	0.912234	0.808744
	N268	N	0.917211	0.173264	0.451226
	N269	N	0.084435	0.172916	0.526989
	N270	N	0.083695	0.822475	0.450848
	N271	N	0.915344	0.822813	0.526037
	N272	N	0.182202	0.462850	0.899640
	N273	N	0.182784	0.531857	0.079656
	N274	N	0.817925	0.461442	0.077613
	N275	N	0.817082	0.530851	0.898280
	O276	O	0.011496	0.029018	-0.009777
	H277	H	0.009244	0.026459	-0.027293
	H278	H	0.007940	0.034861	-0.017946
	O279	O	0.516337	0.508544	0.582062
	H280	H	0.522320	0.515759	0.576694
	H281	H	0.512892	0.498777	0.567929
	O282	O	0.336400	-0.361298	-0.695939
	H283	H	0.326404	-0.363999	-0.714162
	H284	H	0.328262	-0.380947	-0.676316
	O285	O	-0.166508	1.008270	-0.063986
	H286	H	-0.166570	1.007131	-0.063503
	H287	H	-0.172827	1.008396	-0.060257
	O288	O	0.449828	0.402824	0.376571
	H289	H	0.457331	0.408148	0.391675
	H290	H	0.449860	0.407595	0.374506
	O291	O	1.636436	0.555776	0.546640
	H292	H	1.619725	0.552399	0.540096
	H293	H	1.639535	0.551838	0.536158
	O294	O	1.100505	0.834789	0.940638
	H295	H	1.111243	0.848279	0.933789
	H296	H	1.091338	0.833607	0.941944
	O297	O	-0.122429	-0.096736	-0.000365
	H298	H	-0.136693	-0.120419	0.010459
	H299	H	-0.123430	-0.088513	0.009978
	O300	O	0.676957	0.611317	0.519954
	H301	H	0.671334	0.599249	0.518464
	H302	H	0.688912	0.632149	0.532966
	O303	O	-0.022181	1.064377	0.914871
	H304	H	-0.019237	1.058569	0.920684
	H305	H	-0.019950	1.074470	0.915118
	O306	O	0.598483	0.465928	0.397912
	H307	H	0.596915	0.465321	0.389611
	H308	H	0.597888	0.463958	0.401551
	O309	O	1.043004	-0.058881	-0.149820
	H310	H	1.044851	-0.064121	-0.157954
	H311	H	1.038841	-0.066517	-0.147161
	O312	O	-0.031501	0.109112	0.849669
	H313	H	-0.024591	0.111075	0.848167
	H314	H	-0.019675	0.117303	0.857919
	O315	O	0.418725	0.362169	0.621203
	H316	H	0.424161	0.365096	0.622825
	H317	H	0.433963	0.363485	0.632338
	O318	O	0.849690	1.029658	0.905923
	H319	H	0.849305	1.015336	0.909567
	H320	H	0.842476	1.032963	0.907354
	O321	O	0.483568	0.388552	0.490426
	H322	H	0.483974	0.390863	0.477045
	H323	H	0.499575	0.407657	0.483254
	O324	O	0.357666	0.545262	0.401087
	H325	H	0.352064	0.540965	0.400654
	H326	H	0.345507	0.530697	0.422841
	O327	O	-0.060627	0.890002	1.083260
	H328	H	-0.052272	0.883993	1.081637
	H329	H	-0.057835	0.893886	1.090182
	O330	O	0.118004	0.028212	-0.080062
	H331	H	0.131578	0.030645	-0.092474
	H332	H	0.117146	0.025747	-0.068239
	O333	O	-0.675381	1.627818	1.386326
	H334	H	-0.684011	1.618461	1.365401
	H335	H	-0.697608	1.639852	1.385000
	O336	O	1.064360	1.135512	1.041437
	H337	H	1.048072	1.139719	1.047729
	H338	H	1.062588	1.129037	1.044430
	O339	O	0.574137	0.504805	0.408892
	H340	H	0.566813	0.523232	0.408702
	H341	H	0.563362	0.499087	0.397799
	O342	O	0.812788	0.067258	0.000111
	H343	H	0.813677	0.056487	-0.001996
	H344	H	0.810672	0.075030	-0.011109
	O345	O	0.459954	0.409451	0.442608
	H346	H	0.450949	0.392785	0.440809
	H347	H	0.467238	0.405992	0.450370
	O348	O	1.002068	1.034623	0.944511
	H349	H	0.990163	1.041335	0.935756
	H350	H	1.008370	1.024708	0.948046
	O351	O	1.127591	1.108585	0.052910
	H352	H	1.124788	1.120690	0.060720
	H353	H	1.125906	1.104185	0.057343
	O354	O	1.060781	1.011101	1.090987
	H355	H	1.062948	1.006791	1.083891
	H356	H	1.056578	1.010106	1.091306
	O357	O	0.597909	0.490097	0.580644
	H358	H	0.606188	0.493033	0.585154
	H359	H	0.607202	0.499697	0.572576
	O360	O	-0.528799	0.673607	0.410609
	H361	H	-0.538588	0.680449	0.416852
	H362	H	-0.525459	0.663878	0.413373
	O363	O	0.606376	0.519872	0.551328
	H364	H	0.606943	0.520157	0.564150
	H365	H	0.610630	0.524481	0.559849
	O366	O	0.479800	0.345642	0.431677
	H367	H	0.469535	0.347265	0.425320
	H368	H	0.485606	0.342165	0.435085
	O369	O	0.347696	0.406358	0.613866
	H370	H	0.356879	0.401815	0.614243
	H371	H	0.343273	0.395004	0.631591
	O372	O	0.562031	0.606259	0.542336
	H373	H	0.575771	0.614879	0.548781
	H374	H	0.549289	0.602651	0.543802
	O375	O	0.478966	0.578380	0.586134
	H376	H	0.485386	0.581924	0.593622
	H377	H	0.472229	0.591079	0.580256
	O378	O	0.501085	0.416776	0.594918
	H379	H	0.516451	0.412605	0.590927
	H380	H	0.509212	0.435584	0.594187
	O381	O	0.446656	0.431949	0.412796
	H382	H	0.436969	0.433472	0.418477
	H383	H	0.447726	0.435061	0.399426
	O384	O	0.006825	0.929659	0.159183
	H385	H	0.006306	0.932759	0.156909
	H386	H	0.014403	0.950828	0.154348
	O387	O	1.104793	0.012591	0.870416
	H388	H	1.107893	0.025295	0.881021
	H389	H	1.096453	0.017063	0.874040
	O390	O	-0.047152	1.064597	0.145235
	H391	H	-0.056406	1.071852	0.151568
	H392	H	-0.055811	1.068691	0.150062
	O393	O	0.831012	0.836953	0.104529
	H394	H	0.826466	0.833059	0.127299
	H395	H	0.837032	0.820347	0.101909
	O396	O	0.454281	0.655968	0.432980
	H397	H	0.453805	0.667902	0.427650
	H398	H	0.453994	0.657302	0.434721
	O399	O	0.631049	0.439577	1.443918
	H400	H	0.648662	0.439508	1.447102
	H401	H	0.620617	0.430478	1.431333
	O402	O	1.144057	0.851052	1.015430
	H403	H	1.164882	0.851039	1.010512
	H404	H	1.147657	0.864918	0.993325
	O405	O	0.033295	-0.040574	0.949237
	H406	H	0.026180	-0.038834	0.939458
	H407	H	0.033475	-0.042430	0.959169
