data_Molecule from HDF5

_cell_length_a		16.316398
_cell_length_b		16.507496
_cell_length_c		16.421911
_cell_angle_alpha	89.879914
_cell_angle_beta	89.959312
_cell_angle_gamma	89.853095
_symmetry_space_group_name_H-M	'P 1'
_symmetry_Int_Tables_number		1

loop_
	_symmetry_equiv_pos_as_xyz
	x,y,z

loop_
	_atom_site_label
	_atom_site_type_symbol
	_atom_site_fract_x
	_atom_site_fract_y
	_atom_site_fract_z
	H0	H	0.392784	0.845154	0.729753
	H1	H	0.607351	0.157941	0.725899
	H2	H	0.612068	0.844616	0.282770
	H3	H	0.401423	0.160037	0.284482
	H4	H	0.726060	0.395838	0.847110
	H5	H	0.726304	0.604855	0.162846
	H6	H	0.282367	0.606132	0.845709
	H7	H	0.287057	0.397990	0.163992
	H8	H	0.845324	0.725510	0.396591
	H9	H	0.160729	0.726829	0.614733
	H10	H	0.845926	0.279784	0.612036
	H11	H	0.162276	0.280265	0.399207
	H12	H	0.846197	0.396209	0.728653
	H13	H	0.162896	0.608521	0.727712
	H14	H	0.845884	0.608859	0.282249
	H15	H	0.164460	0.399775	0.287583
	H16	H	0.393668	0.726601	0.847606
	H17	H	0.614753	0.725177	0.160317
	H18	H	0.608944	0.279962	0.846264
	H19	H	0.399220	0.278596	0.161722
	H20	H	0.726878	0.844031	0.399441
	H21	H	0.721847	0.159016	0.607700
	H22	H	0.279058	0.845295	0.611287
	H23	H	0.285059	0.161831	0.401285
	H24	H	0.903055	0.343807	0.226245
	H25	H	0.109058	0.659300	0.225104
	H26	H	0.113288	0.345184	0.782323
	H27	H	0.891951	0.655858	0.778336
	H28	H	0.221163	0.901146	0.345616
	H29	H	0.228658	0.110492	0.662017
	H30	H	0.785974	0.104745	0.344720
	H31	H	0.783810	0.900046	0.664241
	H32	H	0.344755	0.224824	0.896199
	H33	H	0.663930	0.220022	0.107211
	H34	H	0.347861	0.776489	0.112619
	H35	H	0.663026	0.776957	0.894724
	H36	H	0.346696	0.894656	0.226872
	H37	H	0.665127	0.103345	0.222466
	H38	H	0.344111	0.107250	0.782347
	H39	H	0.661949	0.893376	0.780498
	H40	H	0.898034	0.224913	0.347042
	H41	H	0.112071	0.226550	0.662650
	H42	H	0.108856	0.779982	0.348467
	H43	H	0.890575	0.776203	0.661295
	H44	H	0.224958	0.342224	0.901552
	H45	H	0.225999	0.659208	0.108825
	H46	H	0.786335	0.342267	0.110416
	H47	H	0.776800	0.655600	0.894552
	H48	H	0.420236	0.114095	0.597691
	H49	H	0.589357	0.891717	0.585691
	H50	H	0.591952	0.117297	0.405768
	H51	H	0.412733	0.887395	0.410966
	H52	H	0.599090	0.413740	0.119452
	H53	H	0.593501	0.593379	0.888711
	H54	H	0.417773	0.594108	0.118256
	H55	H	0.421410	0.403372	0.888829
	H56	H	0.121409	0.598829	0.414752
	H57	H	0.893431	0.585537	0.588913
	H58	H	0.118740	0.411532	0.592318
	H59	H	0.889257	0.413161	0.415697
	H60	H	0.116880	0.414932	0.591681
	H61	H	0.891021	0.586974	0.594873
	H62	H	0.114547	0.591052	0.425985
	H63	H	0.889360	0.413346	0.416513
	H64	H	0.412839	0.586036	0.116968
	H65	H	0.594893	0.579022	0.894009
	H66	H	0.587758	0.408695	0.116794
	H67	H	0.405987	0.409421	0.886857
	H68	H	0.589105	0.112445	0.417232
	H69	H	0.599394	0.885639	0.593052
	H70	H	0.418838	0.110277	0.588463
	H71	H	0.417675	0.890489	0.416646
	H72	H	0.917108	0.614171	0.094910
	H73	H	0.091040	0.388722	0.099648
	H74	H	0.089826	0.612268	0.918219
	H75	H	0.917081	0.388651	0.916232
	H76	H	0.085784	0.918456	0.615038
	H77	H	0.086551	0.093253	0.394275
	H78	H	0.911317	0.093883	0.620109
	H79	H	0.911435	0.904295	0.387102
	H80	H	0.615882	0.086417	0.914084
	H81	H	0.390221	0.088684	0.095108
	H82	H	0.618875	0.909042	0.089279
	H83	H	0.392442	0.918759	0.914180
	H84	H	0.617349	0.915255	0.091117
	H85	H	0.389910	0.091199	0.093212
	H86	H	0.618137	0.090939	0.912544
	H87	H	0.389143	0.908011	0.916867
	H88	H	0.914600	0.089855	0.617786
	H89	H	0.093587	0.097245	0.389749
	H90	H	0.087751	0.908972	0.619670
	H91	H	0.910825	0.921595	0.392708
	H92	H	0.093680	0.613542	0.919109
	H93	H	0.096984	0.388630	0.092400
	H94	H	0.914670	0.614236	0.091938
	H95	H	0.920380	0.389474	0.917275
	H96	H	0.411168	0.114968	0.592386
	H97	H	0.586884	0.887547	0.598665
	H98	H	0.600688	0.116998	0.415062
	H99	H	0.410163	0.888323	0.418621
	H100	H	0.596359	0.401713	0.122320
	H101	H	0.581413	0.586525	0.895910
	H102	H	0.422024	0.586080	0.114038
	H103	H	0.417285	0.419585	0.893413
	H104	H	0.117438	0.584776	0.412094
	H105	H	0.891110	0.591163	0.590141
	H106	H	0.118553	0.414140	0.594949
	H107	H	0.889147	0.414502	0.415749
	H108	H	0.913854	0.615412	0.095309
	H109	H	0.099158	0.385027	0.100463
	H110	H	0.091884	0.614355	0.915091
	H111	H	0.917395	0.390008	0.919629
	H112	H	0.094953	0.916375	0.619778
	H113	H	0.094701	0.088220	0.392855
	H114	H	0.916780	0.094656	0.618682
	H115	H	0.926089	0.911879	0.394877
	H116	H	0.617008	0.090106	0.917543
	H117	H	0.390178	0.088186	0.091554
	H118	H	0.620170	0.911302	0.095315
	H119	H	0.393994	0.914506	0.924972
	C120	C	0.381699	0.010001	0.626603
	C121	C	0.624086	0.992290	0.625404
	C122	C	0.626684	0.011014	0.381950
	C123	C	0.382086	0.993385	0.382860
	C124	C	0.626118	0.377823	0.013969
	C125	C	0.624919	0.620462	0.996155
	C126	C	0.383261	0.622279	0.012478
	C127	C	0.383343	0.379187	0.995076
	C128	C	0.012491	0.623902	0.384126
	C129	C	0.995598	0.622595	0.626162
	C130	C	0.013054	0.380837	0.626097
	C131	C	0.995209	0.381951	0.384593
	C132	C	0.883694	0.509899	0.126676
	C133	C	0.127492	0.492147	0.128027
	C134	C	0.125454	0.509738	0.884543
	C135	C	0.882761	0.492009	0.883171
	C136	C	0.123014	0.882170	0.513975
	C137	C	0.125108	0.125354	0.496480
	C138	C	0.882201	0.124289	0.513770
	C139	C	0.882289	0.880437	0.496248
	C140	C	0.511861	0.122319	0.882309
	C141	C	0.496202	0.120785	0.124272
	C142	C	0.514031	0.879022	0.125543
	C143	C	0.495936	0.879232	0.883450
	C144	C	0.376078	0.892222	0.688598
	C145	C	0.626064	0.110749	0.685753
	C146	C	0.629953	0.891851	0.322551
	C147	C	0.382153	0.112548	0.323581
	C148	C	0.685611	0.377117	0.894217
	C149	C	0.686463	0.623543	0.114859
	C150	C	0.322050	0.624967	0.893535
	C151	C	0.325511	0.378443	0.115706
	C152	C	0.892969	0.684534	0.380110
	C153	C	0.113935	0.685339	0.631178
	C154	C	0.893356	0.320431	0.629828
	C155	C	0.115175	0.321415	0.382042
	C156	C	0.893595	0.378049	0.687735
	C157	C	0.114617	0.626762	0.687996
	C158	C	0.893237	0.626349	0.322880
	C159	C	0.116477	0.380698	0.326497
	C160	C	0.377666	0.684989	0.894494
	C161	C	0.630715	0.683257	0.113789
	C162	C	0.627730	0.319236	0.894121
	C163	C	0.381346	0.319225	0.114641
	C164	C	0.687238	0.891857	0.380596
	C165	C	0.683022	0.111347	0.626868
	C166	C	0.319043	0.892595	0.629875
	C167	C	0.324296	0.113575	0.381949
	C168	C	0.883193	0.391047	0.186615
	C169	C	0.128742	0.611639	0.186434
	C170	C	0.129991	0.391833	0.823244
	C171	C	0.876013	0.608985	0.819878
	C172	C	0.182321	0.881130	0.393874
	C173	C	0.187265	0.127996	0.615028
	C174	C	0.824260	0.124740	0.393154
	C175	C	0.822240	0.879964	0.615946
	C176	C	0.392576	0.183961	0.878769
	C177	C	0.616257	0.180127	0.125766
	C178	C	0.395094	0.817558	0.129756
	C179	C	0.615059	0.817472	0.878097
	C180	C	0.394594	0.876188	0.186844
	C181	C	0.616767	0.122061	0.183310
	C182	C	0.391915	0.125163	0.822065
	C183	C	0.614536	0.875454	0.820837
	C184	C	0.880049	0.184540	0.394357
	C185	C	0.129144	0.185834	0.615332
	C186	C	0.126480	0.821144	0.395080
	C187	C	0.875816	0.818390	0.614529
	C188	C	0.185865	0.390459	0.882604
	C189	C	0.186699	0.611427	0.128293
	C190	C	0.825357	0.390237	0.128842
	C191	C	0.818045	0.608574	0.877825
	C192	C	0.408949	0.091888	0.600399
	C193	C	0.598908	0.909720	0.599930
	C194	C	0.601405	0.093773	0.405967
	C195	C	0.406434	0.910338	0.408059
	C196	C	0.601556	0.401467	0.097726
	C197	C	0.597628	0.594119	0.914421
	C198	C	0.410030	0.596433	0.094804
	C199	C	0.407895	0.403643	0.911480
	C200	C	0.096085	0.598791	0.410231
	C201	C	0.913339	0.595626	0.599075
	C202	C	0.096211	0.406269	0.600392
	C203	C	0.911203	0.406632	0.409004
	C204	C	0.908006	0.592953	0.101300
	C205	C	0.102945	0.409165	0.104281
	C206	C	0.099192	0.591853	0.910129
	C207	C	0.910433	0.410525	0.910188
	C208	C	0.097044	0.907383	0.596631
	C209	C	0.099071	0.100178	0.413923
	C210	C	0.906972	0.099829	0.597047
	C211	C	0.908471	0.905490	0.413199
	C212	C	0.595251	0.096500	0.907580
	C213	C	0.412062	0.096270	0.100087
	C214	C	0.597078	0.904518	0.099372
	C215	C	0.413335	0.905738	0.910859
	Zn216	Zn	0.502923	0.000239	0.754924
	Zn217	Zn	0.504790	0.000941	0.254017
	Zn218	Zn	0.754386	0.499416	0.005634
	Zn219	Zn	0.255005	0.500436	0.004736
	Zn220	Zn	0.002908	0.752039	0.505921
	Zn221	Zn	0.003520	0.253376	0.504888
	Zn222	Zn	0.004867	0.501117	0.755082
	Zn223	Zn	0.004660	0.501879	0.256036
	Zn224	Zn	0.505072	0.750587	0.003588
	Zn225	Zn	0.503487	0.250339	0.004212
	Zn226	Zn	0.754136	0.002328	0.504368
	Zn227	Zn	0.253062	0.002859	0.504432
	N228	N	0.414072	0.966253	0.686601
	N229	N	0.590270	0.035510	0.685240
	N230	N	0.592821	0.966595	0.323305
	N231	N	0.417138	0.036533	0.323820
	N232	N	0.684701	0.412597	0.969740
	N233	N	0.683205	0.585430	0.040756
	N234	N	0.325346	0.586700	0.967770
	N235	N	0.326613	0.415061	0.040329
	N236	N	0.968326	0.682981	0.417711
	N237	N	0.038692	0.683120	0.593714
	N238	N	0.968586	0.322021	0.592497
	N239	N	0.038827	0.322265	0.417683
	N240	N	0.969236	0.414549	0.685636
	N241	N	0.039968	0.588519	0.685043
	N242	N	0.968691	0.589305	0.325271
	N243	N	0.041038	0.417670	0.327869
	N244	N	0.414799	0.683663	0.969625
	N245	N	0.593218	0.681545	0.038878
	N246	N	0.591699	0.319402	0.969814
	N247	N	0.416330	0.319493	0.038651
	N248	N	0.685454	0.966920	0.416690
	N249	N	0.681901	0.036624	0.590264
	N250	N	0.322371	0.967037	0.592108
	N251	N	0.324142	0.038479	0.417946
	N252	N	0.918419	0.466468	0.185498
	N253	N	0.092930	0.536465	0.186577
	N254	N	0.093431	0.466941	0.824149
	N255	N	0.915414	0.535420	0.822892
	N256	N	0.180703	0.918033	0.468779
	N257	N	0.184889	0.091019	0.540198
	N258	N	0.825380	0.088136	0.468371
	N259	N	0.826140	0.917863	0.541368
	N260	N	0.468249	0.182346	0.915390
	N261	N	0.540208	0.179578	0.089879
	N262	N	0.470483	0.819074	0.092447
	N263	N	0.540100	0.819812	0.916330
	N264	N	0.469588	0.913565	0.184396
	N265	N	0.540805	0.085970	0.182401
	N266	N	0.467123	0.087500	0.824229
	N267	N	0.539216	0.912771	0.823584
	N268	N	0.915107	0.184517	0.470420
	N269	N	0.091483	0.184241	0.540683
	N270	N	0.090623	0.821498	0.470882
	N271	N	0.912235	0.818531	0.539082
	N272	N	0.183305	0.464832	0.920111
	N273	N	0.186374	0.536153	0.092991
	N274	N	0.825543	0.465266	0.092226
	N275	N	0.822265	0.534818	0.916709
	O276	O	0.373878	0.606022	0.582073
	H277	H	0.360427	0.600276	0.575316
	H278	H	0.382634	0.607532	0.577595
	O279	O	1.211409	-0.018408	0.794010
	H280	H	1.189971	-0.001982	0.774715
	H281	H	1.214627	-0.006415	0.763568
	O282	O	0.533719	0.490426	0.656211
	H283	H	0.521565	0.493935	0.654675
	H284	H	0.542047	0.514420	0.645278
	O285	O	0.698312	0.409141	0.332037
	H286	H	0.695928	0.433990	0.324836
	H287	H	0.691999	0.405829	0.321338
	O288	O	0.298362	0.525509	0.292968
	H289	H	0.296683	0.547083	0.287158
	H290	H	0.279816	0.527253	0.284715
	O291	O	0.684595	0.675620	0.685687
	H292	H	0.663847	0.655238	0.693337
	H293	H	0.675218	0.663998	0.680052
	O294	O	0.051161	-0.210430	1.045736
	H295	H	0.061782	-0.213330	1.060358
	H296	H	0.070470	-0.205464	1.059597
	O297	O	0.371739	0.382554	0.403201
	H298	H	0.373079	0.373619	0.409160
	H299	H	0.381330	0.391574	0.406966
	O300	O	0.566021	0.714381	0.439059
	H301	H	0.578503	0.722771	0.433512
	H302	H	0.558744	0.707095	0.415721
	O303	O	0.322030	0.414386	0.475000
	H304	H	0.317330	0.410873	0.470536
	H305	H	0.320358	0.396952	0.469974
	O306	O	0.485283	0.714998	0.291854
	H307	H	0.478738	0.739347	0.269177
	H308	H	0.464184	0.700926	0.286214
	O309	O	0.916141	0.789854	-0.076235
	H310	H	0.936904	0.792586	-0.080022
	H311	H	0.949414	0.784398	-0.088286
	O312	O	-0.016834	1.216281	0.790380
	H313	H	-0.041986	1.234603	0.772719
	H314	H	-0.046816	1.219643	0.782167
	O315	O	0.128791	0.029085	0.957110
	H316	H	0.123962	0.048483	0.959055
	H317	H	0.135769	0.014081	0.921460
	O318	O	1.009471	0.194341	0.076285
	H319	H	1.031626	0.197694	0.045480
	H320	H	1.006151	0.191442	0.075309
	O321	O	-0.204258	0.213601	-0.024761
	H322	H	-0.236696	0.236857	-0.026191
	H323	H	-0.198160	0.205375	-0.047521
	O324	O	0.629687	0.302655	0.686390
	H325	H	0.625850	0.334861	0.681584
	H326	H	0.619156	0.292447	0.666867
	O327	O	0.700992	0.508205	0.706089
	H328	H	0.713113	0.497733	0.704756
	H329	H	0.690225	0.508021	0.711175
	O330	O	0.216247	0.791668	-0.014841
	H331	H	0.224694	0.816540	0.008122
	H332	H	0.243229	0.775539	-0.018727
	O333	O	0.516750	0.501126	0.334469
	H334	H	0.514659	0.503984	0.356135
	H335	H	0.504865	0.510388	0.342426
	O336	O	0.323633	0.320480	-0.317415
	H337	H	0.350825	0.312397	-0.323882
	H338	H	0.338576	0.345723	-0.305945
	O339	O	0.184196	0.955704	1.061599
	H340	H	0.193292	0.976412	1.091165
	H341	H	0.175131	0.978756	1.038670
	O342	O	0.040857	1.006773	1.203429
	H343	H	0.040641	1.010638	1.202290
	H344	H	0.045502	1.023214	1.202340
	O345	O	1.111770	1.105448	-0.054206
	H346	H	1.109075	1.093855	-0.070706
	H347	H	1.101624	1.101473	-0.072405
	O348	O	0.513930	0.307786	0.329282
	H349	H	0.497853	0.317827	0.342289
	H350	H	0.512118	0.312133	0.315733
	O351	O	0.189470	1.196451	1.197023
	H352	H	0.179723	1.209939	1.194690
	H353	H	0.185978	1.203628	1.169695
	O354	O	0.070401	1.060667	-0.214918
	H355	H	0.040559	1.052259	-0.212716
	H356	H	0.042308	1.080797	-0.220187
	O357	O	-0.028343	-0.053852	0.968581
	H358	H	-0.027369	-0.057568	0.973818
	H359	H	-0.014280	-0.065538	0.976432
	O360	O	0.524410	0.710434	0.719172
	H361	H	0.534410	0.737958	0.741372
	H362	H	0.500506	0.722867	0.692156
	O363	O	-0.686578	0.694364	0.309980
	H364	H	-0.687698	0.683236	0.334184
	H365	H	-0.699110	0.719459	0.295357
	O366	O	-0.209051	0.793077	0.027678
	H367	H	-0.196928	0.778181	0.009173
	H368	H	-0.209714	0.766713	0.013229
	O369	O	0.680156	0.466852	0.558977
	H370	H	0.681044	0.473611	0.553625
	H371	H	0.671020	0.441653	0.547534
	O372	O	0.916161	-0.036776	0.796231
	H373	H	0.911139	-0.054024	0.817254
	H374	H	0.915375	-0.063529	0.792956
	O375	O	0.504849	0.334663	0.704172
	H376	H	0.509754	0.345535	0.702577
	H377	H	0.515132	0.325750	0.696108
	O378	O	0.823908	0.817172	1.188411
	H379	H	0.821819	0.836020	1.190697
	H380	H	0.821996	0.807220	1.145833
	O381	O	0.617312	0.383000	0.300445
	H382	H	0.609033	0.403352	0.294799
	H383	H	0.624101	0.379047	0.280441
	O384	O	0.802833	-0.020429	0.213240
	H385	H	0.798346	-0.027557	0.223252
	H386	H	0.798743	-0.017384	0.221364
	O387	O	-0.185695	0.193839	0.808137
	H388	H	-0.216637	0.215266	0.802003
	H389	H	-0.194858	0.138660	0.801517
	O390	O	0.157598	-0.132853	0.179967
	H391	H	0.137691	-0.122452	0.180763
	H392	H	0.156920	-0.115867	0.155441
	O393	O	1.177900	0.819704	0.824334
	H394	H	1.190352	0.872495	0.815631
	H395	H	1.196535	0.805704	0.862537
	O396	O	1.044136	0.161465	0.075699
	H397	H	1.033437	0.153036	0.070395
	H398	H	1.034907	0.154751	0.069421
	O399	O	0.289949	0.717065	0.474378
	H400	H	0.282025	0.726879	0.480406
	H401	H	0.276114	0.710883	0.478270
	O402	O	1.220680	1.034841	1.221912
	H403	H	1.208869	1.080400	1.213071
	H404	H	1.257994	1.034439	1.252777
	O405	O	0.305531	1.302252	0.467657
	H406	H	0.297564	1.295204	0.478151
	H407	H	0.308767	1.302452	0.488884
	O408	O	1.993864	-0.193237	-0.794025
	H409	H	1.991645	-0.192328	-0.775272
	H410	H	1.972174	-0.182755	-0.795340
	O411	O	1.453900	1.699375	0.562217
	H412	H	1.445263	1.694621	0.547347
	H413	H	1.463972	1.694280	0.542100
	O414	O	0.718836	0.288517	0.483290
	H415	H	0.710148	0.298430	0.438391
	H416	H	0.752026	0.260343	0.472590
	O417	O	-0.116035	0.117393	0.195779
	H418	H	-0.103269	0.121404	0.185166
	H419	H	-0.123295	0.111833	0.177956
	O420	O	0.540657	0.297308	0.531859
	H421	H	0.546225	0.296492	0.524680
	H422	H	0.548916	0.303574	0.516347
	O423	O	-0.181468	0.003304	1.004405
	H424	H	-0.172413	-0.020483	1.020978
	H425	H	-0.175371	0.003823	1.012923
	O426	O	0.662627	0.538431	0.481690
	H427	H	0.669023	0.570202	0.484672
	H428	H	0.658886	0.522429	0.498958
	O429	O	0.519716	0.519904	0.426373
	H430	H	0.525551	0.518603	0.409114
	H431	H	0.539783	0.519910	0.422084
	O432	O	0.658766	0.505941	0.315670
	H433	H	0.672970	0.518169	0.326440
	H434	H	0.657645	0.502549	0.318128
	O435	O	0.211976	0.207788	1.016453
	H436	H	0.224436	0.223433	1.011664
	H437	H	0.199247	0.205862	0.998803
	O438	O	-0.639531	-0.461943	-0.319980
	H439	H	-0.630303	-0.455682	-0.317369
	H440	H	-0.632933	-0.471115	-0.334828
	O441	O	0.796407	0.024589	-0.149678
	H442	H	0.789584	0.011702	-0.138363
	H443	H	0.799525	0.003993	-0.146251
	O444	O	0.020138	0.781426	0.783139
	H445	H	0.028055	0.742969	0.744882
	H446	H	0.072162	0.794126	0.800382
	O447	O	0.869538	0.106047	1.055330
	H448	H	0.859491	0.123165	1.055545
	H449	H	0.876336	0.092830	1.029987
	O450	O	0.299440	0.507191	0.649047
	H451	H	0.290089	0.506954	0.638995
	H452	H	0.302012	0.509842	0.671893
	O453	O	0.713631	0.714732	0.528012
	H454	H	0.736040	0.737422	0.537910
	H455	H	0.705406	0.719030	0.543662
