data_Molecule from HDF5

_cell_length_a		16.379151
_cell_length_b		16.170603
_cell_length_c		16.144584
_cell_angle_alpha	89.902215
_cell_angle_beta	89.998386
_cell_angle_gamma	90.284858
_symmetry_space_group_name_H-M	'P 1'
_symmetry_Int_Tables_number		1

loop_
	_symmetry_equiv_pos_as_xyz
	x,y,z

loop_
	_atom_site_label
	_atom_site_type_symbol
	_atom_site_fract_x
	_atom_site_fract_y
	_atom_site_fract_z
	H0	H	0.407837	0.832852	0.716350
	H1	H	0.602426	0.164240	0.715531
	H2	H	0.601765	0.833327	0.292339
	H3	H	0.411233	0.164646	0.291915
	H4	H	0.721085	0.398888	0.840642
	H5	H	0.721821	0.598727	0.167854
	H6	H	0.291168	0.600502	0.840120
	H7	H	0.290278	0.397532	0.167679
	H8	H	0.843535	0.713155	0.404023
	H9	H	0.169046	0.715006	0.601165
	H10	H	0.844037	0.281941	0.602857
	H11	H	0.169728	0.285832	0.404842
	H12	H	0.842853	0.398540	0.718692
	H13	H	0.169519	0.597923	0.717973
	H14	H	0.842194	0.595008	0.290561
	H15	H	0.168914	0.402071	0.288056
	H16	H	0.411671	0.709981	0.839012
	H17	H	0.603238	0.710078	0.169673
	H18	H	0.602858	0.286929	0.839185
	H19	H	0.408589	0.285222	0.170154
	H20	H	0.719695	0.834524	0.405042
	H21	H	0.723835	0.161417	0.607555
	H22	H	0.288563	0.834290	0.604519
	H23	H	0.290781	0.162912	0.402178
	H24	H	0.908338	0.334405	0.216288
	H25	H	0.102676	0.665373	0.213798
	H26	H	0.102221	0.332985	0.791395
	H27	H	0.911774	0.663801	0.791521
	H28	H	0.220473	0.898604	0.340080
	H29	H	0.222413	0.100395	0.668002
	H30	H	0.790701	0.099471	0.340564
	H31	H	0.790686	0.897792	0.668723
	H32	H	0.343743	0.213872	0.906371
	H33	H	0.669058	0.213848	0.103252
	H34	H	0.343790	0.781936	0.103442
	H35	H	0.670194	0.784575	0.905028
	H36	H	0.342644	0.899858	0.217661
	H37	H	0.669916	0.096526	0.218043
	H38	H	0.342802	0.096637	0.789828
	H39	H	0.668745	0.901163	0.788390
	H40	H	0.911508	0.209293	0.337856
	H41	H	0.103978	0.212190	0.669640
	H42	H	0.100436	0.790011	0.337848
	H43	H	0.907909	0.784400	0.668750
	H44	H	0.220804	0.334682	0.903306
	H45	H	0.223324	0.662434	0.104063
	H46	H	0.790849	0.335171	0.103706
	H47	H	0.791498	0.662636	0.901505
	H48	H	0.414557	0.114596	0.592906
	H49	H	0.598674	0.878063	0.604795
	H50	H	0.601742	0.117196	0.413687
	H51	H	0.411171	0.880439	0.408215
	H52	H	0.598482	0.400969	0.123614
	H53	H	0.608453	0.579302	0.887229
	H54	H	0.411210	0.592610	0.124201
	H55	H	0.404181	0.416500	0.886088
	H56	H	0.123756	0.592058	0.401145
	H57	H	0.891300	0.592368	0.594413
	H58	H	0.124463	0.404775	0.605112
	H59	H	0.888660	0.391848	0.416854
	H60	H	0.121969	0.400446	0.591091
	H61	H	0.890858	0.588799	0.597817
	H62	H	0.125059	0.602841	0.409962
	H63	H	0.894904	0.416236	0.416275
	H64	H	0.411444	0.587106	0.122116
	H65	H	0.586281	0.590729	0.889439
	H66	H	0.605179	0.408239	0.124044
	H67	H	0.425905	0.408178	0.890923
	H68	H	0.600564	0.117361	0.410531
	H69	H	0.591309	0.884106	0.592638
	H70	H	0.410106	0.117140	0.594605
	H71	H	0.412751	0.881928	0.414480
	H72	H	0.916043	0.616645	0.095681
	H73	H	0.098396	0.382618	0.091999
	H74	H	0.109285	0.616352	0.918233
	H75	H	0.915508	0.381666	0.910676
	H76	H	0.094831	0.901747	0.622642
	H77	H	0.101971	0.087695	0.387198
	H78	H	0.911233	0.089163	0.622159
	H79	H	0.916356	0.901446	0.385426
	H80	H	0.617831	0.082126	0.915181
	H81	H	0.384161	0.098246	0.110944
	H82	H	0.617010	0.913057	0.086357
	H83	H	0.393241	0.911788	0.910686
	H84	H	0.624437	0.912026	0.111997
	H85	H	0.391426	0.100524	0.084610
	H86	H	0.626056	0.093460	0.898098
	H87	H	0.387231	0.899637	0.904287
	H88	H	0.914623	0.088659	0.621662
	H89	H	0.095063	0.092592	0.386962
	H90	H	0.104707	0.907265	0.623714
	H91	H	0.905207	0.905030	0.383047
	H92	H	0.102527	0.620335	0.900496
	H93	H	0.102499	0.380098	0.096662
	H94	H	0.910278	0.616889	0.092395
	H95	H	0.910940	0.382059	0.916372
	H96	H	0.413773	0.115663	0.598077
	H97	H	0.606440	0.880737	0.591343
	H98	H	0.598796	0.116102	0.412739
	H99	H	0.407072	0.880309	0.412653
	H100	H	0.596218	0.409872	0.120477
	H101	H	0.606240	0.604278	0.880290
	H102	H	0.416164	0.590667	0.121375
	H103	H	0.408978	0.393723	0.881539
	H104	H	0.119666	0.590054	0.414108
	H105	H	0.889565	0.593142	0.598959
	H106	H	0.119609	0.413986	0.595329
	H107	H	0.885769	0.404748	0.395205
	H108	H	0.910804	0.619382	0.099149
	H109	H	0.096307	0.381458	0.098368
	H110	H	0.091158	0.612274	0.913801
	H111	H	0.908528	0.378769	0.909885
	H112	H	0.095324	0.912581	0.619345
	H113	H	0.103112	0.095878	0.383957
	H114	H	0.913965	0.091611	0.622284
	H115	H	0.912851	0.912365	0.389171
	H116	H	0.623311	0.102712	0.916975
	H117	H	0.394710	0.076718	0.097304
	H118	H	0.626558	0.890446	0.096871
	H119	H	0.391977	0.899448	0.919006
	C120	C	0.383756	0.006872	0.624744
	C121	C	0.627481	0.989903	0.625512
	C122	C	0.627441	0.007461	0.383809
	C123	C	0.383668	0.990289	0.382699
	C124	C	0.627894	0.377829	0.013517
	C125	C	0.628655	0.619920	0.994785
	C126	C	0.385538	0.619097	0.013123
	C127	C	0.384594	0.377390	0.995636
	C128	C	0.014603	0.621716	0.380518
	C129	C	0.998199	0.620843	0.625308
	C130	C	0.014496	0.376771	0.626020
	C131	C	0.998011	0.376867	0.381255
	C132	C	0.884488	0.508378	0.124438
	C133	C	0.127373	0.490653	0.124191
	C134	C	0.128529	0.507496	0.882266
	C135	C	0.885055	0.490111	0.883355
	C136	C	0.126390	0.878597	0.512698
	C137	C	0.128689	0.121293	0.495176
	C138	C	0.885319	0.119106	0.512940
	C139	C	0.883270	0.876985	0.495035
	C140	C	0.514931	0.121078	0.882095
	C141	C	0.498095	0.120350	0.126242
	C142	C	0.514546	0.876062	0.126689
	C143	C	0.497900	0.876083	0.881859
	C144	C	0.386655	0.882544	0.679534
	C145	C	0.624022	0.114402	0.679294
	C146	C	0.622747	0.882746	0.329890
	C147	C	0.389137	0.115068	0.328841
	C148	C	0.682679	0.379464	0.889315
	C149	C	0.683519	0.618324	0.119055
	C150	C	0.330159	0.618765	0.889064
	C151	C	0.328789	0.378021	0.119073
	C152	C	0.891855	0.675390	0.383939
	C153	C	0.120527	0.676664	0.621845
	C154	C	0.892283	0.320401	0.623573
	C155	C	0.120759	0.323114	0.384279
	C156	C	0.891700	0.378450	0.681101
	C157	C	0.120751	0.618615	0.679976
	C158	C	0.891424	0.616965	0.327064
	C159	C	0.120432	0.381130	0.326215
	C160	C	0.389774	0.673311	0.888436
	C161	C	0.625207	0.674015	0.119784
	C162	C	0.624262	0.323621	0.888736
	C163	C	0.387977	0.322763	0.120262
	C164	C	0.681707	0.883388	0.385408
	C165	C	0.683903	0.113346	0.624963
	C166	C	0.327382	0.883170	0.624008
	C167	C	0.329392	0.114169	0.383932
	C168	C	0.887891	0.383693	0.178599
	C169	C	0.123990	0.615303	0.177869
	C170	C	0.124056	0.382792	0.828239
	C171	C	0.889897	0.614548	0.828519
	C172	C	0.181476	0.879962	0.388822
	C173	C	0.183791	0.119446	0.619132
	C174	C	0.829787	0.118167	0.389020
	C175	C	0.828633	0.878358	0.619442
	C176	C	0.392051	0.175945	0.885315
	C177	C	0.620718	0.175667	0.123671
	C178	C	0.392235	0.820397	0.123581
	C179	C	0.621109	0.822124	0.884642
	C180	C	0.391748	0.878976	0.180709
	C181	C	0.620855	0.117441	0.180856
	C182	C	0.391747	0.117939	0.827399
	C183	C	0.620649	0.879959	0.826597
	C184	C	0.889484	0.173154	0.387776
	C185	C	0.125194	0.175370	0.619789
	C186	C	0.122521	0.825347	0.387815
	C187	C	0.886719	0.821990	0.619469
	C188	C	0.182974	0.383563	0.883892
	C189	C	0.183932	0.613979	0.123153
	C190	C	0.829007	0.384363	0.123173
	C191	C	0.830179	0.613866	0.883283
	C192	C	0.406247	0.093447	0.601913
	C193	C	0.605369	0.903466	0.602822
	C194	C	0.606525	0.094134	0.405851
	C195	C	0.404309	0.903359	0.405086
	C196	C	0.606369	0.399815	0.100190
	C197	C	0.606910	0.597890	0.908224
	C198	C	0.406757	0.596610	0.100089
	C199	C	0.406504	0.399684	0.908681
	C200	C	0.100642	0.600936	0.402025
	C201	C	0.912458	0.598006	0.603392
	C202	C	0.099885	0.399768	0.603586
	C203	C	0.912104	0.397882	0.403083
	C204	C	0.906030	0.595208	0.102233
	C205	C	0.105641	0.403791	0.102170
	C206	C	0.107411	0.594017	0.904371
	C207	C	0.905681	0.403382	0.905692
	C208	C	0.104746	0.900674	0.599416
	C209	C	0.106677	0.098884	0.408399
	C210	C	0.906901	0.096586	0.599565
	C211	C	0.904948	0.899566	0.408314
	C212	C	0.600197	0.099262	0.903725
	C213	C	0.412193	0.098280	0.104177
	C214	C	0.600486	0.898592	0.104849
	C215	C	0.412845	0.897349	0.904369
	Zn216	Zn	0.505647	-0.001435	0.752806
	Zn217	Zn	0.506426	-0.001620	0.255445
	Zn218	Zn	0.756002	0.499430	0.003905
	Zn219	Zn	0.256839	0.498492	0.003703
	Zn220	Zn	0.005625	0.750604	0.503079
	Zn221	Zn	0.006371	0.247962	0.503723
	Zn222	Zn	0.006635	0.498387	0.755041
	Zn223	Zn	0.005892	0.499645	0.252061
	Zn224	Zn	0.506948	0.747046	0.004404
	Zn225	Zn	0.506530	0.250003	0.004597
	Zn226	Zn	0.755834	-0.001342	0.504624
	Zn227	Zn	0.255018	-0.001393	0.504042
	N228	N	0.420995	0.960549	0.680241
	N229	N	0.589305	0.036730	0.679518
	N230	N	0.589744	0.960830	0.328899
	N231	N	0.422062	0.037059	0.327913
	N232	N	0.685216	0.412189	0.967785
	N233	N	0.685978	0.585714	0.040460
	N234	N	0.327462	0.585675	0.967625
	N235	N	0.326835	0.411233	0.040680
	N236	N	0.969397	0.678445	0.416454
	N237	N	0.043207	0.678109	0.588618
	N238	N	0.969594	0.319051	0.590258
	N239	N	0.043503	0.320496	0.417757
	N240	N	0.968873	0.412773	0.682777
	N241	N	0.043722	0.584546	0.682085
	N242	N	0.968805	0.584369	0.324767
	N243	N	0.043056	0.413784	0.324261
	N244	N	0.423331	0.673812	0.966525
	N245	N	0.591520	0.675001	0.041744
	N246	N	0.590763	0.322617	0.966887
	N247	N	0.421911	0.321990	0.042247
	N248	N	0.684865	0.961900	0.418177
	N249	N	0.686393	0.034578	0.592517
	N250	N	0.325470	0.961627	0.590893
	N251	N	0.325821	0.035558	0.416809
	N252	N	0.921486	0.461783	0.179559
	N253	N	0.089346	0.537576	0.178406
	N254	N	0.090910	0.460732	0.827210
	N255	N	0.923311	0.536767	0.828449
	N256	N	0.183893	0.912389	0.467406
	N257	N	0.186051	0.086533	0.540465
	N258	N	0.827095	0.085380	0.467675
	N259	N	0.826363	0.911861	0.541054
	N260	N	0.469436	0.178434	0.918247
	N261	N	0.543223	0.177713	0.090552
	N262	N	0.469796	0.818628	0.090815
	N263	N	0.544103	0.819672	0.918574
	N264	N	0.468831	0.913001	0.182580
	N265	N	0.543472	0.083885	0.182585
	N266	N	0.468932	0.084407	0.825306
	N267	N	0.543209	0.912768	0.824716
	N268	N	0.923354	0.173869	0.465805
	N269	N	0.091874	0.176662	0.541651
	N270	N	0.088653	0.824357	0.465927
	N271	N	0.920023	0.821179	0.541301
	N272	N	0.185838	0.462047	0.916838
	N273	N	0.186105	0.535385	0.090493
	N274	N	0.826754	0.463036	0.090314
	N275	N	0.827043	0.535566	0.916753
	O276	O	1.034342	0.965271	0.001597
	H277	H	1.026514	0.966718	0.011003
	H278	H	1.028176	0.954402	-0.009226
	O279	O	0.046655	-0.018452	-0.029461
	H280	H	0.043453	-0.022249	-0.028516
	H281	H	0.047966	-0.023396	-0.027198
	O282	O	0.019071	0.031158	0.998169
	H283	H	0.020500	0.037963	0.993836
	H284	H	0.029000	0.028364	0.990200
	O285	O	0.443645	0.411347	0.648379
	H286	H	0.442795	0.411938	0.657390
	H287	H	0.444426	0.423406	0.639487
	O288	O	0.442327	0.419021	0.525482
	H289	H	0.438055	0.406431	0.523072
	H290	H	0.440021	0.412193	0.527227
	O291	O	0.477357	0.460873	0.575562
	H292	H	0.487126	0.460232	0.578407
	H293	H	0.480769	0.471731	0.566770
	O294	O	0.034572	-0.037679	0.000472
	H295	H	0.024325	-0.030500	0.002398
	H296	H	0.043906	-0.038017	-0.003141
	O297	O	0.040249	0.019729	-0.024811
	H298	H	0.042576	0.023804	-0.027826
	H299	H	0.040979	0.028809	-0.023299
	O300	O	0.041081	1.039131	1.016688
	H301	H	0.042313	1.035613	1.016666
	H302	H	0.041614	1.041287	1.019463
	O303	O	0.491460	0.512898	0.570748
	H304	H	0.491930	0.516153	0.573375
	H305	H	0.488432	0.510933	0.570011
	O306	O	0.076013	0.025314	0.954821
	H307	H	0.085582	0.030154	0.956759
	H308	H	0.082047	0.023510	0.956110
	O309	O	1.064862	1.048577	1.028451
	H310	H	1.060713	1.039581	1.026029
	H311	H	1.068399	1.049482	1.023629
	O312	O	0.467110	0.432178	0.582905
	H313	H	0.462879	0.422197	0.583304
	H314	H	0.461415	0.427398	0.598129
	O315	O	0.029287	0.973807	0.018449
	H316	H	0.027664	0.970342	0.021544
	H317	H	0.024867	0.978678	0.018407
	O318	O	0.014533	0.993596	-0.051957
	H319	H	0.004661	0.989694	-0.055259
	H320	H	0.011089	0.998285	-0.051017
	O321	O	1.002633	1.051430	0.040382
	H322	H	1.009240	1.052866	0.045839
	H323	H	1.011809	1.058344	0.039900
