data_Molecule from HDF5

_cell_length_a		16.258690
_cell_length_b		16.557588
_cell_length_c		16.446679
_cell_angle_alpha	89.976574
_cell_angle_beta	89.914281
_cell_angle_gamma	89.952361
_symmetry_space_group_name_H-M	'P 1'
_symmetry_Int_Tables_number		1

loop_
	_symmetry_equiv_pos_as_xyz
	x,y,z

loop_
	_atom_site_label
	_atom_site_type_symbol
	_atom_site_fract_x
	_atom_site_fract_y
	_atom_site_fract_z
	H0	H	0.394980	0.845921	0.730270
	H1	H	0.615833	0.155225	0.728161
	H2	H	0.613205	0.844521	0.279197
	H3	H	0.396030	0.155782	0.278539
	H4	H	0.726101	0.398119	0.845377
	H5	H	0.724185	0.604108	0.163851
	H6	H	0.280656	0.609708	0.847888
	H7	H	0.282350	0.393553	0.161550
	H8	H	0.848043	0.725065	0.395162
	H9	H	0.163346	0.725073	0.614246
	H10	H	0.845956	0.279617	0.612535
	H11	H	0.162917	0.276137	0.395835
	H12	H	0.845258	0.395665	0.726385
	H13	H	0.164042	0.607624	0.727416
	H14	H	0.846052	0.606709	0.283127
	H15	H	0.163348	0.390671	0.280153
	H16	H	0.394940	0.726402	0.847992
	H17	H	0.616737	0.726842	0.160057
	H18	H	0.618179	0.274957	0.848697
	H19	H	0.393043	0.273053	0.158761
	H20	H	0.728499	0.843864	0.396819
	H21	H	0.724839	0.158011	0.606947
	H22	H	0.281595	0.844850	0.611898
	H23	H	0.283792	0.158703	0.398966
	H24	H	0.896437	0.345256	0.229684
	H25	H	0.114852	0.655715	0.229850
	H26	H	0.115250	0.345487	0.778688
	H27	H	0.895053	0.656941	0.781120
	H28	H	0.226699	0.896202	0.346394
	H29	H	0.227220	0.106979	0.663114
	H30	H	0.783918	0.105824	0.346492
	H31	H	0.782131	0.895348	0.662454
	H32	H	0.349150	0.227083	0.891645
	H33	H	0.662870	0.224464	0.113440
	H34	H	0.348380	0.776053	0.112156
	H35	H	0.665275	0.778810	0.895650
	H36	H	0.346610	0.892792	0.226312
	H37	H	0.662708	0.108103	0.227290
	H38	H	0.347618	0.109576	0.779430
	H39	H	0.665077	0.895071	0.782033
	H40	H	0.895316	0.226702	0.349111
	H41	H	0.115539	0.226875	0.661140
	H42	H	0.116207	0.775177	0.348856
	H43	H	0.892985	0.775180	0.660364
	H44	H	0.229930	0.344777	0.896387
	H45	H	0.228762	0.657047	0.111911
	H46	H	0.782362	0.344063	0.112072
	H47	H	0.783241	0.658221	0.900750
	H48	H	0.421213	0.111697	0.592990
	H49	H	0.592093	0.890271	0.587810
	H50	H	0.593371	0.111958	0.415039
	H51	H	0.420172	0.890480	0.416354
	H52	H	0.594967	0.406644	0.118646
	H53	H	0.600385	0.583808	0.890981
	H54	H	0.420782	0.585796	0.114167
	H55	H	0.421839	0.419598	0.894886
	H56	H	0.118729	0.583254	0.414356
	H57	H	0.892251	0.585036	0.593959
	H58	H	0.117755	0.414850	0.590607
	H59	H	0.892551	0.420176	0.412869
	H60	H	0.118977	0.413425	0.593128
	H61	H	0.889043	0.592134	0.594886
	H62	H	0.121319	0.592859	0.417391
	H63	H	0.887234	0.405994	0.414990
	H64	H	0.422735	0.592112	0.115458
	H65	H	0.585394	0.588214	0.894925
	H66	H	0.592932	0.416250	0.116876
	H67	H	0.424057	0.407924	0.891143
	H68	H	0.592895	0.112608	0.414016
	H69	H	0.597494	0.884983	0.594625
	H70	H	0.416850	0.111259	0.589519
	H71	H	0.413792	0.887771	0.417042
	H72	H	0.921551	0.610233	0.088945
	H73	H	0.088938	0.392478	0.087422
	H74	H	0.093290	0.612462	0.917221
	H75	H	0.910849	0.387902	0.919561
	H76	H	0.087881	0.915470	0.613926
	H77	H	0.091945	0.084980	0.394063
	H78	H	0.917603	0.092116	0.618183
	H79	H	0.925287	0.913943	0.395201
	H80	H	0.617306	0.081370	0.915737
	H81	H	0.392199	0.084742	0.090469
	H82	H	0.619473	0.910531	0.087446
	H83	H	0.392386	0.917614	0.914816
	H84	H	0.617662	0.917147	0.090229
	H85	H	0.390584	0.090637	0.090632
	H86	H	0.621812	0.090611	0.911961
	H87	H	0.390334	0.908902	0.915232
	H88	H	0.915452	0.091312	0.618994
	H89	H	0.086803	0.092148	0.394186
	H90	H	0.089548	0.908149	0.618634
	H91	H	0.917781	0.905038	0.389437
	H92	H	0.091235	0.612137	0.915007
	H93	H	0.097397	0.387360	0.090816
	H94	H	0.907853	0.615388	0.093392
	H95	H	0.916751	0.386099	0.908816
	H96	H	0.416390	0.113785	0.594849
	H97	H	0.588197	0.888018	0.596574
	H98	H	0.591864	0.112740	0.414358
	H99	H	0.417195	0.887350	0.411288
	H100	H	0.585650	0.409837	0.115909
	H101	H	0.595142	0.598995	0.888126
	H102	H	0.416539	0.589716	0.117310
	H103	H	0.413050	0.412909	0.889726
	H104	H	0.116216	0.585948	0.424080
	H105	H	0.892201	0.589915	0.587838
	H106	H	0.118780	0.412209	0.589820
	H107	H	0.895435	0.413565	0.426126
	H108	H	0.919215	0.614584	0.103151
	H109	H	0.088560	0.388344	0.096739
	H110	H	0.090606	0.610669	0.917572
	H111	H	0.922764	0.390995	0.918429
	H112	H	0.095388	0.914550	0.618005
	H113	H	0.095285	0.092259	0.390723
	H114	H	0.916966	0.089127	0.617049
	H115	H	0.913085	0.916986	0.392428
	H116	H	0.618570	0.090174	0.922304
	H117	H	0.393391	0.087569	0.086203
	H118	H	0.621117	0.911731	0.094775
	H119	H	0.393555	0.913041	0.922199
	C120	C	0.383695	0.009348	0.626282
	C121	C	0.626199	0.991268	0.625323
	C122	C	0.626887	0.009080	0.381140
	C123	C	0.383317	0.992045	0.381928
	C124	C	0.626217	0.378760	0.013247
	C125	C	0.626934	0.622682	0.995701
	C126	C	0.384527	0.622981	0.012429
	C127	C	0.384239	0.378896	0.995381
	C128	C	0.013892	0.621029	0.384590
	C129	C	0.996190	0.622319	0.626099
	C130	C	0.013355	0.380687	0.625325
	C131	C	0.996426	0.379296	0.383725
	C132	C	0.883193	0.509666	0.127499
	C133	C	0.126464	0.492108	0.126209
	C134	C	0.126738	0.509165	0.882398
	C135	C	0.883619	0.492403	0.883509
	C136	C	0.125950	0.879446	0.513161
	C137	C	0.126024	0.122996	0.496594
	C138	C	0.883801	0.123079	0.513521
	C139	C	0.883768	0.879025	0.496004
	C140	C	0.514649	0.121632	0.882506
	C141	C	0.496422	0.121183	0.123720
	C142	C	0.514726	0.879437	0.124728
	C143	C	0.497225	0.880148	0.883598
	C144	C	0.378313	0.892631	0.689076
	C145	C	0.631518	0.108709	0.686819
	C146	C	0.630684	0.891428	0.319986
	C147	C	0.378732	0.109416	0.319815
	C148	C	0.687125	0.378121	0.893812
	C149	C	0.686027	0.623878	0.115393
	C150	C	0.321192	0.626879	0.895077
	C151	C	0.322159	0.375166	0.113645
	C152	C	0.895318	0.683850	0.378974
	C153	C	0.115655	0.683914	0.630708
	C154	C	0.893630	0.319847	0.629534
	C155	C	0.115280	0.316688	0.378469
	C156	C	0.893305	0.377726	0.686414
	C157	C	0.116078	0.625736	0.687494
	C158	C	0.894330	0.624798	0.322971
	C159	C	0.115523	0.374191	0.320919
	C160	C	0.378327	0.685359	0.895301
	C161	C	0.632263	0.685042	0.113633
	C162	C	0.632888	0.317086	0.895021
	C163	C	0.377592	0.314988	0.111980
	C164	C	0.688414	0.891391	0.378393
	C165	C	0.686349	0.109893	0.626853
	C166	C	0.321802	0.891860	0.629942
	C167	C	0.322836	0.110678	0.379842
	C168	C	0.879125	0.391941	0.188852
	C169	C	0.131725	0.609161	0.188794
	C170	C	0.132131	0.392311	0.819719
	C171	C	0.878654	0.610156	0.822212
	C172	C	0.187500	0.877131	0.394486
	C173	C	0.187840	0.125975	0.615131
	C174	C	0.823671	0.124621	0.394263
	C175	C	0.821868	0.876569	0.614574
	C176	C	0.396253	0.185090	0.876189
	C177	C	0.615082	0.183539	0.129858
	C178	C	0.395718	0.817089	0.129437
	C179	C	0.617244	0.819163	0.878950
	C180	C	0.394765	0.875333	0.186252
	C181	C	0.615205	0.125428	0.186754
	C182	C	0.395521	0.126402	0.820125
	C183	C	0.617208	0.877352	0.822406
	C184	C	0.878813	0.185176	0.395758
	C185	C	0.131762	0.185304	0.614317
	C186	C	0.132223	0.816727	0.395873
	C187	C	0.877411	0.816625	0.613537
	C188	C	0.189296	0.391938	0.878547
	C189	C	0.188717	0.609614	0.129971
	C190	C	0.822176	0.391517	0.130326
	C191	C	0.822899	0.610860	0.882051
	C192	C	0.410317	0.090824	0.599830
	C193	C	0.600134	0.909121	0.600194
	C194	C	0.600391	0.091021	0.406900
	C195	C	0.409494	0.910198	0.407706
	C196	C	0.599076	0.403762	0.095563
	C197	C	0.600845	0.597723	0.913120
	C198	C	0.411996	0.596646	0.094609
	C199	C	0.411766	0.405838	0.913409
	C200	C	0.097081	0.594698	0.410991
	C201	C	0.912967	0.596332	0.599797
	C202	C	0.096605	0.406113	0.598983
	C203	C	0.913353	0.405721	0.410476
	C204	C	0.909103	0.591834	0.102387
	C205	C	0.099294	0.410895	0.099281
	C206	C	0.099543	0.590467	0.908913
	C207	C	0.909455	0.409958	0.908217
	C208	C	0.098695	0.905391	0.595336
	C209	C	0.099057	0.097195	0.414427
	C210	C	0.909534	0.098228	0.596276
	C211	C	0.910901	0.904667	0.413793
	C212	C	0.597564	0.095109	0.909080
	C213	C	0.413470	0.094939	0.096844
	C214	C	0.597641	0.905547	0.098513
	C215	C	0.413800	0.905780	0.909975
	Zn216	Zn	0.506043	0.000292	0.754703
	Zn217	Zn	0.504658	0.000546	0.252312
	Zn218	Zn	0.754658	0.500610	0.005534
	Zn219	Zn	0.255858	0.500681	0.004586
	Zn220	Zn	0.005050	0.749875	0.505067
	Zn221	Zn	0.004867	0.252206	0.505566
	Zn222	Zn	0.004336	0.501377	0.753664
	Zn223	Zn	0.005495	0.500563	0.255985
	Zn224	Zn	0.506343	0.751583	0.003518
	Zn225	Zn	0.505924	0.249733	0.003076
	Zn226	Zn	0.755305	0.000610	0.504508
	Zn227	Zn	0.254632	0.001499	0.504767
	N228	N	0.415892	0.967023	0.687177
	N229	N	0.594903	0.034024	0.686192
	N230	N	0.593253	0.965849	0.321538
	N231	N	0.415144	0.034568	0.320574
	N232	N	0.683274	0.415517	0.968326
	N233	N	0.683102	0.585997	0.041094
	N234	N	0.325041	0.588743	0.969310
	N235	N	0.326228	0.414143	0.040066
	N236	N	0.970803	0.681790	0.416460
	N237	N	0.039966	0.682096	0.593546
	N238	N	0.969490	0.321418	0.592487
	N239	N	0.040209	0.319735	0.416789
	N240	N	0.968911	0.414622	0.684263
	N241	N	0.040621	0.588243	0.684810
	N242	N	0.969180	0.586405	0.326470
	N243	N	0.040342	0.412319	0.323946
	N244	N	0.417037	0.682985	0.969387
	N245	N	0.596226	0.684498	0.038051
	N246	N	0.595994	0.317087	0.970268
	N247	N	0.415436	0.317155	0.037134
	N248	N	0.686181	0.965526	0.415751
	N249	N	0.683280	0.035711	0.589359
	N250	N	0.325025	0.965425	0.591676
	N251	N	0.325459	0.036662	0.417690
	N252	N	0.916263	0.466362	0.187449
	N253	N	0.094015	0.534896	0.186729
	N254	N	0.094041	0.466351	0.821997
	N255	N	0.915871	0.535577	0.823114
	N256	N	0.183897	0.915305	0.468558
	N257	N	0.184352	0.087850	0.540976
	N258	N	0.826493	0.086678	0.468510
	N259	N	0.825534	0.914694	0.540336
	N260	N	0.471492	0.182298	0.914194
	N261	N	0.540193	0.181017	0.091190
	N262	N	0.471195	0.819352	0.091944
	N263	N	0.541384	0.820633	0.916210
	N264	N	0.469761	0.913450	0.183327
	N265	N	0.540391	0.087252	0.182888
	N266	N	0.470262	0.087674	0.823823
	N267	N	0.541708	0.914387	0.824988
	N268	N	0.915480	0.184237	0.470871
	N269	N	0.094325	0.183839	0.539493
	N270	N	0.094919	0.817861	0.470859
	N271	N	0.915179	0.818118	0.538775
	N272	N	0.186234	0.465609	0.916823
	N273	N	0.185694	0.535869	0.091764
	N274	N	0.824512	0.465748	0.092957
	N275	N	0.825799	0.536588	0.919513
	O276	O	0.524909	0.295256	0.306766
	H277	H	0.525490	0.279307	0.306487
	H278	H	0.544742	0.299337	0.298876
	O279	O	0.798612	0.026141	0.798966
	H280	H	0.804096	0.007248	0.787820
	H281	H	0.802265	0.027533	0.782042
	O282	O	0.688712	0.495474	0.561072
	H283	H	0.692620	0.509297	0.568547
	H284	H	0.674126	0.485775	0.571976
	O285	O	0.377647	0.578840	0.655094
	H286	H	0.385639	0.590596	0.661223
	H287	H	0.394235	0.594290	0.651217
	O288	O	0.292553	0.717018	0.488049
	H289	H	0.272203	0.738712	0.478527
	H290	H	0.296581	0.715456	0.454695
	O291	O	0.496298	0.374718	0.490068
	H292	H	0.486280	0.380823	0.475026
	H293	H	0.480835	0.378816	0.487970
	O294	O	-0.017632	0.213385	0.789083
	H295	H	-0.000919	0.227327	0.782905
	H296	H	0.000565	0.232553	0.803955
	O297	O	0.292007	0.528629	0.293975
	H298	H	0.303195	0.504875	0.290314
	H299	H	0.273882	0.518359	0.273212
	O300	O	0.693244	0.311209	0.481107
	H301	H	0.692423	0.316961	0.511235
	H302	H	0.693168	0.303801	0.489586
	O303	O	0.396650	0.376800	0.582955
	H304	H	0.383897	0.374256	0.573956
	H305	H	0.380503	0.398953	0.594344
	O306	O	0.489751	0.701410	0.293841
	H307	H	0.508413	0.719586	0.277763
	H308	H	0.499902	0.688494	0.288896
	O309	O	0.976449	0.902574	-0.029715
	H310	H	0.982438	0.895896	-0.052713
	H311	H	0.949451	0.894777	-0.037947
	O312	O	0.010183	1.144884	1.219068
	H313	H	0.000648	1.153172	1.199074
	H314	H	0.007123	1.161220	1.229630
	O315	O	0.178456	-0.182198	0.822846
	H316	H	0.190524	-0.129405	0.812929
	H317	H	0.192256	-0.191545	0.874918
	O318	O	1.222239	0.214600	0.017504
	H319	H	1.252794	0.238862	0.030253
	H320	H	1.215489	0.201960	0.053916
	O321	O	-0.179952	0.185142	-0.178721
	H322	H	-0.189274	0.147673	-0.172450
	H323	H	-0.126195	0.196247	-0.192613
	O324	O	0.459152	0.711103	0.545703
	H325	H	0.442381	0.720117	0.556619
	H326	H	0.445244	0.713874	0.554626
	O327	O	0.591559	0.604957	0.316758
	H328	H	0.612071	0.608954	0.330699
	H329	H	0.600038	0.594316	0.319450
	O330	O	0.143336	1.029135	0.095658
	H331	H	0.150763	1.028198	0.085617
	H332	H	0.129511	1.022594	0.100599
	O333	O	0.697644	0.524165	0.701035
	H334	H	0.701132	0.511423	0.705938
	H335	H	0.678382	0.500352	0.706577
	O336	O	0.170822	0.173811	0.166803
	H337	H	0.138028	0.181292	0.167926
	H338	H	0.158833	0.139337	0.174264
	O339	O	0.050861	0.802897	1.174452
	H340	H	0.041519	0.793734	1.201277
	H341	H	0.059356	0.822856	1.179941
	O342	O	0.195759	0.991647	0.979789
	H343	H	0.192835	0.993249	0.988267
	H344	H	0.177045	0.985519	0.976905
	O345	O	0.901185	0.914021	0.067235
	H346	H	0.894373	0.921003	0.075916
	H347	H	0.884021	0.916137	0.063938
	O348	O	0.424151	0.373438	0.348286
	H349	H	0.450461	0.370398	0.333033
	H350	H	0.448060	0.361964	0.370765
	O351	O	-0.030253	1.043289	1.040286
	H352	H	-0.050565	1.034320	1.041277
	H353	H	-0.027718	1.045795	1.029407
	O354	O	0.029981	0.888485	0.207718
	H355	H	0.041718	0.895841	0.194938
	H356	H	0.028742	0.885719	0.209177
	O357	O	-0.047989	0.105557	1.180411
	H358	H	-0.048605	0.109177	1.179416
	H359	H	-0.042207	0.094971	1.172904
	O360	O	0.527555	0.721434	0.722794
	H361	H	0.551330	0.738729	0.742091
	H362	H	0.562461	0.724474	0.726829
	O363	O	-0.703088	0.413176	0.537288
	H364	H	-0.697646	0.423373	0.530353
	H365	H	-0.709145	0.411467	0.542197
	O366	O	0.010973	1.085261	0.016329
	H367	H	-0.005144	1.080152	0.013190
	H368	H	0.008276	1.072971	0.007790
	O369	O	0.681366	0.690318	0.493771
	H370	H	0.679316	0.712340	0.502480
	H371	H	0.684682	0.673585	0.479113
	O372	O	1.037565	0.045632	0.799768
	H373	H	1.044940	0.043085	0.799440
	H374	H	1.049073	0.058146	0.799707
	O375	O	0.712432	0.479191	0.296853
	H376	H	0.730332	0.464683	0.278528
	H377	H	0.722285	0.469784	0.312153
	O378	O	0.883005	0.847946	0.997590
	H379	H	0.881239	0.833292	0.983625
	H380	H	0.882133	0.844922	0.979359
	O381	O	0.685813	0.315302	0.328526
	H382	H	0.697460	0.324437	0.347048
	H383	H	0.677925	0.301990	0.347393
	O384	O	0.923087	-0.116943	0.019582
	H385	H	0.916339	-0.126336	0.039287
	H386	H	0.902204	-0.124474	0.015636
	O387	O	-0.096535	-0.066555	0.826184
	H388	H	-0.080367	-0.079336	0.815318
	H389	H	-0.076467	-0.078546	0.827258
	O390	O	0.160129	-0.018901	0.201914
	H391	H	0.180639	-0.019479	0.191851
	H392	H	0.155870	-0.010810	0.191644
	O393	O	1.019994	0.785920	0.789941
	H394	H	1.029877	0.760869	0.758839
	H395	H	1.067358	0.795157	0.796353
	O396	O	0.829823	-0.007071	0.217003
	H397	H	0.827225	-0.001388	0.236708
	H398	H	0.824111	0.001095	0.203558
	O399	O	0.322647	0.686591	0.327092
	H400	H	0.365935	0.695141	0.325255
	H401	H	0.311478	0.634381	0.315226
	O402	O	1.156700	1.118516	0.922142
	H403	H	1.158364	1.118941	0.956071
	H404	H	1.159015	1.130230	0.943434
	O405	O	0.560453	1.479060	0.364392
	H406	H	0.572176	1.474902	0.363572
	H407	H	0.553446	1.489311	0.370669
	O408	O	1.819144	-0.186595	-0.814753
	H409	H	1.831752	-0.171662	-0.814676
	H410	H	1.846931	-0.168359	-0.803850
	O411	O	1.390377	1.489063	0.624820
	H412	H	1.361038	1.489534	0.639284
	H413	H	1.399728	1.515618	0.629228
	O414	O	0.514121	0.494928	0.689284
	H415	H	0.500678	0.482841	0.697610
	H416	H	0.501799	0.483351	0.665268
	O417	O	-0.209614	0.219632	-0.018581
	H418	H	-0.207040	0.203256	-0.045079
	H419	H	-0.245243	0.246526	-0.027740
	O420	O	0.444220	0.552246	0.567407
	H421	H	0.443944	0.566032	0.572932
	H422	H	0.458582	0.556330	0.551028
	O423	O	0.304005	0.462310	0.569377
	H424	H	0.318656	0.473459	0.582432
	H425	H	0.304347	0.471384	0.586154
	O426	O	0.566966	0.303306	0.673632
	H427	H	0.548267	0.286687	0.692754
	H428	H	0.551016	0.299549	0.677377
	O429	O	0.561164	0.631149	0.466431
	H430	H	0.548673	0.649808	0.475072
	H431	H	0.560741	0.640151	0.440613
	O432	O	0.410038	0.284480	0.555164
	H433	H	0.399866	0.286749	0.559013
	H434	H	0.390944	0.289494	0.553121
	O435	O	-0.065812	0.163618	1.016650
	H436	H	-0.059021	0.156920	1.024294
	H437	H	-0.074402	0.150797	1.017109
	O438	O	-0.312200	-0.312213	-0.312814
	H439	H	-0.297742	-0.352758	-0.299719
	H440	H	-0.301375	-0.313152	-0.356484
	O441	O	1.210067	-0.207600	-0.017377
	H442	H	1.188442	-0.215187	0.008641
	H443	H	1.229652	-0.225754	-0.010727
	O444	O	0.219367	0.978222	0.789895
	H445	H	0.246724	0.982209	0.762561
	H446	H	0.228882	1.001104	0.816445
	O447	O	0.796753	-0.065955	1.026089
	H448	H	0.789749	-0.079811	1.023445
	H449	H	0.793280	-0.045575	1.021930
	O450	O	0.333002	0.322076	0.685838
	H451	H	0.318940	0.341104	0.662922
	H452	H	0.322194	0.343248	0.669722
	O453	O	0.710106	0.511618	0.494288
	H454	H	0.702749	0.492963	0.517935
	H455	H	0.694275	0.518322	0.486719
