data_Molecule from HDF5

_cell_length_a		16.552790
_cell_length_b		16.482005
_cell_length_c		16.397371
_cell_angle_alpha	89.815781
_cell_angle_beta	90.006531
_cell_angle_gamma	90.120379
_symmetry_space_group_name_H-M	'P 1'
_symmetry_Int_Tables_number		1

loop_
	_symmetry_equiv_pos_as_xyz
	x,y,z

loop_
	_atom_site_label
	_atom_site_type_symbol
	_atom_site_fract_x
	_atom_site_fract_y
	_atom_site_fract_z
	H0	H	0.403345	0.832995	0.720690
	H1	H	0.610293	0.149366	0.719370
	H2	H	0.610979	0.834143	0.279940
	H3	H	0.401000	0.149105	0.277562
	H4	H	0.727277	0.388288	0.842444
	H5	H	0.729067	0.596714	0.158645
	H6	H	0.288624	0.595546	0.841250
	H7	H	0.279754	0.378914	0.156813
	H8	H	0.851565	0.713947	0.394254
	H9	H	0.161964	0.718277	0.610450
	H10	H	0.850111	0.271252	0.603386
	H11	H	0.165881	0.268041	0.393553
	H12	H	0.849786	0.388838	0.719373
	H13	H	0.163826	0.598162	0.724068
	H14	H	0.852370	0.596980	0.278209
	H15	H	0.165969	0.385429	0.277140
	H16	H	0.403908	0.711851	0.842087
	H17	H	0.612818	0.712805	0.158996
	H18	H	0.609848	0.273183	0.841737
	H19	H	0.396522	0.263702	0.157092
	H20	H	0.730523	0.835932	0.393044
	H21	H	0.727356	0.149858	0.604190
	H22	H	0.282748	0.836125	0.609427
	H23	H	0.284792	0.149236	0.392802
	H24	H	0.906298	0.334120	0.221199
	H25	H	0.117553	0.649147	0.223784
	H26	H	0.110646	0.334014	0.781559
	H27	H	0.903857	0.649025	0.778134
	H28	H	0.233891	0.882254	0.343617
	H29	H	0.228332	0.094829	0.657857
	H30	H	0.785119	0.100577	0.342514
	H31	H	0.786691	0.887457	0.658430
	H32	H	0.350059	0.211868	0.894362
	H33	H	0.662862	0.213631	0.105608
	H34	H	0.350440	0.766811	0.107489
	H35	H	0.665217	0.771003	0.896671
	H36	H	0.349125	0.883800	0.223051
	H37	H	0.663338	0.096563	0.221173
	H38	H	0.349835	0.092731	0.780375
	H39	H	0.665920	0.888068	0.780520
	H40	H	0.903222	0.214206	0.341425
	H41	H	0.111539	0.210078	0.658892
	H42	H	0.117244	0.767457	0.342830
	H43	H	0.902237	0.770887	0.657948
	H44	H	0.229724	0.335083	0.894200
	H45	H	0.234789	0.647679	0.109934
	H46	H	0.787685	0.334142	0.106386
	H47	H	0.787367	0.649514	0.894828
	H48	H	0.413637	0.105931	0.588228
	H49	H	0.602500	0.877547	0.585468
	H50	H	0.600126	0.106238	0.410431
	H51	H	0.414753	0.877066	0.409901
	H52	H	0.596121	0.397736	0.116068
	H53	H	0.601391	0.579553	0.886825
	H54	H	0.425408	0.570284	0.108501
	H55	H	0.414367	0.400680	0.886448
	H56	H	0.119723	0.580988	0.417552
	H57	H	0.894831	0.581770	0.589943
	H58	H	0.121419	0.402255	0.592224
	H59	H	0.898128	0.406067	0.411214
	H60	H	0.121927	0.398808	0.590437
	H61	H	0.896606	0.581524	0.586530
	H62	H	0.118236	0.576674	0.413579
	H63	H	0.896089	0.400738	0.408153
	H64	H	0.425134	0.584837	0.115026
	H65	H	0.594186	0.581140	0.887866
	H66	H	0.600826	0.404790	0.114735
	H67	H	0.418366	0.409743	0.890785
	H68	H	0.593046	0.104689	0.408445
	H69	H	0.600407	0.875492	0.594864
	H70	H	0.421062	0.104623	0.593048
	H71	H	0.426768	0.882223	0.411295
	H72	H	0.923472	0.604029	0.089972
	H73	H	0.095793	0.381019	0.088608
	H74	H	0.098217	0.604527	0.913436
	H75	H	0.921930	0.379524	0.908456
	H76	H	0.101008	0.905703	0.614181
	H77	H	0.098109	0.077911	0.385898
	H78	H	0.914995	0.085365	0.615505
	H79	H	0.918668	0.905162	0.386626
	H80	H	0.617765	0.077038	0.912174
	H81	H	0.394385	0.080252	0.087300
	H82	H	0.618109	0.899283	0.084843
	H83	H	0.395292	0.901385	0.912214
	H84	H	0.616752	0.907135	0.090471
	H85	H	0.395189	0.077500	0.084749
	H86	H	0.622179	0.083026	0.904356
	H87	H	0.394459	0.902355	0.908610
	H88	H	0.914849	0.078340	0.613712
	H89	H	0.093477	0.078376	0.387751
	H90	H	0.092899	0.911807	0.607876
	H91	H	0.921191	0.906834	0.387913
	H92	H	0.097831	0.605472	0.911470
	H93	H	0.094045	0.381266	0.087547
	H94	H	0.916449	0.603902	0.083669
	H95	H	0.915633	0.379254	0.916874
	H96	H	0.420748	0.102292	0.584276
	H97	H	0.593399	0.879545	0.589131
	H98	H	0.595745	0.102860	0.414834
	H99	H	0.418464	0.882495	0.421388
	H100	H	0.592636	0.403941	0.112146
	H101	H	0.598566	0.585841	0.884913
	H102	H	0.412754	0.575888	0.115065
	H103	H	0.423808	0.400843	0.890145
	H104	H	0.120747	0.581580	0.411597
	H105	H	0.896521	0.578521	0.588990
	H106	H	0.119747	0.401738	0.588688
	H107	H	0.898281	0.400539	0.414464
	H108	H	0.914775	0.607201	0.092399
	H109	H	0.095705	0.380909	0.085704
	H110	H	0.096032	0.604583	0.912798
	H111	H	0.912248	0.376343	0.907696
	H112	H	0.091208	0.900389	0.611249
	H113	H	0.096008	0.082267	0.385099
	H114	H	0.920867	0.081539	0.612638
	H115	H	0.920708	0.903673	0.387577
	H116	H	0.620433	0.087199	0.914157
	H117	H	0.394976	0.076464	0.088627
	H118	H	0.620226	0.898926	0.094142
	H119	H	0.393882	0.898750	0.909812
	C120	C	0.386417	-0.000276	0.621064
	C121	C	0.629616	0.982428	0.621414
	C122	C	0.628892	0.000693	0.378622
	C123	C	0.386178	0.983926	0.379434
	C124	C	0.627806	0.370918	0.009338
	C125	C	0.629930	0.613597	0.991542
	C126	C	0.388364	0.610527	0.008553
	C127	C	0.384616	0.369090	0.992359
	C128	C	0.017012	0.613154	0.379738
	C129	C	0.998950	0.613703	0.622387
	C130	C	0.016354	0.370024	0.621704
	C131	C	1.001102	0.369885	0.378455
	C132	C	0.886781	0.500548	0.121819
	C133	C	0.129839	0.484019	0.121615
	C134	C	0.129069	0.500592	0.879444
	C135	C	0.886001	0.483100	0.878897
	C136	C	0.129300	0.870645	0.508143
	C137	C	0.128482	0.111987	0.491179
	C138	C	0.885293	0.114377	0.508950
	C139	C	0.887277	0.872027	0.491447
	C140	C	0.516006	0.113329	0.878072
	C141	C	0.497955	0.111516	0.120320
	C142	C	0.514982	0.868801	0.122570
	C143	C	0.499307	0.870102	0.879220
	C144	C	0.384528	0.880950	0.681404
	C145	C	0.629940	0.101821	0.680186
	C146	C	0.630274	0.881811	0.319124
	C147	C	0.382986	0.101990	0.317770
	C148	C	0.687137	0.369903	0.889733
	C149	C	0.689595	0.615605	0.111052
	C150	C	0.328429	0.613335	0.889108
	C151	C	0.321444	0.362714	0.109828
	C152	C	0.898954	0.673807	0.376028
	C153	C	0.115844	0.676526	0.627326
	C154	C	0.897546	0.311183	0.622439
	C155	C	0.118809	0.308677	0.375360
	C156	C	0.897343	0.369556	0.680192
	C157	C	0.116778	0.616999	0.683778
	C158	C	0.899414	0.615656	0.318212
	C159	C	0.119040	0.367358	0.317606
	C160	C	0.385927	0.671246	0.889307
	C161	C	0.631474	0.672930	0.111197
	C162	C	0.629055	0.312399	0.889549
	C163	C	0.379576	0.305286	0.110066
	C164	C	0.689765	0.882742	0.375449
	C165	C	0.688155	0.101963	0.622836
	C166	C	0.324649	0.882425	0.625857
	C167	C	0.324959	0.101851	0.375275
	C168	C	0.886440	0.381565	0.181560
	C169	C	0.134842	0.601734	0.183438
	C170	C	0.129855	0.381535	0.820610
	C171	C	0.885160	0.601891	0.818494
	C172	C	0.192327	0.865343	0.390570
	C173	C	0.188170	0.113562	0.610608
	C174	C	0.825346	0.117971	0.390022
	C175	C	0.826709	0.869032	0.610634
	C176	C	0.397534	0.172104	0.876036
	C177	C	0.615807	0.172836	0.123513
	C178	C	0.397231	0.807364	0.125517
	C179	C	0.618108	0.810939	0.878231
	C180	C	0.396702	0.865595	0.183128
	C181	C	0.616241	0.114301	0.180749
	C182	C	0.397128	0.112846	0.819255
	C183	C	0.618335	0.869058	0.820132
	C184	C	0.884440	0.174433	0.389370
	C185	C	0.130176	0.170808	0.611019
	C186	C	0.134194	0.807987	0.390306
	C187	C	0.884270	0.811161	0.610710
	C188	C	0.189160	0.382227	0.876564
	C189	C	0.193221	0.600978	0.126597
	C190	C	0.827378	0.381684	0.124612
	C191	C	0.827058	0.601963	0.876327
	C192	C	0.411416	0.082697	0.595663
	C193	C	0.605827	0.899286	0.596848
	C194	C	0.603591	0.083020	0.403984
	C195	C	0.412440	0.901814	0.406520
	C196	C	0.603397	0.395052	0.092493
	C197	C	0.605347	0.589149	0.908232
	C198	C	0.413833	0.584385	0.091475
	C199	C	0.411286	0.395982	0.910492
	C200	C	0.098469	0.587249	0.406481
	C201	C	0.917408	0.587926	0.596031
	C202	C	0.099364	0.393999	0.597384
	C203	C	0.919150	0.395453	0.404023
	C204	C	0.911251	0.583452	0.096209
	C205	C	0.102859	0.402364	0.094947
	C206	C	0.104418	0.583306	0.905154
	C207	C	0.909651	0.399925	0.903866
	C208	C	0.102549	0.897886	0.589712
	C209	C	0.103220	0.086939	0.408114
	C210	C	0.909928	0.089128	0.592389
	C211	C	0.912888	0.897870	0.408903
	C212	C	0.598730	0.089156	0.903060
	C213	C	0.416217	0.085348	0.094473
	C214	C	0.596989	0.894506	0.097289
	C215	C	0.416320	0.893998	0.903402
	Zn216	Zn	0.507583	-0.009023	0.749339
	Zn217	Zn	0.505688	-0.008438	0.250453
	Zn218	Zn	0.757288	0.491546	0.000724
	Zn219	Zn	0.257672	0.491742	0.000555
	Zn220	Zn	0.007629	0.742760	0.500353
	Zn221	Zn	0.008671	0.240862	0.500264
	Zn222	Zn	0.008133	0.491597	0.750708
	Zn223	Zn	0.009639	0.492654	0.250039
	Zn224	Zn	0.507220	0.740695	0.000714
	Zn225	Zn	0.506291	0.241679	0.000083
	Zn226	Zn	0.757826	-0.007508	0.499599
	Zn227	Zn	0.257719	-0.008025	0.499881
	N228	N	0.422315	0.955124	0.678439
	N229	N	0.594332	0.026394	0.679651
	N230	N	0.593139	0.956229	0.320679
	N231	N	0.420277	0.027602	0.320580
	N232	N	0.686645	0.405512	0.965334
	N233	N	0.688819	0.579608	0.035640
	N234	N	0.329750	0.576451	0.964449
	N235	N	0.324533	0.401820	0.035811
	N236	N	0.973219	0.672598	0.413243
	N237	N	0.041664	0.674747	0.589815
	N238	N	0.972609	0.311177	0.586899
	N239	N	0.044357	0.310085	0.412404
	N240	N	0.972448	0.405194	0.679892
	N241	N	0.043137	0.578725	0.680858
	N242	N	0.973889	0.578962	0.320131
	N243	N	0.044865	0.404498	0.319342
	N244	N	0.422328	0.669624	0.964604
	N245	N	0.595093	0.671881	0.035921
	N246	N	0.592969	0.312715	0.964908
	N247	N	0.418320	0.309244	0.036021
	N248	N	0.689028	0.957778	0.411395
	N249	N	0.688134	0.026755	0.587180
	N250	N	0.325929	0.957269	0.588787
	N251	N	0.327115	0.027193	0.412851
	N252	N	0.922613	0.456628	0.179937
	N253	N	0.096224	0.527945	0.180482
	N254	N	0.093196	0.456191	0.822279
	N255	N	0.920904	0.526779	0.819940
	N256	N	0.189496	0.903595	0.464768
	N257	N	0.187431	0.078113	0.534898
	N258	N	0.825859	0.081468	0.465425
	N259	N	0.828373	0.906087	0.535510
	N260	N	0.472735	0.172725	0.911524
	N261	N	0.541317	0.171376	0.086555
	N262	N	0.471742	0.809174	0.088691
	N263	N	0.543123	0.811387	0.914216
	N264	N	0.471104	0.902870	0.181699
	N265	N	0.542038	0.077059	0.178915
	N266	N	0.471960	0.077171	0.820322
	N267	N	0.543632	0.905170	0.820673
	N268	N	0.920979	0.172343	0.464624
	N269	N	0.093811	0.169971	0.535685
	N270	N	0.095866	0.811073	0.464536
	N271	N	0.921294	0.812827	0.535639
	N272	N	0.188831	0.457370	0.912431
	N273	N	0.190509	0.526512	0.089124
	N274	N	0.827434	0.456814	0.088365
	N275	N	0.827547	0.527114	0.913346
	O276	O	0.531912	0.329071	0.480770
	H277	H	0.527969	0.318672	0.468407
	H278	H	0.516781	0.324165	0.474958
	O279	O	1.207508	1.181705	1.011778
	H280	H	1.207267	1.187936	1.004722
	H281	H	1.200246	1.194593	1.001497
	O282	O	0.870149	0.812839	-0.100115
	H283	H	0.883290	0.827709	-0.080946
	H284	H	0.887399	0.822990	-0.103123
	O285	O	-0.206798	-0.036596	0.876392
	H286	H	-0.211539	-0.025699	0.863786
	H287	H	-0.212931	-0.030684	0.880043
	O288	O	0.084400	-0.021865	0.020224
	H289	H	0.070854	-0.015777	0.019329
	H290	H	0.087376	-0.034726	0.034470
	O291	O	1.100387	1.195067	-0.088938
	H292	H	1.093940	1.179698	-0.094571
	H293	H	1.079177	1.184810	-0.077325
	O294	O	-0.202734	1.202126	-0.031391
	H295	H	-0.184755	1.205692	-0.022529
	H296	H	-0.217164	1.209159	-0.024530
	O297	O	0.504985	0.278342	0.575057
	H298	H	0.501868	0.267817	0.585461
	H299	H	0.504907	0.293179	0.568628
	O300	O	0.359552	0.624098	0.640820
	H301	H	0.354671	0.632353	0.631882
	H302	H	0.365233	0.610004	0.635065
	O303	O	0.793351	0.043722	0.057689
	H304	H	0.784761	0.039859	0.086773
	H305	H	0.799317	0.051385	0.058078
	O306	O	-0.213033	0.966073	1.222813
	H307	H	-0.228824	0.941166	1.238771
	H308	H	-0.221687	0.935817	1.234452
	O309	O	0.285863	0.527572	0.549857
	H310	H	0.293273	0.520440	0.544943
	H311	H	0.288722	0.515158	0.557549
	O312	O	0.489810	0.697450	0.284969
	H313	H	0.470814	0.679790	0.285647
	H314	H	0.479989	0.722295	0.255629
	O315	O	0.631473	-0.398128	1.588074
	H316	H	0.645848	-0.380972	1.599172
	H317	H	0.616381	-0.383100	1.582125
	O318	O	-0.278339	0.464337	-0.707114
	H319	H	-0.286764	0.468002	-0.695334
	H320	H	-0.256080	0.458987	-0.724751
	O321	O	0.539936	0.701213	0.706199
	H322	H	0.532535	0.725090	0.716401
	H323	H	0.543436	0.682828	0.706411
	O324	O	0.457742	0.698736	0.560944
	H325	H	0.469133	0.702364	0.570544
	H326	H	0.434358	0.701720	0.552619
	O327	O	1.010321	-0.210146	0.861460
	H328	H	1.016672	-0.216964	0.857021
	H329	H	1.015496	-0.214710	0.865250
	O330	O	0.539339	0.476668	-0.374727
	H331	H	0.530136	0.480036	-0.368095
	H332	H	0.552906	0.475762	-0.369943
	O333	O	1.206847	1.011603	0.876511
	H334	H	1.203201	1.007101	0.892793
	H335	H	1.204384	1.006133	0.888757
	O336	O	1.208670	-0.199374	0.809451
	H337	H	1.194699	-0.201704	0.796211
	H338	H	1.203135	-0.173948	0.815314
	O339	O	0.596346	0.497013	0.398354
	H340	H	0.586550	0.500315	0.404118
	H341	H	0.599754	0.498962	0.395032
	O342	O	0.606900	0.639674	0.686428
	H343	H	0.590642	0.632620	0.677530
	H344	H	0.623252	0.652798	0.679225
	O345	O	0.150082	-0.053382	0.114653
	H346	H	0.162054	-0.057076	0.129436
	H347	H	0.155316	-0.068085	0.124085
	O348	O	0.613557	0.422237	0.594484
	H349	H	0.610782	0.441263	0.602441
	H350	H	0.601283	0.426942	0.584542
	O351	O	1.158652	0.787655	0.019683
	H352	H	1.164166	0.780104	0.010803
	H353	H	1.160512	0.788927	0.022791
	O354	O	0.722048	0.280226	0.473348
	H355	H	0.705743	0.279070	0.481629
	H356	H	0.740597	0.255455	0.461053
	O357	O	0.803004	0.778428	1.015639
	H358	H	0.791320	0.777593	1.000907
	H359	H	0.794708	0.774684	1.005675
	O360	O	-0.074965	1.004211	0.904952
	H361	H	-0.070383	1.010993	0.897438
	H362	H	-0.085766	1.015161	0.908736
	O363	O	0.620174	0.503263	0.510129
	H364	H	0.616706	0.502080	0.508061
	H365	H	0.624187	0.503036	0.531225
	O366	O	0.983058	0.207942	0.789162
	H367	H	0.964659	0.207413	0.789433
	H368	H	0.959009	0.224462	0.772613
	O369	O	0.529385	0.506992	0.705249
	H370	H	0.526200	0.511539	0.706664
	H371	H	0.518004	0.511945	0.707304
	O372	O	0.295536	0.370975	0.705714
	H373	H	0.298101	0.367052	0.682423
	H374	H	0.271679	0.345015	0.730082
	O375	O	-0.054375	1.046025	1.205441
	H376	H	-0.031609	1.021382	1.193160
	H377	H	-0.100718	1.029348	1.217653
	O378	O	0.983103	0.774601	0.218942
	H379	H	0.993042	0.753559	0.228127
	H380	H	0.956610	0.766746	0.226693
	O381	O	1.051272	-0.142135	0.136068
	H382	H	1.060503	-0.126102	0.138792
	H383	H	1.054097	-0.153406	0.128552
	O384	O	-0.013383	0.074140	0.976695
	H385	H	-0.019768	0.075646	0.971726
	H386	H	-0.011648	0.049967	0.981600
	O387	O	-0.136312	1.189916	1.136981
	H388	H	-0.127129	1.185366	1.122139
	H389	H	-0.126261	1.187357	1.146330
	O390	O	0.025257	0.194633	1.201476
	H391	H	0.011974	0.183274	1.215702
	H392	H	0.011597	0.187644	1.207643
	O393	O	0.246149	1.225921	-0.237277
	H394	H	0.242386	1.221728	-0.215268
	H395	H	0.239083	1.202680	-0.221239
	O396	O	0.568653	0.298127	0.697367
	H397	H	0.544650	0.314335	0.693021
	H398	H	0.560874	0.290873	0.696320
	O399	O	0.703126	0.644481	0.347170
	H400	H	0.690476	0.617807	0.363495
	H401	H	0.691494	0.648072	0.371827
	O402	O	0.183540	0.165190	1.180374
	H403	H	0.185609	0.172650	1.136115
	H404	H	0.138443	0.180441	1.189159
	O405	O	0.711629	0.646895	-0.371488
	H406	H	0.712386	0.660470	-0.376000
	H407	H	0.704703	0.639877	-0.382997
	O408	O	0.813085	0.800046	1.199010
	H409	H	0.792180	0.773915	1.198448
	H410	H	0.825416	0.785738	1.172727
	O411	O	0.331135	0.670793	0.324021
	H412	H	0.326739	0.666355	0.358388
	H413	H	0.332730	0.639166	0.313203
	O414	O	0.535042	0.281923	0.287153
	H415	H	0.546158	0.281527	0.280647
	H416	H	0.527841	0.276223	0.270524
	O417	O	0.703495	0.657109	0.491824
	H418	H	0.690489	0.655642	0.494460
	H419	H	0.713910	0.662219	0.494210
	O420	O	0.462123	0.442858	0.281482
	H421	H	0.465979	0.450604	0.298160
	H422	H	0.465290	0.435859	0.283766
	O423	O	0.025251	0.914529	-0.192568
	H424	H	0.015869	0.907201	-0.191180
	H425	H	0.019498	0.918511	-0.204733
	O426	O	0.798063	1.087857	0.787920
	H427	H	0.777094	1.101335	0.777042
	H428	H	0.784254	1.098429	0.798656
	O429	O	0.528998	0.351748	0.484437
	H430	H	0.532277	0.350116	0.474961
	H431	H	0.528235	0.355456	0.505530
	O432	O	0.198531	-0.127703	0.984672
	H433	H	0.201886	-0.130622	0.979118
	H434	H	0.193087	-0.120666	0.996414
	O435	O	-0.096434	0.188877	-0.140805
	H436	H	-0.092085	0.189761	-0.130424
	H437	H	-0.118825	0.181177	-0.156106
	O438	O	1.222386	0.015151	0.207675
	H439	H	1.231667	0.032204	0.225684
	H440	H	1.221080	0.052526	0.212725
	O441	O	0.701239	0.296396	0.302194
	H442	H	0.714109	0.313369	0.310204
	H443	H	0.682745	0.289090	0.306750
	O444	O	0.017901	0.875392	0.970380
	H445	H	0.018210	0.876159	0.989124
	H446	H	0.021775	0.869262	0.971900
	O447	O	0.288985	0.704973	0.482682
	H448	H	0.274654	0.714932	0.478321
	H449	H	0.275128	0.700815	0.489397
	O450	O	0.558198	0.563052	0.428224
	H451	H	0.541717	0.570088	0.426601
	H452	H	0.547988	0.564037	0.429526
	O453	O	0.293435	0.281523	0.532438
	H454	H	0.288155	0.284739	0.542910
	H455	H	0.291141	0.264247	0.535472
	O456	O	0.320003	0.501395	0.282247
	H457	H	0.331359	0.489870	0.293322
	H458	H	0.301549	0.492409	0.255551
	O459	O	0.359446	0.465214	0.621462
	H460	H	0.356462	0.453752	0.627345
	H461	H	0.360623	0.461092	0.612371
	O462	O	0.305507	0.408339	0.418340
	H463	H	0.306680	0.405342	0.425157
	H464	H	0.310806	0.412464	0.412681
	O465	O	1.018352	-0.027074	-0.208229
	H466	H	0.995646	-0.017695	-0.207409
	H467	H	1.021804	-0.023437	-0.204815
