data_Molecule from HDF5

_cell_length_a		16.323223
_cell_length_b		16.230594
_cell_length_c		16.106107
_cell_angle_alpha	90.288653
_cell_angle_beta	90.215511
_cell_angle_gamma	90.285150
_symmetry_space_group_name_H-M	'P 1'
_symmetry_Int_Tables_number		1

loop_
	_symmetry_equiv_pos_as_xyz
	x,y,z

loop_
	_atom_site_label
	_atom_site_type_symbol
	_atom_site_fract_x
	_atom_site_fract_y
	_atom_site_fract_z
	H0	H	0.401647	0.851968	0.714944
	H1	H	0.597708	0.181748	0.716062
	H2	H	0.595495	0.853262	0.285937
	H3	H	0.401275	0.182164	0.289804
	H4	H	0.712308	0.417534	0.836961
	H5	H	0.715901	0.618491	0.166821
	H6	H	0.284272	0.617214	0.837585
	H7	H	0.285707	0.418433	0.167063
	H8	H	0.835628	0.728889	0.402005
	H9	H	0.161567	0.734414	0.602963
	H10	H	0.836740	0.300036	0.601042
	H11	H	0.162171	0.299998	0.402281
	H12	H	0.835718	0.418913	0.714299
	H13	H	0.163611	0.614850	0.716306
	H14	H	0.835481	0.611957	0.287971
	H15	H	0.163285	0.418338	0.289134
	H16	H	0.403730	0.727802	0.835932
	H17	H	0.600690	0.732927	0.167002
	H18	H	0.595500	0.304504	0.837195
	H19	H	0.401991	0.305639	0.167408
	H20	H	0.711569	0.852207	0.401168
	H21	H	0.717035	0.179028	0.604405
	H22	H	0.282228	0.853113	0.602170
	H23	H	0.283572	0.180431	0.403701
	H24	H	0.904287	0.350491	0.210751
	H25	H	0.098542	0.681169	0.218279
	H26	H	0.094949	0.351347	0.789761
	H27	H	0.902888	0.681128	0.788688
	H28	H	0.213589	0.914755	0.337447
	H29	H	0.215407	0.118162	0.666175
	H30	H	0.783869	0.114596	0.337428
	H31	H	0.784102	0.916022	0.666591
	H32	H	0.336062	0.230980	0.902930
	H33	H	0.662625	0.234412	0.102565
	H34	H	0.337824	0.799409	0.101296
	H35	H	0.662949	0.801469	0.901462
	H36	H	0.334546	0.920371	0.212811
	H37	H	0.663014	0.116562	0.216702
	H38	H	0.335940	0.113118	0.788250
	H39	H	0.663136	0.920046	0.788494
	H40	H	0.901392	0.227341	0.336567
	H41	H	0.097539	0.229846	0.667204
	H42	H	0.094975	0.802885	0.336565
	H43	H	0.899889	0.802808	0.667053
	H44	H	0.214585	0.353397	0.900596
	H45	H	0.216556	0.680521	0.103947
	H46	H	0.783153	0.353524	0.101243
	H47	H	0.785437	0.680506	0.902207
	H48	H	0.405989	0.136295	0.602290
	H49	H	0.590193	0.899205	0.597018
	H50	H	0.587882	0.135897	0.399521
	H51	H	0.400790	0.897988	0.406163
	H52	H	0.592184	0.424921	0.121483
	H53	H	0.608018	0.607206	0.880594
	H54	H	0.397274	0.607343	0.122557
	H55	H	0.404961	0.417257	0.881522
	H56	H	0.114488	0.608030	0.414778
	H57	H	0.886385	0.606213	0.588463
	H58	H	0.114187	0.432285	0.596677
	H59	H	0.882748	0.418903	0.410785
	H60	H	0.119546	0.417726	0.602558
	H61	H	0.882544	0.604893	0.600896
	H62	H	0.115704	0.607777	0.408594
	H63	H	0.884029	0.423994	0.407905
	H64	H	0.415080	0.599395	0.114170
	H65	H	0.584890	0.598314	0.890050
	H66	H	0.594557	0.427487	0.120713
	H67	H	0.399950	0.427340	0.882711
	H68	H	0.586428	0.128866	0.421435
	H69	H	0.590766	0.900632	0.591798
	H70	H	0.412371	0.130715	0.592003
	H71	H	0.409741	0.901033	0.405983
	H72	H	0.903516	0.633054	0.089550
	H73	H	0.091897	0.397854	0.102988
	H74	H	0.097903	0.634240	0.915501
	H75	H	0.893525	0.398002	0.913754
	H76	H	0.083641	0.925551	0.617396
	H77	H	0.100951	0.109105	0.380526
	H78	H	0.907731	0.117840	0.623047
	H79	H	0.905942	0.924845	0.384707
	H80	H	0.617372	0.114170	0.910358
	H81	H	0.384863	0.110431	0.089127
	H82	H	0.614290	0.924915	0.087520
	H83	H	0.385395	0.934170	0.905602
	H84	H	0.615468	0.931617	0.098153
	H85	H	0.382325	0.108456	0.100646
	H86	H	0.615699	0.111106	0.911086
	H87	H	0.378891	0.913284	0.901101
	H88	H	0.898751	0.102156	0.620876
	H89	H	0.088012	0.099559	0.387064
	H90	H	0.095719	0.919595	0.623875
	H91	H	0.904407	0.918142	0.382705
	H92	H	0.095931	0.636438	0.904186
	H93	H	0.087381	0.403060	0.088825
	H94	H	0.904200	0.636497	0.102105
	H95	H	0.905199	0.396142	0.896307
	H96	H	0.400372	0.133916	0.591134
	H97	H	0.594750	0.898294	0.595110
	H98	H	0.605727	0.136870	0.412890
	H99	H	0.405377	0.901533	0.414008
	H100	H	0.591475	0.428530	0.120068
	H101	H	0.587198	0.622439	0.881379
	H102	H	0.414398	0.618780	0.121272
	H103	H	0.410991	0.426073	0.886395
	H104	H	0.116093	0.613642	0.411058
	H105	H	0.880428	0.616551	0.595246
	H106	H	0.114844	0.418720	0.587089
	H107	H	0.881324	0.419195	0.405476
	H108	H	0.914400	0.631710	0.095051
	H109	H	0.102298	0.398119	0.090804
	H110	H	0.087433	0.631521	0.910956
	H111	H	0.914176	0.403457	0.914279
	H112	H	0.095178	0.932665	0.618184
	H113	H	0.086150	0.116341	0.382777
	H114	H	0.916007	0.103841	0.616127
	H115	H	0.899235	0.922576	0.382236
	H116	H	0.616544	0.111691	0.907756
	H117	H	0.380210	0.119181	0.096046
	H118	H	0.618272	0.919870	0.097615
	H119	H	0.386921	0.919128	0.921816
	C120	C	0.376960	0.025491	0.624133
	C121	C	0.621162	1.007752	0.624149
	C122	C	0.620525	0.025473	0.381150
	C123	C	0.376974	1.008675	0.380367
	C124	C	0.620574	0.397337	0.011272
	C125	C	0.622403	0.639049	0.993283
	C126	C	0.379764	0.637443	0.010531
	C127	C	0.377752	0.395823	0.992978
	C128	C	0.007528	0.637626	0.381334
	C129	C	0.990676	0.639066	0.624119
	C130	C	0.008269	0.394004	0.623631
	C131	C	0.990806	0.392822	0.380028
	C132	C	0.878476	0.525201	0.123220
	C133	C	0.122362	0.508369	0.124340
	C134	C	0.121417	0.525036	0.880792
	C135	C	0.877078	0.507935	0.879922
	C136	C	0.119846	0.895860	0.510833
	C137	C	0.120761	0.137672	0.492746
	C138	C	0.878241	0.136280	0.510750
	C139	C	0.875811	0.894042	0.492759
	C140	C	0.508093	0.139477	0.880731
	C141	C	0.490735	0.141137	0.124729
	C142	C	0.508052	0.895994	0.123099
	C143	C	0.491317	0.894251	0.880251
	C144	C	0.380269	0.901393	0.677995
	C145	C	0.619064	0.132084	0.679247
	C146	C	0.616500	0.902011	0.324477
	C147	C	0.380339	0.132706	0.326529
	C148	C	0.674724	0.398368	0.886486
	C149	C	0.677836	0.638124	0.117555
	C150	C	0.323399	0.636272	0.886427
	C151	C	0.323162	0.398236	0.117681
	C152	C	0.884621	0.691777	0.382000
	C153	C	0.113192	0.695868	0.622978
	C154	C	0.885237	0.338659	0.620811
	C155	C	0.113637	0.338199	0.382506
	C156	C	0.884714	0.397593	0.677231
	C157	C	0.114284	0.636351	0.679182
	C158	C	0.884494	0.633100	0.325502
	C159	C	0.114087	0.396874	0.325840
	C160	C	0.382265	0.691666	0.885689
	C161	C	0.620402	0.694819	0.117588
	C162	C	0.616821	0.342075	0.886425
	C163	C	0.381057	0.342416	0.118040
	C164	C	0.674390	0.901752	0.381658
	C165	C	0.678078	0.130696	0.623614
	C166	C	0.320700	0.902107	0.622096
	C167	C	0.321605	0.131837	0.382927
	C168	C	0.882136	0.400559	0.175591
	C169	C	0.119480	0.631747	0.180567
	C170	C	0.116964	0.401121	0.826152
	C171	C	0.881444	0.631665	0.825486
	C172	C	0.174962	0.895921	0.386475
	C173	C	0.176740	0.136955	0.617128
	C174	C	0.822210	0.134301	0.386641
	C175	C	0.821587	0.895921	0.617269
	C176	C	0.384981	0.193354	0.882692
	C177	C	0.613811	0.196343	0.122635
	C178	C	0.385624	0.839014	0.120970
	C179	C	0.614405	0.839902	0.882002
	C180	C	0.384172	0.899008	0.176356
	C181	C	0.613888	0.138003	0.179602
	C182	C	0.384732	0.134744	0.825824
	C183	C	0.614462	0.898501	0.825666
	C184	C	0.880423	0.190419	0.386130
	C185	C	0.118480	0.192651	0.617654
	C186	C	0.116204	0.840273	0.386134
	C187	C	0.879260	0.839740	0.617421
	C188	C	0.176030	0.401921	0.881909
	C189	C	0.178304	0.631505	0.123863
	C190	C	0.822231	0.401940	0.120536
	C191	C	0.823063	0.631441	0.881889
	C192	C	0.399641	0.111699	0.601783
	C193	C	0.598512	0.921668	0.601321
	C194	C	0.599507	0.111538	0.404631
	C195	C	0.398817	0.922470	0.402183
	C196	C	0.599198	0.420181	0.098260
	C197	C	0.599930	0.615999	0.906454
	C198	C	0.402405	0.615240	0.096929
	C199	C	0.399075	0.417098	0.906136
	C200	C	0.093246	0.616224	0.404635
	C201	C	0.905208	0.616023	0.601567
	C202	C	0.094074	0.416301	0.601788
	C203	C	0.904825	0.414324	0.401751
	C204	C	0.900865	0.611500	0.101778
	C205	C	0.100295	0.421963	0.101085
	C206	C	0.100015	0.611804	0.903603
	C207	C	0.898037	0.421489	0.901904
	C208	C	0.097907	0.919089	0.597315
	C209	C	0.098348	0.114912	0.406047
	C210	C	0.900866	0.114535	0.597566
	C211	C	0.897024	0.915618	0.405771
	C212	C	0.594299	0.118658	0.903047
	C213	C	0.404664	0.119214	0.102035
	C214	C	0.593779	0.918698	0.101071
	C215	C	0.405899	0.915727	0.902977
	Zn216	Zn	0.499984	0.016897	0.752093
	Zn217	Zn	0.498693	0.018207	0.252097
	Zn218	Zn	0.749153	0.517392	0.002069
	Zn219	Zn	0.250778	0.516999	0.001814
	Zn220	Zn	-0.001861	0.767839	0.502004
	Zn221	Zn	-0.000543	0.264314	0.502310
	Zn222	Zn	-0.000268	0.516396	0.752626
	Zn223	Zn	-0.000484	0.515654	0.252376
	Zn224	Zn	0.500636	0.765723	0.001890
	Zn225	Zn	0.499142	0.269027	0.002425
	Zn226	Zn	0.749227	0.015919	0.502746
	Zn227	Zn	0.248618	0.016505	0.501870
	N228	N	0.414471	0.979087	0.679551
	N229	N	0.584044	0.054779	0.679582
	N230	N	0.583726	0.979941	0.323923
	N231	N	0.414164	0.055147	0.324847
	N232	N	0.677015	0.432134	0.965105
	N233	N	0.678978	0.603949	0.039324
	N234	N	0.321581	0.603261	0.964850
	N235	N	0.320990	0.430904	0.038951
	N236	N	0.961939	0.694532	0.416174
	N237	N	0.035491	0.697638	0.589586
	N238	N	0.963090	0.336316	0.588387
	N239	N	0.035941	0.335641	0.415477
	N240	N	0.962094	0.431428	0.679181
	N241	N	0.037169	0.601640	0.680175
	N242	N	0.962023	0.600179	0.324922
	N243	N	0.036781	0.430014	0.324037
	N244	N	0.416566	0.692508	0.963868
	N245	N	0.586634	0.695537	0.039168
	N246	N	0.583794	0.341385	0.964848
	N247	N	0.414350	0.340851	0.039781
	N248	N	0.676925	0.979426	0.416391
	N249	N	0.679505	0.052571	0.590234
	N250	N	0.318759	0.980281	0.589296
	N251	N	0.319614	0.053671	0.415539
	N252	N	0.916724	0.478004	0.177268
	N253	N	0.085787	0.553937	0.181236
	N254	N	0.083667	0.478842	0.825546
	N255	N	0.914500	0.553848	0.824232
	N256	N	0.177352	0.929920	0.465006
	N257	N	0.178227	0.103376	0.538630
	N258	N	0.821013	0.100998	0.465069
	N259	N	0.819236	0.928939	0.538842
	N260	N	0.462637	0.196349	0.916114
	N261	N	0.536133	0.198364	0.089171
	N262	N	0.463494	0.837021	0.088659
	N263	N	0.536889	0.837017	0.915124
	N264	N	0.461352	0.933750	0.177933
	N265	N	0.536369	0.104754	0.181069
	N266	N	0.462330	0.101675	0.824720
	N267	N	0.537221	0.931971	0.824594
	N268	N	0.914494	0.191827	0.464419
	N269	N	0.084392	0.193257	0.539400
	N270	N	0.082579	0.840198	0.464355
	N271	N	0.912148	0.838285	0.539001
	N272	N	0.178924	0.480158	0.915255
	N273	N	0.180051	0.553729	0.089373
	N274	N	0.819675	0.480524	0.088997
	N275	N	0.820265	0.553482	0.915000
	O276	O	0.453246	0.517599	0.452265
	H277	H	0.461675	0.526536	0.443806
	H278	H	0.449785	0.512398	0.460542
	O279	O	0.484957	0.521137	0.493968
	H280	H	0.487409	0.532220	0.503598
	H281	H	0.483734	0.516969	0.494236
	O282	O	0.496993	0.517617	0.481649
	H283	H	0.492970	0.517259	0.493034
	H284	H	0.498444	0.515336	0.481218
	O285	O	0.004900	0.972962	0.980985
	H286	H	0.013438	0.964150	0.990395
	H287	H	0.002311	0.971746	0.971392
	O288	O	0.494076	0.622621	0.553303
	H289	H	0.496362	0.628423	0.551466
	H290	H	0.484676	0.621385	0.542168
	O291	O	0.024519	0.011568	1.041319
	H292	H	0.023331	0.010417	1.049887
	H293	H	0.026462	0.010186	1.046911
	O294	O	0.532782	0.549183	0.514731
	H295	H	0.546452	0.561170	0.527857
	H296	H	0.548548	0.542695	0.503739
	O297	O	0.466664	0.546198	0.447951
	H298	H	0.472272	0.549345	0.446648
	H299	H	0.459370	0.533853	0.446342
	O300	O	0.540566	0.564580	0.511935
	H301	H	0.540469	0.562546	0.509151
	H302	H	0.531235	0.554708	0.515168
	O303	O	0.502238	0.497917	0.472460
	H304	H	0.497645	0.500029	0.462522
	H305	H	0.495368	0.496878	0.462585
	O306	O	1.013082	-0.017052	1.006077
	H307	H	1.005126	-0.024047	0.998227
	H308	H	1.006693	-0.023064	0.999613
	O309	O	0.003913	-0.012869	0.051160
	H310	H	0.006398	-0.011622	0.052682
	H311	H	0.006740	-0.005889	0.048566
	O312	O	0.514586	0.530902	0.565563
	H313	H	0.517199	0.525940	0.559606
	H314	H	0.502076	0.537979	0.559311
	O315	O	1.028272	0.013823	0.984630
	H316	H	1.022119	0.011045	0.996228
	H317	H	1.042416	0.024626	0.987521
	O318	O	-0.022294	-0.047060	-0.038013
	H319	H	-0.026197	-0.051144	-0.045190
	H320	H	-0.023373	-0.042966	-0.035878
	O321	O	0.471854	0.505947	0.504241
	H322	H	0.472463	0.510639	0.503299
	H323	H	0.474332	0.504876	0.505649
	O324	O	1.539761	-0.543583	-0.529363
	H325	H	1.540945	-0.541172	-0.524334
	H326	H	1.550996	-0.546947	-0.533426
	O327	O	0.569425	0.476862	0.494754
	H328	H	0.567072	0.477222	0.504683
	H329	H	0.558239	0.468007	0.485515
	O330	O	0.595758	0.555490	0.483432
	H331	H	0.595520	0.545862	0.493255
	H332	H	0.593633	0.561745	0.490932
	O333	O	0.436199	-0.445050	0.458189
	H334	H	0.426358	-0.451810	0.458524
	H335	H	0.439961	-0.448916	0.460235
