data_Molecule from HDF5

_cell_length_a		16.232726
_cell_length_b		16.090693
_cell_length_c		16.340559
_cell_angle_alpha	90.818676
_cell_angle_beta	89.260991
_cell_angle_gamma	89.072788
_symmetry_space_group_name_H-M	'P 1'
_symmetry_Int_Tables_number		1

loop_
	_symmetry_equiv_pos_as_xyz
	x,y,z

loop_
	_atom_site_label
	_atom_site_type_symbol
	_atom_site_fract_x
	_atom_site_fract_y
	_atom_site_fract_z
	H0	H	0.386626	0.830173	0.707158
	H1	H	0.586780	0.156670	0.710238
	H2	H	0.592162	0.830845	0.272297
	H3	H	0.386610	0.159865	0.281987
	H4	H	0.708571	0.387963	0.831169
	H5	H	0.697087	0.596547	0.155552
	H6	H	0.268242	0.597062	0.830367
	H7	H	0.267532	0.397847	0.154283
	H8	H	0.823415	0.710929	0.399342
	H9	H	0.152538	0.706588	0.591143
	H10	H	0.822964	0.287511	0.591649
	H11	H	0.151187	0.275783	0.392045
	H12	H	0.825813	0.394178	0.711107
	H13	H	0.149902	0.595669	0.711173
	H14	H	0.822924	0.596864	0.281285
	H15	H	0.149176	0.386369	0.270822
	H16	H	0.385976	0.709568	0.829060
	H17	H	0.578803	0.711546	0.155765
	H18	H	0.588808	0.276523	0.829174
	H19	H	0.387133	0.284698	0.155958
	H20	H	0.707920	0.831218	0.386761
	H21	H	0.694316	0.160417	0.590742
	H22	H	0.274418	0.829765	0.591407
	H23	H	0.269923	0.157866	0.394901
	H24	H	0.885688	0.329477	0.207015
	H25	H	0.083049	0.657457	0.210323
	H26	H	0.093336	0.331144	0.773336
	H27	H	0.883130	0.659451	0.781006
	H28	H	0.208685	0.887911	0.331079
	H29	H	0.201174	0.096713	0.655588
	H30	H	0.772485	0.094821	0.329983
	H31	H	0.767434	0.896682	0.653888
	H32	H	0.323276	0.211286	0.897630
	H33	H	0.651649	0.206860	0.088750
	H34	H	0.321591	0.787323	0.091209
	H35	H	0.649720	0.773745	0.888146
	H36	H	0.326911	0.893952	0.212887
	H37	H	0.649383	0.096921	0.208055
	H38	H	0.323901	0.097357	0.777370
	H39	H	0.649406	0.886407	0.769895
	H40	H	0.888724	0.209609	0.329889
	H41	H	0.081467	0.211028	0.657009
	H42	H	0.093435	0.772812	0.331039
	H43	H	0.888306	0.785427	0.655984
	H44	H	0.207597	0.331688	0.887152
	H45	H	0.193758	0.660312	0.092745
	H46	H	0.772688	0.329173	0.091129
	H47	H	0.769820	0.658776	0.897836
	H48	H	0.397567	0.113200	0.590326
	H49	H	0.581945	0.876369	0.575357
	H50	H	0.583520	0.113268	0.406168
	H51	H	0.401348	0.876308	0.397737
	H52	H	0.579023	0.401299	0.109023
	H53	H	0.578894	0.587663	0.875063
	H54	H	0.389039	0.605730	0.112116
	H55	H	0.390592	0.401067	0.874526
	H56	H	0.106315	0.585561	0.392145
	H57	H	0.870576	0.587574	0.591893
	H58	H	0.102829	0.409642	0.582684
	H59	H	0.868756	0.398210	0.401528
	H60	H	0.108792	0.398990	0.589996
	H61	H	0.869581	0.594929	0.589254
	H62	H	0.102520	0.584305	0.408423
	H63	H	0.870483	0.407002	0.402417
	H64	H	0.376273	0.584500	0.110320
	H65	H	0.584376	0.579199	0.876607
	H66	H	0.580994	0.403251	0.109861
	H67	H	0.397542	0.410543	0.879177
	H68	H	0.581821	0.116519	0.391704
	H69	H	0.581985	0.874012	0.582119
	H70	H	0.396486	0.108705	0.580507
	H71	H	0.401208	0.876480	0.398961
	H72	H	0.884903	0.612029	0.081025
	H73	H	0.084814	0.374683	0.078618
	H74	H	0.071508	0.613471	0.894314
	H75	H	0.899911	0.374336	0.892740
	H76	H	0.085152	0.901081	0.611019
	H77	H	0.090167	0.083140	0.374585
	H78	H	0.888313	0.081631	0.606459
	H79	H	0.899764	0.909994	0.379213
	H80	H	0.604111	0.089630	0.901092
	H81	H	0.368158	0.091153	0.092107
	H82	H	0.607576	0.889027	0.080507
	H83	H	0.370398	0.906353	0.897874
	H84	H	0.597783	0.908742	0.067698
	H85	H	0.369808	0.093938	0.084702
	H86	H	0.600784	0.076307	0.901678
	H87	H	0.369372	0.903872	0.897568
	H88	H	0.897995	0.097378	0.608395
	H89	H	0.075188	0.075380	0.381834
	H90	H	0.080195	0.909061	0.607199
	H91	H	0.904466	0.897330	0.377239
	H92	H	0.071161	0.609382	0.908572
	H93	H	0.076404	0.375089	0.086282
	H94	H	0.887742	0.616109	0.097575
	H95	H	0.905815	0.380299	0.902973
	H96	H	0.388543	0.113806	0.585623
	H97	H	0.576508	0.877359	0.579098
	H98	H	0.570372	0.110525	0.399620
	H99	H	0.399273	0.875845	0.398467
	H100	H	0.578502	0.404066	0.108105
	H101	H	0.574478	0.579821	0.879107
	H102	H	0.399991	0.585128	0.103518
	H103	H	0.403057	0.399086	0.876685
	H104	H	0.100639	0.571028	0.397828
	H105	H	0.872379	0.587895	0.584737
	H106	H	0.104060	0.396557	0.576693
	H107	H	0.868499	0.403896	0.394387
	H108	H	0.899849	0.609472	0.087154
	H109	H	0.074213	0.378192	0.076204
	H110	H	0.083335	0.615377	0.902216
	H111	H	0.893226	0.376475	0.904231
	H112	H	0.076289	0.901285	0.608621
	H113	H	0.075547	0.092858	0.376807
	H114	H	0.879410	0.096982	0.612689
	H115	H	0.891846	0.900516	0.373841
	H116	H	0.605970	0.081284	0.889555
	H117	H	0.372258	0.085438	0.086321
	H118	H	0.604898	0.911413	0.090865
	H119	H	0.370278	0.904698	0.899875
	C120	C	0.366200	0.002850	0.613665
	C121	C	0.607952	0.984847	0.610543
	C122	C	0.610543	0.004663	0.367876
	C123	C	0.368369	0.985290	0.371122
	C124	C	0.610445	0.371460	0.001231
	C125	C	0.606128	0.614508	0.984420
	C126	C	0.360707	0.619569	0.001105
	C127	C	0.366060	0.375004	0.984194
	C128	C	-0.004402	0.613299	0.372476
	C129	C	0.978799	0.617953	0.616873
	C130	C	-0.003466	0.374599	0.612970
	C131	C	0.977715	0.370904	0.369167
	C132	C	0.863586	0.502968	0.115579
	C133	C	0.105796	0.485044	0.112102
	C134	C	0.108049	0.504048	0.870062
	C135	C	0.866949	0.485510	0.872145
	C136	C	0.111730	0.871174	0.501814
	C137	C	0.108042	0.114897	0.485194
	C138	C	0.862509	0.119336	0.501404
	C139	C	0.867113	0.874999	0.484116
	C140	C	0.495629	0.114400	0.870016
	C141	C	0.478287	0.118127	0.115156
	C142	C	0.495777	0.875620	0.111230
	C143	C	0.477791	0.871697	0.867668
	C144	C	0.367392	0.879214	0.669106
	C145	C	0.605766	0.108175	0.670033
	C146	C	0.611451	0.880495	0.310527
	C147	C	0.367427	0.109970	0.318419
	C148	C	0.668684	0.370045	0.879271
	C149	C	0.659799	0.615581	0.106906
	C150	C	0.305924	0.617224	0.878976
	C151	C	0.307308	0.377826	0.105980
	C152	C	0.872341	0.672361	0.377216
	C153	C	0.102427	0.671148	0.613209
	C154	C	0.872518	0.322951	0.611499
	C155	C	0.101557	0.313200	0.370661
	C156	C	0.874115	0.375910	0.671504
	C157	C	0.101427	0.615517	0.672556
	C158	C	0.872068	0.615160	0.318868
	C159	C	0.100499	0.368243	0.310463
	C160	C	0.364763	0.673379	0.878467
	C161	C	0.600906	0.672826	0.106932
	C162	C	0.609374	0.314107	0.878498
	C163	C	0.366800	0.321469	0.107037
	C164	C	0.668932	0.880537	0.367507
	C165	C	0.659278	0.110140	0.610563
	C166	C	0.311614	0.878877	0.611488
	C167	C	0.309348	0.108964	0.374685
	C168	C	0.865940	0.378827	0.169726
	C169	C	0.103054	0.608492	0.171308
	C170	C	0.110878	0.380435	0.812114
	C171	C	0.864734	0.609740	0.818088
	C172	C	0.169972	0.868912	0.379792
	C173	C	0.162739	0.115516	0.607213
	C174	C	0.809433	0.115751	0.378845
	C175	C	0.807805	0.877527	0.605666
	C176	C	0.372344	0.172630	0.875067
	C177	C	0.602128	0.171084	0.110519
	C178	C	0.371407	0.823215	0.111196
	C179	C	0.600669	0.812188	0.868172
	C180	C	0.374118	0.876368	0.171844
	C181	C	0.601033	0.116241	0.169941
	C182	C	0.372723	0.115952	0.815216
	C183	C	0.600409	0.868195	0.808995
	C184	C	0.867650	0.172611	0.378813
	C185	C	0.103166	0.172432	0.607961
	C186	C	0.112523	0.811737	0.379887
	C187	C	0.868151	0.822145	0.607023
	C188	C	0.168158	0.380835	0.868556
	C189	C	0.157981	0.610146	0.112569
	C190	C	0.809883	0.378707	0.111845
	C191	C	0.808361	0.609421	0.876206
	C192	C	0.387813	0.089385	0.591898
	C193	C	0.586457	0.898329	0.586180
	C194	C	0.585879	0.090943	0.392100
	C195	C	0.393389	0.898823	0.392281
	C196	C	0.586604	0.395794	0.086797
	C197	C	0.585417	0.589565	0.898965
	C198	C	0.381933	0.597958	0.086523
	C199	C	0.390201	0.396937	0.898922
	C200	C	0.080815	0.587788	0.393516
	C201	C	0.893072	0.596478	0.595070
	C202	C	0.082807	0.395827	0.589816
	C203	C	0.891715	0.395513	0.392604
	C204	C	0.884655	0.589857	0.094637
	C205	C	0.084854	0.398440	0.087368
	C206	C	0.082695	0.590371	0.894539
	C207	C	0.892253	0.399340	0.893832
	C208	C	0.087463	0.896426	0.586851
	C209	C	0.086578	0.090775	0.399818
	C210	C	0.882733	0.098281	0.586934
	C211	C	0.891630	0.896434	0.398899
	C212	C	0.581437	0.089758	0.891069
	C213	C	0.392513	0.096682	0.093834
	C214	C	0.581187	0.896984	0.086832
	C215	C	0.392300	0.897421	0.891598
	Zn216	Zn	0.487302	-0.007072	0.739301
	Zn217	Zn	0.488288	-0.004738	0.241231
	Zn218	Zn	0.737767	0.493691	-0.007060
	Zn219	Zn	0.234022	0.495901	-0.008161
	Zn220	Zn	-0.011402	0.744602	0.493331
	Zn221	Zn	-0.013405	0.246370	0.493500
	Zn222	Zn	-0.012603	0.494297	0.742897
	Zn223	Zn	-0.013771	0.492785	0.241417
	Zn224	Zn	0.484816	0.745817	-0.008446
	Zn225	Zn	0.487466	0.244450	-0.006946
	Zn226	Zn	0.735809	-0.004302	0.491484
	Zn227	Zn	0.239575	-0.006992	0.492640
	N228	N	0.400475	0.957351	0.670703
	N229	N	0.574666	0.029156	0.670222
	N230	N	0.575935	0.958773	0.310397
	N231	N	0.403277	0.031944	0.315939
	N232	N	0.669359	0.404858	0.956604
	N233	N	0.663170	0.579958	0.029650
	N234	N	0.303029	0.584556	0.956391
	N235	N	0.306983	0.410512	0.028644
	N236	N	0.950092	0.671592	0.409754
	N237	N	0.025186	0.672995	0.579496
	N238	N	0.949700	0.321844	0.575837
	N239	N	0.024205	0.314705	0.406275
	N240	N	0.952312	0.407649	0.672370
	N241	N	0.023353	0.583301	0.675251
	N242	N	0.949560	0.579080	0.315823
	N243	N	0.022563	0.403371	0.309376
	N244	N	0.397967	0.675165	0.955454
	N245	N	0.568301	0.672096	0.029701
	N246	N	0.573918	0.314711	0.955621
	N247	N	0.402646	0.319554	0.030171
	N248	N	0.668663	0.958636	0.402367
	N249	N	0.660806	0.032436	0.574284
	N250	N	0.310678	0.956811	0.577815
	N251	N	0.309823	0.030376	0.406730
	N252	N	0.898446	0.457143	0.172360
	N253	N	0.071348	0.529659	0.171018
	N254	N	0.074341	0.458226	0.812854
	N255	N	0.900717	0.531695	0.815427
	N256	N	0.169470	0.905200	0.456543
	N257	N	0.165736	0.080307	0.529892
	N258	N	0.806045	0.083257	0.456133
	N259	N	0.807000	0.909760	0.528076
	N260	N	0.449765	0.171916	0.908219
	N261	N	0.524715	0.172561	0.077180
	N262	N	0.447894	0.822547	0.073938
	N263	N	0.523287	0.814021	0.903770
	N264	N	0.452381	0.908224	0.171814
	N265	N	0.523088	0.084359	0.173216
	N266	N	0.450465	0.080305	0.812207
	N267	N	0.523129	0.904534	0.808683
	N268	N	0.899675	0.175197	0.456151
	N269	N	0.069747	0.172117	0.531013
	N270	N	0.077031	0.812774	0.456981
	N271	N	0.904439	0.820425	0.530487
	N272	N	0.166516	0.458787	0.903900
	N273	N	0.159863	0.532360	0.076489
	N274	N	0.807947	0.456985	0.079136
	N275	N	0.809461	0.531121	0.908831
	O276	O	0.950418	-0.014021	1.008787
	H277	H	0.960120	-0.014041	1.012742
	H278	H	0.954306	-0.006154	1.007222
	O279	O	0.538372	0.389407	0.491384
	H280	H	0.546477	0.374700	0.481487
	H281	H	0.545713	0.396415	0.485314
	O282	O	0.437422	0.523218	0.484307
	H283	H	0.431327	0.512280	0.483443
	H284	H	0.440134	0.529218	0.481135
	O285	O	0.483361	0.364941	0.546603
	H286	H	0.476308	0.361129	0.537503
	H287	H	0.496523	0.363766	0.540669
	O288	O	0.451317	0.567451	0.553593
	H289	H	0.452390	0.563847	0.558579
	H290	H	0.452431	0.570559	0.555479
	O291	O	0.007621	-0.093605	1.051827
	H292	H	0.003311	-0.098440	1.049030
	H293	H	0.005944	-0.097215	1.049636
	O294	O	0.415257	1.490291	0.383023
	H295	H	0.414214	1.492259	0.376053
	H296	H	0.401986	1.501132	0.375968
	O297	O	0.939712	1.010210	-0.123619
	H298	H	0.954815	1.003895	-0.138648
	H299	H	0.933947	1.000083	-0.123420
	O300	O	0.557140	0.418057	0.444164
	H301	H	0.547633	0.412477	0.442327
	H302	H	0.553690	0.429140	0.453453
	O303	O	0.618184	0.538048	0.470747
	H304	H	0.631748	0.528175	0.471955
	H305	H	0.617888	0.553973	0.474811
	O306	O	0.879008	0.890273	1.050916
	H307	H	0.870518	0.884568	1.045030
	H308	H	0.875736	0.899772	1.061575
	O309	O	0.460835	0.507371	0.470256
	H310	H	0.457392	0.509408	0.481382
	H311	H	0.458693	0.511146	0.468669
	O312	O	0.938447	0.897116	0.971079
	H313	H	0.926783	0.893681	0.958504
	H314	H	0.939491	0.901184	0.988118
	O315	O	0.898458	0.991912	0.150137
	H316	H	0.900472	0.986417	0.151527
	H317	H	0.893137	0.987169	0.151814
	O318	O	0.611177	0.411140	0.411103
	H319	H	0.616456	0.416395	0.409633
	H320	H	0.608645	0.406012	0.410252
	O321	O	0.605226	0.540509	0.563015
	H322	H	0.630771	0.539490	0.568211
	H323	H	0.587648	0.550796	0.552712
	O324	O	-0.125979	1.003886	0.895849
	H325	H	-0.123332	1.009346	0.907950
	H326	H	-0.122486	1.010953	0.893713
	O327	O	-0.009472	0.995397	0.973132
	H328	H	-0.022640	1.000491	0.970748
	H329	H	-0.006931	0.998024	0.967966
	O330	O	0.042458	-0.055745	-0.018692
	H331	H	0.047046	-0.066921	-0.026061
	H332	H	0.045310	-0.056804	-0.010620
	O333	O	0.590107	0.400169	0.479074
	H334	H	0.595972	0.405203	0.482505
	H335	H	0.590428	0.406311	0.479434
	O336	O	-0.106222	0.083638	-0.178666
	H337	H	-0.125330	0.095159	-0.183174
	H338	H	-0.112750	0.089831	-0.175812
	O339	O	-0.009235	0.130274	0.109765
	H340	H	-0.002136	0.130900	0.097471
	H341	H	-0.003694	0.127389	0.118389
	O342	O	0.565365	0.539665	0.475417
	H343	H	0.564756	0.528591	0.478956
	H344	H	0.568524	0.530662	0.485856
	O345	O	0.064686	1.052111	0.966548
	H346	H	0.053162	1.053169	0.960949
	H347	H	0.079086	1.048475	0.972098
	O348	O	0.120552	-0.187874	0.926595
	H349	H	0.115594	-0.183508	0.923785
	H350	H	0.135759	-0.194952	0.933621
	O351	O	0.431736	0.489675	0.552108
	H352	H	0.428722	0.488932	0.565557
	H353	H	0.440564	0.462211	0.551733
	O354	O	0.467185	0.428436	0.633770
	H355	H	0.474414	0.422299	0.636821
	H356	H	0.468847	0.431745	0.616802
	O357	O	1.058719	0.920438	-0.040053
	H358	H	1.077031	0.916047	-0.030832
	H359	H	1.059248	0.930399	-0.037275
	O360	O	1.118225	0.034028	0.853157
	H361	H	1.105163	0.028966	0.851849
	H362	H	1.124789	0.021077	0.845998
	O363	O	0.429107	0.541727	0.627985
	H364	H	0.426139	0.537147	0.634270
	H365	H	0.435765	0.522562	0.627616
	O366	O	1.045752	1.046197	0.115210
	H367	H	1.036445	1.048761	0.101242
	H368	H	1.039452	1.059140	0.127949
	O369	O	1.403739	0.593907	0.435201
	H370	H	1.397645	0.606404	0.429872
	H371	H	1.399884	0.591135	0.433411
	O372	O	0.403131	0.493717	0.517118
	H373	H	0.400137	0.503537	0.526915
	H374	H	0.414148	0.508629	0.525633
	O375	O	1.032697	0.022351	1.051793
	H376	H	1.024383	0.029986	1.057036
	H377	H	1.031825	0.025313	1.049778
	O378	O	-0.098661	0.933571	-0.001172
	H379	H	-0.092710	0.930145	-0.003011
	H380	H	-0.084960	0.918596	-0.009774
	O381	O	0.456029	0.540427	0.533936
	H382	H	0.460839	0.549469	0.544550
	H383	H	0.437389	0.531742	0.531204
	O384	O	0.981274	1.075181	0.050689
	H385	H	0.977645	1.063382	0.055495
	H386	H	0.988258	1.071782	0.057903
	O387	O	0.930691	0.168793	1.028408
	H388	H	0.934580	0.161752	1.033463
	H389	H	0.933636	0.179104	1.027840
	O390	O	1.147484	1.000650	-0.026916
	H391	H	1.148490	1.005445	-0.011745
	H392	H	1.153977	0.999437	-0.035245
	O393	O	0.414390	0.522533	0.333774
	H394	H	0.416447	0.537267	0.331893
	H395	H	0.409549	0.524261	0.325785
