data_Molecule from HDF5

_cell_length_a		16.296516
_cell_length_b		16.026125
_cell_length_c		16.274348
_cell_angle_alpha	89.649964
_cell_angle_beta	89.785453
_cell_angle_gamma	90.140013
_symmetry_space_group_name_H-M	'P 1'
_symmetry_Int_Tables_number		1

loop_
	_symmetry_equiv_pos_as_xyz
	x,y,z

loop_
	_atom_site_label
	_atom_site_type_symbol
	_atom_site_fract_x
	_atom_site_fract_y
	_atom_site_fract_z
	H0	H	0.395963	0.833417	0.720208
	H1	H	0.596623	0.164346	0.713248
	H2	H	0.596486	0.832587	0.290496
	H3	H	0.399668	0.163885	0.288154
	H4	H	0.717559	0.397624	0.842118
	H5	H	0.714817	0.599575	0.166981
	H6	H	0.282414	0.600649	0.841609
	H7	H	0.282005	0.395578	0.167635
	H8	H	0.832841	0.709064	0.407314
	H9	H	0.160908	0.714082	0.601881
	H10	H	0.833299	0.282302	0.601903
	H11	H	0.162583	0.286583	0.408480
	H12	H	0.835958	0.393279	0.724229
	H13	H	0.161969	0.599008	0.718864
	H14	H	0.835360	0.598974	0.287541
	H15	H	0.160477	0.396448	0.288821
	H16	H	0.400897	0.714002	0.839974
	H17	H	0.595296	0.710076	0.168627
	H18	H	0.596702	0.288106	0.838353
	H19	H	0.403230	0.284597	0.168524
	H20	H	0.710725	0.832328	0.402138
	H21	H	0.711539	0.162595	0.600279
	H22	H	0.280645	0.833322	0.604058
	H23	H	0.284125	0.164595	0.401461
	H24	H	0.898804	0.331634	0.219659
	H25	H	0.098444	0.662936	0.217658
	H26	H	0.101287	0.332170	0.791764
	H27	H	0.898783	0.661672	0.787257
	H28	H	0.214873	0.895896	0.340286
	H29	H	0.214830	0.101967	0.663493
	H30	H	0.781678	0.100098	0.338917
	H31	H	0.778170	0.893212	0.664905
	H32	H	0.333762	0.211011	0.907487
	H33	H	0.663665	0.210442	0.097769
	H34	H	0.335159	0.782175	0.103927
	H35	H	0.663565	0.785829	0.906134
	H36	H	0.335576	0.895691	0.220918
	H37	H	0.661813	0.098731	0.218398
	H38	H	0.335769	0.102089	0.785458
	H39	H	0.660540	0.896496	0.784289
	H40	H	0.899417	0.214055	0.338487
	H41	H	0.094071	0.207808	0.666866
	H42	H	0.093537	0.785240	0.338383
	H43	H	0.896854	0.781422	0.667552
	H44	H	0.212146	0.332785	0.906628
	H45	H	0.213488	0.662152	0.105259
	H46	H	0.782352	0.332731	0.107005
	H47	H	0.785134	0.662991	0.902972
	H48	H	0.408672	0.116309	0.596249
	H49	H	0.579412	0.879867	0.599881
	H50	H	0.603014	0.123151	0.402912
	H51	H	0.403161	0.881119	0.418815
	H52	H	0.594373	0.403939	0.121987
	H53	H	0.590644	0.594925	0.886846
	H54	H	0.393189	0.579819	0.122069
	H55	H	0.400001	0.400198	0.884252
	H56	H	0.116147	0.591218	0.405127
	H57	H	0.880322	0.594951	0.596164
	H58	H	0.113540	0.405701	0.597089
	H59	H	0.882528	0.412168	0.410456
	H60	H	0.115564	0.404188	0.602740
	H61	H	0.885513	0.580876	0.593298
	H62	H	0.115160	0.594395	0.412838
	H63	H	0.878563	0.402271	0.406095
	H64	H	0.417185	0.584245	0.114482
	H65	H	0.597021	0.592061	0.885271
	H66	H	0.591453	0.407430	0.120082
	H67	H	0.399578	0.413141	0.887412
	H68	H	0.578377	0.115627	0.403018
	H69	H	0.587949	0.881330	0.585734
	H70	H	0.404222	0.116602	0.590615
	H71	H	0.398496	0.877219	0.408116
	H72	H	0.908737	0.614620	0.094440
	H73	H	0.090869	0.379059	0.094104
	H74	H	0.094474	0.618918	0.909610
	H75	H	0.911525	0.377752	0.908451
	H76	H	0.091328	0.914574	0.617377
	H77	H	0.088453	0.093563	0.385098
	H78	H	0.896363	0.089608	0.621628
	H79	H	0.901792	0.894870	0.382545
	H80	H	0.615255	0.093652	0.908749
	H81	H	0.379328	0.099491	0.099371
	H82	H	0.617991	0.903035	0.103210
	H83	H	0.382481	0.907644	0.911514
	H84	H	0.615066	0.903210	0.091807
	H85	H	0.384823	0.088077	0.088898
	H86	H	0.614302	0.090557	0.907965
	H87	H	0.383028	0.906660	0.913422
	H88	H	0.902923	0.079192	0.615424
	H89	H	0.094743	0.092682	0.383090
	H90	H	0.081273	0.905219	0.617355
	H91	H	0.894752	0.911143	0.385513
	H92	H	0.087302	0.615388	0.909324
	H93	H	0.094337	0.376710	0.099342
	H94	H	0.902913	0.617436	0.096243
	H95	H	0.911566	0.382426	0.922310
	H96	H	0.402107	0.117924	0.596043
	H97	H	0.595572	0.875711	0.599144
	H98	H	0.591343	0.113167	0.423948
	H99	H	0.410354	0.880974	0.408915
	H100	H	0.589521	0.403630	0.121112
	H101	H	0.592369	0.587652	0.889267
	H102	H	0.403619	0.603821	0.125782
	H103	H	0.410842	0.406439	0.888879
	H104	H	0.112853	0.586528	0.411664
	H105	H	0.879565	0.584803	0.606621
	H106	H	0.115768	0.399562	0.598298
	H107	H	0.881453	0.402809	0.417396
	H108	H	0.907610	0.617632	0.099803
	H109	H	0.087997	0.379100	0.100408
	H110	H	0.091241	0.615433	0.915660
	H111	H	0.899947	0.377303	0.915932
	H112	H	0.093360	0.902229	0.622083
	H113	H	0.090683	0.087194	0.386052
	H114	H	0.909946	0.091353	0.618768
	H115	H	0.911267	0.907324	0.389504
	H116	H	0.616385	0.092820	0.905549
	H117	H	0.381411	0.083698	0.104915
	H118	H	0.612520	0.913116	0.098186
	H119	H	0.383566	0.909178	0.912396
	C120	C	0.375238	0.007569	0.624353
	C121	C	0.617462	0.988958	0.622819
	C122	C	0.619175	0.007299	0.381240
	C123	C	0.376303	0.989425	0.381995
	C124	C	0.620321	0.377067	0.012479
	C125	C	0.621449	0.620266	0.995452
	C126	C	0.376356	0.619851	0.012721
	C127	C	0.375856	0.376495	0.995392
	C128	C	0.006534	0.619309	0.381522
	C129	C	0.989695	0.617827	0.626414
	C130	C	0.006897	0.373604	0.628206
	C131	C	0.988993	0.376704	0.382912
	C132	C	0.877207	0.506422	0.126155
	C133	C	0.119560	0.488045	0.126135
	C134	C	0.120232	0.507092	0.883620
	C135	C	0.878689	0.488775	0.884891
	C136	C	0.117773	0.877227	0.511109
	C137	C	0.119504	0.120029	0.492750
	C138	C	0.875120	0.118139	0.510454
	C139	C	0.873695	0.874446	0.494086
	C140	C	0.507161	0.121337	0.879800
	C141	C	0.490211	0.119643	0.124999
	C142	C	0.507390	0.876105	0.127017
	C143	C	0.490428	0.877754	0.882329
	C144	C	0.376294	0.882910	0.681481
	C145	C	0.616206	0.114386	0.676250
	C146	C	0.616664	0.882384	0.327094
	C147	C	0.379345	0.114370	0.326187
	C148	C	0.677536	0.378869	0.889966
	C149	C	0.676686	0.618976	0.118169
	C150	C	0.320427	0.620068	0.890304
	C151	C	0.321090	0.376909	0.119027
	C152	C	0.882487	0.672900	0.385677
	C153	C	0.112331	0.675364	0.622627
	C154	C	0.882917	0.319128	0.624218
	C155	C	0.112834	0.322738	0.386989
	C156	C	0.884394	0.374186	0.685100
	C157	C	0.112759	0.617974	0.681271
	C158	C	0.883823	0.617744	0.326006
	C159	C	0.111820	0.377634	0.327287
	C160	C	0.379669	0.676418	0.889332
	C161	C	0.617027	0.673827	0.119082
	C162	C	0.617851	0.324054	0.888351
	C163	C	0.380698	0.321152	0.119238
	C164	C	0.673475	0.882182	0.382894
	C165	C	0.673706	0.113416	0.620279
	C166	C	0.318466	0.883151	0.624257
	C167	C	0.321559	0.114718	0.382223
	C168	C	0.878742	0.381565	0.181982
	C169	C	0.117919	0.613216	0.180149
	C170	C	0.119723	0.382079	0.829295
	C171	C	0.879686	0.612728	0.826776
	C172	C	0.175001	0.877457	0.388601
	C173	C	0.175836	0.120140	0.615273
	C174	C	0.819933	0.118799	0.387611
	C175	C	0.817441	0.874842	0.616915
	C176	C	0.383551	0.175532	0.884661
	C177	C	0.614244	0.173941	0.119821
	C178	C	0.384348	0.819766	0.124656
	C179	C	0.613909	0.822454	0.884543
	C180	C	0.384562	0.876276	0.183136
	C181	C	0.613143	0.118068	0.179745
	C182	C	0.384418	0.120644	0.824348
	C183	C	0.612545	0.877867	0.824243
	C184	C	0.878374	0.175835	0.387580
	C185	C	0.115234	0.172518	0.617009
	C186	C	0.114874	0.821972	0.387881
	C187	C	0.876376	0.818975	0.618026
	C188	C	0.175143	0.382300	0.886600
	C189	C	0.175251	0.612911	0.124424
	C190	C	0.820732	0.382099	0.125892
	C191	C	0.823108	0.613302	0.884239
	C192	C	0.398077	0.094534	0.601087
	C193	C	0.594449	0.901645	0.601335
	C194	C	0.597359	0.094779	0.403421
	C195	C	0.397809	0.902256	0.405201
	C196	C	0.598284	0.398586	0.098662
	C197	C	0.599954	0.597958	0.909329
	C198	C	0.398324	0.596360	0.098408
	C199	C	0.397191	0.399791	0.909171
	C200	C	0.092413	0.597229	0.403431
	C201	C	0.903892	0.593919	0.604972
	C202	C	0.092805	0.396304	0.606071
	C203	C	0.903134	0.399194	0.404769
	C204	C	0.899818	0.593852	0.103342
	C205	C	0.097697	0.401083	0.104471
	C206	C	0.097644	0.594231	0.905284
	C207	C	0.901136	0.401778	0.908739
	C208	C	0.095146	0.900484	0.596742
	C209	C	0.097825	0.097641	0.406878
	C210	C	0.896661	0.093825	0.596317
	C211	C	0.895817	0.897681	0.408089
	C212	C	0.593221	0.098756	0.900860
	C213	C	0.404099	0.097163	0.103934
	C214	C	0.592977	0.899530	0.104512
	C215	C	0.405183	0.901038	0.905569
	Zn216	Zn	0.497794	-0.001107	0.751413
	Zn217	Zn	0.498359	-0.001990	0.255426
	Zn218	Zn	0.749909	0.498030	0.004780
	Zn219	Zn	0.246410	0.497880	0.004934
	Zn220	Zn	-0.003214	0.747330	0.504115
	Zn221	Zn	-0.002026	0.246674	0.503278
	Zn222	Zn	-0.000592	0.496598	0.756905
	Zn223	Zn	-0.001496	0.497728	0.253116
	Zn224	Zn	0.499307	0.748190	0.003991
	Zn225	Zn	0.498998	0.248994	0.002670
	Zn226	Zn	0.745203	-0.003220	0.502038
	Zn227	Zn	0.247498	-0.000623	0.502209
	N228	N	0.410382	0.961470	0.682035
	N229	N	0.582203	0.035850	0.678200
	N230	N	0.583564	0.961197	0.326101
	N231	N	0.412634	0.035577	0.325767
	N232	N	0.679478	0.411035	0.968258
	N233	N	0.679713	0.586421	0.039991
	N234	N	0.318054	0.585738	0.968079
	N235	N	0.317782	0.410476	0.041102
	N236	N	0.959818	0.674021	0.419633
	N237	N	0.034897	0.675232	0.589195
	N238	N	0.959999	0.318473	0.589702
	N239	N	0.035432	0.321896	0.420924
	N240	N	0.962524	0.407211	0.687765
	N241	N	0.035460	0.582986	0.683599
	N242	N	0.961947	0.585278	0.323235
	N243	N	0.033897	0.410342	0.324440
	N244	N	0.413628	0.676645	0.966611
	N245	N	0.583531	0.674856	0.041742
	N246	N	0.582887	0.322981	0.965333
	N247	N	0.413892	0.320663	0.041291
	N248	N	0.675052	0.961015	0.416036
	N249	N	0.674728	0.034221	0.587775
	N250	N	0.317760	0.961678	0.589457
	N251	N	0.319522	0.035909	0.416338
	N252	N	0.912993	0.460057	0.182200
	N253	N	0.084061	0.534670	0.181534
	N254	N	0.086254	0.460774	0.827189
	N255	N	0.913662	0.534238	0.827193
	N256	N	0.177050	0.911034	0.466276
	N257	N	0.178412	0.087822	0.537114
	N258	N	0.817670	0.083672	0.465037
	N259	N	0.815490	0.908621	0.538863
	N260	N	0.460826	0.176031	0.918384
	N261	N	0.536829	0.174922	0.086364
	N262	N	0.461698	0.819310	0.090473
	N263	N	0.537147	0.822294	0.919944
	N264	N	0.462018	0.910668	0.184749
	N265	N	0.535091	0.084992	0.183180
	N266	N	0.462438	0.087931	0.820992
	N267	N	0.534839	0.911551	0.822655
	N268	N	0.911960	0.175530	0.465073
	N269	N	0.080998	0.172957	0.539823
	N270	N	0.080065	0.821770	0.465067
	N271	N	0.910784	0.818775	0.540625
	N272	N	0.175520	0.461017	0.919879
	N273	N	0.176661	0.534060	0.091445
	N274	N	0.819495	0.460921	0.091998
	N275	N	0.822562	0.535194	0.919922
	O276	O	0.999791	1.011726	-0.056358
	H277	H	0.988800	1.009930	-0.065484
	H278	H	0.998387	1.024609	-0.061580
	O279	O	0.477472	0.456562	0.578021
	H280	H	0.468694	0.448884	0.573053
	H281	H	0.479372	0.462756	0.578045
	O282	O	1.107691	0.970983	-0.164130
	H283	H	1.116974	0.959679	-0.166864
	H284	H	1.109961	0.957091	-0.159436
	O285	O	0.920394	0.066035	0.976566
	H286	H	0.921036	0.076367	0.957751
	H287	H	0.903401	0.048455	0.981640
	O288	O	0.441470	0.559420	0.446877
	H289	H	0.446451	0.567724	0.447024
	H290	H	0.452147	0.561347	0.452259
	O291	O	0.473541	0.560266	0.479031
	H292	H	0.476357	0.559812	0.479968
	H293	H	0.474293	0.558640	0.473220
	O294	O	0.581633	0.480872	0.563264
	H295	H	0.595471	0.471814	0.560510
	H296	H	0.584219	0.467132	0.567380
	O297	O	0.009406	0.081858	1.014934
	H298	H	0.010017	0.081510	1.012886
	H299	H	0.011507	0.084690	1.005466
	O300	O	0.525349	0.405668	0.513225
	H301	H	0.522519	0.404038	0.500436
	H302	H	0.514340	0.386791	0.520404
	O303	O	0.984989	0.933242	-0.015812
	H304	H	0.984914	0.928742	-0.020093
	H305	H	0.988274	0.934276	-0.005672
	O306	O	-0.051787	1.071246	1.020303
	H307	H	-0.050204	1.083725	1.020640
	H308	H	-0.044580	1.065531	1.022274
	O309	O	0.531911	0.415453	0.477476
	H310	H	0.526783	0.426542	0.476457
	H311	H	0.531758	0.399787	0.479973
	O312	O	-0.104786	-0.035721	0.026438
	H313	H	-0.104940	-0.040122	0.030920
	H314	H	-0.107103	-0.025900	0.023421
	O315	O	0.926012	-0.086534	0.070381
	H316	H	0.930719	-0.087763	0.082284
	H317	H	0.938862	-0.093080	0.071382
	O318	O	0.962940	0.960858	0.979566
	H319	H	0.965291	0.955504	0.978384
	H320	H	0.956331	0.959785	0.982879
	O321	O	0.051178	0.006584	1.045038
	H322	H	0.049705	0.017007	1.030403
	H323	H	0.044823	0.004467	1.038373
	O324	O	0.555875	0.567063	0.559403
	H325	H	0.550694	0.552376	0.562980
	H326	H	0.557958	0.565509	0.565279
	O327	O	0.011561	-0.030557	0.027753
	H328	H	0.015119	-0.030666	0.023458
	H329	H	0.014205	-0.032823	0.032709
	O330	O	0.541283	0.516112	0.439222
	H331	H	0.534196	0.518553	0.424230
	H332	H	0.535848	0.528178	0.438562
	O333	O	0.132752	0.978711	1.099969
	H334	H	0.126805	0.981289	1.090098
	H335	H	0.137549	0.990303	1.115486
	O336	O	-0.031494	0.128269	-0.065134
	H337	H	-0.032218	0.119371	-0.067784
	H338	H	-0.035602	0.139483	-0.060145
	O339	O	0.419280	0.491500	0.375943
	H340	H	0.412773	0.496660	0.377574
	H341	H	0.414941	0.491846	0.369608
	O342	O	1.046756	1.050289	1.087518
	H343	H	1.052519	1.058722	1.086572
	H344	H	1.049457	1.059227	1.094427
	O345	O	1.113471	1.014634	-0.022382
	H346	H	1.117242	1.011036	-0.017634
	H347	H	1.129216	1.010310	-0.027687
	O348	O	0.430053	0.466995	0.439951
	H349	H	0.435488	0.463873	0.445335
	H350	H	0.434511	0.480025	0.443572
	O351	O	0.430109	0.403840	0.566462
	H352	H	0.427234	0.406812	0.576466
	H353	H	0.430123	0.406521	0.553281
	O354	O	0.512564	0.560745	0.436136
	H355	H	0.507053	0.558508	0.431181
	H356	H	0.514310	0.559770	0.439020
	O357	O	0.886461	-0.089817	1.077985
	H358	H	0.892928	-0.098839	1.064729
	H359	H	0.879711	-0.096100	1.093185
	O360	O	0.467209	0.514856	0.564105
	H361	H	0.468058	0.505445	0.580378
	H362	H	0.460349	0.521380	0.560786
	O363	O	0.509120	0.598831	0.567212
	H364	H	0.511868	0.593785	0.578689
	H365	H	0.504879	0.610962	0.572350
	O366	O	1.048870	1.035878	1.047280
	H367	H	1.054088	1.040911	1.046115
	H368	H	1.049004	1.040126	1.060551
	O369	O	0.895722	-0.010196	0.924302
	H370	H	0.898098	-0.018975	0.916672
	H371	H	0.900218	-0.006354	0.930215
	O372	O	0.003837	-0.026270	-0.032622
	H373	H	-0.004785	-0.029628	-0.036939
	H374	H	-0.004793	-0.020635	-0.014539
	O375	O	1.116824	-0.125535	-0.105942
	H376	H	1.119338	-0.132367	-0.090364
	H377	H	1.105294	-0.128304	-0.103441
	O378	O	0.506651	0.536582	0.450530
	H379	H	0.521096	0.531563	0.454171
	H380	H	0.499336	0.541927	0.439791
	O381	O	0.473409	0.502728	0.457674
	H382	H	0.485411	0.502238	0.457244
	H383	H	0.463535	0.512288	0.462376
