data_Molecule from HDF5

_cell_length_a		16.562161
_cell_length_b		16.477068
_cell_length_c		16.547411
_cell_angle_alpha	90.011111
_cell_angle_beta	89.952141
_cell_angle_gamma	90.147967
_symmetry_space_group_name_H-M	'P 1'
_symmetry_Int_Tables_number		1

loop_
	_symmetry_equiv_pos_as_xyz
	x,y,z

loop_
	_atom_site_label
	_atom_site_type_symbol
	_atom_site_fract_x
	_atom_site_fract_y
	_atom_site_fract_z
	H0	H	0.402642	0.869234	0.722952
	H1	H	0.614574	0.183171	0.730501
	H2	H	0.608882	0.871967	0.282873
	H3	H	0.402675	0.187732	0.286881
	H4	H	0.728312	0.419721	0.849675
	H5	H	0.725573	0.634605	0.162094
	H6	H	0.280947	0.632042	0.849343
	H7	H	0.283141	0.422804	0.161980
	H8	H	0.847401	0.749574	0.401242
	H9	H	0.160108	0.750576	0.610564
	H10	H	0.847748	0.303862	0.612923
	H11	H	0.161113	0.308926	0.402148
	H12	H	0.847145	0.421876	0.728955
	H13	H	0.157696	0.636724	0.730507
	H14	H	0.847214	0.633810	0.283661
	H15	H	0.159915	0.424300	0.284842
	H16	H	0.397510	0.750276	0.849123
	H17	H	0.606610	0.748129	0.163269
	H18	H	0.610837	0.304504	0.849069
	H19	H	0.399202	0.306431	0.162154
	H20	H	0.725812	0.872064	0.398532
	H21	H	0.729231	0.184162	0.612031
	H22	H	0.284843	0.870572	0.607087
	H23	H	0.285834	0.186594	0.402263
	H24	H	0.897077	0.369458	0.226906
	H25	H	0.106993	0.683862	0.226060
	H26	H	0.108707	0.371048	0.782208
	H27	H	0.896715	0.685709	0.784278
	H28	H	0.222981	0.926156	0.347991
	H29	H	0.226731	0.135277	0.663129
	H30	H	0.781945	0.136689	0.348293
	H31	H	0.780478	0.921870	0.660462
	H32	H	0.346961	0.248713	0.898834
	H33	H	0.662426	0.250602	0.109294
	H34	H	0.345825	0.811681	0.107285
	H35	H	0.660245	0.804470	0.898323
	H36	H	0.347574	0.926402	0.225214
	H37	H	0.662136	0.136238	0.227277
	H38	H	0.348156	0.133832	0.781689
	H39	H	0.660686	0.920556	0.781164
	H40	H	0.899555	0.251216	0.348556
	H41	H	0.108945	0.249962	0.663657
	H42	H	0.104321	0.810682	0.347844
	H43	H	0.897276	0.806633	0.661341
	H44	H	0.223486	0.369517	0.898868
	H45	H	0.225879	0.682131	0.111572
	H46	H	0.782352	0.369180	0.109580
	H47	H	0.780108	0.684923	0.899636
	H48	H	0.423691	0.139084	0.592664
	H49	H	0.592605	0.915549	0.593985
	H50	H	0.596311	0.142057	0.417450
	H51	H	0.412697	0.916217	0.418624
	H52	H	0.587019	0.443010	0.113552
	H53	H	0.590629	0.619072	0.893165
	H54	H	0.410655	0.619276	0.119478
	H55	H	0.413888	0.439975	0.892576
	H56	H	0.116344	0.622778	0.418940
	H57	H	0.895357	0.615606	0.585235
	H58	H	0.114317	0.439066	0.593596
	H59	H	0.893899	0.438784	0.423901
	H60	H	0.113683	0.442751	0.593859
	H61	H	0.892886	0.609187	0.599034
	H62	H	0.114373	0.613424	0.417401
	H63	H	0.891470	0.445083	0.412888
	H64	H	0.412869	0.613913	0.116248
	H65	H	0.594725	0.613167	0.894519
	H66	H	0.590863	0.434458	0.117982
	H67	H	0.414765	0.436429	0.892944
	H68	H	0.593120	0.142011	0.415127
	H69	H	0.590482	0.918202	0.591689
	H70	H	0.410123	0.141771	0.588703
	H71	H	0.411087	0.913850	0.411904
	H72	H	0.908896	0.641894	0.094045
	H73	H	0.090051	0.412307	0.102429
	H74	H	0.093401	0.637961	0.921116
	H75	H	0.906858	0.414336	0.919905
	H76	H	0.093275	0.939960	0.618370
	H77	H	0.097400	0.117669	0.392862
	H78	H	0.917240	0.115283	0.615737
	H79	H	0.916533	0.942109	0.393628
	H80	H	0.614527	0.115497	0.919231
	H81	H	0.392940	0.120408	0.094605
	H82	H	0.616458	0.944776	0.097566
	H83	H	0.392388	0.941232	0.909881
	H84	H	0.620561	0.933746	0.098391
	H85	H	0.394984	0.115564	0.094809
	H86	H	0.615174	0.115007	0.915556
	H87	H	0.391398	0.933672	0.914762
	H88	H	0.915739	0.114323	0.616208
	H89	H	0.093055	0.116634	0.395725
	H90	H	0.094023	0.938376	0.618998
	H91	H	0.916674	0.938793	0.393392
	H92	H	0.093598	0.640552	0.917224
	H93	H	0.087754	0.416093	0.090989
	H94	H	0.916190	0.641257	0.100813
	H95	H	0.919367	0.415601	0.910795
	H96	H	0.413969	0.144292	0.602382
	H97	H	0.593433	0.916486	0.590259
	H98	H	0.593149	0.140104	0.418716
	H99	H	0.417832	0.916118	0.413277
	H100	H	0.596899	0.442876	0.117308
	H101	H	0.587329	0.612961	0.896822
	H102	H	0.416509	0.619582	0.116955
	H103	H	0.411863	0.437560	0.892024
	H104	H	0.117279	0.618620	0.410073
	H105	H	0.887973	0.623987	0.596499
	H106	H	0.116040	0.441423	0.596356
	H107	H	0.888431	0.432220	0.414343
	H108	H	0.917000	0.637590	0.091804
	H109	H	0.099325	0.411315	0.093866
	H110	H	0.089734	0.638878	0.918397
	H111	H	0.919708	0.420683	0.924782
	H112	H	0.095132	0.939852	0.618864
	H113	H	0.094180	0.121350	0.393284
	H114	H	0.917154	0.113874	0.614615
	H115	H	0.914064	0.940135	0.392663
	H116	H	0.616215	0.118371	0.917479
	H117	H	0.391641	0.117518	0.099207
	H118	H	0.616036	0.937737	0.088460
	H119	H	0.395119	0.940791	0.918122
	C120	C	0.384172	0.036863	0.625926
	C121	C	0.626016	1.019848	0.625555
	C122	C	0.626115	0.037540	0.383973
	C123	C	0.383474	1.020086	0.383724
	C124	C	0.624826	0.406940	0.013355
	C125	C	0.623903	0.648514	0.997950
	C126	C	0.381033	0.649682	0.014125
	C127	C	0.382173	0.405837	0.996515
	C128	C	0.012177	0.649771	0.383784
	C129	C	0.994729	0.649910	0.626988
	C130	C	0.011597	0.407220	0.627701
	C131	C	0.995180	0.407223	0.385504
	C132	C	0.881483	0.535816	0.127506
	C133	C	0.124250	0.517311	0.127124
	C134	C	0.124319	0.535477	0.884872
	C135	C	0.881863	0.520357	0.885072
	C136	C	0.124924	0.908073	0.514596
	C137	C	0.126781	0.150654	0.497870
	C138	C	0.883793	0.148910	0.512779
	C139	C	0.882505	0.907178	0.496294
	C140	C	0.512244	0.148803	0.883630
	C141	C	0.497053	0.150749	0.127115
	C142	C	0.513324	0.907823	0.126409
	C143	C	0.496238	0.905626	0.882353
	C144	C	0.383050	0.917129	0.683986
	C145	C	0.631420	0.136790	0.688810
	C146	C	0.627740	0.919016	0.323215
	C147	C	0.383503	0.139705	0.326033
	C148	C	0.686937	0.402830	0.896144
	C149	C	0.684844	0.652237	0.115275
	C150	C	0.321341	0.650910	0.895926
	C151	C	0.322978	0.404008	0.114983
	C152	C	0.894234	0.709476	0.382443
	C153	C	0.112753	0.710751	0.629789
	C154	C	0.894300	0.345207	0.630892
	C155	C	0.113749	0.348325	0.383544
	C156	C	0.893938	0.403764	0.688482
	C157	C	0.111663	0.654010	0.689044
	C158	C	0.894296	0.651947	0.324003
	C159	C	0.113264	0.405551	0.325337
	C160	C	0.379033	0.709605	0.895961
	C161	C	0.625668	0.708771	0.115851
	C162	C	0.628626	0.345369	0.895921
	C163	C	0.380761	0.346167	0.115019
	C164	C	0.685750	0.918951	0.380594
	C165	C	0.688301	0.137414	0.629950
	C166	C	0.324748	0.917629	0.626705
	C167	C	0.325130	0.139287	0.383154
	C168	C	0.879032	0.416798	0.186931
	C169	C	0.126255	0.636260	0.186593
	C170	C	0.126801	0.418000	0.822672
	C171	C	0.878646	0.638454	0.824458
	C172	C	0.183282	0.907345	0.395439
	C173	C	0.186662	0.153276	0.615785
	C174	C	0.822668	0.153698	0.395363
	C175	C	0.821071	0.904000	0.613707
	C176	C	0.394407	0.208781	0.880697
	C177	C	0.615252	0.210911	0.128130
	C178	C	0.393599	0.850421	0.126535
	C179	C	0.613486	0.844662	0.880090
	C180	C	0.394541	0.907488	0.185079
	C181	C	0.615140	0.153581	0.186686
	C182	C	0.395025	0.151815	0.821928
	C183	C	0.613856	0.902438	0.821830
	C184	C	0.881118	0.211009	0.395569
	C185	C	0.127955	0.210368	0.616232
	C186	C	0.124599	0.849755	0.395290
	C187	C	0.879519	0.846976	0.614419
	C188	C	0.183782	0.417090	0.880945
	C189	C	0.185017	0.635630	0.129769
	C190	C	0.821706	0.416779	0.128806
	C191	C	0.820485	0.637980	0.881637
	C192	C	0.408842	0.119920	0.601713
	C193	C	0.599784	0.938170	0.599188
	C194	C	0.601242	0.119961	0.409796
	C195	C	0.407098	0.936955	0.407743
	C196	C	0.599007	0.432819	0.094809
	C197	C	0.598319	0.622473	0.916134
	C198	C	0.406066	0.624721	0.096362
	C199	C	0.406669	0.430673	0.914067
	C200	C	0.094527	0.625239	0.408454
	C201	C	0.913337	0.623790	0.600878
	C202	C	0.093451	0.433581	0.601852
	C203	C	0.912722	0.431762	0.410064
	C204	C	0.906665	0.618552	0.102758
	C205	C	0.099433	0.434673	0.102550
	C206	C	0.099328	0.617605	0.911324
	C207	C	0.907942	0.438411	0.911202
	C208	C	0.100871	0.932460	0.597426
	C209	C	0.101943	0.125708	0.415196
	C210	C	0.909463	0.121992	0.594297
	C211	C	0.908233	0.933052	0.414455
	C212	C	0.593848	0.123396	0.909696
	C213	C	0.414647	0.125135	0.102862
	C214	C	0.596095	0.931878	0.101962
	C215	C	0.414181	0.931330	0.907218
	Zn216	Zn	0.504896	0.027815	0.754377
	Zn217	Zn	0.505347	0.029521	0.255517
	Zn218	Zn	0.753734	0.528120	0.006199
	Zn219	Zn	0.252672	0.526306	0.005368
	Zn220	Zn	0.003454	0.778848	0.505828
	Zn221	Zn	0.004275	0.278421	0.506056
	Zn222	Zn	0.002753	0.529115	0.756778
	Zn223	Zn	0.002645	0.526991	0.255646
	Zn224	Zn	0.503555	0.778449	0.005689
	Zn225	Zn	0.503774	0.278083	0.004668
	Zn226	Zn	0.754428	0.028202	0.504179
	Zn227	Zn	0.255085	0.029106	0.505926
	N228	N	0.419059	0.992357	0.683690
	N229	N	0.593219	0.062798	0.686102
	N230	N	0.591631	0.993881	0.325111
	N231	N	0.418820	0.064463	0.325982
	N232	N	0.684613	0.440574	0.970105
	N233	N	0.683872	0.615385	0.041012
	N234	N	0.322293	0.614428	0.970636
	N235	N	0.323562	0.440084	0.040233
	N236	N	0.968550	0.708200	0.419043
	N237	N	0.039061	0.708439	0.591928
	N238	N	0.968659	0.347177	0.593914
	N239	N	0.039489	0.349321	0.420229
	N240	N	0.967902	0.441510	0.686605
	N241	N	0.037407	0.616946	0.687388
	N242	N	0.968683	0.615516	0.324690
	N243	N	0.038573	0.441440	0.326249
	N244	N	0.415172	0.709065	0.970436
	N245	N	0.588455	0.706574	0.041716
	N246	N	0.590672	0.347698	0.969684
	N247	N	0.416534	0.346901	0.040189
	N248	N	0.684818	0.993633	0.417511
	N249	N	0.685172	0.063685	0.591464
	N250	N	0.325348	0.993111	0.591468
	N251	N	0.324779	0.063849	0.418238
	N252	N	0.915201	0.492013	0.186519
	N253	N	0.089023	0.561830	0.184891
	N254	N	0.090748	0.492893	0.824866
	N255	N	0.916083	0.564279	0.826460
	N256	N	0.183958	0.942417	0.470749
	N257	N	0.186214	0.117097	0.540976
	N258	N	0.824035	0.115813	0.469432
	N259	N	0.822894	0.940739	0.539131
	N260	N	0.468165	0.207057	0.918497
	N261	N	0.540534	0.209430	0.091945
	N262	N	0.468485	0.850439	0.090895
	N263	N	0.539254	0.846695	0.917131
	N264	N	0.469995	0.942322	0.185484
	N265	N	0.540545	0.117168	0.186294
	N266	N	0.469530	0.115177	0.823602
	N267	N	0.539959	0.939703	0.823262
	N268	N	0.918413	0.208055	0.469651
	N269	N	0.091347	0.208808	0.541828
	N270	N	0.089173	0.850058	0.470405
	N271	N	0.916623	0.848635	0.540331
	N272	N	0.182524	0.491191	0.918937
	N273	N	0.184099	0.560704	0.093436
	N274	N	0.823015	0.491953	0.092846
	N275	N	0.822443	0.563423	0.918610
	O276	O	1.225215	1.091863	0.228261
	H277	H	1.225517	1.132003	0.221354
	H278	H	1.248673	1.091315	0.258291
	O279	O	-0.020411	0.110997	0.904897
	H280	H	-0.019663	0.120438	0.901551
	H281	H	-0.014170	0.114380	0.894013
	O282	O	0.306925	0.488718	0.464015
	H283	H	0.304271	0.484959	0.472208
	H284	H	0.306281	0.492750	0.463921
	O285	O	0.220527	0.300633	0.770677
	H286	H	0.258923	0.298211	0.785567
	H287	H	0.206244	0.336853	0.783368
	O288	O	1.069518	-0.048058	0.825404
	H289	H	1.079034	-0.051803	0.812175
	H290	H	1.087269	-0.027228	0.836334
	O291	O	0.617181	0.477637	0.504264
	H292	H	0.611990	0.494663	0.491254
	H293	H	0.621429	0.478687	0.519884
	O294	O	0.281369	-0.253853	0.284169
	H295	H	0.307247	-0.258969	0.278292
	H296	H	0.259120	-0.244137	0.257544
	O297	O	0.853495	-0.092218	0.098914
	H298	H	0.828702	-0.111498	0.106913
	H299	H	0.849378	-0.089058	0.106110
	O300	O	0.205733	-0.079090	-0.200394
	H301	H	0.220299	-0.079090	-0.217346
	H302	H	0.194574	-0.089101	-0.207739
	O303	O	0.034442	0.157714	-0.082056
	H304	H	0.026384	0.148643	-0.096610
	H305	H	0.045865	0.150872	-0.078409
	O306	O	1.207855	0.120272	-0.093705
	H307	H	1.195565	0.125970	-0.071346
	H308	H	1.236233	0.142643	-0.093875
	O309	O	0.565003	0.300865	0.570781
	H310	H	0.579235	0.303156	0.565581
	H311	H	0.542050	0.298904	0.540481
	O312	O	0.063658	-0.005756	0.891723
	H313	H	0.064237	-0.005655	0.902406
	H314	H	0.069123	0.004770	0.886111
	O315	O	0.562394	0.607848	0.458748
	H316	H	0.557532	0.605444	0.464131
	H317	H	0.584767	0.600909	0.458789
	O318	O	1.178298	1.228196	0.206064
	H319	H	1.182250	1.247570	0.218213
	H320	H	1.149929	1.236005	0.215138
	O321	O	0.042759	0.908368	0.944103
	H322	H	0.053807	0.923928	0.933908
	H323	H	0.036294	0.909112	0.936735
	O324	O	0.794368	0.057894	0.794580
	H325	H	0.794776	0.052603	0.785554
	H326	H	0.783026	0.055854	0.797272
	O327	O	0.467089	0.395192	0.399081
	H328	H	0.458246	0.404936	0.382289
	H329	H	0.469889	0.415076	0.395154
	O330	O	0.390979	0.724159	0.638902
	H331	H	0.400940	0.702027	0.629132
	H332	H	0.414201	0.722281	0.636954
	O333	O	0.494228	0.486268	0.505606
	H334	H	0.506178	0.466761	0.509071
	H335	H	0.506699	0.496528	0.510875
	O336	O	0.626661	0.733319	0.381602
	H337	H	0.630773	0.735996	0.399934
	H338	H	0.633751	0.746425	0.381867
	O339	O	0.286203	0.741894	0.443639
	H340	H	0.271728	0.749577	0.421312
	H341	H	0.278394	0.755009	0.417821
	O342	O	-0.300799	0.719712	-0.305030
	H343	H	-0.306436	0.736512	-0.280047
	H344	H	-0.319821	0.697107	-0.294088
	O345	O	0.584231	0.542852	0.338807
	H346	H	0.592440	0.556148	0.341756
	H347	H	0.579211	0.557494	0.329809
	O348	O	0.475966	0.428233	0.718310
	H349	H	0.476973	0.420352	0.716281
	H350	H	0.465769	0.439261	0.717211
	O351	O	-0.163318	-0.145271	1.074314
	H352	H	-0.137382	-0.142098	1.084200
	H353	H	-0.152508	-0.137452	1.070120
	O354	O	0.813277	-0.141378	0.942269
	H355	H	0.835003	-0.121405	0.942577
	H356	H	0.811618	-0.152474	0.957733
	O357	O	0.295006	0.525366	0.717354
	H358	H	0.283045	0.548104	0.706996
	H359	H	0.280060	0.535427	0.715396
	O360	O	0.295501	0.554748	0.302057
	H361	H	0.282317	0.558404	0.293709
	H362	H	0.310379	0.553922	0.300405
	O363	O	1.130559	-0.089300	0.005161
	H364	H	1.135283	-0.082031	-0.011060
	H365	H	1.135610	-0.068676	0.008864
	O366	O	0.288759	0.318588	0.520477
	H367	H	0.277595	0.310598	0.535831
	H368	H	0.287040	0.313390	0.545029
	O369	O	-0.032602	0.074898	1.120678
	H370	H	-0.046620	0.073210	1.106970
	H371	H	-0.034532	0.082113	1.115737
	O372	O	0.048163	1.037721	0.994873
	H373	H	0.055420	1.041696	1.001409
	H374	H	0.047258	1.034694	0.993224
	O375	O	1.187599	-0.146856	0.164017
	H376	H	1.173788	-0.135255	0.144249
	H377	H	1.180147	-0.141711	0.156997
	O378	O	0.465610	0.746306	0.285889
	H379	H	0.476689	0.754044	0.297299
	H380	H	0.460563	0.766773	0.272122
	O381	O	-0.214940	1.046114	0.031686
	H382	H	-0.213261	1.041468	0.027158
	H383	H	-0.213016	1.031248	0.048906
	O384	O	0.716584	0.319433	0.481459
	H385	H	0.730998	0.339155	0.498020
	H386	H	0.725824	0.302396	0.495543
	O387	O	0.309085	0.737118	0.766226
	H388	H	0.313086	0.717572	0.783312
	H389	H	0.316458	0.714963	0.747698
	O390	O	0.021211	1.208329	1.139651
	H391	H	0.020494	1.207309	1.130834
	H392	H	0.005228	1.214726	1.143980
	O393	O	1.071920	-0.012429	0.223567
	H394	H	1.072761	0.003868	0.230252
	H395	H	1.075752	0.001193	0.231008
	O396	O	0.485015	0.562907	0.454082
	H397	H	0.499086	0.569294	0.448085
	H398	H	0.496309	0.563445	0.455604
	O399	O	0.490282	0.567431	0.670384
	H400	H	0.486605	0.554385	0.675751
	H401	H	0.490371	0.555855	0.657679
	O402	O	0.973821	0.239130	0.790325
	H403	H	0.979913	0.243969	0.784451
	H404	H	0.963426	0.251318	0.790796
	O405	O	0.862150	-0.023890	-0.066717
	H406	H	0.872298	-0.025762	-0.069323
	H407	H	0.842956	-0.020617	-0.067604
	O408	O	0.970888	0.819782	1.211786
	H409	H	0.989522	0.819520	1.206554
	H410	H	0.989313	0.813870	1.213900
	O411	O	0.732270	0.746158	0.278240
	H412	H	0.737050	0.746747	0.287028
	H413	H	0.741347	0.762997	0.278746
	O414	O	-0.002272	-0.173107	-0.109595
	H415	H	-0.012276	-0.165440	-0.117049
	H416	H	-0.001703	-0.181428	-0.118844
	O417	O	0.534107	0.310727	0.284237
	H418	H	0.528964	0.305315	0.264063
	H419	H	0.546845	0.307892	0.273660
	O420	O	1.217329	-0.190123	0.977073
	H421	H	1.232666	-0.194878	0.960687
	H422	H	1.226810	-0.185707	0.972892
	O423	O	1.076944	1.008773	0.051575
	H424	H	1.083698	1.003381	0.052783
	H425	H	1.071309	1.015086	0.065535
	O426	O	0.533304	0.737816	0.712628
	H427	H	0.516974	0.713671	0.728336
	H428	H	0.523905	0.752000	0.723113
	O429	O	0.802912	0.228552	0.806447
	H430	H	0.785110	0.228748	0.806428
	H431	H	0.826586	0.210630	0.804387
	O432	O	0.806492	0.200011	0.977547
	H433	H	0.805000	0.203689	0.977530
	H434	H	0.803161	0.204290	0.971956
	O435	O	0.660039	0.550712	0.463198
	H436	H	0.662206	0.554444	0.454430
	H437	H	0.655959	0.563949	0.449049
	O438	O	0.726036	0.500628	0.287680
	H439	H	0.709083	0.480702	0.293378
	H440	H	0.754187	0.499976	0.256743
	O441	O	0.477313	0.623562	0.505288
	H442	H	0.471419	0.630754	0.501199
	H443	H	0.479143	0.626016	0.503009
	O444	O	0.353345	0.536443	0.468834
	H445	H	0.357986	0.550847	0.453333
	H446	H	0.355236	0.543727	0.480260
	O447	O	0.297531	0.606712	0.572803
	H448	H	0.311123	0.634629	0.555720
	H449	H	0.287911	0.604151	0.542340
	O450	O	1.026819	0.167054	0.042267
	H451	H	1.029241	0.148801	0.031069
	H452	H	1.044028	0.168845	0.050243
	O453	O	0.480470	0.312879	0.718642
	H454	H	0.491859	0.291841	0.721298
	H455	H	0.481025	0.304327	0.710822
	O456	O	-0.286981	0.738710	0.529541
	H457	H	-0.285836	0.739546	0.569725
	H458	H	-0.261456	0.750273	0.540455
	O459	O	0.700780	0.381674	0.650212
	H460	H	0.694277	0.384975	0.654930
	H461	H	0.700778	0.406806	0.628353
	O462	O	0.719779	0.554587	0.719364
	H463	H	0.741733	0.560078	0.750301
	H464	H	0.701047	0.554060	0.711990
	O465	O	0.343936	0.335193	0.356498
	H466	H	0.351106	0.358052	0.361906
	H467	H	0.357491	0.341179	0.376311
	O468	O	-0.209038	-0.000655	0.218235
	H469	H	-0.226503	0.001296	0.233373
	H470	H	-0.211795	-0.015534	0.208284
	O471	O	0.201920	0.164505	0.039109
	H472	H	0.211322	0.185710	0.039242
	H473	H	0.202160	0.163528	0.057219
	O474	O	0.920744	1.188844	0.121595
	H475	H	0.912442	1.196915	0.111735
	H476	H	0.926205	1.188115	0.114999
	O477	O	0.694851	0.338300	0.318608
	H478	H	0.688465	0.333569	0.353436
	H479	H	0.683350	0.351175	0.327245
