data_Molecule from HDF5

_cell_length_a		16.589169
_cell_length_b		16.701051
_cell_length_c		16.598229
_cell_angle_alpha	89.957547
_cell_angle_beta	90.127179
_cell_angle_gamma	90.000340
_symmetry_space_group_name_H-M	'P 1'
_symmetry_Int_Tables_number		1

loop_
	_symmetry_equiv_pos_as_xyz
	x,y,z

loop_
	_atom_site_label
	_atom_site_type_symbol
	_atom_site_fract_x
	_atom_site_fract_y
	_atom_site_fract_z
	H0	H	0.386878	0.860686	0.708958
	H1	H	0.600201	0.168142	0.708840
	H2	H	0.600985	0.859689	0.263565
	H3	H	0.390652	0.169214	0.264104
	H4	H	0.715131	0.409024	0.830837
	H5	H	0.714792	0.618810	0.140708
	H6	H	0.269673	0.621289	0.830518
	H7	H	0.274139	0.410448	0.141645
	H8	H	0.838659	0.737640	0.379562
	H9	H	0.148853	0.738241	0.595219
	H10	H	0.840672	0.291178	0.592724
	H11	H	0.149079	0.293501	0.379182
	H12	H	0.838654	0.408368	0.707871
	H13	H	0.148059	0.622730	0.711842
	H14	H	0.837818	0.621409	0.264458
	H15	H	0.150034	0.412080	0.265987
	H16	H	0.384411	0.738068	0.831392
	H17	H	0.599611	0.735883	0.140721
	H18	H	0.599592	0.292223	0.830856
	H19	H	0.387601	0.291438	0.139371
	H20	H	0.717124	0.860155	0.380438
	H21	H	0.716519	0.168654	0.592728
	H22	H	0.271458	0.859932	0.591321
	H23	H	0.273579	0.168566	0.379513
	H24	H	0.887808	0.360756	0.208671
	H25	H	0.099165	0.669998	0.207863
	H26	H	0.101483	0.362131	0.761259
	H27	H	0.885552	0.668175	0.761703
	H28	H	0.212914	0.911897	0.329416
	H29	H	0.219676	0.122996	0.638492
	H30	H	0.773334	0.119440	0.330086
	H31	H	0.773191	0.909602	0.641345
	H32	H	0.341337	0.240628	0.872551
	H33	H	0.648170	0.236986	0.091234
	H34	H	0.338699	0.791545	0.092773
	H35	H	0.648063	0.791277	0.878923
	H36	H	0.338314	0.908988	0.206674
	H37	H	0.649481	0.118573	0.205682
	H38	H	0.340131	0.123322	0.759712
	H39	H	0.647972	0.906723	0.763047
	H40	H	0.887947	0.236541	0.330341
	H41	H	0.105005	0.240141	0.637106
	H42	H	0.097903	0.794820	0.330102
	H43	H	0.887206	0.791238	0.639992
	H44	H	0.215242	0.360321	0.880442
	H45	H	0.216706	0.668529	0.093020
	H46	H	0.770456	0.361230	0.093281
	H47	H	0.769474	0.668856	0.878231
	H48	H	0.406364	0.121801	0.565665
	H49	H	0.579133	0.901918	0.582874
	H50	H	0.584082	0.128661	0.385746
	H51	H	0.410018	0.904097	0.396181
	H52	H	0.586946	0.422918	0.099547
	H53	H	0.579142	0.603925	0.873831
	H54	H	0.400989	0.598015	0.096785
	H55	H	0.403110	0.434419	0.875422
	H56	H	0.109001	0.607067	0.390056
	H57	H	0.882396	0.604804	0.572381
	H58	H	0.104200	0.429670	0.572108
	H59	H	0.881170	0.428813	0.393027
	H60	H	0.105184	0.428241	0.574457
	H61	H	0.885806	0.601620	0.568913
	H62	H	0.105400	0.609887	0.403096
	H63	H	0.880731	0.421661	0.397541
	H64	H	0.411175	0.602067	0.094177
	H65	H	0.581562	0.603656	0.873836
	H66	H	0.580892	0.431846	0.094389
	H67	H	0.412184	0.422859	0.874587
	H68	H	0.573910	0.120377	0.399651
	H69	H	0.577852	0.908243	0.567171
	H70	H	0.402990	0.126725	0.575212
	H71	H	0.401390	0.902888	0.399702
	H72	H	0.909622	0.624905	0.077808
	H73	H	0.087487	0.404843	0.070037
	H74	H	0.079023	0.622521	0.903721
	H75	H	0.904301	0.404800	0.898485
	H76	H	0.082965	0.934372	0.595452
	H77	H	0.084918	0.104504	0.373155
	H78	H	0.909105	0.106157	0.597581
	H79	H	0.905851	0.927016	0.375255
	H80	H	0.607091	0.102409	0.892131
	H81	H	0.382872	0.107855	0.065331
	H82	H	0.607106	0.926548	0.079216
	H83	H	0.382358	0.930907	0.892115
	H84	H	0.607142	0.918368	0.073286
	H85	H	0.385061	0.093988	0.071964
	H86	H	0.604552	0.108206	0.902113
	H87	H	0.380218	0.919723	0.898066
	H88	H	0.903467	0.105107	0.598291
	H89	H	0.081693	0.100950	0.373742
	H90	H	0.076790	0.920974	0.597094
	H91	H	0.907754	0.926801	0.375128
	H92	H	0.083747	0.626428	0.898151
	H93	H	0.084165	0.401002	0.083346
	H94	H	0.904243	0.623926	0.068489
	H95	H	0.902352	0.403038	0.896966
	H96	H	0.413297	0.122605	0.574184
	H97	H	0.592200	0.901218	0.572293
	H98	H	0.591758	0.125948	0.403243
	H99	H	0.403466	0.900017	0.390868
	H100	H	0.575715	0.421007	0.096588
	H101	H	0.580168	0.601851	0.874401
	H102	H	0.403809	0.608551	0.099466
	H103	H	0.397913	0.422016	0.870219
	H104	H	0.103122	0.597697	0.398016
	H105	H	0.884646	0.599707	0.574254
	H106	H	0.104083	0.426245	0.572029
	H107	H	0.884087	0.428164	0.401089
	H108	H	0.899648	0.628791	0.077168
	H109	H	0.074803	0.407269	0.074434
	H110	H	0.076028	0.624250	0.895903
	H111	H	0.904484	0.404101	0.896089
	H112	H	0.090866	0.923089	0.600854
	H113	H	0.080234	0.105853	0.373897
	H114	H	0.907343	0.100942	0.596183
	H115	H	0.906600	0.925516	0.374228
	H116	H	0.601805	0.096367	0.901316
	H117	H	0.378555	0.105937	0.079894
	H118	H	0.602875	0.926918	0.069441
	H119	H	0.385329	0.929578	0.904790
	C120	C	0.373117	0.022534	0.605822
	C121	C	0.615937	1.005710	0.607488
	C122	C	0.616153	0.022855	0.364067
	C123	C	0.373079	1.005135	0.363310
	C124	C	0.614091	0.393155	-0.005847
	C125	C	0.613415	0.635342	0.976982
	C126	C	0.371358	0.636174	-0.005564
	C127	C	0.372499	0.393801	0.976562
	C128	C	0.002725	0.636945	0.364427
	C129	C	0.986088	0.635934	0.606717
	C130	C	0.002750	0.393867	0.606659
	C131	C	0.985243	0.394583	0.364737
	C132	C	0.871660	0.523892	0.107908
	C133	C	0.114880	0.506699	0.107995
	C134	C	0.113501	0.522953	0.865688
	C135	C	0.870816	0.506009	0.863870
	C136	C	0.115200	0.894039	0.494515
	C137	C	0.116118	0.136543	0.475809
	C138	C	0.873727	0.135996	0.494273
	C139	C	0.873804	0.894020	0.477797
	C140	C	0.502532	0.135791	0.863794
	C141	C	0.485020	0.135226	0.105282
	C142	C	0.502616	0.892301	0.106747
	C143	C	0.484945	0.893422	0.865133
	C144	C	0.369079	0.906709	0.667778
	C145	C	0.618539	0.121663	0.668342
	C146	C	0.619108	0.906248	0.303953
	C147	C	0.371484	0.122143	0.303653
	C148	C	0.675094	0.390662	0.877537
	C149	C	0.674340	0.637553	0.094141
	C150	C	0.309918	0.639244	0.877637
	C151	C	0.313365	0.391500	0.094484
	C152	C	0.885533	0.697151	0.361887
	C153	C	0.102264	0.697499	0.612072
	C154	C	0.886579	0.332146	0.610358
	C155	C	0.102442	0.334195	0.361526
	C156	C	0.885653	0.390620	0.667217
	C157	C	0.101824	0.639977	0.670084
	C158	C	0.885068	0.639388	0.304451
	C159	C	0.102877	0.393155	0.305193
	C160	C	0.367071	0.697512	0.877984
	C161	C	0.617061	0.695501	0.094050
	C162	C	0.617790	0.332630	0.877331
	C163	C	0.369691	0.332464	0.093169
	C164	C	0.676968	0.906463	0.361943
	C165	C	0.676399	0.122116	0.610573
	C166	C	0.311657	0.906488	0.609336
	C167	C	0.313542	0.121975	0.361261
	C168	C	0.868951	0.407440	0.168820
	C169	C	0.117624	0.623124	0.168133
	C170	C	0.118457	0.407809	0.803102
	C171	C	0.867431	0.621814	0.802080
	C172	C	0.173626	0.892763	0.376464
	C173	C	0.178716	0.140796	0.591875
	C174	C	0.813155	0.138092	0.377012
	C175	C	0.813378	0.891298	0.594646
	C176	C	0.387334	0.198866	0.857096
	C177	C	0.601800	0.196176	0.108839
	C178	C	0.385330	0.832373	0.109903
	C179	C	0.601233	0.831676	0.861179
	C180	C	0.385278	0.890607	0.166836
	C181	C	0.602519	0.137453	0.165693
	C182	C	0.386879	0.140486	0.800539
	C183	C	0.601256	0.889168	0.803434
	C184	C	0.870110	0.196456	0.377200
	C185	C	0.121751	0.199065	0.591294
	C186	C	0.116696	0.834508	0.376888
	C187	C	0.869830	0.832441	0.594077
	C188	C	0.175203	0.407099	0.862212
	C189	C	0.175854	0.622641	0.110865
	C190	C	0.810628	0.407798	0.111401
	C191	C	0.809822	0.622211	0.860122
	C192	C	0.399733	0.102917	0.579427
	C193	C	0.590269	0.924706	0.581524
	C194	C	0.590620	0.103887	0.389081
	C195	C	0.397771	0.923677	0.388418
	C196	C	0.588480	0.418065	0.075680
	C197	C	0.587872	0.610328	0.895200
	C198	C	0.397783	0.610319	0.075552
	C199	C	0.397155	0.419169	0.894861
	C200	C	0.084528	0.611996	0.389794
	C201	C	0.905294	0.609646	0.579478
	C202	C	0.083530	0.420456	0.580275
	C203	C	0.903384	0.419060	0.390165
	C204	C	0.897158	0.604770	0.081868
	C205	C	0.089457	0.425491	0.082893
	C206	C	0.087050	0.603450	0.891749
	C207	C	0.896347	0.425050	0.889945
	C208	C	0.090484	0.919051	0.576518
	C209	C	0.089884	0.110912	0.394717
	C210	C	0.899308	0.111149	0.575966
	C211	C	0.899521	0.919336	0.396186
	C212	C	0.583459	0.109510	0.890933
	C213	C	0.403522	0.109697	0.079569
	C214	C	0.584331	0.916973	0.081243
	C215	C	0.403782	0.919448	0.890986
	Zn216	Zn	0.493769	0.014095	0.735888
	Zn217	Zn	0.494623	0.013749	0.234385
	Zn218	Zn	0.742461	0.514899	-0.014440
	Zn219	Zn	0.243333	0.514615	-0.013502
	Zn220	Zn	-0.005278	0.765277	0.486266
	Zn221	Zn	-0.005442	0.265412	0.485133
	Zn222	Zn	-0.007013	0.515028	0.735541
	Zn223	Zn	-0.006599	0.515618	0.236522
	Zn224	Zn	0.493161	0.764143	-0.014607
	Zn225	Zn	0.493166	0.264402	-0.015348
	Zn226	Zn	0.744676	0.014920	0.486145
	Zn227	Zn	0.243837	0.014698	0.484979
	N228	N	0.406550	0.979905	0.665761
	N229	N	0.581764	0.048238	0.666479
	N230	N	0.581842	0.979580	0.305029
	N231	N	0.407634	0.048275	0.304512
	N232	N	0.673006	0.427672	0.951257
	N233	N	0.672266	0.600668	0.020381
	N234	N	0.312390	0.601766	0.951153
	N235	N	0.314819	0.428888	0.020927
	N236	N	0.959983	0.696288	0.398173
	N237	N	0.029195	0.695054	0.573371
	N238	N	0.960461	0.334029	0.573298
	N239	N	0.028101	0.334695	0.397736
	N240	N	0.959045	0.428187	0.665248
	N241	N	0.028308	0.602396	0.667057
	N242	N	0.959071	0.602648	0.305802
	N243	N	0.028977	0.429909	0.307074
	N244	N	0.404673	0.695701	0.951638
	N245	N	0.579878	0.694147	0.020034
	N246	N	0.580399	0.334253	0.950893
	N247	N	0.405671	0.333696	0.018762
	N248	N	0.675301	0.979985	0.398716
	N249	N	0.675183	0.048717	0.573395
	N250	N	0.314054	0.979536	0.571540
	N251	N	0.314088	0.048036	0.397490
	N252	N	0.906033	0.480916	0.166968
	N253	N	0.080514	0.549844	0.166649
	N254	N	0.080618	0.480861	0.805101
	N255	N	0.904649	0.548452	0.804204
	N256	N	0.173173	0.928650	0.450655
	N257	N	0.175481	0.102721	0.518949
	N258	N	0.814943	0.101389	0.450991
	N259	N	0.815629	0.928733	0.521138
	N260	N	0.460393	0.196140	0.895921
	N261	N	0.527515	0.195072	0.072171
	N262	N	0.459394	0.833050	0.073383
	N263	N	0.527701	0.833922	0.898614
	N264	N	0.459347	0.927118	0.165165
	N265	N	0.528914	0.100117	0.163628
	N266	N	0.459504	0.101663	0.804704
	N267	N	0.527759	0.926865	0.805577
	N268	N	0.907055	0.195386	0.451273
	N269	N	0.083408	0.196711	0.518049
	N270	N	0.081172	0.835023	0.451583
	N271	N	0.906786	0.833927	0.520217
	N272	N	0.172309	0.479769	0.900471
	N273	N	0.174497	0.549051	0.074316
	N274	N	0.811855	0.481247	0.074331
	N275	N	0.811708	0.549040	0.897752
	O276	O	0.217969	1.050035	0.206927
	H277	H	0.241618	1.056518	0.230640
	H278	H	0.216409	1.072141	0.202964
	O279	O	0.178275	0.204721	0.798719
	H280	H	0.210841	0.234422	0.768292
	H281	H	0.159099	0.183708	0.793358
	O282	O	1.220215	0.236176	1.011364
	H283	H	1.218935	0.235876	1.025697
	H284	H	1.240680	0.255922	1.019712
	O285	O	0.487217	0.519377	0.707045
	H286	H	0.490408	0.506418	0.712158
	H287	H	0.510301	0.543998	0.703935
	O288	O	0.710682	0.457795	0.275373
	H289	H	0.707938	0.442914	0.258750
	H290	H	0.716660	0.455759	0.251562
	O291	O	0.276535	0.533111	0.324988
	H292	H	0.272142	0.530306	0.336716
	H293	H	0.267095	0.534347	0.320829
	O294	O	0.963085	-0.207074	1.206955
	H295	H	0.938381	-0.212444	1.218527
	H296	H	0.941940	-0.219970	1.226714
	O297	O	-0.020526	0.914408	-0.113956
	H298	H	-0.012362	0.908306	-0.115061
	H299	H	-0.023105	0.924718	-0.103461
	O300	O	0.713542	0.291043	0.457145
	H301	H	0.744652	0.264758	0.441536
	H302	H	0.709982	0.309512	0.443271
	O303	O	0.203720	0.874176	0.901400
	H304	H	0.188847	0.884964	0.913844
	H305	H	0.199684	0.903591	0.894595
	O306	O	0.682203	0.393309	0.292670
	H307	H	0.693598	0.364291	0.275143
	H308	H	0.668796	0.400672	0.290600
	O309	O	0.511284	0.301388	0.271021
	H310	H	0.507108	0.302060	0.279997
	H311	H	0.521245	0.301341	0.252327
	O312	O	0.422774	0.401866	0.497103
	H313	H	0.432497	0.403338	0.500846
	H314	H	0.422409	0.387953	0.502243
	O315	O	0.976314	1.034675	1.203766
	H316	H	0.993703	1.051497	1.206147
	H317	H	0.998884	1.029859	1.203953
	O318	O	0.707863	0.536739	0.697550
	H319	H	0.725206	0.542178	0.715661
	H320	H	0.711387	0.555900	0.693925
	O321	O	0.276486	0.293966	0.507452
	H322	H	0.259541	0.265571	0.512247
	H323	H	0.282208	0.304811	0.536728
	O324	O	1.513408	1.371516	-0.407706
	H325	H	1.521201	1.371879	-0.400465
	H326	H	1.523596	1.369469	-0.408719
	O327	O	0.217053	-0.208119	1.211540
	H328	H	0.218475	-0.212928	1.222514
	H329	H	0.209014	-0.205150	1.218928
	O330	O	1.057671	0.078355	0.768686
	H331	H	1.054185	0.055079	0.769118
	H332	H	1.057263	0.083667	0.773704
	O333	O	0.787960	-0.198279	0.193423
	H334	H	0.782774	-0.170414	0.175064
	H335	H	0.753020	-0.223569	0.224450
	O336	O	0.710089	0.726583	0.522306
	H337	H	0.717512	0.714614	0.515639
	H338	H	0.724992	0.736429	0.527533
	O339	O	1.095635	-0.089513	1.192560
	H340	H	1.090084	-0.091262	1.186214
	H341	H	1.093461	-0.091598	1.187710
	O342	O	-0.052519	0.029653	-0.167340
	H343	H	-0.040937	0.034209	-0.172271
	H344	H	-0.050791	0.017201	-0.174155
	O345	O	-0.133852	1.235724	0.989849
	H346	H	-0.123517	1.235780	0.996660
	H347	H	-0.130862	1.226053	0.990421
	O348	O	0.056563	0.246048	-0.075348
	H349	H	0.075625	0.242463	-0.096072
	H350	H	0.076569	0.253647	-0.061888
	O351	O	1.214410	-0.011841	0.766042
	H352	H	1.225347	-0.006268	0.760146
	H353	H	1.225870	0.002565	0.770531
	O354	O	-0.039572	-0.170465	0.925084
	H355	H	-0.042387	-0.174787	0.939253
	H356	H	-0.041713	-0.164881	0.927932
	O357	O	0.277251	0.482575	0.698470
	H358	H	0.273134	0.488542	0.712716
	H359	H	0.268260	0.499157	0.683672
	O360	O	0.465990	0.729933	0.270465
	H361	H	0.436054	0.729619	0.281685
	H362	H	0.463969	0.744573	0.248061
	O363	O	0.143418	-0.072061	0.059352
	H364	H	0.146292	-0.098211	0.065602
	H365	H	0.146495	-0.061350	0.078147
	O366	O	0.765798	0.242931	0.761702
	H367	H	0.777477	0.233513	0.778451
	H368	H	0.785784	0.244194	0.781774
	O369	O	1.521189	0.535590	0.260432
	H370	H	1.526192	0.532094	0.261218
	H371	H	1.515104	0.544709	0.259639
	O372	O	0.386799	0.505408	0.266822
	H373	H	0.395986	0.523411	0.269591
	H374	H	0.361909	0.528479	0.260442
	O375	O	0.873297	0.203971	0.109653
	H376	H	0.875085	0.190300	0.091865
	H377	H	0.901528	0.201068	0.098902
	O378	O	1.229282	0.071486	-0.078735
	H379	H	1.225949	0.085734	-0.079970
	H380	H	1.231256	0.080421	-0.064108
	O381	O	0.302481	1.322155	1.293429
	H382	H	0.328327	1.330458	1.316548
	H383	H	0.315413	1.345011	1.309276
	O384	O	1.020161	0.236399	1.210912
	H385	H	1.033487	0.238604	1.212053
	H386	H	1.027412	0.255048	1.223949
	O387	O	1.035369	0.812531	-0.038397
	H388	H	1.040986	0.813272	-0.022700
	H389	H	1.028817	0.804580	-0.040834
	O390	O	0.281290	0.571673	0.543074
	H391	H	0.287963	0.582418	0.549515
	H392	H	0.273999	0.580743	0.533186
	O393	O	0.634884	0.494210	0.461349
	H394	H	0.632476	0.501275	0.467230
	H395	H	0.630733	0.502361	0.466950
	O396	O	0.212265	0.793763	0.960395
	H397	H	0.237984	0.778826	0.957400
	H398	H	0.197567	0.788849	0.965807
	O399	O	-0.208931	0.039002	0.902854
	H400	H	-0.206313	0.050712	0.899693
	H401	H	-0.212461	0.043486	0.912655
	O402	O	0.694472	0.721589	0.688480
	H403	H	0.690889	0.718055	0.661272
	H404	H	0.726370	0.746244	0.718296
	O405	O	1.201643	0.223621	1.195978
	H406	H	1.233270	0.255935	1.225256
	H407	H	1.184303	0.214290	1.180908
	O408	O	0.036057	0.012023	0.001048
	H409	H	0.042617	0.011459	0.007248
	H410	H	0.033623	0.019352	-0.000592
	O411	O	0.334027	0.506864	0.474256
	H412	H	0.334905	0.505572	0.483447
	H413	H	0.336659	0.502134	0.480131
	O414	O	0.544074	0.743977	0.449735
	H415	H	0.548896	0.747799	0.440155
	H416	H	0.550144	0.741922	0.464600
	O417	O	0.708217	0.528497	0.477688
	H418	H	0.701931	0.535948	0.489540
	H419	H	0.711375	0.515009	0.468517
	O420	O	0.451259	0.721466	0.543181
	H421	H	0.463742	0.715041	0.537040
	H422	H	0.469371	0.722015	0.570792
	O423	O	-0.028895	0.217942	0.759966
	H424	H	-0.018551	0.221564	0.754618
	H425	H	-0.020688	0.230046	0.751529
	O426	O	0.513530	0.424206	0.507559
	H427	H	0.527118	0.417063	0.502807
	H428	H	0.521823	0.433111	0.499988
	O429	O	0.864159	1.080925	1.064970
	H430	H	0.870148	1.073970	1.045521
	H431	H	0.877332	1.063072	1.086107
	O432	O	0.685412	0.350705	0.652608
	H433	H	0.700666	0.330958	0.671170
	H434	H	0.685103	0.346703	0.647698
	O435	O	-0.013213	0.986803	-0.054897
	H436	H	-0.003574	0.970707	-0.054506
	H437	H	-0.011860	0.982366	-0.059693
	O438	O	-0.102857	-0.108385	0.013569
	H439	H	-0.109604	-0.104097	0.030583
	H440	H	-0.093285	-0.104365	0.011227
	O441	O	-0.224579	0.042918	-0.232321
	H442	H	-0.241878	0.052537	-0.244615
	H443	H	-0.219925	0.059580	-0.238358
	O444	O	0.765021	0.242460	0.213941
	H445	H	0.786484	0.212759	0.193442
	H446	H	0.775212	0.237397	0.211113
	O447	O	0.018706	0.795846	0.768496
	H448	H	0.019939	0.786943	0.779545
	H449	H	0.028939	0.782358	0.755096
	O450	O	-0.194891	0.825796	0.794668
	H451	H	-0.175647	0.830041	0.819647
	H452	H	-0.183656	0.854678	0.810017
	O453	O	0.624007	0.523595	0.409192
	H454	H	0.628656	0.505970	0.418641
	H455	H	0.631470	0.503681	0.396459
	O456	O	-0.219675	-0.021249	1.200615
	H457	H	-0.199927	-0.018290	1.197270
	H458	H	-0.232961	-0.017006	1.222823
	O459	O	0.548155	0.357624	0.475974
	H460	H	0.560456	0.358015	0.456661
	H461	H	0.547730	0.364915	0.478606
	O462	O	0.435436	0.512104	0.529361
	H463	H	0.445415	0.516532	0.534464
	H464	H	0.433645	0.526302	0.536295
	O465	O	0.322049	-0.312060	0.746951
	H466	H	0.327238	-0.300567	0.749190
	H467	H	0.310616	-0.312355	0.767680
	O468	O	0.288035	0.721415	0.524378
	H469	H	0.267974	0.741947	0.537658
	H470	H	0.318681	0.722190	0.540763
	O471	O	0.520623	0.734415	0.695930
	H472	H	0.528147	0.743774	0.716745
	H473	H	0.542201	0.732098	0.704254
	O474	O	0.447189	0.315947	0.665051
	H475	H	0.461651	0.312762	0.664055
	H476	H	0.464804	0.316052	0.654413
	O477	O	0.499834	0.423173	1.526248
	H478	H	0.510622	0.422997	1.521950
	H479	H	0.501816	0.432714	1.538056
	O480	O	-0.113300	0.100477	-0.062901
	H481	H	-0.101445	0.100652	-0.061310
	H482	H	-0.123163	0.101204	-0.067321
	O483	O	0.282008	0.307910	0.699915
	H484	H	0.307557	0.319126	0.680653
	H485	H	0.301932	0.336192	0.702165
	O486	O	1.029602	0.089123	1.097909
	H487	H	1.029234	0.087719	1.090042
	H488	H	1.022688	0.080862	1.098722
	O489	O	0.857693	1.143774	-0.018386
	H490	H	0.850246	1.154430	-0.013204
	H491	H	0.881456	1.137063	-0.010023
	O492	O	-0.218577	-0.203196	0.018298
	H493	H	-0.230875	-0.201525	0.024041
	H494	H	-0.222023	-0.207256	0.026739
	O495	O	0.286103	0.725593	1.339607
	H496	H	0.279776	0.717438	1.383958
	H497	H	0.286746	0.708461	1.338805
	O498	O	0.681565	0.707115	1.295808
	H499	H	0.659771	0.693001	1.315171
	H500	H	0.670072	0.684645	1.311480
	O501	O	0.387275	0.650893	0.521307
	H502	H	0.402088	0.651059	0.526947
	H503	H	0.380981	0.671210	0.534849
