data_Molecule from HDF5

_cell_length_a		16.540064
_cell_length_b		16.458160
_cell_length_c		16.450020
_cell_angle_alpha	90.092216
_cell_angle_beta	89.929854
_cell_angle_gamma	89.969372
_symmetry_space_group_name_H-M	'P 1'
_symmetry_Int_Tables_number		1

loop_
	_symmetry_equiv_pos_as_xyz
	x,y,z

loop_
	_atom_site_label
	_atom_site_type_symbol
	_atom_site_fract_x
	_atom_site_fract_y
	_atom_site_fract_z
	H0	H	0.398412	0.847487	0.705236
	H1	H	0.611118	0.162553	0.704107
	H2	H	0.614320	0.848099	0.256625
	H3	H	0.402843	0.163253	0.263613
	H4	H	0.728117	0.395858	0.823933
	H5	H	0.726812	0.610780	0.138248
	H6	H	0.279596	0.612673	0.826360
	H7	H	0.284357	0.399481	0.139669
	H8	H	0.850074	0.730726	0.371237
	H9	H	0.161982	0.725674	0.587239
	H10	H	0.848191	0.279443	0.588703
	H11	H	0.162382	0.282358	0.375823
	H12	H	0.848342	0.394138	0.707682
	H13	H	0.160955	0.609553	0.704455
	H14	H	0.848361	0.611126	0.258052
	H15	H	0.161707	0.398020	0.258924
	H16	H	0.397213	0.727233	0.825439
	H17	H	0.610330	0.725939	0.139077
	H18	H	0.610050	0.282589	0.822705
	H19	H	0.401402	0.284447	0.139580
	H20	H	0.729902	0.848472	0.373168
	H21	H	0.727696	0.161775	0.589142
	H22	H	0.280932	0.847579	0.590256
	H23	H	0.285608	0.162685	0.378928
	H24	H	0.901556	0.346422	0.200289
	H25	H	0.112687	0.661431	0.205958
	H26	H	0.109835	0.345991	0.761030
	H27	H	0.896346	0.660236	0.756848
	H28	H	0.229833	0.895411	0.325435
	H29	H	0.226656	0.111129	0.638991
	H30	H	0.782103	0.110126	0.325602
	H31	H	0.780499	0.893471	0.638511
	H32	H	0.348449	0.227499	0.874078
	H33	H	0.662117	0.224015	0.084732
	H34	H	0.348013	0.780248	0.089832
	H35	H	0.660734	0.778750	0.872527
	H36	H	0.348871	0.895431	0.206918
	H37	H	0.662279	0.106155	0.200080
	H38	H	0.348183	0.110731	0.759612
	H39	H	0.660964	0.894652	0.756526
	H40	H	0.898158	0.226476	0.325211
	H41	H	0.111546	0.228180	0.637832
	H42	H	0.112168	0.780738	0.324419
	H43	H	0.895185	0.777219	0.636912
	H44	H	0.228370	0.347812	0.875411
	H45	H	0.229749	0.660804	0.091452
	H46	H	0.784141	0.346691	0.085755
	H47	H	0.778280	0.659720	0.869677
	H48	H	0.418214	0.116825	0.573036
	H49	H	0.598319	0.889693	0.572276
	H50	H	0.592382	0.114933	0.395506
	H51	H	0.413607	0.890620	0.394844
	H52	H	0.592881	0.421065	0.091384
	H53	H	0.587747	0.590417	0.870322
	H54	H	0.416791	0.586195	0.092627
	H55	H	0.414938	0.413876	0.867553
	H56	H	0.115369	0.593221	0.397406
	H57	H	0.893150	0.588704	0.570118
	H58	H	0.116632	0.418410	0.575307
	H59	H	0.893728	0.422169	0.387607
	H60	H	0.117108	0.410355	0.568572
	H61	H	0.892759	0.594240	0.567311
	H62	H	0.116255	0.587789	0.392159
	H63	H	0.889895	0.408785	0.388354
	H64	H	0.422068	0.593902	0.093885
	H65	H	0.592989	0.593589	0.867848
	H66	H	0.589831	0.410344	0.094200
	H67	H	0.413907	0.417894	0.868482
	H68	H	0.595751	0.117540	0.393436
	H69	H	0.585625	0.893662	0.571850
	H70	H	0.415674	0.115586	0.567418
	H71	H	0.418692	0.890451	0.390271
	H72	H	0.918714	0.616232	0.068395
	H73	H	0.091361	0.393970	0.069135
	H74	H	0.088971	0.612217	0.903570
	H75	H	0.909392	0.390547	0.896150
	H76	H	0.088831	0.916239	0.592128
	H77	H	0.092493	0.095472	0.367948
	H78	H	0.912096	0.087933	0.594502
	H79	H	0.917746	0.912510	0.368551
	H80	H	0.616018	0.085287	0.888428
	H81	H	0.390811	0.098095	0.067884
	H82	H	0.612242	0.919020	0.061850
	H83	H	0.394258	0.916875	0.895442
	H84	H	0.616109	0.920635	0.074431
	H85	H	0.392733	0.089574	0.070578
	H86	H	0.621234	0.100028	0.888681
	H87	H	0.394092	0.917257	0.892904
	H88	H	0.922844	0.089624	0.591969
	H89	H	0.099395	0.092877	0.366846
	H90	H	0.094813	0.912556	0.595468
	H91	H	0.913981	0.923559	0.371325
	H92	H	0.100590	0.619373	0.893759
	H93	H	0.095378	0.392843	0.067372
	H94	H	0.913858	0.617342	0.066730
	H95	H	0.918686	0.391035	0.887916
	H96	H	0.412298	0.118405	0.571984
	H97	H	0.593031	0.895027	0.560822
	H98	H	0.591688	0.116644	0.391588
	H99	H	0.419298	0.892954	0.396380
	H100	H	0.600517	0.414122	0.096433
	H101	H	0.593169	0.587551	0.869848
	H102	H	0.413042	0.593875	0.096297
	H103	H	0.417767	0.416987	0.868940
	H104	H	0.118001	0.594912	0.390244
	H105	H	0.896220	0.589682	0.564732
	H106	H	0.112440	0.419407	0.565983
	H107	H	0.894784	0.415500	0.399865
	H108	H	0.915735	0.618878	0.071508
	H109	H	0.094580	0.391203	0.071735
	H110	H	0.085409	0.616288	0.887031
	H111	H	0.920280	0.395432	0.899342
	H112	H	0.095025	0.920489	0.593834
	H113	H	0.093993	0.088181	0.369629
	H114	H	0.916910	0.097836	0.596735
	H115	H	0.925022	0.920136	0.373809
	H116	H	0.613773	0.093662	0.901176
	H117	H	0.389347	0.094951	0.076970
	H118	H	0.617734	0.908543	0.068318
	H119	H	0.393707	0.914848	0.893852
	C120	C	0.382669	0.013089	0.604014
	C121	C	0.625910	0.996400	0.602358
	C122	C	0.626712	0.012475	0.360263
	C123	C	0.384836	0.995814	0.361377
	C124	C	0.626487	0.382579	-0.010634
	C125	C	0.625190	0.624598	0.972682
	C126	C	0.383272	0.625220	-0.009180
	C127	C	0.383866	0.383620	0.972907
	C128	C	0.013499	0.626169	0.359304
	C129	C	0.996743	0.624676	0.602017
	C130	C	0.012300	0.382297	0.603514
	C131	C	0.996449	0.382166	0.359278
	C132	C	0.883694	0.513507	0.101632
	C133	C	0.126929	0.496085	0.103431
	C134	C	0.125214	0.512140	0.861578
	C135	C	0.882142	0.495434	0.859425
	C136	C	0.126702	0.882542	0.490152
	C137	C	0.126919	0.125205	0.472651
	C138	C	0.883909	0.124864	0.490632
	C139	C	0.883836	0.882849	0.473843
	C140	C	0.513159	0.125724	0.860157
	C141	C	0.495484	0.125414	0.102760
	C142	C	0.512762	0.882376	0.102765
	C143	C	0.496694	0.881909	0.859856
	C144	C	0.379887	0.894709	0.665224
	C145	C	0.628881	0.115023	0.663662
	C146	C	0.631590	0.895319	0.297472
	C147	C	0.383473	0.115269	0.302396
	C148	C	0.687309	0.379017	0.870874
	C149	C	0.686383	0.628361	0.091051
	C150	C	0.320742	0.630150	0.873095
	C151	C	0.324184	0.381062	0.091988
	C152	C	0.896613	0.688983	0.354499
	C153	C	0.114744	0.685477	0.605409
	C154	C	0.894876	0.320288	0.606983
	C155	C	0.114573	0.321652	0.356939
	C156	C	0.895051	0.377571	0.665971
	C157	C	0.114141	0.627786	0.663723
	C158	C	0.895721	0.629645	0.297990
	C159	C	0.114633	0.379651	0.298916
	C160	C	0.379187	0.687060	0.872843
	C161	C	0.628280	0.685686	0.091447
	C162	C	0.628574	0.322226	0.870558
	C163	C	0.382701	0.324095	0.092050
	C164	C	0.689019	0.895221	0.355769
	C165	C	0.687303	0.114534	0.606743
	C166	C	0.321745	0.894772	0.607804
	C167	C	0.325124	0.114954	0.359694
	C168	C	0.882589	0.394053	0.160896
	C169	C	0.130174	0.614163	0.165463
	C170	C	0.128025	0.393513	0.800951
	C171	C	0.878312	0.612891	0.797112
	C172	C	0.188785	0.878194	0.372468
	C173	C	0.186591	0.128580	0.591489
	C174	C	0.822629	0.128195	0.372492
	C175	C	0.821240	0.876963	0.591221
	C176	C	0.395551	0.187102	0.856574
	C177	C	0.614459	0.184405	0.103738
	C178	C	0.395159	0.820744	0.107476
	C179	C	0.613835	0.819564	0.855397
	C180	C	0.395577	0.878018	0.165926
	C181	C	0.614830	0.125780	0.161068
	C182	C	0.395366	0.128559	0.799619
	C183	C	0.613872	0.877541	0.797552
	C184	C	0.880282	0.185836	0.372277
	C185	C	0.129248	0.186820	0.590947
	C186	C	0.130134	0.821071	0.371852
	C187	C	0.878684	0.818942	0.590503
	C188	C	0.187092	0.394494	0.857677
	C189	C	0.188770	0.613860	0.108611
	C190	C	0.824065	0.394390	0.103838
	C191	C	0.819513	0.612794	0.853670
	C192	C	0.408174	0.095416	0.578188
	C193	C	0.599996	0.914384	0.576024
	C194	C	0.600715	0.094816	0.386377
	C195	C	0.409945	0.912996	0.386505
	C196	C	0.601574	0.407981	0.072468
	C197	C	0.598966	0.598257	0.890737
	C198	C	0.409621	0.598821	0.072779
	C199	C	0.408355	0.409197	0.890061
	C200	C	0.095213	0.599587	0.385552
	C201	C	0.915363	0.598443	0.575214
	C202	C	0.093981	0.408553	0.577337
	C203	C	0.914317	0.407956	0.384776
	C204	C	0.908839	0.595919	0.076298
	C205	C	0.101264	0.414074	0.076828
	C206	C	0.099068	0.594522	0.887343
	C207	C	0.908507	0.413651	0.886660
	C208	C	0.100293	0.908717	0.572488
	C209	C	0.102251	0.099617	0.389830
	C210	C	0.909880	0.099188	0.572811
	C211	C	0.911099	0.910764	0.392517
	C212	C	0.595284	0.100345	0.885503
	C213	C	0.412581	0.101130	0.078791
	C214	C	0.594003	0.908549	0.075963
	C215	C	0.415327	0.908531	0.886460
	Zn216	Zn	0.505429	0.004073	0.731293
	Zn217	Zn	0.505042	0.003785	0.231456
	Zn218	Zn	0.754394	0.504349	-0.019225
	Zn219	Zn	0.254939	0.504753	-0.017795
	Zn220	Zn	0.005199	0.754364	0.481354
	Zn221	Zn	0.004886	0.253319	0.481381
	Zn222	Zn	0.004456	0.503760	0.732228
	Zn223	Zn	0.004577	0.504487	0.230989
	Zn224	Zn	0.504248	0.753348	-0.018119
	Zn225	Zn	0.504525	0.254733	-0.018740
	Zn226	Zn	0.755271	0.004077	0.482454
	Zn227	Zn	0.255123	0.003943	0.481833
	N228	N	0.416977	0.969383	0.663217
	N229	N	0.591596	0.040490	0.661436
	N230	N	0.593320	0.969258	0.300307
	N231	N	0.419502	0.040024	0.302959
	N232	N	0.686204	0.415882	0.945867
	N233	N	0.684954	0.591366	0.016063
	N234	N	0.323009	0.592684	0.947538
	N235	N	0.324469	0.417157	0.016663
	N236	N	0.970910	0.687028	0.391592
	N237	N	0.040430	0.683987	0.567850
	N238	N	0.968692	0.323017	0.568721
	N239	N	0.039797	0.322915	0.393584
	N240	N	0.969091	0.415348	0.663768
	N241	N	0.039790	0.591036	0.661897
	N242	N	0.969654	0.591523	0.300674
	N243	N	0.040093	0.416420	0.300148
	N244	N	0.417297	0.684098	0.946908
	N245	N	0.591202	0.683675	0.016805
	N246	N	0.591407	0.324347	0.945294
	N247	N	0.418801	0.325315	0.016842
	N248	N	0.686134	0.969243	0.394214
	N249	N	0.685695	0.039708	0.569617
	N250	N	0.323340	0.969295	0.570594
	N251	N	0.325669	0.039491	0.395519
	N252	N	0.918890	0.469109	0.159750
	N253	N	0.092374	0.539973	0.162369
	N254	N	0.090320	0.467944	0.803328
	N255	N	0.916453	0.538901	0.800639
	N256	N	0.186692	0.915623	0.447139
	N257	N	0.185313	0.091094	0.516830
	N258	N	0.824702	0.090951	0.447152
	N259	N	0.824285	0.915854	0.517445
	N260	N	0.469921	0.185463	0.893602
	N261	N	0.539133	0.184587	0.068557
	N262	N	0.468759	0.823388	0.068868
	N263	N	0.539735	0.821844	0.893163
	N264	N	0.469650	0.915734	0.163090
	N265	N	0.539792	0.089951	0.160628
	N266	N	0.469460	0.091021	0.801687
	N267	N	0.540032	0.915703	0.800189
	N268	N	0.917680	0.183860	0.446660
	N269	N	0.092704	0.184754	0.516021
	N270	N	0.092374	0.823634	0.446224
	N271	N	0.916947	0.822396	0.516327
	N272	N	0.185516	0.469319	0.894597
	N273	N	0.186897	0.539412	0.070730
	N274	N	0.824379	0.469741	0.067845
	N275	N	0.821614	0.538412	0.891543
	O276	O	0.436441	0.482625	0.316390
	H277	H	0.430221	0.480003	0.308935
	H278	H	0.431853	0.473648	0.320149
	O279	O	0.916849	0.943266	1.129289
	H280	H	0.921716	0.938172	1.118863
	H281	H	0.927895	0.949598	1.133132
	O282	O	0.908892	0.970333	0.166325
	H283	H	0.910483	0.971705	0.158896
	H284	H	0.925936	0.982452	0.168059
	O285	O	-0.012209	0.017366	1.019772
	H286	H	-0.014088	0.008605	1.015050
	H287	H	-0.021816	0.010694	1.034962
	O288	O	0.223921	0.029515	0.202789
	H289	H	0.251081	0.028263	0.218871
	H290	H	0.212140	0.043519	0.207027
	O291	O	1.068702	0.792735	0.116862
	H292	H	1.053787	0.783307	0.116895
	H293	H	1.055251	0.790136	0.118791
	O294	O	0.684745	0.687398	-0.337066
	H295	H	0.696342	0.698509	-0.390927
	H296	H	0.699088	0.634515	-0.327434
	O297	O	0.699754	0.566193	0.396761
	H298	H	0.705458	0.551352	0.401254
	H299	H	0.696328	0.554442	0.374071
	O300	O	0.664535	0.358116	0.337155
	H301	H	0.684040	0.338861	0.316244
	H302	H	0.675380	0.356538	0.366344
	O303	O	0.785589	-0.215200	0.007646
	H304	H	0.782716	-0.222021	0.028581
	H305	H	0.772845	-0.232360	0.019870
	O306	O	0.141443	1.118865	1.066238
	H307	H	0.157963	1.103924	1.056947
	H308	H	0.140886	1.118839	1.037676
	O309	O	0.722059	0.527661	0.695093
	H310	H	0.740156	0.515550	0.710454
	H311	H	0.708967	0.510356	0.711764
	O312	O	0.476507	0.293902	0.693574
	H313	H	0.477253	0.268722	0.706455
	H314	H	0.490780	0.305808	0.691324
	O315	O	0.406326	-0.301383	1.288096
	H316	H	0.413582	-0.304325	1.284895
	H317	H	0.380634	-0.294970	1.299902
	O318	O	-0.839818	-0.155496	-0.036869
	H319	H	-0.851503	-0.164351	-0.016928
	H320	H	-0.833884	-0.173256	-0.030191
	O321	O	0.864932	0.179108	1.007783
	H322	H	0.871132	0.171693	0.999541
	H323	H	0.859687	0.190917	0.987068
	O324	O	0.812080	0.123985	0.176899
	H325	H	0.819790	0.114052	0.169254
	H326	H	0.821116	0.100706	0.162514
	O327	O	0.819213	0.011800	0.781591
	H328	H	0.822284	0.013035	0.797020
	H329	H	0.792980	0.004659	0.767002
	O330	O	0.027931	0.076843	-0.228718
	H331	H	0.034845	0.065446	-0.230233
	H332	H	0.017096	0.048706	-0.229015
	O333	O	0.965710	1.207346	0.800458
	H334	H	0.958241	1.222577	0.779263
	H335	H	0.976467	1.183912	0.795384
	O336	O	1.188244	-0.184513	0.793047
	H337	H	1.198968	-0.164043	0.798446
	H338	H	1.188543	-0.176172	0.810981
	O339	O	0.310738	0.595858	0.285571
	H340	H	0.299306	0.601682	0.290309
	H341	H	0.313437	0.583658	0.290135
	O342	O	0.337119	0.561144	0.644197
	H343	H	0.328580	0.549779	0.656110
	H344	H	0.349882	0.573264	0.659957
	O345	O	0.248978	0.246671	0.086019
	H346	H	0.259389	0.274718	0.080441
	H347	H	0.248794	0.250988	0.082273
	O348	O	0.717957	0.431526	0.269490
	H349	H	0.717319	0.421185	0.272540
	H350	H	0.711060	0.412773	0.253355
	O351	O	1.033513	1.215730	0.191690
	H352	H	1.050385	1.235907	0.205662
	H353	H	1.057296	1.222690	0.189395
	O354	O	0.716402	0.296057	0.449296
	H355	H	0.722764	0.300911	0.461975
	H356	H	0.721786	0.287754	0.460001
	O357	O	0.529176	0.500782	1.512498
	H358	H	0.508741	0.500767	1.518306
	H359	H	0.518051	0.502086	1.508850
	O360	O	-0.179640	0.927422	0.842640
	H361	H	-0.174549	0.907097	0.845562
	H362	H	-0.180711	0.927152	0.846931
	O363	O	0.490920	0.410063	0.441864
	H364	H	0.483909	0.408594	0.425061
	H365	H	0.503360	0.409753	0.443319
	O366	O	1.087506	-0.006473	0.958970
	H367	H	1.069973	-0.007951	0.955135
	H368	H	1.091865	-0.019270	0.964742
	O369	O	0.734978	0.463750	0.524334
	H370	H	0.726631	0.461571	0.530189
	H371	H	0.735161	0.465805	0.526045
	O372	O	0.217222	-0.020339	0.768655
	H373	H	0.234529	-0.007803	0.780986
	H374	H	0.229341	-0.018942	0.759843
	O375	O	0.335324	0.514885	1.478866
	H376	H	0.351619	0.532208	1.467116
	H377	H	0.336712	0.513782	1.463715
	O378	O	1.107433	0.945665	0.159774
	H379	H	1.117458	0.959349	0.164992
	H380	H	1.111214	0.970850	0.159736
	O381	O	1.362129	-0.624269	0.366730
	H382	H	1.370010	-0.644140	0.373707
	H383	H	1.371594	-0.624451	0.380842
	O384	O	0.161669	0.029853	0.934208
	H385	H	0.159434	0.043762	0.943602
	H386	H	0.153487	0.025651	0.952786
	O387	O	-0.515702	1.628342	1.452575
	H388	H	-0.498127	1.641272	1.452168
	H389	H	-0.514008	1.632179	1.469165
	O390	O	0.536523	0.291403	1.266646
	H391	H	0.540729	0.292667	1.246755
	H392	H	0.551412	0.279830	1.259655
	O393	O	-0.058487	0.789140	-0.067967
	H394	H	-0.061699	0.782014	-0.093068
	H395	H	-0.070182	0.798698	-0.059595
	O396	O	0.386827	0.368449	0.483548
	H397	H	0.383110	0.394225	0.473311
	H398	H	0.382872	0.358665	0.480919
	O399	O	0.641116	0.647218	0.348888
	H400	H	0.634596	0.630428	0.366329
	H401	H	0.656068	0.637547	0.337610
	O402	O	-0.204291	0.182487	0.975847
	H403	H	-0.210951	0.179848	0.968495
	H404	H	-0.210790	0.190180	0.960621
	O405	O	0.570249	0.448339	-0.315821
	H406	H	0.570362	0.443683	-0.321634
	H407	H	0.561518	0.468160	-0.328023
	O408	O	1.176118	1.179008	0.861246
	H409	H	1.166998	1.178139	0.852387
	H410	H	1.154122	1.172506	0.868616
	O411	O	0.528170	0.722730	0.702169
	H412	H	0.570274	0.719901	0.700797
	H413	H	0.543161	0.749486	0.728408
	O414	O	0.383405	0.498042	0.393427
	H415	H	0.381197	0.499860	0.414991
	H416	H	0.387121	0.474397	0.389208
	O417	O	0.486878	0.550245	0.318766
	H418	H	0.491343	0.563375	0.327852
	H419	H	0.472161	0.564319	0.310805
	O420	O	0.759577	0.764650	0.196909
	H421	H	0.783141	0.746273	0.210680
	H422	H	0.759150	0.795947	0.195745
	O423	O	-0.045579	0.975458	-0.161099
	H424	H	-0.026748	0.947035	-0.167534
	H425	H	-0.050746	0.976583	-0.151299
	O426	O	1.198113	0.892440	1.042074
	H427	H	1.197405	0.873256	1.036253
	H428	H	1.207334	0.905068	1.053176
	O429	O	0.839789	0.150551	0.791684
	H430	H	0.838395	0.109375	0.792490
	H431	H	0.866265	0.158420	0.803791
	O432	O	0.025601	-0.216735	0.758923
	H433	H	0.030202	-0.249348	0.731610
	H434	H	0.061306	-0.207507	0.769880
	O435	O	0.295742	-0.286298	0.451363
	H436	H	0.282778	-0.276120	0.457870
	H437	H	0.294840	-0.279204	0.467661
	O438	O	1.139944	0.202306	0.073964
	H439	H	1.141883	0.221630	0.070802
	H440	H	1.130518	0.190306	0.067489
	O441	O	0.466913	0.663781	0.521131
	H442	H	0.466209	0.675136	0.507855
	H443	H	0.469948	0.667097	0.529519
	O444	O	0.002319	0.836566	1.199093
	H445	H	-0.001547	0.839645	1.220299
	H446	H	0.004096	0.830257	1.210145
	O447	O	0.474354	0.553023	0.645045
	H448	H	0.470685	0.551569	0.632299
	H449	H	0.469835	0.558019	0.649824
	O450	O	0.315664	0.315625	0.666480
	H451	H	0.344476	0.326701	0.677572
	H452	H	0.309975	0.314523	0.655680
	O453	O	-0.208780	1.004163	-0.024673
	H454	H	-0.208234	1.004954	-0.031965
	H455	H	-0.202396	0.988870	-0.033198
	O456	O	0.003520	1.164815	0.044483
	H457	H	-0.000439	1.163858	0.037041
	H458	H	-0.002469	1.169702	0.041071
	O459	O	0.508084	0.345195	0.547191
	H460	H	0.504918	0.345882	0.548964
	H461	H	0.488087	0.346709	0.527606
	O462	O	0.717691	0.719062	0.502103
	H463	H	0.739594	0.735944	0.493212
	H464	H	0.726549	0.702201	0.478910
	O465	O	0.368016	0.470100	0.642226
	H466	H	0.376633	0.455437	0.635538
	H467	H	0.349946	0.474759	0.666154
