data_Molecule from HDF5

_cell_length_a		16.218931
_cell_length_b		16.447567
_cell_length_c		16.116554
_cell_angle_alpha	89.990896
_cell_angle_beta	89.434371
_cell_angle_gamma	90.170240
_symmetry_space_group_name_H-M	'P 1'
_symmetry_Int_Tables_number		1

loop_
	_symmetry_equiv_pos_as_xyz
	x,y,z

loop_
	_atom_site_label
	_atom_site_type_symbol
	_atom_site_fract_x
	_atom_site_fract_y
	_atom_site_fract_z
	H0	H	0.398545	0.842812	0.723424
	H1	H	0.600044	0.165109	0.714602
	H2	H	0.604193	0.842691	0.281677
	H3	H	0.400914	0.164207	0.285381
	H4	H	0.720042	0.407773	0.835894
	H5	H	0.717915	0.603160	0.166513
	H6	H	0.293590	0.606020	0.837355
	H7	H	0.287906	0.405185	0.164994
	H8	H	0.839435	0.718287	0.395764
	H9	H	0.163417	0.721221	0.600577
	H10	H	0.839104	0.284547	0.605721
	H11	H	0.162895	0.279361	0.393354
	H12	H	0.840482	0.402844	0.718137
	H13	H	0.168335	0.599589	0.708683
	H14	H	0.837998	0.595973	0.288933
	H15	H	0.167432	0.402808	0.285060
	H16	H	0.403535	0.723648	0.839879
	H17	H	0.608173	0.723390	0.165428
	H18	H	0.612570	0.285657	0.838902
	H19	H	0.400968	0.287969	0.164942
	H20	H	0.716978	0.839892	0.400093
	H21	H	0.721888	0.160822	0.604603
	H22	H	0.283388	0.841069	0.604604
	H23	H	0.280315	0.160659	0.397818
	H24	H	0.901285	0.340818	0.215857
	H25	H	0.102225	0.663991	0.216659
	H26	H	0.107138	0.339630	0.782661
	H27	H	0.909326	0.664776	0.784102
	H28	H	0.219571	0.899529	0.338250
	H29	H	0.213370	0.100115	0.666020
	H30	H	0.788903	0.096885	0.337676
	H31	H	0.785364	0.901176	0.666802
	H32	H	0.341922	0.223621	0.901512
	H33	H	0.667639	0.222000	0.103631
	H34	H	0.342988	0.783708	0.108620
	H35	H	0.666502	0.788240	0.896785
	H36	H	0.338419	0.906743	0.215546
	H37	H	0.666736	0.103478	0.216380
	H38	H	0.337402	0.101964	0.792685
	H39	H	0.666285	0.908346	0.785345
	H40	H	0.895398	0.218879	0.339925
	H41	H	0.103360	0.219893	0.663271
	H42	H	0.102108	0.785915	0.336105
	H43	H	0.895934	0.782050	0.663733
	H44	H	0.227664	0.343050	0.896546
	H45	H	0.218657	0.666591	0.098320
	H46	H	0.783573	0.343677	0.102634
	H47	H	0.790440	0.665773	0.899819
	H48	H	0.409332	0.116713	0.595536
	H49	H	0.601426	0.883988	0.596619
	H50	H	0.590022	0.114942	0.413822
	H51	H	0.413748	0.889318	0.409599
	H52	H	0.591693	0.408219	0.119054
	H53	H	0.590099	0.593844	0.888779
	H54	H	0.413947	0.595754	0.119116
	H55	H	0.413185	0.417567	0.884779
	H56	H	0.118374	0.597956	0.412836
	H57	H	0.883858	0.590646	0.598535
	H58	H	0.118172	0.409788	0.586123
	H59	H	0.889178	0.417566	0.409487
	H60	H	0.120594	0.407826	0.590878
	H61	H	0.885297	0.596508	0.589653
	H62	H	0.116308	0.588409	0.410256
	H63	H	0.880707	0.402085	0.400059
	H64	H	0.412928	0.595966	0.119784
	H65	H	0.596696	0.607966	0.881781
	H66	H	0.598714	0.414703	0.119130
	H67	H	0.424494	0.415792	0.887023
	H68	H	0.601172	0.116547	0.414721
	H69	H	0.583418	0.886718	0.601894
	H70	H	0.404563	0.116601	0.590979
	H71	H	0.408947	0.888782	0.413964
	H72	H	0.913932	0.615775	0.088765
	H73	H	0.096603	0.391055	0.085213
	H74	H	0.105975	0.617069	0.910004
	H75	H	0.924073	0.389879	0.900870
	H76	H	0.081985	0.894250	0.619593
	H77	H	0.083325	0.099039	0.384061
	H78	H	0.911562	0.096108	0.620881
	H79	H	0.910408	0.905494	0.382756
	H80	H	0.619114	0.096724	0.910376
	H81	H	0.388327	0.096372	0.089839
	H82	H	0.619045	0.913231	0.086557
	H83	H	0.387939	0.915454	0.912740
	H84	H	0.618735	0.917362	0.092756
	H85	H	0.387354	0.096843	0.095578
	H86	H	0.619855	0.095573	0.905665
	H87	H	0.385740	0.907864	0.913096
	H88	H	0.905565	0.089817	0.620179
	H89	H	0.101803	0.090667	0.381616
	H90	H	0.103594	0.910643	0.621958
	H91	H	0.907896	0.906591	0.383019
	H92	H	0.100513	0.619852	0.897171
	H93	H	0.102174	0.387218	0.092033
	H94	H	0.907649	0.620971	0.095316
	H95	H	0.913833	0.393352	0.924238
	H96	H	0.403511	0.119095	0.597555
	H97	H	0.589285	0.890842	0.584505
	H98	H	0.595763	0.118330	0.405261
	H99	H	0.408595	0.886869	0.407806
	H100	H	0.590561	0.416694	0.115711
	H101	H	0.606651	0.594256	0.882782
	H102	H	0.413115	0.594877	0.118562
	H103	H	0.417673	0.408140	0.882488
	H104	H	0.120211	0.594646	0.403608
	H105	H	0.888121	0.586635	0.589517
	H106	H	0.119966	0.404297	0.585902
	H107	H	0.886271	0.401077	0.419817
	H108	H	0.917068	0.617829	0.098137
	H109	H	0.092909	0.388607	0.094149
	H110	H	0.092463	0.614234	0.907564
	H111	H	0.900078	0.383900	0.905284
	H112	H	0.079577	0.920040	0.611285
	H113	H	0.086488	0.079418	0.389812
	H114	H	0.914107	0.089067	0.617252
	H115	H	0.910146	0.907742	0.384904
	H116	H	0.621289	0.100087	0.907433
	H117	H	0.386604	0.101490	0.092734
	H118	H	0.621789	0.910303	0.092800
	H119	H	0.388008	0.911253	0.919826
	C120	C	0.376829	0.011213	0.625505
	C121	C	0.622141	0.993531	0.623226
	C122	C	0.624837	0.010722	0.379696
	C123	C	0.379985	0.993947	0.380209
	C124	C	0.626062	0.383689	0.009929
	C125	C	0.627135	0.627732	0.993100
	C126	C	0.384731	0.625917	0.010822
	C127	C	0.385685	0.383990	0.992894
	C128	C	0.010723	0.622321	0.379307
	C129	C	0.993818	0.622133	0.620806
	C130	C	0.011817	0.378764	0.620744
	C131	C	0.993105	0.377419	0.378215
	C132	C	0.882095	0.511573	0.122892
	C133	C	0.125836	0.495274	0.120683
	C134	C	0.130109	0.510866	0.875246
	C135	C	0.884437	0.495503	0.879851
	C136	C	0.120794	0.878836	0.509430
	C137	C	0.120986	0.121104	0.492559
	C138	C	0.879964	0.120971	0.511093
	C139	C	0.878797	0.877834	0.492290
	C140	C	0.512256	0.127195	0.879676
	C141	C	0.495314	0.126840	0.122700
	C142	C	0.512383	0.883189	0.123021
	C143	C	0.494934	0.882894	0.882144
	C144	C	0.378218	0.890629	0.684203
	C145	C	0.620479	0.116018	0.677525
	C146	C	0.623591	0.890256	0.321081
	C147	C	0.380794	0.115264	0.323571
	C148	C	0.682973	0.386405	0.885789
	C149	C	0.681903	0.625027	0.117019
	C150	C	0.330262	0.625512	0.887026
	C151	C	0.326568	0.385175	0.115875
	C152	C	0.888012	0.678452	0.378486
	C153	C	0.115491	0.681256	0.619603
	C154	C	0.888720	0.322499	0.623832
	C155	C	0.115117	0.319473	0.375965
	C156	C	0.889348	0.381181	0.680019
	C157	C	0.118109	0.620644	0.673357
	C158	C	0.887236	0.618007	0.324780
	C159	C	0.117262	0.380695	0.321788
	C160	C	0.385445	0.683986	0.888281
	C161	C	0.626734	0.684424	0.116426
	C162	C	0.629661	0.325475	0.887287
	C163	C	0.382783	0.326673	0.115892
	C164	C	0.679941	0.888822	0.380107
	C165	C	0.681507	0.113761	0.623153
	C166	C	0.320967	0.889685	0.625130
	C167	C	0.320861	0.113822	0.379619
	C168	C	0.882106	0.389503	0.178183
	C169	C	0.123417	0.616238	0.178178
	C170	C	0.127839	0.388772	0.820154
	C171	C	0.888190	0.616996	0.823079
	C172	C	0.180018	0.879943	0.386831
	C173	C	0.176425	0.120394	0.616360
	C174	C	0.824929	0.118408	0.387320
	C175	C	0.822753	0.880434	0.616788
	C176	C	0.390005	0.184471	0.881604
	C177	C	0.618446	0.183089	0.122295
	C178	C	0.390700	0.824158	0.125945
	C179	C	0.617628	0.827171	0.879348
	C180	C	0.388613	0.885178	0.179332
	C181	C	0.618328	0.124305	0.178568
	C182	C	0.387665	0.123817	0.827567
	C183	C	0.617354	0.886449	0.823393
	C184	C	0.878569	0.178747	0.388495
	C185	C	0.121690	0.179968	0.615006
	C186	C	0.121805	0.823171	0.385847
	C187	C	0.877747	0.821155	0.615362
	C188	C	0.187937	0.390507	0.876550
	C189	C	0.180784	0.617576	0.118857
	C190	C	0.823284	0.391265	0.121774
	C191	C	0.829269	0.617375	0.880699
	C192	C	0.399265	0.095495	0.601718
	C193	C	0.598367	0.909108	0.600736
	C194	C	0.602332	0.094730	0.404035
	C195	C	0.403541	0.909976	0.403615
	C196	C	0.601072	0.406562	0.095621
	C197	C	0.604430	0.605425	0.906980
	C198	C	0.406995	0.602429	0.096887
	C199	C	0.411014	0.407140	0.906939
	C200	C	0.096220	0.600104	0.402335
	C201	C	0.908173	0.598239	0.598854
	C202	C	0.097276	0.400847	0.595139
	C203	C	0.907584	0.400096	0.402453
	C204	C	0.906117	0.596335	0.100599
	C205	C	0.103668	0.410716	0.097307
	C206	C	0.106603	0.595211	0.898170
	C207	C	0.906423	0.410995	0.903184
	C208	C	0.095773	0.901764	0.595354
	C209	C	0.097495	0.096716	0.407450
	C210	C	0.903423	0.098235	0.597040
	C211	C	0.902533	0.900142	0.405948
	C212	C	0.597899	0.104250	0.901387
	C213	C	0.409726	0.104651	0.099688
	C214	C	0.597701	0.906805	0.098069
	C215	C	0.409252	0.905165	0.907597
	Zn216	Zn	0.500979	0.004168	0.753114
	Zn217	Zn	0.502857	0.004275	0.250570
	Zn218	Zn	0.752968	0.504875	0.001311
	Zn219	Zn	0.257666	0.504553	-0.000223
	Zn220	Zn	-0.000028	0.750129	0.500067
	Zn221	Zn	0.000842	0.249747	0.500589
	Zn222	Zn	0.005248	0.501041	0.748211
	Zn223	Zn	0.002885	0.501319	0.251530
	Zn224	Zn	0.505162	0.754353	0.002724
	Zn225	Zn	0.505675	0.255330	0.001432
	Zn226	Zn	0.752391	0.000119	0.502404
	Zn227	Zn	0.249049	0.000942	0.501674
	N228	N	0.411993	0.967282	0.684789
	N229	N	0.584328	0.040289	0.677892
	N230	N	0.589814	0.966902	0.320765
	N231	N	0.416853	0.039931	0.323695
	N232	N	0.680758	0.421797	0.963066
	N233	N	0.682124	0.590520	0.039449
	N234	N	0.329527	0.589919	0.964333
	N235	N	0.328435	0.420175	0.038293
	N236	N	0.965794	0.681211	0.411755
	N237	N	0.037144	0.682186	0.587697
	N238	N	0.965944	0.321083	0.587590
	N239	N	0.037056	0.317279	0.410008
	N240	N	0.966724	0.415514	0.678287
	N241	N	0.041555	0.584524	0.674262
	N242	N	0.964339	0.583609	0.325259
	N243	N	0.040391	0.415886	0.322896
	N244	N	0.418608	0.684362	0.966306
	N245	N	0.593566	0.686414	0.038181
	N246	N	0.594653	0.323674	0.965348
	N247	N	0.418835	0.325924	0.038316
	N248	N	0.681008	0.964689	0.415685
	N249	N	0.682709	0.036647	0.590188
	N250	N	0.319931	0.965570	0.589490
	N251	N	0.320215	0.037355	0.414089
	N252	N	0.918270	0.465191	0.178711
	N253	N	0.089940	0.539252	0.179525
	N254	N	0.092876	0.464715	0.819060
	N255	N	0.921693	0.540268	0.822310
	N256	N	0.179623	0.913687	0.464901
	N257	N	0.176535	0.084601	0.539060
	N258	N	0.825831	0.083052	0.464559
	N259	N	0.823184	0.914867	0.539024
	N260	N	0.468472	0.186678	0.913149
	N261	N	0.540901	0.184916	0.088500
	N262	N	0.468757	0.822852	0.091694
	N263	N	0.540225	0.824868	0.914871
	N264	N	0.465224	0.921305	0.177523
	N265	N	0.540834	0.090042	0.179149
	N266	N	0.464782	0.088958	0.826031
	N267	N	0.539862	0.920254	0.825015
	N268	N	0.912067	0.180551	0.466532
	N269	N	0.087903	0.180363	0.537307
	N270	N	0.085545	0.822540	0.463220
	N271	N	0.911615	0.819111	0.536909
	N272	N	0.189518	0.467442	0.910014
	N273	N	0.182486	0.541422	0.083815
	N274	N	0.823117	0.468133	0.088211
	N275	N	0.826742	0.540930	0.915197
	O276	O	-0.001183	0.113805	0.070001
	H277	H	0.007741	0.114560	0.061865
	H278	H	0.007861	0.133434	0.080573
	O279	O	0.612882	0.539879	0.482478
	H280	H	0.617320	0.550371	0.493580
	H281	H	0.620335	0.548505	0.476681
	O282	O	0.479643	-0.351727	-0.595842
	H283	H	0.475806	-0.349430	-0.579035
	H284	H	0.471012	-0.334838	-0.592342
	O285	O	-0.052436	1.107941	-0.105072
	H286	H	-0.063099	1.105453	-0.104591
	H287	H	-0.057257	1.113479	-0.110518
	O288	O	0.556266	0.461248	0.590967
	H289	H	0.541564	0.460022	0.594184
	H290	H	0.538588	0.466651	0.595649
	O291	O	0.396567	0.583605	0.423857
	H292	H	0.394347	0.589979	0.419796
	H293	H	0.389846	0.580691	0.434464
	O294	O	1.106409	1.059111	1.089008
	H295	H	1.116626	1.062789	1.077398
	H296	H	1.099466	1.050446	1.083884
	O297	O	-0.038917	-0.141410	0.067518
	H298	H	-0.044683	-0.147792	0.064060
	H299	H	-0.038147	-0.146693	0.071937
	O300	O	0.616489	0.459431	0.512011
	H301	H	0.616045	0.452051	0.507407
	H302	H	0.602721	0.461632	0.515158
	O303	O	-0.051696	1.165742	1.016436
	H304	H	-0.046028	1.170521	1.027096
	H305	H	-0.045813	1.160735	1.015160
	O306	O	0.462154	0.409934	0.346654
	H307	H	0.461324	0.400676	0.343775
	H308	H	0.464261	0.411412	0.341879
	O309	O	0.975908	-0.066692	-0.045995
	H310	H	0.979892	-0.068101	-0.037479
	H311	H	0.977044	-0.070474	-0.044108
	O312	O	0.144920	-0.028466	0.956963
	H313	H	0.151216	-0.033833	0.964038
	H314	H	0.132175	-0.023315	0.950395
	O315	O	0.522626	0.604314	0.565037
	H316	H	0.509970	0.604941	0.562194
	H317	H	0.520486	0.587193	0.578327
	O318	O	0.495887	0.476588	0.508660
	H319	H	0.501500	0.481459	0.490144
	H320	H	0.483273	0.480623	0.503677
	O321	O	0.622742	0.436624	0.375476
	H322	H	0.641122	0.442188	0.389306
	H323	H	0.631463	0.427417	0.366411
	O324	O	0.349978	0.490980	0.670437
	H325	H	0.339612	0.488279	0.672290
	H326	H	0.351148	0.489717	0.682813
	O327	O	0.166377	0.945548	0.848645
	H328	H	0.156147	0.940881	0.850274
	H329	H	0.165288	0.957316	0.844720
	O330	O	0.177340	0.248757	0.256848
	H331	H	0.195645	0.257042	0.246371
	H332	H	0.192187	0.263082	0.282269
	O333	O	0.053634	1.003606	0.940047
	H334	H	0.046372	0.997478	0.940783
	H335	H	0.031891	1.000620	0.947820
	O336	O	1.068168	0.978983	0.976834
	H337	H	1.064858	0.972740	0.989659
	H338	H	1.071912	0.982647	0.960249
	O339	O	0.432600	0.549830	0.571500
	H340	H	0.420167	0.533813	0.579294
	H341	H	0.443625	0.541481	0.560369
	O342	O	0.956368	0.043654	0.027730
	H343	H	0.954888	0.036500	0.029488
	H344	H	0.943597	0.045362	0.030076
	O345	O	0.384517	0.548027	0.482507
	H346	H	0.378902	0.531993	0.487114
	H347	H	0.385359	0.535259	0.480756
	O348	O	0.904178	0.974868	1.065442
	H349	H	0.915107	0.981773	1.061841
	H350	H	0.895399	0.980171	1.079529
	O351	O	0.960631	1.037146	-0.021043
	H352	H	0.959581	1.035088	-0.022283
	H353	H	0.953438	1.045787	-0.018341
	O354	O	0.516141	0.663736	0.397074
	H355	H	0.524915	0.660509	0.417633
	H356	H	0.502606	0.677875	0.391532
	O357	O	0.490130	0.563454	0.369986
	H358	H	0.499465	0.560561	0.377498
	H359	H	0.501028	0.569200	0.367930
	O360	O	-0.064121	-0.054189	0.028196
	H361	H	-0.077385	-0.058341	0.033170
	H362	H	-0.063760	-0.032019	0.022914
	O363	O	0.463487	0.528300	0.363973
	H364	H	0.473996	0.543360	0.365851
	H365	H	0.444810	0.529773	0.355343
	O366	O	0.672444	0.602278	0.630173
	H367	H	0.664016	0.601762	0.640031
	H368	H	0.676687	0.602296	0.639967
	O369	O	0.569672	0.479000	0.586821
	H370	H	0.570017	0.474493	0.579629
	H371	H	0.573804	0.470940	0.588866
	O372	O	0.330201	0.337872	0.618323
	H373	H	0.334420	0.339764	0.610201
	H374	H	0.316550	0.354745	0.612079
	O375	O	0.631228	0.371398	0.406588
	H376	H	0.635315	0.379432	0.422616
	H377	H	0.636704	0.381395	0.404090
	O378	O	0.451730	0.466423	0.495712
	H379	H	0.463346	0.468798	0.474279
	H380	H	0.471250	0.466242	0.495381
	O381	O	0.447948	0.321197	0.687141
	H382	H	0.439862	0.309245	0.700350
	H383	H	0.426441	0.322480	0.689025
	O384	O	-0.024220	0.829137	0.005540
	H385	H	-0.023892	0.814674	-0.004609
	H386	H	-0.026813	0.832688	0.013629
	O387	O	1.095015	-0.042936	0.944262
	H388	H	1.083583	-0.044263	0.954501
	H389	H	1.084359	-0.044640	0.937446
	O390	O	-0.027258	0.997789	0.092869
	H391	H	-0.027417	1.000578	0.091853
	H392	H	-0.020509	1.014554	0.109570
	O393	O	1.003539	1.018099	0.041317
	H394	H	1.005521	1.020601	0.047100
	H395	H	1.013231	1.017088	0.023487
	O396	O	0.348960	0.361679	0.520756
	H397	H	0.331275	0.353697	0.507629
	H398	H	0.360155	0.369023	0.508612
	O399	O	-0.022671	0.966429	1.030862
	H400	H	-0.006493	0.980856	1.036158
	H401	H	-0.019159	0.962485	1.010692
	O402	O	1.082791	0.965982	1.023826
	H403	H	1.084768	0.961331	1.023164
	H404	H	1.077224	0.965627	1.019445
	O405	O	0.529863	0.634205	0.606120
	H406	H	0.532731	0.643249	0.584033
	H407	H	0.522079	0.641423	0.610345
