data_Molecule from HDF5

_cell_length_a		16.228380
_cell_length_b		16.190335
_cell_length_c		16.316937
_cell_angle_alpha	89.913071
_cell_angle_beta	89.859702
_cell_angle_gamma	90.029297
_symmetry_space_group_name_H-M	'P 1'
_symmetry_Int_Tables_number		1

loop_
	_symmetry_equiv_pos_as_xyz
	x,y,z

loop_
	_atom_site_label
	_atom_site_type_symbol
	_atom_site_fract_x
	_atom_site_fract_y
	_atom_site_fract_z
	H0	H	0.400910	0.833719	0.710547
	H1	H	0.599971	0.162853	0.709317
	H2	H	0.600727	0.833986	0.280892
	H3	H	0.402241	0.162419	0.282170
	H4	H	0.714022	0.401536	0.830766
	H5	H	0.712828	0.596764	0.158706
	H6	H	0.286573	0.596759	0.831568
	H7	H	0.284966	0.399441	0.158712
	H8	H	0.835877	0.711365	0.397808
	H9	H	0.164917	0.710355	0.591418
	H10	H	0.834865	0.284997	0.591818
	H11	H	0.165315	0.286552	0.398292
	H12	H	0.835632	0.399116	0.710747
	H13	H	0.162691	0.598821	0.710290
	H14	H	0.836105	0.597201	0.280569
	H15	H	0.164331	0.399333	0.279754
	H16	H	0.402785	0.713585	0.831711
	H17	H	0.597453	0.711933	0.159106
	H18	H	0.598785	0.283253	0.831922
	H19	H	0.401739	0.284134	0.159282
	H20	H	0.715126	0.833817	0.397109
	H21	H	0.714374	0.163018	0.592013
	H22	H	0.287620	0.833355	0.594065
	H23	H	0.288466	0.162957	0.398656
	H24	H	0.901636	0.334630	0.208897
	H25	H	0.098373	0.662954	0.206965
	H26	H	0.098525	0.334309	0.780832
	H27	H	0.900506	0.662863	0.779673
	H28	H	0.215456	0.900425	0.331959
	H29	H	0.213503	0.094297	0.658816
	H30	H	0.787303	0.096598	0.331190
	H31	H	0.785787	0.898397	0.658526
	H32	H	0.334164	0.210722	0.898649
	H33	H	0.664975	0.212248	0.092111
	H34	H	0.335855	0.785132	0.092818
	H35	H	0.665232	0.786213	0.899391
	H36	H	0.336972	0.898187	0.211771
	H37	H	0.665025	0.097575	0.209217
	H38	H	0.336033	0.097752	0.779845
	H39	H	0.665281	0.900572	0.781841
	H40	H	0.904228	0.211762	0.330632
	H41	H	0.099020	0.213177	0.658556
	H42	H	0.098799	0.784981	0.331012
	H43	H	0.903493	0.784159	0.658604
	H44	H	0.213203	0.333617	0.896801
	H45	H	0.212107	0.663484	0.090681
	H46	H	0.787266	0.333727	0.092498
	H47	H	0.788368	0.664143	0.897437
	H48	H	0.408875	0.114474	0.586786
	H49	H	0.601267	0.877204	0.593676
	H50	H	0.587414	0.113416	0.402595
	H51	H	0.413514	0.883178	0.407347
	H52	H	0.592699	0.398277	0.113237
	H53	H	0.592591	0.599749	0.876373
	H54	H	0.406220	0.591034	0.111243
	H55	H	0.407224	0.406246	0.879361
	H56	H	0.118452	0.590975	0.396622
	H57	H	0.883457	0.587356	0.588040
	H58	H	0.115841	0.401005	0.578905
	H59	H	0.883948	0.410665	0.399541
	H60	H	0.113956	0.416253	0.589398
	H61	H	0.882290	0.591223	0.589678
	H62	H	0.118307	0.594549	0.401754
	H63	H	0.881059	0.401946	0.397272
	H64	H	0.406598	0.590909	0.111610
	H65	H	0.600907	0.589310	0.877858
	H66	H	0.599458	0.408339	0.113056
	H67	H	0.407834	0.403777	0.879179
	H68	H	0.598270	0.115290	0.407298
	H69	H	0.585034	0.882219	0.593694
	H70	H	0.406781	0.116021	0.588681
	H71	H	0.401252	0.879014	0.404034
	H72	H	0.905863	0.615576	0.084924
	H73	H	0.097103	0.380220	0.088021
	H74	H	0.098738	0.616996	0.903728
	H75	H	0.905976	0.378974	0.895477
	H76	H	0.102438	0.901296	0.614675
	H77	H	0.093846	0.093286	0.378191
	H78	H	0.915427	0.084557	0.606874
	H79	H	0.913687	0.909836	0.381531
	H80	H	0.616379	0.094857	0.907555
	H81	H	0.381273	0.091531	0.098639
	H82	H	0.619416	0.909091	0.096829
	H83	H	0.379606	0.895968	0.901824
	H84	H	0.619741	0.897287	0.088175
	H85	H	0.382284	0.097530	0.084069
	H86	H	0.613689	0.084351	0.902331
	H87	H	0.386681	0.909240	0.909837
	H88	H	0.908874	0.102875	0.613660
	H89	H	0.097880	0.095658	0.377193
	H90	H	0.094113	0.911139	0.609569
	H91	H	0.909155	0.896307	0.376384
	H92	H	0.092423	0.617794	0.896275
	H93	H	0.090414	0.379945	0.091677
	H94	H	0.903635	0.618593	0.090567
	H95	H	0.913223	0.383966	0.904702
	H96	H	0.409273	0.115388	0.589783
	H97	H	0.595176	0.882956	0.579934
	H98	H	0.595950	0.117607	0.395868
	H99	H	0.411234	0.879049	0.395041
	H100	H	0.588959	0.408885	0.108536
	H101	H	0.588623	0.587635	0.881292
	H102	H	0.406333	0.591236	0.111539
	H103	H	0.405288	0.404836	0.877765
	H104	H	0.116097	0.588367	0.401908
	H105	H	0.883388	0.591425	0.585084
	H106	H	0.120910	0.400468	0.597136
	H107	H	0.884292	0.403902	0.406041
	H108	H	0.909646	0.615700	0.089701
	H109	H	0.091461	0.382162	0.084122
	H110	H	0.089387	0.613887	0.904215
	H111	H	0.901506	0.381482	0.907132
	H112	H	0.088340	0.898267	0.612112
	H113	H	0.097514	0.090856	0.377764
	H114	H	0.896625	0.087079	0.613784
	H115	H	0.899124	0.907798	0.376941
	H116	H	0.619222	0.093399	0.896188
	H117	H	0.386297	0.082493	0.086813
	H118	H	0.614751	0.910333	0.082976
	H119	H	0.382237	0.911234	0.893464
	C120	C	0.379602	0.006312	0.617000
	C121	C	0.622116	0.989875	0.616683
	C122	C	0.622680	0.006821	0.373609
	C123	C	0.380178	0.989266	0.374467
	C124	C	0.621753	0.376969	0.003254
	C125	C	0.622370	0.620731	0.986540
	C126	C	0.378145	0.620106	0.003756
	C127	C	0.377978	0.376332	0.986896
	C128	C	0.008907	0.619883	0.372429
	C129	C	0.991478	0.618709	0.615577
	C130	C	0.008231	0.376755	0.616948
	C131	C	0.992047	0.377221	0.373080
	C132	C	0.878271	0.507714	0.116489
	C133	C	0.121178	0.489869	0.115686
	C134	C	0.121700	0.507109	0.873081
	C135	C	0.878911	0.490541	0.874065
	C136	C	0.123028	0.875784	0.503699
	C137	C	0.123363	0.120409	0.486444
	C138	C	0.879292	0.119862	0.503195
	C139	C	0.878967	0.876009	0.486328
	C140	C	0.507970	0.119719	0.873573
	C141	C	0.492169	0.119642	0.117650
	C142	C	0.509263	0.876947	0.117501
	C143	C	0.491941	0.877293	0.873885
	C144	C	0.381385	0.882844	0.672471
	C145	C	0.620155	0.113579	0.671505
	C146	C	0.620259	0.882902	0.319048
	C147	C	0.382125	0.113471	0.320008
	C148	C	0.676723	0.380245	0.879948
	C149	C	0.675872	0.617515	0.109861
	C150	C	0.324021	0.617296	0.880473
	C151	C	0.322865	0.378791	0.109955
	C152	C	0.885101	0.674243	0.376234
	C153	C	0.115235	0.673578	0.612602
	C154	C	0.884335	0.321987	0.613413
	C155	C	0.116115	0.323508	0.377046
	C156	C	0.884558	0.378762	0.672355
	C157	C	0.114365	0.617825	0.671557
	C158	C	0.885335	0.617962	0.317725
	C159	C	0.115542	0.379525	0.318088
	C160	C	0.381720	0.675383	0.880564
	C161	C	0.618416	0.674807	0.109962
	C162	C	0.619294	0.321629	0.880424
	C163	C	0.380859	0.321600	0.110325
	C164	C	0.677262	0.882734	0.376930
	C165	C	0.676792	0.113872	0.613089
	C166	C	0.324975	0.882512	0.614436
	C167	C	0.325710	0.113563	0.377747
	C168	C	0.881070	0.383554	0.171123
	C169	C	0.118941	0.613758	0.169694
	C170	C	0.118749	0.383259	0.818726
	C171	C	0.881157	0.614139	0.818308
	C172	C	0.177869	0.879093	0.380602
	C173	C	0.176948	0.116504	0.609935
	C174	C	0.824804	0.117519	0.379989
	C175	C	0.823723	0.878335	0.609654
	C176	C	0.383788	0.173600	0.877554
	C177	C	0.615880	0.174583	0.113572
	C178	C	0.385010	0.822719	0.113965
	C179	C	0.616210	0.823169	0.877713
	C180	C	0.385557	0.879086	0.172726
	C181	C	0.615734	0.117758	0.171909
	C182	C	0.384803	0.117598	0.818464
	C183	C	0.615932	0.879626	0.819165
	C184	C	0.883207	0.174358	0.379600
	C185	C	0.119584	0.174999	0.609837
	C186	C	0.119746	0.821796	0.380311
	C187	C	0.882050	0.821391	0.609754
	C188	C	0.175765	0.382866	0.876306
	C189	C	0.175513	0.613986	0.111742
	C190	C	0.824132	0.383286	0.113344
	C191	C	0.825080	0.614714	0.876507
	C192	C	0.401615	0.092822	0.594783
	C193	C	0.600341	0.903231	0.595493
	C194	C	0.600505	0.093184	0.395433
	C195	C	0.402077	0.902829	0.395988
	C196	C	0.600070	0.398717	0.089356
	C197	C	0.600505	0.598741	0.900653
	C198	C	0.399925	0.597752	0.089238
	C199	C	0.400191	0.398431	0.901007
	C200	C	0.095205	0.597756	0.393584
	C201	C	0.905123	0.596587	0.594000
	C202	C	0.094679	0.399233	0.595092
	C203	C	0.905440	0.399055	0.394631
	C204	C	0.899956	0.594269	0.094823
	C205	C	0.099252	0.402931	0.094258
	C206	C	0.099913	0.594007	0.894954
	C207	C	0.900519	0.403997	0.896054
	C208	C	0.101416	0.897114	0.589817
	C209	C	0.102684	0.099494	0.400290
	C210	C	0.900660	0.098032	0.589032
	C211	C	0.900717	0.898253	0.400362
	C212	C	0.594079	0.097424	0.895468
	C213	C	0.405621	0.097158	0.096190
	C214	C	0.595643	0.899016	0.095730
	C215	C	0.405384	0.898944	0.895440
	Zn216	Zn	0.500285	-0.001781	0.745096
	Zn217	Zn	0.501026	-0.001684	0.246284
	Zn218	Zn	0.750702	0.499465	-0.004992
	Zn219	Zn	0.249339	0.497737	-0.004938
	Zn220	Zn	0.000372	0.747353	0.494902
	Zn221	Zn	0.000447	0.248714	0.494599
	Zn222	Zn	-0.000403	0.498711	0.745876
	Zn223	Zn	0.000318	0.498547	0.244071
	Zn224	Zn	0.500456	0.749183	-0.004692
	Zn225	Zn	0.499545	0.247900	-0.004369
	Zn226	Zn	0.750706	-0.002100	0.495040
	Zn227	Zn	0.251887	-0.002228	0.495280
	N228	N	0.414779	0.960876	0.674048
	N229	N	0.586747	0.035474	0.673719
	N230	N	0.587169	0.961077	0.316912
	N231	N	0.415465	0.035437	0.317806
	N232	N	0.678226	0.413958	0.957383
	N233	N	0.678376	0.584608	0.032179
	N234	N	0.321684	0.583601	0.957921
	N235	N	0.321051	0.412061	0.032309
	N236	N	0.962810	0.675647	0.409496
	N237	N	0.037900	0.674034	0.578409
	N238	N	0.962170	0.320674	0.579815
	N239	N	0.038249	0.322070	0.410512
	N240	N	0.962663	0.412152	0.674486
	N241	N	0.036398	0.584369	0.673577
	N242	N	0.963447	0.584726	0.315274
	N243	N	0.037438	0.412326	0.315676
	N244	N	0.414852	0.677129	0.958013
	N245	N	0.585642	0.676758	0.032283
	N246	N	0.586166	0.319352	0.958049
	N247	N	0.414713	0.320167	0.032863
	N248	N	0.678808	0.960692	0.410134
	N249	N	0.678127	0.036003	0.579658
	N250	N	0.323547	0.960365	0.580788
	N251	N	0.324210	0.035313	0.410838
	N252	N	0.914138	0.461572	0.172981
	N253	N	0.085937	0.535450	0.172121
	N254	N	0.086012	0.461611	0.816616
	N255	N	0.913783	0.535721	0.816553
	N256	N	0.180076	0.912014	0.458178
	N257	N	0.179337	0.083195	0.532309
	N258	N	0.822391	0.084184	0.457478
	N259	N	0.821569	0.911562	0.531934
	N260	N	0.461570	0.175077	0.911182
	N261	N	0.537896	0.175773	0.080612
	N262	N	0.462807	0.821280	0.080310
	N263	N	0.538237	0.821580	0.910913
	N264	N	0.463722	0.912063	0.175051
	N265	N	0.537710	0.084338	0.174476
	N266	N	0.462973	0.084762	0.815902
	N267	N	0.537747	0.912444	0.816562
	N268	N	0.916266	0.176012	0.457325
	N269	N	0.087082	0.177522	0.532150
	N270	N	0.086222	0.819929	0.457861
	N271	N	0.915627	0.819802	0.532212
	N272	N	0.177841	0.460939	0.909225
	N273	N	0.176803	0.535678	0.078898
	N274	N	0.822385	0.461356	0.079724
	N275	N	0.823484	0.536913	0.910490
	O276	O	0.020036	0.172015	0.838833
	H277	H	0.021066	0.176502	0.840029
	H278	H	0.019218	0.176108	0.840591
	O279	O	0.391085	0.482070	0.514688
	H280	H	0.389951	0.485821	0.515698
	H281	H	0.401355	0.481093	0.517073
	O282	O	0.436592	0.420609	0.591652
	H283	H	0.425039	0.413649	0.589093
	H284	H	0.426638	0.425041	0.578929
	O285	O	0.465870	0.514832	0.533894
	H286	H	0.465630	0.509954	0.537730
	H287	H	0.463355	0.504794	0.541988
	O288	O	0.472715	0.448958	0.583656
	H289	H	0.467298	0.450714	0.585646
	H290	H	0.473390	0.446598	0.584396
	O291	O	-0.060887	1.022748	0.933431
	H292	H	-0.060302	1.023248	0.927466
	H293	H	-0.065153	1.024222	0.931329
	O294	O	0.426309	0.473880	0.542406
	H295	H	0.419954	0.477752	0.542187
	H296	H	0.423264	0.478082	0.537789
	O297	O	1.447614	0.529371	0.498077
	H298	H	1.449870	0.533644	0.493895
	H299	H	1.450517	0.529626	0.508159
