data_Molecule from HDF5

_cell_length_a		16.093432
_cell_length_b		16.528389
_cell_length_c		16.195800
_cell_angle_alpha	90.068729
_cell_angle_beta	89.702268
_cell_angle_gamma	89.685485
_symmetry_space_group_name_H-M	'P 1'
_symmetry_Int_Tables_number		1

loop_
	_symmetry_equiv_pos_as_xyz
	x,y,z

loop_
	_atom_site_label
	_atom_site_type_symbol
	_atom_site_fract_x
	_atom_site_fract_y
	_atom_site_fract_z
	H0	H	0.398464	0.844250	0.709507
	H1	H	0.604991	0.162233	0.705939
	H2	H	0.605619	0.842100	0.270131
	H3	H	0.400713	0.163692	0.270879
	H4	H	0.719258	0.405799	0.823466
	H5	H	0.713995	0.597616	0.153176
	H6	H	0.291270	0.601856	0.823950
	H7	H	0.289263	0.403628	0.151211
	H8	H	0.838771	0.721377	0.385725
	H9	H	0.164411	0.722327	0.592823
	H10	H	0.838232	0.289475	0.591107
	H11	H	0.163051	0.280868	0.380030
	H12	H	0.838983	0.405686	0.704265
	H13	H	0.168289	0.602112	0.701188
	H14	H	0.837788	0.603063	0.273003
	H15	H	0.166706	0.401900	0.272270
	H16	H	0.397083	0.725007	0.827217
	H17	H	0.609064	0.722579	0.149113
	H18	H	0.615187	0.281313	0.826554
	H19	H	0.402644	0.284208	0.149278
	H20	H	0.720118	0.841607	0.388501
	H21	H	0.716925	0.163783	0.587345
	H22	H	0.283290	0.843752	0.590970
	H23	H	0.283771	0.163693	0.387483
	H24	H	0.902677	0.342164	0.205291
	H25	H	0.103263	0.663006	0.206397
	H26	H	0.106948	0.342723	0.768723
	H27	H	0.902107	0.663935	0.771562
	H28	H	0.217052	0.904981	0.324475
	H29	H	0.213763	0.101737	0.652738
	H30	H	0.790549	0.098051	0.323234
	H31	H	0.791465	0.909221	0.654270
	H32	H	0.344423	0.224218	0.883358
	H33	H	0.669376	0.216994	0.089335
	H34	H	0.342087	0.784801	0.094432
	H35	H	0.667274	0.785057	0.884255
	H36	H	0.338714	0.906926	0.201609
	H37	H	0.669377	0.099026	0.201499
	H38	H	0.339952	0.102956	0.776610
	H39	H	0.668071	0.902550	0.772201
	H40	H	0.896349	0.222694	0.326567
	H41	H	0.104523	0.222851	0.649302
	H42	H	0.107540	0.782838	0.327303
	H43	H	0.895805	0.784333	0.650542
	H44	H	0.225077	0.342868	0.884252
	H45	H	0.220233	0.663838	0.088288
	H46	H	0.789845	0.341090	0.085311
	H47	H	0.787694	0.664212	0.890424
	H48	H	0.418302	0.113321	0.580829
	H49	H	0.594327	0.888927	0.577027
	H50	H	0.592949	0.117267	0.390796
	H51	H	0.410566	0.887615	0.390807
	H52	H	0.603058	0.411032	0.106638
	H53	H	0.593967	0.599764	0.869606
	H54	H	0.412882	0.593468	0.103760
	H55	H	0.417325	0.410505	0.870734
	H56	H	0.119622	0.591676	0.393469
	H57	H	0.886837	0.586159	0.582665
	H58	H	0.116888	0.420808	0.575854
	H59	H	0.884382	0.415758	0.391971
	H60	H	0.123782	0.405866	0.584241
	H61	H	0.881009	0.601858	0.585726
	H62	H	0.119359	0.599325	0.399787
	H63	H	0.882546	0.404889	0.398277
	H64	H	0.418056	0.593525	0.101806
	H65	H	0.597902	0.593038	0.870478
	H66	H	0.587903	0.412182	0.101230
	H67	H	0.417949	0.411199	0.871730
	H68	H	0.593829	0.115959	0.398608
	H69	H	0.598970	0.886217	0.580896
	H70	H	0.403985	0.116605	0.573726
	H71	H	0.414939	0.891036	0.397034
	H72	H	0.913064	0.615814	0.082427
	H73	H	0.086914	0.391264	0.081131
	H74	H	0.103633	0.620693	0.888059
	H75	H	0.911263	0.390289	0.904132
	H76	H	0.087671	0.912821	0.603555
	H77	H	0.085797	0.094062	0.373547
	H78	H	0.914286	0.106571	0.606213
	H79	H	0.912307	0.910083	0.371260
	H80	H	0.624849	0.100083	0.900420
	H81	H	0.387735	0.095809	0.078082
	H82	H	0.622455	0.908920	0.078947
	H83	H	0.384888	0.919261	0.890532
	H84	H	0.621317	0.910255	0.075751
	H85	H	0.388071	0.096814	0.077894
	H86	H	0.618816	0.086533	0.903131
	H87	H	0.383934	0.900862	0.901316
	H88	H	0.901063	0.098174	0.608517
	H89	H	0.091178	0.097797	0.370577
	H90	H	0.088443	0.908660	0.605309
	H91	H	0.913614	0.909143	0.372603
	H92	H	0.086819	0.615401	0.890884
	H93	H	0.099365	0.391103	0.070412
	H94	H	0.907631	0.616920	0.078827
	H95	H	0.906622	0.385637	0.889442
	H96	H	0.406704	0.120472	0.588779
	H97	H	0.592969	0.888787	0.583213
	H98	H	0.600796	0.118029	0.393721
	H99	H	0.407628	0.889240	0.398271
	H100	H	0.594246	0.398532	0.107076
	H101	H	0.589757	0.594016	0.873230
	H102	H	0.415851	0.597845	0.104554
	H103	H	0.418205	0.409906	0.871095
	H104	H	0.116776	0.590388	0.402812
	H105	H	0.887944	0.598021	0.570054
	H106	H	0.118789	0.405272	0.566501
	H107	H	0.887513	0.415377	0.403547
	H108	H	0.907759	0.618698	0.085393
	H109	H	0.101671	0.385981	0.085519
	H110	H	0.098909	0.614733	0.904106
	H111	H	0.921212	0.390278	0.891545
	H112	H	0.091576	0.911528	0.604630
	H113	H	0.092084	0.090819	0.372715
	H114	H	0.914091	0.090749	0.602691
	H115	H	0.913157	0.907812	0.371691
	H116	H	0.623819	0.090418	0.889172
	H117	H	0.387038	0.096791	0.077522
	H118	H	0.621426	0.911770	0.078739
	H119	H	0.392703	0.918016	0.910656
	C120	C	0.379142	0.011529	0.611840
	C121	C	0.624393	0.994176	0.609806
	C122	C	0.626003	0.010958	0.365224
	C123	C	0.380364	0.995068	0.365801
	C124	C	0.627084	0.379062	-0.003072
	C125	C	0.624156	0.624255	0.979144
	C126	C	0.383564	0.625219	-0.003576
	C127	C	0.385953	0.380881	0.978900
	C128	C	0.010390	0.623788	0.368094
	C129	C	0.993652	0.624556	0.609289
	C130	C	0.011587	0.382386	0.607688
	C131	C	0.992876	0.381334	0.366606
	C132	C	0.880630	0.511110	0.110771
	C133	C	0.126044	0.494927	0.109985
	C134	C	0.127237	0.511303	0.864092
	C135	C	0.882326	0.495030	0.866131
	C136	C	0.122436	0.880836	0.497466
	C137	C	0.120869	0.124567	0.479491
	C138	C	0.880138	0.125937	0.497149
	C139	C	0.881461	0.881214	0.479890
	C140	C	0.514251	0.123455	0.867466
	C141	C	0.496151	0.124236	0.108100
	C142	C	0.513565	0.881561	0.109103
	C143	C	0.495140	0.881811	0.867910
	C144	C	0.379032	0.892135	0.670060
	C145	C	0.623440	0.114687	0.666691
	C146	C	0.625128	0.890095	0.308864
	C147	C	0.381200	0.115733	0.309435
	C148	C	0.683222	0.383372	0.873110
	C149	C	0.678317	0.619919	0.103192
	C150	C	0.327555	0.623100	0.873462
	C151	C	0.327759	0.382826	0.101783
	C152	C	0.887438	0.681734	0.367519
	C153	C	0.116429	0.682121	0.610246
	C154	C	0.887531	0.327327	0.609472
	C155	C	0.115101	0.321521	0.363353
	C156	C	0.887961	0.385201	0.665597
	C157	C	0.118167	0.622292	0.664277
	C158	C	0.886843	0.623052	0.311433
	C159	C	0.116888	0.381352	0.309204
	C160	C	0.380566	0.684375	0.875281
	C161	C	0.625870	0.681746	0.101376
	C162	C	0.631157	0.321598	0.874598
	C163	C	0.384053	0.323426	0.100855
	C164	C	0.682575	0.890018	0.367423
	C165	C	0.679513	0.115442	0.607581
	C166	C	0.321666	0.891480	0.610941
	C167	C	0.322646	0.115537	0.367330
	C168	C	0.882642	0.390204	0.166757
	C169	C	0.124088	0.615037	0.167525
	C170	C	0.126970	0.390747	0.807072
	C171	C	0.883012	0.615687	0.810195
	C172	C	0.179703	0.883390	0.374075
	C173	C	0.176765	0.122624	0.602861
	C174	C	0.826543	0.120510	0.372892
	C175	C	0.827123	0.886528	0.604360
	C176	C	0.392181	0.183339	0.866185
	C177	C	0.620193	0.178802	0.108038
	C178	C	0.390351	0.824620	0.111508
	C179	C	0.618036	0.823784	0.865685
	C180	C	0.388881	0.884796	0.165302
	C181	C	0.620245	0.120230	0.163717
	C182	C	0.390037	0.123291	0.812664
	C183	C	0.618453	0.882361	0.809953
	C184	C	0.879091	0.182489	0.374547
	C185	C	0.122264	0.182887	0.601397
	C186	C	0.125262	0.822799	0.375328
	C187	C	0.879079	0.824372	0.602480
	C188	C	0.185439	0.390862	0.864798
	C189	C	0.182549	0.615425	0.109010
	C190	C	0.826227	0.389646	0.107522
	C191	C	0.825648	0.615979	0.869216
	C192	C	0.402786	0.095111	0.587820
	C193	C	0.601793	0.909859	0.587117
	C194	C	0.602668	0.095211	0.387734
	C195	C	0.404071	0.911035	0.388705
	C196	C	0.602415	0.400792	0.082773
	C197	C	0.600713	0.602069	0.893403
	C198	C	0.408265	0.601773	0.081451
	C199	C	0.410703	0.403847	0.893476
	C200	C	0.096137	0.600423	0.391800
	C201	C	0.907613	0.601941	0.586112
	C202	C	0.097413	0.404155	0.582714
	C203	C	0.907174	0.405032	0.390922
	C204	C	0.902855	0.595351	0.088649
	C205	C	0.102898	0.411165	0.086153
	C206	C	0.103455	0.595205	0.887513
	C207	C	0.905857	0.410597	0.888521
	C208	C	0.096944	0.904137	0.582321
	C209	C	0.096593	0.101144	0.394221
	C210	C	0.902981	0.104676	0.583323
	C211	C	0.905750	0.902776	0.394067
	C212	C	0.600289	0.099331	0.890861
	C213	C	0.409902	0.102877	0.084730
	C214	C	0.599329	0.903562	0.084842
	C215	C	0.409366	0.905773	0.893360
	Zn216	Zn	0.503443	0.003001	0.740146
	Zn217	Zn	0.503487	0.003045	0.235914
	Zn218	Zn	0.751681	0.502566	-0.011809
	Zn219	Zn	0.256726	0.502756	-0.012756
	Zn220	Zn	0.001579	0.752123	0.488946
	Zn221	Zn	0.000746	0.253986	0.487725
	Zn222	Zn	0.004253	0.503093	0.735432
	Zn223	Zn	0.002420	0.502705	0.240114
	Zn224	Zn	0.504074	0.753707	-0.011664
	Zn225	Zn	0.507084	0.251568	-0.013251
	Zn226	Zn	0.754026	0.002969	0.488734
	Zn227	Zn	0.249737	0.003832	0.488700
	N228	N	0.413973	0.967802	0.670811
	N229	N	0.589935	0.038348	0.668251
	N230	N	0.590588	0.966421	0.307346
	N231	N	0.416179	0.039588	0.308051
	N232	N	0.680813	0.418515	0.950199
	N233	N	0.677425	0.584653	0.026172
	N234	N	0.329132	0.587224	0.949852
	N235	N	0.328784	0.417902	0.024911
	N236	N	0.965317	0.682390	0.401727
	N237	N	0.038218	0.683652	0.576682
	N238	N	0.965477	0.325268	0.574027
	N239	N	0.037060	0.321383	0.398500
	N240	N	0.965910	0.418683	0.664620
	N241	N	0.040827	0.587191	0.663815
	N242	N	0.964258	0.587533	0.311887
	N243	N	0.040225	0.418087	0.311164
	N244	N	0.414742	0.685912	0.953022
	N245	N	0.592913	0.684594	0.023306
	N246	N	0.597113	0.318698	0.952517
	N247	N	0.419194	0.321965	0.023300
	N248	N	0.683376	0.966140	0.401502
	N249	N	0.680376	0.039441	0.572938
	N250	N	0.321608	0.966896	0.575401
	N251	N	0.322062	0.039610	0.401931
	N252	N	0.915649	0.466670	0.168862
	N253	N	0.089939	0.539006	0.168328
	N254	N	0.091502	0.466610	0.806578
	N255	N	0.917537	0.539412	0.808299
	N256	N	0.178277	0.918703	0.450915
	N257	N	0.175932	0.086965	0.526104
	N258	N	0.826992	0.086096	0.450147
	N259	N	0.828277	0.921022	0.527145
	N260	N	0.470646	0.183601	0.899258
	N261	N	0.541974	0.181453	0.074275
	N262	N	0.468804	0.822069	0.077645
	N263	N	0.540195	0.823468	0.901065
	N264	N	0.466219	0.919610	0.164023
	N265	N	0.542160	0.087003	0.164078
	N266	N	0.466996	0.086718	0.813462
	N267	N	0.540702	0.917569	0.811034
	N268	N	0.911653	0.185830	0.452774
	N269	N	0.088632	0.184496	0.523553
	N270	N	0.090570	0.820890	0.453073
	N271	N	0.912335	0.820948	0.524051
	N272	N	0.185846	0.466786	0.899579
	N273	N	0.183861	0.539602	0.073882
	N274	N	0.824582	0.465761	0.073490
	N275	N	0.825171	0.539832	0.903377
	O276	O	0.088164	-0.057688	0.034155
	H277	H	0.086234	-0.049165	0.032556
	H278	H	0.096529	-0.059781	0.029732
	O279	O	0.440983	0.621449	0.513013
	H280	H	0.457259	0.632499	0.515729
	H281	H	0.434218	0.626187	0.516486
	O282	O	0.464167	-0.595882	-0.452870
	H283	H	0.449948	-0.591017	-0.455225
	H284	H	0.454744	-0.589488	-0.450925
	O285	O	0.025108	1.107958	-0.076914
	H286	H	0.023081	1.115852	-0.083095
	H287	H	0.033888	1.109313	-0.077129
	O288	O	0.582423	0.690097	0.622132
	H289	H	0.591001	0.701943	0.642118
	H290	H	0.611492	0.687447	0.616214
	O291	O	1.019247	0.029664	0.966024
	H292	H	1.015361	0.021118	0.958091
	H293	H	1.015679	0.039532	0.973153
	O294	O	0.892294	1.025655	0.934800
	H295	H	0.888133	1.038090	0.939314
	H296	H	0.900303	1.016586	0.930723
	O297	O	0.191255	-0.048371	-0.019011
	H298	H	0.202601	-0.045827	-0.027043
	H299	H	0.200510	-0.060603	-0.011792
	O300	O	0.601917	0.454662	0.636483
	H301	H	0.591143	0.447629	0.631980
	H302	H	0.597017	0.436978	0.642393
	O303	O	-0.018845	1.032947	0.839997
	H304	H	-0.027538	1.046090	0.845825
	H305	H	-0.010884	1.038579	0.830778
	O306	O	0.319368	0.652038	0.382246
	H307	H	0.316501	0.662214	0.400941
	H308	H	0.325736	0.660817	0.393199
	O309	O	0.901374	-0.025883	0.095871
	H310	H	0.908989	-0.028643	0.108514
	H311	H	0.900689	-0.022895	0.093234
	O312	O	0.061334	0.104365	1.059207
	H313	H	0.056715	0.112697	1.063817
	H314	H	0.065805	0.105138	1.061476
	O315	O	0.522115	0.548791	0.533824
	H316	H	0.525679	0.535505	0.547033
	H317	H	0.530552	0.562468	0.514019
	O318	O	1.147283	0.975570	0.990464
	H319	H	1.145763	0.982368	0.992299
	H320	H	1.150250	0.967984	0.986556
	O321	O	0.500220	0.486412	0.563762
	H322	H	0.501761	0.492043	0.561375
	H323	H	0.512481	0.490196	0.561292
	O324	O	0.397096	0.312783	0.589336
	H325	H	0.390296	0.336409	0.584925
	H326	H	0.387228	0.311703	0.584530
	O327	O	0.025145	0.995450	0.928696
	H328	H	0.027491	1.001714	0.930733
	H329	H	0.026913	0.992157	0.927640
	O330	O	-0.093412	0.113596	0.065601
	H331	H	-0.091189	0.118209	0.058287
	H332	H	-0.101221	0.108109	0.067221
	O333	O	-0.451156	1.649265	1.592731
	H334	H	-0.439920	1.642054	1.580039
	H335	H	-0.456509	1.655842	1.590823
	O336	O	1.093407	1.084592	1.094930
	H337	H	1.091829	1.087983	1.093269
	H338	H	1.104004	1.085447	1.092756
	O339	O	0.477646	0.518310	0.326310
	H340	H	0.472854	0.538419	0.343561
	H341	H	0.475559	0.510943	0.313570
	O342	O	0.926733	-0.047650	0.154070
	H343	H	0.937933	-0.051580	0.155709
	H344	H	0.927958	-0.050610	0.157961
	O345	O	0.626454	0.341464	0.377951
	H346	H	0.618510	0.331141	0.363739
	H347	H	0.613385	0.330118	0.386841
	O348	O	0.977807	0.989765	1.025482
	H349	H	0.966293	0.977019	1.035999
	H350	H	0.961770	0.993175	1.034295
	O351	O	0.981680	0.931304	-0.029062
	H352	H	0.989449	0.933971	-0.033559
	H353	H	0.976181	0.927214	-0.033657
	O354	O	0.490685	0.440531	0.367306
	H355	H	0.473354	0.436902	0.377110
	H356	H	0.487363	0.441261	0.375563
	O357	O	0.635908	0.369663	0.408907
	H358	H	0.630280	0.370976	0.393031
	H359	H	0.632438	0.361454	0.399410
	O360	O	-0.579835	0.488861	0.436240
	H361	H	-0.575951	0.495409	0.437674
	H362	H	-0.578130	0.492709	0.429479
	O363	O	0.363867	0.353061	0.483577
	H364	H	0.361361	0.367997	0.475147
	H365	H	0.355374	0.344835	0.487516
	O366	O	0.465705	0.596956	0.496758
	H367	H	0.465161	0.588002	0.483132
	H368	H	0.481003	0.607676	0.504531
	O369	O	0.618233	0.543966	0.317254
	H370	H	0.619649	0.537237	0.299737
	H371	H	0.606793	0.531446	0.316256
	O372	O	0.479054	0.634188	0.561544
	H373	H	0.484548	0.628482	0.578105
	H374	H	0.495150	0.632461	0.553145
	O375	O	0.606048	0.537746	0.485902
	H376	H	0.611258	0.530798	0.483259
	H377	H	0.589040	0.531835	0.471329
	O378	O	0.539331	0.442983	0.588065
	H379	H	0.535497	0.431450	0.591038
	H380	H	0.541868	0.445053	0.576460
	O381	O	0.333662	0.618716	0.311385
	H382	H	0.330535	0.636735	0.318784
	H383	H	0.331383	0.641011	0.307258
	O384	O	0.001489	0.911222	-0.089813
	H385	H	-0.000957	0.912825	-0.099522
	H386	H	-0.008135	0.930266	-0.076637
	O387	O	0.931310	-0.058169	0.952349
	H388	H	0.934334	-0.064337	0.960489
	H389	H	0.933194	-0.056411	0.949660
	O390	O	-0.017511	0.851340	0.050021
	H391	H	-0.020704	0.841216	0.048479
	H392	H	-0.008728	0.841952	0.051542
	O393	O	0.923165	1.028200	-0.058002
	H394	H	0.918315	1.031458	-0.054321
	H395	H	0.927369	1.034898	-0.066195
	O396	O	0.600955	0.460189	0.440826
	H397	H	0.589827	0.453500	0.431709
	H398	H	0.609267	0.453551	0.433590
	O399	O	0.395405	0.491280	1.566251
	H400	H	0.386906	0.489393	1.570433
	H401	H	0.394581	0.494153	1.565527
	O402	O	1.125066	0.924487	0.922931
	H403	H	1.121787	0.922665	0.934590
	H404	H	1.111521	0.924815	0.916013
	O405	O	0.141230	0.097095	0.921326
	H406	H	0.143768	0.090366	0.907092
	H407	H	0.145766	0.099763	0.925800
