data_Molecule from HDF5

_cell_length_a		16.401818
_cell_length_b		16.368978
_cell_length_c		16.516714
_cell_angle_alpha	89.905434
_cell_angle_beta	90.080044
_cell_angle_gamma	89.825247
_symmetry_space_group_name_H-M	'P 1'
_symmetry_Int_Tables_number		1

loop_
	_symmetry_equiv_pos_as_xyz
	x,y,z

loop_
	_atom_site_label
	_atom_site_type_symbol
	_atom_site_fract_x
	_atom_site_fract_y
	_atom_site_fract_z
	H0	H	0.393324	0.841740	0.718650
	H1	H	0.606260	0.157804	0.718307
	H2	H	0.604676	0.841501	0.274050
	H3	H	0.390178	0.158536	0.273402
	H4	H	0.720552	0.394861	0.841086
	H5	H	0.721189	0.608429	0.155188
	H6	H	0.273774	0.607951	0.841995
	H7	H	0.279365	0.396846	0.156052
	H8	H	0.839414	0.720733	0.392665
	H9	H	0.157752	0.717822	0.601110
	H10	H	0.839549	0.279150	0.601655
	H11	H	0.156094	0.277145	0.390683
	H12	H	0.841010	0.391397	0.720926
	H13	H	0.155580	0.605332	0.720734
	H14	H	0.840480	0.607861	0.274557
	H15	H	0.155419	0.391898	0.274878
	H16	H	0.391979	0.722895	0.840418
	H17	H	0.604963	0.724767	0.154865
	H18	H	0.604339	0.279485	0.840166
	H19	H	0.392673	0.277580	0.153982
	H20	H	0.718603	0.839863	0.392255
	H21	H	0.720763	0.157898	0.601388
	H22	H	0.278901	0.840703	0.601298
	H23	H	0.274126	0.157854	0.389343
	H24	H	0.893390	0.340299	0.218767
	H25	H	0.101424	0.658614	0.219528
	H26	H	0.105070	0.340572	0.778485
	H27	H	0.892841	0.658096	0.778142
	H28	H	0.220295	0.893738	0.337876
	H29	H	0.220521	0.104343	0.654162
	H30	H	0.776041	0.106815	0.339076
	H31	H	0.778490	0.894711	0.653713
	H32	H	0.338631	0.221324	0.891916
	H33	H	0.658036	0.218675	0.098686
	H34	H	0.339584	0.781127	0.101755
	H35	H	0.656799	0.780764	0.894093
	H36	H	0.340683	0.893455	0.220405
	H37	H	0.655291	0.109779	0.220244
	H38	H	0.339467	0.108040	0.774300
	H39	H	0.657366	0.895959	0.777307
	H40	H	0.892619	0.222315	0.339416
	H41	H	0.105218	0.221592	0.654472
	H42	H	0.103679	0.777008	0.338565
	H43	H	0.895429	0.778605	0.654552
	H44	H	0.219006	0.340614	0.895917
	H45	H	0.218137	0.659988	0.102931
	H46	H	0.777132	0.340367	0.103920
	H47	H	0.781087	0.660152	0.897861
	H48	H	0.410597	0.113599	0.586396
	H49	H	0.575956	0.889561	0.587978
	H50	H	0.584610	0.113012	0.405708
	H51	H	0.412130	0.887962	0.408502
	H52	H	0.584579	0.410836	0.109585
	H53	H	0.590925	0.587591	0.885052
	H54	H	0.407211	0.601470	0.115085
	H55	H	0.408817	0.418574	0.886697
	H56	H	0.111785	0.586041	0.406559
	H57	H	0.882917	0.589289	0.589857
	H58	H	0.113183	0.411053	0.592579
	H59	H	0.885349	0.410791	0.410114
	H60	H	0.112801	0.406389	0.586599
	H61	H	0.884781	0.589661	0.586414
	H62	H	0.111198	0.587084	0.411616
	H63	H	0.885160	0.413593	0.409131
	H64	H	0.401311	0.582429	0.111105
	H65	H	0.584629	0.588579	0.887749
	H66	H	0.587433	0.407833	0.111783
	H67	H	0.413746	0.408836	0.885524
	H68	H	0.586081	0.112087	0.411141
	H69	H	0.593109	0.886884	0.575766
	H70	H	0.411027	0.112475	0.584178
	H71	H	0.410480	0.886708	0.408432
	H72	H	0.908830	0.613233	0.087059
	H73	H	0.094463	0.384741	0.087890
	H74	H	0.089507	0.616232	0.905044
	H75	H	0.912105	0.386821	0.912968
	H76	H	0.093019	0.905309	0.611733
	H77	H	0.085460	0.092192	0.384185
	H78	H	0.909347	0.084916	0.608234
	H79	H	0.908063	0.913999	0.384289
	H80	H	0.612911	0.087373	0.901617
	H81	H	0.385458	0.085756	0.087910
	H82	H	0.611240	0.914403	0.087426
	H83	H	0.384781	0.915399	0.905852
	H84	H	0.611726	0.911758	0.084560
	H85	H	0.383760	0.091916	0.085773
	H86	H	0.612955	0.095403	0.906552
	H87	H	0.383190	0.911844	0.905119
	H88	H	0.912611	0.088935	0.607693
	H89	H	0.089791	0.085971	0.384443
	H90	H	0.090604	0.914691	0.606922
	H91	H	0.913790	0.908815	0.383854
	H92	H	0.079415	0.611317	0.907798
	H93	H	0.084489	0.385590	0.092631
	H94	H	0.910536	0.613256	0.088173
	H95	H	0.904260	0.383450	0.910645
	H96	H	0.408941	0.114096	0.584116
	H97	H	0.593796	0.881179	0.596107
	H98	H	0.589426	0.114578	0.407669
	H99	H	0.411830	0.887702	0.407163
	H100	H	0.588999	0.412323	0.110595
	H101	H	0.588453	0.594151	0.884966
	H102	H	0.420110	0.588112	0.106358
	H103	H	0.402932	0.410559	0.882521
	H104	H	0.109412	0.582808	0.409316
	H105	H	0.885269	0.586497	0.588364
	H106	H	0.109980	0.413640	0.586239
	H107	H	0.884883	0.411284	0.407913
	H108	H	0.910005	0.612472	0.086091
	H109	H	0.085965	0.388834	0.082318
	H110	H	0.087636	0.611371	0.915525
	H111	H	0.911280	0.384078	0.904883
	H112	H	0.083764	0.907209	0.607362
	H113	H	0.082476	0.085967	0.387145
	H114	H	0.907994	0.090291	0.610534
	H115	H	0.906728	0.906831	0.381144
	H116	H	0.609500	0.087359	0.910028
	H117	H	0.386702	0.087307	0.081416
	H118	H	0.610005	0.915100	0.083345
	H119	H	0.385220	0.912726	0.907910
	C120	C	0.377999	0.008652	0.617361
	C121	C	0.620322	0.990783	0.618226
	C122	C	0.619657	0.008330	0.375337
	C123	C	0.377344	0.992042	0.375056
	C124	C	0.619567	0.378560	0.006612
	C125	C	0.620440	0.623066	0.989641
	C126	C	0.375909	0.623300	0.006774
	C127	C	0.377018	0.379792	0.989132
	C128	C	0.006513	0.619316	0.376542
	C129	C	0.989363	0.620259	0.619477
	C130	C	0.007267	0.377795	0.620072
	C131	C	0.989506	0.378424	0.376195
	C132	C	0.877040	0.507875	0.119558
	C133	C	0.119549	0.491402	0.119892
	C134	C	0.119034	0.508248	0.877628
	C135	C	0.876900	0.490412	0.877581
	C136	C	0.121005	0.876734	0.504554
	C137	C	0.119575	0.121040	0.488522
	C138	C	0.877132	0.121162	0.504909
	C139	C	0.878146	0.878057	0.487846
	C140	C	0.506872	0.122890	0.873877
	C141	C	0.489728	0.121284	0.117323
	C142	C	0.506581	0.880763	0.118187
	C143	C	0.489267	0.880301	0.875297
	C144	C	0.375342	0.889314	0.678301
	C145	C	0.623816	0.110311	0.678131
	C146	C	0.622278	0.888959	0.314856
	C147	C	0.373000	0.110927	0.314158
	C148	C	0.680328	0.376599	0.888269
	C149	C	0.680988	0.625995	0.107865
	C150	C	0.314631	0.625931	0.888658
	C151	C	0.318254	0.377605	0.108194
	C152	C	0.887170	0.680709	0.374247
	C153	C	0.109389	0.678983	0.620301
	C154	C	0.887774	0.318217	0.621329
	C155	C	0.108478	0.317132	0.373154
	C156	C	0.888353	0.374076	0.680756
	C157	C	0.108400	0.623131	0.680020
	C158	C	0.887536	0.624277	0.315541
	C159	C	0.107729	0.374274	0.314922
	C160	C	0.373321	0.683182	0.888032
	C161	C	0.622924	0.684052	0.107695
	C162	C	0.622366	0.319001	0.887922
	C163	C	0.374576	0.318141	0.107119
	C164	C	0.678964	0.887960	0.373847
	C165	C	0.681066	0.110031	0.619974
	C166	C	0.318561	0.888697	0.619672
	C167	C	0.315088	0.110650	0.371734
	C168	C	0.874920	0.388017	0.179278
	C169	C	0.120639	0.611223	0.179532
	C170	C	0.122541	0.388439	0.818354
	C171	C	0.875195	0.610328	0.818284
	C172	C	0.180286	0.875202	0.385423
	C173	C	0.180646	0.122901	0.606983
	C174	C	0.815985	0.124829	0.386694
	C175	C	0.818378	0.876032	0.606763
	C176	C	0.386837	0.182218	0.872669
	C177	C	0.609733	0.180244	0.118128
	C178	C	0.387253	0.820647	0.120364
	C179	C	0.609232	0.820441	0.874983
	C180	C	0.388045	0.876572	0.179537
	C181	C	0.608431	0.125561	0.178508
	C182	C	0.387337	0.125624	0.814147
	C183	C	0.609368	0.877818	0.816818
	C184	C	0.874501	0.182149	0.386734
	C185	C	0.123196	0.181318	0.607097
	C186	C	0.122406	0.816711	0.385712
	C187	C	0.876621	0.818515	0.607074
	C188	C	0.179741	0.388567	0.876560
	C189	C	0.178656	0.611776	0.121849
	C190	C	0.816873	0.388294	0.122182
	C191	C	0.819290	0.611407	0.877837
	C192	C	0.403019	0.091616	0.592270
	C193	C	0.594886	0.907640	0.593834
	C194	C	0.594054	0.091560	0.400753
	C195	C	0.403980	0.909049	0.400897
	C196	C	0.594360	0.403456	0.089137
	C197	C	0.595105	0.597433	0.907369
	C198	C	0.401798	0.598050	0.089335
	C199	C	0.401479	0.405260	0.906505
	C200	C	0.089314	0.592820	0.401877
	C201	C	0.906110	0.595566	0.595053
	C202	C	0.090277	0.403088	0.595487
	C203	C	0.906639	0.404390	0.401769
	C204	C	0.902284	0.591098	0.094437
	C205	C	0.095303	0.408310	0.094883
	C206	C	0.092954	0.591413	0.902347
	C207	C	0.901880	0.406456	0.902130
	C208	C	0.096283	0.901993	0.587034
	C209	C	0.093521	0.095507	0.406736
	C210	C	0.902802	0.095409	0.587496
	C211	C	0.902635	0.902789	0.405046
	C212	C	0.590184	0.097421	0.898812
	C213	C	0.406839	0.095694	0.092197
	C214	C	0.589339	0.906514	0.092669
	C215	C	0.406131	0.905787	0.899482
	Zn216	Zn	0.498518	0.001115	0.746311
	Zn217	Zn	0.498251	0.001256	0.246720
	Zn218	Zn	0.748568	0.499766	-0.000934
	Zn219	Zn	0.248151	0.500902	-0.001415
	Zn220	Zn	-0.001242	0.748168	0.496505
	Zn221	Zn	-0.001714	0.250419	0.497733
	Zn222	Zn	-0.001992	0.498926	0.748621
	Zn223	Zn	-0.002598	0.499463	0.247654
	Zn224	Zn	0.497988	0.752041	-0.002725
	Zn225	Zn	0.497987	0.250139	-0.003346
	Zn226	Zn	0.748638	-0.000969	0.496341
	Zn227	Zn	0.249243	-0.000275	0.496500
	N228	N	0.411530	0.964996	0.677218
	N229	N	0.586966	0.035119	0.677470
	N230	N	0.586320	0.964930	0.315529
	N231	N	0.410830	0.035938	0.315984
	N232	N	0.678671	0.413050	0.963099
	N233	N	0.679465	0.588521	0.033515
	N234	N	0.316218	0.589556	0.963637
	N235	N	0.319666	0.415024	0.033790
	N236	N	0.962039	0.677741	0.411603
	N237	N	0.034392	0.677533	0.583521
	N238	N	0.962745	0.320171	0.584464
	N239	N	0.033866	0.319703	0.410863
	N240	N	0.963869	0.410141	0.680301
	N241	N	0.032555	0.587486	0.680066
	N242	N	0.962750	0.586920	0.316786
	N243	N	0.032718	0.411478	0.316757
	N244	N	0.410837	0.681581	0.962420
	N245	N	0.585795	0.682406	0.033083
	N246	N	0.585396	0.320034	0.962498
	N247	N	0.410461	0.319263	0.032066
	N248	N	0.677509	0.963236	0.410683
	N249	N	0.679085	0.034681	0.583555
	N250	N	0.320127	0.963729	0.582405
	N251	N	0.317798	0.035434	0.408765
	N252	N	0.911515	0.463373	0.177604
	N253	N	0.084913	0.535453	0.178613
	N254	N	0.085637	0.463904	0.818805
	N255	N	0.910079	0.533850	0.817881
	N256	N	0.179772	0.911414	0.460340
	N257	N	0.178702	0.086301	0.532245
	N258	N	0.817344	0.087785	0.461353
	N259	N	0.819090	0.912118	0.531732
	N260	N	0.462275	0.180961	0.908790
	N261	N	0.534834	0.177728	0.080595
	N262	N	0.461999	0.822777	0.083065
	N263	N	0.533568	0.821894	0.910723
	N264	N	0.463454	0.913026	0.178408
	N265	N	0.532894	0.089632	0.178169
	N266	N	0.463259	0.089578	0.814570
	N267	N	0.533800	0.914252	0.816702
	N268	N	0.911606	0.180088	0.461295
	N269	N	0.085890	0.180404	0.532688
	N270	N	0.086700	0.817201	0.460940
	N271	N	0.912913	0.819545	0.532142
	N272	N	0.177777	0.464180	0.912643
	N273	N	0.178160	0.536366	0.085392
	N274	N	0.817993	0.463914	0.085868
	N275	N	0.820154	0.535706	0.913797
	O276	O	0.339067	0.596144	0.457567
	H277	H	0.324172	0.599238	0.445683
	H278	H	0.349179	0.595898	0.447580
	O279	O	0.823451	0.191211	0.807595
	H280	H	0.819001	0.170583	0.817753
	H281	H	0.828681	0.207442	0.811949
	O282	O	0.467187	0.397692	0.698054
	H283	H	0.454898	0.420896	0.701230
	H284	H	0.485313	0.406876	0.683065
	O285	O	0.448159	0.707163	0.289700
	H286	H	0.457911	0.709413	0.290598
	H287	H	0.468051	0.715317	0.286561
	O288	O	0.988424	0.821649	0.194055
	H289	H	1.011701	0.818038	0.176855
	H290	H	1.003576	0.823919	0.199404
	O291	O	0.516226	0.653879	0.665065
	H292	H	0.507866	0.656647	0.658023
	H293	H	0.507932	0.661598	0.674430
	O294	O	0.044730	0.019467	0.855626
	H295	H	0.038662	0.015090	0.846123
	H296	H	0.032104	0.028582	0.854181
	O297	O	0.455118	0.511367	0.459610
	H298	H	0.453839	0.534472	0.460663
	H299	H	0.464581	0.509437	0.467335
	O300	O	0.704075	0.606225	0.455397
	H301	H	0.709446	0.589268	0.465486
	H302	H	0.711802	0.613978	0.474359
	O303	O	0.628808	0.297942	0.410047
	H304	H	0.628726	0.284139	0.423769
	H305	H	0.627122	0.285163	0.408102
	O306	O	0.415535	0.697258	0.578978
	H307	H	0.428059	0.688457	0.570712
	H308	H	0.410777	0.683266	0.582253
	O309	O	0.584185	0.512481	0.275311
	H310	H	0.576146	0.519728	0.273043
	H311	H	0.601288	0.509111	0.275262
	O312	O	0.091063	0.793526	1.002473
	H313	H	0.086503	0.786676	1.013485
	H314	H	0.096745	0.797357	0.998614
	O315	O	0.641301	0.564939	0.416215
	H316	H	0.638204	0.551375	0.431139
	H317	H	0.645049	0.567241	0.430935
	O318	O	0.810369	-0.135383	-0.017753
	H319	H	0.815931	-0.114692	-0.021915
	H320	H	0.798955	-0.132220	-0.024734
	O321	O	0.162221	0.002036	-0.046862
	H322	H	0.164339	-0.007709	-0.064020
	H323	H	0.158398	0.003706	-0.031589
	O324	O	0.659126	0.420844	0.281419
	H325	H	0.675840	0.396392	0.262823
	H326	H	0.669315	0.426686	0.276570
	O327	O	0.618288	0.349601	0.657037
	H328	H	0.616712	0.348460	0.666618
	H329	H	0.608515	0.354702	0.654046
	O330	O	-0.046635	0.815112	0.153682
	H331	H	-0.038868	0.813608	0.118527
	H332	H	-0.022154	0.815773	0.154631
	O333	O	0.504728	0.301066	0.373838
	H334	H	0.480531	0.285495	0.378882
	H335	H	0.502650	0.327019	0.362378
	O336	O	0.148056	0.196013	0.192640
	H337	H	0.149956	0.211439	0.168617
	H338	H	0.132828	0.204670	0.202012
	O339	O	0.195269	0.830490	0.796123
	H340	H	0.195643	0.839979	0.805328
	H341	H	0.202258	0.836720	0.787029
	O342	O	0.021519	1.106843	1.108136
	H343	H	0.020480	1.101388	1.100420
	H344	H	0.025596	1.115124	1.123134
	O345	O	1.036375	0.978515	0.164725
	H346	H	1.042222	0.980789	0.179980
	H347	H	1.048829	0.974425	0.163135
	O348	O	0.305963	0.658184	0.304621
	H349	H	0.331665	0.676154	0.291517
	H350	H	0.307522	0.629689	0.295480
	O351	O	0.147755	1.026843	0.808996
	H352	H	0.141090	1.031602	0.811009
	H353	H	0.154225	1.032711	0.806069
	O354	O	0.203688	0.999254	0.184839
	H355	H	0.235659	1.004831	0.211075
	H356	H	0.199067	1.036462	0.171933
	O357	O	-0.130375	0.042347	1.013123
	H358	H	-0.131857	0.042513	1.028889
	H359	H	-0.126886	0.037222	1.015639
	O360	O	0.676882	0.538302	0.633710
	H361	H	0.687601	0.542235	0.632780
	H362	H	0.664886	0.546893	0.623986
	O363	O	0.023020	-0.203235	0.785635
	H364	H	0.032111	-0.199558	0.780213
	H365	H	0.031359	-0.217158	0.772770
	O366	O	0.368887	0.471446	0.297854
	H367	H	0.382882	0.469527	0.310137
	H368	H	0.370073	0.479624	0.275786
	O369	O	0.424745	0.566631	0.714626
	H370	H	0.428286	0.562676	0.725344
	H371	H	0.427708	0.564375	0.699109
	O372	O	0.970064	-0.072776	0.996054
	H373	H	0.962386	-0.075749	0.977464
	H374	H	0.977736	-0.058564	0.994148
	O375	O	0.525398	0.287727	0.536884
	H376	H	0.516280	0.276634	0.535008
	H377	H	0.502223	0.293626	0.544040
	O378	O	0.862714	0.864954	0.896228
	H379	H	0.882981	0.881332	0.915512
	H380	H	0.861022	0.883175	0.905768
	O381	O	0.698739	0.551705	0.695556
	H382	H	0.685437	0.570667	0.693892
	H383	H	0.719946	0.554832	0.680332
	O384	O	0.689121	0.313498	0.384707
	H385	H	0.676841	0.303053	0.396442
	H386	H	0.700942	0.326367	0.397640
	O387	O	0.135618	0.186539	1.035939
	H388	H	0.112137	0.187631	1.035070
	H389	H	0.141498	0.181958	1.019579
	O390	O	0.158286	0.122778	-0.001149
	H391	H	0.160392	0.123891	0.000765
	H392	H	0.156578	0.121158	-0.005152
	O393	O	0.971224	1.174469	0.791408
	H394	H	0.970861	1.193668	0.789997
	H395	H	0.946122	1.180612	0.783081
	O396	O	0.856007	0.054592	0.117831
	H397	H	0.850168	0.046231	0.126600
	H398	H	0.860631	0.036840	0.130498
	O399	O	0.793451	0.036363	0.785207
	H400	H	0.792408	0.041437	0.780026
	H401	H	0.789398	0.034573	0.780246
	O402	O	1.014158	0.949800	0.817152
	H403	H	1.030936	0.961373	0.812658
	H404	H	1.011190	0.957414	0.826826
	O405	O	0.792164	0.897528	0.192427
	H406	H	0.794440	0.878438	0.205929
	H407	H	0.790376	0.870468	0.189243
	O408	O	0.863699	-0.060696	-0.063859
	H409	H	0.863155	-0.041607	-0.069336
	H410	H	0.865927	-0.057427	-0.057649
	O411	O	0.987474	0.979096	0.135931
	H412	H	0.993833	0.962167	0.123358
	H413	H	0.970823	0.983382	0.164099
	O414	O	0.488512	0.621555	0.573586
	H415	H	0.493488	0.616846	0.581201
	H416	H	0.487802	0.621462	0.558690
	O417	O	0.405630	0.553767	0.488218
	H418	H	0.408071	0.556713	0.484367
	H419	H	0.418159	0.565481	0.497195
	O420	O	0.329430	0.381747	0.351899
	H421	H	0.332894	0.390595	0.364676
	H422	H	0.341337	0.396336	0.356861
	O423	O	0.705947	0.682697	0.638528
	H424	H	0.698745	0.692546	0.644799
	H425	H	0.719879	0.689052	0.651404
	O426	O	0.508866	0.372066	0.467001
	H427	H	0.499093	0.369091	0.480076
	H428	H	0.515238	0.360153	0.472118
	O429	O	0.284200	0.712831	0.469992
	H430	H	0.285625	0.709923	0.439637
	H431	H	0.260677	0.737601	0.458324
	O432	O	0.292989	0.377852	0.512533
	H433	H	0.292064	0.360941	0.512647
	H434	H	0.290642	0.417071	0.496877
	O435	O	0.285225	0.481158	0.702847
	H436	H	0.271076	0.474654	0.708298
	H437	H	0.299517	0.479597	0.711896
	O438	O	-0.034895	0.179817	0.107891
	H439	H	-0.034768	0.179475	0.124379
	H440	H	-0.042874	0.173199	0.113200
	O441	O	0.813095	0.195855	-0.031686
	H442	H	0.794478	0.203782	-0.029382
	H443	H	0.814744	0.190730	-0.017042
	O444	O	0.150058	0.822532	0.992075
	H445	H	0.157527	0.827570	0.986400
	H446	H	0.138286	0.812130	0.969660
	O447	O	0.362436	0.322925	0.609851
	H448	H	0.357778	0.314952	0.574627
	H449	H	0.376514	0.323117	0.610527
	O450	O	0.599179	0.650997	0.445821
	H451	H	0.620151	0.654124	0.448971
	H452	H	0.598721	0.644279	0.480661
	O453	O	0.473948	0.278564	0.714769
	H454	H	0.465099	0.271711	0.738966
	H455	H	0.457913	0.281227	0.729968
