data_Molecule from HDF5

_cell_length_a		16.608536
_cell_length_b		16.497969
_cell_length_c		16.461088
_cell_angle_alpha	90.139669
_cell_angle_beta	90.089951
_cell_angle_gamma	90.060584
_symmetry_space_group_name_H-M	'P 1'
_symmetry_Int_Tables_number		1

loop_
	_symmetry_equiv_pos_as_xyz
	x,y,z

loop_
	_atom_site_label
	_atom_site_type_symbol
	_atom_site_fract_x
	_atom_site_fract_y
	_atom_site_fract_z
	H0	H	0.414222	0.868650	0.720746
	H1	H	0.618239	0.185397	0.724248
	H2	H	0.621123	0.871266	0.279889
	H3	H	0.408140	0.184146	0.281495
	H4	H	0.733904	0.424651	0.846978
	H5	H	0.738417	0.637202	0.162332
	H6	H	0.294288	0.631297	0.848047
	H7	H	0.294567	0.424319	0.162370
	H8	H	0.857318	0.751443	0.396871
	H9	H	0.170859	0.747697	0.606943
	H10	H	0.857796	0.306284	0.609258
	H11	H	0.169705	0.306121	0.399211
	H12	H	0.856962	0.423826	0.724830
	H13	H	0.171117	0.631109	0.724012
	H14	H	0.857237	0.635316	0.280348
	H15	H	0.170963	0.425774	0.285353
	H16	H	0.414141	0.745293	0.846131
	H17	H	0.620835	0.750720	0.162768
	H18	H	0.618264	0.308084	0.847457
	H19	H	0.411251	0.308334	0.162532
	H20	H	0.738871	0.871586	0.393723
	H21	H	0.737090	0.184099	0.610123
	H22	H	0.294973	0.870377	0.607421
	H23	H	0.292405	0.184279	0.398426
	H24	H	0.910694	0.370380	0.224738
	H25	H	0.118933	0.684957	0.226724
	H26	H	0.118146	0.370941	0.784527
	H27	H	0.911442	0.686918	0.786190
	H28	H	0.237886	0.919901	0.349723
	H29	H	0.236430	0.135327	0.661002
	H30	H	0.787024	0.138718	0.349264
	H31	H	0.791488	0.921326	0.660121
	H32	H	0.360137	0.250702	0.897885
	H33	H	0.670505	0.253012	0.112568
	H34	H	0.359579	0.806661	0.108366
	H35	H	0.672639	0.805859	0.898450
	H36	H	0.360160	0.922946	0.225392
	H37	H	0.670627	0.136542	0.229214
	H38	H	0.358786	0.131401	0.783705
	H39	H	0.672491	0.923496	0.782949
	H40	H	0.904518	0.253219	0.348567
	H41	H	0.118354	0.248880	0.661829
	H42	H	0.118849	0.806516	0.346852
	H43	H	0.910472	0.808913	0.662650
	H44	H	0.236298	0.372168	0.898546
	H45	H	0.237283	0.684273	0.112411
	H46	H	0.792991	0.371268	0.110718
	H47	H	0.793989	0.685814	0.900472
	H48	H	0.425857	0.141409	0.596643
	H49	H	0.611185	0.913190	0.591192
	H50	H	0.602513	0.138280	0.420281
	H51	H	0.426884	0.915554	0.415915
	H52	H	0.598541	0.434533	0.117763
	H53	H	0.611642	0.617594	0.890406
	H54	H	0.428003	0.619887	0.118517
	H55	H	0.429161	0.442140	0.894126
	H56	H	0.125003	0.619538	0.416948
	H57	H	0.903178	0.618640	0.586706
	H58	H	0.125076	0.435944	0.588620
	H59	H	0.903922	0.439832	0.419400
	H60	H	0.124288	0.444934	0.596151
	H61	H	0.902065	0.611428	0.599520
	H62	H	0.123323	0.615576	0.417073
	H63	H	0.902733	0.443467	0.414837
	H64	H	0.423056	0.617667	0.119423
	H65	H	0.602704	0.610285	0.895559
	H66	H	0.612135	0.439701	0.121255
	H67	H	0.425930	0.434799	0.890244
	H68	H	0.602548	0.139404	0.416929
	H69	H	0.602245	0.913481	0.599314
	H70	H	0.425226	0.141463	0.592206
	H71	H	0.426500	0.915530	0.417973
	H72	H	0.925932	0.639609	0.090177
	H73	H	0.102188	0.415542	0.095841
	H74	H	0.105527	0.643216	0.912512
	H75	H	0.919303	0.416517	0.923428
	H76	H	0.109917	0.934673	0.620492
	H77	H	0.100142	0.117042	0.391965
	H78	H	0.929455	0.114154	0.613922
	H79	H	0.924165	0.940442	0.390946
	H80	H	0.628226	0.121032	0.915939
	H81	H	0.402574	0.121317	0.092764
	H82	H	0.627525	0.941813	0.093629
	H83	H	0.403528	0.931879	0.917931
	H84	H	0.627701	0.938300	0.091038
	H85	H	0.406203	0.115899	0.088106
	H86	H	0.626111	0.115976	0.918348
	H87	H	0.405325	0.942171	0.913462
	H88	H	0.925745	0.118772	0.616744
	H89	H	0.105341	0.117065	0.390179
	H90	H	0.105289	0.945650	0.616540
	H91	H	0.926786	0.942972	0.393068
	H92	H	0.100094	0.639583	0.917532
	H93	H	0.103664	0.416749	0.089527
	H94	H	0.924224	0.641809	0.093592
	H95	H	0.921033	0.412558	0.908312
	H96	H	0.421796	0.142603	0.595204
	H97	H	0.600473	0.917413	0.588115
	H98	H	0.599833	0.137668	0.418400
	H99	H	0.425322	0.916015	0.416773
	H100	H	0.602059	0.448782	0.114892
	H101	H	0.600032	0.621835	0.892147
	H102	H	0.427363	0.614841	0.117234
	H103	H	0.421417	0.441804	0.891284
	H104	H	0.124686	0.616949	0.413529
	H105	H	0.898087	0.625218	0.598932
	H106	H	0.128952	0.434316	0.599244
	H107	H	0.900615	0.437918	0.414739
	H108	H	0.927505	0.639975	0.093748
	H109	H	0.107561	0.413664	0.093821
	H110	H	0.107509	0.641175	0.919922
	H111	H	0.933089	0.418557	0.915916
	H112	H	0.097425	0.935416	0.616689
	H113	H	0.103238	0.112806	0.392504
	H114	H	0.923522	0.112750	0.616000
	H115	H	0.928442	0.938870	0.392008
	H116	H	0.628320	0.116161	0.912815
	H117	H	0.403956	0.114273	0.095638
	H118	H	0.626015	0.942459	0.089088
	H119	H	0.400015	0.933862	0.907118
	C120	C	0.393378	0.036898	0.625832
	C121	C	0.636282	1.018806	0.625105
	C122	C	0.635620	0.035640	0.383101
	C123	C	0.393616	1.019196	0.383649
	C124	C	0.635944	0.408125	0.013777
	C125	C	0.636966	0.649935	0.996817
	C126	C	0.394356	0.648926	0.014093
	C127	C	0.393679	0.407471	0.996277
	C128	C	0.021422	0.650347	0.382514
	C129	C	1.005031	0.649667	0.625904
	C130	C	0.022763	0.406738	0.626456
	C131	C	1.005653	0.407634	0.383940
	C132	C	0.893315	0.536824	0.125693
	C133	C	0.136082	0.519029	0.126122
	C134	C	0.136046	0.537335	0.884065
	C135	C	0.893208	0.519956	0.883882
	C136	C	0.135765	0.906522	0.513704
	C137	C	0.134909	0.148425	0.495585
	C138	C	0.892290	0.149279	0.512412
	C139	C	0.893412	0.907490	0.495583
	C140	C	0.523905	0.149253	0.883284
	C141	C	0.506927	0.150608	0.126225
	C142	C	0.524069	0.907930	0.124255
	C143	C	0.507107	0.905164	0.881872
	C144	C	0.393943	0.916873	0.682835
	C145	C	0.637509	0.137887	0.684864
	C146	C	0.639203	0.918337	0.320468
	C147	C	0.390441	0.137262	0.322289
	C148	C	0.694566	0.405972	0.894696
	C149	C	0.697811	0.654169	0.115084
	C150	C	0.334911	0.650179	0.894925
	C151	C	0.334440	0.405760	0.115040
	C152	C	0.904116	0.711013	0.379277
	C153	C	0.123628	0.708431	0.626605
	C154	C	0.904802	0.346466	0.628059
	C155	C	0.123092	0.346838	0.381032
	C156	C	0.904494	0.405315	0.685509
	C157	C	0.123748	0.650532	0.684616
	C158	C	0.904152	0.653273	0.321103
	C159	C	0.123898	0.406434	0.324691
	C160	C	0.394230	0.706746	0.894108
	C161	C	0.639175	0.710830	0.115384
	C162	C	0.637084	0.348131	0.894774
	C163	C	0.392339	0.348106	0.115170
	C164	C	0.697689	0.918470	0.377456
	C165	C	0.696272	0.137230	0.628038
	C166	C	0.334691	0.917725	0.626501
	C167	C	0.332911	0.137246	0.380317
	C168	C	0.891511	0.418025	0.185486
	C169	C	0.137457	0.637774	0.186483
	C170	C	0.137460	0.418526	0.824127
	C171	C	0.892245	0.639167	0.825090
	C172	C	0.196769	0.902815	0.395855
	C173	C	0.195799	0.152527	0.613938
	C174	C	0.829101	0.155176	0.395658
	C175	C	0.832342	0.904088	0.613438
	C176	C	0.406744	0.209909	0.880075
	C177	C	0.623859	0.212298	0.130263
	C178	C	0.406620	0.847087	0.127069
	C179	C	0.625357	0.845608	0.879882
	C180	C	0.406756	0.904805	0.185177
	C181	C	0.623873	0.154105	0.188244
	C182	C	0.406196	0.150804	0.823092
	C183	C	0.625480	0.904408	0.822803
	C184	C	0.887519	0.212255	0.395368
	C185	C	0.137173	0.209216	0.614278
	C186	C	0.137525	0.846623	0.394739
	C187	C	0.891512	0.848096	0.614587
	C188	C	0.196098	0.419083	0.881054
	C189	C	0.196272	0.637435	0.129727
	C190	C	0.833086	0.418289	0.128718
	C191	C	0.833735	0.638634	0.882092
	C192	C	0.417279	0.120017	0.601710
	C193	C	0.611664	0.936170	0.600176
	C194	C	0.609328	0.117322	0.410638
	C195	C	0.419058	0.937243	0.409255
	C196	C	0.611370	0.433678	0.096550
	C197	C	0.611985	0.623935	0.914146
	C198	C	0.419008	0.624492	0.096854
	C199	C	0.418474	0.432325	0.913371
	C200	C	0.103108	0.624695	0.408436
	C201	C	0.922492	0.625379	0.601684
	C202	C	0.104634	0.431221	0.601669
	C203	C	0.923829	0.433020	0.409105
	C204	C	0.918458	0.618934	0.099925
	C205	C	0.111443	0.436735	0.100485
	C206	C	0.111283	0.619862	0.909396
	C207	C	0.917656	0.437284	0.908582
	C208	C	0.111099	0.931667	0.596333
	C209	C	0.109925	0.122825	0.413148
	C210	C	0.918722	0.122616	0.594243
	C211	C	0.919167	0.933244	0.413325
	C212	C	0.606016	0.124633	0.908537
	C213	C	0.425427	0.124727	0.099702
	C214	C	0.605783	0.933618	0.098538
	C215	C	0.424590	0.928975	0.905874
	Zn216	Zn	0.515528	0.027580	0.753968
	Zn217	Zn	0.514949	0.028259	0.254564
	Zn218	Zn	0.764929	0.528645	0.005502
	Zn219	Zn	0.264722	0.528166	0.005167
	Zn220	Zn	0.013689	0.778749	0.504320
	Zn221	Zn	0.014108	0.277307	0.503942
	Zn222	Zn	0.014448	0.528940	0.755540
	Zn223	Zn	0.013947	0.528002	0.254194
	Zn224	Zn	0.516160	0.777620	0.004507
	Zn225	Zn	0.514744	0.279323	0.004659
	Zn226	Zn	0.764162	0.027395	0.503337
	Zn227	Zn	0.264389	0.028152	0.504342
	N228	N	0.429475	0.992104	0.682770
	N229	N	0.601075	0.063249	0.683163
	N230	N	0.601595	0.992330	0.323772
	N231	N	0.427474	0.062879	0.324217
	N232	N	0.694135	0.442427	0.969756
	N233	N	0.696557	0.616896	0.040318
	N234	N	0.334552	0.615400	0.970570
	N235	N	0.335102	0.441682	0.039997
	N236	N	0.978079	0.709421	0.416598
	N237	N	0.048686	0.708292	0.591115
	N238	N	0.979364	0.346950	0.592015
	N239	N	0.048506	0.347430	0.417005
	N240	N	0.978817	0.441804	0.684877
	N241	N	0.049016	0.614845	0.684444
	N242	N	0.978132	0.616339	0.322838
	N243	N	0.049756	0.443179	0.326057
	N244	N	0.430398	0.706230	0.969174
	N245	N	0.602019	0.708086	0.040746
	N246	N	0.601823	0.348869	0.970178
	N247	N	0.428382	0.349064	0.040147
	N248	N	0.695724	0.992833	0.415545
	N249	N	0.695934	0.062130	0.591847
	N250	N	0.333799	0.993601	0.592296
	N251	N	0.334570	0.062987	0.417807
	N252	N	0.928112	0.492681	0.183959
	N253	N	0.100672	0.563318	0.184510
	N254	N	0.100679	0.493009	0.825772
	N255	N	0.928268	0.564272	0.825794
	N256	N	0.195859	0.939439	0.470795
	N257	N	0.194878	0.115498	0.539171
	N258	N	0.832112	0.116532	0.469401
	N259	N	0.833423	0.940282	0.538379
	N260	N	0.481095	0.209227	0.916795
	N261	N	0.550132	0.210343	0.092566
	N262	N	0.480661	0.848756	0.090008
	N263	N	0.550528	0.845639	0.915669
	N264	N	0.480795	0.941793	0.183549
	N265	N	0.549923	0.116646	0.185965
	N266	N	0.480183	0.113881	0.824870
	N267	N	0.550872	0.940309	0.823601
	N268	N	0.926267	0.208591	0.469025
	N269	N	0.100112	0.206950	0.539648
	N270	N	0.100234	0.848702	0.468981
	N271	N	0.928719	0.850013	0.540196
	N272	N	0.195212	0.493975	0.917743
	N273	N	0.195719	0.562661	0.093145
	N274	N	0.834132	0.493177	0.092276
	N275	N	0.833870	0.563348	0.917660
	O276	O	1.300960	1.317479	0.533357
	H277	H	1.302434	1.307952	0.537245
	H278	H	1.293550	1.310479	0.542318
	O279	O	-0.205860	0.242584	0.973212
	H280	H	-0.215524	0.215101	0.995948
	H281	H	-0.234765	0.261485	0.982291
	O282	O	0.444515	0.732122	0.430374
	H283	H	0.432241	0.731927	0.441865
	H284	H	0.449678	0.745011	0.401511
	O285	O	0.188056	0.017129	0.780771
	H286	H	0.178608	0.037430	0.770108
	H287	H	0.199722	0.028300	0.767995
	O288	O	1.003094	0.058882	1.187670
	H289	H	1.003679	0.067635	1.189666
	H290	H	0.984139	0.066546	1.176192
	O291	O	0.326683	0.347583	0.332065
	H292	H	0.338347	0.349652	0.340629
	H293	H	0.328812	0.341097	0.331765
	O294	O	0.222959	0.233115	0.211136
	H295	H	0.226383	0.219455	0.204568
	H296	H	0.190022	0.236162	0.220081
	O297	O	1.017676	0.047275	0.046184
	H298	H	1.022198	0.038198	0.057455
	H299	H	1.024108	0.047917	0.028879
	O300	O	0.235600	-0.193573	-0.025582
	H301	H	0.245858	-0.205422	-0.048586
	H302	H	0.244753	-0.205700	-0.048402
	O303	O	0.071242	-0.075014	0.189033
	H304	H	0.065167	-0.073766	0.184231
	H305	H	0.059414	-0.052612	0.188906
	O306	O	1.134311	0.241092	0.130735
	H307	H	1.129841	0.252810	0.129324
	H308	H	1.130338	0.244479	0.129437
	O309	O	0.601366	0.630906	0.339550
	H310	H	0.593582	0.631155	0.347130
	H311	H	0.601150	0.621294	0.340038
	O312	O	-0.336779	-0.275385	0.479745
	H313	H	-0.337868	-0.282111	0.477202
	H314	H	-0.321300	-0.260146	0.483028
	O315	O	0.410226	0.553352	0.417814
	H316	H	0.392723	0.541472	0.419331
	H317	H	0.409331	0.552493	0.426527
	O318	O	0.967015	1.237808	-0.172413
	H319	H	0.933951	1.222782	-0.168626
	H320	H	0.958705	1.261321	-0.191563
	O321	O	0.079066	0.850304	1.029978
	H322	H	0.078024	0.840934	1.016533
	H323	H	0.086866	0.855833	1.018900
	O324	O	0.949069	0.221345	1.188983
	H325	H	0.935524	0.208158	1.180589
	H326	H	0.958882	0.210254	1.190402
	O327	O	0.732159	0.378219	0.505612
	H328	H	0.743924	0.363595	0.505411
	H329	H	0.721529	0.380070	0.504154
	O330	O	0.224486	0.816166	0.797875
	H331	H	0.233184	0.865142	0.794802
	H332	H	0.257474	0.786378	0.763108
	O333	O	0.695688	0.544287	0.301685
	H334	H	0.695905	0.535113	0.303662
	H335	H	0.707342	0.548469	0.292420
	O336	O	0.649185	0.589485	0.446464
	H337	H	0.651788	0.585071	0.455376
	H338	H	0.640485	0.585576	0.445512
	O339	O	0.330540	0.695398	0.478270
	H340	H	0.323930	0.697051	0.458685
	H341	H	0.329767	0.699026	0.467600
	O342	O	-0.680944	0.501073	-0.291887
	H343	H	-0.675118	0.493645	-0.299097
	H344	H	-0.700052	0.501207	-0.298129
	O345	O	0.512417	0.310472	0.676027
	H346	H	0.490537	0.297540	0.677367
	H347	H	0.492701	0.299939	0.685604
	O348	O	0.311150	0.529145	0.377832
	H349	H	0.331416	0.547549	0.376951
	H350	H	0.294027	0.516425	0.368240
	O351	O	-0.442799	-0.458383	1.462892
	H352	H	-0.437118	-0.451588	1.452731
	H353	H	-0.457397	-0.447329	1.460229
	O354	O	0.827266	0.036969	0.969936
	H355	H	0.827310	0.035290	0.963885
	H356	H	0.841742	0.027382	0.962506
	O357	O	0.578722	0.364229	0.612599
	H358	H	0.568975	0.362646	0.604086
	H359	H	0.569009	0.370267	0.609925
	O360	O	0.654472	0.736608	0.603050
	H361	H	0.660442	0.752508	0.620580
	H362	H	0.649002	0.742194	0.612697
	O363	O	1.218989	0.051489	0.212861
	H364	H	1.234469	0.064541	0.231837
	H365	H	1.215378	0.053388	0.198236
	O366	O	0.196797	0.213330	0.825133
	H367	H	0.175252	0.201702	0.840804
	H368	H	0.191143	0.196283	0.851752
	O369	O	-0.193464	0.233137	0.797580
	H370	H	-0.190300	0.235691	0.839610
	H371	H	-0.206286	0.211336	0.793399
	O372	O	0.235975	0.978118	1.060285
	H373	H	0.235543	0.946208	1.049495
	H374	H	0.222125	0.979889	1.072344
	O375	O	0.824456	-0.148219	0.186920
	H376	H	0.810965	-0.165097	0.142912
	H377	H	0.871364	-0.164273	0.198071
	O378	O	0.307420	0.735210	0.301442
	H379	H	0.288764	0.741976	0.281989
	H380	H	0.334530	0.745751	0.293468
	O381	O	-0.091110	0.963382	-0.192037
	H382	H	-0.101573	0.956307	-0.193462
	H383	H	-0.081783	0.969030	-0.184652
	O384	O	0.614042	0.505957	0.535428
	H385	H	0.619012	0.516920	0.533690
	H386	H	0.613465	0.498617	0.526257
	O387	O	0.601686	0.535527	0.709732
	H388	H	0.597400	0.540643	0.716463
	H389	H	0.591748	0.508279	0.722093
	O390	O	0.043234	1.164765	0.890891
	H391	H	0.020195	1.185213	0.880955
	H392	H	0.049137	1.150237	0.894220
	O393	O	1.238149	0.054323	-0.109393
	H394	H	1.238147	0.049582	-0.086940
	H395	H	1.249518	0.047384	-0.125706
	O396	O	0.548218	0.312965	0.294817
	H397	H	0.572148	0.323822	0.294158
	H398	H	0.557432	0.295014	0.276519
	O399	O	0.362714	0.556232	0.518178
	H400	H	0.359329	0.562736	0.504789
	H401	H	0.368251	0.540489	0.511656
	O402	O	0.807895	-0.175334	1.026331
	H403	H	0.827179	-0.176654	1.012172
	H404	H	0.793010	-0.186808	1.018072
	O405	O	1.066290	0.048456	0.017006
	H406	H	1.079875	0.063036	0.030839
	H407	H	1.067936	0.038343	0.029637
	O408	O	0.792969	1.009484	1.225500
	H409	H	0.769232	0.989254	1.246710
	H410	H	0.794735	0.972091	1.227956
	O411	O	0.834149	1.116583	0.128261
	H412	H	0.835240	1.094730	0.139164
	H413	H	0.832992	1.099947	0.128329
	O414	O	-0.072667	0.065127	0.021491
	H415	H	-0.074103	0.056642	0.026035
	H416	H	-0.070465	0.052777	0.047281
	O417	O	0.517862	0.560379	0.651633
	H418	H	0.516560	0.546367	0.654585
	H419	H	0.513647	0.555822	0.651850
	O420	O	0.817599	-0.187884	0.785300
	H421	H	0.799073	-0.185981	0.786820
	H422	H	0.820063	-0.210356	0.776094
	O423	O	1.023329	1.182836	-0.013821
	H424	H	1.027906	1.201400	-0.034090
	H425	H	1.017083	1.185746	-0.018738
	O426	O	0.678003	0.457584	0.702750
	H427	H	0.676028	0.442277	0.681024
	H428	H	0.695554	0.429683	0.718449
	O429	O	0.797733	0.062121	0.792887
	H430	H	0.779083	0.050553	0.782123
	H431	H	0.805634	0.065342	0.788778
	O432	O	0.982744	-0.185688	1.216642
	H433	H	1.003752	-0.185867	1.216596
	H434	H	0.994167	-0.202410	1.225894
	O435	O	0.668945	0.731842	0.711940
	H436	H	0.654973	0.704560	0.720117
	H437	H	0.647794	0.726679	0.708872
	O438	O	0.499007	0.547029	0.676154
	H439	H	0.523505	0.542198	0.670038
	H440	H	0.499063	0.539708	0.680731
	O441	O	0.324098	0.715003	0.691605
	H442	H	0.340802	0.698204	0.670352
	H443	H	0.338945	0.691590	0.674967
	O444	O	0.708802	0.334390	0.376151
	H445	H	0.705214	0.327838	0.373098
	H446	H	0.714960	0.337561	0.399790
	O447	O	-0.034084	0.809453	-0.040661
	H448	H	-0.031706	0.811802	-0.060173
	H449	H	-0.017968	0.811027	-0.057015
	O450	O	1.056606	-0.183124	-0.202322
	H451	H	1.087688	-0.192686	-0.213255
	H452	H	1.072417	-0.188697	-0.225208
	O453	O	0.458334	0.720077	0.411396
	H454	H	0.467340	0.703890	0.400008
	H455	H	0.467511	0.720807	0.399863
	O456	O	-0.689480	0.324151	0.709724
	H457	H	-0.698450	0.324819	0.703149
	H458	H	-0.711714	0.321395	0.731830
	O459	O	0.461711	0.531870	0.482428
	H460	H	0.465796	0.532418	0.465562
	H461	H	0.456746	0.541338	0.474221
	O462	O	0.625626	0.496802	0.355113
	H463	H	0.626286	0.503377	0.355887
	H464	H	0.638242	0.489970	0.342383
	O465	O	0.536958	0.326201	0.529075
	H466	H	0.531535	0.332941	0.516136
	H467	H	0.528037	0.331519	0.513933
	O468	O	0.028646	0.009868	-0.133427
	H469	H	0.013830	-0.003840	-0.138111
	H470	H	0.029542	0.017295	-0.130924
	O471	O	0.145392	0.234736	0.013285
	H472	H	0.146948	0.254446	0.022129
	H473	H	0.138068	0.235962	0.033731
	O474	O	1.205242	0.843177	0.190588
	H475	H	1.182171	0.863314	0.181534
	H476	H	1.191729	0.858713	0.175959
	O477	O	0.491562	0.465634	0.297240
	H478	H	0.495739	0.480243	0.308421
	H479	H	0.487572	0.451819	0.289567
