data_Molecule from HDF5

_cell_length_a		16.352795
_cell_length_b		16.119624
_cell_length_c		16.250418
_cell_angle_alpha	90.242232
_cell_angle_beta	90.088889
_cell_angle_gamma	89.989046
_symmetry_space_group_name_H-M	'P 1'
_symmetry_Int_Tables_number		1

loop_
	_symmetry_equiv_pos_as_xyz
	x,y,z

loop_
	_atom_site_label
	_atom_site_type_symbol
	_atom_site_fract_x
	_atom_site_fract_y
	_atom_site_fract_z
	H0	H	0.410257	0.855100	0.698884
	H1	H	0.609371	0.184510	0.701682
	H2	H	0.605872	0.854573	0.273403
	H3	H	0.410825	0.185449	0.273650
	H4	H	0.727110	0.418726	0.824082
	H5	H	0.725653	0.622543	0.150402
	H6	H	0.291597	0.622811	0.824144
	H7	H	0.293656	0.419052	0.149811
	H8	H	0.845678	0.732557	0.392528
	H9	H	0.172395	0.738180	0.588361
	H10	H	0.845800	0.306338	0.585639
	H11	H	0.172300	0.306022	0.388023
	H12	H	0.846074	0.422590	0.702710
	H13	H	0.171244	0.623857	0.705205
	H14	H	0.847705	0.621324	0.271628
	H15	H	0.172002	0.419427	0.270664
	H16	H	0.413176	0.732253	0.821721
	H17	H	0.606270	0.734192	0.151617
	H18	H	0.609005	0.305446	0.822414
	H19	H	0.414985	0.308347	0.151174
	H20	H	0.724679	0.855791	0.385454
	H21	H	0.723785	0.185109	0.587356
	H22	H	0.293477	0.856426	0.585445
	H23	H	0.293965	0.184601	0.386252
	H24	H	0.911705	0.355679	0.200667
	H25	H	0.106888	0.686016	0.200934
	H26	H	0.108149	0.356928	0.772474
	H27	H	0.912282	0.687216	0.776113
	H28	H	0.223911	0.919113	0.322460
	H29	H	0.227369	0.123649	0.648871
	H30	H	0.793563	0.119966	0.322852
	H31	H	0.792742	0.921656	0.649821
	H32	H	0.346696	0.233764	0.888699
	H33	H	0.672850	0.233677	0.084479
	H34	H	0.346667	0.807392	0.081862
	H35	H	0.673521	0.805680	0.887683
	H36	H	0.346773	0.920906	0.199286
	H37	H	0.671356	0.120547	0.203725
	H38	H	0.347406	0.119968	0.770484
	H39	H	0.672893	0.920648	0.769606
	H40	H	0.912557	0.233368	0.321832
	H41	H	0.105602	0.234405	0.651296
	H42	H	0.105369	0.806553	0.323222
	H43	H	0.913399	0.809962	0.652739
	H44	H	0.224973	0.357292	0.886120
	H45	H	0.224428	0.685560	0.087558
	H46	H	0.795453	0.356564	0.085337
	H47	H	0.795453	0.685811	0.888326
	H48	H	0.421419	0.140518	0.588130
	H49	H	0.600844	0.902475	0.578292
	H50	H	0.599191	0.137552	0.393082
	H51	H	0.411994	0.902114	0.395185
	H52	H	0.606719	0.421687	0.106016
	H53	H	0.606551	0.614008	0.868661
	H54	H	0.421682	0.617752	0.102599
	H55	H	0.414702	0.424613	0.868069
	H56	H	0.128970	0.616187	0.388961
	H57	H	0.894553	0.614591	0.580197
	H58	H	0.124845	0.423745	0.575615
	H59	H	0.891720	0.433366	0.382138
	H60	H	0.121810	0.435894	0.578037
	H61	H	0.893913	0.613244	0.583457
	H62	H	0.125082	0.617424	0.401298
	H63	H	0.891130	0.417215	0.396423
	H64	H	0.412445	0.614916	0.105205
	H65	H	0.604437	0.609260	0.870852
	H66	H	0.608277	0.436074	0.101823
	H67	H	0.412915	0.432500	0.870367
	H68	H	0.601590	0.137339	0.398002
	H69	H	0.601536	0.902931	0.575120
	H70	H	0.424060	0.133221	0.570392
	H71	H	0.415258	0.900015	0.389008
	H72	H	0.919527	0.637540	0.079820
	H73	H	0.096726	0.404595	0.077646
	H74	H	0.092507	0.635058	0.901180
	H75	H	0.922331	0.406717	0.899571
	H76	H	0.107571	0.937184	0.602942
	H77	H	0.096181	0.113770	0.371778
	H78	H	0.923777	0.108253	0.599163
	H79	H	0.925469	0.924720	0.371881
	H80	H	0.624522	0.110520	0.896290
	H81	H	0.391897	0.119233	0.080370
	H82	H	0.622191	0.937424	0.075248
	H83	H	0.394390	0.927068	0.893082
	H84	H	0.629532	0.928111	0.091924
	H85	H	0.394190	0.112746	0.077812
	H86	H	0.626423	0.109536	0.888960
	H87	H	0.393489	0.928000	0.888872
	H88	H	0.915974	0.126039	0.606418
	H89	H	0.106084	0.117572	0.367327
	H90	H	0.096421	0.931820	0.601781
	H91	H	0.908214	0.919521	0.365696
	H92	H	0.113261	0.639941	0.903688
	H93	H	0.109239	0.402336	0.075107
	H94	H	0.915083	0.638946	0.078113
	H95	H	0.911741	0.402679	0.897164
	H96	H	0.407547	0.140499	0.575180
	H97	H	0.604231	0.902074	0.576998
	H98	H	0.604048	0.139005	0.393412
	H99	H	0.419359	0.903366	0.394258
	H100	H	0.595398	0.429840	0.100507
	H101	H	0.601592	0.613917	0.870487
	H102	H	0.417934	0.607515	0.101465
	H103	H	0.420619	0.429269	0.871723
	H104	H	0.124055	0.606177	0.394283
	H105	H	0.892095	0.617359	0.582604
	H106	H	0.126390	0.428687	0.587456
	H107	H	0.898381	0.435834	0.401994
	H108	H	0.916083	0.640790	0.083019
	H109	H	0.104772	0.400213	0.087118
	H110	H	0.103264	0.644043	0.884276
	H111	H	0.919748	0.401951	0.888632
	H112	H	0.106094	0.924710	0.605619
	H113	H	0.105292	0.106408	0.371002
	H114	H	0.904194	0.108947	0.605348
	H115	H	0.911196	0.937303	0.372113
	H116	H	0.627084	0.116341	0.892821
	H117	H	0.392161	0.112941	0.084728
	H118	H	0.627830	0.918217	0.074432
	H119	H	0.393435	0.924095	0.891048
	C120	C	0.388438	0.029173	0.606864
	C121	C	0.630558	1.011530	0.606693
	C122	C	0.630299	0.028970	0.365300
	C123	C	0.387431	1.011368	0.364524
	C124	C	0.632277	0.399172	-0.005002
	C125	C	0.632196	0.642141	0.978259
	C126	C	0.388503	0.642220	-0.004779
	C127	C	0.388328	0.399445	0.978438
	C128	C	0.018345	0.642220	0.366088
	C129	C	1.000936	0.644731	0.610785
	C130	C	0.016859	0.400202	0.608932
	C131	C	1.001085	0.399314	0.364539
	C132	C	0.888473	0.529796	0.108798
	C133	C	0.131347	0.511862	0.108726
	C134	C	0.131007	0.530553	0.866821
	C135	C	0.888796	0.512809	0.866515
	C136	C	0.131052	0.900467	0.495033
	C137	C	0.131278	0.142914	0.478010
	C138	C	0.886822	0.142690	0.495179
	C139	C	0.887174	0.899367	0.478620
	C140	C	0.518410	0.141674	0.863910
	C141	C	0.500508	0.143243	0.109479
	C142	C	0.518354	0.899352	0.107428
	C143	C	0.501749	0.897509	0.862746
	C144	C	0.390051	0.904653	0.661753
	C145	C	0.628914	0.135502	0.663346
	C146	C	0.627345	0.904360	0.310268
	C147	C	0.390381	0.135743	0.310400
	C148	C	0.688059	0.399779	0.872370
	C149	C	0.687202	0.641449	0.101548
	C150	C	0.331157	0.641547	0.872557
	C151	C	0.333083	0.400574	0.101366
	C152	C	0.894977	0.696142	0.370219
	C153	C	0.123663	0.700190	0.608293
	C154	C	0.894422	0.344732	0.606165
	C155	C	0.123570	0.343635	0.367521
	C156	C	0.894658	0.402385	0.664534
	C157	C	0.123148	0.643523	0.666577
	C158	C	0.896111	0.640737	0.310076
	C159	C	0.123389	0.400265	0.309250
	C160	C	0.391409	0.696244	0.871375
	C161	C	0.627919	0.697160	0.102236
	C162	C	0.629631	0.343085	0.871753
	C163	C	0.392963	0.345020	0.101904
	C164	C	0.685746	0.904806	0.366473
	C165	C	0.685918	0.135761	0.606444
	C166	C	0.331961	0.905396	0.605402
	C167	C	0.332048	0.135401	0.366205
	C168	C	0.891110	0.404969	0.163075
	C169	C	0.128445	0.636366	0.164128
	C170	C	0.128722	0.406294	0.810284
	C171	C	0.891661	0.637721	0.813184
	C172	C	0.185554	0.900327	0.371875
	C173	C	0.187786	0.142425	0.600668
	C174	C	0.831965	0.140263	0.371503
	C175	C	0.831481	0.901438	0.601543
	C176	C	0.395652	0.196919	0.867268
	C177	C	0.623869	0.196894	0.105967
	C178	C	0.395339	0.844754	0.102870
	C179	C	0.624688	0.843158	0.866500
	C180	C	0.395332	0.901265	0.161269
	C181	C	0.623188	0.140447	0.164982
	C182	C	0.395884	0.140230	0.808583
	C183	C	0.624328	0.900305	0.807959
	C184	C	0.890955	0.196395	0.371024
	C185	C	0.127565	0.197586	0.601849
	C186	C	0.126886	0.844267	0.372108
	C187	C	0.891554	0.846274	0.602922
	C188	C	0.186389	0.406137	0.866946
	C189	C	0.186631	0.636203	0.107780
	C190	C	0.832986	0.405584	0.106519
	C191	C	0.833172	0.636751	0.868705
	C192	C	0.411031	0.115546	0.584520
	C193	C	0.608685	0.924953	0.583709
	C194	C	0.608173	0.115592	0.388166
	C195	C	0.409263	0.924287	0.386341
	C196	C	0.609956	0.422478	0.080666
	C197	C	0.610680	0.619172	0.892314
	C198	C	0.410764	0.619973	0.080962
	C199	C	0.409832	0.422170	0.892363
	C200	C	0.103797	0.619787	0.388332
	C201	C	0.915737	0.621787	0.588555
	C202	C	0.102212	0.422766	0.586895
	C203	C	0.915644	0.422264	0.386792
	C204	C	0.910458	0.616540	0.086920
	C205	C	0.109968	0.424761	0.086380
	C206	C	0.109283	0.617142	0.889557
	C207	C	0.911347	0.426215	0.888693
	C208	C	0.109538	0.924206	0.581353
	C209	C	0.108885	0.119731	0.392176
	C210	C	0.908142	0.120760	0.581245
	C211	C	0.908632	0.920818	0.392190
	C212	C	0.603930	0.118896	0.886076
	C213	C	0.414831	0.121615	0.087390
	C214	C	0.604307	0.921332	0.086692
	C215	C	0.415932	0.919862	0.884508
	Zn216	Zn	0.509504	0.019970	0.734216
	Zn217	Zn	0.509025	0.019827	0.237298
	Zn218	Zn	0.761129	0.520732	-0.013004
	Zn219	Zn	0.259397	0.521115	-0.012710
	Zn220	Zn	0.009948	0.771694	0.487969
	Zn221	Zn	0.008830	0.270996	0.486516
	Zn222	Zn	0.009655	0.522312	0.738847
	Zn223	Zn	0.009981	0.520693	0.236504
	Zn224	Zn	0.510501	0.770387	-0.013648
	Zn225	Zn	0.510077	0.270909	-0.013823
	Zn226	Zn	0.758441	0.020916	0.486584
	Zn227	Zn	0.260023	0.020656	0.485822
	N228	N	0.424707	0.982479	0.662588
	N229	N	0.595082	0.057290	0.663574
	N230	N	0.593509	0.982445	0.309373
	N231	N	0.424284	0.057527	0.309526
	N232	N	0.689868	0.434027	0.949970
	N233	N	0.689825	0.607751	0.023640
	N234	N	0.329297	0.608488	0.950529
	N235	N	0.330194	0.433632	0.023564
	N236	N	0.971843	0.697133	0.404391
	N237	N	0.046515	0.701195	0.574418
	N238	N	0.971453	0.343245	0.572372
	N239	N	0.046402	0.342925	0.401442
	N240	N	0.971933	0.436133	0.666492
	N241	N	0.046012	0.609576	0.668244
	N242	N	0.973849	0.607765	0.307503
	N243	N	0.046149	0.433949	0.307270
	N244	N	0.426633	0.696656	0.948369
	N245	N	0.594447	0.697758	0.024625
	N246	N	0.595597	0.342527	0.949225
	N247	N	0.426615	0.344246	0.024281
	N248	N	0.687745	0.983355	0.400069
	N249	N	0.687128	0.057801	0.571825
	N250	N	0.330832	0.983658	0.571961
	N251	N	0.330088	0.056954	0.399091
	N252	N	0.924676	0.483314	0.164829
	N253	N	0.094693	0.558224	0.164623
	N254	N	0.094965	0.484573	0.809998
	N255	N	0.925459	0.559651	0.811455
	N256	N	0.188122	0.934508	0.449650
	N257	N	0.190506	0.109298	0.522552
	N258	N	0.829112	0.107764	0.449570
	N259	N	0.828729	0.933705	0.523379
	N260	N	0.472965	0.198142	0.900814
	N261	N	0.546882	0.198555	0.072122
	N262	N	0.472807	0.843448	0.070042
	N263	N	0.547396	0.841399	0.899763
	N264	N	0.472647	0.934698	0.164147
	N265	N	0.545427	0.107818	0.167380
	N266	N	0.473078	0.106398	0.806607
	N267	N	0.546784	0.933396	0.805590
	N268	N	0.924576	0.197927	0.448606
	N269	N	0.093319	0.198079	0.524433
	N270	N	0.093833	0.844208	0.449784
	N271	N	0.925418	0.844770	0.525261
	N272	N	0.187942	0.484202	0.901334
	N273	N	0.188755	0.557755	0.074025
	N274	N	0.831336	0.484023	0.073552
	N275	N	0.831413	0.557999	0.901027
	O276	O	0.481610	0.485481	0.444270
	H277	H	0.485104	0.487892	0.460425
	H278	H	0.473109	0.493459	0.442601
	O279	O	0.593539	0.421611	0.314519
	H280	H	0.593801	0.408929	0.303220
	H281	H	0.589783	0.422268	0.313967
	O282	O	0.434212	0.532917	0.609563
	H283	H	0.433535	0.522458	0.616848
	H284	H	0.430205	0.532389	0.613939
	O285	O	0.565333	0.404776	1.450033
	H286	H	0.558187	0.394721	1.459864
	H287	H	0.551912	0.402209	1.440120
	O288	O	0.479791	0.415574	0.507901
	H289	H	0.482017	0.412972	0.505216
	H290	H	0.480699	0.417155	0.504813
	O291	O	-0.499204	-0.452088	1.406801
	H292	H	-0.495417	-0.448482	1.403194
	H293	H	-0.500391	-0.450382	1.411064
	O294	O	0.525363	0.558599	0.419474
	H295	H	0.524316	0.575420	0.428517
	H296	H	0.509536	0.553244	0.414958
	O297	O	0.520893	0.512242	0.600101
	H298	H	0.526929	0.514453	0.594933
	H299	H	0.522629	0.506562	0.605307
	O300	O	0.597436	0.552467	0.515351
	H301	H	0.607233	0.553244	0.513369
	H302	H	0.596437	0.558610	0.517171
	O303	O	0.540314	0.353148	0.516208
	H304	H	0.543408	0.354157	0.501890
	H305	H	0.545526	0.349551	0.510825
	O306	O	0.533896	-0.371347	1.559442
	H307	H	0.539601	-0.368369	1.562472
	H308	H	0.527216	-0.368850	1.547037
	O309	O	-0.417914	0.484571	0.487924
	H310	H	-0.424142	0.486527	0.494936
	H311	H	-0.414586	0.489081	0.479766
	O312	O	0.484338	0.496749	0.456677
	H313	H	0.488982	0.488248	0.467353
	H314	H	0.483338	0.494904	0.462326
	O315	O	0.532961	0.649176	1.527886
	H316	H	0.529274	0.655180	1.528827
	H317	H	0.545939	0.647897	1.529625
	O318	O	0.001551	0.072240	-0.008782
	H319	H	0.002407	0.073793	-0.009418
	H320	H	-0.002187	0.075079	-0.012114
	O321	O	0.364522	0.423584	0.519603
	H322	H	0.372793	0.423229	0.518729
	H323	H	0.368523	0.424099	0.522871
	O324	O	1.392065	-0.499233	-0.431831
	H325	H	1.390726	-0.509707	-0.429425
	H326	H	1.391519	-0.503028	-0.435912
	O327	O	0.458892	0.547054	0.430772
	H328	H	0.453471	0.544050	0.431173
	H329	H	0.460164	0.548006	0.434285
	O330	O	0.542209	0.489542	0.488564
	H331	H	0.533787	0.480420	0.492744
	H332	H	0.552038	0.492779	0.479459
	O333	O	0.470646	-0.368680	0.446103
	H334	H	0.460166	-0.373450	0.447355
	H335	H	0.474043	-0.353582	0.436668
