data_Molecule from HDF5

_cell_length_a		16.168597
_cell_length_b		16.237374
_cell_length_c		16.359307
_cell_angle_alpha	90.048245
_cell_angle_beta	89.975882
_cell_angle_gamma	89.956986
_symmetry_space_group_name_H-M	'P 1'
_symmetry_Int_Tables_number		1

loop_
	_symmetry_equiv_pos_as_xyz
	x,y,z

loop_
	_atom_site_label
	_atom_site_type_symbol
	_atom_site_fract_x
	_atom_site_fract_y
	_atom_site_fract_z
	H0	H	0.400223	0.836578	0.714834
	H1	H	0.599739	0.163667	0.715435
	H2	H	0.600124	0.836299	0.284174
	H3	H	0.400760	0.163653	0.284964
	H4	H	0.714770	0.403259	0.836244
	H5	H	0.712847	0.596212	0.164241
	H6	H	0.286644	0.598060	0.836747
	H7	H	0.286334	0.403172	0.164058
	H8	H	0.834724	0.712232	0.403667
	H9	H	0.165245	0.711933	0.596734
	H10	H	0.834305	0.287282	0.596804
	H11	H	0.165319	0.287476	0.404031
	H12	H	0.835725	0.399658	0.715459
	H13	H	0.163576	0.600078	0.714633
	H14	H	0.835485	0.598427	0.286213
	H15	H	0.164191	0.400255	0.285656
	H16	H	0.402463	0.715284	0.837207
	H17	H	0.598620	0.714978	0.163802
	H18	H	0.599214	0.285625	0.836603
	H19	H	0.403371	0.286372	0.163288
	H20	H	0.712682	0.835369	0.403053
	H21	H	0.712645	0.164553	0.596426
	H22	H	0.287818	0.834717	0.595374
	H23	H	0.288881	0.165357	0.405059
	H24	H	0.900979	0.335595	0.213949
	H25	H	0.098772	0.663617	0.214935
	H26	H	0.099705	0.337080	0.784651
	H27	H	0.899867	0.663518	0.783996
	H28	H	0.213188	0.902828	0.337019
	H29	H	0.213159	0.096966	0.663975
	H30	H	0.785658	0.097410	0.336218
	H31	H	0.786094	0.902807	0.663446
	H32	H	0.335314	0.213361	0.903227
	H33	H	0.665823	0.212680	0.096238
	H34	H	0.335037	0.788019	0.096392
	H35	H	0.665276	0.786378	0.902364
	H36	H	0.335277	0.902224	0.212366
	H37	H	0.664535	0.099690	0.214548
	H38	H	0.335019	0.098578	0.786585
	H39	H	0.663945	0.900129	0.784863
	H40	H	0.902149	0.213972	0.336624
	H41	H	0.096650	0.213691	0.663342
	H42	H	0.098719	0.784482	0.336712
	H43	H	0.901112	0.784693	0.663442
	H44	H	0.212196	0.335348	0.904277
	H45	H	0.210713	0.665621	0.094476
	H46	H	0.788548	0.334781	0.095472
	H47	H	0.788134	0.665527	0.904774
	H48	H	0.410269	0.112618	0.580833
	H49	H	0.586925	0.885538	0.591716
	H50	H	0.590554	0.115157	0.409384
	H51	H	0.411573	0.885813	0.410555
	H52	H	0.600077	0.409297	0.117062
	H53	H	0.592402	0.602167	0.882227
	H54	H	0.406795	0.598553	0.117471
	H55	H	0.410095	0.403068	0.884200
	H56	H	0.118394	0.594356	0.407073
	H57	H	0.881779	0.587814	0.599962
	H58	H	0.117309	0.416686	0.602120
	H59	H	0.883676	0.406624	0.410244
	H60	H	0.121587	0.395349	0.596159
	H61	H	0.880596	0.599277	0.592917
	H62	H	0.117043	0.590480	0.407704
	H63	H	0.881221	0.410637	0.403788
	H64	H	0.402218	0.593581	0.117669
	H65	H	0.601894	0.589866	0.883384
	H66	H	0.588495	0.409694	0.113059
	H67	H	0.401444	0.404717	0.882121
	H68	H	0.594939	0.117759	0.406187
	H69	H	0.597030	0.882593	0.589526
	H70	H	0.393494	0.121500	0.597616
	H71	H	0.399513	0.880635	0.406333
	H72	H	0.910080	0.617049	0.097804
	H73	H	0.090848	0.385362	0.088451
	H74	H	0.093527	0.614304	0.918349
	H75	H	0.910851	0.384199	0.905900
	H76	H	0.094513	0.907569	0.615753
	H77	H	0.091077	0.093787	0.384248
	H78	H	0.908645	0.087477	0.613314
	H79	H	0.908913	0.898335	0.382534
	H80	H	0.616008	0.084583	0.901949
	H81	H	0.382332	0.091255	0.097243
	H82	H	0.616853	0.915300	0.096968
	H83	H	0.383757	0.910143	0.907484
	H84	H	0.620869	0.901649	0.097133
	H85	H	0.381770	0.097333	0.093700
	H86	H	0.621149	0.099318	0.901656
	H87	H	0.381897	0.906662	0.903928
	H88	H	0.911345	0.097906	0.615416
	H89	H	0.094714	0.097672	0.381500
	H90	H	0.090751	0.904234	0.616289
	H91	H	0.898931	0.906136	0.382319
	H92	H	0.102744	0.622637	0.899587
	H93	H	0.098620	0.380941	0.094521
	H94	H	0.908335	0.616110	0.091660
	H95	H	0.905504	0.383949	0.908238
	H96	H	0.417691	0.117109	0.604719
	H97	H	0.593074	0.880996	0.599239
	H98	H	0.589768	0.117208	0.403823
	H99	H	0.409808	0.882034	0.398109
	H100	H	0.592989	0.399418	0.117700
	H101	H	0.586858	0.588690	0.887915
	H102	H	0.408715	0.592203	0.115315
	H103	H	0.406597	0.411163	0.885831
	H104	H	0.117742	0.591414	0.404009
	H105	H	0.885143	0.588157	0.586610
	H106	H	0.112455	0.409817	0.580897
	H107	H	0.880631	0.403252	0.404318
	H108	H	0.903955	0.618256	0.096263
	H109	H	0.088658	0.382895	0.098638
	H110	H	0.081074	0.615948	0.899443
	H111	H	0.906403	0.381971	0.902928
	H112	H	0.095589	0.903053	0.617934
	H113	H	0.096856	0.092762	0.383281
	H114	H	0.901108	0.094069	0.617821
	H115	H	0.910042	0.909865	0.386049
	H116	H	0.615163	0.093105	0.915120
	H117	H	0.383882	0.091968	0.090714
	H118	H	0.615708	0.907198	0.085071
	H119	H	0.381976	0.904994	0.908768
	C120	C	0.378499	0.008511	0.621705
	C121	C	0.621069	0.991886	0.621453
	C122	C	0.620658	0.008174	0.378350
	C123	C	0.378229	0.991444	0.377597
	C124	C	0.622564	0.378055	0.008136
	C125	C	0.622309	0.622189	0.992138
	C126	C	0.378105	0.622307	0.008710
	C127	C	0.378133	0.378628	0.992168
	C128	C	0.008630	0.620746	0.378539
	C129	C	0.991397	0.620613	0.621243
	C130	C	0.008152	0.378470	0.621332
	C131	C	0.991320	0.378923	0.378973
	C132	C	0.879019	0.508376	0.122197
	C133	C	0.121115	0.491531	0.121817
	C134	C	0.121477	0.509297	0.878018
	C135	C	0.879249	0.491834	0.878389
	C136	C	0.121337	0.877447	0.508389
	C137	C	0.121907	0.122314	0.491297
	C138	C	0.878234	0.121408	0.507935
	C139	C	0.877769	0.877058	0.491976
	C140	C	0.508430	0.121134	0.878205
	C141	C	0.491581	0.121814	0.121561
	C142	C	0.508591	0.879600	0.121045
	C143	C	0.491660	0.878602	0.878631
	C144	C	0.380474	0.884872	0.676377
	C145	C	0.619073	0.114931	0.676657
	C146	C	0.619020	0.884973	0.322979
	C147	C	0.380766	0.115149	0.323319
	C148	C	0.677018	0.382190	0.885061
	C149	C	0.676104	0.618171	0.115405
	C150	C	0.324207	0.618757	0.885352
	C151	C	0.324147	0.382223	0.115141
	C152	C	0.883955	0.674505	0.382848
	C153	C	0.115505	0.674989	0.617903
	C154	C	0.883799	0.324267	0.617668
	C155	C	0.115950	0.324743	0.382720
	C156	C	0.884510	0.380320	0.676467
	C157	C	0.114976	0.619703	0.676717
	C158	C	0.884499	0.618460	0.324167
	C159	C	0.115395	0.380830	0.324080
	C160	C	0.381695	0.676945	0.885730
	C161	C	0.619172	0.676852	0.115012
	C162	C	0.619906	0.323435	0.885357
	C163	C	0.381929	0.323927	0.114696
	C164	C	0.675303	0.884391	0.381869
	C165	C	0.675319	0.115523	0.617450
	C166	C	0.324315	0.884255	0.617380
	C167	C	0.325244	0.115886	0.382873
	C168	C	0.881007	0.384614	0.176515
	C169	C	0.118600	0.615200	0.176464
	C170	C	0.119324	0.385523	0.823344
	C171	C	0.880418	0.615220	0.822997
	C172	C	0.175639	0.881620	0.385400
	C173	C	0.175568	0.118134	0.614925
	C174	C	0.823594	0.118004	0.384954
	C175	C	0.823729	0.881497	0.614835
	C176	C	0.384324	0.175833	0.881932
	C177	C	0.616108	0.176232	0.118067
	C178	C	0.384160	0.825563	0.117137
	C179	C	0.615696	0.823653	0.881507
	C180	C	0.384541	0.881953	0.175168
	C181	C	0.615422	0.119995	0.176580
	C182	C	0.384229	0.118767	0.824346
	C183	C	0.615256	0.880009	0.823086
	C184	C	0.880882	0.176255	0.385121
	C185	C	0.118304	0.176492	0.614725
	C186	C	0.118834	0.822796	0.385620
	C187	C	0.880915	0.822783	0.614676
	C188	C	0.175238	0.384745	0.882655
	C189	C	0.174496	0.615905	0.117098
	C190	C	0.824782	0.384377	0.117880
	C191	C	0.825257	0.616389	0.883026
	C192	C	0.400574	0.094877	0.600804
	C193	C	0.598791	0.905357	0.599869
	C194	C	0.598406	0.094601	0.400084
	C195	C	0.400428	0.905091	0.398698
	C196	C	0.600425	0.399718	0.094023
	C197	C	0.600205	0.600145	0.906377
	C198	C	0.399501	0.601119	0.094531
	C199	C	0.399754	0.399990	0.906121
	C200	C	0.095360	0.598763	0.399947
	C201	C	0.904782	0.598152	0.599557
	C202	C	0.094867	0.400747	0.599554
	C203	C	0.904223	0.400433	0.400039
	C204	C	0.900932	0.594907	0.101255
	C205	C	0.099194	0.405183	0.100267
	C206	C	0.099149	0.595451	0.899461
	C207	C	0.901358	0.405897	0.899451
	C208	C	0.099906	0.898644	0.594444
	C209	C	0.100606	0.101000	0.405418
	C210	C	0.900491	0.099556	0.593554
	C211	C	0.899561	0.898538	0.405784
	C212	C	0.595074	0.098861	0.899722
	C213	C	0.404884	0.099843	0.100068
	C214	C	0.595351	0.901466	0.099364
	C215	C	0.404907	0.900780	0.900313
	Zn216	Zn	0.499604	-0.000008	0.750303
	Zn217	Zn	0.500265	0.000190	0.249583
	Zn218	Zn	0.751230	0.500716	0.000344
	Zn219	Zn	0.249267	0.500559	0.000028
	Zn220	Zn	-0.000151	0.748079	0.500151
	Zn221	Zn	-0.000317	0.250705	0.499828
	Zn222	Zn	-0.000092	0.500353	0.749377
	Zn223	Zn	0.000017	0.499381	0.250521
	Zn224	Zn	0.500382	0.751029	0.000577
	Zn225	Zn	0.500402	0.249138	-0.000404
	Zn226	Zn	0.749705	-0.000281	0.499719
	Zn227	Zn	0.250367	-0.000162	0.499962
	N228	N	0.413501	0.963038	0.679237
	N229	N	0.586179	0.036818	0.679414
	N230	N	0.585989	0.963019	0.320811
	N231	N	0.412878	0.036716	0.319818
	N232	N	0.678504	0.415692	0.962395
	N233	N	0.677954	0.584777	0.038041
	N234	N	0.322109	0.585448	0.962643
	N235	N	0.321832	0.415277	0.037886
	N236	N	0.962040	0.675902	0.415966
	N237	N	0.037719	0.675882	0.584361
	N238	N	0.961693	0.323270	0.584175
	N239	N	0.037789	0.323296	0.415868
	N240	N	0.962799	0.413463	0.678778
	N241	N	0.036801	0.586344	0.678573
	N242	N	0.962833	0.585428	0.321706
	N243	N	0.036998	0.413718	0.321717
	N244	N	0.414582	0.679344	0.963209
	N245	N	0.586421	0.679417	0.037434
	N246	N	0.586933	0.320689	0.962800
	N247	N	0.415066	0.321778	0.037164
	N248	N	0.676486	0.962087	0.415499
	N249	N	0.676459	0.038020	0.583866
	N250	N	0.323129	0.961864	0.584179
	N251	N	0.323577	0.038130	0.416083
	N252	N	0.913967	0.462787	0.179535
	N253	N	0.086403	0.536826	0.179705
	N254	N	0.086451	0.463620	0.820438
	N255	N	0.913124	0.537082	0.820047
	N256	N	0.177264	0.914914	0.462703
	N257	N	0.178100	0.085378	0.537364
	N258	N	0.821625	0.084997	0.462274
	N259	N	0.821607	0.914222	0.537384
	N260	N	0.462600	0.177291	0.914906
	N261	N	0.538002	0.177473	0.084463
	N262	N	0.462486	0.823805	0.084418
	N263	N	0.537901	0.822774	0.915381
	N264	N	0.462944	0.914798	0.177621
	N265	N	0.537223	0.087010	0.178790
	N266	N	0.462401	0.085379	0.822095
	N267	N	0.537035	0.913260	0.821031
	N268	N	0.914197	0.178459	0.462442
	N269	N	0.085707	0.179285	0.537023
	N270	N	0.085939	0.819976	0.463096
	N271	N	0.913833	0.820094	0.537070
	N272	N	0.176739	0.462551	0.915858
	N273	N	0.176024	0.538170	0.083796
	N274	N	0.823627	0.462023	0.084676
	N275	N	0.824349	0.539025	0.916890
