data_Molecule from HDF5

_cell_length_a		16.277902
_cell_length_b		16.361697
_cell_length_c		16.494802
_cell_angle_alpha	89.962275
_cell_angle_beta	90.217439
_cell_angle_gamma	89.801842
_symmetry_space_group_name_H-M	'P 1'
_symmetry_Int_Tables_number		1

loop_
	_symmetry_equiv_pos_as_xyz
	x,y,z

loop_
	_atom_site_label
	_atom_site_type_symbol
	_atom_site_fract_x
	_atom_site_fract_y
	_atom_site_fract_z
	H0	H	0.391085	0.838559	0.716908
	H1	H	0.605094	0.153048	0.717648
	H2	H	0.610017	0.840320	0.270994
	H3	H	0.389564	0.153626	0.270183
	H4	H	0.720450	0.391113	0.838290
	H5	H	0.721378	0.599462	0.154623
	H6	H	0.275381	0.604074	0.840088
	H7	H	0.282208	0.393241	0.155999
	H8	H	0.842211	0.721588	0.386812
	H9	H	0.159275	0.720651	0.603458
	H10	H	0.841420	0.277441	0.601698
	H11	H	0.161720	0.278585	0.395012
	H12	H	0.843427	0.390152	0.720455
	H13	H	0.159067	0.606603	0.720192
	H14	H	0.842438	0.606560	0.271158
	H15	H	0.159941	0.389529	0.275472
	H16	H	0.391791	0.719775	0.838372
	H17	H	0.609443	0.719559	0.152539
	H18	H	0.602777	0.274722	0.837584
	H19	H	0.392301	0.272289	0.152710
	H20	H	0.724678	0.840310	0.385935
	H21	H	0.716420	0.156544	0.596899
	H22	H	0.280396	0.837365	0.598963
	H23	H	0.279479	0.156334	0.390460
	H24	H	0.894897	0.337879	0.217780
	H25	H	0.108663	0.654502	0.220037
	H26	H	0.108648	0.338328	0.775339
	H27	H	0.894297	0.656577	0.776154
	H28	H	0.222110	0.890270	0.337472
	H29	H	0.221468	0.099347	0.654141
	H30	H	0.777158	0.106402	0.337115
	H31	H	0.778786	0.893779	0.653467
	H32	H	0.337458	0.216006	0.891169
	H33	H	0.659688	0.215626	0.099360
	H34	H	0.340374	0.776007	0.099938
	H35	H	0.659197	0.774348	0.888600
	H36	H	0.341460	0.889353	0.217035
	H37	H	0.657361	0.106074	0.219573
	H38	H	0.338514	0.101380	0.773149
	H39	H	0.658735	0.888836	0.773167
	H40	H	0.892178	0.222752	0.338570
	H41	H	0.105220	0.215990	0.655214
	H42	H	0.109299	0.771156	0.339708
	H43	H	0.891367	0.774036	0.652313
	H44	H	0.218201	0.335761	0.897512
	H45	H	0.221582	0.656467	0.103640
	H46	H	0.784119	0.335007	0.097820
	H47	H	0.777230	0.654603	0.889435
	H48	H	0.409622	0.111038	0.581915
	H49	H	0.587439	0.882687	0.581115
	H50	H	0.591643	0.113678	0.404079
	H51	H	0.412970	0.883220	0.405123
	H52	H	0.586543	0.405492	0.107832
	H53	H	0.580974	0.591590	0.883714
	H54	H	0.411817	0.588107	0.109802
	H55	H	0.411886	0.408640	0.883920
	H56	H	0.112327	0.579970	0.410137
	H57	H	0.886543	0.584972	0.586820
	H58	H	0.115095	0.406504	0.582449
	H59	H	0.884812	0.409607	0.404413
	H60	H	0.114364	0.411801	0.588165
	H61	H	0.886873	0.586336	0.582968
	H62	H	0.114531	0.582957	0.406771
	H63	H	0.885756	0.407751	0.408224
	H64	H	0.412691	0.584424	0.108293
	H65	H	0.596058	0.586671	0.879924
	H66	H	0.591478	0.400791	0.110869
	H67	H	0.410282	0.405198	0.882363
	H68	H	0.581059	0.110229	0.401977
	H69	H	0.592133	0.880200	0.584234
	H70	H	0.409703	0.111823	0.587653
	H71	H	0.412946	0.883167	0.405549
	H72	H	0.913001	0.612048	0.093089
	H73	H	0.095937	0.379108	0.092568
	H74	H	0.094806	0.611579	0.911561
	H75	H	0.918882	0.382046	0.899298
	H76	H	0.086831	0.907646	0.607255
	H77	H	0.088607	0.084370	0.383220
	H78	H	0.907759	0.079737	0.606698
	H79	H	0.912472	0.905405	0.381306
	H80	H	0.613124	0.086654	0.908786
	H81	H	0.391272	0.076872	0.073614
	H82	H	0.611764	0.916092	0.083657
	H83	H	0.384926	0.906956	0.903518
	H84	H	0.616022	0.906147	0.087234
	H85	H	0.382673	0.079129	0.093743
	H86	H	0.612114	0.080514	0.905271
	H87	H	0.385212	0.908131	0.907415
	H88	H	0.917447	0.089977	0.607020
	H89	H	0.085724	0.090935	0.383084
	H90	H	0.090871	0.909322	0.607896
	H91	H	0.909529	0.914114	0.383932
	H92	H	0.087430	0.613102	0.900779
	H93	H	0.082815	0.384586	0.088998
	H94	H	0.919069	0.606901	0.081082
	H95	H	0.916362	0.386649	0.914306
	H96	H	0.414590	0.109166	0.584495
	H97	H	0.586723	0.881247	0.586822
	H98	H	0.585752	0.108779	0.412018
	H99	H	0.412555	0.882706	0.405334
	H100	H	0.593191	0.408449	0.109336
	H101	H	0.586087	0.576577	0.886757
	H102	H	0.415231	0.587343	0.108423
	H103	H	0.407776	0.408475	0.883191
	H104	H	0.113987	0.585028	0.412025
	H105	H	0.888214	0.582246	0.584185
	H106	H	0.118250	0.404917	0.589370
	H107	H	0.887483	0.412073	0.407517
	H108	H	0.905056	0.611231	0.080717
	H109	H	0.093102	0.383932	0.079185
	H110	H	0.082340	0.606929	0.911159
	H111	H	0.904601	0.380078	0.905855
	H112	H	0.088223	0.912027	0.605780
	H113	H	0.092477	0.089917	0.381235
	H114	H	0.904041	0.092549	0.611962
	H115	H	0.918438	0.911190	0.386339
	H116	H	0.613944	0.086078	0.902031
	H117	H	0.382373	0.095558	0.079396
	H118	H	0.612664	0.907282	0.076894
	H119	H	0.385577	0.910573	0.904344
	C120	C	0.378508	0.005551	0.616247
	C121	C	0.620390	0.986959	0.615988
	C122	C	0.620994	0.006497	0.372773
	C123	C	0.378671	0.987838	0.372496
	C124	C	0.621775	0.373106	0.004757
	C125	C	0.621667	0.617544	0.987352
	C126	C	0.378555	0.619623	0.005232
	C127	C	0.378503	0.375163	0.987727
	C128	C	0.009015	0.617789	0.374885
	C129	C	0.991913	0.618756	0.617644
	C130	C	0.010438	0.376174	0.618738
	C131	C	0.991963	0.376693	0.375316
	C132	C	0.880192	0.504808	0.117057
	C133	C	0.122905	0.488053	0.119353
	C134	C	0.122206	0.505426	0.875950
	C135	C	0.879733	0.487807	0.874283
	C136	C	0.122207	0.875409	0.503613
	C137	C	0.121705	0.118884	0.487216
	C138	C	0.877097	0.120830	0.504181
	C139	C	0.878939	0.877054	0.487198
	C140	C	0.507139	0.117092	0.873318
	C141	C	0.490906	0.116795	0.115341
	C142	C	0.508459	0.876715	0.115471
	C143	C	0.490767	0.874781	0.873009
	C144	C	0.374534	0.886018	0.676430
	C145	C	0.622854	0.106237	0.676782
	C146	C	0.626848	0.887780	0.311182
	C147	C	0.373188	0.106510	0.311083
	C148	C	0.680611	0.372201	0.885395
	C149	C	0.682343	0.618684	0.106525
	C150	C	0.316463	0.622098	0.886907
	C151	C	0.320434	0.373909	0.107766
	C152	C	0.890088	0.680897	0.369787
	C153	C	0.111589	0.680254	0.621142
	C154	C	0.889722	0.316782	0.620417
	C155	C	0.113131	0.317407	0.375150
	C156	C	0.890694	0.372937	0.679420
	C157	C	0.111454	0.623280	0.679249
	C158	C	0.890141	0.623400	0.312052
	C159	C	0.112066	0.372601	0.315423
	C160	C	0.374735	0.679646	0.886047
	C161	C	0.626262	0.678226	0.105803
	C162	C	0.622786	0.313970	0.885233
	C163	C	0.375619	0.313814	0.106144
	C164	C	0.684068	0.887834	0.368639
	C165	C	0.678213	0.107999	0.616771
	C166	C	0.318805	0.885483	0.617800
	C167	C	0.318379	0.107877	0.370945
	C168	C	0.877173	0.385260	0.177552
	C169	C	0.125930	0.607176	0.179804
	C170	C	0.125934	0.385961	0.815979
	C171	C	0.876217	0.607973	0.814941
	C172	C	0.182767	0.871846	0.385190
	C173	C	0.181593	0.118655	0.606799
	C174	C	0.816796	0.124187	0.385088
	C175	C	0.818349	0.874897	0.605656
	C176	C	0.385784	0.176400	0.872240
	C177	C	0.611326	0.176549	0.117866
	C178	C	0.388465	0.816175	0.118197
	C179	C	0.610893	0.814084	0.870566
	C180	C	0.388988	0.872819	0.176507
	C181	C	0.610368	0.121567	0.177632
	C182	C	0.386623	0.119924	0.813069
	C183	C	0.610757	0.871435	0.813044
	C184	C	0.874179	0.182308	0.385818
	C185	C	0.123500	0.176735	0.607462
	C186	C	0.126353	0.812634	0.386226
	C187	C	0.874827	0.815340	0.605179
	C188	C	0.180691	0.384601	0.876546
	C189	C	0.182266	0.608104	0.121412
	C190	C	0.821989	0.383858	0.117648
	C191	C	0.817705	0.607039	0.871515
	C192	C	0.404092	0.088921	0.591608
	C193	C	0.595961	0.903388	0.591346
	C194	C	0.593908	0.089059	0.398663
	C195	C	0.405145	0.904825	0.397831
	C196	C	0.597280	0.397610	0.087603
	C197	C	0.595269	0.592351	0.905012
	C198	C	0.405558	0.594073	0.087389
	C199	C	0.402974	0.400291	0.904728
	C200	C	0.091986	0.590612	0.402020
	C201	C	0.908991	0.592361	0.591960
	C202	C	0.094000	0.400674	0.593925
	C203	C	0.907941	0.402377	0.399644
	C204	C	0.904959	0.588180	0.092102
	C205	C	0.097839	0.404323	0.093976
	C206	C	0.095978	0.588950	0.900655
	C207	C	0.905883	0.404429	0.899383
	C208	C	0.095992	0.901937	0.585786
	C209	C	0.096387	0.095090	0.404313
	C210	C	0.902414	0.094996	0.586756
	C211	C	0.905563	0.903043	0.405186
	C212	C	0.590940	0.091894	0.898155
	C213	C	0.407188	0.091024	0.089574
	C214	C	0.591820	0.902468	0.089975
	C215	C	0.407073	0.900770	0.898178
	Zn216	Zn	0.498485	-0.004484	0.744515
	Zn217	Zn	0.499845	-0.003149	0.244990
	Zn218	Zn	0.751074	0.495590	-0.004426
	Zn219	Zn	0.250445	0.497184	-0.001838
	Zn220	Zn	0.000460	0.746715	0.496032
	Zn221	Zn	0.000499	0.248449	0.496418
	Zn222	Zn	0.001444	0.497997	0.746669
	Zn223	Zn	0.000820	0.496764	0.246238
	Zn224	Zn	0.500769	0.747629	-0.004516
	Zn225	Zn	0.498428	0.245382	-0.004478
	Zn226	Zn	0.748575	-0.002001	0.494241
	Zn227	Zn	0.251353	-0.003157	0.494408
	N228	N	0.410966	0.961681	0.675538
	N229	N	0.587931	0.029916	0.676596
	N230	N	0.588622	0.962728	0.313390
	N231	N	0.409833	0.030796	0.312001
	N232	N	0.680329	0.408120	0.960540
	N233	N	0.679942	0.581780	0.031618
	N234	N	0.318631	0.585516	0.961843
	N235	N	0.322162	0.411623	0.033278
	N236	N	0.965116	0.677514	0.408210
	N237	N	0.036220	0.677599	0.583488
	N238	N	0.965104	0.318636	0.583326
	N239	N	0.037454	0.319656	0.411673
	N240	N	0.966741	0.409075	0.678680
	N241	N	0.036243	0.585687	0.677312
	N242	N	0.965180	0.584876	0.315140
	N243	N	0.035693	0.408747	0.315537
	N244	N	0.412443	0.678180	0.960795
	N245	N	0.589299	0.677790	0.030763
	N246	N	0.587145	0.314212	0.960473
	N247	N	0.411066	0.314651	0.030567
	N248	N	0.680710	0.962897	0.406127
	N249	N	0.676899	0.032814	0.579789
	N250	N	0.321101	0.960753	0.580980
	N251	N	0.321649	0.033011	0.408672
	N252	N	0.912622	0.461460	0.177426
	N253	N	0.089627	0.531529	0.178564
	N254	N	0.090717	0.462512	0.815113
	N255	N	0.913794	0.532580	0.816251
	N256	N	0.180149	0.910271	0.459248
	N257	N	0.180783	0.083627	0.531139
	N258	N	0.818483	0.086547	0.459612
	N259	N	0.820533	0.912195	0.531053
	N260	N	0.461721	0.174877	0.908966
	N261	N	0.536135	0.173605	0.080002
	N262	N	0.463727	0.818441	0.080880
	N263	N	0.535174	0.816018	0.907135
	N264	N	0.464726	0.909813	0.174882
	N265	N	0.534268	0.085110	0.176346
	N266	N	0.462940	0.083503	0.813740
	N267	N	0.534830	0.908271	0.814179
	N268	N	0.910917	0.180642	0.460985
	N269	N	0.087014	0.177092	0.532231
	N270	N	0.089421	0.814783	0.460958
	N271	N	0.911770	0.816394	0.530374
	N272	N	0.178720	0.460213	0.912693
	N273	N	0.180330	0.532846	0.084430
	N274	N	0.823569	0.459190	0.080711
	N275	N	0.819701	0.531317	0.907546
	O276	O	0.468303	0.525337	0.318453
	H277	H	0.462663	0.519054	0.317968
	H278	H	0.476277	0.517165	0.318494
	O279	O	0.492269	0.318660	0.696499
	H280	H	0.504061	0.318811	0.697367
	H281	H	0.493921	0.306404	0.672697
	O282	O	0.669453	0.707914	0.481468
	H283	H	0.682464	0.715112	0.507343
	H284	H	0.665432	0.732291	0.473812
	O285	O	0.991512	1.001762	-0.185455
	H286	H	0.988072	0.973605	-0.179377
	H287	H	0.970536	1.022810	-0.196404
	O288	O	0.243064	0.199343	0.219714
	H289	H	0.262909	0.193917	0.190321
	H290	H	0.247059	0.169774	0.220894
	O291	O	0.744223	0.223794	0.876622
	H292	H	0.725198	0.222895	0.885009
	H293	H	0.730974	0.216609	0.877626
	O294	O	0.839483	1.048735	1.046514
	H295	H	0.835429	1.035777	1.035031
	H296	H	0.855393	1.048358	1.053896
	O297	O	0.560635	0.664149	0.468565
	H298	H	0.543920	0.675099	0.465887
	H299	H	0.544889	0.668385	0.457135
	O300	O	0.302423	0.290207	0.517903
	H301	H	0.311964	0.285013	0.504464
	H302	H	0.289571	0.284569	0.517295
	O303	O	0.298440	0.705880	0.476226
	H304	H	0.269910	0.717314	0.480725
	H305	H	0.310157	0.692601	0.500963
	O306	O	0.032001	-0.130680	1.014597
	H307	H	0.026845	-0.133127	1.020125
	H308	H	0.040898	-0.140047	1.005743
	O309	O	0.978961	0.200004	-0.160008
	H310	H	0.950664	0.204246	-0.159319
	H311	H	0.959129	0.221058	-0.174026
	O312	O	0.450088	0.313516	0.373641
	H313	H	0.471387	0.300117	0.353167
	H314	H	0.454609	0.309054	0.377915
	O315	O	0.429403	0.475075	0.407019
	H316	H	0.440805	0.470287	0.404009
	H317	H	0.431060	0.476208	0.409313
	O318	O	-0.150440	0.022899	0.147958
	H319	H	-0.133552	0.041495	0.147766
	H320	H	-0.166056	0.025613	0.178686
	O321	O	0.280851	0.470987	0.716763
	H322	H	0.241478	0.463969	0.752670
	H323	H	0.293045	0.427774	0.700153
	O324	O	0.953431	-0.074131	1.049487
	H325	H	0.966619	-0.074119	1.054935
	H326	H	0.958396	-0.077083	1.054062
	O327	O	0.581505	0.701767	0.697735
	H328	H	0.542654	0.682468	0.708562
	H329	H	0.585172	0.702759	0.727298
	O330	O	-0.097788	0.851023	0.987030
	H331	H	-0.123146	0.825115	0.999554
	H332	H	-0.081253	0.848881	0.986305
	O333	O	0.190843	1.082102	-0.064355
	H334	H	0.202539	1.089235	-0.059552
	H335	H	0.170763	1.090227	-0.084348
	O336	O	0.968913	0.986107	0.138329
	H337	H	0.982433	0.987641	0.132262
	H338	H	0.984252	1.001644	0.139185
	O339	O	0.161841	0.883821	0.858527
	H340	H	0.176086	0.909791	0.845877
	H341	H	0.152378	0.899323	0.885512
	O342	O	0.478669	0.714206	0.277238
	H343	H	0.434621	0.708726	0.287060
	H344	H	0.480367	0.739662	0.242986
	O345	O	0.116011	0.148305	0.925670
	H346	H	0.097829	0.162411	0.930854
	H347	H	0.112445	0.138667	0.905925
	O348	O	0.693492	0.474559	0.288989
	H349	H	0.695460	0.501681	0.299249
	H350	H	0.702540	0.491043	0.274134
	O351	O	0.317747	0.683044	0.309423
	H352	H	0.307561	0.692727	0.363168
	H353	H	0.317663	0.638450	0.300789
	O354	O	1.196858	1.058106	1.166094
	H355	H	1.208681	1.053287	1.163000
	H356	H	1.189861	1.039668	1.148860
	O357	O	-0.044948	0.145594	-0.006594
	H358	H	-0.047236	0.145150	-0.006256
	H359	H	-0.057053	0.139136	-0.004776
	O360	O	0.614566	0.529076	0.386004
	H361	H	0.617421	0.548477	0.386615
	H362	H	0.604268	0.548490	0.390417
	O363	O	0.812281	0.191788	-0.196084
	H364	H	0.810810	0.175796	-0.173080
	H365	H	0.806977	0.161820	-0.180390
	O366	O	-0.072497	-0.107830	0.903359
	H367	H	-0.073522	-0.104755	0.941553
	H368	H	-0.069940	-0.118665	0.896634
	O369	O	1.323970	0.313146	0.679220
	H370	H	1.358920	0.293997	0.692916
	H371	H	1.327578	0.309770	0.641866
	O372	O	0.644900	0.363418	0.489806
	H373	H	0.655045	0.386254	0.503913
	H374	H	0.658867	0.365202	0.483091
	O375	O	0.101579	0.040543	0.839666
	H376	H	0.113558	0.042136	0.826985
	H377	H	0.074596	0.054834	0.827692
	O378	O	0.289859	0.562548	0.554973
	H379	H	0.296099	0.548078	0.549034
	H380	H	0.292312	0.543662	0.581793
	O381	O	-0.176665	0.857067	0.173980
	H382	H	-0.185773	0.895552	0.181128
	H383	H	-0.150815	0.858675	0.186919
	O384	O	0.643641	0.357902	0.691935
	H385	H	0.640293	0.353680	0.685173
	H386	H	0.636370	0.340919	0.705522
	O387	O	0.484841	0.507798	0.669761
	H388	H	0.480495	0.500537	0.670430
	H389	H	0.492798	0.501982	0.658346
	O390	O	1.005227	0.791224	-0.111753
	H391	H	1.007391	0.774641	-0.117868
	H392	H	1.022731	0.789098	-0.113218
	O393	O	0.975868	0.056131	1.082759
	H394	H	0.974473	0.054187	1.073320
	H395	H	0.988260	0.049825	1.106411
	O396	O	0.297561	0.494268	0.349385
	H397	H	0.304327	0.484195	0.336824
	H398	H	0.284975	0.479943	0.348989
	O399	O	0.686985	0.304866	0.378611
	H400	H	0.711205	0.315050	0.379045
	H401	H	0.699055	0.327485	0.408884
	O402	O	1.023350	1.204383	0.206594
	H403	H	1.036942	1.217675	0.211749
	H404	H	1.043249	1.210195	0.214153
	O405	O	0.454982	0.533762	0.418974
	H406	H	0.448199	0.540226	0.412777
	H407	H	0.448306	0.527512	0.415371
	O408	O	0.506099	0.309232	0.516302
	H409	H	0.508315	0.314543	0.505898
	H410	H	0.530466	0.310618	0.507881
	O411	O	0.987624	0.867267	1.120884
	H412	H	0.994583	0.865952	1.136379
	H413	H	1.013639	0.876524	1.117066
	O414	O	0.705191	0.509067	0.697545
	H415	H	0.724163	0.501989	0.712719
	H416	H	0.682067	0.502597	0.702513
	O417	O	-0.101865	1.028133	0.857711
	H418	H	-0.096986	1.007236	0.862894
	H419	H	-0.113299	1.019284	0.841905
	O420	O	-0.204110	0.840691	1.024544
	H421	H	-0.209745	0.843242	1.044345
	H422	H	-0.212034	0.830702	1.029943
	O423	O	0.168885	0.831320	0.015495
	H424	H	0.148564	0.830425	0.002638
	H425	H	0.198511	0.802785	0.006470
	O426	O	0.461411	0.630862	0.529555
	H427	H	0.460529	0.622265	0.543798
	H428	H	0.478452	0.648147	0.535366
	O429	O	0.696266	0.686344	0.615218
	H430	H	0.676593	0.710880	0.626419
	H431	H	0.696161	0.660033	0.628314
	O432	O	0.451030	0.628721	0.704196
	H433	H	0.434085	0.610480	0.711618
	H434	H	0.448386	0.613263	0.680361
	O435	O	0.145530	-0.032303	0.056655
	H436	H	0.145963	-0.043283	0.043151
	H437	H	0.142029	-0.040770	0.058407
	O438	O	-0.436908	1.298921	1.295892
	H439	H	-0.406873	1.292995	1.307857
	H440	H	-0.419409	1.318226	1.281580
	O441	O	0.713267	0.451687	0.531112
	H442	H	0.712041	0.476851	0.514645
	H443	H	0.714197	0.476553	0.546815
