data_Molecule from HDF5

_cell_length_a		16.312445
_cell_length_b		16.069088
_cell_length_c		16.329635
_cell_angle_alpha	89.857868
_cell_angle_beta	90.111016
_cell_angle_gamma	90.132908
_symmetry_space_group_name_H-M	'P 1'
_symmetry_Int_Tables_number		1

loop_
	_symmetry_equiv_pos_as_xyz
	x,y,z

loop_
	_atom_site_label
	_atom_site_type_symbol
	_atom_site_fract_x
	_atom_site_fract_y
	_atom_site_fract_z
	H0	H	0.403969	0.828181	0.719836
	H1	H	0.601854	0.159951	0.718904
	H2	H	0.600226	0.829252	0.292054
	H3	H	0.399430	0.157746	0.288632
	H4	H	0.716981	0.393894	0.841041
	H5	H	0.718567	0.596866	0.164391
	H6	H	0.283929	0.597287	0.840967
	H7	H	0.280912	0.390618	0.163204
	H8	H	0.837572	0.708731	0.405014
	H9	H	0.165539	0.706356	0.598820
	H10	H	0.837534	0.280057	0.600037
	H11	H	0.164068	0.280646	0.403753
	H12	H	0.837311	0.393829	0.718116
	H13	H	0.161630	0.599716	0.723375
	H14	H	0.838574	0.596688	0.285657
	H15	H	0.161574	0.392250	0.284212
	H16	H	0.403654	0.710966	0.841025
	H17	H	0.598617	0.706245	0.167104
	H18	H	0.598716	0.280433	0.840027
	H19	H	0.402940	0.281016	0.167150
	H20	H	0.714972	0.829142	0.406444
	H21	H	0.717438	0.159465	0.605046
	H22	H	0.286884	0.829073	0.606603
	H23	H	0.288015	0.159034	0.405696
	H24	H	0.896549	0.331269	0.220526
	H25	H	0.100943	0.659585	0.216199
	H26	H	0.099474	0.331210	0.787240
	H27	H	0.898148	0.659639	0.786978
	H28	H	0.221766	0.890241	0.343583
	H29	H	0.218148	0.096036	0.667107
	H30	H	0.781101	0.098913	0.343528
	H31	H	0.787238	0.892778	0.667646
	H32	H	0.338058	0.207716	0.904785
	H33	H	0.664116	0.211317	0.105088
	H34	H	0.338672	0.777531	0.103718
	H35	H	0.665586	0.781525	0.910008
	H36	H	0.339565	0.889422	0.223707
	H37	H	0.662426	0.097672	0.224287
	H38	H	0.340671	0.096114	0.786081
	H39	H	0.665189	0.892974	0.790514
	H40	H	0.901260	0.210389	0.340507
	H41	H	0.100747	0.210311	0.666979
	H42	H	0.100510	0.781934	0.340438
	H43	H	0.905816	0.779948	0.667515
	H44	H	0.216637	0.331732	0.897828
	H45	H	0.215010	0.658191	0.101301
	H46	H	0.783788	0.331302	0.103971
	H47	H	0.786188	0.660204	0.903736
	H48	H	0.399751	0.111878	0.587651
	H49	H	0.601258	0.875329	0.594502
	H50	H	0.590780	0.113685	0.409889
	H51	H	0.408741	0.876995	0.418332
	H52	H	0.594826	0.405364	0.118234
	H53	H	0.594898	0.579040	0.888812
	H54	H	0.406614	0.585477	0.119745
	H55	H	0.409826	0.413213	0.890721
	H56	H	0.118803	0.590044	0.407135
	H57	H	0.888704	0.575254	0.593180
	H58	H	0.116541	0.404035	0.595884
	H59	H	0.883309	0.393592	0.415261
	H60	H	0.116302	0.405000	0.597599
	H61	H	0.879232	0.589876	0.606698
	H62	H	0.115757	0.586844	0.411493
	H63	H	0.889195	0.412588	0.415687
	H64	H	0.405864	0.583280	0.119635
	H65	H	0.585716	0.591720	0.888169
	H66	H	0.591131	0.403672	0.117831
	H67	H	0.415804	0.392781	0.886715
	H68	H	0.588604	0.109126	0.417490
	H69	H	0.596490	0.873557	0.606316
	H70	H	0.409596	0.116528	0.609664
	H71	H	0.409017	0.874131	0.412609
	H72	H	0.915919	0.610370	0.093662
	H73	H	0.091277	0.374229	0.099800
	H74	H	0.077061	0.608355	0.912701
	H75	H	0.904462	0.378921	0.918681
	H76	H	0.090295	0.894401	0.621413
	H77	H	0.092346	0.082407	0.391314
	H78	H	0.915716	0.084619	0.616885
	H79	H	0.898070	0.914087	0.388659
	H80	H	0.620267	0.093003	0.910492
	H81	H	0.380805	0.098946	0.100418
	H82	H	0.619630	0.895850	0.102802
	H83	H	0.384446	0.903386	0.908310
	H84	H	0.616024	0.902924	0.093028
	H85	H	0.390466	0.082052	0.085201
	H86	H	0.615598	0.086159	0.919677
	H87	H	0.385698	0.900966	0.913304
	H88	H	0.908482	0.092754	0.621733
	H89	H	0.093002	0.090351	0.387313
	H90	H	0.103668	0.900166	0.623767
	H91	H	0.919769	0.905886	0.392059
	H92	H	0.099787	0.611607	0.923825
	H93	H	0.081737	0.379721	0.091939
	H94	H	0.905212	0.611951	0.088598
	H95	H	0.902867	0.374252	0.904665
	H96	H	0.422986	0.105978	0.592018
	H97	H	0.588634	0.878559	0.596951
	H98	H	0.596887	0.112646	0.417019
	H99	H	0.413154	0.876958	0.414900
	H100	H	0.593876	0.401703	0.120059
	H101	H	0.600461	0.592109	0.883231
	H102	H	0.408119	0.583766	0.117978
	H103	H	0.396153	0.399503	0.882420
	H104	H	0.117591	0.585302	0.406244
	H105	H	0.884542	0.596536	0.586683
	H106	H	0.116393	0.403525	0.597473
	H107	H	0.881725	0.405194	0.399655
	H108	H	0.906502	0.616026	0.100446
	H109	H	0.094182	0.377385	0.087666
	H110	H	0.095645	0.618222	0.900538
	H111	H	0.915480	0.378435	0.909204
	H112	H	0.093084	0.908942	0.617543
	H113	H	0.099584	0.084182	0.388161
	H114	H	0.905047	0.081564	0.620090
	H115	H	0.902743	0.891616	0.383107
	H116	H	0.618455	0.080684	0.908190
	H117	H	0.384949	0.076117	0.107569
	H118	H	0.616939	0.907772	0.105109
	H119	H	0.387556	0.906222	0.913011
	C120	C	0.381726	0.002258	0.626406
	C121	C	0.624492	0.985300	0.627670
	C122	C	0.621974	0.002917	0.385142
	C123	C	0.380415	0.984714	0.384695
	C124	C	0.622212	0.373476	0.011388
	C125	C	0.622735	0.616374	0.994176
	C126	C	0.378803	0.615408	0.011736
	C127	C	0.377798	0.372094	0.994034
	C128	C	0.009762	0.617115	0.379922
	C129	C	0.992002	0.616618	0.624773
	C130	C	0.009081	0.374000	0.625110
	C131	C	0.991986	0.373754	0.380932
	C132	C	0.878577	0.504094	0.124369
	C133	C	0.120067	0.485668	0.122822
	C134	C	0.120964	0.504268	0.881266
	C135	C	0.878677	0.486294	0.881875
	C136	C	0.124650	0.872268	0.512911
	C137	C	0.123976	0.115952	0.495994
	C138	C	0.879966	0.115817	0.512350
	C139	C	0.879428	0.873246	0.495820
	C140	C	0.510523	0.115784	0.882926
	C141	C	0.492636	0.116274	0.127374
	C142	C	0.510159	0.871633	0.128444
	C143	C	0.493498	0.873329	0.883531
	C144	C	0.383836	0.877856	0.681975
	C145	C	0.622523	0.110039	0.682191
	C146	C	0.620396	0.878739	0.329615
	C147	C	0.380751	0.108798	0.327577
	C148	C	0.678506	0.374102	0.889425
	C149	C	0.679660	0.615800	0.116211
	C150	C	0.322773	0.615971	0.889210
	C151	C	0.320453	0.371968	0.115362
	C152	C	0.886785	0.672124	0.383389
	C153	C	0.115894	0.670519	0.620985
	C154	C	0.886250	0.317615	0.621511
	C155	C	0.114881	0.318118	0.383255
	C156	C	0.886122	0.374351	0.679945
	C157	C	0.113816	0.617238	0.682725
	C158	C	0.887111	0.616151	0.324247
	C159	C	0.113687	0.373561	0.323625
	C160	C	0.382291	0.672518	0.889412
	C161	C	0.619873	0.669944	0.117763
	C162	C	0.619527	0.317770	0.889026
	C163	C	0.381040	0.317390	0.117487
	C164	C	0.677425	0.878770	0.386824
	C165	C	0.679734	0.109890	0.625327
	C166	C	0.325334	0.878198	0.625759
	C167	C	0.324908	0.109173	0.385520
	C168	C	0.877949	0.380546	0.181652
	C169	C	0.120287	0.609716	0.178578
	C170	C	0.119535	0.380619	0.824749
	C171	C	0.879521	0.610426	0.825539
	C172	C	0.182063	0.872300	0.391513
	C173	C	0.179751	0.115284	0.618213
	C174	C	0.821231	0.116846	0.391068
	C175	C	0.825037	0.873706	0.618656
	C176	C	0.387420	0.170797	0.884280
	C177	C	0.615021	0.173107	0.125312
	C178	C	0.387471	0.815029	0.125057
	C179	C	0.616527	0.818352	0.888117
	C180	C	0.387841	0.870675	0.184748
	C181	C	0.614250	0.116582	0.184928
	C182	C	0.388648	0.114954	0.825516
	C183	C	0.616190	0.873573	0.828305
	C184	C	0.881264	0.172146	0.389402
	C185	C	0.121677	0.172683	0.618151
	C186	C	0.121520	0.818271	0.389762
	C187	C	0.884230	0.817497	0.618666
	C188	C	0.177902	0.380917	0.879956
	C189	C	0.177146	0.609070	0.121374
	C190	C	0.821658	0.380296	0.123705
	C191	C	0.823704	0.610847	0.883487
	C192	C	0.404293	0.088965	0.603369
	C193	C	0.602102	0.898142	0.605688
	C194	C	0.598946	0.089493	0.407916
	C195	C	0.403459	0.898360	0.408313
	C196	C	0.599979	0.396737	0.096633
	C197	C	0.600303	0.594177	0.908811
	C198	C	0.400292	0.591345	0.096797
	C199	C	0.400509	0.395104	0.908765
	C200	C	0.095324	0.594171	0.401783
	C201	C	0.906452	0.593927	0.602131
	C202	C	0.094294	0.397406	0.603395
	C203	C	0.906837	0.396908	0.403600
	C204	C	0.902208	0.590442	0.100851
	C205	C	0.096033	0.399408	0.099908
	C206	C	0.097620	0.590422	0.905292
	C207	C	0.900965	0.399558	0.904441
	C208	C	0.102293	0.894611	0.598681
	C209	C	0.101520	0.092524	0.410715
	C210	C	0.903101	0.093009	0.597540
	C211	C	0.900658	0.896914	0.410147
	C212	C	0.595904	0.093123	0.905939
	C213	C	0.407377	0.092476	0.104610
	C214	C	0.595355	0.895323	0.106740
	C215	C	0.407957	0.896673	0.905075
	Zn216	Zn	0.503215	-0.005612	0.754097
	Zn217	Zn	0.500813	-0.006233	0.257151
	Zn218	Zn	0.751214	0.495519	0.002739
	Zn219	Zn	0.248312	0.493705	0.001697
	Zn220	Zn	0.001803	0.744941	0.502892
	Zn221	Zn	0.001856	0.245079	0.503217
	Zn222	Zn	-0.000788	0.495781	0.754378
	Zn223	Zn	0.000205	0.494808	0.251536
	Zn224	Zn	0.501522	0.744532	0.004812
	Zn225	Zn	0.500755	0.244364	0.003792
	Zn226	Zn	0.750299	-0.005099	0.505163
	Zn227	Zn	0.252824	-0.006016	0.504919
	N228	N	0.418258	0.956045	0.682292
	N229	N	0.589039	0.031467	0.683686
	N230	N	0.586461	0.957118	0.328423
	N231	N	0.414430	0.030330	0.326862
	N232	N	0.680273	0.408213	0.966562
	N233	N	0.681640	0.583157	0.038494
	N234	N	0.320448	0.581233	0.966219
	N235	N	0.318090	0.405065	0.037544
	N236	N	0.964156	0.673017	0.417125
	N237	N	0.039269	0.670025	0.585398
	N238	N	0.963478	0.317146	0.588120
	N239	N	0.038086	0.317747	0.417910
	N240	N	0.963437	0.408580	0.682649
	N241	N	0.035839	0.584647	0.685201
	N242	N	0.964708	0.583056	0.321593
	N243	N	0.036386	0.407438	0.322222
	N244	N	0.416381	0.672320	0.966415
	N245	N	0.585200	0.670643	0.040903
	N246	N	0.585328	0.317364	0.965893
	N247	N	0.415642	0.317075	0.040936
	N248	N	0.678541	0.957121	0.420444
	N249	N	0.681007	0.031299	0.592065
	N250	N	0.323942	0.956604	0.591777
	N251	N	0.324456	0.030998	0.420336
	N252	N	0.912947	0.458546	0.181976
	N253	N	0.085607	0.531775	0.179628
	N254	N	0.084783	0.458296	0.825431
	N255	N	0.912998	0.532024	0.824529
	N256	N	0.184203	0.905051	0.469174
	N257	N	0.181397	0.080937	0.541147
	N258	N	0.820422	0.082535	0.468322
	N259	N	0.821876	0.907558	0.541186
	N260	N	0.464005	0.171213	0.919620
	N261	N	0.538373	0.172972	0.090275
	N262	N	0.464362	0.815521	0.090885
	N263	N	0.539181	0.817976	0.921488
	N264	N	0.465036	0.905324	0.187093
	N265	N	0.537064	0.081867	0.186234
	N266	N	0.466298	0.081723	0.824198
	N267	N	0.538746	0.907230	0.825502
	N268	N	0.917307	0.171731	0.465656
	N269	N	0.087702	0.173375	0.541034
	N270	N	0.086432	0.818163	0.466361
	N271	N	0.917393	0.817143	0.541181
	N272	N	0.178889	0.458901	0.914554
	N273	N	0.177221	0.530764	0.087410
	N274	N	0.821866	0.458068	0.088755
	N275	N	0.822911	0.532640	0.917914
	O276	O	1.024242	0.858505	-0.056484
	H277	H	1.019364	0.864753	-0.059628
	H278	H	1.023582	0.855880	-0.058830
	O279	O	0.427809	0.528997	0.506274
	H280	H	0.429346	0.532460	0.518626
	H281	H	0.403814	0.527455	0.505321
	O282	O	0.937254	0.897867	0.166889
	H283	H	0.941281	0.896168	0.163624
	H284	H	0.947226	0.887241	0.172984
	O285	O	1.177454	0.097954	1.088828
	H286	H	1.187354	0.089634	1.095840
	H287	H	1.180896	0.102612	1.098483
	O288	O	0.476584	0.579001	0.478102
	H289	H	0.483327	0.579108	0.476380
	H290	H	0.479448	0.574494	0.468924
	O291	O	0.461708	0.526804	0.473653
	H292	H	0.459026	0.528603	0.484756
	H293	H	0.458310	0.530295	0.474940
	O294	O	0.435131	0.498691	0.630419
	H295	H	0.435837	0.496767	0.635987
	H296	H	0.439817	0.493804	0.635736
	O297	O	-0.099291	-0.067030	1.078145
	H298	H	-0.099920	-0.074197	1.071166
	H299	H	-0.114191	-0.068274	1.075970
	O300	O	0.494888	0.480962	0.467599
	H301	H	0.485663	0.489085	0.473471
	H302	H	0.514312	0.484960	0.462121
	O303	O	1.021235	0.832557	-0.032428
	H304	H	1.035070	0.822066	-0.035009
	H305	H	1.035825	0.824612	-0.044142
	O306	O	0.145849	0.994836	1.102596
	H307	H	0.136874	1.003970	1.122407
	H308	H	0.147636	0.975361	1.087746
	O309	O	0.500964	0.411063	0.492692
	H310	H	0.488369	0.406554	0.487712
	H311	H	0.503660	0.417269	0.495977
	O312	O	-0.014608	-0.094229	-0.022836
	H313	H	-0.028025	-0.106873	-0.031470
	H314	H	-0.004318	-0.090170	-0.034413
	O315	O	1.010242	0.055136	0.025125
	H316	H	1.017203	0.046222	0.029523
	H317	H	1.001216	0.048203	0.028975
	O318	O	1.168932	1.098101	0.940867
	H319	H	1.177493	1.094539	0.959348
	H320	H	1.170023	1.114160	0.950117
	O321	O	-0.159664	0.144846	1.029795
	H322	H	-0.155795	0.142375	1.038014
	H323	H	-0.165898	0.152043	1.012056
	O324	O	0.442552	0.524885	0.568130
	H325	H	0.445594	0.532893	0.571344
	H326	H	0.446808	0.538613	0.565589
	O327	O	0.007108	-0.079960	0.011943
	H328	H	-0.009265	-0.081360	0.014884
	H329	H	-0.005751	-0.075185	0.021922
	O330	O	0.562997	0.567460	0.542188
	H331	H	0.553903	0.573514	0.554775
	H332	H	0.554773	0.566881	0.545054
	O333	O	-0.009915	1.027506	1.155502
	H334	H	-0.021815	1.031466	1.167337
	H335	H	0.010015	1.016230	1.161312
	O336	O	-0.143664	0.014143	-0.066526
	H337	H	-0.129662	0.008788	-0.068098
	H338	H	-0.145922	0.023403	-0.063755
	O339	O	0.459159	0.532779	0.498852
	H340	H	0.453702	0.532520	0.504622
	H341	H	0.463805	0.533847	0.483079
	O342	O	0.878408	1.020476	0.934024
	H343	H	0.871655	1.018163	0.933086
	H344	H	0.869139	1.024106	0.939505
	O345	O	0.957051	1.049631	-0.076441
	H346	H	0.947359	1.056675	-0.092005
	H347	H	0.940219	1.047474	-0.066095
	O348	O	0.540617	0.382221	0.426286
	H349	H	0.530488	0.373749	0.426362
	H350	H	0.545108	0.396237	0.429319
	O351	O	0.052194	1.168026	0.111763
	H352	H	0.057121	1.191454	0.134069
	H353	H	0.038675	1.162494	0.100734
	O354	O	0.510174	0.456878	0.545627
	H355	H	0.512187	0.463347	0.551813
	H356	H	0.510004	0.450948	0.535275
	O357	O	1.067248	0.013702	1.011365
	H358	H	1.081375	0.018773	1.019288
	H359	H	1.063674	0.013612	1.004282
	O360	O	0.489052	0.449334	0.551417
	H361	H	0.470780	0.444268	0.555715
	H362	H	0.485595	0.444519	0.561076
	O363	O	0.554545	0.472751	0.459544
	H364	H	0.546404	0.474596	0.466105
	H365	H	0.552567	0.477652	0.453396
	O366	O	0.969632	0.892813	1.083507
	H367	H	0.969765	0.890024	1.080688
	H368	H	0.973586	0.908680	1.081102
	O369	O	1.155063	-0.035161	0.946606
	H370	H	1.152100	-0.037038	0.950640
	H371	H	1.158492	-0.021506	0.947408
	O372	O	-0.061255	0.046165	-0.019290
	H373	H	-0.049083	0.054445	-0.031978
	H374	H	-0.066777	0.058710	-0.011361
	O375	O	0.994675	0.151558	-0.116584
	H376	H	0.998457	0.160858	-0.103368
	H377	H	0.999017	0.163275	-0.123430
	O378	O	0.455352	0.471715	0.423747
	H379	H	0.457780	0.460220	0.413616
	H380	H	0.450421	0.473634	0.405469
	O381	O	0.558146	0.469321	0.455646
	H382	H	0.566476	0.461919	0.451211
	H383	H	0.566414	0.464202	0.457535
