data_Molecule from HDF5

_cell_length_a		16.483481
_cell_length_b		16.320813
_cell_length_c		16.326548
_cell_angle_alpha	90.354603
_cell_angle_beta	90.260085
_cell_angle_gamma	90.022284
_symmetry_space_group_name_H-M	'P 1'
_symmetry_Int_Tables_number		1

loop_
	_symmetry_equiv_pos_as_xyz
	x,y,z

loop_
	_atom_site_label
	_atom_site_type_symbol
	_atom_site_fract_x
	_atom_site_fract_y
	_atom_site_fract_z
	H0	H	0.396330	0.839051	0.716006
	H1	H	0.607557	0.157947	0.717577
	H2	H	0.600925	0.836672	0.275322
	H3	H	0.396269	0.159233	0.279134
	H4	H	0.719627	0.394758	0.834858
	H5	H	0.722240	0.606113	0.154640
	H6	H	0.272867	0.611590	0.840000
	H7	H	0.279853	0.391865	0.153045
	H8	H	0.841643	0.717628	0.389324
	H9	H	0.156719	0.722619	0.606390
	H10	H	0.840698	0.278021	0.598100
	H11	H	0.158436	0.275643	0.391799
	H12	H	0.840728	0.392856	0.716789
	H13	H	0.155436	0.608415	0.724094
	H14	H	0.841166	0.599394	0.275169
	H15	H	0.157981	0.389390	0.272773
	H16	H	0.394060	0.721186	0.836843
	H17	H	0.609138	0.723478	0.153816
	H18	H	0.605074	0.276418	0.835810
	H19	H	0.400150	0.282672	0.155563
	H20	H	0.720225	0.837821	0.387837
	H21	H	0.725085	0.155254	0.603750
	H22	H	0.277206	0.839686	0.602426
	H23	H	0.276977	0.157159	0.390920
	H24	H	0.902601	0.336228	0.205769
	H25	H	0.107728	0.656477	0.219977
	H26	H	0.102020	0.337723	0.776855
	H27	H	0.894753	0.658735	0.775378
	H28	H	0.219954	0.891221	0.336188
	H29	H	0.223336	0.107975	0.654880
	H30	H	0.778936	0.100733	0.336791
	H31	H	0.778559	0.890854	0.655097
	H32	H	0.342030	0.219994	0.890850
	H33	H	0.659593	0.215700	0.097753
	H34	H	0.342225	0.776300	0.098325
	H35	H	0.658922	0.776309	0.887746
	H36	H	0.339829	0.894609	0.213370
	H37	H	0.657470	0.102350	0.217249
	H38	H	0.343353	0.107917	0.771198
	H39	H	0.659419	0.893745	0.773111
	H40	H	0.895922	0.215328	0.335730
	H41	H	0.104577	0.219674	0.656081
	H42	H	0.104919	0.774262	0.336510
	H43	H	0.897465	0.778353	0.656657
	H44	H	0.224271	0.340138	0.886427
	H45	H	0.226146	0.656947	0.106416
	H46	H	0.783362	0.338750	0.094021
	H47	H	0.777355	0.658576	0.887138
	H48	H	0.410491	0.113377	0.586404
	H49	H	0.590590	0.884693	0.580915
	H50	H	0.590607	0.110724	0.411959
	H51	H	0.403635	0.882912	0.408598
	H52	H	0.591557	0.405021	0.111014
	H53	H	0.587535	0.583363	0.883565
	H54	H	0.422825	0.582652	0.104016
	H55	H	0.412950	0.411874	0.880591
	H56	H	0.111600	0.583837	0.409416
	H57	H	0.887612	0.579770	0.591551
	H58	H	0.112278	0.411213	0.587536
	H59	H	0.883461	0.398364	0.401465
	H60	H	0.112595	0.407165	0.585252
	H61	H	0.884606	0.594928	0.585182
	H62	H	0.112687	0.584494	0.406573
	H63	H	0.889120	0.408922	0.407850
	H64	H	0.414667	0.593588	0.110884
	H65	H	0.587753	0.592079	0.880562
	H66	H	0.598913	0.409028	0.112045
	H67	H	0.413018	0.409830	0.880799
	H68	H	0.592668	0.113058	0.405997
	H69	H	0.588039	0.883517	0.585570
	H70	H	0.414248	0.111190	0.583239
	H71	H	0.407773	0.881588	0.399545
	H72	H	0.908681	0.614256	0.082323
	H73	H	0.096720	0.381299	0.086667
	H74	H	0.085774	0.608723	0.918298
	H75	H	0.911863	0.387232	0.908653
	H76	H	0.085382	0.906810	0.609637
	H77	H	0.085812	0.090135	0.381931
	H78	H	0.919898	0.092907	0.610147
	H79	H	0.917035	0.904919	0.383106
	H80	H	0.615455	0.090368	0.903144
	H81	H	0.383806	0.098946	0.083411
	H82	H	0.612640	0.913870	0.088574
	H83	H	0.389871	0.911149	0.910989
	H84	H	0.613293	0.908794	0.085011
	H85	H	0.387651	0.084692	0.082691
	H86	H	0.612308	0.090510	0.912889
	H87	H	0.389976	0.914826	0.904218
	H88	H	0.902379	0.089950	0.613927
	H89	H	0.093400	0.083194	0.381552
	H90	H	0.093263	0.910600	0.611398
	H91	H	0.903481	0.900070	0.377985
	H92	H	0.093357	0.613081	0.910125
	H93	H	0.086026	0.385956	0.084522
	H94	H	0.909435	0.615994	0.089071
	H95	H	0.906228	0.384331	0.906563
	H96	H	0.408771	0.111519	0.581663
	H97	H	0.585605	0.885696	0.581784
	H98	H	0.586604	0.110801	0.406810
	H99	H	0.413282	0.885363	0.406960
	H100	H	0.592611	0.412603	0.108838
	H101	H	0.595114	0.587274	0.879142
	H102	H	0.409371	0.580139	0.108106
	H103	H	0.411092	0.410580	0.880473
	H104	H	0.113017	0.587151	0.408918
	H105	H	0.891740	0.583699	0.575892
	H106	H	0.110797	0.410796	0.583249
	H107	H	0.885357	0.410363	0.394970
	H108	H	0.915134	0.613454	0.085698
	H109	H	0.093810	0.386166	0.076123
	H110	H	0.082718	0.610441	0.907047
	H111	H	0.910786	0.384392	0.902970
	H112	H	0.086951	0.914759	0.607093
	H113	H	0.084292	0.080252	0.385853
	H114	H	0.912396	0.076430	0.607246
	H115	H	0.905627	0.914997	0.382593
	H116	H	0.610687	0.082004	0.907280
	H117	H	0.382334	0.090467	0.096017
	H118	H	0.610536	0.913665	0.082513
	H119	H	0.387576	0.907502	0.904526
	C120	C	0.378687	0.006974	0.616748
	C121	C	0.621596	0.989472	0.616724
	C122	C	0.620787	0.005859	0.374716
	C123	C	0.376797	0.989333	0.374272
	C124	C	0.623647	0.377204	0.004087
	C125	C	0.623220	0.621263	0.986231
	C126	C	0.380802	0.619715	0.003821
	C127	C	0.380821	0.378681	0.985977
	C128	C	0.008243	0.617538	0.374744
	C129	C	0.991261	0.620230	0.618978
	C130	C	0.007483	0.377350	0.616957
	C131	C	0.991126	0.374028	0.371720
	C132	C	0.880638	0.507587	0.114677
	C133	C	0.124565	0.489456	0.117419
	C134	C	0.120646	0.506363	0.876567
	C135	C	0.877610	0.490858	0.873453
	C136	C	0.120589	0.876642	0.504438
	C137	C	0.120853	0.118921	0.488056
	C138	C	0.879043	0.117842	0.504909
	C139	C	0.878459	0.875698	0.487538
	C140	C	0.508826	0.120876	0.874123
	C141	C	0.490064	0.121331	0.118306
	C142	C	0.507779	0.878667	0.116485
	C143	C	0.493283	0.878134	0.873711
	C144	C	0.377165	0.886990	0.676672
	C145	C	0.625488	0.109627	0.677360
	C146	C	0.620432	0.885254	0.314441
	C147	C	0.376570	0.110609	0.317236
	C148	C	0.681046	0.375697	0.883036
	C149	C	0.683259	0.624538	0.106427
	C150	C	0.315954	0.626329	0.886234
	C151	C	0.320746	0.375471	0.105905
	C152	C	0.889025	0.677278	0.371772
	C153	C	0.109126	0.682365	0.623787
	C154	C	0.887959	0.317546	0.617565
	C155	C	0.110609	0.314950	0.372092
	C156	C	0.888254	0.374479	0.676509
	C157	C	0.108429	0.625523	0.682722
	C158	C	0.888945	0.618404	0.314795
	C159	C	0.110652	0.371955	0.313127
	C160	C	0.376285	0.681213	0.884654
	C161	C	0.626976	0.683289	0.105812
	C162	C	0.623900	0.316978	0.883524
	C163	C	0.380450	0.320859	0.107085
	C164	C	0.679798	0.885601	0.370825
	C165	C	0.684022	0.108424	0.620838
	C166	C	0.317821	0.887258	0.620330
	C167	C	0.317104	0.109433	0.372643
	C168	C	0.882053	0.385003	0.168806
	C169	C	0.126268	0.609036	0.179563
	C170	C	0.121848	0.386112	0.815762
	C171	C	0.876296	0.610962	0.814525
	C172	C	0.180317	0.873159	0.384153
	C173	C	0.182222	0.123804	0.607405
	C174	C	0.819000	0.119168	0.384567
	C175	C	0.819446	0.873646	0.607780
	C176	C	0.389729	0.180748	0.871787
	C177	C	0.610952	0.177969	0.118154
	C178	C	0.388948	0.817442	0.116909
	C179	C	0.611634	0.817039	0.870176
	C180	C	0.387604	0.876129	0.174389
	C181	C	0.609842	0.121495	0.177589
	C182	C	0.390542	0.124592	0.812308
	C183	C	0.611834	0.875339	0.812756
	C184	C	0.877014	0.176278	0.383996
	C185	C	0.123013	0.179821	0.608037
	C186	C	0.123074	0.814873	0.384401
	C187	C	0.878690	0.817654	0.608529
	C188	C	0.182788	0.387455	0.870343
	C189	C	0.185311	0.609109	0.123048
	C190	C	0.822720	0.386540	0.113581
	C191	C	0.817650	0.610740	0.870394
	C192	C	0.403798	0.090341	0.591139
	C193	C	0.595647	0.906314	0.590417
	C194	C	0.596807	0.089820	0.400724
	C195	C	0.401145	0.905113	0.398089
	C196	C	0.600742	0.401665	0.088525
	C197	C	0.597502	0.595044	0.902692
	C198	C	0.407941	0.592978	0.086135
	C199	C	0.405323	0.403524	0.902422
	C200	C	0.091080	0.592431	0.400809
	C201	C	0.909309	0.593776	0.591863
	C202	C	0.090149	0.402557	0.592567
	C203	C	0.907699	0.398596	0.394903
	C204	C	0.904195	0.592445	0.092324
	C205	C	0.099579	0.406158	0.090302
	C206	C	0.094996	0.589157	0.903905
	C207	C	0.902372	0.406911	0.898757
	C208	C	0.095863	0.903080	0.587807
	C209	C	0.095186	0.092083	0.404860
	C210	C	0.904357	0.093504	0.588575
	C211	C	0.902057	0.899568	0.403361
	C212	C	0.591464	0.095024	0.900227
	C213	C	0.406252	0.098078	0.094335
	C214	C	0.590542	0.904487	0.092425
	C215	C	0.410879	0.903835	0.899263
	Zn216	Zn	0.500864	-0.000402	0.744845
	Zn217	Zn	0.498452	-0.001504	0.246878
	Zn218	Zn	0.751146	0.499818	-0.004635
	Zn219	Zn	0.252177	0.498938	-0.004298
	Zn220	Zn	-0.000356	0.747437	0.495588
	Zn221	Zn	-0.000721	0.247145	0.496196
	Zn222	Zn	-0.001018	0.498260	0.747053
	Zn223	Zn	0.000785	0.497109	0.243826
	Zn224	Zn	0.501576	0.748577	-0.004669
	Zn225	Zn	0.500345	0.250044	-0.004555
	Zn226	Zn	0.750632	-0.003373	0.495804
	Zn227	Zn	0.249456	-0.001771	0.495789
	N228	N	0.413887	0.962581	0.674647
	N229	N	0.587537	0.034773	0.674946
	N230	N	0.584468	0.961317	0.316790
	N231	N	0.412834	0.034896	0.317974
	N232	N	0.680970	0.412344	0.958972
	N233	N	0.681156	0.586891	0.030905
	N234	N	0.318639	0.588830	0.961350
	N235	N	0.320761	0.410584	0.029640
	N236	N	0.964258	0.676984	0.408365
	N237	N	0.035222	0.679259	0.584779
	N238	N	0.962958	0.319244	0.581202
	N239	N	0.035331	0.316085	0.407767
	N240	N	0.963458	0.410961	0.676262
	N241	N	0.034062	0.587519	0.679839
	N242	N	0.964287	0.582150	0.316363
	N243	N	0.035286	0.407752	0.312462
	N244	N	0.416159	0.677102	0.958597
	N245	N	0.590480	0.681426	0.030011
	N246	N	0.588824	0.317784	0.959792
	N247	N	0.417117	0.322535	0.031657
	N248	N	0.680166	0.961560	0.407669
	N249	N	0.681764	0.032570	0.583821
	N250	N	0.318425	0.963024	0.584047
	N251	N	0.317134	0.032922	0.407212
	N252	N	0.917240	0.461512	0.169879
	N253	N	0.089127	0.533659	0.176214
	N254	N	0.083936	0.461172	0.819308
	N255	N	0.912978	0.535396	0.816620
	N256	N	0.179070	0.910802	0.459901
	N257	N	0.180905	0.086701	0.531684
	N258	N	0.819983	0.083768	0.460802
	N259	N	0.819074	0.908688	0.531525
	N260	N	0.464315	0.178700	0.909386
	N261	N	0.535425	0.178283	0.082142
	N262	N	0.464469	0.819076	0.081624
	N263	N	0.537095	0.818482	0.907264
	N264	N	0.462232	0.913711	0.173968
	N265	N	0.533500	0.087582	0.178290
	N266	N	0.465694	0.087906	0.813938
	N267	N	0.536994	0.912600	0.814741
	N268	N	0.913789	0.175509	0.459692
	N269	N	0.085176	0.176697	0.532845
	N270	N	0.086997	0.816752	0.460094
	N271	N	0.914290	0.818538	0.532406
	N272	N	0.182459	0.463429	0.907093
	N273	N	0.184201	0.533772	0.085228
	N274	N	0.821862	0.463854	0.080819
	N275	N	0.818281	0.534769	0.906178
	O276	O	0.322460	0.567195	0.582371
	H277	H	0.323977	0.547109	0.610496
	H278	H	0.319790	0.545933	0.562496
	O279	O	0.310677	0.312273	0.634511
	H280	H	0.328322	0.303705	0.622836
	H281	H	0.319934	0.316092	0.633743
	O282	O	0.714520	0.584699	0.416886
	H283	H	0.701839	0.597305	0.437608
	H284	H	0.734763	0.607197	0.419509
	O285	O	1.092562	1.031204	-0.013973
	H286	H	1.105707	1.035354	-0.023791
	H287	H	1.086028	1.027286	-0.018506
	O288	O	0.482129	0.298711	0.414884
	H289	H	0.514857	0.305095	0.410247
	H290	H	0.490656	0.281205	0.389991
	O291	O	0.360852	0.355357	0.471335
	H292	H	0.358838	0.361851	0.473191
	H293	H	0.365294	0.347513	0.474722
	O294	O	0.922744	0.816319	1.175925
	H295	H	0.894979	0.805754	1.176455
	H296	H	0.903212	0.812447	1.182650
	O297	O	0.437046	0.549040	0.604310
	H298	H	0.431953	0.540191	0.609267
	H299	H	0.429758	0.547911	0.583389
	O300	O	0.279094	0.476054	0.714105
	H301	H	0.280332	0.455137	0.720903
	H302	H	0.268626	0.475269	0.738316
	O303	O	0.293720	0.709979	0.474767
	H304	H	0.258775	0.727067	0.477681
	H305	H	0.288447	0.675365	0.494588
	O306	O	0.187240	0.172425	1.035704
	H307	H	0.201753	0.164967	1.013383
	H308	H	0.196096	0.160201	1.049472
	O309	O	1.193860	0.030814	-0.104389
	H310	H	1.198981	0.025520	-0.123441
	H311	H	1.199675	0.003762	-0.109051
	O312	O	0.665187	0.517340	0.444112
	H313	H	0.663220	0.526935	0.436494
	H314	H	0.659158	0.528226	0.455299
	O315	O	0.528302	0.306635	0.583375
	H316	H	0.544207	0.303196	0.561059
	H317	H	0.518836	0.318756	0.567409
	O318	O	0.023226	0.159179	0.064519
	H319	H	0.035501	0.152328	0.072652
	H320	H	0.042157	0.165086	0.069780
	O321	O	0.495885	0.315989	0.641008
	H322	H	0.505296	0.311110	0.634125
	H323	H	0.518748	0.297050	0.640480
	O324	O	0.827027	-0.140818	1.145686
	H325	H	0.826200	-0.113193	1.144735
	H326	H	0.819958	-0.142020	1.115668
	O327	O	0.696568	0.584987	0.689730
	H328	H	0.677207	0.580724	0.707947
	H329	H	0.700007	0.556406	0.694723
	O330	O	-0.167297	0.987695	0.948020
	H331	H	-0.168332	0.995379	0.924921
	H332	H	-0.156085	0.998048	0.957233
	O333	O	-0.181107	1.039816	0.154934
	H334	H	-0.175203	1.048902	0.158782
	H335	H	-0.173320	1.053292	0.149438
	O336	O	1.148110	0.939122	0.006866
	H337	H	1.147586	0.919763	0.002173
	H338	H	1.136999	0.949814	-0.002926
	O339	O	0.130927	1.097261	1.176752
	H340	H	0.146773	1.111472	1.191081
	H341	H	0.147379	1.074455	1.164577
	O342	O	0.561056	0.552367	0.336664
	H343	H	0.558321	0.589622	0.340400
	H344	H	0.548689	0.551566	0.330828
	O345	O	0.166626	-0.026378	1.123393
	H346	H	0.177490	-0.028064	1.120482
	H347	H	0.166095	-0.031429	1.130190
	O348	O	0.499804	0.677752	0.598093
	H349	H	0.478657	0.678404	0.590714
	H350	H	0.497487	0.695626	0.607812
	O351	O	0.323475	0.679428	0.315743
	H352	H	0.311952	0.686761	0.361367
	H353	H	0.325593	0.651329	0.304731
	O354	O	1.064036	0.833629	0.817548
	H355	H	1.041493	0.823209	0.842332
	H356	H	1.066771	0.812488	0.797439
	O357	O	-0.135478	0.188859	-0.176031
	H358	H	-0.117648	0.184804	-0.153413
	H359	H	-0.128616	0.195721	-0.196743
	O360	O	0.594069	0.668362	0.423289
	H361	H	0.601015	0.676094	0.446282
	H362	H	0.605572	0.673070	0.428621
	O363	O	0.995468	0.034188	-0.120746
	H364	H	0.998562	0.037953	-0.133215
	H365	H	1.018444	0.024359	-0.119940
	O366	O	0.164782	-0.125058	0.847937
	H367	H	0.148523	-0.128536	0.835313
	H368	H	0.161188	-0.135965	0.880158
	O369	O	0.991858	-0.121762	0.883443
	H370	H	0.984664	-0.123890	0.901185
	H371	H	0.978854	-0.124691	0.896125
	O372	O	0.555453	0.453351	0.364433
	H373	H	0.558546	0.454929	0.364899
	H374	H	0.552516	0.469432	0.361285
	O375	O	0.096586	0.131211	1.204240
	H376	H	0.102818	0.099115	1.211405
	H377	H	0.109267	0.158137	1.219616
	O378	O	0.467520	0.613844	0.564987
	H379	H	0.470496	0.625762	0.560210
	H380	H	0.453595	0.610800	0.558038
	O381	O	-0.143191	1.134955	-0.075582
	H382	H	-0.150216	1.163942	-0.086515
	H383	H	-0.118215	1.132211	-0.089330
	O384	O	0.495932	0.596903	0.690526
	H385	H	0.486296	0.598899	0.689515
	H386	H	0.493733	0.598600	0.689056
	O387	O	0.605686	0.473989	0.701623
	H388	H	0.596868	0.457481	0.708883
	H389	H	0.593178	0.476311	0.691278
	O390	O	0.792321	0.835381	-0.023708
	H391	H	0.768891	0.839266	-0.028162
	H392	H	0.772786	0.849873	-0.040471
	O393	O	1.036039	-0.043657	1.146563
	H394	H	1.055217	-0.038018	1.154686
	H395	H	1.034663	-0.059617	1.145170
	O396	O	0.295155	0.516114	0.291544
	H397	H	0.278903	0.511509	0.277423
	H398	H	0.302978	0.515003	0.289041
	O399	O	0.705415	0.293139	0.356681
	H400	H	0.718036	0.306532	0.353843
	H401	H	0.727542	0.288583	0.338708
	O402	O	1.025035	0.817198	-0.019556
	H403	H	0.999869	0.812824	0.002911
	H404	H	1.012315	0.834069	-0.011551
	O405	O	0.287882	0.475356	0.468958
	H406	H	0.299585	0.467857	0.471128
	H407	H	0.288651	0.458830	0.466393
	O408	O	0.457026	0.382332	0.381432
	H409	H	0.473204	0.398624	0.399849
	H410	H	0.471941	0.390741	0.383398
	O411	O	1.165206	0.852688	0.904450
	H412	H	1.127337	0.845031	0.921131
	H413	H	1.185897	0.841956	0.913628
	O414	O	0.693318	0.330518	0.524053
	H415	H	0.685334	0.327183	0.508209
	H416	H	0.698917	0.336831	0.513561
	O417	O	-0.014805	0.995576	1.037661
	H418	H	-0.022814	0.999555	1.033143
	H419	H	-0.000534	1.006642	1.045716
	O420	O	0.068270	1.122737	0.978694
	H421	H	0.078869	1.111207	0.959386
	H422	H	0.073086	1.132166	0.993805
	O423	O	-0.102300	1.076433	-0.214809
	H424	H	-0.116746	1.080060	-0.227970
	H425	H	-0.090914	1.096039	-0.221026
	O426	O	0.566896	0.369676	0.308716
	H427	H	0.587272	0.361118	0.291719
	H428	H	0.579829	0.378132	0.308001
	O429	O	0.486494	0.704840	0.325763
	H430	H	0.467540	0.709692	0.335591
	H431	H	0.476462	0.718233	0.325311
	O432	O	0.693493	0.693491	0.612755
	H433	H	0.671602	0.691504	0.637178
	H434	H	0.703819	0.683264	0.624173
	O435	O	-0.172693	0.078856	-0.004618
	H436	H	-0.172577	0.078357	-0.002439
	H437	H	-0.157381	0.090141	-0.003326
	O438	O	-0.221962	1.214630	1.218383
	H439	H	-0.204652	1.229914	1.209865
	H440	H	-0.199858	1.203665	1.197607
	O441	O	0.496911	0.321839	0.493918
	H442	H	0.500924	0.334306	0.480197
	H443	H	0.508335	0.313374	0.481353
