data_Molecule from HDF5

_cell_length_a		16.436192
_cell_length_b		16.439974
_cell_length_c		16.561558
_cell_angle_alpha	90.045069
_cell_angle_beta	90.020888
_cell_angle_gamma	90.107969
_symmetry_space_group_name_H-M	'P 1'
_symmetry_Int_Tables_number		1

loop_
	_symmetry_equiv_pos_as_xyz
	x,y,z

loop_
	_atom_site_label
	_atom_site_type_symbol
	_atom_site_fract_x
	_atom_site_fract_y
	_atom_site_fract_z
	H0	H	0.407577	0.833342	0.721463
	H1	H	0.625216	0.146464	0.721724
	H2	H	0.622499	0.831530	0.275855
	H3	H	0.411216	0.146526	0.275841
	H4	H	0.739156	0.382172	0.839782
	H5	H	0.735967	0.590677	0.155200
	H6	H	0.292982	0.596651	0.841093
	H7	H	0.293044	0.383323	0.151631
	H8	H	0.857521	0.709579	0.391561
	H9	H	0.172920	0.712085	0.603410
	H10	H	0.857124	0.269374	0.600382
	H11	H	0.173619	0.269472	0.392077
	H12	H	0.859391	0.379946	0.719933
	H13	H	0.173065	0.595162	0.718906
	H14	H	0.859669	0.596947	0.273612
	H15	H	0.173667	0.385658	0.275703
	H16	H	0.410596	0.711107	0.840356
	H17	H	0.621142	0.708977	0.154829
	H18	H	0.622216	0.266349	0.838838
	H19	H	0.410678	0.267131	0.152160
	H20	H	0.736547	0.831139	0.393201
	H21	H	0.738362	0.148125	0.602521
	H22	H	0.292356	0.832378	0.604659
	H23	H	0.295920	0.147270	0.392979
	H24	H	0.906433	0.334810	0.223261
	H25	H	0.124512	0.647691	0.219653
	H26	H	0.129025	0.333601	0.769030
	H27	H	0.910193	0.645126	0.773809
	H28	H	0.238533	0.882792	0.340518
	H29	H	0.238365	0.096461	0.653750
	H30	H	0.795548	0.093359	0.339646
	H31	H	0.792160	0.882363	0.652945
	H32	H	0.358130	0.211344	0.889825
	H33	H	0.674206	0.209328	0.100078
	H34	H	0.357895	0.766120	0.103045
	H35	H	0.674143	0.768803	0.892323
	H36	H	0.359322	0.879674	0.220295
	H37	H	0.674202	0.093133	0.216463
	H38	H	0.358062	0.096368	0.773812
	H39	H	0.672828	0.882187	0.773542
	H40	H	0.909258	0.210944	0.340909
	H41	H	0.124534	0.215061	0.652437
	H42	H	0.120609	0.768366	0.338910
	H43	H	0.906746	0.763961	0.651478
	H44	H	0.241567	0.332530	0.887844
	H45	H	0.238809	0.648217	0.102036
	H46	H	0.792595	0.332758	0.106043
	H47	H	0.796326	0.646156	0.891627
	H48	H	0.424904	0.103862	0.587022
	H49	H	0.602691	0.877667	0.587017
	H50	H	0.604495	0.102779	0.406089
	H51	H	0.429372	0.876584	0.407325
	H52	H	0.600703	0.392996	0.108961
	H53	H	0.605767	0.581069	0.884125
	H54	H	0.430819	0.573437	0.106543
	H55	H	0.424800	0.404953	0.883942
	H56	H	0.128181	0.578323	0.410864
	H57	H	0.903939	0.576094	0.583051
	H58	H	0.127374	0.400710	0.580671
	H59	H	0.902075	0.398961	0.409294
	H60	H	0.127859	0.406518	0.583196
	H61	H	0.903065	0.574135	0.586636
	H62	H	0.128127	0.576252	0.408181
	H63	H	0.903839	0.403987	0.409478
	H64	H	0.430194	0.581939	0.109129
	H65	H	0.607965	0.578234	0.883430
	H66	H	0.612115	0.400313	0.110694
	H67	H	0.433354	0.402586	0.886422
	H68	H	0.605309	0.103116	0.407836
	H69	H	0.603070	0.878476	0.583849
	H70	H	0.434637	0.101542	0.587990
	H71	H	0.427865	0.876621	0.410314
	H72	H	0.928026	0.600296	0.079048
	H73	H	0.105518	0.375924	0.091736
	H74	H	0.110676	0.602787	0.909436
	H75	H	0.930085	0.373621	0.903181
	H76	H	0.102808	0.900324	0.608783
	H77	H	0.107175	0.074671	0.385910
	H78	H	0.920798	0.077882	0.611739
	H79	H	0.927003	0.903450	0.385315
	H80	H	0.629494	0.077891	0.905849
	H81	H	0.403428	0.080291	0.080606
	H82	H	0.625636	0.900426	0.078479
	H83	H	0.404998	0.905064	0.909528
	H84	H	0.628154	0.907758	0.091038
	H85	H	0.404546	0.070092	0.085635
	H86	H	0.627271	0.078523	0.911313
	H87	H	0.402153	0.900482	0.904627
	H88	H	0.930472	0.073123	0.606382
	H89	H	0.100135	0.079906	0.386057
	H90	H	0.104390	0.901636	0.608291
	H91	H	0.928033	0.898326	0.384815
	H92	H	0.098762	0.600852	0.901974
	H93	H	0.097577	0.380338	0.084986
	H94	H	0.924366	0.604352	0.087682
	H95	H	0.931914	0.377662	0.910953
	H96	H	0.428925	0.098695	0.579482
	H97	H	0.605815	0.877182	0.585583
	H98	H	0.606024	0.102931	0.406205
	H99	H	0.425955	0.874696	0.408203
	H100	H	0.601117	0.405904	0.104413
	H101	H	0.605197	0.577502	0.885081
	H102	H	0.423707	0.575859	0.109507
	H103	H	0.428100	0.396405	0.882554
	H104	H	0.129627	0.578984	0.408366
	H105	H	0.902033	0.577307	0.586422
	H106	H	0.129302	0.401529	0.586335
	H107	H	0.900939	0.402166	0.404909
	H108	H	0.934090	0.601111	0.087680
	H109	H	0.107562	0.378443	0.080786
	H110	H	0.099277	0.596982	0.915423
	H111	H	0.923649	0.374679	0.909486
	H112	H	0.102041	0.902083	0.607679
	H113	H	0.108196	0.083027	0.382892
	H114	H	0.931002	0.083916	0.610496
	H115	H	0.923345	0.900072	0.383777
	H116	H	0.626744	0.073710	0.908399
	H117	H	0.400186	0.079069	0.091801
	H118	H	0.632577	0.893076	0.089951
	H119	H	0.403281	0.898072	0.911622
	C120	C	0.395231	-0.002163	0.618452
	C121	C	0.637613	0.981398	0.618545
	C122	C	0.637258	-0.001916	0.375425
	C123	C	0.395336	0.980191	0.375907
	C124	C	0.638038	0.366577	0.004705
	C125	C	0.638183	0.610368	0.988469
	C126	C	0.395270	0.610253	0.004998
	C127	C	0.394964	0.368051	0.987165
	C128	C	0.024880	0.610879	0.375875
	C129	C	1.007040	0.610106	0.618406
	C130	C	0.024326	0.368377	0.617268
	C131	C	1.006822	0.368960	0.375159
	C132	C	0.895095	0.498324	0.118587
	C133	C	0.137663	0.482161	0.118372
	C134	C	0.137723	0.497165	0.874834
	C135	C	0.895510	0.479448	0.875304
	C136	C	0.136509	0.868154	0.505047
	C137	C	0.138059	0.112026	0.488507
	C138	C	0.895009	0.110396	0.505801
	C139	C	0.893211	0.867458	0.488053
	C140	C	0.523942	0.110341	0.875259
	C141	C	0.507309	0.109306	0.117491
	C142	C	0.524740	0.866589	0.119005
	C143	C	0.507583	0.868250	0.875730
	C144	C	0.390841	0.879860	0.680070
	C145	C	0.642206	0.099482	0.680684
	C146	C	0.640348	0.879032	0.315619
	C147	C	0.392927	0.099054	0.315936
	C148	C	0.699046	0.364021	0.886745
	C149	C	0.696986	0.610807	0.107489
	C150	C	0.334301	0.613668	0.887403
	C151	C	0.333608	0.365043	0.104956
	C152	C	0.905473	0.670464	0.373223
	C153	C	0.125503	0.671352	0.621087
	C154	C	0.905247	0.308019	0.619628
	C155	C	0.126040	0.309274	0.373405
	C156	C	0.906205	0.363508	0.678905
	C157	C	0.125711	0.613338	0.678844
	C158	C	0.906620	0.614611	0.314353
	C159	C	0.126083	0.367111	0.315627
	C160	C	0.392569	0.670885	0.887363
	C161	C	0.639587	0.669357	0.107439
	C162	C	0.640911	0.306175	0.886232
	C163	C	0.392074	0.307385	0.105155
	C164	C	0.697037	0.878917	0.374280
	C165	C	0.698697	0.100349	0.621483
	C166	C	0.332947	0.879814	0.622261
	C167	C	0.335475	0.099526	0.374116
	C168	C	0.890125	0.381093	0.181301
	C169	C	0.141754	0.600443	0.179302
	C170	C	0.144685	0.380351	0.811252
	C171	C	0.892576	0.597859	0.814565
	C172	C	0.197857	0.865093	0.387306
	C173	C	0.198696	0.114920	0.606385
	C174	C	0.834862	0.112246	0.387298
	C175	C	0.832251	0.864036	0.605788
	C176	C	0.405425	0.171256	0.872094
	C177	C	0.626585	0.169501	0.118871
	C178	C	0.405751	0.806157	0.121076
	C179	C	0.626438	0.808066	0.873579
	C180	C	0.406473	0.862549	0.179879
	C181	C	0.626541	0.111734	0.176825
	C182	C	0.405525	0.113876	0.814286
	C183	C	0.625659	0.864482	0.814423
	C184	C	0.891859	0.170613	0.387730
	C185	C	0.141520	0.173672	0.605965
	C186	C	0.139414	0.807730	0.386754
	C187	C	0.889470	0.805390	0.605061
	C188	C	0.201088	0.379718	0.870252
	C189	C	0.198964	0.600566	0.120769
	C190	C	0.833283	0.380243	0.122926
	C191	C	0.835450	0.598366	0.873004
	C192	C	0.421858	0.080036	0.592364
	C193	C	0.611479	0.899307	0.592804
	C194	C	0.612292	0.081267	0.399669
	C195	C	0.420514	0.897507	0.401373
	C196	C	0.612184	0.392223	0.086488
	C197	C	0.613561	0.585959	0.905704
	C198	C	0.420869	0.584537	0.087061
	C199	C	0.421070	0.393895	0.905708
	C200	C	0.107081	0.585177	0.401786
	C201	C	0.924521	0.583498	0.592638
	C202	C	0.106605	0.395157	0.591047
	C203	C	0.924077	0.394293	0.400433
	C204	C	0.921424	0.580404	0.092234
	C205	C	0.111289	0.399775	0.092876
	C206	C	0.110705	0.578831	0.901583
	C207	C	0.921204	0.396815	0.900640
	C208	C	0.110706	0.893805	0.586833
	C209	C	0.112453	0.086449	0.406371
	C210	C	0.920348	0.085405	0.588132
	C211	C	0.918913	0.893259	0.406022
	C212	C	0.606496	0.084285	0.901150
	C213	C	0.424139	0.083954	0.092914
	C214	C	0.607253	0.892850	0.093620
	C215	C	0.424945	0.893840	0.901218
	Zn216	Zn	0.516100	-0.010276	0.747236
	Zn217	Zn	0.515905	-0.011548	0.246709
	Zn218	Zn	0.766976	0.488569	-0.003152
	Zn219	Zn	0.265700	0.489961	-0.003844
	Zn220	Zn	0.015202	0.738823	0.496549
	Zn221	Zn	0.015338	0.240054	0.496582
	Zn222	Zn	0.016356	0.487531	0.746262
	Zn223	Zn	0.016155	0.490782	0.247137
	Zn224	Zn	0.516230	0.739316	-0.002815
	Zn225	Zn	0.516066	0.238235	-0.003766
	Zn226	Zn	0.765608	-0.009981	0.496955
	Zn227	Zn	0.266376	-0.010293	0.497411
	N228	N	0.428745	0.954421	0.677806
	N229	N	0.605247	0.024407	0.679483
	N230	N	0.604007	0.954205	0.316213
	N231	N	0.429189	0.023776	0.316826
	N232	N	0.697716	0.400460	0.961436
	N233	N	0.696368	0.575074	0.032538
	N234	N	0.336013	0.576687	0.961621
	N235	N	0.334979	0.401779	0.030607
	N236	N	0.980028	0.668485	0.410753
	N237	N	0.050546	0.669613	0.584390
	N238	N	0.979756	0.310917	0.582101
	N239	N	0.050867	0.310118	0.409436
	N240	N	0.981565	0.399918	0.677797
	N241	N	0.050895	0.576078	0.677300
	N242	N	0.981844	0.578519	0.315708
	N243	N	0.050753	0.403291	0.316466
	N244	N	0.429671	0.669051	0.961590
	N245	N	0.603895	0.669528	0.032266
	N246	N	0.603754	0.307572	0.960494
	N247	N	0.429276	0.308855	0.030994
	N248	N	0.695432	0.953906	0.410772
	N249	N	0.696125	0.025989	0.583684
	N250	N	0.335594	0.954070	0.584532
	N251	N	0.336596	0.024475	0.410576
	N252	N	0.927936	0.455602	0.178879
	N253	N	0.104188	0.525648	0.177813
	N254	N	0.105958	0.454240	0.813957
	N255	N	0.929095	0.522659	0.815765
	N256	N	0.196640	0.901504	0.462086
	N257	N	0.196721	0.077227	0.532313
	N258	N	0.836565	0.075578	0.461813
	N259	N	0.834328	0.901733	0.531923
	N260	N	0.480210	0.169101	0.909331
	N261	N	0.551287	0.168096	0.082823
	N262	N	0.480479	0.808538	0.084019
	N263	N	0.551786	0.810173	0.910820
	N264	N	0.481569	0.899358	0.178871
	N265	N	0.551325	0.075145	0.176205
	N266	N	0.480407	0.076814	0.816101
	N267	N	0.550717	0.901147	0.815666
	N268	N	0.928532	0.169586	0.462290
	N269	N	0.104655	0.172158	0.531474
	N270	N	0.102028	0.809296	0.460952
	N271	N	0.926640	0.807559	0.530844
	N272	N	0.196754	0.453436	0.909281
	N273	N	0.196796	0.525829	0.083822
	N274	N	0.836443	0.454061	0.084313
	N275	N	0.837097	0.523548	0.909995
	O276	O	0.714802	0.419446	0.426007
	H277	H	0.692894	0.413831	0.443034
	H278	H	0.723693	0.394962	0.416549
	O279	O	1.142588	1.144778	1.072605
	H280	H	1.167748	1.161632	1.076279
	H281	H	1.123390	1.157674	1.049296
	O282	O	0.819054	0.798864	0.193353
	H283	H	0.864209	0.795559	0.195580
	H284	H	0.819517	0.844067	0.198187
	O285	O	-0.089083	-0.048145	0.911912
	H286	H	-0.073140	-0.042614	0.924660
	H287	H	-0.100862	-0.063288	0.921679
	O288	O	-0.013081	-0.218542	0.203355
	H289	H	-0.000101	-0.210534	0.213441
	H290	H	0.009135	-0.232243	0.198750
	O291	O	1.221328	0.873575	-0.210137
	H292	H	1.221557	0.876684	-0.191105
	H293	H	1.248799	0.855589	-0.236164
	O294	O	0.218586	1.018481	-0.126691
	H295	H	0.236090	1.014078	-0.151030
	H296	H	0.187549	1.024242	-0.134777
	O297	O	0.513158	0.376601	0.587882
	H298	H	0.515388	0.349087	0.606239
	H299	H	0.505493	0.387410	0.585071
	O300	O	0.730236	0.698287	0.523380
	H301	H	0.736663	0.703962	0.513116
	H302	H	0.740974	0.704018	0.537072
	O303	O	0.802641	0.199759	-0.027771
	H304	H	0.786006	0.204799	-0.019282
	H305	H	0.816255	0.219672	-0.010821
	O306	O	0.113101	0.838334	1.147921
	H307	H	0.133495	0.866004	1.146466
	H308	H	0.102587	0.837856	1.126697
	O309	O	0.396313	0.504031	0.691545
	H310	H	0.398190	0.515848	0.683965
	H311	H	0.392805	0.506346	0.693008
	O312	O	0.382812	0.541575	0.540564
	H313	H	0.376553	0.544136	0.536728
	H314	H	0.382993	0.569617	0.531941
	O315	O	0.297871	-0.291100	1.469924
	H316	H	0.321248	-0.295665	1.444082
	H317	H	0.263127	-0.252919	1.465268
	O318	O	-0.475360	0.312516	-0.324924
	H319	H	-0.475202	0.304424	-0.310727
	H320	H	-0.464019	0.337628	-0.316740
	O321	O	0.554843	0.459073	0.707452
	H322	H	0.551805	0.473321	0.705828
	H323	H	0.573164	0.473742	0.705637
	O324	O	0.464861	0.379886	0.344748
	H325	H	0.477861	0.387179	0.358202
	H326	H	0.474858	0.364391	0.345712
	O327	O	1.077150	-0.039942	0.984930
	H328	H	1.079285	-0.052431	0.982360
	H329	H	1.082521	-0.040702	0.985504
	O330	O	0.123297	0.211077	-0.029219
	H331	H	0.125220	0.209937	-0.046765
	H332	H	0.116173	0.209905	-0.043625
	O333	O	0.838940	1.172751	0.812661
	H334	H	0.828145	1.179459	0.864600
	H335	H	0.824923	1.120815	0.799707
	O336	O	1.207071	-0.208490	0.893290
	H337	H	1.198774	-0.211834	0.927489
	H338	H	1.220170	-0.217290	0.884153
	O339	O	0.314774	0.372592	0.699293
	H340	H	0.315102	0.369123	0.712308
	H341	H	0.308513	0.390996	0.704654
	O342	O	0.558933	0.635621	0.363791
	H343	H	0.587263	0.620282	0.359990
	H344	H	0.564861	0.645280	0.359398
	O345	O	0.182971	-0.128673	-0.008736
	H346	H	0.202319	-0.138472	-0.006218
	H347	H	0.190602	-0.101161	0.005203
	O348	O	0.555737	0.498940	0.342077
	H349	H	0.565464	0.490721	0.342088
	H350	H	0.552918	0.512676	0.362182
	O351	O	0.846837	1.049999	-0.087284
	H352	H	0.851148	1.027225	-0.094625
	H353	H	0.839194	1.039057	-0.082549
	O354	O	0.711065	0.565539	0.334247
	H355	H	0.720923	0.550934	0.334563
	H356	H	0.712810	0.570773	0.344963
	O357	O	0.992525	1.181481	1.186534
	H358	H	0.994155	1.208672	1.204024
	H359	H	0.981382	1.178472	1.172858
	O360	O	0.110883	1.068000	0.821576
	H361	H	0.094410	1.078029	0.824549
	H362	H	0.092210	1.055718	0.819532
	O363	O	0.584148	0.331105	0.515995
	H364	H	0.570332	0.333059	0.501758
	H365	H	0.567229	0.329054	0.545714
	O366	O	0.995652	0.210423	0.776266
	H367	H	0.969923	0.229528	0.757573
	H368	H	0.963187	0.215512	0.774741
	O369	O	0.325796	0.627102	0.648320
	H370	H	0.340855	0.634413	0.629606
	H371	H	0.330200	0.599621	0.636543
	O372	O	0.319963	0.297475	0.575650
	H373	H	0.305583	0.301498	0.583233
	H374	H	0.337705	0.288420	0.602985
	O375	O	-0.112942	1.027484	0.802017
	H376	H	-0.110389	1.008760	0.791860
	H377	H	-0.124961	1.027412	0.796860
	O378	O	1.003562	0.871098	0.091447
	H379	H	1.004138	0.861290	0.098682
	H380	H	1.012099	0.881814	0.102247
	O381	O	1.438410	-0.406016	0.447641
	H382	H	1.411865	-0.399464	0.435831
	H383	H	1.431727	-0.386805	0.436951
	O384	O	-0.048286	0.214364	1.051060
	H385	H	-0.052899	0.214706	1.064710
	H386	H	-0.021985	0.210284	1.038130
	O387	O	-0.295272	1.340808	1.342134
	H388	H	-0.307379	1.350465	1.369580
	H389	H	-0.303387	1.334498	1.342852
	O390	O	0.221763	0.193305	1.199818
	H391	H	0.198011	0.195140	1.184864
	H392	H	0.235411	0.207572	1.190946
	O393	O	-0.026452	0.942901	-0.194313
	H394	H	-0.021249	0.933161	-0.184828
	H395	H	-0.021293	0.920953	-0.190509
	O396	O	0.723522	0.509965	0.710392
	H397	H	0.735962	0.528586	0.703049
	H398	H	0.738889	0.518672	0.718251
	O399	O	0.416800	0.684497	0.293470
	H400	H	0.433539	0.654822	0.297224
	H401	H	0.414856	0.704394	0.290402
	O402	O	0.230510	0.013504	1.212128
	H403	H	0.218718	0.048207	1.206893
	H404	H	0.253284	0.031035	1.236260
	O405	O	0.631154	0.595619	-0.533183
	H406	H	0.646365	0.595320	-0.522392
	H407	H	0.627144	0.593235	-0.530161
	O408	O	0.811534	0.966905	1.197230
	H409	H	0.800892	0.977905	1.195323
	H410	H	0.828533	0.975639	1.195726
	O411	O	0.541624	0.704786	0.710518
	H412	H	0.552248	0.736265	0.741007
	H413	H	0.543228	0.697068	0.690608
	O414	O	0.354306	0.323923	0.305675
	H415	H	0.370589	0.344717	0.320924
	H416	H	0.350315	0.327761	0.302870
	O417	O	0.723210	0.414149	0.576940
	H418	H	0.709815	0.413330	0.590099
	H419	H	0.728311	0.409253	0.573679
	O420	O	0.454159	0.344580	0.460089
	H421	H	0.445833	0.340898	0.479319
	H422	H	0.448365	0.350899	0.469788
	O423	O	0.042429	0.776616	-0.221033
	H424	H	0.056248	0.767141	-0.233831
	H425	H	0.071965	0.766867	-0.226185
	O426	O	0.848271	0.822805	0.810467
	H427	H	0.875927	0.833868	0.820799
	H428	H	0.851213	0.839376	0.835614
	O429	O	0.559851	0.285280	0.423480
	H430	H	0.519674	0.284506	0.434678
	H431	H	0.556931	0.281810	0.409224
	O432	O	0.070632	0.066708	1.135272
	H433	H	0.086332	0.063226	1.126369
	H434	H	0.073689	0.077219	1.141734
	O435	O	-0.173421	0.024637	0.063255
	H436	H	-0.181031	0.034392	0.049959
	H437	H	-0.162894	0.042545	0.059982
	O438	O	0.801930	-0.225228	0.019732
	H439	H	0.805499	-0.227804	0.055189
	H440	H	0.780644	-0.238485	0.028411
	O441	O	0.397906	0.518876	0.310412
	H442	H	0.426222	0.530207	0.307126
	H443	H	0.390009	0.492413	0.301439
	O444	O	-0.003291	0.793117	0.981439
	H445	H	-0.001195	0.790506	0.975487
	H446	H	-0.011503	0.789794	0.969038
	O447	O	0.456464	0.329635	0.348708
	H448	H	0.466010	0.310307	0.337203
	H449	H	0.470497	0.318624	0.357466
	O450	O	0.463231	0.703638	0.541573
	H451	H	0.470416	0.713873	0.544671
	H452	H	0.463891	0.704883	0.512387
	O453	O	0.234879	0.985070	0.006462
	H454	H	0.237662	0.993321	0.013671
	H455	H	0.236759	0.996909	-0.002974
	O456	O	0.042132	1.014828	0.019818
	H457	H	0.034006	1.015546	0.027247
	H458	H	0.059083	1.022686	0.009770
	O459	O	0.387505	0.510044	0.301337
	H460	H	0.366680	0.516297	0.278978
	H461	H	0.413534	0.508478	0.298844
	O462	O	0.708700	0.680260	0.688519
	H463	H	0.695224	0.690935	0.671374
	H464	H	0.726262	0.685278	0.705526
	O465	O	0.815036	0.215230	0.242318
	H466	H	0.818258	0.205264	0.253130
	H467	H	0.799988	0.235298	0.256843
