data_Molecule from HDF5

_cell_length_a		16.278281
_cell_length_b		16.222236
_cell_length_c		16.067420
_cell_angle_alpha	90.423746
_cell_angle_beta	89.449370
_cell_angle_gamma	90.406686
_symmetry_space_group_name_H-M	'P 1'
_symmetry_Int_Tables_number		1

loop_
	_symmetry_equiv_pos_as_xyz
	x,y,z

loop_
	_atom_site_label
	_atom_site_type_symbol
	_atom_site_fract_x
	_atom_site_fract_y
	_atom_site_fract_z
	H0	H	0.405533	0.840158	0.711264
	H1	H	0.599477	0.171250	0.711874
	H2	H	0.600975	0.841407	0.281335
	H3	H	0.408216	0.171062	0.290104
	H4	H	0.718325	0.405148	0.833041
	H5	H	0.715756	0.609032	0.163479
	H6	H	0.291110	0.604074	0.831553
	H7	H	0.285523	0.408018	0.161980
	H8	H	0.840639	0.716653	0.398031
	H9	H	0.166924	0.720929	0.596038
	H10	H	0.839410	0.286827	0.597709
	H11	H	0.168011	0.289620	0.394909
	H12	H	0.837772	0.407129	0.710990
	H13	H	0.168105	0.603261	0.709690
	H14	H	0.838368	0.597870	0.287955
	H15	H	0.167104	0.406459	0.280567
	H16	H	0.408350	0.717845	0.831467
	H17	H	0.601981	0.722389	0.162476
	H18	H	0.601749	0.291566	0.832639
	H19	H	0.401204	0.294816	0.163945
	H20	H	0.717477	0.840544	0.395683
	H21	H	0.721054	0.168331	0.600848
	H22	H	0.283860	0.841895	0.603494
	H23	H	0.290124	0.168943	0.403305
	H24	H	0.904950	0.338354	0.206994
	H25	H	0.099724	0.668934	0.211621
	H26	H	0.098931	0.339804	0.782848
	H27	H	0.907301	0.670461	0.786363
	H28	H	0.221798	0.903054	0.334280
	H29	H	0.213121	0.103623	0.665020
	H30	H	0.792410	0.099845	0.332624
	H31	H	0.785881	0.903596	0.663193
	H32	H	0.338691	0.217117	0.901646
	H33	H	0.665947	0.224506	0.097708
	H34	H	0.340738	0.789280	0.100650
	H35	H	0.666770	0.790445	0.893868
	H36	H	0.339185	0.909487	0.213126
	H37	H	0.667512	0.107144	0.211434
	H38	H	0.337601	0.100806	0.789357
	H39	H	0.666743	0.908856	0.781590
	H40	H	0.908674	0.212407	0.330728
	H41	H	0.101274	0.221237	0.662274
	H42	H	0.103210	0.791287	0.330942
	H43	H	0.902418	0.789365	0.663289
	H44	H	0.218198	0.341409	0.893139
	H45	H	0.217270	0.669124	0.097138
	H46	H	0.782008	0.342370	0.099899
	H47	H	0.789653	0.669911	0.900317
	H48	H	0.414002	0.122373	0.595971
	H49	H	0.595596	0.887522	0.590355
	H50	H	0.611190	0.125864	0.406887
	H51	H	0.412034	0.892629	0.419878
	H52	H	0.601851	0.416182	0.119423
	H53	H	0.594523	0.602241	0.878782
	H54	H	0.395575	0.592110	0.118030
	H55	H	0.419874	0.412757	0.881941
	H56	H	0.118656	0.592555	0.405741
	H57	H	0.889138	0.595901	0.585167
	H58	H	0.120840	0.407320	0.588486
	H59	H	0.888654	0.404052	0.413691
	H60	H	0.117774	0.413303	0.584802
	H61	H	0.886413	0.591287	0.597540
	H62	H	0.122669	0.598124	0.397452
	H63	H	0.887343	0.414670	0.400432
	H64	H	0.419555	0.590859	0.110856
	H65	H	0.602328	0.597720	0.877807
	H66	H	0.588519	0.424664	0.112465
	H67	H	0.407931	0.400967	0.875030
	H68	H	0.593774	0.123793	0.397719
	H69	H	0.593440	0.888367	0.589885
	H70	H	0.405496	0.122337	0.589107
	H71	H	0.399387	0.883120	0.402915
	H72	H	0.912972	0.619429	0.089515
	H73	H	0.091584	0.388333	0.086550
	H74	H	0.109633	0.624919	0.908186
	H75	H	0.913814	0.388638	0.902604
	H76	H	0.090742	0.903014	0.618829
	H77	H	0.098278	0.102458	0.377975
	H78	H	0.918888	0.091638	0.612633
	H79	H	0.922996	0.907679	0.382511
	H80	H	0.618868	0.103148	0.913033
	H81	H	0.386026	0.101215	0.091926
	H82	H	0.617669	0.914266	0.080800
	H83	H	0.383105	0.913100	0.892942
	H84	H	0.620900	0.921239	0.093913
	H85	H	0.385991	0.097367	0.096687
	H86	H	0.618514	0.092369	0.903835
	H87	H	0.384876	0.896737	0.912915
	H88	H	0.912416	0.104525	0.619291
	H89	H	0.107723	0.092912	0.377692
	H90	H	0.102125	0.914520	0.618820
	H91	H	0.903568	0.897377	0.374469
	H92	H	0.095634	0.624768	0.892663
	H93	H	0.099125	0.387084	0.084221
	H94	H	0.902438	0.624075	0.091210
	H95	H	0.906039	0.389125	0.911770
	H96	H	0.403178	0.124788	0.599330
	H97	H	0.595042	0.889273	0.588814
	H98	H	0.595284	0.118218	0.417254
	H99	H	0.421277	0.888459	0.399355
	H100	H	0.586644	0.407170	0.117249
	H101	H	0.595607	0.592278	0.881605
	H102	H	0.410737	0.611744	0.119728
	H103	H	0.403166	0.417603	0.877502
	H104	H	0.121806	0.602714	0.406531
	H105	H	0.883068	0.604549	0.594460
	H106	H	0.120253	0.413463	0.591668
	H107	H	0.881626	0.397998	0.398395
	H108	H	0.909939	0.623802	0.099975
	H109	H	0.096281	0.385874	0.092147
	H110	H	0.090027	0.618198	0.912111
	H111	H	0.903114	0.385274	0.900711
	H112	H	0.087266	0.917558	0.612182
	H113	H	0.094489	0.090079	0.382163
	H114	H	0.903048	0.091332	0.616892
	H115	H	0.903403	0.920692	0.380008
	H116	H	0.622369	0.104762	0.900539
	H117	H	0.383647	0.103143	0.098509
	H118	H	0.623641	0.907295	0.092851
	H119	H	0.391736	0.921094	0.916039
	C120	C	0.379360	0.014105	0.623132
	C121	C	0.624176	0.997085	0.619859
	C122	C	0.626587	0.013911	0.376598
	C123	C	0.382912	0.996807	0.379619
	C124	C	0.622576	0.385652	0.006934
	C125	C	0.625076	0.627540	0.989054
	C126	C	0.381773	0.626551	0.006141
	C127	C	0.380680	0.383789	0.988205
	C128	C	0.012242	0.624591	0.376220
	C129	C	0.994731	0.626619	0.619964
	C130	C	0.011151	0.382443	0.618075
	C131	C	0.994540	0.379419	0.374364
	C132	C	0.879342	0.513421	0.120834
	C133	C	0.124160	0.495734	0.117616
	C134	C	0.125883	0.513832	0.874560
	C135	C	0.881046	0.496842	0.877220
	C136	C	0.123930	0.882753	0.506951
	C137	C	0.125853	0.125050	0.489199
	C138	C	0.883871	0.123167	0.506591
	C139	C	0.880712	0.880505	0.488802
	C140	C	0.511264	0.126933	0.877853
	C141	C	0.493872	0.129673	0.122584
	C142	C	0.512358	0.885251	0.119538
	C143	C	0.494803	0.883070	0.876561
	C144	C	0.383268	0.889761	0.675976
	C145	C	0.620872	0.121513	0.675053
	C146	C	0.622371	0.890378	0.319418
	C147	C	0.386777	0.121291	0.326543
	C148	C	0.679328	0.386411	0.882460
	C149	C	0.678941	0.627536	0.113824
	C150	C	0.328744	0.623892	0.880937
	C151	C	0.323804	0.387430	0.112810
	C152	C	0.889149	0.678622	0.378945
	C153	C	0.118157	0.682308	0.616535
	C154	C	0.887965	0.326122	0.616868
	C155	C	0.118738	0.326934	0.375575
	C156	C	0.887254	0.385647	0.673460
	C157	C	0.118568	0.624083	0.673418
	C158	C	0.887912	0.619610	0.324012
	C159	C	0.118324	0.385107	0.318811
	C160	C	0.386632	0.680805	0.881151
	C161	C	0.622370	0.684120	0.113429
	C162	C	0.621722	0.329429	0.882258
	C163	C	0.381488	0.331127	0.113729
	C164	C	0.680204	0.889900	0.376400
	C165	C	0.681524	0.120002	0.619730
	C166	C	0.323101	0.890634	0.621929
	C167	C	0.328264	0.120338	0.383129
	C168	C	0.882667	0.388729	0.172466
	C169	C	0.120703	0.619595	0.173691
	C170	C	0.121025	0.389389	0.819523
	C171	C	0.886142	0.621053	0.823516
	C172	C	0.182431	0.883611	0.383071
	C173	C	0.177390	0.124069	0.614917
	C174	C	0.829898	0.120271	0.381810
	C175	C	0.824452	0.883425	0.613617
	C176	C	0.387738	0.180386	0.880955
	C177	C	0.617161	0.186028	0.118380
	C178	C	0.389594	0.828026	0.120010
	C179	C	0.617981	0.828686	0.875737
	C180	C	0.388532	0.888096	0.175617
	C181	C	0.618023	0.127416	0.174868
	C182	C	0.387171	0.122073	0.825266
	C183	C	0.617949	0.887303	0.819579
	C184	C	0.887491	0.176211	0.380892
	C185	C	0.121510	0.182086	0.613508
	C186	C	0.122905	0.828513	0.381416
	C187	C	0.882490	0.826639	0.613777
	C188	C	0.180406	0.390348	0.874611
	C189	C	0.179446	0.619663	0.117146
	C190	C	0.821981	0.390650	0.118627
	C191	C	0.827617	0.620882	0.880220
	C192	C	0.401155	0.100756	0.601111
	C193	C	0.601349	0.910659	0.596569
	C194	C	0.606142	0.100169	0.400285
	C195	C	0.404439	0.910419	0.400970
	C196	C	0.599111	0.408976	0.093900
	C197	C	0.603759	0.604221	0.901956
	C198	C	0.402294	0.604669	0.093448
	C199	C	0.403449	0.404318	0.900609
	C200	C	0.098610	0.604010	0.397078
	C201	C	0.908589	0.604026	0.598669
	C202	C	0.097321	0.404722	0.594971
	C203	C	0.908190	0.399424	0.397313
	C204	C	0.901734	0.600138	0.099820
	C205	C	0.102074	0.409292	0.094385
	C206	C	0.104730	0.600114	0.897543
	C207	C	0.901642	0.410065	0.898492
	C208	C	0.100327	0.905153	0.594152
	C209	C	0.106062	0.101951	0.401928
	C210	C	0.904987	0.102102	0.593659
	C211	C	0.903394	0.902073	0.401562
	C212	C	0.597481	0.106413	0.899463
	C213	C	0.407603	0.107122	0.101960
	C214	C	0.598434	0.907719	0.096126
	C215	C	0.408773	0.903987	0.900490
	Zn216	Zn	0.501768	0.005949	0.749338
	Zn217	Zn	0.503891	0.006248	0.249668
	Zn218	Zn	0.751486	0.506323	-0.001378
	Zn219	Zn	0.253608	0.505137	-0.003939
	Zn220	Zn	0.003479	0.753909	0.497020
	Zn221	Zn	0.004048	0.251763	0.496074
	Zn222	Zn	0.003100	0.504632	0.747781
	Zn223	Zn	0.002125	0.503238	0.247676
	Zn224	Zn	0.504365	0.754664	-0.002019
	Zn225	Zn	0.501988	0.256466	-0.001329
	Zn226	Zn	0.754781	0.004240	0.498479
	Zn227	Zn	0.252590	0.004009	0.500476
	N228	N	0.417374	0.967470	0.676955
	N229	N	0.586205	0.043820	0.675437
	N230	N	0.589969	0.968371	0.319340
	N231	N	0.420152	0.043523	0.324288
	N232	N	0.680156	0.420371	0.961211
	N233	N	0.680746	0.592989	0.035362
	N234	N	0.325631	0.591032	0.959637
	N235	N	0.323196	0.419436	0.033632
	N236	N	0.967388	0.681745	0.410923
	N237	N	0.040100	0.684134	0.584098
	N238	N	0.965998	0.324129	0.582816
	N239	N	0.040802	0.323215	0.409472
	N240	N	0.964690	0.419919	0.674185
	N241	N	0.040904	0.589976	0.675418
	N242	N	0.965442	0.586578	0.321968
	N243	N	0.040289	0.416915	0.317915
	N244	N	0.418826	0.682685	0.960066
	N245	N	0.589759	0.684388	0.034730
	N246	N	0.587046	0.328945	0.960865
	N247	N	0.416270	0.328710	0.035405
	N248	N	0.683090	0.967645	0.411391
	N249	N	0.683624	0.041649	0.586366
	N250	N	0.320559	0.969044	0.589690
	N251	N	0.325664	0.041942	0.415410
	N252	N	0.917725	0.466109	0.174084
	N253	N	0.087008	0.541456	0.174268
	N254	N	0.087711	0.466949	0.819486
	N255	N	0.918648	0.542910	0.821551
	N256	N	0.183044	0.916830	0.462073
	N257	N	0.180046	0.089073	0.536678
	N258	N	0.827528	0.088094	0.460798
	N259	N	0.823322	0.916324	0.534904
	N260	N	0.465756	0.183469	0.913162
	N261	N	0.538916	0.187841	0.086737
	N262	N	0.467591	0.826083	0.085990
	N263	N	0.540514	0.826175	0.910772
	N264	N	0.466028	0.922617	0.175683
	N265	N	0.540290	0.093220	0.177796
	N266	N	0.465069	0.089537	0.823065
	N267	N	0.540297	0.920455	0.819925
	N268	N	0.920589	0.178145	0.459376
	N269	N	0.090378	0.182865	0.534319
	N270	N	0.087552	0.827818	0.459568
	N271	N	0.916703	0.824800	0.535161
	N272	N	0.183485	0.468782	0.908354
	N273	N	0.181673	0.541643	0.082975
	N274	N	0.819881	0.469358	0.087234
	N275	N	0.824320	0.542619	0.912786
	O276	O	-0.031778	0.001462	0.020191
	H277	H	-0.026236	0.002661	0.011044
	H278	H	-0.030324	-0.007318	0.027960
	O279	O	0.503422	0.538717	0.568535
	H280	H	0.506727	0.541232	0.555346
	H281	H	0.498897	0.532467	0.562762
	O282	O	0.488649	0.504595	0.439541
	H283	H	0.484959	0.510279	0.441697
	H284	H	0.492757	0.504524	0.430490
	O285	O	0.961199	-0.006758	1.087042
	H286	H	0.963201	0.003574	1.085254
	H287	H	0.961123	-0.009857	1.094660
	O288	O	1.016370	-0.034913	-0.089631
	H289	H	1.016195	-0.043006	-0.101085
	H290	H	1.021530	-0.025876	-0.089700
	O291	O	0.475777	0.504959	0.520436
	H292	H	0.478961	0.508774	0.520926
	H293	H	0.478445	0.500435	0.518901
	O294	O	0.989426	0.004548	0.927245
	H295	H	0.990247	-0.004164	0.930238
	H296	H	0.984278	0.013075	0.931839
	O297	O	0.035499	0.010436	0.011966
	H298	H	0.038390	0.014800	0.010358
	H299	H	0.023462	0.000798	0.011974
	O300	O	0.443918	0.508438	0.402200
	H301	H	0.438414	0.499042	0.407912
	H302	H	0.451012	0.512532	0.408215
	O303	O	0.574258	0.518689	0.379870
	H304	H	0.582959	0.517024	0.371885
	H305	H	0.575357	0.505605	0.373794
	O306	O	0.993605	-0.007623	-0.077664
	H307	H	0.981768	-0.005179	-0.076501
	H308	H	0.994439	-0.002031	-0.075409
	O309	O	0.096839	-0.011297	1.003627
	H310	H	0.091515	-0.018310	0.999492
	H311	H	0.104053	-0.005583	1.000073
	O312	O	1.074328	1.066647	1.025780
	H313	H	1.079844	1.061702	1.027834
	H314	H	1.087441	1.061981	1.019233
	O315	O	0.558694	0.515025	0.494894
	H316	H	0.558212	0.512458	0.498311
	H317	H	0.555678	0.518529	0.493964
	O318	O	0.501191	0.504826	0.496149
	H319	H	0.512439	0.512102	0.479909
	H320	H	0.500713	0.509453	0.497614
	O321	O	0.022651	1.027862	1.017307
	H322	H	0.022861	1.031240	1.022383
	H323	H	0.028134	1.024376	1.020268
	O324	O	0.419552	0.483790	0.504603
	H325	H	0.415343	0.486357	0.511468
	H326	H	0.429731	0.487437	0.500619
	O327	O	0.553777	0.490017	0.534012
	H328	H	0.564323	0.491316	0.538502
	H329	H	0.542803	0.477995	0.533696
	O330	O	0.430921	0.531923	0.504046
	H331	H	0.429398	0.534484	0.512045
	H332	H	0.435337	0.526978	0.509062
	O333	O	0.537716	0.589044	0.451511
	H334	H	0.532763	0.587468	0.460293
	H335	H	0.531434	0.601063	0.450928
	O336	O	0.574212	0.405514	0.481385
	H337	H	0.572109	0.400813	0.492431
	H338	H	0.577652	0.403562	0.479076
	O339	O	0.967079	1.007740	0.013992
	H340	H	0.963844	1.011647	0.012379
	H341	H	0.962685	1.011964	0.012389
	O342	O	0.484457	0.515602	0.483480
	H343	H	0.480945	0.519289	0.481751
	H344	H	0.479463	0.518918	0.479095
	O345	O	0.559404	0.547888	0.565421
	H346	H	0.561110	0.549946	0.566145
	H347	H	0.560270	0.551856	0.561692
	O348	O	0.020910	-0.036986	0.063998
	H349	H	0.021113	-0.033796	0.061382
	H350	H	0.018213	-0.042286	0.074571
	O351	O	0.082635	0.924767	0.939116
	H352	H	0.073520	0.924357	0.936388
	H353	H	0.084938	0.921399	0.937775
	O354	O	0.543678	0.518854	0.497889
	H355	H	0.543548	0.512006	0.500380
	H356	H	0.540327	0.524950	0.503913
	O357	O	0.010708	0.970394	0.965851
	H358	H	0.024844	0.968477	0.971271
	H359	H	0.014211	0.965521	0.960856
