data_Molecule from HDF5

_cell_length_a		16.286676
_cell_length_b		16.238521
_cell_length_c		16.287051
_cell_angle_alpha	89.737919
_cell_angle_beta	89.773146
_cell_angle_gamma	90.268130
_symmetry_space_group_name_H-M	'P 1'
_symmetry_Int_Tables_number		1

loop_
	_symmetry_equiv_pos_as_xyz
	x,y,z

loop_
	_atom_site_label
	_atom_site_type_symbol
	_atom_site_fract_x
	_atom_site_fract_y
	_atom_site_fract_z
	H0	H	0.399727	0.838039	0.707869
	H1	H	0.603513	0.163881	0.706017
	H2	H	0.601784	0.837724	0.274564
	H3	H	0.400826	0.163072	0.272592
	H4	H	0.718502	0.401021	0.826039
	H5	H	0.719831	0.605563	0.148808
	H6	H	0.286673	0.601572	0.824986
	H7	H	0.281113	0.397678	0.149633
	H8	H	0.839843	0.717991	0.389897
	H9	H	0.164460	0.717819	0.590689
	H10	H	0.839106	0.282688	0.592411
	H11	H	0.164653	0.285310	0.389522
	H12	H	0.838477	0.398005	0.707136
	H13	H	0.164101	0.601216	0.704987
	H14	H	0.840050	0.604624	0.271548
	H15	H	0.162755	0.398638	0.270215
	H16	H	0.401108	0.718569	0.825986
	H17	H	0.600759	0.717352	0.150894
	H18	H	0.601102	0.285407	0.826021
	H19	H	0.399472	0.284744	0.151613
	H20	H	0.716824	0.838187	0.391114
	H21	H	0.718977	0.164118	0.590139
	H22	H	0.283455	0.837512	0.594558
	H23	H	0.285587	0.162681	0.388848
	H24	H	0.897829	0.338981	0.206980
	H25	H	0.103190	0.663899	0.205089
	H26	H	0.099808	0.337378	0.775340
	H27	H	0.902558	0.663654	0.772354
	H28	H	0.217667	0.899644	0.328514
	H29	H	0.217809	0.098873	0.653072
	H30	H	0.786897	0.102468	0.328055
	H31	H	0.784447	0.899822	0.653597
	H32	H	0.336582	0.215095	0.890544
	H33	H	0.663259	0.217762	0.087457
	H34	H	0.337521	0.783961	0.089942
	H35	H	0.662321	0.786511	0.888720
	H36	H	0.338096	0.897653	0.208386
	H37	H	0.663839	0.101099	0.202905
	H38	H	0.338189	0.100738	0.772652
	H39	H	0.663594	0.902071	0.773712
	H40	H	0.903589	0.217178	0.328634
	H41	H	0.101584	0.214790	0.653806
	H42	H	0.101903	0.785725	0.327522
	H43	H	0.901164	0.783742	0.653627
	H44	H	0.214343	0.337764	0.889315
	H45	H	0.218024	0.663925	0.087544
	H46	H	0.781274	0.339204	0.091718
	H47	H	0.786524	0.664343	0.886178
	H48	H	0.409314	0.116114	0.578307
	H49	H	0.584996	0.886336	0.583368
	H50	H	0.593810	0.118237	0.391991
	H51	H	0.413778	0.885738	0.399183
	H52	H	0.598565	0.416130	0.104390
	H53	H	0.591680	0.596612	0.872156
	H54	H	0.405900	0.587812	0.103587
	H55	H	0.406707	0.400448	0.869678
	H56	H	0.117228	0.593636	0.398793
	H57	H	0.887821	0.585335	0.581029
	H58	H	0.115465	0.419716	0.584197
	H59	H	0.885942	0.409361	0.398416
	H60	H	0.121390	0.402564	0.590001
	H61	H	0.884370	0.592894	0.586421
	H62	H	0.116860	0.590206	0.397489
	H63	H	0.886067	0.407278	0.400589
	H64	H	0.412388	0.590128	0.102084
	H65	H	0.595200	0.593927	0.871457
	H66	H	0.582349	0.414085	0.100394
	H67	H	0.400656	0.412792	0.870923
	H68	H	0.591502	0.115950	0.399333
	H69	H	0.595382	0.886328	0.574546
	H70	H	0.410454	0.116234	0.581247
	H71	H	0.407959	0.883902	0.402602
	H72	H	0.896913	0.621406	0.078184
	H73	H	0.095102	0.382657	0.083600
	H74	H	0.090797	0.616603	0.898397
	H75	H	0.917217	0.384268	0.889109
	H76	H	0.094842	0.915309	0.606085
	H77	H	0.100038	0.098930	0.370574
	H78	H	0.908960	0.084754	0.605099
	H79	H	0.904700	0.908412	0.373093
	H80	H	0.613893	0.093073	0.904342
	H81	H	0.386319	0.092406	0.075577
	H82	H	0.616787	0.910426	0.084650
	H83	H	0.383191	0.918458	0.886369
	H84	H	0.616877	0.906899	0.081307
	H85	H	0.384748	0.085628	0.086075
	H86	H	0.616605	0.089109	0.892206
	H87	H	0.379625	0.895892	0.897838
	H88	H	0.915582	0.092354	0.605273
	H89	H	0.096734	0.083807	0.376991
	H90	H	0.086032	0.905759	0.604680
	H91	H	0.910682	0.914008	0.376513
	H92	H	0.098120	0.618702	0.897510
	H93	H	0.085733	0.385609	0.083402
	H94	H	0.918340	0.618786	0.090815
	H95	H	0.911570	0.390412	0.910520
	H96	H	0.412406	0.115233	0.578885
	H97	H	0.596849	0.882361	0.587965
	H98	H	0.598997	0.118919	0.397351
	H99	H	0.408145	0.882704	0.395552
	H100	H	0.591843	0.400867	0.106208
	H101	H	0.591760	0.591627	0.873386
	H102	H	0.407604	0.594469	0.105275
	H103	H	0.413329	0.411399	0.874325
	H104	H	0.117946	0.592625	0.395332
	H105	H	0.886467	0.594345	0.576509
	H106	H	0.115563	0.404362	0.572337
	H107	H	0.886254	0.409703	0.400570
	H108	H	0.917005	0.610706	0.067144
	H109	H	0.091385	0.387075	0.074741
	H110	H	0.093089	0.618826	0.891905
	H111	H	0.896048	0.379507	0.896234
	H112	H	0.097524	0.902806	0.609470
	H113	H	0.084938	0.095518	0.377224
	H114	H	0.905888	0.094309	0.609410
	H115	H	0.913390	0.905476	0.374564
	H116	H	0.619333	0.100242	0.895743
	H117	H	0.381411	0.097916	0.085818
	H118	H	0.615464	0.911382	0.079747
	H119	H	0.390419	0.914322	0.910553
	C120	C	0.380389	0.008577	0.611006
	C121	C	0.623194	0.992561	0.611742
	C122	C	0.623984	0.009876	0.367395
	C123	C	0.380073	0.991698	0.368775
	C124	C	0.621073	0.380711	-0.003492
	C125	C	0.622726	0.624157	0.979372
	C126	C	0.379586	0.621782	-0.003700
	C127	C	0.377228	0.378411	0.979375
	C128	C	0.010383	0.622558	0.367797
	C129	C	0.993321	0.621650	0.610941
	C130	C	0.010112	0.378282	0.612293
	C131	C	0.992944	0.379172	0.369155
	C132	C	0.879040	0.509834	0.110182
	C133	C	0.122061	0.492269	0.110056
	C134	C	0.122657	0.510138	0.867087
	C135	C	0.879290	0.492285	0.867644
	C136	C	0.122924	0.878723	0.499156
	C137	C	0.124015	0.122117	0.482078
	C138	C	0.880670	0.121453	0.499462
	C139	C	0.879523	0.878940	0.482217
	C140	C	0.509198	0.123343	0.867418
	C141	C	0.491865	0.122423	0.110987
	C142	C	0.508917	0.879043	0.111569
	C143	C	0.491914	0.880512	0.868496
	C144	C	0.380319	0.886493	0.669479
	C145	C	0.622732	0.115193	0.667514
	C146	C	0.621843	0.886959	0.312363
	C147	C	0.381106	0.114418	0.311728
	C148	C	0.678980	0.381417	0.874417
	C149	C	0.680371	0.624309	0.100886
	C150	C	0.324099	0.621421	0.873987
	C151	C	0.320295	0.378705	0.101667
	C152	C	0.888365	0.679781	0.369355
	C153	C	0.115662	0.679135	0.610309
	C154	C	0.887846	0.321143	0.611544
	C155	C	0.115666	0.323339	0.369751
	C156	C	0.887459	0.378692	0.668716
	C157	C	0.115515	0.621218	0.667354
	C158	C	0.888529	0.623102	0.310820
	C159	C	0.114554	0.379616	0.310194
	C160	C	0.381001	0.679671	0.874590
	C161	C	0.621467	0.680131	0.101755
	C162	C	0.620920	0.323545	0.874478
	C163	C	0.378756	0.322247	0.102466
	C164	C	0.679224	0.887057	0.370266
	C165	C	0.680726	0.115219	0.610363
	C166	C	0.322351	0.886317	0.612816
	C167	C	0.323594	0.114112	0.369249
	C168	C	0.878506	0.387765	0.168343
	C169	C	0.122456	0.615142	0.166619
	C170	C	0.120242	0.386704	0.812236
	C171	C	0.881940	0.614825	0.810446
	C172	C	0.179373	0.880169	0.376848
	C173	C	0.179676	0.119284	0.604398
	C174	C	0.824947	0.121712	0.376931
	C175	C	0.822955	0.879871	0.604854
	C176	C	0.385781	0.177879	0.869697
	C177	C	0.614402	0.179383	0.108250
	C178	C	0.386113	0.822500	0.110060
	C179	C	0.614239	0.824634	0.869125
	C180	C	0.386690	0.878747	0.169203
	C181	C	0.614871	0.121050	0.165393
	C182	C	0.386689	0.121060	0.811080
	C183	C	0.614708	0.882237	0.812028
	C184	C	0.882685	0.178970	0.377275
	C185	C	0.121897	0.176825	0.605021
	C186	C	0.122004	0.823071	0.376504
	C187	C	0.880908	0.822119	0.604890
	C188	C	0.177179	0.386802	0.869186
	C189	C	0.179550	0.615181	0.108152
	C190	C	0.820600	0.387874	0.110777
	C191	C	0.824607	0.615374	0.867657
	C192	C	0.403927	0.093670	0.586531
	C193	C	0.599473	0.907039	0.588604
	C194	C	0.601569	0.095549	0.389705
	C195	C	0.403301	0.906272	0.392253
	C196	C	0.597692	0.403631	0.081502
	C197	C	0.599552	0.601098	0.894375
	C198	C	0.402081	0.597863	0.081535
	C199	C	0.400263	0.401439	0.893907
	C200	C	0.095329	0.599057	0.390638
	C201	C	0.908317	0.597784	0.587961
	C202	C	0.095535	0.402013	0.589115
	C203	C	0.907945	0.402214	0.392953
	C204	C	0.903517	0.594959	0.085786
	C205	C	0.097808	0.407359	0.087250
	C206	C	0.100560	0.595805	0.889406
	C207	C	0.901637	0.406643	0.891636
	C208	C	0.099617	0.901426	0.584664
	C209	C	0.100652	0.099663	0.396969
	C210	C	0.903393	0.097396	0.584562
	C211	C	0.902632	0.902389	0.396887
	C212	C	0.594443	0.100982	0.890556
	C213	C	0.406348	0.098914	0.088986
	C214	C	0.594296	0.902699	0.088464
	C215	C	0.406738	0.902900	0.891542
	Zn216	Zn	0.501034	0.000926	0.739675
	Zn217	Zn	0.500777	0.000467	0.239869
	Zn218	Zn	0.750611	0.502116	-0.011925
	Zn219	Zn	0.250234	0.500505	-0.012444
	Zn220	Zn	0.001980	0.750758	0.489949
	Zn221	Zn	0.001858	0.250283	0.491020
	Zn222	Zn	0.001242	0.500239	0.739830
	Zn223	Zn	0.000975	0.501287	0.239201
	Zn224	Zn	0.500313	0.751346	-0.011051
	Zn225	Zn	0.499674	0.251508	-0.011113
	Zn226	Zn	0.751205	0.001213	0.490630
	Zn227	Zn	0.251613	-0.000471	0.490282
	N228	N	0.415916	0.963514	0.668361
	N229	N	0.587942	0.037968	0.668699
	N230	N	0.588136	0.964459	0.310468
	N231	N	0.415389	0.037245	0.311248
	N232	N	0.679130	0.416351	0.951153
	N233	N	0.681515	0.590297	0.023732
	N234	N	0.323061	0.586049	0.950771
	N235	N	0.319367	0.412717	0.024149
	N236	N	0.965161	0.679565	0.404152
	N237	N	0.038764	0.679581	0.575932
	N238	N	0.965233	0.320767	0.577353
	N239	N	0.039069	0.322700	0.405508
	N240	N	0.964479	0.413858	0.669232
	N241	N	0.038490	0.586013	0.667940
	N242	N	0.965291	0.588306	0.309771
	N243	N	0.037303	0.413657	0.309600
	N244	N	0.414967	0.679975	0.951797
	N245	N	0.586383	0.680292	0.025207
	N246	N	0.585469	0.323220	0.951322
	N247	N	0.413392	0.321757	0.025457
	N248	N	0.680858	0.964562	0.403680
	N249	N	0.680804	0.037856	0.576135
	N250	N	0.322291	0.963060	0.577021
	N251	N	0.322685	0.036575	0.403662
	N252	N	0.914027	0.464720	0.168155
	N253	N	0.087547	0.537861	0.168047
	N254	N	0.086950	0.464230	0.810763
	N255	N	0.915099	0.537157	0.810198
	N256	N	0.180274	0.913738	0.454249
	N257	N	0.180867	0.085848	0.526971
	N258	N	0.823680	0.086529	0.453888
	N259	N	0.821784	0.914165	0.527590
	N260	N	0.462954	0.179556	0.903768
	N261	N	0.536828	0.180341	0.075086
	N262	N	0.463119	0.822409	0.075064
	N263	N	0.537134	0.823617	0.903781
	N264	N	0.464106	0.913049	0.170208
	N265	N	0.537613	0.086529	0.167233
	N266	N	0.464326	0.088181	0.809411
	N267	N	0.537699	0.916094	0.811454
	N268	N	0.916586	0.178834	0.454419
	N269	N	0.088096	0.179025	0.527907
	N270	N	0.087503	0.822355	0.453647
	N271	N	0.915343	0.821345	0.527566
	N272	N	0.178704	0.464343	0.902642
	N273	N	0.179564	0.537951	0.073747
	N274	N	0.820597	0.465035	0.075544
	N275	N	0.822777	0.538074	0.902352
	O276	O	-0.048381	-0.023139	0.027395
	H277	H	-0.055567	-0.020587	0.016471
	H278	H	-0.048538	-0.026180	0.023004
	O279	O	0.481027	0.402823	0.607517
	H280	H	0.472348	0.391492	0.610264
	H281	H	0.486735	0.414538	0.616349
	O282	O	0.501187	-0.667617	-0.345403
	H283	H	0.484945	-0.673699	-0.344372
	H284	H	0.495722	-0.673166	-0.345213
	O285	O	0.142265	0.985481	-0.008323
	H286	H	0.150896	0.980035	-0.008418
	H287	H	0.154787	0.987837	-0.016416
	O288	O	0.614151	0.460870	0.544819
	H289	H	0.603172	0.470127	0.550454
	H290	H	0.615622	0.451904	0.559267
	O291	O	0.990729	-0.059619	1.012419
	H292	H	0.977769	-0.061273	1.012491
	H293	H	0.991482	-0.043739	1.014196
	O294	O	1.005032	1.099358	0.920582
	H295	H	0.994413	1.091388	0.915374
	H296	H	1.000019	1.116314	0.926398
	O297	O	-0.031503	0.043750	-0.050075
	H298	H	-0.038116	0.027844	-0.048381
	H299	H	-0.030688	0.059350	-0.046677
	O300	O	0.329569	0.385297	0.621050
	H301	H	0.322756	0.391380	0.606123
	H302	H	0.313136	0.385166	0.613976
	O303	O	-0.076163	1.053037	0.961876
	H304	H	-0.070276	1.068438	0.962116
	H305	H	-0.072200	1.054488	0.963185
	O306	O	0.381437	0.610633	0.405931
	H307	H	0.389126	0.610251	0.402109
	H308	H	0.364830	0.595908	0.409687
	O309	O	0.963428	-0.068174	-0.006319
	H310	H	0.961725	-0.076589	-0.015942
	H311	H	0.960096	-0.061881	-0.005006
	O312	O	0.114684	0.065568	1.098307
	H313	H	0.109055	0.065237	1.096689
	H314	H	0.121515	0.063382	1.094286
	O315	O	0.448384	0.483715	0.450020
	H316	H	0.449363	0.477403	0.453931
	H317	H	0.447029	0.495717	0.448564
	O318	O	1.060079	0.985868	0.892248
	H319	H	1.047304	0.989727	0.887604
	H320	H	1.062517	0.983981	0.879055
	O321	O	0.655376	0.663775	0.558848
	H322	H	0.654934	0.673216	0.558799
	H323	H	0.659702	0.666155	0.556154
	O324	O	0.520256	0.555877	0.359255
	H325	H	0.507973	0.538693	0.366766
	H326	H	0.530094	0.552266	0.357520
	O327	O	-0.066470	0.946131	1.031112
	H328	H	-0.062707	0.939042	1.039498
	H329	H	-0.061492	0.946969	1.025533
	O330	O	-0.175579	0.028955	-0.010522
	H331	H	-0.163289	0.041139	-0.004416
	H332	H	-0.188619	0.033359	0.001905
	O333	O	-0.367510	1.376873	1.309850
	H334	H	-0.368766	1.385257	1.328412
	H335	H	-0.372129	1.371947	1.315661
	O336	O	1.056021	0.939609	0.955895
	H337	H	1.062179	0.949153	0.961779
	H338	H	1.058364	0.927607	0.952018
	O339	O	0.516283	0.609853	0.537733
	H340	H	0.513172	0.625804	0.524291
	H341	H	0.527885	0.598811	0.530825
	O342	O	0.963791	0.063158	0.097201
	H343	H	0.973485	0.063229	0.103462
	H344	H	0.977852	0.064632	0.101322
	O345	O	0.550270	0.441215	0.429904
	H346	H	0.554316	0.447220	0.431759
	H347	H	0.558734	0.447213	0.435507
	O348	O	1.054273	0.962746	0.957440
	H349	H	1.046640	0.959441	0.957973
	H350	H	1.056220	0.969455	0.952065
	O351	O	0.936276	0.855619	0.063930
	H352	H	0.940380	0.853074	0.061248
	H353	H	0.926808	0.880552	0.059936
	O354	O	0.485053	0.490224	0.402366
	H355	H	0.495057	0.488158	0.401403
	H356	H	0.498324	0.511381	0.394486
	O357	O	0.603564	0.543432	0.491870
	H358	H	0.605607	0.529802	0.501832
	H359	H	0.608636	0.542283	0.482230
	O360	O	-0.505260	0.622114	0.360188
	H361	H	-0.511668	0.620064	0.356297
	H362	H	-0.518924	0.632509	0.357155
	O363	O	0.333668	0.389688	0.485245
	H364	H	0.341932	0.400085	0.474490
	H365	H	0.333228	0.395834	0.475365
	O366	O	0.474370	0.380430	0.457868
	H367	H	0.475608	0.378540	0.470620
	H368	H	0.471983	0.385535	0.450536
	O369	O	0.539728	0.518113	0.602444
	H370	H	0.538840	0.523874	0.606830
	H371	H	0.526215	0.518295	0.606559
	O372	O	0.345809	0.482680	0.481167
	H373	H	0.344858	0.474877	0.487988
	H374	H	0.340786	0.485162	0.488774
	O375	O	0.529962	0.560504	0.434914
	H376	H	0.539139	0.552335	0.450009
	H377	H	0.526808	0.562053	0.434523
	O378	O	0.612233	0.498449	0.559959
	H379	H	0.608634	0.502019	0.559199
	H380	H	0.621563	0.508502	0.568194
	O381	O	0.589995	0.592310	0.386542
	H382	H	0.590388	0.593025	0.373890
	H383	H	0.593324	0.582354	0.374353
	O384	O	0.024758	1.130312	-0.034752
	H385	H	0.024660	1.127374	-0.021997
	H386	H	0.016757	1.131951	-0.028613
	O387	O	0.975563	-0.103269	1.058046
	H388	H	0.974976	-0.093286	1.063781
	H389	H	0.965724	-0.109919	1.057019
	O390	O	-0.099325	1.034429	0.053949
	H391	H	-0.097198	1.040156	0.051696
	H392	H	-0.098638	1.025609	0.064256
	O393	O	0.986200	1.083285	0.071465
	H394	H	0.993702	1.083728	0.075049
	H395	H	0.980390	1.071800	0.065161
	O396	O	0.537398	0.365710	0.410463
	H397	H	0.543374	0.355039	0.408575
	H398	H	0.549089	0.373782	0.412738
	O399	O	0.644292	0.571550	1.556621
	H400	H	0.639837	0.571363	1.558942
	H401	H	0.660444	0.577046	1.555303
	O402	O	1.105459	1.061948	1.051575
	H403	H	1.098446	1.061385	1.052988
	H404	H	1.112903	1.062756	1.056848
	O405	O	0.387519	0.509427	0.432774
	H406	H	0.394221	0.525365	0.434519
	H407	H	0.403387	0.504816	0.430941
