data_Molecule from HDF5

_cell_length_a		16.031155
_cell_length_b		16.322937
_cell_length_c		16.356824
_cell_angle_alpha	89.669917
_cell_angle_beta	89.792766
_cell_angle_gamma	90.243629
_symmetry_space_group_name_H-M	'P 1'
_symmetry_Int_Tables_number		1

loop_
	_symmetry_equiv_pos_as_xyz
	x,y,z

loop_
	_atom_site_label
	_atom_site_type_symbol
	_atom_site_fract_x
	_atom_site_fract_y
	_atom_site_fract_z
	H0	H	0.378616	0.837483	0.719784
	H1	H	0.589696	0.160100	0.715641
	H2	H	0.584442	0.835439	0.282655
	H3	H	0.380128	0.159002	0.278534
	H4	H	0.701266	0.402621	0.836925
	H5	H	0.698443	0.592803	0.164513
	H6	H	0.271924	0.598222	0.837639
	H7	H	0.272736	0.398451	0.162962
	H8	H	0.818988	0.709613	0.401321
	H9	H	0.149218	0.713795	0.600786
	H10	H	0.819190	0.281972	0.601226
	H11	H	0.149295	0.285005	0.401035
	H12	H	0.819942	0.394661	0.717750
	H13	H	0.149718	0.597957	0.715060
	H14	H	0.822386	0.598308	0.282651
	H15	H	0.149505	0.395995	0.285609
	H16	H	0.385461	0.718158	0.838940
	H17	H	0.590342	0.717402	0.161872
	H18	H	0.591957	0.280444	0.838075
	H19	H	0.382724	0.277297	0.160123
	H20	H	0.697615	0.834155	0.400088
	H21	H	0.698953	0.161342	0.593428
	H22	H	0.268534	0.835223	0.597802
	H23	H	0.271817	0.162053	0.400906
	H24	H	0.881043	0.335336	0.221742
	H25	H	0.090946	0.657283	0.218942
	H26	H	0.091288	0.336060	0.783224
	H27	H	0.880369	0.656694	0.779839
	H28	H	0.196731	0.903038	0.335668
	H29	H	0.200628	0.097912	0.661123
	H30	H	0.772735	0.094859	0.334473
	H31	H	0.766420	0.898298	0.661998
	H32	H	0.322128	0.216085	0.896752
	H33	H	0.651010	0.212389	0.098578
	H34	H	0.323332	0.778097	0.105212
	H35	H	0.651276	0.786657	0.898386
	H36	H	0.320960	0.895553	0.215124
	H37	H	0.649247	0.100047	0.215064
	H38	H	0.320705	0.102346	0.783008
	H39	H	0.648434	0.897498	0.780427
	H40	H	0.880880	0.219487	0.338714
	H41	H	0.087995	0.215771	0.661169
	H42	H	0.087928	0.779399	0.339054
	H43	H	0.878600	0.777681	0.661539
	H44	H	0.201164	0.334320	0.904111
	H45	H	0.204075	0.659042	0.100338
	H46	H	0.768763	0.334071	0.102173
	H47	H	0.774314	0.661428	0.902695
	H48	H	0.384072	0.117244	0.590486
	H49	H	0.566640	0.882638	0.599013
	H50	H	0.580530	0.115778	0.402789
	H51	H	0.389232	0.881802	0.408034
	H52	H	0.593587	0.405123	0.120295
	H53	H	0.576286	0.596744	0.884486
	H54	H	0.393261	0.574661	0.111515
	H55	H	0.390208	0.406455	0.881933
	H56	H	0.103806	0.593658	0.411546
	H57	H	0.863784	0.586371	0.602725
	H58	H	0.102656	0.399045	0.586425
	H59	H	0.864915	0.409602	0.404760
	H60	H	0.099722	0.414671	0.591199
	H61	H	0.865267	0.595666	0.586632
	H62	H	0.101433	0.585418	0.412913
	H63	H	0.865461	0.400594	0.414548
	H64	H	0.411771	0.595441	0.112714
	H65	H	0.583957	0.595719	0.883102
	H66	H	0.567047	0.416819	0.108449
	H67	H	0.398397	0.411794	0.886511
	H68	H	0.571739	0.112923	0.401113
	H69	H	0.568606	0.886007	0.584499
	H70	H	0.398100	0.115707	0.600452
	H71	H	0.390171	0.880571	0.403682
	H72	H	0.890656	0.614472	0.095054
	H73	H	0.077257	0.380644	0.094061
	H74	H	0.082891	0.615498	0.904403
	H75	H	0.890209	0.378137	0.903379
	H76	H	0.081330	0.911374	0.616041
	H77	H	0.071934	0.107431	0.380713
	H78	H	0.893543	0.085120	0.613258
	H79	H	0.898594	0.904263	0.386159
	H80	H	0.608456	0.091197	0.892643
	H81	H	0.365547	0.093545	0.090365
	H82	H	0.606157	0.900716	0.089939
	H83	H	0.364208	0.901188	0.905867
	H84	H	0.600277	0.913818	0.085225
	H85	H	0.370005	0.087130	0.083123
	H86	H	0.603781	0.099848	0.914856
	H87	H	0.370443	0.907329	0.919018
	H88	H	0.894156	0.093041	0.614398
	H89	H	0.089645	0.087909	0.380533
	H90	H	0.064657	0.905976	0.611792
	H91	H	0.891538	0.896512	0.381461
	H92	H	0.071851	0.612052	0.903215
	H93	H	0.076922	0.380865	0.095646
	H94	H	0.899888	0.612573	0.097164
	H95	H	0.903526	0.383289	0.908518
	H96	H	0.398451	0.109848	0.583750
	H97	H	0.580320	0.880425	0.592215
	H98	H	0.575830	0.111678	0.409328
	H99	H	0.393621	0.883603	0.406535
	H100	H	0.568072	0.387319	0.117866
	H101	H	0.579904	0.589997	0.885496
	H102	H	0.385919	0.598882	0.121420
	H103	H	0.398964	0.401415	0.883736
	H104	H	0.104713	0.587691	0.405192
	H105	H	0.871412	0.577349	0.587963
	H106	H	0.106391	0.403744	0.601809
	H107	H	0.870376	0.413440	0.416247
	H108	H	0.897299	0.610320	0.088764
	H109	H	0.076305	0.380925	0.094554
	H110	H	0.077199	0.611244	0.913140
	H111	H	0.890948	0.382479	0.917577
	H112	H	0.076312	0.894287	0.618825
	H113	H	0.064832	0.083693	0.390172
	H114	H	0.886801	0.089919	0.615777
	H115	H	0.887371	0.907215	0.383138
	H116	H	0.597790	0.077184	0.909229
	H117	H	0.368382	0.083970	0.093321
	H118	H	0.604443	0.912588	0.098796
	H119	H	0.369618	0.916437	0.906402
	C120	C	0.361774	0.007204	0.621942
	C121	C	0.603851	0.990324	0.619618
	C122	C	0.605725	0.006153	0.375867
	C123	C	0.361841	0.989500	0.376356
	C124	C	0.607974	0.375474	0.008382
	C125	C	0.609717	0.622032	0.991594
	C126	C	0.365896	0.620294	0.008672
	C127	C	0.365035	0.375671	0.990874
	C128	C	-0.005697	0.618193	0.379720
	C129	C	0.975634	0.617564	0.621971
	C130	C	-0.006230	0.375395	0.623183
	C131	C	0.976043	0.378030	0.381264
	C132	C	0.864490	0.505132	0.123612
	C133	C	0.108021	0.488014	0.123268
	C134	C	0.107940	0.505867	0.878395
	C135	C	0.864830	0.488503	0.879712
	C136	C	0.105206	0.875628	0.508301
	C137	C	0.105708	0.120996	0.491057
	C138	C	0.862523	0.119385	0.507277
	C139	C	0.861384	0.873861	0.490901
	C140	C	0.494656	0.119992	0.876692
	C141	C	0.476724	0.118713	0.119106
	C142	C	0.494973	0.877376	0.121325
	C143	C	0.476668	0.878712	0.879163
	C144	C	0.360066	0.885562	0.680049
	C145	C	0.606569	0.111923	0.675913
	C146	C	0.604417	0.883862	0.320608
	C147	C	0.361791	0.111108	0.318419
	C148	C	0.663732	0.380866	0.885534
	C149	C	0.662871	0.616336	0.115115
	C150	C	0.309219	0.619093	0.886542
	C151	C	0.309731	0.377444	0.113631
	C152	C	0.869326	0.673067	0.380762
	C153	C	0.099806	0.674967	0.620709
	C154	C	0.869111	0.319456	0.621788
	C155	C	0.100062	0.322234	0.381624
	C156	C	0.869637	0.375614	0.679888
	C157	C	0.099988	0.617416	0.677574
	C158	C	0.870699	0.617389	0.322190
	C159	C	0.100215	0.377760	0.324354
	C160	C	0.365972	0.678541	0.887138
	C161	C	0.608956	0.677984	0.113667
	C162	C	0.609585	0.319787	0.886244
	C163	C	0.364478	0.317068	0.112114
	C164	C	0.660664	0.883228	0.379073
	C165	C	0.661239	0.112582	0.615226
	C166	C	0.305488	0.884507	0.619305
	C167	C	0.307945	0.112641	0.379303
	C168	C	0.862606	0.383655	0.182145
	C169	C	0.109564	0.609399	0.180295
	C170	C	0.108965	0.384234	0.822227
	C171	C	0.863173	0.609477	0.820577
	C172	C	0.160437	0.880585	0.385364
	C173	C	0.162516	0.118573	0.612735
	C174	C	0.808762	0.116631	0.384041
	C175	C	0.803960	0.876671	0.613106
	C176	C	0.370886	0.177311	0.877740
	C177	C	0.601163	0.174661	0.118046
	C178	C	0.371789	0.817998	0.122526
	C179	C	0.601082	0.823352	0.878673
	C180	C	0.370473	0.876332	0.177395
	C181	C	0.600213	0.118526	0.176327
	C182	C	0.370380	0.120810	0.820773
	C183	C	0.599703	0.878609	0.819827
	C184	C	0.862890	0.178392	0.386208
	C185	C	0.106292	0.177216	0.612654
	C186	C	0.105955	0.819216	0.386858
	C187	C	0.859956	0.816773	0.612851
	C188	C	0.164056	0.383382	0.882121
	C189	C	0.165920	0.610071	0.121142
	C190	C	0.806825	0.383064	0.122451
	C191	C	0.810257	0.611728	0.881648
	C192	C	0.386187	0.092321	0.598445
	C193	C	0.579003	0.905106	0.598202
	C194	C	0.582898	0.091500	0.397920
	C195	C	0.384492	0.904093	0.399141
	C196	C	0.583611	0.396768	0.093400
	C197	C	0.586834	0.600701	0.906610
	C198	C	0.389957	0.596699	0.093212
	C199	C	0.388887	0.399495	0.905958
	C200	C	0.080837	0.595586	0.403055
	C201	C	0.889255	0.593618	0.599178
	C202	C	0.080514	0.398935	0.599965
	C203	C	0.889432	0.401201	0.404842
	C204	C	0.888833	0.590300	0.100520
	C205	C	0.083776	0.403004	0.101145
	C206	C	0.084240	0.590781	0.900467
	C207	C	0.888130	0.403481	0.903031
	C208	C	0.081232	0.897703	0.593329
	C209	C	0.082435	0.099359	0.405979
	C210	C	0.885051	0.096169	0.592420
	C211	C	0.885535	0.896053	0.405732
	C212	C	0.580932	0.096222	0.899027
	C213	C	0.390158	0.095067	0.095754
	C214	C	0.581234	0.901793	0.098079
	C215	C	0.390569	0.901657	0.903503
	Zn216	Zn	0.483858	-0.001047	0.750318
	Zn217	Zn	0.484055	-0.001884	0.247553
	Zn218	Zn	0.736828	0.497845	0.000531
	Zn219	Zn	0.236382	0.497268	0.000210
	Zn220	Zn	-0.016067	0.745287	0.500812
	Zn221	Zn	-0.015666	0.249767	0.500016
	Zn222	Zn	-0.014557	0.496479	0.750655
	Zn223	Zn	-0.014001	0.496419	0.252728
	Zn224	Zn	0.487238	0.751109	0.000353
	Zn225	Zn	0.486519	0.246609	-0.001832
	Zn226	Zn	0.733456	-0.002804	0.497712
	Zn227	Zn	0.233789	-0.000781	0.498880
	N228	N	0.394165	0.962981	0.681959
	N229	N	0.571543	0.034816	0.678611
	N230	N	0.570860	0.961285	0.318499
	N231	N	0.394681	0.033434	0.316387
	N232	N	0.663137	0.414584	0.962537
	N233	N	0.663688	0.582420	0.038415
	N234	N	0.309056	0.583551	0.963125
	N235	N	0.310043	0.413329	0.037342
	N236	N	0.947276	0.673671	0.415798
	N237	N	0.021241	0.675293	0.587052
	N238	N	0.947455	0.318963	0.587498
	N239	N	0.021963	0.322402	0.416359
	N240	N	0.948413	0.409466	0.681013
	N241	N	0.021775	0.582320	0.678558
	N242	N	0.949354	0.584189	0.321265
	N243	N	0.021879	0.411702	0.323954
	N244	N	0.400067	0.679706	0.964049
	N245	N	0.576908	0.682056	0.035798
	N246	N	0.575612	0.316302	0.963469
	N247	N	0.398186	0.315868	0.034578
	N248	N	0.661581	0.960272	0.412638
	N249	N	0.659687	0.035824	0.580997
	N250	N	0.306332	0.961210	0.583956
	N251	N	0.307633	0.035918	0.414499
	N252	N	0.897680	0.460700	0.183113
	N253	N	0.074476	0.532311	0.182112
	N254	N	0.075096	0.461429	0.819591
	N255	N	0.896208	0.531957	0.819169
	N256	N	0.159880	0.915263	0.461973
	N257	N	0.162193	0.084259	0.536398
	N258	N	0.808733	0.080541	0.460274
	N259	N	0.804700	0.911556	0.536308
	N260	N	0.449237	0.177110	0.911946
	N261	N	0.523246	0.174807	0.083223
	N262	N	0.450280	0.818560	0.088273
	N263	N	0.523598	0.823128	0.914862
	N264	N	0.447917	0.912767	0.176668
	N265	N	0.521610	0.084325	0.176989
	N266	N	0.448148	0.085725	0.820030
	N267	N	0.521298	0.912482	0.820041
	N268	N	0.895536	0.180367	0.463891
	N269	N	0.071375	0.178885	0.535916
	N270	N	0.072220	0.815994	0.464229
	N271	N	0.894609	0.814617	0.535770
	N272	N	0.163603	0.460023	0.916370
	N273	N	0.165065	0.533733	0.086589
	N274	N	0.807831	0.459734	0.086878
	N275	N	0.810944	0.535414	0.917824
	O276	O	1.088890	-0.110721	0.906740
	H277	H	1.068387	-0.100132	0.908034
	H278	H	1.079281	-0.097811	0.899366
	O279	O	0.461239	0.455442	0.404444
	H280	H	0.456608	0.455237	0.403468
	H281	H	0.461392	0.463318	0.407532
	O282	O	0.437007	0.492716	0.510742
	H283	H	0.437076	0.501535	0.506685
	H284	H	0.435372	0.495787	0.517065
	O285	O	0.542617	0.520615	0.553987
	H286	H	0.530912	0.519060	0.555905
	H287	H	0.547148	0.522645	0.548866
	O288	O	0.470891	0.448983	0.375318
	H289	H	0.459179	0.456996	0.385348
	H290	H	0.471865	0.444473	0.373648
	O291	O	-0.065139	0.139771	0.959828
	H292	H	-0.075052	0.136251	0.958370
	H293	H	-0.081316	0.142048	0.954985
	O294	O	1.115516	0.991291	0.113510
	H295	H	1.123916	0.977817	0.125704
	H296	H	1.119622	0.993629	0.104723
	O297	O	1.061736	0.870283	-0.005314
	H298	H	1.046991	0.876181	-0.010311
	H299	H	1.075600	0.878566	-0.018404
	O300	O	0.471809	0.630944	0.589162
	H301	H	0.481373	0.645195	0.584207
	H302	H	0.490505	0.618679	0.601298
	O303	O	0.433235	0.569991	0.414918
	H304	H	0.418482	0.577968	0.416508
	H305	H	0.432348	0.574619	0.419111
	O306	O	1.059641	0.939770	0.859860
	H307	H	1.044239	0.934462	0.859092
	H308	H	1.055870	0.927691	0.867192
	O309	O	0.497750	0.389843	0.517807
	H310	H	0.499578	0.382458	0.514021
	H311	H	0.493477	0.393966	0.513655
	O312	O	0.899979	1.060383	0.829375
	H313	H	0.908807	1.050872	0.826160
	H314	H	0.908262	1.061161	0.830624
	O315	O	0.899735	1.013870	-0.169065
	H316	H	0.898516	1.020721	-0.173287
	H317	H	0.889184	1.025592	-0.173354
	O318	O	0.574257	0.547975	0.511568
	H319	H	0.575719	0.541106	0.515494
	H320	H	0.566027	0.535509	0.501332
	O321	O	0.404062	0.391568	0.540564
	H322	H	0.399156	0.378943	0.539854
	H323	H	0.395925	0.397892	0.539573
	O324	O	-0.020786	0.993269	1.100430
	H325	H	-0.020047	0.983168	1.100879
	H326	H	-0.013387	0.988273	1.083871
	O327	O	-0.005590	0.992118	1.134751
	H328	H	-0.012915	0.980724	1.142000
	H329	H	0.009576	0.989877	1.139800
	O330	O	-0.131137	0.111313	0.052136
	H331	H	-0.148236	0.113604	0.063856
	H332	H	-0.123363	0.112431	0.060151
	O333	O	0.374872	0.555964	0.441262
	H334	H	0.373502	0.555950	0.437642
	H335	H	0.379271	0.562514	0.450808
	O336	O	0.036046	0.070896	0.041150
	H337	H	0.039743	0.072377	0.032412
	H338	H	0.048287	0.067706	0.064916
	O339	O	0.028892	0.047661	-0.069710
	H340	H	0.042347	0.044203	-0.070284
	H341	H	0.031202	0.039170	-0.065389
	O342	O	0.563091	0.557977	0.527011
	H343	H	0.562346	0.551090	0.512743
	H344	H	0.553641	0.547032	0.526409
	O345	O	-0.033856	0.925049	1.123462
	H346	H	-0.028028	0.918905	1.125665
	H347	H	-0.049889	0.917563	1.114535
	O348	O	0.472931	0.446848	0.420774
	H349	H	0.466296	0.449098	0.411477
	H350	H	0.467703	0.446638	0.423374
	O351	O	0.515088	0.397902	0.557446
	H352	H	0.515151	0.400290	0.558074
	H353	H	0.515233	0.396235	0.550706
	O354	O	0.477676	0.558007	0.538189
	H355	H	0.481947	0.567332	0.534013
	H356	H	0.471826	0.545243	0.542852
	O357	O	0.951400	0.859342	0.002512
	H358	H	0.966156	0.868056	-0.010036
	H359	H	0.947039	0.836131	-0.000383
	O360	O	0.840935	-0.043897	0.955109
	H361	H	0.853291	-0.043669	0.943566
	H362	H	0.841222	-0.033757	0.969049
	O363	O	0.567030	0.538148	0.569373
	H364	H	0.583602	0.543157	0.553972
	H365	H	0.577550	0.536780	0.566251
	O366	O	0.964762	1.047775	0.075804
	H367	H	0.985322	1.054184	0.066119
	H368	H	0.970909	1.056216	0.077642
	O369	O	1.154089	-0.052932	-0.084081
	H370	H	1.160441	-0.052617	-0.100110
	H371	H	1.145046	-0.055481	-0.084892
	O372	O	0.504081	0.513270	0.468726
	H373	H	0.513044	0.512901	0.481338
	H374	H	0.514282	0.505291	0.477820
	O375	O	1.029304	-0.193985	0.998075
	H376	H	1.031910	-0.207773	0.990579
	H377	H	1.039071	-0.195984	0.989383
	O378	O	-0.159535	0.889242	0.047370
	H379	H	-0.167030	0.871375	0.050742
	H380	H	-0.169759	0.891210	0.060534
	O381	O	0.511152	0.437449	0.666799
	H382	H	0.496310	0.430299	0.677052
	H383	H	0.506170	0.447451	0.668796
	O384	O	1.019405	1.146497	0.012941
	H385	H	1.020316	1.146028	0.021868
	H386	H	1.023353	1.156051	0.025365
	O387	O	0.874231	0.026904	1.036526
	H388	H	0.875309	0.016650	1.054705
	H389	H	0.888370	0.034561	1.030775
	O390	O	0.997886	1.021232	-0.033719
	H391	H	0.979981	1.018860	-0.038527
	H392	H	1.002074	1.024569	-0.032023
	O393	O	0.524004	0.523963	0.565622
	H394	H	0.533109	0.519123	0.562693
	H395	H	0.536845	0.534726	0.566472
