data_Molecule from HDF5

_cell_length_a		15.974866
_cell_length_b		16.380727
_cell_length_c		16.502239
_cell_angle_alpha	90.016282
_cell_angle_beta	90.512686
_cell_angle_gamma	89.707126
_symmetry_space_group_name_H-M	'P 1'
_symmetry_Int_Tables_number		1

loop_
	_symmetry_equiv_pos_as_xyz
	x,y,z

loop_
	_atom_site_label
	_atom_site_type_symbol
	_atom_site_fract_x
	_atom_site_fract_y
	_atom_site_fract_z
	H0	H	0.389577	0.831574	0.734651
	H1	H	0.607826	0.147618	0.738248
	H2	H	0.605711	0.830036	0.293509
	H3	H	0.388878	0.147981	0.287981
	H4	H	0.715264	0.387013	0.852558
	H5	H	0.714358	0.586603	0.174846
	H6	H	0.278346	0.587317	0.852883
	H7	H	0.285767	0.391850	0.175104
	H8	H	0.833304	0.705738	0.413967
	H9	H	0.164158	0.705029	0.617850
	H10	H	0.835096	0.273997	0.616187
	H11	H	0.162766	0.273357	0.414502
	H12	H	0.835105	0.387574	0.731025
	H13	H	0.161714	0.594297	0.736142
	H14	H	0.833850	0.593961	0.296846
	H15	H	0.161515	0.383778	0.297266
	H16	H	0.388658	0.709665	0.853400
	H17	H	0.605424	0.710554	0.171162
	H18	H	0.603267	0.266306	0.854353
	H19	H	0.389445	0.265926	0.169584
	H20	H	0.713233	0.827208	0.417857
	H21	H	0.712199	0.152776	0.612785
	H22	H	0.284838	0.827679	0.608978
	H23	H	0.278879	0.151256	0.410334
	H24	H	0.891072	0.331054	0.237284
	H25	H	0.103061	0.649590	0.235741
	H26	H	0.105939	0.330809	0.793113
	H27	H	0.887815	0.648882	0.792021
	H28	H	0.210133	0.892067	0.351601
	H29	H	0.218761	0.088985	0.674024
	H30	H	0.781445	0.089382	0.352153
	H31	H	0.786543	0.895472	0.676341
	H32	H	0.332914	0.207032	0.907579
	H33	H	0.661406	0.206418	0.116056
	H34	H	0.333041	0.775292	0.109932
	H35	H	0.662938	0.771705	0.912555
	H36	H	0.335236	0.886957	0.228013
	H37	H	0.662273	0.092413	0.231487
	H38	H	0.334920	0.093566	0.791540
	H39	H	0.663446	0.885983	0.797528
	H40	H	0.892345	0.211895	0.354874
	H41	H	0.107656	0.212025	0.672840
	H42	H	0.102809	0.767405	0.356319
	H43	H	0.894855	0.771714	0.673844
	H44	H	0.211577	0.326081	0.917854
	H45	H	0.211748	0.651693	0.111708
	H46	H	0.786590	0.325488	0.110636
	H47	H	0.780137	0.651714	0.916195
	H48	H	0.414789	0.105382	0.610316
	H49	H	0.599234	0.873546	0.601316
	H50	H	0.592222	0.109132	0.413540
	H51	H	0.409440	0.875169	0.417858
	H52	H	0.584426	0.396992	0.124983
	H53	H	0.589425	0.573783	0.900177
	H54	H	0.408898	0.588015	0.128473
	H55	H	0.406352	0.394558	0.897604
	H56	H	0.114746	0.572407	0.423708
	H57	H	0.878737	0.585010	0.610244
	H58	H	0.115552	0.402956	0.605065
	H59	H	0.880990	0.407837	0.419668
	H60	H	0.116320	0.402556	0.606716
	H61	H	0.881429	0.585013	0.597778
	H62	H	0.118849	0.582756	0.420994
	H63	H	0.879338	0.396099	0.423592
	H64	H	0.404241	0.583147	0.127859
	H65	H	0.579485	0.581240	0.901055
	H66	H	0.589633	0.392624	0.127612
	H67	H	0.403021	0.398704	0.897961
	H68	H	0.576728	0.102650	0.417471
	H69	H	0.590019	0.871537	0.616512
	H70	H	0.416636	0.100713	0.596489
	H71	H	0.407420	0.874381	0.420176
	H72	H	0.907954	0.606395	0.113050
	H73	H	0.088652	0.375837	0.106973
	H74	H	0.081831	0.599957	0.930187
	H75	H	0.908472	0.373542	0.917822
	H76	H	0.093278	0.898556	0.628890
	H77	H	0.081521	0.073673	0.405519
	H78	H	0.912467	0.089800	0.627990
	H79	H	0.913972	0.900391	0.402877
	H80	H	0.613120	0.078969	0.930034
	H81	H	0.379875	0.075999	0.103487
	H82	H	0.615403	0.902233	0.104117
	H83	H	0.383150	0.908475	0.918806
	H84	H	0.618484	0.896870	0.107495
	H85	H	0.380077	0.080482	0.100669
	H86	H	0.613286	0.073021	0.924137
	H87	H	0.377134	0.895634	0.914391
	H88	H	0.902709	0.084121	0.630014
	H89	H	0.078280	0.093494	0.399846
	H90	H	0.089651	0.898156	0.628273
	H91	H	0.908284	0.889248	0.397273
	H92	H	0.094080	0.606770	0.924205
	H93	H	0.092252	0.372468	0.109848
	H94	H	0.914652	0.601217	0.104696
	H95	H	0.912858	0.376375	0.921156
	H96	H	0.403517	0.105090	0.601296
	H97	H	0.581459	0.878845	0.601516
	H98	H	0.589238	0.103867	0.428790
	H99	H	0.407128	0.874261	0.417061
	H100	H	0.590960	0.399400	0.126554
	H101	H	0.590369	0.585715	0.897078
	H102	H	0.410830	0.581445	0.126227
	H103	H	0.407951	0.398669	0.899389
	H104	H	0.115017	0.581028	0.431423
	H105	H	0.882810	0.574287	0.604957
	H106	H	0.116389	0.401278	0.605000
	H107	H	0.884091	0.404829	0.431459
	H108	H	0.903069	0.604455	0.102997
	H109	H	0.086387	0.373216	0.111794
	H110	H	0.080738	0.604413	0.916251
	H111	H	0.907128	0.374786	0.922624
	H112	H	0.091551	0.895145	0.628657
	H113	H	0.096718	0.084499	0.396153
	H114	H	0.912613	0.079371	0.625580
	H115	H	0.900997	0.900092	0.399290
	H116	H	0.616314	0.080673	0.922408
	H117	H	0.381447	0.076800	0.098489
	H118	H	0.617024	0.896092	0.100637
	H119	H	0.382262	0.896823	0.928148
	C120	C	0.379387	-0.002023	0.632578
	C121	C	0.621142	0.980936	0.636790
	C122	C	0.618656	-0.001667	0.391488
	C123	C	0.375172	0.980605	0.388015
	C124	C	0.619549	0.365525	0.020934
	C125	C	0.619114	0.610307	1.005068
	C126	C	0.375397	0.612658	0.021466
	C127	C	0.375721	0.367211	1.004059
	C128	C	0.007065	0.610243	0.394305
	C129	C	0.989591	0.611808	0.636211
	C130	C	0.007825	0.370699	0.635497
	C131	C	0.989616	0.370349	0.394420
	C132	C	0.877350	0.497677	0.136436
	C133	C	0.119866	0.480511	0.138726
	C134	C	0.117672	0.497394	0.893733
	C135	C	0.876396	0.481109	0.891318
	C136	C	0.120790	0.867351	0.522699
	C137	C	0.120145	0.113442	0.505722
	C138	C	0.876266	0.114604	0.522464
	C139	C	0.877843	0.868660	0.505897
	C140	C	0.506261	0.109390	0.892295
	C141	C	0.488992	0.109350	0.132947
	C142	C	0.508034	0.868413	0.133029
	C143	C	0.489673	0.868749	0.891308
	C144	C	0.374506	0.878557	0.692982
	C145	C	0.624139	0.100552	0.696825
	C146	C	0.622327	0.877642	0.333894
	C147	C	0.371815	0.100639	0.328810
	C148	C	0.677265	0.366734	0.900926
	C149	C	0.676809	0.608088	0.125938
	C150	C	0.316630	0.608979	0.900995
	C151	C	0.321230	0.369546	0.125767
	C152	C	0.882821	0.667560	0.394450
	C153	C	0.114017	0.667928	0.637242
	C154	C	0.884190	0.312710	0.635129
	C155	C	0.113378	0.311677	0.394793
	C156	C	0.884119	0.369415	0.692239
	C157	C	0.113008	0.612660	0.695829
	C158	C	0.883187	0.612015	0.336037
	C159	C	0.112579	0.367001	0.336582
	C160	C	0.371709	0.669988	0.901362
	C161	C	0.622724	0.669850	0.124174
	C162	C	0.621444	0.306474	0.901828
	C163	C	0.373039	0.307061	0.123152
	C164	C	0.676032	0.876228	0.395804
	C165	C	0.676052	0.103410	0.634158
	C166	C	0.321712	0.876683	0.630697
	C167	C	0.317041	0.102413	0.389670
	C168	C	0.875083	0.377746	0.195518
	C169	C	0.120928	0.601663	0.195751
	C170	C	0.121719	0.377608	0.834474
	C171	C	0.871666	0.601475	0.832601
	C172	C	0.174394	0.870186	0.400743
	C173	C	0.180168	0.110909	0.625938
	C174	C	0.818905	0.111340	0.401031
	C175	C	0.823238	0.873239	0.627641
	C176	C	0.382479	0.167790	0.889674
	C177	C	0.612346	0.167644	0.134852
	C178	C	0.383012	0.812988	0.130361
	C179	C	0.613702	0.810552	0.892691
	C180	C	0.383856	0.868872	0.188750
	C181	C	0.612564	0.110898	0.192356
	C182	C	0.383692	0.112113	0.831291
	C183	C	0.614020	0.867665	0.835770
	C184	C	0.873985	0.172477	0.402506
	C185	C	0.124741	0.171739	0.625414
	C186	C	0.121097	0.808049	0.403393
	C187	C	0.877055	0.811536	0.626358
	C188	C	0.174678	0.375235	0.896270
	C189	C	0.175039	0.602749	0.134192
	C190	C	0.822596	0.375021	0.132811
	C191	C	0.818289	0.602856	0.894668
	C192	C	0.404467	0.081784	0.609454
	C193	C	0.597209	0.896335	0.613229
	C194	C	0.593474	0.083150	0.413552
	C195	C	0.400625	0.896639	0.411597
	C196	C	0.595288	0.389411	0.104750
	C197	C	0.593708	0.587077	0.921218
	C198	C	0.400824	0.590675	0.105574
	C199	C	0.398952	0.390436	0.920424
	C200	C	0.093627	0.585757	0.418290
	C201	C	0.903434	0.588142	0.611589
	C202	C	0.093726	0.395160	0.612414
	C203	C	0.903624	0.395502	0.418084
	C204	C	0.901397	0.582206	0.113358
	C205	C	0.096097	0.395801	0.116357
	C206	C	0.092677	0.581808	0.916702
	C207	C	0.902233	0.396991	0.913779
	C208	C	0.098220	0.890682	0.606681
	C209	C	0.093340	0.090563	0.422180
	C210	C	0.901676	0.091278	0.606244
	C211	C	0.901005	0.890363	0.421814
	C212	C	0.592017	0.084810	0.918123
	C213	C	0.403002	0.084851	0.108202
	C214	C	0.594324	0.891607	0.110730
	C215	C	0.403182	0.893037	0.913965
	Zn216	Zn	0.498981	-0.010610	0.763992
	Zn217	Zn	0.498716	-0.010846	0.261016
	Zn218	Zn	0.748973	0.488283	0.013990
	Zn219	Zn	0.247250	0.488698	0.014222
	Zn220	Zn	-0.001027	0.737925	0.515045
	Zn221	Zn	-0.001315	0.243994	0.514793
	Zn222	Zn	-0.001356	0.490353	0.762918
	Zn223	Zn	-0.001994	0.489828	0.266773
	Zn224	Zn	0.498054	0.741147	0.012031
	Zn225	Zn	0.496234	0.237550	0.013028
	Zn226	Zn	0.747945	-0.009057	0.514254
	Zn227	Zn	0.249244	-0.009702	0.512285
	N228	N	0.409634	0.955025	0.694406
	N229	N	0.590760	0.023317	0.698620
	N230	N	0.587460	0.954552	0.331138
	N231	N	0.407167	0.023987	0.327510
	N232	N	0.676415	0.402577	0.976286
	N233	N	0.674623	0.571893	0.050824
	N234	N	0.318745	0.574154	0.976772
	N235	N	0.322676	0.406509	0.050998
	N236	N	0.960958	0.666462	0.430147
	N237	N	0.036264	0.667408	0.600815
	N238	N	0.962017	0.313578	0.600624
	N239	N	0.035953	0.313907	0.430352
	N240	N	0.961946	0.404955	0.692505
	N241	N	0.034528	0.578685	0.695477
	N242	N	0.961619	0.576842	0.335968
	N243	N	0.034581	0.402762	0.336242
	N244	N	0.407643	0.672318	0.977298
	N245	N	0.587535	0.671443	0.047780
	N246	N	0.586288	0.305759	0.977643
	N247	N	0.406161	0.305365	0.046526
	N248	N	0.673976	0.952526	0.430699
	N249	N	0.674443	0.027943	0.597564
	N250	N	0.324532	0.951826	0.593692
	N251	N	0.318868	0.026751	0.425713
	N252	N	0.908419	0.455006	0.197754
	N253	N	0.087407	0.524569	0.198423
	N254	N	0.087010	0.454622	0.832795
	N255	N	0.907095	0.524729	0.830247
	N256	N	0.174378	0.906485	0.475875
	N257	N	0.177353	0.075542	0.550563
	N258	N	0.819781	0.076461	0.476792
	N259	N	0.823356	0.908135	0.551818
	N260	N	0.459805	0.166240	0.927000
	N261	N	0.534570	0.166926	0.098829
	N262	N	0.461265	0.812534	0.096575
	N263	N	0.535251	0.811014	0.926289
	N264	N	0.462524	0.902510	0.190762
	N265	N	0.534710	0.075408	0.191352
	N266	N	0.461619	0.076362	0.833013
	N267	N	0.535861	0.903031	0.834734
	N268	N	0.908738	0.174785	0.479101
	N269	N	0.088092	0.173322	0.549647
	N270	N	0.088810	0.806077	0.480187
	N271	N	0.910350	0.808528	0.549789
	N272	N	0.172296	0.450643	0.932658
	N273	N	0.174725	0.526391	0.099461
	N274	N	0.823845	0.450712	0.096683
	N275	N	0.820846	0.527048	0.930176
	O276	O	0.414173	0.593469	0.599920
	H277	H	0.407789	0.596126	0.595290
	H278	H	0.431957	0.601353	0.596497
	O279	O	0.412328	0.304332	0.579865
	H280	H	0.401758	0.307602	0.583182
	H281	H	0.399019	0.290103	0.581478
	O282	O	1.154318	0.007037	1.081949
	H283	H	1.148424	-0.011773	1.077613
	H284	H	1.146126	0.021590	1.088097
	O285	O	0.633876	0.506536	0.394102
	H286	H	0.630052	0.507596	0.409286
	H287	H	0.634115	0.504111	0.386712
	O288	O	0.937993	1.086107	1.025726
	H289	H	0.940361	1.084429	1.025822
	H290	H	0.930333	1.095826	1.015265
	O291	O	0.679265	1.354052	-0.597701
	H292	H	0.687236	1.358024	-0.590321
	H293	H	0.677149	1.368472	-0.593906
	O294	O	0.355660	0.538112	0.496398
	H295	H	0.352536	0.530319	0.502625
	H296	H	0.354888	0.539576	0.492217
	O297	O	0.493631	0.314025	0.367313
	H298	H	0.496420	0.301702	0.357240
	H299	H	0.505602	0.311869	0.363387
	O300	O	0.522591	0.608323	0.317209
	H301	H	0.515208	0.600751	0.319192
	H302	H	0.518783	0.608771	0.309971
	O303	O	0.577058	0.521294	0.326337
	H304	H	0.575380	0.520588	0.328806
	H305	H	0.564409	0.514504	0.340298
	O306	O	0.547441	0.290475	0.498683
	H307	H	0.548364	0.274804	0.494707
	H308	H	0.548974	0.298330	0.477657
	O309	O	0.680561	0.459732	0.640913
	H310	H	0.667614	0.453174	0.640241
	H311	H	0.688593	0.452711	0.645336
	O312	O	-0.126205	-0.162036	0.025424
	H313	H	-0.113869	-0.174755	0.017478
	H314	H	-0.129852	-0.166437	0.012112
	O315	O	0.457987	0.636041	0.598051
	H316	H	0.456730	0.642944	0.599257
	H317	H	0.471270	0.642968	0.610293
	O318	O	-0.029163	0.912346	1.073126
	H319	H	-0.030297	0.905103	1.061489
	H320	H	-0.021884	0.911495	1.066311
	O321	O	0.513474	0.461154	0.637152
	H322	H	0.521685	0.444507	0.642467
	H323	H	0.515046	0.463305	0.639326
	O324	O	0.091814	1.146334	0.042339
	H325	H	0.085265	1.144945	0.043559
	H326	H	0.088382	1.154161	0.057175
	O327	O	-0.000609	-0.099134	0.096725
	H328	H	-0.012015	-0.120222	0.098464
	H329	H	-0.007913	-0.080556	0.106575
	O330	O	0.041090	-0.079584	0.932795
	H331	H	0.054782	-0.079981	0.927274
	H332	H	0.049101	-0.080073	0.933686
	O333	O	0.007174	-0.124562	1.040132
	H334	H	-0.001058	-0.130814	1.051341
	H335	H	0.017952	-0.128126	1.030897
	O336	O	0.427162	0.453232	0.673569
	H337	H	0.433391	0.456774	0.667199
	H338	H	0.422018	0.474788	0.673376
	O339	O	0.886637	0.166709	-0.066752
	H340	H	0.855680	0.190617	-0.062227
	H341	H	0.891868	0.150186	-0.085386
	O342	O	-0.148332	-0.013828	0.098704
	H343	H	-0.146679	-0.028873	0.104312
	H344	H	-0.161441	-0.023995	0.106086
	O345	O	0.916831	-0.061584	1.002316
	H346	H	0.917828	-0.058460	0.999508
	H347	H	0.925210	-0.072361	1.003520
	O348	O	1.070143	0.972224	0.001329
	H349	H	1.072176	0.969410	-0.003254
	H350	H	1.072278	0.983755	0.012106
	O351	O	0.646606	0.549462	0.679717
	H352	H	0.650015	0.529305	0.680511
	H353	H	0.651291	0.550724	0.660019
	O354	O	0.889537	-0.024304	0.854922
	H355	H	0.901492	-0.030819	0.847315
	H356	H	0.888427	-0.027342	0.857485
	O357	O	0.312433	0.676748	0.476949
	H358	H	0.305080	0.691358	0.471057
	H359	H	0.311591	0.684373	0.454369
	O360	O	0.571568	0.676764	0.716879
	H361	H	0.579018	0.686392	0.723550
	H362	H	0.596183	0.665588	0.713931
	O363	O	0.044139	0.881117	1.018502
	H364	H	0.038480	0.878998	1.013026
	H365	H	0.033579	0.892838	1.011239
	O366	O	0.451056	0.366438	0.518652
	H367	H	0.446636	0.356602	0.534011
	H368	H	0.452561	0.374619	0.510621
	O369	O	0.012429	1.154895	0.120997
	H370	H	0.028490	1.151924	0.120739
	H371	H	0.005367	1.165765	0.125822
	O372	O	0.392070	0.439281	0.631365
	H373	H	0.407767	0.451985	0.642426
	H374	H	0.382008	0.451279	0.624562
	O375	O	0.443552	0.396898	0.387113
	H376	H	0.439712	0.389046	0.384211
	H377	H	0.439168	0.396413	0.407865
	O378	O	1.109755	0.936286	-0.117745
	H379	H	1.127610	0.930809	-0.123811
	H380	H	1.108072	0.942931	-0.115618
	O381	O	1.023784	-0.004331	-0.036289
	H382	H	1.004334	-0.000144	-0.034277
	H383	H	1.023849	-0.008417	-0.033246
	O384	O	1.394293	1.349842	-0.413116
	H385	H	1.404429	1.348421	-0.404966
	H386	H	1.392031	1.367793	-0.409984
	O387	O	0.086204	-0.064773	0.179857
	H388	H	0.082663	-0.068961	0.175887
	H389	H	0.068002	-0.063311	0.177092
	O390	O	0.041600	1.109898	-0.124702
	H391	H	0.047032	1.114001	-0.123757
	H392	H	0.036599	1.116131	-0.125243
	O393	O	0.520299	0.661833	0.499155
	H394	H	0.508126	0.657214	0.522660
	H395	H	0.514879	0.667393	0.494530
	O396	O	0.394520	0.472945	0.398948
	H397	H	0.379532	0.486897	0.393953
	H398	H	0.403961	0.462482	0.403407
	O399	O	-0.067715	1.021291	1.116177
	H400	H	-0.070202	1.027365	1.117945
	H401	H	-0.075421	1.039141	1.105173
	O402	O	0.379190	0.673646	0.307013
	H403	H	0.392166	0.652745	0.294110
	H404	H	0.359481	0.678653	0.291363
	O405	O	0.995718	1.086413	0.042169
	H406	H	0.998306	1.102903	0.051389
	H407	H	0.984769	1.093168	0.034567
	O408	O	0.960646	0.982118	-0.062789
	H409	H	0.967532	0.978897	-0.066439
	H410	H	0.977978	0.986408	-0.060063
	O411	O	1.062730	-0.080759	1.011249
	H412	H	1.063172	-0.087871	1.022570
	H413	H	1.058540	-0.079846	1.011298
	O414	O	0.648003	0.561576	0.444405
	H415	H	0.636169	0.549544	0.439092
	H416	H	0.627295	0.560240	0.445419
	O417	O	0.608204	0.487571	0.526580
	H418	H	0.598382	0.493283	0.517334
	H419	H	0.599063	0.492052	0.511528
