data_Molecule from HDF5

_cell_length_a		16.304664
_cell_length_b		16.345742
_cell_length_c		16.232199
_cell_angle_alpha	89.948747
_cell_angle_beta	90.190782
_cell_angle_gamma	89.936821
_symmetry_space_group_name_H-M	'P 1'
_symmetry_Int_Tables_number		1

loop_
	_symmetry_equiv_pos_as_xyz
	x,y,z

loop_
	_atom_site_label
	_atom_site_type_symbol
	_atom_site_fract_x
	_atom_site_fract_y
	_atom_site_fract_z
	H0	H	0.394188	0.827171	0.726294
	H1	H	0.596540	0.150447	0.729212
	H2	H	0.595683	0.827002	0.294814
	H3	H	0.390530	0.150323	0.287988
	H4	H	0.715461	0.385571	0.848559
	H5	H	0.716493	0.589356	0.174173
	H6	H	0.279649	0.591258	0.849327
	H7	H	0.279841	0.384179	0.172517
	H8	H	0.834461	0.707181	0.407430
	H9	H	0.158019	0.708684	0.613792
	H10	H	0.835194	0.270531	0.615734
	H11	H	0.155802	0.267464	0.405682
	H12	H	0.836111	0.387729	0.729354
	H13	H	0.159024	0.591881	0.727829
	H14	H	0.835657	0.591348	0.291075
	H15	H	0.160294	0.388209	0.296557
	H16	H	0.395343	0.705265	0.848856
	H17	H	0.601144	0.705962	0.173924
	H18	H	0.603189	0.267970	0.849962
	H19	H	0.394067	0.268140	0.171990
	H20	H	0.713780	0.827495	0.410066
	H21	H	0.715141	0.149613	0.616410
	H22	H	0.277660	0.828474	0.611712
	H23	H	0.275602	0.151356	0.405724
	H24	H	0.896177	0.327832	0.230302
	H25	H	0.102568	0.649954	0.229853
	H26	H	0.101382	0.327940	0.791120
	H27	H	0.898765	0.651189	0.795732
	H28	H	0.212149	0.889763	0.348228
	H29	H	0.213548	0.093358	0.673189
	H30	H	0.774206	0.094291	0.349502
	H31	H	0.780911	0.889646	0.674660
	H32	H	0.337361	0.211226	0.903976
	H33	H	0.657466	0.207473	0.116611
	H34	H	0.335460	0.768779	0.113690
	H35	H	0.658749	0.771631	0.910410
	H36	H	0.334324	0.886550	0.227654
	H37	H	0.656967	0.092528	0.231823
	H38	H	0.333635	0.089611	0.794518
	H39	H	0.658027	0.888091	0.795341
	H40	H	0.890018	0.209760	0.349544
	H41	H	0.097338	0.207550	0.672632
	H42	H	0.098478	0.772116	0.347957
	H43	H	0.894109	0.772444	0.672766
	H44	H	0.217791	0.327810	0.907718
	H45	H	0.217807	0.649824	0.113951
	H46	H	0.779208	0.327525	0.115898
	H47	H	0.778876	0.649455	0.908450
	H48	H	0.404899	0.104295	0.599991
	H49	H	0.583376	0.876458	0.600107
	H50	H	0.594616	0.106248	0.424301
	H51	H	0.405890	0.874426	0.415617
	H52	H	0.597165	0.392562	0.130970
	H53	H	0.578525	0.584657	0.897030
	H54	H	0.408663	0.583445	0.128553
	H55	H	0.408760	0.408318	0.898917
	H56	H	0.113058	0.577746	0.415201
	H57	H	0.878583	0.584646	0.606242
	H58	H	0.112706	0.399472	0.604157
	H59	H	0.878988	0.398449	0.413821
	H60	H	0.112491	0.393130	0.597832
	H61	H	0.883396	0.583628	0.595166
	H62	H	0.114286	0.588846	0.419284
	H63	H	0.882253	0.395826	0.425163
	H64	H	0.404335	0.576610	0.127900
	H65	H	0.597480	0.585124	0.892383
	H66	H	0.590308	0.407684	0.123266
	H67	H	0.417011	0.395298	0.898050
	H68	H	0.579772	0.104376	0.412336
	H69	H	0.594844	0.872516	0.600375
	H70	H	0.402217	0.105767	0.603311
	H71	H	0.406733	0.878573	0.423819
	H72	H	0.911319	0.604812	0.107749
	H73	H	0.090444	0.373959	0.101092
	H74	H	0.086344	0.603325	0.918874
	H75	H	0.905734	0.374028	0.922801
	H76	H	0.089087	0.905680	0.625368
	H77	H	0.089620	0.076079	0.394185
	H78	H	0.901606	0.079694	0.626776
	H79	H	0.908674	0.897969	0.395795
	H80	H	0.609511	0.072920	0.920541
	H81	H	0.386884	0.074161	0.089685
	H82	H	0.608902	0.903289	0.100919
	H83	H	0.382111	0.902321	0.919247
	H84	H	0.614058	0.895660	0.110069
	H85	H	0.381485	0.072924	0.105084
	H86	H	0.614120	0.080672	0.915299
	H87	H	0.377183	0.891220	0.913767
	H88	H	0.907094	0.077349	0.625099
	H89	H	0.079564	0.075798	0.398918
	H90	H	0.079036	0.896739	0.625127
	H91	H	0.900383	0.895591	0.392158
	H92	H	0.089924	0.602884	0.923360
	H93	H	0.089770	0.375196	0.102948
	H94	H	0.912543	0.598351	0.093072
	H95	H	0.904476	0.371470	0.916920
	H96	H	0.406294	0.104631	0.604117
	H97	H	0.587345	0.871567	0.609451
	H98	H	0.578578	0.098310	0.430375
	H99	H	0.398857	0.874425	0.421809
	H100	H	0.579461	0.393030	0.124806
	H101	H	0.590063	0.568547	0.898233
	H102	H	0.412554	0.576809	0.124950
	H103	H	0.401881	0.395479	0.892472
	H104	H	0.110060	0.580032	0.426875
	H105	H	0.883036	0.574147	0.602251
	H106	H	0.109392	0.402152	0.595556
	H107	H	0.884975	0.407001	0.420646
	H108	H	0.899613	0.604390	0.098420
	H109	H	0.089212	0.374333	0.100911
	H110	H	0.091704	0.604240	0.918356
	H111	H	0.910360	0.373583	0.918160
	H112	H	0.091307	0.893759	0.629409
	H113	H	0.083128	0.085127	0.393923
	H114	H	0.907000	0.083180	0.627257
	H115	H	0.901410	0.904049	0.396163
	H116	H	0.610438	0.081571	0.924893
	H117	H	0.380190	0.086705	0.097109
	H118	H	0.612122	0.891813	0.097191
	H119	H	0.381753	0.890941	0.926391
	C120	C	0.374033	-0.001924	0.632142
	C121	C	0.618282	0.980206	0.634112
	C122	C	0.615584	-0.003238	0.391297
	C123	C	0.372736	0.981966	0.388437
	C124	C	0.619889	0.366555	0.019604
	C125	C	0.619739	0.609786	1.003032
	C126	C	0.377275	0.609342	0.019753
	C127	C	0.377491	0.367249	1.002647
	C128	C	0.005445	0.612190	0.388579
	C129	C	0.988356	0.611568	0.632069
	C130	C	0.004944	0.368088	0.631215
	C131	C	0.988401	0.368046	0.389054
	C132	C	0.877255	0.496639	0.131529
	C133	C	0.120761	0.480714	0.132725
	C134	C	0.120242	0.497070	0.888944
	C135	C	0.876404	0.480215	0.888999
	C136	C	0.117184	0.868325	0.519133
	C137	C	0.115803	0.110569	0.502538
	C138	C	0.873246	0.111714	0.519723
	C139	C	0.874536	0.868917	0.502209
	C140	C	0.504926	0.109994	0.888887
	C141	C	0.488566	0.109360	0.130829
	C142	C	0.505103	0.866281	0.132984
	C143	C	0.487639	0.865715	0.889757
	C144	C	0.374643	0.875875	0.688207
	C145	C	0.616730	0.101838	0.691246
	C146	C	0.615507	0.875452	0.333547
	C147	C	0.372057	0.102424	0.328484
	C148	C	0.677491	0.366150	0.897588
	C149	C	0.677772	0.609310	0.125244
	C150	C	0.318920	0.610053	0.897749
	C151	C	0.318855	0.365578	0.124010
	C152	C	0.883444	0.669197	0.387785
	C153	C	0.109784	0.669457	0.632368
	C154	C	0.883804	0.309999	0.633444
	C155	C	0.108519	0.307738	0.387542
	C156	C	0.883988	0.368347	0.690177
	C157	C	0.110318	0.611532	0.689501
	C158	C	0.884157	0.611243	0.330096
	C159	C	0.110660	0.368145	0.333264
	C160	C	0.376361	0.666922	0.897608
	C161	C	0.620040	0.667089	0.125363
	C162	C	0.621301	0.307789	0.898157
	C163	C	0.375692	0.307535	0.123700
	C164	C	0.674246	0.875717	0.390745
	C165	C	0.675906	0.101523	0.634921
	C166	C	0.316440	0.876535	0.631195
	C167	C	0.314538	0.103011	0.386909
	C168	C	0.876975	0.375625	0.190609
	C169	C	0.121492	0.601438	0.190988
	C170	C	0.120242	0.375998	0.830686
	C171	C	0.877907	0.602320	0.833122
	C172	C	0.173993	0.869456	0.396957
	C173	C	0.174298	0.111420	0.624660
	C174	C	0.813779	0.113086	0.397960
	C175	C	0.818567	0.869641	0.625290
	C176	C	0.384727	0.170180	0.886887
	C177	C	0.609500	0.167928	0.134130
	C178	C	0.383598	0.808067	0.132930
	C179	C	0.610123	0.810252	0.890987
	C180	C	0.382875	0.866774	0.189469
	C181	C	0.608920	0.110818	0.191712
	C182	C	0.382778	0.109812	0.832120
	C183	C	0.609535	0.867836	0.833480
	C184	C	0.871375	0.170556	0.397858
	C185	C	0.116678	0.168519	0.624257
	C186	C	0.117385	0.810900	0.396882
	C187	C	0.875008	0.811236	0.624466
	C188	C	0.178481	0.375936	0.888529
	C189	C	0.179057	0.601496	0.133103
	C190	C	0.818844	0.375399	0.133727
	C191	C	0.818265	0.601225	0.889277
	C192	C	0.397573	0.082612	0.609280
	C193	C	0.595194	0.895395	0.610350
	C194	C	0.591367	0.081157	0.415437
	C195	C	0.396790	0.897706	0.413252
	C196	C	0.595915	0.390623	0.104254
	C197	C	0.595782	0.586215	0.917958
	C198	C	0.401477	0.585640	0.105030
	C199	C	0.402186	0.392350	0.918325
	C200	C	0.090392	0.589074	0.413284
	C201	C	0.903702	0.587650	0.608169
	C202	C	0.089338	0.391551	0.606385
	C203	C	0.903861	0.393148	0.412944
	C204	C	0.900851	0.580582	0.106972
	C205	C	0.096820	0.396349	0.108530
	C206	C	0.096350	0.581551	0.913231
	C207	C	0.900078	0.395118	0.912265
	C208	C	0.093488	0.891694	0.604460
	C209	C	0.091191	0.086091	0.417623
	C210	C	0.898093	0.087362	0.604302
	C211	C	0.897101	0.892288	0.416891
	C212	C	0.589463	0.085443	0.913150
	C213	C	0.404528	0.084992	0.104779
	C214	C	0.589581	0.890062	0.109466
	C215	C	0.402391	0.888160	0.912905
	Zn216	Zn	0.495064	-0.012068	0.761171
	Zn217	Zn	0.495332	-0.010830	0.259966
	Zn218	Zn	0.747791	0.487450	0.011095
	Zn219	Zn	0.249387	0.488854	0.011054
	Zn220	Zn	-0.004314	0.740188	0.510906
	Zn221	Zn	-0.004714	0.239553	0.510342
	Zn222	Zn	-0.002000	0.489096	0.759926
	Zn223	Zn	-0.001940	0.489028	0.260745
	Zn224	Zn	0.497357	0.737688	0.011540
	Zn225	Zn	0.498416	0.238922	0.010591
	Zn226	Zn	0.746055	-0.010539	0.511630
	Zn227	Zn	0.244674	-0.009145	0.511188
	N228	N	0.409598	0.952320	0.689032
	N229	N	0.581667	0.025254	0.690834
	N230	N	0.579720	0.951765	0.333755
	N231	N	0.407291	0.026025	0.329234
	N232	N	0.676844	0.401764	0.974175
	N233	N	0.677637	0.574332	0.048279
	N234	N	0.319261	0.574989	0.974816
	N235	N	0.319727	0.401919	0.047658
	N236	N	0.959973	0.670093	0.423194
	N237	N	0.032940	0.669726	0.597509
	N238	N	0.959970	0.309899	0.597371
	N239	N	0.031421	0.307679	0.421535
	N240	N	0.960349	0.403761	0.688988
	N241	N	0.033798	0.576149	0.689504
	N242	N	0.961180	0.576721	0.330420
	N243	N	0.034735	0.404851	0.334102
	N244	N	0.411946	0.666443	0.974541
	N245	N	0.585087	0.667900	0.048080
	N246	N	0.586282	0.307719	0.974963
	N247	N	0.411632	0.308436	0.047138
	N248	N	0.674407	0.952245	0.425788
	N249	N	0.676843	0.025024	0.600054
	N250	N	0.315812	0.953537	0.597089
	N251	N	0.314988	0.027056	0.423602
	N252	N	0.912755	0.451604	0.189328
	N253	N	0.085819	0.525384	0.190676
	N254	N	0.084873	0.452340	0.830876
	N255	N	0.913351	0.525866	0.832950
	N256	N	0.173938	0.904414	0.473938
	N257	N	0.173904	0.076188	0.547667
	N258	N	0.814579	0.077437	0.474650
	N259	N	0.818068	0.904740	0.548298
	N260	N	0.461982	0.170623	0.921211
	N261	N	0.533752	0.167049	0.096935
	N262	N	0.460588	0.807453	0.098685
	N263	N	0.533182	0.808667	0.924884
	N264	N	0.459301	0.902319	0.189606
	N265	N	0.532608	0.074942	0.189573
	N266	N	0.458645	0.073173	0.833093
	N267	N	0.532207	0.901655	0.832390
	N268	N	0.907604	0.169860	0.474544
	N269	N	0.081322	0.168077	0.547364
	N270	N	0.082763	0.810175	0.474065
	N271	N	0.909102	0.810674	0.547014
	N272	N	0.178634	0.452327	0.923916
	N273	N	0.178713	0.525228	0.097554
	N274	N	0.818875	0.451501	0.097461
	N275	N	0.817361	0.524107	0.923161
	O276	O	0.303989	0.585624	0.392072
	H277	H	0.320081	0.597159	0.398561
	H278	H	0.285199	0.584160	0.387270
	O279	O	0.400502	0.325575	0.467250
	H280	H	0.399729	0.320312	0.476035
	H281	H	0.385285	0.313533	0.468562
	O282	O	1.142963	0.043012	0.943404
	H283	H	1.151784	0.038508	0.947099
	H284	H	1.147004	0.037342	0.926638
	O285	O	0.696842	0.304269	0.436429
	H286	H	0.694171	0.288838	0.423794
	H287	H	0.691559	0.297499	0.427173
	O288	O	1.032126	1.109776	1.009343
	H289	H	1.024026	1.110136	1.009195
	H290	H	1.024265	1.115354	1.019721
	O291	O	0.517895	1.442366	-0.289911
	H292	H	0.516571	1.454549	-0.304146
	H293	H	0.511899	1.438690	-0.285566
	O294	O	0.685591	0.487256	0.556326
	H295	H	0.680667	0.467853	0.564446
	H296	H	0.682520	0.479101	0.551848
	O297	O	0.462874	0.643566	0.649062
	H298	H	0.479156	0.632693	0.639330
	H299	H	0.469898	0.662971	0.662482
	O300	O	0.503043	0.628206	0.595566
	H301	H	0.517672	0.625842	0.597321
	H302	H	0.512195	0.651304	0.600437
	O303	O	0.393471	0.466655	0.491760
	H304	H	0.402355	0.467544	0.495473
	H305	H	0.391368	0.466444	0.493799
	O306	O	0.647529	0.647762	0.542928
	H307	H	0.648663	0.641428	0.534570
	H308	H	0.654329	0.639415	0.552368
	O309	O	0.598021	0.418376	0.328166
	H310	H	0.583609	0.424908	0.325510
	H311	H	0.599160	0.427462	0.323141
	O312	O	-0.143338	0.154118	-0.000047
	H313	H	-0.139805	0.162648	-0.006088
	H314	H	-0.145571	0.142405	-0.001033
	O315	O	0.551969	0.450782	0.520074
	H316	H	0.540998	0.449875	0.521072
	H317	H	0.554076	0.444752	0.515314
	O318	O	-0.097493	0.932974	1.084603
	H319	H	-0.098451	0.944889	1.097440
	H320	H	-0.115200	0.928077	1.091227
	O321	O	0.431404	0.593867	0.604863
	H322	H	0.424687	0.598172	0.600149
	H323	H	0.455909	0.596725	0.587901
	O324	O	0.081655	0.982079	-0.102934
	H325	H	0.087905	0.984593	-0.120271
	H326	H	0.071544	0.957024	-0.099801
	O327	O	-0.067304	0.071495	-0.152087
	H328	H	-0.063838	0.058539	-0.144590
	H329	H	-0.068077	0.083380	-0.161091
	O330	O	0.012556	-0.170966	0.960300
	H331	H	0.021236	-0.169759	0.982988
	H332	H	-0.007065	-0.182042	0.958095
	O333	O	0.039658	-0.158961	1.017241
	H334	H	0.032299	-0.153388	1.015204
	H335	H	0.037090	-0.167205	1.028715
	O336	O	0.407775	0.572812	0.516914
	H337	H	0.411194	0.572880	0.534969
	H338	H	0.404580	0.568432	0.523009
	O339	O	0.884246	0.126731	0.044130
	H340	H	0.896141	0.148026	0.028368
	H341	H	0.884166	0.139587	0.039955
	O342	O	0.036376	0.131052	0.181569
	H343	H	0.054008	0.122999	0.182490
	H344	H	0.049571	0.135830	0.192655
	O345	O	0.887197	-0.057103	1.051976
	H346	H	0.890589	-0.062536	1.060938
	H347	H	0.877237	-0.057711	1.051065
	O348	O	1.143602	0.848303	-0.007866
	H349	H	1.143373	0.845440	-0.010693
	H350	H	1.135485	0.844967	-0.005928
	O351	O	0.456133	0.299064	0.600753
	H352	H	0.457501	0.287658	0.597533
	H353	H	0.461240	0.303024	0.617120
	O354	O	1.013224	0.083418	0.950557
	H355	H	1.022791	0.077976	0.940896
	H356	H	1.012824	0.079434	0.952170
	O357	O	0.555389	0.539520	0.545100
	H358	H	0.554740	0.547040	0.542996
	H359	H	0.557024	0.543371	0.558356
	O360	O	0.842249	0.757073	0.813880
	H361	H	0.842760	0.767445	0.800366
	H362	H	0.841960	0.754309	0.834795
	O363	O	-0.177011	0.957608	0.970468
	H364	H	-0.183241	0.964784	0.974048
	H365	H	-0.162671	0.950950	0.975489
	O366	O	0.529942	0.352297	0.471158
	H367	H	0.537816	0.357312	0.476462
	H368	H	0.519035	0.354980	0.483862
	O369	O	0.022105	1.156453	-0.093278
	H370	H	0.026290	1.149784	-0.083653
	H371	H	0.015006	1.152218	-0.095690
	O372	O	0.339435	0.369445	0.612358
	H373	H	0.350912	0.374659	0.615622
	H374	H	0.336206	0.367369	0.603225
	O375	O	0.514729	0.561551	0.353150
	H376	H	0.518534	0.570227	0.360458
	H377	H	0.510815	0.571139	0.352898
	O378	O	1.032882	0.975589	-0.097108
	H379	H	1.034532	0.982411	-0.099908
	H380	H	1.028324	0.972607	-0.089829
	O381	O	0.985246	-0.124551	0.169815
	H382	H	0.977043	-0.121440	0.182621
	H383	H	0.993285	-0.105304	0.161414
	O384	O	1.347193	1.505110	-0.540691
	H385	H	1.341376	1.487933	-0.547712
	H386	H	1.342979	1.516983	-0.529967
	O387	O	-0.006930	-0.060657	0.199970
	H388	H	-0.000044	-0.049966	0.206038
	H389	H	-0.018042	-0.047092	0.210599
	O390	O	-0.103680	1.025413	0.119937
	H391	H	-0.087659	1.040855	0.110810
	H392	H	-0.109442	1.032829	0.141361
	O393	O	0.540376	0.390420	0.591705
	H394	H	0.541055	0.406640	0.591565
	H395	H	0.553272	0.377572	0.580239
	O396	O	0.661015	0.511510	0.664802
	H397	H	0.671915	0.506331	0.672300
	H398	H	0.641366	0.493591	0.661936
	O399	O	0.109608	0.888987	0.994043
	H400	H	0.094597	0.889971	1.001644
	H401	H	0.103017	0.889105	0.978137
	O402	O	0.410476	0.598887	0.380571
	H403	H	0.400306	0.589373	0.385971
	H404	H	0.406759	0.602434	0.392719
	O405	O	1.015863	0.973913	-0.011986
	H406	H	1.028355	0.971245	-0.011106
	H407	H	1.003257	0.966807	-0.023702
	O408	O	1.185359	1.039416	0.100695
	H409	H	1.185299	1.031685	0.103400
	H410	H	1.188453	1.032381	0.084959
	O411	O	0.852984	-0.083313	1.043703
	H412	H	0.851600	-0.094077	1.056900
	H413	H	0.866498	-0.093644	1.041888
	O414	O	0.501858	0.510486	0.404751
	H415	H	0.503344	0.509756	0.406716
	H416	H	0.498336	0.511912	0.424940
	O417	O	0.468334	0.411114	0.386740
	H418	H	0.444518	0.403572	0.394653
	H419	H	0.473227	0.412903	0.374982
