data_Molecule from HDF5

_cell_length_a		16.192798
_cell_length_b		16.058284
_cell_length_c		16.326953
_cell_angle_alpha	90.183918
_cell_angle_beta	90.481962
_cell_angle_gamma	89.741064
_symmetry_space_group_name_H-M	'P 1'
_symmetry_Int_Tables_number		1

loop_
	_symmetry_equiv_pos_as_xyz
	x,y,z

loop_
	_atom_site_label
	_atom_site_type_symbol
	_atom_site_fract_x
	_atom_site_fract_y
	_atom_site_fract_z
	H0	H	0.399886	0.835925	0.711040
	H1	H	0.600809	0.165763	0.715330
	H2	H	0.598433	0.837554	0.282906
	H3	H	0.394879	0.166430	0.284407
	H4	H	0.708351	0.401628	0.834249
	H5	H	0.710695	0.604555	0.159988
	H6	H	0.274962	0.601273	0.834518
	H7	H	0.280669	0.403210	0.161916
	H8	H	0.831056	0.712928	0.401760
	H9	H	0.162176	0.711072	0.597605
	H10	H	0.831534	0.285301	0.594391
	H11	H	0.161990	0.288098	0.403503
	H12	H	0.830344	0.398914	0.712521
	H13	H	0.158944	0.599366	0.718362
	H14	H	0.831679	0.602626	0.283310
	H15	H	0.157854	0.395398	0.281286
	H16	H	0.391820	0.717334	0.833640
	H17	H	0.590813	0.715311	0.161889
	H18	H	0.591406	0.287594	0.833983
	H19	H	0.396239	0.287259	0.161132
	H20	H	0.707700	0.834259	0.400982
	H21	H	0.710350	0.167016	0.596632
	H22	H	0.286732	0.834863	0.593797
	H23	H	0.281766	0.165868	0.397622
	H24	H	0.892632	0.335885	0.212853
	H25	H	0.094826	0.665260	0.216379
	H26	H	0.094467	0.336340	0.787597
	H27	H	0.890919	0.665646	0.781814
	H28	H	0.211239	0.900771	0.333183
	H29	H	0.216054	0.101802	0.660015
	H30	H	0.779594	0.099878	0.335136
	H31	H	0.783634	0.900874	0.660814
	H32	H	0.330319	0.214651	0.899191
	H33	H	0.660288	0.216442	0.097011
	H34	H	0.328883	0.793809	0.090072
	H35	H	0.659893	0.787317	0.902546
	H36	H	0.332375	0.902394	0.212945
	H37	H	0.660450	0.103751	0.216521
	H38	H	0.334816	0.105964	0.777153
	H39	H	0.661282	0.900203	0.786363
	H40	H	0.897096	0.214560	0.334625
	H41	H	0.097337	0.214673	0.661393
	H42	H	0.096413	0.781326	0.334668
	H43	H	0.904646	0.790243	0.662831
	H44	H	0.206002	0.336381	0.900569
	H45	H	0.207752	0.666832	0.099708
	H46	H	0.780590	0.336197	0.093900
	H47	H	0.781325	0.668580	0.901004
	H48	H	0.408699	0.121720	0.600812
	H49	H	0.582137	0.884432	0.595754
	H50	H	0.588287	0.121181	0.403994
	H51	H	0.414406	0.884300	0.403577
	H52	H	0.584454	0.415519	0.110934
	H53	H	0.590523	0.587590	0.880963
	H54	H	0.395478	0.599909	0.115955
	H55	H	0.395894	0.410393	0.880384
	H56	H	0.111249	0.585389	0.408557
	H57	H	0.877347	0.589747	0.596745
	H58	H	0.109482	0.415805	0.593639
	H59	H	0.879058	0.407228	0.409667
	H60	H	0.115982	0.406923	0.604140
	H61	H	0.875700	0.600990	0.593468
	H62	H	0.114728	0.589897	0.401869
	H63	H	0.879148	0.413447	0.402565
	H64	H	0.400632	0.591423	0.112496
	H65	H	0.577433	0.595747	0.882798
	H66	H	0.584801	0.405687	0.114447
	H67	H	0.399649	0.411971	0.883253
	H68	H	0.588153	0.119711	0.407884
	H69	H	0.593932	0.884117	0.583549
	H70	H	0.415687	0.115087	0.581926
	H71	H	0.400162	0.882091	0.410267
	H72	H	0.905537	0.619568	0.095794
	H73	H	0.095567	0.378915	0.090912
	H74	H	0.081534	0.622916	0.899182
	H75	H	0.905837	0.383868	0.902979
	H76	H	0.082431	0.906658	0.610808
	H77	H	0.087638	0.092808	0.381734
	H78	H	0.904756	0.099020	0.616233
	H79	H	0.899838	0.909304	0.380586
	H80	H	0.613827	0.096619	0.908101
	H81	H	0.378088	0.094881	0.092735
	H82	H	0.613673	0.908603	0.094157
	H83	H	0.379924	0.924467	0.896113
	H84	H	0.612831	0.908532	0.090954
	H85	H	0.379165	0.094634	0.091368
	H86	H	0.613338	0.092240	0.907053
	H87	H	0.372458	0.901800	0.892027
	H88	H	0.898814	0.090052	0.615397
	H89	H	0.090227	0.093920	0.381282
	H90	H	0.100195	0.897040	0.618387
	H91	H	0.904853	0.905503	0.381732
	H92	H	0.076471	0.617304	0.912221
	H93	H	0.081965	0.382314	0.098322
	H94	H	0.903531	0.618401	0.088068
	H95	H	0.899704	0.382367	0.910651
	H96	H	0.395195	0.121936	0.583683
	H97	H	0.598113	0.877662	0.598666
	H98	H	0.592579	0.121532	0.405840
	H99	H	0.401755	0.878406	0.395206
	H100	H	0.593222	0.411326	0.115896
	H101	H	0.591095	0.602513	0.877117
	H102	H	0.404900	0.600566	0.113394
	H103	H	0.400440	0.407236	0.881030
	H104	H	0.114278	0.593552	0.409977
	H105	H	0.880605	0.593474	0.585958
	H106	H	0.113725	0.400752	0.590572
	H107	H	0.875633	0.404260	0.400886
	H108	H	0.897817	0.621925	0.093122
	H109	H	0.083487	0.385516	0.085143
	H110	H	0.091357	0.622137	0.910900
	H111	H	0.895975	0.380255	0.901210
	H112	H	0.099070	0.917803	0.612579
	H113	H	0.089918	0.091043	0.381225
	H114	H	0.908652	0.089550	0.612928
	H115	H	0.899912	0.902988	0.379128
	H116	H	0.615387	0.094271	0.903788
	H117	H	0.378820	0.093374	0.092409
	H118	H	0.613007	0.911016	0.092297
	H119	H	0.380250	0.908294	0.913675
	C120	C	0.378140	0.009928	0.617506
	C121	C	0.620201	0.991911	0.620649
	C122	C	0.617836	0.010832	0.377464
	C123	C	0.375783	0.991514	0.375374
	C124	C	0.616139	0.381089	0.006066
	C125	C	0.615143	0.624298	0.988798
	C126	C	0.370363	0.625544	0.005952
	C127	C	0.371684	0.380669	0.989707
	C128	C	0.004571	0.620016	0.378117
	C129	C	0.987220	0.622209	0.621577
	C130	C	0.003887	0.378745	0.621636
	C131	C	0.986864	0.378376	0.376519
	C132	C	0.872969	0.510458	0.119849
	C133	C	0.115616	0.491745	0.120994
	C134	C	0.113040	0.510954	0.879012
	C135	C	0.871357	0.492475	0.876432
	C136	C	0.120618	0.877450	0.505560
	C137	C	0.119174	0.121775	0.489312
	C138	C	0.874554	0.121836	0.506750
	C139	C	0.874992	0.878228	0.488951
	C140	C	0.505424	0.123762	0.876315
	C141	C	0.487385	0.123942	0.121200
	C142	C	0.504169	0.881197	0.119454
	C143	C	0.486588	0.881126	0.874890
	C144	C	0.380205	0.885304	0.672839
	C145	C	0.619490	0.116449	0.676538
	C146	C	0.617051	0.886313	0.321396
	C147	C	0.376135	0.116820	0.321480
	C148	C	0.670968	0.382294	0.883216
	C149	C	0.671692	0.623880	0.111391
	C150	C	0.313123	0.622420	0.883387
	C151	C	0.317816	0.382566	0.112740
	C152	C	0.880527	0.675893	0.380860
	C153	C	0.111944	0.675298	0.619263
	C154	C	0.880152	0.323344	0.616333
	C155	C	0.111565	0.323839	0.381236
	C156	C	0.879892	0.379665	0.675196
	C157	C	0.110464	0.619401	0.678881
	C158	C	0.880801	0.620913	0.321630
	C159	C	0.109798	0.377925	0.320820
	C160	C	0.371492	0.679941	0.882806
	C161	C	0.612011	0.678925	0.112421
	C162	C	0.612820	0.325333	0.882961
	C163	C	0.375562	0.324965	0.112405
	C164	C	0.671638	0.884787	0.380021
	C165	C	0.674256	0.117059	0.617683
	C166	C	0.323700	0.884695	0.614732
	C167	C	0.319680	0.116401	0.377799
	C168	C	0.873613	0.385458	0.174724
	C169	C	0.114385	0.616208	0.177705
	C170	C	0.113308	0.386000	0.824371
	C171	C	0.871639	0.616498	0.820047
	C172	C	0.174410	0.879371	0.382408
	C173	C	0.176655	0.120671	0.611483
	C174	C	0.818500	0.119773	0.383818
	C175	C	0.821813	0.881154	0.612408
	C176	C	0.380545	0.178357	0.878150
	C177	C	0.611064	0.179361	0.118347
	C178	C	0.379018	0.829003	0.113321
	C179	C	0.610722	0.824852	0.880578
	C180	C	0.380878	0.883044	0.174468
	C181	C	0.611007	0.123220	0.177657
	C182	C	0.382645	0.123949	0.817583
	C183	C	0.611442	0.880981	0.822732
	C184	C	0.876449	0.176948	0.383520
	C185	C	0.117492	0.176830	0.612376
	C186	C	0.117082	0.820443	0.383127
	C187	C	0.882005	0.826194	0.613287
	C188	C	0.168797	0.386240	0.880888
	C189	C	0.170476	0.617026	0.119713
	C190	C	0.817458	0.385882	0.115959
	C191	C	0.817158	0.618096	0.879439
	C192	C	0.400075	0.097157	0.595323
	C193	C	0.597881	0.904670	0.598992
	C194	C	0.596067	0.098124	0.399322
	C195	C	0.398703	0.904310	0.396716
	C196	C	0.594083	0.404092	0.091622
	C197	C	0.592900	0.601863	0.902772
	C198	C	0.393379	0.603719	0.091727
	C199	C	0.392620	0.403107	0.903882
	C200	C	0.091098	0.596332	0.400131
	C201	C	0.900400	0.600858	0.598889
	C202	C	0.090690	0.401090	0.601912
	C203	C	0.900263	0.401496	0.398060
	C204	C	0.895777	0.597459	0.098811
	C205	C	0.093345	0.405046	0.098316
	C206	C	0.089829	0.598078	0.900995
	C207	C	0.893858	0.404873	0.898442
	C208	C	0.099908	0.900367	0.591556
	C209	C	0.095998	0.099262	0.403555
	C210	C	0.897398	0.099556	0.592372
	C211	C	0.895496	0.899697	0.402809
	C212	C	0.591827	0.101176	0.899529
	C213	C	0.400963	0.101124	0.098752
	C214	C	0.590799	0.903084	0.098656
	C215	C	0.400002	0.904613	0.894740
	Zn216	Zn	0.498277	0.001592	0.747201
	Zn217	Zn	0.496892	0.002043	0.250052
	Zn218	Zn	0.745004	0.502942	-0.002343
	Zn219	Zn	0.241360	0.502240	-0.001692
	Zn220	Zn	-0.002950	0.749225	0.497942
	Zn221	Zn	-0.003639	0.250943	0.498217
	Zn222	Zn	-0.005974	0.500293	0.750868
	Zn223	Zn	-0.005252	0.500122	0.248607
	Zn224	Zn	0.494341	0.753384	-0.003297
	Zn225	Zn	0.494887	0.252222	-0.002094
	Zn226	Zn	0.745749	0.000192	0.497987
	Zn227	Zn	0.249486	0.000680	0.496205
	N228	N	0.413248	0.964249	0.674683
	N229	N	0.586677	0.037477	0.678778
	N230	N	0.584342	0.965572	0.319534
	N231	N	0.410259	0.038278	0.319805
	N232	N	0.673158	0.416555	0.960826
	N233	N	0.673782	0.590519	0.033754
	N234	N	0.312212	0.589323	0.961157
	N235	N	0.315244	0.416611	0.035520
	N236	N	0.958448	0.675326	0.415079
	N237	N	0.034267	0.677076	0.584429
	N238	N	0.958190	0.322688	0.583786
	N239	N	0.033908	0.324076	0.415271
	N240	N	0.957952	0.413411	0.678613
	N241	N	0.031806	0.587102	0.680573
	N242	N	0.959064	0.586708	0.319913
	N243	N	0.031003	0.410698	0.317523
	N244	N	0.406179	0.682158	0.959967
	N245	N	0.577637	0.679596	0.034885
	N246	N	0.579545	0.324428	0.960194
	N247	N	0.408211	0.323660	0.034849
	N248	N	0.672194	0.963047	0.414503
	N249	N	0.674857	0.038642	0.583534
	N250	N	0.322146	0.963209	0.581087
	N251	N	0.319421	0.037494	0.410964
	N252	N	0.907481	0.464087	0.177190
	N253	N	0.081225	0.537448	0.178849
	N254	N	0.078930	0.464623	0.823084
	N255	N	0.904550	0.537222	0.817971
	N256	N	0.176613	0.914438	0.459553
	N257	N	0.177696	0.087186	0.533874
	N258	N	0.817097	0.086307	0.461336
	N259	N	0.817166	0.912707	0.534086
	N260	N	0.457786	0.178425	0.913894
	N261	N	0.533087	0.180143	0.084160
	N262	N	0.456803	0.827398	0.080192
	N263	N	0.532081	0.824538	0.912088
	N264	N	0.459868	0.914575	0.178467
	N265	N	0.533031	0.089525	0.179474
	N266	N	0.461287	0.090740	0.816188
	N267	N	0.533435	0.915551	0.819450
	N268	N	0.910641	0.178577	0.461004
	N269	N	0.082304	0.177844	0.535346
	N270	N	0.084552	0.819344	0.460645
	N271	N	0.914109	0.824141	0.535565
	N272	N	0.168884	0.465039	0.914208
	N273	N	0.171606	0.538651	0.085171
	N274	N	0.816881	0.464435	0.082644
	N275	N	0.816930	0.539786	0.913549
	O276	O	-0.039951	0.112480	0.064826
	H277	H	-0.026910	0.120509	0.062247
	H278	H	-0.022791	0.108077	0.077910
	O279	O	0.515436	0.556369	0.573296
	H280	H	0.515587	0.559046	0.578062
	H281	H	0.513658	0.547148	0.573002
	O282	O	0.483511	0.427813	0.429765
	H283	H	0.492191	0.421640	0.414851
	H284	H	0.485460	0.413957	0.433759
	O285	O	0.052176	0.958630	0.940229
	H286	H	0.055813	0.973833	0.939747
	H287	H	0.039235	0.954031	0.944544
	O288	O	0.523450	0.490191	0.371279
	H289	H	0.518134	0.486878	0.375327
	H290	H	0.531441	0.479575	0.351068
	O291	O	1.038291	1.059212	1.089879
	H292	H	1.050976	1.073431	1.099450
	H293	H	1.045292	1.051844	1.077808
	O294	O	1.080336	0.993150	0.964171
	H295	H	1.087610	0.993833	0.956900
	H296	H	1.074669	0.987630	0.972105
	O297	O	1.018197	0.061037	0.911884
	H298	H	0.996005	0.063638	0.899340
	H299	H	1.008567	0.052043	0.911251
	O300	O	0.434825	0.456717	0.467259
	H301	H	0.439756	0.459900	0.477409
	H302	H	0.434142	0.453345	0.456647
	O303	O	1.096756	-0.045333	-0.020269
	H304	H	1.090663	-0.038876	-0.021946
	H305	H	1.104895	-0.046922	-0.024895
	O306	O	-0.083041	0.925783	1.044757
	H307	H	-0.086738	0.923690	1.051849
	H308	H	-0.087357	0.930521	1.049174
	O309	O	0.618102	0.531570	0.405318
	H310	H	0.630103	0.541753	0.434609
	H311	H	0.616164	0.528464	0.393672
	O312	O	0.973296	-0.048043	0.969453
	H313	H	0.972152	-0.046633	0.963158
	H314	H	0.964033	-0.056468	0.960339
	O315	O	0.465875	0.485628	0.533424
	H316	H	0.474209	0.481776	0.536322
	H317	H	0.473570	0.469081	0.524381
	O318	O	0.504389	0.448865	0.440221
	H319	H	0.519397	0.458635	0.428843
	H320	H	0.500015	0.446621	0.447572
	O321	O	1.057194	0.996756	1.000186
	H322	H	1.048127	0.996878	0.998470
	H323	H	1.060539	0.992720	0.993194
	O324	O	0.629025	0.518233	0.596730
	H325	H	0.619134	0.522026	0.593873
	H326	H	0.633992	0.514586	0.596663
	O327	O	0.508223	0.437601	0.492400
	H328	H	0.502316	0.449063	0.499506
	H329	H	0.504082	0.444503	0.498954
	O330	O	0.976545	-0.023280	0.895651
	H331	H	0.981265	-0.026221	0.891575
	H332	H	0.979363	-0.020835	0.902561
	O333	O	0.937849	1.006536	-0.075178
	H334	H	0.933335	1.010092	-0.075440
	H335	H	0.931082	1.012518	-0.066336
	O336	O	0.523361	0.563166	0.476177
	H337	H	0.524552	0.567422	0.461447
	H338	H	0.518906	0.559243	0.483516
	O339	O	0.568156	0.515363	0.434492
	H340	H	0.570016	0.506075	0.439312
	H341	H	0.571297	0.519631	0.432264
	O342	O	0.060908	1.051441	-0.022901
	H343	H	0.060423	1.034396	-0.015926
	H344	H	0.056917	1.051610	-0.034467
	O345	O	0.102257	-0.017244	0.012129
	H346	H	0.104824	-0.010252	0.004324
	H347	H	0.113133	-0.021939	0.008279
	O348	O	0.453581	0.451510	0.617277
	H349	H	0.458304	0.461088	0.625300
	H350	H	0.437994	0.452581	0.615592
	O351	O	0.413149	0.489891	0.425207
	H352	H	0.418480	0.489491	0.432689
	H353	H	0.406216	0.481312	0.426938
	O354	O	0.590741	0.452295	0.459178
	H355	H	0.585748	0.455847	0.454055
	H356	H	0.583437	0.460894	0.459350
	O357	O	0.502304	0.573009	0.618298
	H358	H	0.501553	0.564457	0.615909
	H359	H	0.501394	0.583619	0.612014
	O360	O	-0.083235	0.064794	0.033711
	H361	H	-0.085683	0.068531	0.041493
	H362	H	-0.074690	0.066545	0.043769
	O363	O	0.385615	0.538198	0.451314
	H364	H	0.389919	0.543921	0.448295
	H365	H	0.373052	0.545187	0.443313
	O366	O	-0.084458	0.006275	1.097352
	H367	H	-0.077611	0.013770	1.101996
	H368	H	-0.085029	-0.000508	1.109442
	O369	O	0.416004	0.598965	0.444831
	H370	H	0.410180	0.613174	0.445465
	H371	H	0.422320	0.606577	0.445597
