data_Molecule from HDF5

_cell_length_a		16.589124
_cell_length_b		16.669497
_cell_length_c		16.632531
_cell_angle_alpha	90.067290
_cell_angle_beta	90.051068
_cell_angle_gamma	90.053518
_symmetry_space_group_name_H-M	'P 1'
_symmetry_Int_Tables_number		1

loop_
	_symmetry_equiv_pos_as_xyz
	x,y,z

loop_
	_atom_site_label
	_atom_site_type_symbol
	_atom_site_fract_x
	_atom_site_fract_y
	_atom_site_fract_z
	H0	H	0.385480	0.860498	0.713046
	H1	H	0.598751	0.168621	0.717594
	H2	H	0.595579	0.859095	0.271445
	H3	H	0.387101	0.170871	0.271962
	H4	H	0.708494	0.412232	0.836618
	H5	H	0.711755	0.620462	0.147595
	H6	H	0.264944	0.621726	0.840010
	H7	H	0.269493	0.409781	0.149464
	H8	H	0.834314	0.735251	0.388862
	H9	H	0.144125	0.738261	0.601108
	H10	H	0.836634	0.291042	0.599519
	H11	H	0.145736	0.292939	0.385760
	H12	H	0.836921	0.406917	0.715420
	H13	H	0.143933	0.623971	0.717475
	H14	H	0.833073	0.617732	0.274531
	H15	H	0.145674	0.410455	0.271097
	H16	H	0.381015	0.737432	0.839083
	H17	H	0.596904	0.737916	0.146907
	H18	H	0.591345	0.296251	0.836501
	H19	H	0.385357	0.293869	0.149011
	H20	H	0.711171	0.859678	0.388740
	H21	H	0.712487	0.169636	0.598103
	H22	H	0.270998	0.859628	0.594886
	H23	H	0.269004	0.170034	0.386657
	H24	H	0.883173	0.360826	0.215949
	H25	H	0.094667	0.670155	0.213935
	H26	H	0.102570	0.363324	0.765100
	H27	H	0.884225	0.668235	0.771290
	H28	H	0.211725	0.908086	0.336564
	H29	H	0.213065	0.120612	0.645987
	H30	H	0.767002	0.121113	0.338508
	H31	H	0.764735	0.905639	0.645659
	H32	H	0.334868	0.236173	0.887556
	H33	H	0.646852	0.235119	0.097107
	H34	H	0.338459	0.787043	0.104424
	H35	H	0.644643	0.792449	0.886801
	H36	H	0.336038	0.907725	0.215996
	H37	H	0.647200	0.118370	0.211953
	H38	H	0.334971	0.121257	0.770753
	H39	H	0.643697	0.907813	0.769719
	H40	H	0.883594	0.238028	0.338352
	H41	H	0.098412	0.238116	0.645389
	H42	H	0.097297	0.790587	0.338264
	H43	H	0.877579	0.787535	0.644250
	H44	H	0.214732	0.360931	0.884946
	H45	H	0.213993	0.667596	0.101869
	H46	H	0.768253	0.359426	0.098439
	H47	H	0.768714	0.669132	0.887154
	H48	H	0.401697	0.127466	0.580500
	H49	H	0.577670	0.906595	0.574981
	H50	H	0.577396	0.125357	0.404246
	H51	H	0.400516	0.902051	0.399034
	H52	H	0.579921	0.421512	0.106490
	H53	H	0.575767	0.606944	0.881623
	H54	H	0.401479	0.599562	0.103335
	H55	H	0.403764	0.425473	0.883098
	H56	H	0.103873	0.604558	0.399335
	H57	H	0.879567	0.596102	0.584133
	H58	H	0.095817	0.436405	0.571684
	H59	H	0.876049	0.425221	0.399358
	H60	H	0.105186	0.431493	0.591437
	H61	H	0.876652	0.606367	0.582969
	H62	H	0.102590	0.608021	0.406580
	H63	H	0.878783	0.421542	0.408352
	H64	H	0.405871	0.600803	0.102646
	H65	H	0.582204	0.604756	0.879307
	H66	H	0.583144	0.425772	0.106406
	H67	H	0.400252	0.424043	0.882147
	H68	H	0.583536	0.127895	0.403883
	H69	H	0.582618	0.901574	0.582899
	H70	H	0.401521	0.127231	0.581788
	H71	H	0.405999	0.904890	0.403175
	H72	H	0.896819	0.625534	0.078071
	H73	H	0.075274	0.403385	0.084627
	H74	H	0.075369	0.624435	0.904291
	H75	H	0.894568	0.399687	0.900896
	H76	H	0.080182	0.929785	0.601826
	H77	H	0.078470	0.104933	0.379083
	H78	H	0.900689	0.107207	0.606255
	H79	H	0.902212	0.925006	0.381258
	H80	H	0.600626	0.102406	0.905709
	H81	H	0.380237	0.098906	0.081642
	H82	H	0.602892	0.926192	0.083874
	H83	H	0.382039	0.935436	0.906118
	H84	H	0.601707	0.924145	0.077217
	H85	H	0.375558	0.106292	0.087979
	H86	H	0.602658	0.104068	0.902309
	H87	H	0.375506	0.924951	0.896924
	H88	H	0.901187	0.097705	0.602018
	H89	H	0.080796	0.103764	0.378957
	H90	H	0.076353	0.923825	0.603398
	H91	H	0.902192	0.930413	0.383222
	H92	H	0.074007	0.620601	0.910319
	H93	H	0.079489	0.403908	0.079231
	H94	H	0.898004	0.628438	0.088346
	H95	H	0.906712	0.402958	0.898969
	H96	H	0.402735	0.126042	0.580853
	H97	H	0.573074	0.905705	0.584664
	H98	H	0.580038	0.127558	0.398414
	H99	H	0.398741	0.904043	0.406225
	H100	H	0.578071	0.425862	0.104950
	H101	H	0.577525	0.600335	0.882796
	H102	H	0.403169	0.603727	0.104425
	H103	H	0.400650	0.428135	0.882609
	H104	H	0.100521	0.600158	0.405190
	H105	H	0.881531	0.601432	0.574119
	H106	H	0.104029	0.416193	0.575104
	H107	H	0.880915	0.431348	0.406006
	H108	H	0.906127	0.624325	0.082975
	H109	H	0.082074	0.401061	0.085610
	H110	H	0.079603	0.624097	0.909420
	H111	H	0.900994	0.405047	0.910742
	H112	H	0.083265	0.924526	0.605205
	H113	H	0.078681	0.102616	0.380171
	H114	H	0.908980	0.104422	0.600624
	H115	H	0.906696	0.927182	0.384108
	H116	H	0.602118	0.106611	0.906242
	H117	H	0.378020	0.108701	0.077585
	H118	H	0.599392	0.931024	0.079245
	H119	H	0.378345	0.921404	0.911661
	C120	C	0.369761	0.024003	0.612678
	C121	C	0.611457	1.006849	0.614043
	C122	C	0.611703	0.023535	0.371095
	C123	C	0.369290	1.006478	0.370395
	C124	C	0.610648	0.393848	0.001721
	C125	C	0.611431	0.636116	0.983803
	C126	C	0.369128	0.635149	0.001874
	C127	C	0.369286	0.393613	0.985332
	C128	C	-0.001098	0.635621	0.372118
	C129	C	0.981289	0.635512	0.614204
	C130	C	-0.000363	0.394116	0.612985
	C131	C	0.981893	0.393890	0.371655
	C132	C	0.867927	0.523189	0.114850
	C133	C	0.111538	0.505370	0.115499
	C134	C	0.111154	0.522352	0.872770
	C135	C	0.868840	0.505234	0.871445
	C136	C	0.112186	0.892806	0.500982
	C137	C	0.112167	0.136537	0.482298
	C138	C	0.869695	0.136134	0.500947
	C139	C	0.869093	0.893433	0.484157
	C140	C	0.498828	0.136565	0.871905
	C141	C	0.481716	0.136001	0.113662
	C142	C	0.499023	0.893612	0.113863
	C143	C	0.481225	0.894172	0.871811
	C144	C	0.367268	0.907220	0.672772
	C145	C	0.615876	0.122703	0.676160
	C146	C	0.613695	0.906074	0.311737
	C147	C	0.367998	0.123940	0.311369
	C148	C	0.668444	0.393570	0.883260
	C149	C	0.671703	0.638523	0.100864
	C150	C	0.306330	0.639149	0.886241
	C151	C	0.309591	0.391524	0.102624
	C152	C	0.880996	0.694936	0.370694
	C153	C	0.097613	0.697537	0.618349
	C154	C	0.883290	0.332092	0.617088
	C155	C	0.098985	0.333422	0.368078
	C156	C	0.883191	0.389818	0.674557
	C157	C	0.097439	0.640549	0.676394
	C158	C	0.880428	0.636707	0.313724
	C159	C	0.098936	0.391654	0.310992
	C160	C	0.364045	0.696861	0.885952
	C161	C	0.614446	0.696694	0.100746
	C162	C	0.610464	0.335965	0.883424
	C163	C	0.367091	0.333791	0.102363
	C164	C	0.671227	0.906218	0.369959
	C165	C	0.672433	0.123186	0.616971
	C166	C	0.310623	0.906542	0.613804
	C167	C	0.309442	0.123553	0.368376
	C168	C	0.865063	0.406887	0.175554
	C169	C	0.113527	0.622990	0.174875
	C170	C	0.118190	0.408537	0.807982
	C171	C	0.866284	0.621932	0.811239
	C172	C	0.171983	0.889805	0.383747
	C173	C	0.172975	0.139148	0.599167
	C174	C	0.807931	0.139254	0.384677
	C175	C	0.806106	0.888759	0.599424
	C176	C	0.381583	0.196341	0.869350
	C177	C	0.599773	0.195313	0.115469
	C178	C	0.383972	0.829730	0.120322
	C179	C	0.597806	0.832862	0.868297
	C180	C	0.382588	0.889500	0.175737
	C181	C	0.600132	0.137186	0.172569
	C182	C	0.381648	0.139086	0.811316
	C183	C	0.597728	0.890486	0.810596
	C184	C	0.865551	0.197241	0.384582
	C185	C	0.115825	0.197270	0.599015
	C186	C	0.115089	0.831202	0.384827
	C187	C	0.862159	0.829840	0.598782
	C188	C	0.174127	0.407315	0.867472
	C189	C	0.172758	0.621755	0.118845
	C190	C	0.807858	0.406502	0.117070
	C191	C	0.809016	0.622243	0.869259
	C192	C	0.394990	0.105618	0.587950
	C193	C	0.585209	0.925636	0.588179
	C194	C	0.587299	0.105562	0.395144
	C195	C	0.394410	0.924875	0.395753
	C196	C	0.587053	0.417531	0.084383
	C197	C	0.585649	0.611089	0.902209
	C198	C	0.395983	0.609015	0.082608
	C199	C	0.394255	0.418781	0.903741
	C200	C	0.081065	0.611176	0.396676
	C201	C	0.900347	0.608948	0.587876
	C202	C	0.080635	0.420523	0.586865
	C203	C	0.899931	0.419079	0.397331
	C204	C	0.893084	0.604726	0.090236
	C205	C	0.086074	0.424110	0.090495
	C206	C	0.083804	0.602244	0.900182
	C207	C	0.893663	0.423810	0.896362
	C208	C	0.087007	0.918702	0.582252
	C209	C	0.086355	0.111097	0.400718
	C210	C	0.896181	0.110488	0.581800
	C211	C	0.896258	0.919989	0.403851
	C212	C	0.580477	0.111463	0.897428
	C213	C	0.399560	0.111579	0.089426
	C214	C	0.580081	0.919877	0.087376
	C215	C	0.399847	0.919864	0.897612
	Zn216	Zn	0.490055	0.015463	0.742822
	Zn217	Zn	0.490669	0.014789	0.242060
	Zn218	Zn	0.739935	0.514440	-0.007568
	Zn219	Zn	0.239769	0.514062	-0.006014
	Zn220	Zn	-0.010291	0.764475	0.493159
	Zn221	Zn	-0.008681	0.264966	0.492052
	Zn222	Zn	-0.009416	0.514436	0.742883
	Zn223	Zn	-0.010144	0.515198	0.243450
	Zn224	Zn	0.489680	0.765013	-0.007134
	Zn225	Zn	0.490068	0.264320	-0.006578
	Zn226	Zn	0.740552	0.014842	0.493107
	Zn227	Zn	0.240235	0.014931	0.491318
	N228	N	0.403188	0.981358	0.672352
	N229	N	0.578918	0.049101	0.674542
	N230	N	0.577765	0.980194	0.312173
	N231	N	0.404343	0.049935	0.312316
	N232	N	0.668858	0.428732	0.957946
	N233	N	0.670000	0.601704	0.027014
	N234	N	0.309449	0.601254	0.959384
	N235	N	0.310679	0.428009	0.028811
	N236	N	0.955702	0.694737	0.406126
	N237	N	0.024263	0.694677	0.580328
	N238	N	0.956747	0.334480	0.579274
	N239	N	0.025098	0.334749	0.405139
	N240	N	0.956467	0.427724	0.672159
	N241	N	0.024132	0.602405	0.673864
	N242	N	0.954875	0.600745	0.314297
	N243	N	0.024853	0.428321	0.312914
	N244	N	0.402546	0.694605	0.959031
	N245	N	0.577662	0.695486	0.026868
	N246	N	0.575619	0.335856	0.958191
	N247	N	0.403351	0.334708	0.028296
	N248	N	0.670479	0.980400	0.405995
	N249	N	0.669736	0.050028	0.579072
	N250	N	0.311716	0.980444	0.577322
	N251	N	0.309887	0.049263	0.404037
	N252	N	0.901589	0.480684	0.174507
	N253	N	0.076315	0.549517	0.173207
	N254	N	0.079603	0.481084	0.811207
	N255	N	0.902544	0.547979	0.812064
	N256	N	0.170438	0.927513	0.457083
	N257	N	0.170827	0.101889	0.525499
	N258	N	0.810343	0.101891	0.458092
	N259	N	0.810319	0.927900	0.527176
	N260	N	0.455560	0.195035	0.906223
	N261	N	0.525196	0.194730	0.079707
	N262	N	0.457235	0.832281	0.082240
	N263	N	0.524211	0.834965	0.905842
	N264	N	0.455250	0.928670	0.171766
	N265	N	0.525729	0.101004	0.171768
	N266	N	0.455614	0.102533	0.812612
	N267	N	0.524128	0.927941	0.812613
	N268	N	0.903288	0.195498	0.457899
	N269	N	0.078829	0.195723	0.525213
	N270	N	0.078543	0.832884	0.458812
	N271	N	0.900985	0.832647	0.526167
	N272	N	0.169965	0.479268	0.907284
	N273	N	0.171721	0.547753	0.082617
	N274	N	0.809447	0.479915	0.080004
	N275	N	0.810051	0.548501	0.905634
	O276	O	0.214212	1.051605	0.212401
	H277	H	0.248118	1.055558	0.243744
	H278	H	0.196657	1.055128	0.201442
	O279	O	0.270975	0.294184	0.705936
	H280	H	0.259555	0.279482	0.718874
	H281	H	0.289286	0.295523	0.695324
	O282	O	1.208101	0.234705	1.025159
	H283	H	1.230029	0.251694	1.025971
	H284	H	1.205861	0.233725	1.047450
	O285	O	0.473150	0.577330	0.694810
	H286	H	0.454691	0.572484	0.696364
	H287	H	0.485338	0.569771	0.703427
	O288	O	0.698051	0.305747	0.282879
	H289	H	0.730891	0.270981	0.254600
	H290	H	0.698756	0.297456	0.330346
	O291	O	0.306920	0.528020	0.276082
	H292	H	0.286303	0.539262	0.256398
	H293	H	0.319757	0.539032	0.274641
	O294	O	0.937459	-0.187179	1.178814
	H295	H	0.942766	-0.202112	1.211365
	H296	H	0.948121	-0.173049	1.168540
	O297	O	-0.073329	0.871503	-0.195104
	H298	H	-0.054723	0.877414	-0.176246
	H299	H	-0.059170	0.856658	-0.209433
	O300	O	0.625046	0.293254	0.509135
	H301	H	0.620025	0.303665	0.508003
	H302	H	0.629004	0.290061	0.512983
	O303	O	0.230205	0.780939	0.751489
	H304	H	0.230716	0.785199	0.772907
	H305	H	0.243692	0.772689	0.737448
	O306	O	0.688853	0.643671	0.349003
	H307	H	0.664934	0.646905	0.354042
	H308	H	0.689214	0.628638	0.356602
	O309	O	0.529696	0.331484	0.297844
	H310	H	0.527161	0.319940	0.292456
	H311	H	0.554663	0.318650	0.292131
	O312	O	0.517574	0.719110	0.432361
	H313	H	0.510438	0.724593	0.432493
	H314	H	0.502312	0.724308	0.447740
	O315	O	0.979394	1.016364	1.198506
	H316	H	0.996013	1.015375	1.205957
	H317	H	0.983935	1.000114	1.181918
	O318	O	0.707816	0.452693	0.521572
	H319	H	0.705153	0.466283	0.535006
	H320	H	0.704247	0.454544	0.524048
	O321	O	0.274025	0.301082	0.521438
	H322	H	0.270333	0.290931	0.539024
	H323	H	0.262483	0.297580	0.516474
	O324	O	1.461103	1.292241	-0.618183
	H325	H	1.465656	1.299949	-0.611055
	H326	H	1.460611	1.284453	-0.635227
	O327	O	-0.014217	-0.013839	0.949984
	H328	H	-0.016670	-0.037713	0.953289
	H329	H	-0.027766	-0.019861	0.969714
	O330	O	0.994527	0.005682	0.780366
	H331	H	0.971328	0.008784	0.779567
	H332	H	1.027526	-0.015441	0.779555
	O333	O	0.803739	-0.089390	0.127211
	H334	H	0.813931	-0.086774	0.127035
	H335	H	0.791634	-0.101700	0.152445
	O336	O	0.698138	0.622050	0.474785
	H337	H	0.691935	0.606656	0.488387
	H338	H	0.694437	0.619982	0.474892
	O339	O	1.163355	-0.115539	1.176094
	H340	H	1.159751	-0.116065	1.178138
	H341	H	1.176001	-0.130215	1.167132
	O342	O	-0.024989	0.043629	0.190670
	H343	H	-0.022866	0.026864	0.189504
	H344	H	-0.021250	0.042718	0.186259
	O345	O	0.002229	1.245384	0.829309
	H346	H	-0.014835	1.239091	0.829486
	H347	H	-0.004672	1.255586	0.822706
	O348	O	0.177909	0.199706	-0.184751
	H349	H	0.156919	0.189424	-0.176009
	H350	H	0.172785	0.200900	-0.172761
	O351	O	1.211145	-0.015197	0.768536
	H352	H	1.231136	-0.009945	0.763944
	H353	H	1.220317	-0.018751	0.776723
	O354	O	-0.217096	-0.045168	0.963510
	H355	H	-0.216740	-0.047238	0.977401
	H356	H	-0.209829	-0.035494	0.981725
	O357	O	0.333167	0.491005	0.698567
	H358	H	0.322057	0.466298	0.704935
	H359	H	0.339459	0.471287	0.696712
	O360	O	0.462481	0.723471	0.281837
	H361	H	0.466787	0.741030	0.267376
	H362	H	0.477347	0.704775	0.280404
	O363	O	0.084461	-0.016510	0.030577
	H364	H	0.093037	0.000195	0.023312
	H365	H	0.094128	-0.018070	0.028020
	O366	O	0.779081	0.234717	0.782406
	H367	H	0.804475	0.206453	0.778960
	H368	H	0.757308	0.235591	0.759073
	O369	O	1.520606	0.573837	0.308620
	H370	H	1.513977	0.559299	0.307112
	H371	H	1.535435	0.562206	0.306466
	O372	O	0.293612	0.388328	0.364325
	H373	H	0.286413	0.386412	0.361134
	H374	H	0.298057	0.414151	0.366966
	O375	O	0.887465	0.190064	0.054273
	H376	H	0.876786	0.203329	0.040396
	H377	H	0.906538	0.195421	0.043102
	O378	O	1.225797	0.009152	-0.002663
	H379	H	1.232344	-0.014882	0.009820
	H380	H	1.212794	0.026162	0.013038
	O381	O	0.241720	1.261717	1.241373
	H382	H	0.238168	1.274115	1.261707
	H383	H	0.240024	1.263028	1.237595
	O384	O	1.022497	0.231889	1.210646
	H385	H	1.021359	0.233190	1.221483
	H386	H	1.021102	0.236905	1.214922
	O387	O	1.102072	0.987091	-0.159581
	H388	H	1.104941	0.986483	-0.156961
	H389	H	1.086208	0.981696	-0.164665
	O390	O	0.265142	0.560379	0.574583
	H391	H	0.273289	0.547956	0.571372
	H392	H	0.267600	0.549379	0.584511
	O393	O	0.705490	0.481249	0.274598
	H394	H	0.727984	0.465672	0.253975
	H395	H	0.705956	0.446774	0.270936
	O396	O	0.212073	0.794345	0.975179
	H397	H	0.198886	0.792419	0.965500
	H398	H	0.224819	0.776746	0.972521
	O399	O	0.002060	0.049607	0.962718
	H400	H	0.013628	0.049647	0.978372
	H401	H	-0.010552	0.052068	0.961393
	O402	O	0.695959	0.722756	0.706729
	H403	H	0.675711	0.731243	0.678461
	H404	H	0.729205	0.757573	0.735438
	O405	O	1.097217	0.054753	1.198037
	H406	H	1.121983	0.067100	1.211575
	H407	H	1.096487	0.034176	1.198896
	O408	O	-0.054960	-0.204628	-0.054528
	H409	H	-0.063513	-0.197547	-0.058982
	H410	H	-0.069364	-0.202032	-0.057989
	O411	O	0.420746	0.578998	0.452693
	H412	H	0.414382	0.566667	0.433953
	H413	H	0.423975	0.585344	0.462451
	O414	O	0.436700	0.741850	0.545869
	H415	H	0.422726	0.740251	0.546437
	H416	H	0.437999	0.736284	0.568995
	O417	O	0.625438	0.373262	0.426616
	H418	H	0.634975	0.377027	0.435285
	H419	H	0.633619	0.369404	0.427958
	O420	O	0.520190	0.735752	0.709304
	H421	H	0.526723	0.734861	0.720493
	H422	H	0.525397	0.749631	0.722131
	O423	O	0.107268	0.144817	0.872856
	H424	H	0.116466	0.138426	0.876103
	H425	H	0.117904	0.137308	0.885797
	O426	O	0.715772	0.541400	0.715206
	H427	H	0.720412	0.579128	0.723293
	H428	H	0.734783	0.557043	0.730956
	O429	O	1.008562	1.250762	0.981810
	H430	H	1.022356	1.247128	0.975657
	H431	H	1.006629	1.249742	0.976625
	O432	O	0.673308	0.326886	0.676195
	H433	H	0.668529	0.338699	0.657339
	H434	H	0.667585	0.337543	0.673649
	O435	O	-0.052540	0.963503	-0.110676
	H436	H	-0.050455	0.951511	-0.110937
	H437	H	-0.056851	0.970480	-0.112532
	O438	O	0.049603	-0.216350	0.049013
	H439	H	0.046228	-0.219106	0.050148
	H440	H	0.035475	-0.219913	0.040464
	O441	O	-0.228096	0.037063	-0.227364
	H442	H	-0.245605	0.032193	-0.217260
	H443	H	-0.240836	0.029054	-0.225771
	O444	O	0.801095	0.203393	0.185921
	H445	H	0.823628	0.189350	0.168559
	H446	H	0.821204	0.186186	0.167659
	O447	O	0.082460	0.802653	0.805929
	H448	H	0.099321	0.789071	0.780342
	H449	H	0.091570	0.826357	0.809899
	O450	O	-0.200352	0.823407	0.798131
	H451	H	-0.178679	0.841102	0.812222
	H452	H	-0.187198	0.842211	0.822085
	O453	O	0.461985	0.487926	0.263885
	H454	H	0.453933	0.484617	0.263974
	H455	H	0.470078	0.461722	0.263456
	O456	O	-0.229990	-0.018876	1.216551
	H457	H	-0.236521	-0.036339	1.215205
	H458	H	-0.249337	-0.030121	1.234474
	O459	O	0.516063	0.376314	0.532206
	H460	H	0.517676	0.384743	0.531540
	H461	H	0.525660	0.375031	0.531133
	O462	O	0.577223	0.635239	0.509682
	H463	H	0.574242	0.631098	0.488721
	H464	H	0.595411	0.644475	0.500186
	O465	O	0.480294	-0.589656	0.610919
	H466	H	0.494581	-0.591985	0.606348
	H467	H	0.486933	-0.592547	0.609163
	O468	O	0.273000	0.732477	0.463097
	H469	H	0.270671	0.727029	0.478032
	H470	H	0.250374	0.736095	0.472329
	O471	O	0.626426	0.576767	0.590527
	H472	H	0.622801	0.594289	0.601395
	H473	H	0.624703	0.588112	0.600971
	O474	O	0.460642	0.516064	0.550079
	H475	H	0.464261	0.504740	0.546914
	H476	H	0.463837	0.518501	0.546908
	O477	O	0.459679	0.302340	1.705492
	H478	H	0.464736	0.281743	1.717994
	H479	H	0.460913	0.307654	1.695094
	O480	O	-0.034045	0.108908	-0.004472
	H481	H	-0.040912	0.111922	0.006997
	H482	H	-0.025094	0.108403	-0.005946
	O483	O	0.301671	0.433378	0.535675
	H484	H	0.316874	0.439450	0.531007
	H485	H	0.308332	0.422034	0.523066
	O486	O	0.896786	0.001354	1.023815
	H487	H	0.891085	0.004975	1.020709
	H488	H	0.897272	0.017908	1.023884
	O489	O	0.765939	1.242346	-0.042016
	H490	H	0.754833	1.256257	-0.068094
	H491	H	0.758557	1.260136	-0.060107
	O492	O	-0.232558	-0.205517	0.013843
	H493	H	-0.243435	-0.213994	0.022848
	H494	H	-0.239322	-0.214117	0.047657
	O495	O	0.292684	0.714773	1.295989
	H496	H	0.321873	0.711942	1.303178
	H497	H	0.295626	0.714265	1.331075
	O498	O	0.731024	0.769570	1.240925
	H499	H	0.707403	0.731771	1.259143
	H500	H	0.757272	0.768893	1.258546
	O501	O	0.330017	0.673334	0.684394
	H502	H	0.340650	0.652627	0.679229
	H503	H	0.326416	0.663776	0.693034
