data_Molecule from HDF5

_cell_length_a		16.323133
_cell_length_b		16.125203
_cell_length_c		16.162947
_cell_angle_alpha	89.961639
_cell_angle_beta	90.365647
_cell_angle_gamma	89.747523
_symmetry_space_group_name_H-M	'P 1'
_symmetry_Int_Tables_number		1

loop_
	_symmetry_equiv_pos_as_xyz
	x,y,z

loop_
	_atom_site_label
	_atom_site_type_symbol
	_atom_site_fract_x
	_atom_site_fract_y
	_atom_site_fract_z
	H0	H	0.410212	0.828376	0.705843
	H1	H	0.602830	0.159589	0.706313
	H2	H	0.601639	0.828716	0.280895
	H3	H	0.404124	0.158892	0.279130
	H4	H	0.719984	0.393012	0.828430
	H5	H	0.720629	0.594239	0.156707
	H6	H	0.288716	0.594709	0.827562
	H7	H	0.290785	0.394788	0.156638
	H8	H	0.841531	0.710208	0.393366
	H9	H	0.169515	0.707105	0.591501
	H10	H	0.840899	0.281204	0.589245
	H11	H	0.168279	0.279141	0.394854
	H12	H	0.840915	0.397497	0.706515
	H13	H	0.168371	0.593154	0.708959
	H14	H	0.841465	0.595245	0.276977
	H15	H	0.168549	0.396668	0.279570
	H16	H	0.407071	0.706677	0.827017
	H17	H	0.602675	0.706592	0.158036
	H18	H	0.600102	0.281899	0.826622
	H19	H	0.408693	0.282701	0.157564
	H20	H	0.719279	0.828800	0.395177
	H21	H	0.719705	0.159347	0.594017
	H22	H	0.293017	0.829085	0.591624
	H23	H	0.288691	0.158226	0.391805
	H24	H	0.908169	0.329757	0.204984
	H25	H	0.099807	0.661518	0.204027
	H26	H	0.102285	0.329439	0.781241
	H27	H	0.904960	0.659661	0.778207
	H28	H	0.220867	0.892588	0.327955
	H29	H	0.221376	0.092764	0.656889
	H30	H	0.788412	0.094113	0.329735
	H31	H	0.792762	0.894802	0.658158
	H32	H	0.340077	0.207672	0.893256
	H33	H	0.668233	0.208403	0.091958
	H34	H	0.340911	0.780619	0.089616
	H35	H	0.668900	0.778921	0.895961
	H36	H	0.341295	0.895263	0.207348
	H37	H	0.668484	0.091410	0.208037
	H38	H	0.342644	0.093992	0.775786
	H39	H	0.670160	0.895791	0.781489
	H40	H	0.906832	0.205641	0.327330
	H41	H	0.103081	0.207416	0.657810
	H42	H	0.101148	0.781766	0.326513
	H43	H	0.911177	0.782987	0.658937
	H44	H	0.220676	0.330839	0.891346
	H45	H	0.217969	0.659768	0.092417
	H46	H	0.791501	0.330348	0.092573
	H47	H	0.786834	0.658138	0.889979
	H48	H	0.409082	0.112788	0.582162
	H49	H	0.595248	0.876397	0.589264
	H50	H	0.590655	0.108408	0.404945
	H51	H	0.409286	0.875696	0.402285
	H52	H	0.598176	0.393651	0.111616
	H53	H	0.596645	0.602599	0.869730
	H54	H	0.414559	0.599958	0.113059
	H55	H	0.401452	0.393266	0.868324
	H56	H	0.124010	0.590176	0.392670
	H57	H	0.887298	0.592883	0.587097
	H58	H	0.122020	0.404809	0.593393
	H59	H	0.893690	0.413819	0.403668
	H60	H	0.122847	0.394989	0.586157
	H61	H	0.889747	0.588315	0.582492
	H62	H	0.121451	0.592273	0.403826
	H63	H	0.883767	0.401541	0.382428
	H64	H	0.398146	0.583663	0.113347
	H65	H	0.610278	0.577878	0.873383
	H66	H	0.606397	0.404216	0.111466
	H67	H	0.404995	0.414752	0.876130
	H68	H	0.604661	0.113696	0.405596
	H69	H	0.602475	0.877309	0.581074
	H70	H	0.412508	0.112965	0.586634
	H71	H	0.412083	0.873931	0.396590
	H72	H	0.912390	0.609581	0.072194
	H73	H	0.093059	0.378254	0.084190
	H74	H	0.102624	0.615484	0.899058
	H75	H	0.906213	0.374100	0.897863
	H76	H	0.105977	0.895285	0.613206
	H77	H	0.087616	0.087996	0.377010
	H78	H	0.918574	0.090931	0.610997
	H79	H	0.905655	0.896510	0.371277
	H80	H	0.620620	0.085050	0.901909
	H81	H	0.391270	0.085484	0.077072
	H82	H	0.619702	0.902416	0.086481
	H83	H	0.390740	0.906789	0.900483
	H84	H	0.621788	0.900905	0.089911
	H85	H	0.387308	0.082326	0.093760
	H86	H	0.623079	0.087926	0.896528
	H87	H	0.386674	0.902089	0.892337
	H88	H	0.905562	0.090292	0.613655
	H89	H	0.103537	0.093342	0.371293
	H90	H	0.105124	0.909256	0.608652
	H91	H	0.907839	0.911107	0.376745
	H92	H	0.091630	0.613354	0.896868
	H93	H	0.102796	0.377278	0.080766
	H94	H	0.900214	0.618131	0.087768
	H95	H	0.916342	0.376901	0.896207
	H96	H	0.414869	0.110030	0.582782
	H97	H	0.605472	0.873192	0.591284
	H98	H	0.596649	0.115049	0.392834
	H99	H	0.415536	0.876610	0.401079
	H100	H	0.593428	0.405430	0.106764
	H101	H	0.583688	0.578923	0.880388
	H102	H	0.419645	0.578220	0.105200
	H103	H	0.421859	0.399181	0.876434
	H104	H	0.120039	0.582093	0.399811
	H105	H	0.888672	0.587153	0.588305
	H106	H	0.118713	0.404661	0.581625
	H107	H	0.886053	0.389177	0.405441
	H108	H	0.921107	0.612901	0.092003
	H109	H	0.100703	0.374729	0.090870
	H110	H	0.095514	0.611280	0.907117
	H111	H	0.912072	0.378420	0.905799
	H112	H	0.092991	0.901070	0.608676
	H113	H	0.100848	0.075685	0.376845
	H114	H	0.912898	0.080201	0.609510
	H115	H	0.918411	0.901016	0.376878
	H116	H	0.622257	0.091496	0.901981
	H117	H	0.384482	0.098281	0.086586
	H118	H	0.621662	0.899017	0.086405
	H119	H	0.388765	0.896420	0.900658
	C120	C	0.384710	0.002550	0.613390
	C121	C	0.628381	0.985229	0.615901
	C122	C	0.625791	0.003092	0.372745
	C123	C	0.383051	0.984824	0.371373
	C124	C	0.627023	0.372369	0.001084
	C125	C	0.625961	0.615328	0.983735
	C126	C	0.382139	0.616089	0.001331
	C127	C	0.382382	0.373771	0.983286
	C128	C	0.013663	0.617330	0.369814
	C129	C	0.996857	0.616943	0.615064
	C130	C	0.013218	0.373072	0.614905
	C131	C	0.996197	0.372529	0.369969
	C132	C	0.883712	0.503940	0.112779
	C133	C	0.126406	0.486021	0.114038
	C134	C	0.125246	0.503985	0.872226
	C135	C	0.882631	0.485577	0.870712
	C136	C	0.128238	0.872705	0.500875
	C137	C	0.126195	0.114816	0.483828
	C138	C	0.882998	0.115910	0.502502
	C139	C	0.884064	0.873965	0.484543
	C140	C	0.513618	0.116778	0.870691
	C141	C	0.495877	0.116744	0.115040
	C142	C	0.513226	0.872338	0.115231
	C143	C	0.497132	0.872757	0.870747
	C144	C	0.389034	0.877985	0.668342
	C145	C	0.623985	0.110105	0.669653
	C146	C	0.622991	0.878175	0.318119
	C147	C	0.384452	0.109482	0.316301
	C148	C	0.681542	0.373919	0.877148
	C149	C	0.681870	0.613725	0.107839
	C150	C	0.326601	0.614454	0.877092
	C151	C	0.328531	0.375308	0.107452
	C152	C	0.890464	0.672379	0.372720
	C153	C	0.120337	0.670171	0.612118
	C154	C	0.889950	0.318366	0.611060
	C155	C	0.119397	0.317162	0.373998
	C156	C	0.889899	0.376263	0.669123
	C157	C	0.119621	0.613548	0.670667
	C158	C	0.890394	0.615219	0.314837
	C159	C	0.119539	0.375471	0.316466
	C160	C	0.385492	0.670176	0.876500
	C161	C	0.623349	0.669697	0.108471
	C162	C	0.621885	0.318675	0.876183
	C163	C	0.387009	0.319527	0.107923
	C164	C	0.681271	0.878332	0.374809
	C165	C	0.682261	0.109952	0.614059
	C166	C	0.330374	0.878367	0.612139
	C167	C	0.327113	0.109107	0.372520
	C168	C	0.887171	0.379220	0.167496
	C169	C	0.121766	0.611284	0.167768
	C170	C	0.122696	0.379077	0.817828
	C171	C	0.884858	0.610270	0.816035
	C172	C	0.182837	0.873351	0.376996
	C173	C	0.182698	0.113352	0.607946
	C174	C	0.826383	0.114600	0.378730
	C175	C	0.830492	0.875532	0.608928
	C176	C	0.389709	0.170961	0.872850
	C177	C	0.619416	0.170783	0.112338
	C178	C	0.389700	0.818160	0.110991
	C179	C	0.620132	0.817059	0.875045
	C180	C	0.389962	0.875353	0.169434
	C181	C	0.619466	0.112802	0.170196
	C182	C	0.390845	0.114250	0.814353
	C183	C	0.620791	0.875147	0.818004
	C184	C	0.885406	0.169871	0.377604
	C185	C	0.123829	0.169790	0.608452
	C186	C	0.123061	0.818619	0.376236
	C187	C	0.889398	0.819825	0.609388
	C188	C	0.181567	0.379785	0.872818
	C189	C	0.180385	0.610576	0.112019
	C190	C	0.829087	0.379581	0.111676
	C191	C	0.826016	0.609370	0.871299
	C192	C	0.405871	0.089345	0.590570
	C193	C	0.607386	0.898134	0.593721
	C194	C	0.603810	0.089873	0.394760
	C195	C	0.405681	0.898053	0.393457
	C196	C	0.605802	0.394611	0.087645
	C197	C	0.603569	0.593020	0.897038
	C198	C	0.404319	0.593924	0.088085
	C199	C	0.403291	0.395911	0.896257
	C200	C	0.099694	0.594668	0.391959
	C201	C	0.910634	0.595641	0.592605
	C202	C	0.098887	0.394927	0.593472
	C203	C	0.910197	0.394873	0.391033
	C204	C	0.904950	0.591015	0.090504
	C205	C	0.105093	0.399132	0.091975
	C206	C	0.103127	0.590791	0.894443
	C207	C	0.904956	0.399020	0.893391
	C208	C	0.107367	0.895105	0.587801
	C209	C	0.103932	0.092192	0.397372
	C210	C	0.905610	0.093630	0.589187
	C211	C	0.904489	0.896227	0.397626
	C212	C	0.599813	0.094650	0.893393
	C213	C	0.410050	0.095230	0.092536
	C214	C	0.598901	0.894112	0.093766
	C215	C	0.410920	0.895308	0.891642
	Zn216	Zn	0.506324	-0.005188	0.742056
	Zn217	Zn	0.504176	-0.005470	0.244433
	Zn218	Zn	0.755165	0.494636	-0.007700
	Zn219	Zn	0.254079	0.494758	-0.007312
	Zn220	Zn	0.005855	0.745364	0.492557
	Zn221	Zn	0.004489	0.243403	0.492309
	Zn222	Zn	0.004873	0.495147	0.744396
	Zn223	Zn	0.004629	0.495250	0.241265
	Zn224	Zn	0.504547	0.743988	-0.007423
	Zn225	Zn	0.504111	0.245604	-0.007811
	Zn226	Zn	0.754756	-0.005297	0.494170
	Zn227	Zn	0.256046	-0.006106	0.492071
	N228	N	0.421965	0.956410	0.669334
	N229	N	0.591367	0.031590	0.670930
	N230	N	0.589203	0.956585	0.316739
	N231	N	0.418746	0.031369	0.315571
	N232	N	0.684957	0.406431	0.955884
	N233	N	0.683824	0.580958	0.029340
	N234	N	0.324450	0.581575	0.955643
	N235	N	0.325416	0.408129	0.028803
	N236	N	0.968063	0.674019	0.406235
	N237	N	0.042869	0.672283	0.577974
	N238	N	0.967449	0.316213	0.577966
	N239	N	0.041661	0.315303	0.406441
	N240	N	0.967445	0.409648	0.671660
	N241	N	0.041663	0.581398	0.672707
	N242	N	0.968051	0.581444	0.313159
	N243	N	0.041847	0.409155	0.313797
	N244	N	0.419313	0.671462	0.954683
	N245	N	0.588852	0.670460	0.030397
	N246	N	0.588682	0.317596	0.954177
	N247	N	0.419564	0.318357	0.029690
	N248	N	0.683345	0.957036	0.407889
	N249	N	0.685053	0.031183	0.581250
	N250	N	0.327575	0.956842	0.578788
	N251	N	0.325887	0.030567	0.405716
	N252	N	0.920482	0.457360	0.168195
	N253	N	0.088715	0.532855	0.169128
	N254	N	0.088405	0.457150	0.817363
	N255	N	0.919491	0.532389	0.815594
	N256	N	0.186056	0.906294	0.455503
	N257	N	0.184255	0.079686	0.529595
	N258	N	0.824618	0.081820	0.457372
	N259	N	0.827001	0.908418	0.530388
	N260	N	0.467172	0.172692	0.907133
	N261	N	0.541621	0.173525	0.078955
	N262	N	0.467045	0.816402	0.077820
	N263	N	0.542274	0.815422	0.907188
	N264	N	0.467648	0.908404	0.172206
	N265	N	0.541721	0.080038	0.172186
	N266	N	0.468871	0.081493	0.812847
	N267	N	0.543287	0.909251	0.815348
	N268	N	0.919921	0.170818	0.455380
	N269	N	0.089634	0.170772	0.530365
	N270	N	0.089794	0.817972	0.454321
	N271	N	0.922155	0.818719	0.531084
	N272	N	0.183338	0.458424	0.905941
	N273	N	0.183456	0.531785	0.079469
	N274	N	0.826716	0.458303	0.078455
	N275	N	0.824389	0.530832	0.904521
	O276	O	1.033784	1.011771	0.021177
	H277	H	1.037819	1.016799	0.017708
	H278	H	1.023241	1.017183	0.021213
	O279	O	0.013678	0.019850	0.963679
	H280	H	0.014201	0.020456	0.953121
	H281	H	0.012903	0.018023	0.963728
	O282	O	-0.058726	0.047559	-0.033138
	H283	H	-0.063589	0.053197	-0.042236
	H284	H	-0.069943	0.045237	-0.032848
	O285	O	0.531028	0.509140	0.509395
	H286	H	0.533287	0.498266	0.504694
	H287	H	0.534757	0.516097	0.506614
	O288	O	0.072911	-0.104467	-0.060489
	H289	H	0.079717	-0.099661	-0.070758
	H290	H	0.067024	-0.101886	-0.063471
	O291	O	0.073355	1.061555	0.032116
	H292	H	0.079213	1.069048	0.034473
	H293	H	0.070207	1.061694	0.037261
	O294	O	-0.004661	1.026825	-0.055243
	H295	H	-0.000673	1.016572	-0.062095
	H296	H	0.000886	1.019001	-0.048224
	O297	O	0.473797	0.510545	0.471965
	H298	H	0.473559	0.502656	0.476490
	H299	H	0.467751	0.513909	0.475701
	O300	O	0.508793	0.550144	0.489565
	H301	H	0.506562	0.553162	0.488942
	H302	H	0.510546	0.553796	0.486346
	O303	O	0.988760	-0.004333	1.017968
	H304	H	0.982639	-0.001980	1.019147
	H305	H	0.980698	-0.001454	1.017321
	O306	O	0.026370	1.107152	0.958779
	H307	H	0.018420	1.099536	0.972077
	H308	H	0.033753	1.108562	0.955529
	O309	O	-0.023516	1.019270	0.910515
	H310	H	-0.033619	1.016401	0.911000
	H311	H	-0.009376	1.023250	0.907926
	O312	O	-0.023801	-0.042818	1.050163
	H313	H	-0.019279	-0.051726	1.054777
	H314	H	-0.022696	-0.046967	1.039888
	O315	O	0.507506	0.433268	0.400549
	H316	H	0.510992	0.432123	0.397978
	H317	H	0.509933	0.432342	0.402459
	O318	O	0.008744	-0.033824	1.057397
	H319	H	0.012468	-0.029675	1.061743
	H320	H	0.016982	-0.037277	1.070929
	O321	O	0.017230	0.989396	0.998467
	H322	H	0.015258	0.994505	0.995123
	H323	H	0.028737	0.988099	1.005202
	O324	O	1.057735	-0.061992	1.027126
	H325	H	1.063533	-0.056941	1.028485
	H326	H	1.069790	-0.064656	1.013148
	O327	O	1.018047	1.048165	1.059862
	H328	H	1.012787	1.053122	1.062172
	H329	H	1.011968	1.055330	1.063348
	O330	O	0.532747	0.425497	0.507226
	H331	H	0.535243	0.425658	0.506989
	H332	H	0.533773	0.422048	0.509279
	O333	O	0.538178	0.532850	0.481322
	H334	H	0.536111	0.532705	0.482910
	H335	H	0.537645	0.533581	0.490250
	O336	O	0.499639	0.470847	0.470036
	H337	H	0.505162	0.468985	0.464203
	H338	H	0.495857	0.466190	0.463154
	O339	O	0.503580	0.531738	0.442525
	H340	H	0.498049	0.535439	0.444808
	H341	H	0.508449	0.536702	0.431464
	O342	O	0.507763	0.450053	0.491393
	H343	H	0.517498	0.446988	0.497198
	H344	H	0.505073	0.458193	0.492573
	O345	O	0.476014	0.489185	0.487301
	H346	H	0.474588	0.487763	0.480075
	H347	H	0.479779	0.494312	0.486552
