data_Molecule from HDF5

_cell_length_a		16.166606
_cell_length_b		16.223278
_cell_length_c		16.325218
_cell_angle_alpha	89.996211
_cell_angle_beta	90.082940
_cell_angle_gamma	89.874659
_symmetry_space_group_name_H-M	'P 1'
_symmetry_Int_Tables_number		1

loop_
	_symmetry_equiv_pos_as_xyz
	x,y,z

loop_
	_atom_site_label
	_atom_site_type_symbol
	_atom_site_fract_x
	_atom_site_fract_y
	_atom_site_fract_z
	H0	H	0.403425	0.831277	0.718301
	H1	H	0.603034	0.158081	0.717562
	H2	H	0.603335	0.829912	0.288023
	H3	H	0.403917	0.158487	0.286959
	H4	H	0.718832	0.396298	0.839472
	H5	H	0.718098	0.591393	0.166185
	H6	H	0.288863	0.593686	0.839640
	H7	H	0.292203	0.397078	0.166344
	H8	H	0.839646	0.707208	0.405507
	H9	H	0.169195	0.706589	0.602415
	H10	H	0.838698	0.281259	0.599670
	H11	H	0.169360	0.279728	0.406917
	H12	H	0.839420	0.394154	0.718269
	H13	H	0.168602	0.591706	0.718625
	H14	H	0.840136	0.593862	0.288401
	H15	H	0.169007	0.392943	0.289071
	H16	H	0.404871	0.708856	0.839262
	H17	H	0.603874	0.709029	0.165273
	H18	H	0.603567	0.278729	0.839437
	H19	H	0.406451	0.279906	0.166007
	H20	H	0.716490	0.829118	0.406181
	H21	H	0.717058	0.158278	0.600646
	H22	H	0.292448	0.829653	0.599698
	H23	H	0.290855	0.159156	0.406319
	H24	H	0.906646	0.329929	0.217816
	H25	H	0.105604	0.657440	0.219685
	H26	H	0.104464	0.329700	0.789812
	H27	H	0.904089	0.657189	0.788110
	H28	H	0.217273	0.895521	0.339154
	H29	H	0.217913	0.091701	0.666197
	H30	H	0.789438	0.092378	0.339248
	H31	H	0.789864	0.895850	0.666789
	H32	H	0.339544	0.208643	0.903817
	H33	H	0.669265	0.205742	0.100216
	H34	H	0.338611	0.782325	0.098883
	H35	H	0.669403	0.781499	0.905388
	H36	H	0.339926	0.894468	0.217021
	H37	H	0.668164	0.092969	0.217146
	H38	H	0.340167	0.094433	0.787301
	H39	H	0.668039	0.894833	0.787735
	H40	H	0.904374	0.209242	0.339758
	H41	H	0.102787	0.206952	0.666747
	H42	H	0.103012	0.777351	0.340675
	H43	H	0.906053	0.779650	0.666999
	H44	H	0.218082	0.329508	0.907598
	H45	H	0.219084	0.658285	0.102614
	H46	H	0.792462	0.329447	0.100850
	H47	H	0.792534	0.659101	0.906728
	H48	H	0.405834	0.110401	0.589104
	H49	H	0.598324	0.878330	0.587958
	H50	H	0.595940	0.110623	0.410292
	H51	H	0.409688	0.875744	0.405989
	H52	H	0.599203	0.400452	0.119136
	H53	H	0.593627	0.588223	0.886908
	H54	H	0.412108	0.594518	0.121228
	H55	H	0.406494	0.404947	0.885994
	H56	H	0.127171	0.588360	0.397348
	H57	H	0.887369	0.588125	0.593661
	H58	H	0.124172	0.394382	0.601279
	H59	H	0.891049	0.412848	0.412611
	H60	H	0.120156	0.399014	0.591171
	H61	H	0.887298	0.583145	0.597389
	H62	H	0.121721	0.595936	0.421831
	H63	H	0.882430	0.399022	0.397641
	H64	H	0.406136	0.583996	0.120344
	H65	H	0.600926	0.591307	0.883750
	H66	H	0.597081	0.399692	0.119034
	H67	H	0.416655	0.402312	0.888047
	H68	H	0.597566	0.111982	0.408401
	H69	H	0.601650	0.873373	0.601210
	H70	H	0.407791	0.115064	0.602486
	H71	H	0.414697	0.877728	0.408076
	H72	H	0.908159	0.611072	0.092562
	H73	H	0.103759	0.373841	0.100370
	H74	H	0.097946	0.610599	0.915209
	H75	H	0.915014	0.376813	0.909439
	H76	H	0.098921	0.892957	0.621837
	H77	H	0.090937	0.088249	0.388238
	H78	H	0.904895	0.087167	0.620507
	H79	H	0.911491	0.895504	0.386077
	H80	H	0.622856	0.086914	0.908549
	H81	H	0.385084	0.077356	0.106363
	H82	H	0.623311	0.897346	0.096850
	H83	H	0.388664	0.903245	0.917057
	H84	H	0.620603	0.902175	0.092039
	H85	H	0.381012	0.100532	0.097928
	H86	H	0.621292	0.086668	0.910787
	H87	H	0.386877	0.908628	0.903008
	H88	H	0.913158	0.082966	0.617170
	H89	H	0.099801	0.092454	0.383645
	H90	H	0.104245	0.903790	0.620091
	H91	H	0.906195	0.901604	0.386108
	H92	H	0.100003	0.613334	0.906145
	H93	H	0.091220	0.378535	0.100028
	H94	H	0.910821	0.612801	0.102577
	H95	H	0.911555	0.376949	0.912317
	H96	H	0.419000	0.109676	0.594710
	H97	H	0.588777	0.879032	0.598125
	H98	H	0.595130	0.111694	0.407725
	H99	H	0.410094	0.877272	0.411579
	H100	H	0.598727	0.397741	0.119855
	H101	H	0.599966	0.583839	0.886588
	H102	H	0.418052	0.585965	0.116342
	H103	H	0.410048	0.394876	0.883785
	H104	H	0.116781	0.571614	0.414905
	H105	H	0.885120	0.588870	0.599365
	H106	H	0.121075	0.406099	0.600962
	H107	H	0.885947	0.392205	0.417728
	H108	H	0.918418	0.609560	0.096028
	H109	H	0.099008	0.378880	0.089657
	H110	H	0.091083	0.610353	0.908187
	H111	H	0.911375	0.375793	0.908133
	H112	H	0.092146	0.901772	0.617284
	H113	H	0.099697	0.082067	0.386509
	H114	H	0.913073	0.092815	0.619704
	H115	H	0.913253	0.902567	0.388075
	H116	H	0.621055	0.084400	0.908735
	H117	H	0.391280	0.083384	0.082513
	H118	H	0.621670	0.903946	0.098977
	H119	H	0.383702	0.894001	0.906987
	C120	C	0.382479	0.003070	0.624207
	C121	C	0.624762	0.985565	0.624055
	C122	C	0.625280	0.002936	0.380698
	C123	C	0.382439	0.985636	0.380643
	C124	C	0.626871	0.371401	0.011242
	C125	C	0.626644	0.615989	0.993886
	C126	C	0.382779	0.616464	0.011109
	C127	C	0.382747	0.372280	0.994081
	C128	C	0.013206	0.614433	0.382282
	C129	C	0.995792	0.614729	0.625388
	C130	C	0.012637	0.372012	0.625331
	C131	C	0.995680	0.372238	0.381587
	C132	C	0.883697	0.502845	0.125106
	C133	C	0.126574	0.485465	0.125509
	C134	C	0.125621	0.502758	0.882015
	C135	C	0.883276	0.485173	0.881702
	C136	C	0.126288	0.871171	0.511717
	C137	C	0.125190	0.115383	0.494435
	C138	C	0.881579	0.116205	0.511232
	C139	C	0.881951	0.871805	0.495058
	C140	C	0.513026	0.115335	0.880768
	C141	C	0.495003	0.115437	0.123817
	C142	C	0.512906	0.872714	0.124046
	C143	C	0.495495	0.873058	0.880931
	C144	C	0.384214	0.879891	0.679751
	C145	C	0.622918	0.109036	0.679483
	C146	C	0.623332	0.878885	0.326276
	C147	C	0.384487	0.109636	0.325758
	C148	C	0.681350	0.375252	0.888210
	C149	C	0.680958	0.612648	0.117225
	C150	C	0.327174	0.613681	0.888284
	C151	C	0.328893	0.375966	0.117381
	C152	C	0.889083	0.669789	0.384895
	C153	C	0.119908	0.669136	0.622664
	C154	C	0.888161	0.317949	0.621422
	C155	C	0.119941	0.316944	0.385566
	C156	C	0.888511	0.374146	0.680101
	C157	C	0.119709	0.611998	0.680454
	C158	C	0.889307	0.613209	0.326826
	C159	C	0.120017	0.373452	0.327186
	C160	C	0.384691	0.671136	0.888141
	C161	C	0.623888	0.670939	0.116813
	C162	C	0.624158	0.316786	0.888296
	C163	C	0.385632	0.317463	0.116997
	C164	C	0.679385	0.878417	0.385035
	C165	C	0.679295	0.109429	0.621175
	C166	C	0.328900	0.879010	0.620832
	C167	C	0.327949	0.109855	0.384616
	C168	C	0.886200	0.379117	0.179947
	C169	C	0.125178	0.608764	0.181444
	C170	C	0.124083	0.378661	0.827892
	C171	C	0.884750	0.608621	0.826529
	C172	C	0.180732	0.874178	0.388423
	C173	C	0.180084	0.112152	0.617633
	C174	C	0.826796	0.113027	0.388211
	C175	C	0.827602	0.875270	0.618053
	C176	C	0.388689	0.170595	0.883354
	C177	C	0.619582	0.168975	0.120806
	C178	C	0.388403	0.818615	0.120380
	C179	C	0.619710	0.818383	0.884102
	C180	C	0.388874	0.874743	0.178779
	C181	C	0.619032	0.113085	0.179036
	C182	C	0.389181	0.114261	0.825230
	C183	C	0.619104	0.874958	0.825846
	C184	C	0.884122	0.171020	0.388515
	C185	C	0.122919	0.169731	0.617628
	C186	C	0.123710	0.815693	0.388914
	C187	C	0.885245	0.817336	0.618285
	C188	C	0.180764	0.378735	0.886053
	C189	C	0.181371	0.609342	0.122856
	C190	C	0.829355	0.378812	0.121879
	C191	C	0.829195	0.609414	0.885296
	C192	C	0.404540	0.089334	0.602000
	C193	C	0.602894	0.899150	0.602240
	C194	C	0.602704	0.089154	0.402335
	C195	C	0.404922	0.899324	0.402218
	C196	C	0.604826	0.392936	0.097287
	C197	C	0.604723	0.594077	0.907924
	C198	C	0.405460	0.594566	0.096982
	C199	C	0.404576	0.394138	0.908002
	C200	C	0.099658	0.591680	0.404726
	C201	C	0.909027	0.593193	0.603216
	C202	C	0.099420	0.393438	0.604114
	C203	C	0.908932	0.394619	0.402878
	C204	C	0.905908	0.588915	0.103192
	C205	C	0.104595	0.399412	0.103408
	C206	C	0.103068	0.588944	0.903459
	C207	C	0.905855	0.398966	0.903558
	C208	C	0.104831	0.892940	0.597503
	C209	C	0.103248	0.093911	0.408501
	C210	C	0.903726	0.094085	0.596968
	C211	C	0.903842	0.893328	0.409012
	C212	C	0.599450	0.092841	0.902859
	C213	C	0.408325	0.093584	0.102041
	C214	C	0.599428	0.894778	0.102407
	C215	C	0.408725	0.895376	0.902564
	Zn216	Zn	0.503615	-0.005842	0.752111
	Zn217	Zn	0.504054	-0.005912	0.251899
	Zn218	Zn	0.755368	0.494118	0.002989
	Zn219	Zn	0.254132	0.495133	0.003078
	Zn220	Zn	0.004433	0.742804	0.503868
	Zn221	Zn	0.004161	0.244371	0.503530
	Zn222	Zn	0.004108	0.493371	0.753397
	Zn223	Zn	0.005135	0.493980	0.253757
	Zn224	Zn	0.504394	0.744704	0.002575
	Zn225	Zn	0.504122	0.242689	0.002537
	Zn226	Zn	0.753345	-0.005773	0.502859
	Zn227	Zn	0.254217	-0.005978	0.502727
	N228	N	0.416877	0.958042	0.681794
	N229	N	0.589845	0.030873	0.681432
	N230	N	0.590232	0.957016	0.323620
	N231	N	0.417779	0.031368	0.323258
	N232	N	0.683316	0.408348	0.965828
	N233	N	0.682575	0.579073	0.039928
	N234	N	0.325914	0.580475	0.965862
	N235	N	0.326964	0.409419	0.039953
	N236	N	0.966960	0.670507	0.418944
	N237	N	0.041701	0.670859	0.589160
	N238	N	0.966401	0.316472	0.588082
	N239	N	0.041817	0.316365	0.418838
	N240	N	0.966834	0.407157	0.682384
	N241	N	0.041451	0.578875	0.682152
	N242	N	0.967643	0.579562	0.325086
	N243	N	0.041847	0.407105	0.324562
	N244	N	0.418543	0.673007	0.965523
	N245	N	0.590584	0.672909	0.039115
	N246	N	0.590868	0.314346	0.965653
	N247	N	0.418274	0.314899	0.039176
	N248	N	0.680991	0.956545	0.418033
	N249	N	0.680616	0.031722	0.587407
	N250	N	0.327524	0.956689	0.586990
	N251	N	0.326394	0.031955	0.417837
	N252	N	0.919232	0.457191	0.182087
	N253	N	0.091794	0.530815	0.183058
	N254	N	0.090736	0.456672	0.824981
	N255	N	0.917450	0.530290	0.823886
	N256	N	0.182259	0.908047	0.465736
	N257	N	0.181395	0.078863	0.540160
	N258	N	0.825414	0.079333	0.465530
	N259	N	0.825542	0.908427	0.540453
	N260	N	0.466782	0.171305	0.917322
	N261	N	0.541516	0.170628	0.087036
	N262	N	0.466434	0.817177	0.086839
	N263	N	0.541710	0.817077	0.917626
	N264	N	0.467219	0.907866	0.180994
	N265	N	0.540613	0.080520	0.181113
	N266	N	0.467332	0.080466	0.823591
	N267	N	0.540731	0.908095	0.823552
	N268	N	0.917518	0.173093	0.466017
	N269	N	0.089195	0.171725	0.540169
	N270	N	0.090495	0.813859	0.466388
	N271	N	0.918451	0.815017	0.540720
	N272	N	0.181891	0.456814	0.919216
	N273	N	0.182513	0.531715	0.089033
	N274	N	0.827601	0.456716	0.088520
	N275	N	0.828164	0.531685	0.918964
	O276	O	1.004883	0.970399	0.016485
	H277	H	1.000291	0.969487	0.015233
	H278	H	1.007591	0.977564	0.018783
	O279	O	0.043018	0.067987	0.000332
	H280	H	0.030902	0.073935	-0.002173
	H281	H	0.047740	0.072521	-0.002881
	O282	O	-0.020008	0.071277	0.979027
	H283	H	-0.021597	0.068170	0.978894
	H284	H	-0.025310	0.075231	0.975687
	O285	O	0.527785	0.503850	0.515288
	H286	H	0.518933	0.508685	0.509749
	H287	H	0.527274	0.500120	0.516202
	O288	O	0.529215	0.516758	0.472414
	H289	H	0.530128	0.527304	0.463395
	H290	H	0.532601	0.519178	0.472075
	O291	O	0.504620	0.503693	0.495054
	H292	H	0.497240	0.499058	0.497068
	H293	H	0.507959	0.495035	0.490894
	O294	O	-0.024473	0.047894	0.001904
	H295	H	-0.025659	0.047845	0.003755
	H296	H	-0.025303	0.051346	-0.010422
	O297	O	0.483662	0.502591	0.507052
	H298	H	0.492339	0.506113	0.508762
	H299	H	0.474859	0.497575	0.509770
	O300	O	-0.047725	1.054260	0.966543
	H301	H	-0.042121	1.048033	0.973920
	H302	H	-0.056873	1.051744	0.956759
	O303	O	0.481719	0.535237	0.460991
	H304	H	0.484007	0.544656	0.463645
	H305	H	0.478202	0.536420	0.451575
	O306	O	0.003412	-0.022673	1.043419
	H307	H	0.009810	-0.016481	1.043164
	H308	H	0.006034	-0.022030	1.043625
	O309	O	0.990403	0.927907	0.964969
	H310	H	0.994243	0.920872	0.960202
	H311	H	0.994389	0.933096	0.966926
	O312	O	0.527328	0.519149	0.547862
	H313	H	0.536561	0.525593	0.552464
	H314	H	0.533888	0.512123	0.546532
	O315	O	0.009748	0.964761	-0.007623
	H316	H	0.008548	0.963852	-0.003782
	H317	H	0.008567	0.954298	-0.010014
	O318	O	0.041204	0.944431	0.024361
	H319	H	0.032632	0.945417	0.017034
	H320	H	0.049868	0.947204	0.028054
	O321	O	0.959916	0.957700	0.011657
	H322	H	0.958174	0.951252	0.022230
	H323	H	0.964662	0.957228	0.011144
