data_Molecule from HDF5

_cell_length_a		15.930497
_cell_length_b		16.405301
_cell_length_c		16.332644
_cell_angle_alpha	90.813300
_cell_angle_beta	88.989277
_cell_angle_gamma	88.775175
_symmetry_space_group_name_H-M	'P 1'
_symmetry_Int_Tables_number		1

loop_
	_symmetry_equiv_pos_as_xyz
	x,y,z

loop_
	_atom_site_label
	_atom_site_type_symbol
	_atom_site_fract_x
	_atom_site_fract_y
	_atom_site_fract_z
	H0	H	0.389589	0.842025	0.719073
	H1	H	0.589994	0.162400	0.720662
	H2	H	0.605115	0.841839	0.277566
	H3	H	0.389144	0.164560	0.287809
	H4	H	0.714591	0.400402	0.837930
	H5	H	0.697217	0.596024	0.166475
	H6	H	0.283981	0.599537	0.836087
	H7	H	0.279473	0.414744	0.164253
	H8	H	0.829034	0.721746	0.404038
	H9	H	0.159915	0.716545	0.598274
	H10	H	0.826612	0.297257	0.601131
	H11	H	0.158599	0.282517	0.391765
	H12	H	0.829345	0.409210	0.717529
	H13	H	0.161484	0.601913	0.710601
	H14	H	0.827114	0.606219	0.292196
	H15	H	0.159998	0.401011	0.282270
	H16	H	0.390908	0.721527	0.838776
	H17	H	0.593266	0.723063	0.160810
	H18	H	0.606445	0.277526	0.839681
	H19	H	0.387755	0.288775	0.162801
	H20	H	0.715173	0.840685	0.398645
	H21	H	0.696998	0.167445	0.597987
	H22	H	0.281757	0.838964	0.596646
	H23	H	0.276859	0.165718	0.410363
	H24	H	0.892093	0.343823	0.218351
	H25	H	0.092420	0.664937	0.219931
	H26	H	0.105151	0.343263	0.776136
	H27	H	0.890343	0.666159	0.788594
	H28	H	0.212123	0.901091	0.338549
	H29	H	0.197257	0.097338	0.666311
	H30	H	0.780216	0.100038	0.337026
	H31	H	0.780180	0.914514	0.664447
	H32	H	0.329441	0.221195	0.904158
	H33	H	0.661632	0.213175	0.098075
	H34	H	0.326896	0.796318	0.099768
	H35	H	0.658719	0.781349	0.892514
	H36	H	0.328842	0.907365	0.216860
	H37	H	0.661153	0.098495	0.212258
	H38	H	0.325725	0.102704	0.794813
	H39	H	0.658683	0.896785	0.779941
	H40	H	0.889426	0.222709	0.338675
	H41	H	0.094586	0.226037	0.659849
	H42	H	0.101862	0.780475	0.339554
	H43	H	0.887076	0.790008	0.661988
	H44	H	0.216823	0.341893	0.897317
	H45	H	0.198553	0.669551	0.094541
	H46	H	0.785568	0.339664	0.095237
	H47	H	0.776799	0.666276	0.909042
	H48	H	0.391715	0.119857	0.596741
	H49	H	0.581687	0.886214	0.597855
	H50	H	0.579148	0.115657	0.410517
	H51	H	0.412007	0.888014	0.401017
	H52	H	0.590397	0.405727	0.119272
	H53	H	0.590995	0.593361	0.882002
	H54	H	0.399367	0.604821	0.116382
	H55	H	0.406607	0.409574	0.884091
	H56	H	0.120030	0.595948	0.389159
	H57	H	0.872639	0.595693	0.605385
	H58	H	0.114511	0.409449	0.588386
	H59	H	0.872987	0.404420	0.415418
	H60	H	0.113143	0.408587	0.580851
	H61	H	0.872076	0.609568	0.593601
	H62	H	0.113547	0.603946	0.421604
	H63	H	0.879201	0.423846	0.414800
	H64	H	0.395009	0.603628	0.118323
	H65	H	0.583877	0.589116	0.885537
	H66	H	0.585053	0.410384	0.115819
	H67	H	0.411621	0.410308	0.886262
	H68	H	0.588930	0.119863	0.408880
	H69	H	0.581904	0.890456	0.583184
	H70	H	0.394837	0.120005	0.603654
	H71	H	0.405702	0.888905	0.412186
	H72	H	0.892225	0.618774	0.088796
	H73	H	0.086331	0.390911	0.085366
	H74	H	0.087042	0.622902	0.892978
	H75	H	0.899730	0.386062	0.905470
	H76	H	0.092027	0.912501	0.618301
	H77	H	0.078727	0.091799	0.385952
	H78	H	0.899890	0.104930	0.616072
	H79	H	0.903252	0.909977	0.382554
	H80	H	0.612555	0.085646	0.907113
	H81	H	0.375016	0.094925	0.100877
	H82	H	0.615319	0.907788	0.093373
	H83	H	0.377900	0.912739	0.921630
	H84	H	0.613903	0.904383	0.082318
	H85	H	0.373857	0.103774	0.094352
	H86	H	0.614432	0.090000	0.906112
	H87	H	0.375722	0.922801	0.903710
	H88	H	0.894064	0.106052	0.618574
	H89	H	0.085174	0.098455	0.382323
	H90	H	0.076727	0.911429	0.614921
	H91	H	0.909789	0.914020	0.386888
	H92	H	0.076123	0.616100	0.909032
	H93	H	0.092639	0.386803	0.091292
	H94	H	0.890120	0.624095	0.106486
	H95	H	0.913521	0.388105	0.896581
	H96	H	0.398383	0.116557	0.599096
	H97	H	0.594381	0.884648	0.589431
	H98	H	0.580893	0.119325	0.400362
	H99	H	0.400095	0.884124	0.401509
	H100	H	0.582734	0.402904	0.117918
	H101	H	0.583231	0.597716	0.883874
	H102	H	0.398660	0.600089	0.116613
	H103	H	0.410023	0.405845	0.884686
	H104	H	0.106590	0.573158	0.410071
	H105	H	0.879013	0.593371	0.588021
	H106	H	0.111388	0.415432	0.584420
	H107	H	0.870724	0.414502	0.397675
	H108	H	0.906181	0.617635	0.099910
	H109	H	0.083368	0.389067	0.094090
	H110	H	0.096097	0.621198	0.911243
	H111	H	0.912222	0.391143	0.912696
	H112	H	0.084488	0.899397	0.621245
	H113	H	0.088833	0.089665	0.383873
	H114	H	0.896009	0.100444	0.615914
	H115	H	0.910136	0.906558	0.383949
	H116	H	0.612142	0.089499	0.910755
	H117	H	0.378161	0.094237	0.089367
	H118	H	0.611722	0.916057	0.085447
	H119	H	0.369295	0.902776	0.904713
	C120	C	0.368561	0.011106	0.625740
	C121	C	0.612410	0.994060	0.620899
	C122	C	0.616959	0.011527	0.376094
	C123	C	0.373038	0.994111	0.379161
	C124	C	0.618297	0.377232	0.009627
	C125	C	0.613481	0.623003	0.991638
	C126	C	0.370177	0.628970	0.008951
	C127	C	0.375528	0.382722	0.992451
	C128	C	0.003272	0.622931	0.380549
	C129	C	0.985080	0.626374	0.622367
	C130	C	0.003214	0.384565	0.618115
	C131	C	0.984365	0.382270	0.377124
	C132	C	0.869923	0.512852	0.124921
	C133	C	0.114346	0.496068	0.120090
	C134	C	0.119300	0.513021	0.874345
	C135	C	0.875188	0.495483	0.879286
	C136	C	0.116529	0.878094	0.510501
	C137	C	0.111790	0.122911	0.491718
	C138	C	0.868356	0.130106	0.508997
	C139	C	0.874612	0.883744	0.492045
	C140	C	0.503195	0.120940	0.880799
	C141	C	0.485622	0.124590	0.122641
	C142	C	0.503264	0.883233	0.118769
	C143	C	0.484146	0.880495	0.877686
	C144	C	0.371054	0.889677	0.680187
	C145	C	0.609476	0.115235	0.680196
	C146	C	0.621892	0.890202	0.317133
	C147	C	0.370895	0.116280	0.325708
	C148	C	0.676732	0.379045	0.887039
	C149	C	0.663238	0.618701	0.116171
	C150	C	0.318861	0.622487	0.885412
	C151	C	0.316905	0.390398	0.115204
	C152	C	0.878302	0.682315	0.383766
	C153	C	0.110302	0.679510	0.618669
	C154	C	0.877121	0.333059	0.620046
	C155	C	0.108899	0.322214	0.374419
	C156	C	0.878574	0.388619	0.678137
	C157	C	0.111185	0.622268	0.674490
	C158	C	0.877538	0.624581	0.328185
	C159	C	0.109503	0.380981	0.319437
	C160	C	0.372196	0.683022	0.886951
	C161	C	0.611513	0.681923	0.113356
	C162	C	0.622514	0.318169	0.887918
	C163	C	0.371053	0.328025	0.114397
	C164	C	0.676968	0.889664	0.377605
	C165	C	0.663080	0.117503	0.619181
	C166	C	0.317380	0.888136	0.619030
	C167	C	0.315018	0.116833	0.386620
	C168	C	0.872946	0.391462	0.179525
	C169	C	0.111394	0.617373	0.178976
	C170	C	0.122831	0.391284	0.816071
	C171	C	0.872496	0.617647	0.826255
	C172	C	0.174356	0.879815	0.387504
	C173	C	0.162975	0.119665	0.616185
	C174	C	0.815699	0.123363	0.386248
	C175	C	0.817335	0.890966	0.615270
	C176	C	0.378468	0.180817	0.884233
	C177	C	0.611518	0.176990	0.118903
	C178	C	0.377313	0.831691	0.119360
	C179	C	0.609113	0.821186	0.875024
	C180	C	0.378357	0.887247	0.177495
	C181	C	0.611281	0.119950	0.175590
	C182	C	0.376701	0.122245	0.829540
	C183	C	0.609005	0.878153	0.818465
	C184	C	0.869948	0.184382	0.386961
	C185	C	0.111451	0.183370	0.613041
	C186	C	0.119697	0.819732	0.388213
	C187	C	0.870660	0.829048	0.613912
	C188	C	0.178094	0.390553	0.876480
	C189	C	0.164200	0.619667	0.116490
	C190	C	0.819486	0.389287	0.118499
	C191	C	0.816026	0.617605	0.886304
	C192	C	0.389053	0.096653	0.605729
	C193	C	0.592028	0.909081	0.597042
	C194	C	0.590514	0.096204	0.399637
	C195	C	0.398529	0.909015	0.399047
	C196	C	0.593441	0.399805	0.095378
	C197	C	0.592334	0.600005	0.906016
	C198	C	0.391240	0.608890	0.094811
	C199	C	0.401809	0.402739	0.907181
	C200	C	0.090740	0.598337	0.401046
	C201	C	0.897365	0.605670	0.601747
	C202	C	0.090319	0.405119	0.592231
	C203	C	0.896904	0.407131	0.402131
	C204	C	0.890025	0.598003	0.104480
	C205	C	0.093659	0.411006	0.096988
	C206	C	0.093843	0.597887	0.897548
	C207	C	0.901038	0.410441	0.899042
	C208	C	0.091552	0.901084	0.595936
	C209	C	0.090598	0.099865	0.406345
	C210	C	0.890320	0.109941	0.594538
	C211	C	0.900237	0.904173	0.406717
	C212	C	0.590411	0.095640	0.901583
	C213	C	0.398268	0.104022	0.101262
	C214	C	0.590911	0.903452	0.094116
	C215	C	0.396970	0.905442	0.902737
	Zn216	Zn	0.492097	0.001733	0.752286
	Zn217	Zn	0.494936	0.002627	0.247751
	Zn218	Zn	0.743404	0.502326	0.001862
	Zn219	Zn	0.244977	0.505543	-0.000644
	Zn220	Zn	-0.005986	0.751617	0.500874
	Zn221	Zn	-0.007133	0.256102	0.498552
	Zn222	Zn	-0.004227	0.504585	0.746988
	Zn223	Zn	-0.007107	0.504164	0.251586
	Zn224	Zn	0.493532	0.754897	-0.000985
	Zn225	Zn	0.495787	0.249929	0.000698
	Zn226	Zn	0.743166	0.004183	0.500773
	Zn227	Zn	0.242055	0.001698	0.502056
	N228	N	0.402288	0.967112	0.684406
	N229	N	0.578749	0.037633	0.681349
	N230	N	0.585235	0.966982	0.316131
	N231	N	0.406245	0.038976	0.320988
	N232	N	0.674246	0.415159	0.963622
	N233	N	0.664447	0.582417	0.039508
	N234	N	0.317302	0.589710	0.962377
	N235	N	0.319567	0.423615	0.038217
	N236	N	0.957492	0.681357	0.415762
	N237	N	0.030779	0.682418	0.587227
	N238	N	0.955564	0.330462	0.583132
	N239	N	0.029757	0.322821	0.409685
	N240	N	0.958191	0.419762	0.676978
	N241	N	0.032004	0.590218	0.677251
	N242	N	0.956299	0.588290	0.326059
	N243	N	0.031005	0.417561	0.321128
	N244	N	0.403687	0.686990	0.964738
	N245	N	0.581419	0.684761	0.034906
	N246	N	0.586796	0.316909	0.965327
	N247	N	0.406427	0.322937	0.037010
	N248	N	0.674196	0.966075	0.413609
	N249	N	0.665217	0.041232	0.582797
	N250	N	0.315642	0.964667	0.585830
	N251	N	0.316324	0.039948	0.419124
	N252	N	0.903353	0.469168	0.183858
	N253	N	0.080895	0.539547	0.181267
	N254	N	0.087111	0.468326	0.814503
	N255	N	0.908604	0.540554	0.821760
	N256	N	0.172759	0.915278	0.464445
	N257	N	0.163328	0.082619	0.539967
	N258	N	0.814391	0.090573	0.463262
	N259	N	0.819859	0.924402	0.538593
	N260	N	0.458112	0.180345	0.915314
	N261	N	0.532229	0.180167	0.086835
	N262	N	0.456183	0.828953	0.083385
	N263	N	0.530441	0.822238	0.910899
	N264	N	0.457831	0.918472	0.177106
	N265	N	0.532053	0.088189	0.178078
	N266	N	0.455355	0.085707	0.827237
	N267	N	0.530269	0.914330	0.819894
	N268	N	0.901996	0.188809	0.464575
	N269	N	0.080428	0.185609	0.534855
	N270	N	0.084723	0.818343	0.465752
	N271	N	0.905684	0.824541	0.536277
	N272	N	0.176187	0.467205	0.912046
	N273	N	0.166218	0.543222	0.080340
	N274	N	0.817260	0.465720	0.085266
	N275	N	0.817636	0.540666	0.918616
	O276	O	1.107766	0.098151	1.042223
	H277	H	1.121776	0.095312	1.033215
	H278	H	1.095472	0.108685	1.037759
	O279	O	0.403286	0.463034	0.645248
	H280	H	0.409874	0.446377	0.635097
	H281	H	0.400349	0.479268	0.661555
	O282	O	0.566680	0.411060	0.378902
	H283	H	0.559764	0.414688	0.387829
	H284	H	0.578355	0.415108	0.365671
	O285	O	0.537411	0.365604	0.520270
	H286	H	0.544214	0.363916	0.513571
	H287	H	0.540029	0.360748	0.521887
	O288	O	0.525358	0.467701	0.354364
	H289	H	0.534996	0.462185	0.358655
	H290	H	0.501199	0.481398	0.346539
	O291	O	-0.111238	-0.054149	0.968157
	H292	H	-0.115628	-0.053768	0.960722
	H293	H	-0.115122	-0.045660	0.970860
	O294	O	0.992758	0.893689	0.024752
	H295	H	0.994560	0.897654	0.020150
	H296	H	0.997753	0.878303	0.020609
	O297	O	0.989868	1.140195	-0.010092
	H298	H	0.993207	1.141513	-0.021095
	H299	H	0.997961	1.135202	-0.015428
	O300	O	0.559789	0.645381	0.499702
	H301	H	0.566422	0.645957	0.494033
	H302	H	0.555777	0.645083	0.494985
	O303	O	0.490636	0.533370	0.429338
	H304	H	0.495918	0.542587	0.441698
	H305	H	0.491358	0.536958	0.429480
	O306	O	0.469995	0.632833	0.512253
	H307	H	0.473158	0.625128	0.505644
	H308	H	0.474465	0.640613	0.515069
	O309	O	0.476005	0.498247	0.519112
	H310	H	0.487586	0.496357	0.511543
	H311	H	0.476410	0.489158	0.526710
	O312	O	0.893618	0.981500	1.031332
	H313	H	0.880033	0.993524	1.030816
	H314	H	0.905977	0.977517	1.040790
	O315	O	1.065754	0.949838	-0.045132
	H316	H	1.066288	0.944929	-0.038963
	H317	H	1.062351	0.941988	-0.044991
	O318	O	0.398598	0.390779	0.591399
	H319	H	0.404796	0.371798	0.597111
	H320	H	0.393190	0.389887	0.599419
	O321	O	0.479765	0.633149	0.459290
	H322	H	0.479178	0.632927	0.457699
	H323	H	0.461347	0.641780	0.458136
	O324	O	0.050394	1.117498	0.862383
	H325	H	0.043448	1.108909	0.860296
	H326	H	0.048013	1.124348	0.850691
	O327	O	-0.095817	1.084185	0.996011
	H328	H	-0.101773	1.080469	1.009154
	H329	H	-0.091611	1.094966	1.006407
	O330	O	-0.062333	0.083996	0.070794
	H331	H	-0.057141	0.090789	0.064263
	H332	H	-0.060960	0.081394	0.087280
	O333	O	0.431921	0.417162	0.600617
	H334	H	0.437009	0.406623	0.596515
	H335	H	0.444158	0.421737	0.608269
	O336	O	-0.067053	0.018268	-0.137225
	H337	H	-0.069907	0.020816	-0.145710
	H338	H	-0.073276	0.027287	-0.141573
	O339	O	-0.107583	-0.033225	0.074599
	H340	H	-0.108462	-0.037397	0.074844
	H341	H	-0.095090	-0.029624	0.089139
	O342	O	0.657198	0.362200	0.464142
	H343	H	0.658568	0.378722	0.443676
	H344	H	0.680943	0.340905	0.451646
	O345	O	0.021016	1.049666	1.156166
	H346	H	0.027625	1.056917	1.155237
	H347	H	0.011296	1.044109	1.157587
	O348	O	0.603516	0.472625	0.579329
	H349	H	0.622432	0.478216	0.569558
	H350	H	0.596305	0.478537	0.587311
	O351	O	0.518086	0.628345	0.452747
	H352	H	0.519912	0.613601	0.456080
	H353	H	0.513722	0.630013	0.464845
	O354	O	0.180708	1.006683	0.201921
	H355	H	0.189967	1.010161	0.198121
	H356	H	0.179739	0.999673	0.194287
	O357	O	0.463412	0.560240	0.522599
	H358	H	0.470225	0.549589	0.520263
	H359	H	0.451953	0.546878	0.530480
	O360	O	0.897875	0.091605	0.963517
	H361	H	0.903119	0.090641	0.959993
	H362	H	0.896463	0.090322	0.966548
	O363	O	0.584780	0.520178	0.583770
	H364	H	0.588269	0.519493	0.585836
	H365	H	0.566673	0.517342	0.584459
	O366	O	0.463200	0.429828	0.352789
	H367	H	0.462322	0.429567	0.348170
	H368	H	0.464653	0.431230	0.360369
	O369	O	1.087191	0.008371	-0.077278
	H370	H	1.082001	0.022459	-0.072581
	H371	H	1.104708	0.000169	-0.072991
	O372	O	0.542463	0.377365	0.412256
	H373	H	0.525009	0.368936	0.400865
	H374	H	0.543186	0.395145	0.407465
	O375	O	0.923100	-0.066846	1.138394
	H376	H	0.915812	-0.067794	1.129704
	H377	H	0.914014	-0.067618	1.140406
	O378	O	0.107903	0.844447	-0.175117
	H379	H	0.096452	0.846815	-0.165591
	H380	H	0.124537	0.827633	-0.186345
	O381	O	0.476820	0.494120	0.505011
	H382	H	0.474776	0.490981	0.506487
	H383	H	0.466827	0.506953	0.509467
	O384	O	1.126483	0.942129	0.004789
	H385	H	1.133294	0.948877	0.010068
	H386	H	1.135344	0.946314	0.002819
	O387	O	0.962021	-0.147521	0.934358
	H388	H	0.962090	-0.144977	0.933185
	H389	H	0.952002	-0.144381	0.945445
	O390	O	1.085810	1.074638	0.024796
	H391	H	1.085337	1.082354	0.023680
	H392	H	1.088516	1.076871	0.016190
	O393	O	0.403280	0.500166	0.582261
	H394	H	0.412515	0.512900	0.582892
	H395	H	0.398158	0.504180	0.588171
