data_Molecule from HDF5

_cell_length_a		16.471281
_cell_length_b		16.548273
_cell_length_c		16.571426
_cell_angle_alpha	90.063255
_cell_angle_beta	90.189453
_cell_angle_gamma	89.901753
_symmetry_space_group_name_H-M	'P 1'
_symmetry_Int_Tables_number		1

loop_
	_symmetry_equiv_pos_as_xyz
	x,y,z

loop_
	_atom_site_label
	_atom_site_type_symbol
	_atom_site_fract_x
	_atom_site_fract_y
	_atom_site_fract_z
	H0	H	0.403889	0.871496	0.731334
	H1	H	0.617574	0.183356	0.733912
	H2	H	0.617968	0.873194	0.285173
	H3	H	0.399455	0.182956	0.284991
	H4	H	0.730724	0.422196	0.852897
	H5	H	0.731604	0.633306	0.165482
	H6	H	0.287426	0.633733	0.851832
	H7	H	0.289490	0.426577	0.166117
	H8	H	0.852616	0.753907	0.399562
	H9	H	0.166845	0.747672	0.612325
	H10	H	0.851495	0.307118	0.614152
	H11	H	0.165361	0.307443	0.404406
	H12	H	0.852270	0.423288	0.730262
	H13	H	0.165972	0.634606	0.730490
	H14	H	0.852874	0.637841	0.283277
	H15	H	0.166952	0.425922	0.290146
	H16	H	0.403066	0.750736	0.852030
	H17	H	0.617490	0.751828	0.164845
	H18	H	0.613769	0.307106	0.853321
	H19	H	0.403368	0.307951	0.165803
	H20	H	0.731393	0.872208	0.403190
	H21	H	0.732164	0.183953	0.616360
	H22	H	0.288721	0.870879	0.614116
	H23	H	0.285221	0.182962	0.402199
	H24	H	0.902904	0.372662	0.231406
	H25	H	0.116011	0.684776	0.231956
	H26	H	0.114579	0.371934	0.787838
	H27	H	0.900740	0.683185	0.785029
	H28	H	0.234600	0.918845	0.355195
	H29	H	0.231913	0.134356	0.664025
	H30	H	0.782939	0.136093	0.352767
	H31	H	0.787621	0.923408	0.664694
	H32	H	0.352515	0.249680	0.904406
	H33	H	0.666085	0.253965	0.119312
	H34	H	0.354281	0.806894	0.115184
	H35	H	0.665539	0.805375	0.901649
	H36	H	0.353341	0.924825	0.228449
	H37	H	0.665651	0.138173	0.235301
	H38	H	0.353671	0.136138	0.786277
	H39	H	0.666017	0.922109	0.787141
	H40	H	0.899460	0.251640	0.351890
	H41	H	0.114874	0.250846	0.663893
	H42	H	0.118566	0.803438	0.354733
	H43	H	0.902243	0.805411	0.663816
	H44	H	0.228913	0.371182	0.905938
	H45	H	0.232064	0.684938	0.115434
	H46	H	0.787515	0.372124	0.114431
	H47	H	0.786460	0.684031	0.902425
	H48	H	0.421674	0.140662	0.600597
	H49	H	0.594139	0.917257	0.598663
	H50	H	0.597589	0.141526	0.421314
	H51	H	0.425556	0.917644	0.419602
	H52	H	0.602548	0.441565	0.122585
	H53	H	0.590456	0.620064	0.898188
	H54	H	0.425918	0.619743	0.119513
	H55	H	0.415947	0.430438	0.892527
	H56	H	0.121049	0.618844	0.422202
	H57	H	0.896991	0.615129	0.594857
	H58	H	0.123132	0.438656	0.601282
	H59	H	0.896264	0.446785	0.415577
	H60	H	0.121946	0.436449	0.594437
	H61	H	0.896331	0.615466	0.598100
	H62	H	0.119304	0.614612	0.423492
	H63	H	0.893193	0.435454	0.416755
	H64	H	0.418209	0.621715	0.122570
	H65	H	0.601830	0.621506	0.894262
	H66	H	0.595393	0.444567	0.118537
	H67	H	0.414212	0.446635	0.897452
	H68	H	0.591215	0.139128	0.419682
	H69	H	0.599868	0.916253	0.595433
	H70	H	0.422520	0.138912	0.596835
	H71	H	0.419899	0.916403	0.422919
	H72	H	0.915803	0.642784	0.097606
	H73	H	0.099868	0.415582	0.100628
	H74	H	0.099426	0.642131	0.920230
	H75	H	0.914706	0.415938	0.926682
	H76	H	0.102014	0.938126	0.623124
	H77	H	0.096235	0.114309	0.397517
	H78	H	0.914537	0.123053	0.622975
	H79	H	0.916915	0.946991	0.397911
	H80	H	0.619147	0.115942	0.930129
	H81	H	0.401272	0.113730	0.092501
	H82	H	0.622584	0.945911	0.100161
	H83	H	0.398216	0.940937	0.923910
	H84	H	0.625178	0.936194	0.099282
	H85	H	0.397042	0.115048	0.103609
	H86	H	0.622003	0.109867	0.917630
	H87	H	0.396776	0.943220	0.916812
	H88	H	0.919021	0.109227	0.617761
	H89	H	0.094803	0.118085	0.396375
	H90	H	0.096563	0.943261	0.619308
	H91	H	0.927778	0.942433	0.400308
	H92	H	0.097735	0.641787	0.917361
	H93	H	0.094828	0.417671	0.098600
	H94	H	0.926251	0.640194	0.101000
	H95	H	0.919589	0.413204	0.911322
	H96	H	0.418433	0.140737	0.596870
	H97	H	0.598929	0.914514	0.601291
	H98	H	0.593805	0.137966	0.426035
	H99	H	0.420315	0.913908	0.416663
	H100	H	0.595397	0.436612	0.122109
	H101	H	0.598311	0.611271	0.899300
	H102	H	0.419780	0.613968	0.119570
	H103	H	0.429087	0.437959	0.900178
	H104	H	0.120723	0.614479	0.419004
	H105	H	0.895855	0.618403	0.596018
	H106	H	0.119971	0.443387	0.596604
	H107	H	0.897810	0.441576	0.426019
	H108	H	0.923070	0.637894	0.090763
	H109	H	0.099702	0.417166	0.095533
	H110	H	0.096096	0.640840	0.919878
	H111	H	0.929525	0.419981	0.921991
	H112	H	0.094303	0.935667	0.620581
	H113	H	0.098748	0.117497	0.395682
	H114	H	0.928300	0.121012	0.617455
	H115	H	0.919490	0.935572	0.394931
	H116	H	0.625833	0.123124	0.919826
	H117	H	0.396789	0.123907	0.096300
	H118	H	0.621459	0.940704	0.091649
	H119	H	0.394383	0.936229	0.919031
	C120	C	0.388386	0.036690	0.630803
	C121	C	0.630833	1.019466	0.631481
	C122	C	0.629372	0.037013	0.388446
	C123	C	0.387783	1.019078	0.387070
	C124	C	0.630213	0.407878	0.017863
	C125	C	0.630889	0.650370	1.000179
	C126	C	0.388047	0.650629	0.017085
	C127	C	0.387964	0.407455	1.000804
	C128	C	0.017344	0.650499	0.386984
	C129	C	0.999884	0.649528	0.629641
	C130	C	0.017659	0.406867	0.629837
	C131	C	0.999762	0.408114	0.387118
	C132	C	0.888204	0.537240	0.130026
	C133	C	0.131421	0.520295	0.130776
	C134	C	0.130183	0.537484	0.887603
	C135	C	0.888016	0.519459	0.887317
	C136	C	0.131091	0.906000	0.518097
	C137	C	0.129911	0.149625	0.499803
	C138	C	0.885991	0.151036	0.516628
	C139	C	0.888298	0.908201	0.500270
	C140	C	0.518439	0.149405	0.889271
	C141	C	0.501543	0.151206	0.131549
	C142	C	0.518964	0.908742	0.129262
	C143	C	0.500457	0.907437	0.887554
	C144	C	0.385888	0.918650	0.691157
	C145	C	0.634873	0.136730	0.693027
	C146	C	0.634851	0.919954	0.325931
	C147	C	0.382999	0.136225	0.325980
	C148	C	0.690572	0.404449	0.900108
	C149	C	0.691810	0.652298	0.118189
	C150	C	0.327646	0.652310	0.899081
	C151	C	0.328866	0.407079	0.119044
	C152	C	0.899861	0.713321	0.382033
	C153	C	0.118888	0.709025	0.631675
	C154	C	0.898829	0.347373	0.631912
	C155	C	0.118396	0.347965	0.385861
	C156	C	0.899243	0.404839	0.689964
	C157	C	0.118426	0.652459	0.690362
	C158	C	0.899724	0.655266	0.324432
	C159	C	0.119205	0.406551	0.328966
	C160	C	0.384845	0.710950	0.899410
	C161	C	0.634994	0.711378	0.117908
	C162	C	0.632594	0.346937	0.900279
	C163	C	0.385675	0.348277	0.118739
	C164	C	0.691105	0.919347	0.385006
	C165	C	0.692045	0.136970	0.634694
	C166	C	0.328512	0.918334	0.632792
	C167	C	0.325834	0.136159	0.384261
	C168	C	0.885080	0.419690	0.191059
	C169	C	0.134195	0.638069	0.191419
	C170	C	0.132808	0.419277	0.827819
	C171	C	0.883766	0.636669	0.825998
	C172	C	0.193324	0.901781	0.401619
	C173	C	0.191042	0.152758	0.617298
	C174	C	0.823555	0.154148	0.399627
	C175	C	0.827594	0.904925	0.617688
	C176	C	0.399940	0.209759	0.886435
	C177	C	0.619139	0.212886	0.136153
	C178	C	0.400882	0.848045	0.132003
	C179	C	0.618317	0.845903	0.884046
	C180	C	0.400499	0.906409	0.188773
	C181	C	0.618773	0.155323	0.194121
	C182	C	0.400549	0.153413	0.827564
	C183	C	0.618423	0.904044	0.826950
	C184	C	0.881411	0.211978	0.399402
	C185	C	0.132964	0.210732	0.616952
	C186	C	0.135560	0.844139	0.401393
	C187	C	0.884549	0.846208	0.617080
	C188	C	0.189708	0.418781	0.886583
	C189	C	0.191928	0.637817	0.133570
	C190	C	0.827394	0.419420	0.132810
	C191	C	0.826693	0.636907	0.884398
	C192	C	0.413562	0.118635	0.605399
	C193	C	0.605141	0.937412	0.605750
	C194	C	0.602114	0.118246	0.414876
	C195	C	0.414460	0.937298	0.412544
	C196	C	0.605005	0.433551	0.099687
	C197	C	0.604603	0.624841	0.918491
	C198	C	0.413962	0.625621	0.099214
	C199	C	0.412567	0.431482	0.918106
	C200	C	0.098858	0.623698	0.413795
	C201	C	0.917531	0.623714	0.603679
	C202	C	0.099989	0.432235	0.604733
	C203	C	0.917249	0.433888	0.412032
	C204	C	0.914286	0.619012	0.103951
	C205	C	0.105568	0.438142	0.105541
	C206	C	0.105067	0.620059	0.912171
	C207	C	0.914048	0.437585	0.912848
	C208	C	0.105037	0.931891	0.599801
	C209	C	0.103999	0.123839	0.417848
	C210	C	0.912822	0.125206	0.598140
	C211	C	0.914014	0.934409	0.418708
	C212	C	0.600840	0.123573	0.915144
	C213	C	0.419808	0.125191	0.105017
	C214	C	0.601729	0.933743	0.104130
	C215	C	0.417854	0.932876	0.912785
	Zn216	Zn	0.509455	0.029220	0.759681
	Zn217	Zn	0.509741	0.028542	0.258862
	Zn218	Zn	0.759310	0.528415	0.008606
	Zn219	Zn	0.259285	0.529061	0.008469
	Zn220	Zn	0.008737	0.778167	0.508715
	Zn221	Zn	0.008208	0.279066	0.507769
	Zn222	Zn	0.008945	0.528548	0.758191
	Zn223	Zn	0.009674	0.529265	0.258612
	Zn224	Zn	0.509857	0.779343	0.009192
	Zn225	Zn	0.509753	0.278890	0.009522
	Zn226	Zn	0.758189	0.028526	0.509078
	Zn227	Zn	0.259259	0.027765	0.509391
	N228	N	0.421948	0.993380	0.690307
	N229	N	0.597708	0.062653	0.691157
	N230	N	0.597266	0.994181	0.327797
	N231	N	0.420772	0.062296	0.327571
	N232	N	0.689332	0.441548	0.974325
	N233	N	0.689593	0.615451	0.043975
	N234	N	0.329392	0.615700	0.973318
	N235	N	0.330077	0.442881	0.044550
	N236	N	0.974065	0.710580	0.420065
	N237	N	0.044102	0.707466	0.594640
	N238	N	0.973540	0.348455	0.595353
	N239	N	0.043066	0.348753	0.421157
	N240	N	0.974195	0.441129	0.688858
	N241	N	0.043182	0.616416	0.689452
	N242	N	0.973894	0.617164	0.327093
	N243	N	0.044358	0.443191	0.329666
	N244	N	0.421712	0.710108	0.973985
	N245	N	0.597966	0.710447	0.043485
	N246	N	0.596105	0.348782	0.974544
	N247	N	0.421471	0.348101	0.043938
	N248	N	0.687838	0.993039	0.423097
	N249	N	0.689558	0.062951	0.596976
	N250	N	0.329724	0.992806	0.595972
	N251	N	0.328571	0.062149	0.421616
	N252	N	0.921920	0.494120	0.189649
	N253	N	0.097075	0.563951	0.189552
	N254	N	0.096630	0.494156	0.828223
	N255	N	0.920942	0.562429	0.827455
	N256	N	0.190659	0.939708	0.475265
	N257	N	0.189333	0.115469	0.543378
	N258	N	0.825969	0.117115	0.473843
	N259	N	0.830026	0.942969	0.544116
	N260	N	0.474266	0.207294	0.924146
	N261	N	0.545070	0.210602	0.098012
	N262	N	0.475665	0.849495	0.095693
	N263	N	0.543773	0.847869	0.921064
	N264	N	0.474947	0.943538	0.187107
	N265	N	0.544401	0.117945	0.191721
	N266	N	0.475242	0.116432	0.829204
	N267	N	0.544018	0.941594	0.829011
	N268	N	0.919493	0.210114	0.473221
	N269	N	0.095844	0.208949	0.542701
	N270	N	0.097473	0.846783	0.474819
	N271	N	0.921686	0.848148	0.543128
	N272	N	0.188355	0.493466	0.922911
	N273	N	0.190324	0.563417	0.096607
	N274	N	0.829247	0.493599	0.095621
	N275	N	0.829072	0.563055	0.921711
	O276	O	1.222613	1.049651	0.231668
	H277	H	1.216848	1.087268	0.227012
	H278	H	1.251179	1.058978	0.255492
	O279	O	-0.212312	0.246467	0.986492
	H280	H	-0.227981	0.269236	0.974567
	H281	H	-0.210752	0.246331	0.971612
	O282	O	0.479415	0.393525	0.560758
	H283	H	0.477093	0.406003	0.553500
	H284	H	0.477529	0.399693	0.565576
	O285	O	0.308701	0.323388	0.710528
	H286	H	0.331084	0.343697	0.714839
	H287	H	0.302713	0.315794	0.721701
	O288	O	0.953451	-0.198180	0.959023
	H289	H	0.950302	-0.198190	0.987581
	H290	H	0.936832	-0.197925	0.981327
	O291	O	0.491647	0.474536	0.473608
	H292	H	0.492410	0.475803	0.488618
	H293	H	0.495821	0.488895	0.467470
	O294	O	0.198912	-0.144098	0.181709
	H295	H	0.194124	-0.130455	0.191179
	H296	H	0.207826	-0.141217	0.167270
	O297	O	1.012011	0.201683	0.079300
	H298	H	1.002016	0.207164	0.069721
	H299	H	1.010640	0.198172	0.078992
	O300	O	0.228856	0.001484	-0.212710
	H301	H	0.257077	-0.007062	-0.231188
	H302	H	0.231404	-0.017701	-0.201656
	O303	O	-0.013160	0.219793	0.045194
	H304	H	-0.013533	0.208923	0.049063
	H305	H	-0.024947	0.219587	0.040255
	O306	O	1.230406	0.229787	0.018355
	H307	H	1.252622	0.244375	0.022243
	H308	H	1.219539	0.230378	0.033639
	O309	O	0.495944	0.359806	0.455158
	H310	H	0.516697	0.355223	0.441160
	H311	H	0.499070	0.363032	0.445677
	O312	O	-0.186800	-0.157313	0.818809
	H313	H	-0.178399	-0.145302	0.829374
	H314	H	-0.164943	-0.140747	0.832604
	O315	O	0.719569	0.493739	0.527825
	H316	H	0.716573	0.477969	0.533467
	H317	H	0.717661	0.492130	0.559309
	O318	O	1.029953	1.044311	0.022016
	H319	H	1.019365	1.041476	0.019180
	H320	H	1.042095	1.038982	0.027884
	O321	O	-0.044474	0.970646	1.148733
	H322	H	-0.033641	0.972336	1.133319
	H323	H	-0.038752	0.965072	1.153609
	O324	O	0.939540	-0.007688	0.787433
	H325	H	0.951140	-0.017221	0.786846
	H326	H	0.947476	-0.012774	0.787268
	O327	O	0.379105	0.305748	0.496257
	H328	H	0.350034	0.301062	0.495901
	H329	H	0.389924	0.300376	0.485300
	O330	O	0.418228	0.605737	0.665001
	H331	H	0.425183	0.604244	0.656927
	H332	H	0.413876	0.607619	0.668285
	O333	O	0.344282	0.349642	0.361943
	H334	H	0.346536	0.372110	0.368738
	H335	H	0.359950	0.347586	0.368223
	O336	O	0.625573	0.741469	0.485690
	H337	H	0.625141	0.742376	0.473518
	H338	H	0.649130	0.752949	0.496226
	O339	O	0.310345	0.736587	0.301068
	H340	H	0.301871	0.723273	0.294516
	H341	H	0.317901	0.722883	0.316888
	O342	O	-0.291348	0.724073	-0.290341
	H343	H	-0.334979	0.728159	-0.282781
	H344	H	-0.277866	0.751125	-0.266554
	O345	O	0.386516	0.629805	0.310958
	H346	H	0.389301	0.633042	0.317335
	H347	H	0.408282	0.603358	0.303878
	O348	O	0.625528	0.384493	0.691034
	H349	H	0.621726	0.367476	0.698136
	H350	H	0.616824	0.384606	0.695528
	O351	O	-0.178648	-0.067217	1.163025
	H352	H	-0.166933	-0.075381	1.148181
	H353	H	-0.168633	-0.042422	1.168180
	O354	O	0.794848	-0.188964	1.030613
	H355	H	0.773475	-0.188030	1.033864
	H356	H	0.779544	-0.187666	1.048369
	O357	O	0.292513	0.498192	0.726273
	H358	H	0.281364	0.506016	0.734888
	H359	H	0.289375	0.494803	0.734227
	O360	O	0.541088	0.552939	0.388706
	H361	H	0.543928	0.571211	0.390657
	H362	H	0.534274	0.546475	0.396941
	O363	O	1.173289	-0.018848	-0.093877
	H364	H	1.169661	-0.027618	-0.068236
	H365	H	1.173208	-0.006941	-0.089625
	O366	O	0.383974	0.324028	0.613896
	H367	H	0.385540	0.322364	0.639085
	H368	H	0.373823	0.318357	0.609915
	O369	O	-0.002607	0.096860	1.070983
	H370	H	-0.008913	0.095663	1.056670
	H371	H	-0.005745	0.097391	1.075536
	O372	O	0.163150	1.165914	0.846020
	H373	H	0.156642	1.152253	0.846761
	H374	H	0.162867	1.157849	0.845663
	O375	O	1.223152	-0.029092	0.024173
	H376	H	1.219210	-0.018514	0.023315
	H377	H	1.226804	-0.021594	0.041501
	O378	O	0.483863	0.748917	0.396511
	H379	H	0.462088	0.741212	0.399434
	H380	H	0.469241	0.763775	0.383651
	O381	O	-0.210616	1.021746	0.081823
	H382	H	-0.207960	1.023219	0.091826
	H383	H	-0.209134	1.016439	0.087691
	O384	O	0.638459	0.458125	0.630237
	H385	H	0.627360	0.479054	0.636483
	H386	H	0.646926	0.472506	0.632432
	O387	O	0.221359	0.814279	0.792901
	H388	H	0.206689	0.829486	0.806853
	H389	H	0.194142	0.801198	0.795741
	O390	O	0.021339	1.187012	1.223124
	H391	H	-0.002166	1.186653	1.225776
	H392	H	0.011425	1.183682	1.209100
	O393	O	1.042549	-0.086575	0.231880
	H394	H	1.037008	-0.063759	0.230229
	H395	H	1.059105	-0.088369	0.244127
	O396	O	0.476715	0.581907	0.401467
	H397	H	0.483066	0.563030	0.405381
	H398	H	0.475613	0.576492	0.396267
	O399	O	0.525074	0.620601	0.505730
	H400	H	0.539215	0.628143	0.519169
	H401	H	0.515656	0.607207	0.515885
	O402	O	0.824697	0.005188	0.913148
	H403	H	0.831630	0.024265	0.902188
	H404	H	0.825422	0.025815	0.922107
	O405	O	0.979723	0.225510	-0.209636
	H406	H	0.982431	0.242519	-0.229575
	H407	H	0.995848	0.212413	-0.204715
	O408	O	0.926779	0.822292	1.218749
	H409	H	0.935411	0.837883	1.235446
	H410	H	0.927062	0.813301	1.234012
	O411	O	0.712980	0.545765	0.299186
	H412	H	0.701191	0.563614	0.322492
	H413	H	0.732748	0.550248	0.287505
	O414	O	0.014079	-0.100405	-0.148004
	H415	H	0.016331	-0.109991	-0.156236
	H416	H	0.006744	-0.110743	-0.125273
	O417	O	0.528493	0.308823	0.287509
	H418	H	0.539644	0.281446	0.261176
	H419	H	0.572752	0.312299	0.293262
	O420	O	1.223980	-0.188576	0.985154
	H421	H	1.250990	-0.214451	0.973850
	H422	H	1.220397	-0.167717	0.997086
	O423	O	1.049577	0.819066	-0.036591
	H424	H	1.034389	0.816506	-0.010088
	H425	H	1.059818	0.802027	-0.032824
	O426	O	0.526167	0.648876	0.710110
	H427	H	0.510513	0.655235	0.706706
	H428	H	0.516373	0.643680	0.702483
	O429	O	0.812455	0.210892	0.822196
	H430	H	0.806024	0.205508	0.830367
	H431	H	0.848513	0.202793	0.812136
	O432	O	1.029177	0.078817	0.797729
	H433	H	1.042470	0.073964	0.802086
	H434	H	1.032046	0.057363	0.801850
	O435	O	0.397921	0.525405	0.343241
	H436	H	0.411074	0.517880	0.331199
	H437	H	0.404911	0.526489	0.347158
	O438	O	0.703706	0.374906	0.311948
	H439	H	0.714617	0.372074	0.359092
	H440	H	0.718524	0.417440	0.298471
	O441	O	0.399905	0.745644	0.540266
	H442	H	0.393780	0.731692	0.539623
	H443	H	0.403438	0.754018	0.514198
	O444	O	0.304000	0.662629	0.482865
	H445	H	0.305473	0.665449	0.484344
	H446	H	0.293523	0.671319	0.481117
	O447	O	0.333970	0.595010	0.567513
	H448	H	0.325468	0.603948	0.571903
	H449	H	0.339958	0.594362	0.554016
	O450	O	1.156488	0.184472	0.012637
	H451	H	1.174767	0.198350	0.017242
	H452	H	1.158061	0.179801	0.035572
	O453	O	0.448997	0.391945	0.553053
	H454	H	0.458211	0.373140	0.542465
	H455	H	0.451345	0.388216	0.564245
	O456	O	-0.347727	0.733566	0.593018
	H457	H	-0.351795	0.725339	0.592073
	H458	H	-0.345237	0.735755	0.614036
	O459	O	0.700350	0.585971	0.473770
	H460	H	0.690976	0.571877	0.497375
	H461	H	0.705032	0.592819	0.473449
	O462	O	0.715786	0.551086	0.720675
	H463	H	0.732000	0.579252	0.735877
	H464	H	0.713231	0.558171	0.724454
	O465	O	0.216677	0.237577	0.217207
	H466	H	0.186561	0.247816	0.221292
	H467	H	0.223543	0.258583	0.228255
	O468	O	-0.057668	-0.029775	0.174323
	H469	H	-0.058266	-0.019568	0.169817
	H470	H	-0.072568	-0.032136	0.192758
	O471	O	-0.159022	0.052974	-0.132203
	H472	H	-0.143963	0.050884	-0.129790
	H473	H	-0.167861	0.049121	-0.156721
	O474	O	0.857970	1.184606	0.126026
	H475	H	0.859501	1.188414	0.120920
	H476	H	0.864098	1.189629	0.123645
	O477	O	0.718307	0.313414	0.481588
	H478	H	0.732866	0.310365	0.495835
	H479	H	0.715587	0.299928	0.489610
