data_Molecule from HDF5

_cell_length_a		16.726676
_cell_length_b		16.645408
_cell_length_c		16.514525
_cell_angle_alpha	89.988939
_cell_angle_beta	90.165238
_cell_angle_gamma	89.785773
_symmetry_space_group_name_H-M	'P 1'
_symmetry_Int_Tables_number		1

loop_
	_symmetry_equiv_pos_as_xyz
	x,y,z

loop_
	_atom_site_label
	_atom_site_type_symbol
	_atom_site_fract_x
	_atom_site_fract_y
	_atom_site_fract_z
	H0	H	0.405362	0.842545	0.713280
	H1	H	0.614564	0.151583	0.717277
	H2	H	0.610135	0.840560	0.275444
	H3	H	0.402774	0.153382	0.272116
	H4	H	0.726682	0.391877	0.836777
	H5	H	0.727274	0.598740	0.151513
	H6	H	0.284370	0.605777	0.839359
	H7	H	0.285886	0.390171	0.148204
	H8	H	0.853935	0.718812	0.388136
	H9	H	0.164540	0.715532	0.596753
	H10	H	0.855028	0.274164	0.599885
	H11	H	0.162609	0.272626	0.386462
	H12	H	0.854089	0.391628	0.714445
	H13	H	0.164069	0.598788	0.713357
	H14	H	0.852561	0.599724	0.273806
	H15	H	0.162626	0.389964	0.270288
	H16	H	0.401168	0.719349	0.839215
	H17	H	0.612118	0.715410	0.151319
	H18	H	0.612346	0.275885	0.837330
	H19	H	0.403304	0.275932	0.149628
	H20	H	0.729534	0.842144	0.388514
	H21	H	0.732204	0.151406	0.602981
	H22	H	0.287994	0.841985	0.597773
	H23	H	0.283531	0.151649	0.384458
	H24	H	0.905459	0.340403	0.213197
	H25	H	0.112657	0.652272	0.214588
	H26	H	0.112149	0.341743	0.772688
	H27	H	0.906728	0.654475	0.777091
	H28	H	0.225438	0.894485	0.335155
	H29	H	0.230723	0.103315	0.648047
	H30	H	0.785262	0.104334	0.338488
	H31	H	0.786629	0.890067	0.648531
	H32	H	0.354086	0.219839	0.887249
	H33	H	0.662027	0.219885	0.102994
	H34	H	0.354956	0.772982	0.101087
	H35	H	0.661170	0.773018	0.887323
	H36	H	0.354067	0.891285	0.215869
	H37	H	0.662498	0.102048	0.217072
	H38	H	0.353235	0.102003	0.771997
	H39	H	0.661048	0.889096	0.771236
	H40	H	0.901504	0.218390	0.337379
	H41	H	0.114717	0.219129	0.648410
	H42	H	0.109967	0.779159	0.334657
	H43	H	0.905526	0.777652	0.650215
	H44	H	0.232014	0.343334	0.885870
	H45	H	0.232044	0.650260	0.102309
	H46	H	0.787618	0.340934	0.097879
	H47	H	0.788674	0.653188	0.890949
	H48	H	0.417999	0.109245	0.581743
	H49	H	0.599064	0.886654	0.580969
	H50	H	0.598135	0.108818	0.407129
	H51	H	0.420407	0.886924	0.402533
	H52	H	0.594440	0.409527	0.104207
	H53	H	0.600730	0.587081	0.879409
	H54	H	0.411726	0.580588	0.107563
	H55	H	0.422232	0.405874	0.880829
	H56	H	0.122293	0.587545	0.396866
	H57	H	0.895817	0.590933	0.584278
	H58	H	0.118520	0.405949	0.578715
	H59	H	0.899168	0.402971	0.412887
	H60	H	0.117967	0.410857	0.580983
	H61	H	0.896957	0.589694	0.580239
	H62	H	0.120253	0.592916	0.407906
	H63	H	0.901411	0.417226	0.404864
	H64	H	0.426685	0.577581	0.100713
	H65	H	0.597300	0.583836	0.881606
	H66	H	0.596832	0.403760	0.107490
	H67	H	0.416770	0.411403	0.881024
	H68	H	0.597009	0.108975	0.404944
	H69	H	0.596537	0.887070	0.582754
	H70	H	0.420806	0.108006	0.579145
	H71	H	0.414959	0.885600	0.407339
	H72	H	0.914365	0.607115	0.076019
	H73	H	0.092927	0.388792	0.077228
	H74	H	0.099265	0.610116	0.903628
	H75	H	0.915432	0.385705	0.907803
	H76	H	0.096846	0.902803	0.607455
	H77	H	0.087958	0.082818	0.384660
	H78	H	0.916079	0.087699	0.608374
	H79	H	0.920178	0.905345	0.380208
	H80	H	0.620066	0.090814	0.907011
	H81	H	0.398173	0.086864	0.081752
	H82	H	0.620435	0.902657	0.084671
	H83	H	0.395711	0.910481	0.899220
	H84	H	0.617632	0.906089	0.079286
	H85	H	0.398502	0.086855	0.081038
	H86	H	0.616079	0.081533	0.910123
	H87	H	0.396349	0.902200	0.907351
	H88	H	0.920165	0.079098	0.603638
	H89	H	0.096533	0.089853	0.379380
	H90	H	0.103591	0.906226	0.607514
	H91	H	0.915839	0.910471	0.380653
	H92	H	0.095348	0.608313	0.904526
	H93	H	0.100689	0.386208	0.077466
	H94	H	0.913153	0.610530	0.086456
	H95	H	0.912226	0.381240	0.900434
	H96	H	0.417272	0.108987	0.577888
	H97	H	0.596016	0.887797	0.579653
	H98	H	0.595629	0.108253	0.407157
	H99	H	0.414059	0.883379	0.400239
	H100	H	0.601654	0.409344	0.106357
	H101	H	0.596207	0.588700	0.880457
	H102	H	0.423522	0.592197	0.107595
	H103	H	0.424055	0.412412	0.884439
	H104	H	0.117230	0.580831	0.405400
	H105	H	0.897291	0.586568	0.583768
	H106	H	0.120143	0.406596	0.584090
	H107	H	0.894872	0.403543	0.397072
	H108	H	0.923196	0.606369	0.083553
	H109	H	0.096091	0.385529	0.084388
	H110	H	0.098623	0.608293	0.907681
	H111	H	0.920891	0.383942	0.900849
	H112	H	0.097600	0.909775	0.604082
	H113	H	0.099165	0.078301	0.381818
	H114	H	0.926269	0.087970	0.604676
	H115	H	0.922060	0.911426	0.382688
	H116	H	0.619810	0.082293	0.900448
	H117	H	0.397637	0.086221	0.081558
	H118	H	0.619197	0.909341	0.085664
	H119	H	0.400095	0.912554	0.909875
	C120	C	0.387236	0.005891	0.612664
	C121	C	0.630311	0.988935	0.615467
	C122	C	0.628697	0.005608	0.373864
	C123	C	0.385217	0.988479	0.370820
	C124	C	0.629091	0.375420	0.002274
	C125	C	0.629188	0.617231	0.985161
	C126	C	0.387298	0.617423	0.002454
	C127	C	0.388324	0.376665	0.984911
	C128	C	0.017058	0.618636	0.371473
	C129	C	0.999886	0.619266	0.614657
	C130	C	0.017138	0.375548	0.614565
	C131	C	1.000244	0.374537	0.371670
	C132	C	0.886207	0.505065	0.114217
	C133	C	0.129587	0.488700	0.113931
	C134	C	0.129616	0.505978	0.872513
	C135	C	0.885918	0.487774	0.871954
	C136	C	0.129703	0.875515	0.501820
	C137	C	0.128280	0.117056	0.484421
	C138	C	0.887086	0.118315	0.502567
	C139	C	0.887642	0.876661	0.484765
	C140	C	0.516569	0.118031	0.872832
	C141	C	0.499908	0.118647	0.115351
	C142	C	0.516905	0.874617	0.115579
	C143	C	0.498994	0.875449	0.872609
	C144	C	0.386122	0.889043	0.673184
	C145	C	0.632893	0.105160	0.677012
	C146	C	0.629294	0.887852	0.314784
	C147	C	0.383844	0.106143	0.311362
	C148	C	0.687426	0.373440	0.883999
	C149	C	0.687957	0.617863	0.104028
	C150	C	0.325607	0.622339	0.885790
	C151	C	0.327145	0.372908	0.102020
	C152	C	0.900224	0.678209	0.369857
	C153	C	0.117631	0.676370	0.615737
	C154	C	0.901203	0.314845	0.617805
	C155	C	0.116372	0.313304	0.368382
	C156	C	0.900768	0.373555	0.674641
	C157	C	0.117319	0.618525	0.673747
	C158	C	0.899620	0.619254	0.312955
	C159	C	0.116339	0.371879	0.310961
	C160	C	0.383593	0.678968	0.885769
	C161	C	0.630781	0.675776	0.103969
	C162	C	0.630482	0.315764	0.884282
	C163	C	0.385266	0.315964	0.102475
	C164	C	0.688841	0.888657	0.370874
	C165	C	0.691500	0.104890	0.620274
	C166	C	0.328215	0.888747	0.615386
	C167	C	0.324398	0.105297	0.367228
	C168	C	0.886138	0.387282	0.173701
	C169	C	0.131330	0.605305	0.174711
	C170	C	0.131317	0.388742	0.812414
	C171	C	0.886793	0.606670	0.815093
	C172	C	0.186801	0.875382	0.382600
	C173	C	0.189959	0.121060	0.601495
	C174	C	0.825912	0.121726	0.385263
	C175	C	0.827617	0.873286	0.602162
	C176	C	0.400259	0.179008	0.869610
	C177	C	0.615610	0.179275	0.119908
	C178	C	0.400897	0.814067	0.118847
	C179	C	0.614582	0.813674	0.869386
	C180	C	0.400641	0.872507	0.176175
	C181	C	0.615947	0.120457	0.176767
	C182	C	0.399954	0.120701	0.812114
	C183	C	0.614695	0.871877	0.811773
	C184	C	0.883681	0.178549	0.384746
	C185	C	0.132272	0.178420	0.601677
	C186	C	0.129675	0.817873	0.382546
	C187	C	0.886621	0.817188	0.602862
	C188	C	0.190737	0.389543	0.868739
	C189	C	0.190721	0.604487	0.118812
	C190	C	0.827565	0.387507	0.116526
	C191	C	0.828038	0.606133	0.871749
	C192	C	0.411894	0.087459	0.586836
	C193	C	0.604549	0.908265	0.588722
	C194	C	0.603983	0.087429	0.399467
	C195	C	0.409649	0.906624	0.396102
	C196	C	0.604528	0.400539	0.084579
	C197	C	0.604937	0.593505	0.902272
	C198	C	0.413259	0.590874	0.084160
	C199	C	0.413744	0.402598	0.903299
	C200	C	0.098845	0.594045	0.396285
	C201	C	0.918108	0.595889	0.589858
	C202	C	0.097898	0.400782	0.588848
	C203	C	0.919464	0.400278	0.397458
	C204	C	0.909865	0.586626	0.089064
	C205	C	0.104070	0.407787	0.087108
	C206	C	0.104789	0.587479	0.898023
	C207	C	0.909296	0.405211	0.896058
	C208	C	0.106112	0.899542	0.584685
	C209	C	0.101983	0.090973	0.402986
	C210	C	0.913336	0.092345	0.584285
	C211	C	0.912283	0.901941	0.402716
	C212	C	0.597551	0.092264	0.898565
	C213	C	0.419049	0.093656	0.088921
	C214	C	0.597885	0.899293	0.090216
	C215	C	0.418038	0.901213	0.898202
	Zn216	Zn	0.507602	-0.002596	0.742937
	Zn217	Zn	0.508125	-0.003064	0.243989
	Zn218	Zn	0.757214	0.495987	-0.006933
	Zn219	Zn	0.259020	0.497133	-0.006315
	Zn220	Zn	0.008801	0.748145	0.492973
	Zn221	Zn	0.007966	0.245913	0.493358
	Zn222	Zn	0.007651	0.497320	0.743674
	Zn223	Zn	0.008360	0.496586	0.242549
	Zn224	Zn	0.507952	0.745558	-0.005805
	Zn225	Zn	0.508428	0.247518	-0.006065
	Zn226	Zn	0.759080	-0.002515	0.494271
	Zn227	Zn	0.257098	-0.002998	0.492425
	N228	N	0.422080	0.963029	0.671500
	N229	N	0.595669	0.031895	0.674433
	N230	N	0.592805	0.961789	0.316148
	N231	N	0.420740	0.032417	0.313225
	N232	N	0.686911	0.409870	0.958421
	N233	N	0.687157	0.582162	0.028989
	N234	N	0.327674	0.584760	0.959614
	N235	N	0.328701	0.409931	0.027769
	N236	N	0.974624	0.678398	0.405249
	N237	N	0.043382	0.677335	0.580031
	N238	N	0.974552	0.315970	0.580785
	N239	N	0.042954	0.314816	0.405442
	N240	N	0.973897	0.410599	0.672888
	N241	N	0.043034	0.583798	0.673364
	N242	N	0.973457	0.583142	0.313707
	N243	N	0.043126	0.409352	0.312919
	N244	N	0.421420	0.675905	0.959486
	N245	N	0.594971	0.675774	0.029019
	N246	N	0.595016	0.316744	0.959037
	N247	N	0.422539	0.317960	0.028668
	N248	N	0.688736	0.963095	0.406762
	N249	N	0.690286	0.031323	0.582823
	N250	N	0.328495	0.962569	0.578524
	N251	N	0.324827	0.030910	0.403316
	N252	N	0.921824	0.461423	0.172649
	N253	N	0.093979	0.532090	0.171829
	N254	N	0.094095	0.462202	0.814370
	N255	N	0.921983	0.531930	0.814957
	N256	N	0.187378	0.910168	0.457999
	N257	N	0.187758	0.083734	0.527452
	N258	N	0.827570	0.085127	0.459757
	N259	N	0.828399	0.909874	0.527809
	N260	N	0.473865	0.177594	0.906510
	N261	N	0.542429	0.178221	0.082227
	N262	N	0.474269	0.815025	0.082098
	N263	N	0.541331	0.815566	0.906524
	N264	N	0.473702	0.909547	0.174299
	N265	N	0.542950	0.083426	0.174043
	N266	N	0.473308	0.083611	0.813789
	N267	N	0.541824	0.909725	0.813613
	N268	N	0.921006	0.176705	0.458883
	N269	N	0.094487	0.176119	0.527834
	N270	N	0.095311	0.817359	0.457973
	N271	N	0.923341	0.819000	0.528664
	N272	N	0.190048	0.463629	0.905179
	N273	N	0.189817	0.530812	0.081790
	N274	N	0.827392	0.461642	0.080375
	N275	N	0.826885	0.530935	0.905882
	O276	O	0.037375	1.216150	0.205731
	H277	H	0.038815	1.231357	0.223970
	H278	H	0.029155	1.194112	0.215923
	O279	O	0.441394	0.434508	0.271931
	H280	H	0.430806	0.459253	0.263888
	H281	H	0.459084	0.440590	0.264878
	O282	O	0.975184	-0.222594	1.215775
	H283	H	0.960712	-0.240724	1.238830
	H284	H	0.946966	-0.220432	1.213237
	O285	O	0.516641	0.530861	0.541231
	H286	H	0.515480	0.527972	0.538088
	H287	H	0.529783	0.536392	0.545626
	O288	O	0.547916	0.625373	0.465309
	H289	H	0.544051	0.625545	0.454431
	H290	H	0.553255	0.624354	0.468013
	O291	O	0.474773	0.421920	0.631236
	H292	H	0.465985	0.429857	0.634540
	H293	H	0.473947	0.415819	0.642256
	O294	O	0.927854	-0.026856	1.012395
	H295	H	0.924874	-0.040071	1.011559
	H296	H	0.926630	-0.013316	1.002235
	O297	O	0.216200	0.791105	0.197118
	H298	H	0.202497	0.796957	0.187156
	H299	H	0.204577	0.813998	0.192398
	O300	O	0.196915	0.184740	0.803524
	H301	H	0.179487	0.162597	0.820053
	H302	H	0.177692	0.174203	0.825787
	O303	O	0.534233	0.592941	0.355417
	H304	H	0.529208	0.594341	0.361183
	H305	H	0.528504	0.601434	0.359469
	O306	O	0.525325	0.399241	0.459117
	H307	H	0.534142	0.408884	0.474878
	H308	H	0.538276	0.389498	0.468787
	O309	O	0.315157	0.693311	0.685998
	H310	H	0.341080	0.674674	0.672644
	H311	H	0.328331	0.676833	0.661884
	O312	O	0.524642	0.633887	0.484338
	H313	H	0.530798	0.628936	0.503680
	H314	H	0.531678	0.628171	0.487502
	O315	O	1.221453	0.964481	0.774829
	H316	H	1.234573	0.967964	0.762589
	H317	H	1.224680	0.946255	0.777958
	O318	O	0.740381	0.467834	0.597754
	H319	H	0.740731	0.472008	0.608966
	H320	H	0.746261	0.476236	0.621766
	O321	O	0.214745	0.791526	0.784615
	H322	H	0.249395	0.760280	0.753591
	H323	H	0.219673	0.807226	0.813302
	O324	O	1.044395	1.027139	0.155535
	H325	H	1.047474	1.029096	0.141223
	H326	H	1.037147	0.995911	0.155618
	O327	O	0.072869	0.051970	0.760998
	H328	H	0.068493	0.039607	0.755486
	H329	H	0.073500	0.054476	0.757856
	O330	O	0.466791	0.464711	0.653168
	H331	H	0.461810	0.461909	0.661041
	H332	H	0.464646	0.456045	0.655833
	O333	O	0.472838	0.272755	0.711003
	H334	H	0.457425	0.255864	0.732727
	H335	H	0.436392	0.275641	0.716475
	O336	O	0.629880	0.304182	0.506534
	H337	H	0.621847	0.302849	0.532676
	H338	H	0.623232	0.307247	0.486423
	O339	O	0.957862	-0.153802	0.899690
	H340	H	0.974768	-0.165017	0.890068
	H341	H	0.966301	-0.151500	0.914585
	O342	O	-0.217014	0.017642	-0.228229
	H343	H	-0.240150	0.028751	-0.256457
	H344	H	-0.208425	0.038856	-0.225613
	O345	O	-0.035923	1.228588	1.035367
	H346	H	-0.036641	1.219573	1.045405
	H347	H	-0.038704	1.229150	1.056742
	O348	O	0.071800	-0.233723	0.043033
	H349	H	0.080298	-0.223531	0.057534
	H350	H	0.084788	-0.242322	0.053639
	O351	O	0.695289	0.585292	0.678013
	H352	H	0.693783	0.559722	0.690237
	H353	H	0.692940	0.587751	0.678176
	O354	O	-0.162703	0.175430	1.064736
	H355	H	-0.148497	0.161087	1.075645
	H356	H	-0.166134	0.186029	1.082503
	O357	O	0.523082	0.711359	0.707085
	H358	H	0.536185	0.725092	0.731530
	H359	H	0.542140	0.704266	0.694714
	O360	O	0.295529	0.284883	0.703386
	H361	H	0.261547	0.252916	0.733789
	H362	H	0.288626	0.300920	0.671889
	O363	O	0.061583	0.209633	-0.044595
	H364	H	0.073241	0.205756	-0.023745
	H365	H	0.056202	0.217406	-0.028507
	O366	O	0.552872	0.487407	0.683810
	H367	H	0.538621	0.485291	0.686985
	H368	H	0.551087	0.473270	0.680104
	O369	O	0.714380	0.291943	0.289534
	H370	H	0.684344	0.296915	0.299434
	H371	H	0.724444	0.297106	0.317613
	O372	O	0.795602	0.786420	0.204623
	H373	H	0.773120	0.761035	0.226138
	H374	H	0.788012	0.779411	0.153518
	O375	O	0.894441	0.075040	0.185182
	H376	H	0.883633	0.052196	0.188128
	H377	H	0.897450	0.067229	0.184010
	O378	O	0.724924	0.713939	0.516878
	H379	H	0.734790	0.722007	0.532251
	H380	H	0.735933	0.716179	0.531139
	O381	O	0.047369	0.776617	0.771197
	H382	H	0.082471	0.775369	0.772683
	H383	H	0.056743	0.750155	0.746726
	O384	O	0.813603	-0.191153	0.805972
	H385	H	0.828523	-0.169071	0.822290
	H386	H	0.826700	-0.181605	0.815263
	O387	O	0.776645	0.938175	-0.048404
	H388	H	0.774988	0.954401	-0.046489
	H389	H	0.789122	0.954375	-0.058020
	O390	O	0.540403	0.277984	0.281335
	H391	H	0.538825	0.274201	0.269335
	H392	H	0.540906	0.275413	0.273932
	O393	O	0.285775	0.460959	0.712933
	H394	H	0.286658	0.443848	0.707863
	H395	H	0.266215	0.463751	0.736556
	O396	O	-0.145615	1.150337	0.950949
	H397	H	-0.155218	1.159260	0.964697
	H398	H	-0.137594	1.144149	0.957611
	O399	O	0.175667	-0.072781	1.000540
	H400	H	0.177717	-0.068106	0.993684
	H401	H	0.177395	-0.059619	1.006357
	O402	O	0.315748	0.568411	0.505884
	H403	H	0.316374	0.548678	0.507372
	H404	H	0.321934	0.553582	0.489722
	O405	O	1.079134	0.051248	1.044452
	H406	H	1.065624	0.051741	1.036258
	H407	H	1.094077	0.046391	1.034530
	O408	O	0.226760	0.219535	0.018470
	H409	H	0.242664	0.223468	0.040635
	H410	H	0.237199	0.225686	0.044337
	O411	O	0.722093	0.706797	0.700787
	H412	H	0.711355	0.680417	0.696789
	H413	H	0.743319	0.736791	0.723259
	O414	O	0.739645	0.330836	0.489910
	H415	H	0.742664	0.322354	0.507810
	H416	H	0.741242	0.323251	0.506784
	O417	O	0.401358	0.665230	0.556691
	H418	H	0.402903	0.664620	0.552234
	H419	H	0.409084	0.654066	0.537514
	O420	O	0.318245	0.683263	0.300754
	H421	H	0.327649	0.689311	0.334824
	H422	H	0.302592	0.708591	0.292520
	O423	O	-0.208347	0.038794	1.059141
	H424	H	-0.211298	0.022410	1.081010
	H425	H	-0.206836	0.040498	1.060158
	O426	O	0.677290	0.536853	0.429538
	H427	H	0.682933	0.539545	0.425103
	H428	H	0.689204	0.529781	0.431965
	O429	O	0.931458	0.825675	0.992180
	H430	H	0.934345	0.822990	0.999029
	H431	H	0.943956	0.825960	0.964296
	O432	O	0.420459	0.401818	0.446041
	H433	H	0.416034	0.408322	0.420853
	H434	H	0.444152	0.408347	0.437478
	O435	O	0.220772	0.785433	-0.036351
	H436	H	0.223254	0.812730	-0.030942
	H437	H	0.239460	0.764031	-0.042403
	O438	O	0.237059	0.027635	0.211967
	H439	H	0.242451	0.055646	0.221484
	H440	H	0.245520	0.041930	0.233907
	O441	O	0.217911	0.208401	0.196078
	H442	H	0.245509	0.239470	0.230632
	H443	H	0.179155	0.202218	0.199925
	O444	O	0.298070	0.284407	0.531124
	H445	H	0.309101	0.280160	0.519042
	H446	H	0.291234	0.278294	0.536340
	O447	O	-0.021004	1.206401	0.781902
	H448	H	-0.013535	1.215201	0.791370
	H449	H	-0.011060	1.212287	0.779686
	O450	O	0.067441	0.897745	1.194251
	H451	H	0.049912	0.882234	1.197031
	H452	H	0.054956	0.904964	1.177554
	O453	O	0.439571	0.268595	0.428605
	H454	H	0.458104	0.266113	0.420501
	H455	H	0.444818	0.275837	0.445292
	O456	O	-0.210493	-0.033660	1.211244
	H457	H	-0.222476	-0.060013	1.228558
	H458	H	-0.215079	-0.052923	1.213673
	O459	O	0.694894	0.686135	0.305516
	H460	H	0.686270	0.664075	0.327795
	H461	H	0.684035	0.683614	0.321919
	O462	O	0.731511	0.484523	0.311483
	H463	H	0.743134	0.477516	0.303570
	H464	H	0.727161	0.469027	0.315899
	O465	O	0.783592	-0.206371	0.027095
	H466	H	0.781144	-0.220828	0.010848
	H467	H	0.773182	-0.188645	0.003791
	O468	O	0.284921	0.523478	0.272979
	H469	H	0.290067	0.554111	0.270715
	H470	H	0.263331	0.544015	0.249186
	O471	O	0.464872	0.714517	0.385566
	H472	H	0.457105	0.713916	0.380636
	H473	H	0.453147	0.718734	0.388213
	O474	O	0.282355	0.718917	0.455619
	H475	H	0.282813	0.702199	0.473201
	H476	H	0.259866	0.739639	0.466478
	O477	O	0.704004	0.306618	1.680262
	H478	H	0.693782	0.307424	1.686080
	H479	H	0.714021	0.284826	1.696760
	O480	O	0.315622	0.308080	0.306049
	H481	H	0.337303	0.312138	0.335396
	H482	H	0.339012	0.337638	0.305735
	O483	O	0.380205	0.461763	0.501294
	H484	H	0.373524	0.452880	0.486845
	H485	H	0.385184	0.445035	0.504024
	O486	O	0.799566	0.207575	0.786800
	H487	H	0.800111	0.207234	0.830870
	H488	H	0.834743	0.200019	0.787708
	O489	O	0.991475	1.030509	-0.064290
	H490	H	0.995474	1.034124	-0.066486
	H491	H	0.979434	1.023537	-0.065325
	O492	O	0.231761	0.062924	-0.068815
	H493	H	0.235496	0.066502	-0.073452
	H494	H	0.223817	0.070926	-0.058991
	O495	O	0.111233	1.029852	1.103687
	H496	H	0.099213	1.043651	1.122653
	H497	H	0.117102	1.016942	1.117861
	O498	O	0.946948	0.959504	0.769727
	H499	H	0.937488	0.962660	0.762059
	H500	H	0.949194	0.940003	0.778097
	O501	O	0.600740	0.540533	0.300082
	H502	H	0.606368	0.532852	0.298831
	H503	H	0.606973	0.551337	0.305792
