data_Molecule from HDF5

_cell_length_a		16.391111
_cell_length_b		16.192170
_cell_length_c		16.091999
_cell_angle_alpha	89.553287
_cell_angle_beta	89.916334
_cell_angle_gamma	89.352521
_symmetry_space_group_name_H-M	'P 1'
_symmetry_Int_Tables_number		1

loop_
	_symmetry_equiv_pos_as_xyz
	x,y,z

loop_
	_atom_site_label
	_atom_site_type_symbol
	_atom_site_fract_x
	_atom_site_fract_y
	_atom_site_fract_z
	H0	H	0.392567	0.831451	0.712416
	H1	H	0.585336	0.159959	0.713651
	H2	H	0.585044	0.830450	0.290737
	H3	H	0.385911	0.159256	0.281606
	H4	H	0.706236	0.391609	0.836730
	H5	H	0.699377	0.593235	0.163425
	H6	H	0.268777	0.603816	0.834721
	H7	H	0.269972	0.394298	0.162167
	H8	H	0.824390	0.718532	0.398745
	H9	H	0.150708	0.712187	0.595594
	H10	H	0.825600	0.282894	0.600069
	H11	H	0.147344	0.279783	0.394517
	H12	H	0.825327	0.400358	0.714853
	H13	H	0.150238	0.597750	0.713838
	H14	H	0.822854	0.600957	0.283867
	H15	H	0.149801	0.402065	0.285079
	H16	H	0.387732	0.712688	0.833879
	H17	H	0.581527	0.704007	0.164744
	H18	H	0.590248	0.280090	0.835126
	H19	H	0.388711	0.281344	0.164101
	H20	H	0.707733	0.835343	0.397974
	H21	H	0.701215	0.160339	0.601675
	H22	H	0.269831	0.834108	0.604441
	H23	H	0.267251	0.158455	0.393275
	H24	H	0.889736	0.334852	0.215564
	H25	H	0.080871	0.664564	0.207979
	H26	H	0.088551	0.334025	0.783466
	H27	H	0.886906	0.663026	0.783790
	H28	H	0.206308	0.893633	0.336213
	H29	H	0.203190	0.100115	0.661348
	H30	H	0.766631	0.104262	0.334967
	H31	H	0.771279	0.896328	0.662763
	H32	H	0.327637	0.218360	0.894591
	H33	H	0.648905	0.210263	0.102516
	H34	H	0.324970	0.780322	0.100405
	H35	H	0.648973	0.776877	0.900354
	H36	H	0.325832	0.893458	0.217427
	H37	H	0.649539	0.090178	0.213055
	H38	H	0.325872	0.099214	0.780865
	H39	H	0.650227	0.892714	0.783823
	H40	H	0.885710	0.216105	0.333102
	H41	H	0.083617	0.210052	0.663057
	H42	H	0.085880	0.787456	0.332902
	H43	H	0.887917	0.782795	0.661995
	H44	H	0.208803	0.336115	0.892906
	H45	H	0.202913	0.661165	0.099991
	H46	H	0.772471	0.333532	0.104478
	H47	H	0.765967	0.659156	0.895616
	H48	H	0.381197	0.115859	0.584692
	H49	H	0.581943	0.876824	0.595714
	H50	H	0.583918	0.115940	0.407069
	H51	H	0.404084	0.884399	0.419048
	H52	H	0.579198	0.406805	0.115492
	H53	H	0.578151	0.589677	0.879827
	H54	H	0.388267	0.578195	0.115606
	H55	H	0.399551	0.399061	0.879391
	H56	H	0.101449	0.584385	0.400065
	H57	H	0.874693	0.588731	0.587389
	H58	H	0.106467	0.403543	0.599700
	H59	H	0.867495	0.403697	0.401600
	H60	H	0.103667	0.395425	0.581937
	H61	H	0.870841	0.592826	0.595361
	H62	H	0.106097	0.598856	0.395852
	H63	H	0.872222	0.406807	0.413407
	H64	H	0.401757	0.587535	0.113425
	H65	H	0.580276	0.583451	0.881094
	H66	H	0.577195	0.397605	0.117352
	H67	H	0.389611	0.413642	0.881060
	H68	H	0.574121	0.115116	0.398373
	H69	H	0.577754	0.882211	0.587554
	H70	H	0.397003	0.116265	0.600142
	H71	H	0.383043	0.876598	0.414555
	H72	H	0.884612	0.619609	0.097405
	H73	H	0.076043	0.384409	0.084752
	H74	H	0.079703	0.615125	0.909363
	H75	H	0.900881	0.381231	0.904264
	H76	H	0.086476	0.915724	0.615684
	H77	H	0.084650	0.083370	0.381045
	H78	H	0.895420	0.097097	0.615876
	H79	H	0.900659	0.914908	0.383146
	H80	H	0.606220	0.091593	0.897606
	H81	H	0.373089	0.081047	0.090641
	H82	H	0.603304	0.891261	0.086474
	H83	H	0.371213	0.904495	0.905694
	H84	H	0.601724	0.907086	0.092579
	H85	H	0.369402	0.093057	0.093488
	H86	H	0.602041	0.091195	0.916657
	H87	H	0.370828	0.904255	0.907528
	H88	H	0.884975	0.089651	0.617441
	H89	H	0.070997	0.086566	0.383220
	H90	H	0.066728	0.907716	0.612601
	H91	H	0.895796	0.902784	0.378642
	H92	H	0.078145	0.615587	0.903575
	H93	H	0.086883	0.380413	0.088816
	H94	H	0.899686	0.613231	0.087997
	H95	H	0.895875	0.381831	0.913148
	H96	H	0.400984	0.107605	0.579480
	H97	H	0.588051	0.879384	0.586483
	H98	H	0.572791	0.111590	0.410860
	H99	H	0.398868	0.876262	0.397173
	H100	H	0.585791	0.401013	0.119933
	H101	H	0.574455	0.584836	0.881982
	H102	H	0.387881	0.594311	0.119701
	H103	H	0.406020	0.414160	0.886456
	H104	H	0.100373	0.596304	0.411426
	H105	H	0.871648	0.596843	0.587568
	H106	H	0.098014	0.414208	0.584761
	H107	H	0.871487	0.415460	0.403762
	H108	H	0.882904	0.613510	0.079545
	H109	H	0.077206	0.380471	0.096497
	H110	H	0.075064	0.612992	0.908314
	H111	H	0.891198	0.378611	0.905057
	H112	H	0.082080	0.895427	0.621966
	H113	H	0.079018	0.096632	0.376427
	H114	H	0.896709	0.083627	0.612483
	H115	H	0.888296	0.913711	0.379231
	H116	H	0.599973	0.075258	0.905792
	H117	H	0.373886	0.090367	0.082326
	H118	H	0.606772	0.894383	0.102761
	H119	H	0.372635	0.905165	0.906305
	C120	C	0.364997	0.005116	0.619787
	C121	C	0.609680	0.987929	0.620122
	C122	C	0.607805	0.005929	0.377678
	C123	C	0.364874	0.986978	0.377934
	C124	C	0.610769	0.372295	0.008963
	C125	C	0.606135	0.614563	0.989944
	C126	C	0.363935	0.618493	0.007419
	C127	C	0.367375	0.376889	0.990274
	C128	C	-0.005262	0.622931	0.374228
	C129	C	0.979732	0.621224	0.619186
	C130	C	-0.004324	0.376075	0.619538
	C131	C	0.977492	0.378114	0.376011
	C132	C	0.863192	0.506834	0.119764
	C133	C	0.107694	0.490081	0.118697
	C134	C	0.108964	0.506739	0.876433
	C135	C	0.865019	0.488508	0.876856
	C136	C	0.108613	0.876819	0.507693
	C137	C	0.107140	0.118122	0.489052
	C138	C	0.862876	0.121216	0.506965
	C139	C	0.866188	0.879592	0.489349
	C140	C	0.496241	0.118127	0.875971
	C141	C	0.479040	0.115843	0.119466
	C142	C	0.496318	0.870322	0.122836
	C143	C	0.478821	0.873572	0.877335
	C144	C	0.370048	0.881246	0.675802
	C145	C	0.605558	0.111062	0.675918
	C146	C	0.606075	0.880639	0.325815
	C147	C	0.365577	0.109985	0.319491
	C148	C	0.667585	0.372520	0.885731
	C149	C	0.661125	0.612376	0.114180
	C150	C	0.307645	0.620746	0.884023
	C151	C	0.309219	0.375777	0.113235
	C152	C	0.872739	0.679942	0.377722
	C153	C	0.101923	0.675171	0.616449
	C154	C	0.873839	0.321149	0.619249
	C155	C	0.099333	0.319993	0.376099
	C156	C	0.873655	0.379687	0.676099
	C157	C	0.101698	0.617904	0.675264
	C158	C	0.872227	0.621600	0.320211
	C159	C	0.100509	0.380542	0.321176
	C160	C	0.366662	0.675578	0.883594
	C161	C	0.602468	0.667573	0.115016
	C162	C	0.609595	0.317235	0.884664
	C163	C	0.368642	0.319782	0.114443
	C164	C	0.666906	0.883180	0.379283
	C165	C	0.663172	0.111368	0.619914
	C166	C	0.309009	0.882746	0.621883
	C167	C	0.306917	0.109949	0.375338
	C168	C	0.868011	0.383621	0.177535
	C169	C	0.102940	0.614540	0.171978
	C170	C	0.108640	0.383415	0.820538
	C171	C	0.866038	0.612955	0.821026
	C172	C	0.166613	0.876090	0.384754
	C173	C	0.163918	0.118216	0.612491
	C174	C	0.805345	0.122697	0.383708
	C175	C	0.810157	0.878398	0.613337
	C176	C	0.375520	0.178256	0.875509
	C177	C	0.600521	0.171440	0.120233
	C178	C	0.373673	0.817155	0.120623
	C179	C	0.600724	0.815562	0.879576
	C180	C	0.374214	0.873681	0.178923
	C181	C	0.600778	0.111612	0.175518
	C182	C	0.374765	0.118809	0.818985
	C183	C	0.601144	0.873465	0.821712
	C184	C	0.864594	0.178241	0.382777
	C185	C	0.104660	0.173387	0.613309
	C186	C	0.106583	0.823304	0.382777
	C187	C	0.867861	0.821515	0.612926
	C188	C	0.168583	0.384544	0.875026
	C189	C	0.163739	0.612855	0.118176
	C190	C	0.810104	0.382762	0.121565
	C191	C	0.805857	0.610882	0.876482
	C192	C	0.386599	0.091045	0.595180
	C193	C	0.588847	0.901848	0.596792
	C194	C	0.584138	0.091857	0.398944
	C195	C	0.388282	0.901455	0.402976
	C196	C	0.587544	0.394864	0.095337
	C197	C	0.584063	0.592546	0.903396
	C198	C	0.386232	0.593994	0.094087
	C199	C	0.391415	0.401542	0.904347
	C200	C	0.080509	0.600037	0.396113
	C201	C	0.894422	0.599446	0.596600
	C202	C	0.080458	0.397860	0.595901
	C203	C	0.892717	0.401620	0.399283
	C204	C	0.883286	0.593025	0.095442
	C205	C	0.086463	0.404125	0.096431
	C206	C	0.084618	0.592399	0.900263
	C207	C	0.889001	0.402770	0.900552
	C208	C	0.085254	0.899624	0.594347
	C209	C	0.084766	0.095430	0.402803
	C210	C	0.885720	0.097200	0.592834
	C211	C	0.888368	0.903558	0.402644
	C212	C	0.580800	0.093328	0.899881
	C213	C	0.394160	0.094343	0.095675
	C214	C	0.581712	0.891303	0.100485
	C215	C	0.393654	0.897479	0.900021
	Zn216	Zn	0.487934	-0.004258	0.747537
	Zn217	Zn	0.486685	-0.005286	0.249312
	Zn218	Zn	0.735714	0.495449	-0.001169
	Zn219	Zn	0.237205	0.497793	-0.002317
	Zn220	Zn	-0.012292	0.751393	0.497149
	Zn221	Zn	-0.013434	0.247153	0.497561
	Zn222	Zn	-0.012261	0.498269	0.748633
	Zn223	Zn	-0.014137	0.499967	0.246314
	Zn224	Zn	0.486621	0.744253	-0.000596
	Zn225	Zn	0.488812	0.246771	-0.000738
	Zn226	Zn	0.736175	-0.001087	0.498896
	Zn227	Zn	0.235722	-0.003350	0.498569
	N228	N	0.404095	0.958466	0.674651
	N229	N	0.572977	0.033254	0.676104
	N230	N	0.570041	0.957814	0.324379
	N231	N	0.401146	0.032556	0.321064
	N232	N	0.668337	0.406039	0.963862
	N233	N	0.663170	0.579830	0.035454
	N234	N	0.305859	0.586002	0.962219
	N235	N	0.308639	0.410759	0.035018
	N236	N	0.950147	0.681029	0.410567
	N237	N	0.025055	0.677182	0.582141
	N238	N	0.950584	0.318867	0.584664
	N239	N	0.021944	0.318106	0.409487
	N240	N	0.950459	0.413019	0.676445
	N241	N	0.024736	0.584897	0.676892
	N242	N	0.949164	0.586838	0.318407
	N243	N	0.023744	0.415787	0.320729
	N244	N	0.400818	0.674424	0.961478
	N245	N	0.568642	0.668921	0.036985
	N246	N	0.574889	0.316750	0.962622
	N247	N	0.404033	0.320259	0.036802
	N248	N	0.668252	0.962073	0.410632
	N249	N	0.665923	0.033669	0.586057
	N250	N	0.305545	0.960940	0.588018
	N251	N	0.306380	0.032520	0.411012
	N252	N	0.900427	0.461701	0.176570
	N253	N	0.068789	0.537316	0.172436
	N254	N	0.072239	0.460515	0.821372
	N255	N	0.902125	0.535805	0.820915
	N256	N	0.167920	0.908527	0.463542
	N257	N	0.165404	0.084297	0.534323
	N258	N	0.804265	0.087739	0.461787
	N259	N	0.809044	0.913847	0.535333
	N260	N	0.452204	0.178211	0.910072
	N261	N	0.523759	0.174002	0.085875
	N262	N	0.450667	0.814710	0.086488
	N263	N	0.523572	0.815442	0.913392
	N264	N	0.451521	0.905834	0.180694
	N265	N	0.524157	0.077803	0.175217
	N266	N	0.450880	0.082213	0.819205
	N267	N	0.524342	0.908807	0.820341
	N268	N	0.899579	0.177524	0.460163
	N269	N	0.070047	0.173510	0.535494
	N270	N	0.071187	0.823448	0.460395
	N271	N	0.901859	0.822137	0.534737
	N272	N	0.169015	0.462260	0.909057
	N273	N	0.166798	0.534500	0.085714
	N274	N	0.806919	0.460345	0.086312
	N275	N	0.804827	0.532455	0.910164
	O276	O	1.056680	0.050003	1.058424
	H277	H	1.058142	0.054387	1.058228
	H278	H	1.049740	0.045385	1.052335
	O279	O	0.402795	0.617239	0.481643
	H280	H	0.408187	0.610917	0.464939
	H281	H	0.400825	0.613789	0.476975
	O282	O	0.573429	0.436407	0.554633
	H283	H	0.562999	0.439968	0.558737
	H284	H	0.562573	0.446951	0.566882
	O285	O	0.437876	0.580919	0.426999
	H286	H	0.446142	0.586880	0.416412
	H287	H	0.440933	0.583306	0.424360
	O288	O	0.426208	0.506744	0.522577
	H289	H	0.427657	0.488660	0.521822
	H290	H	0.428631	0.505064	0.524233
	O291	O	-0.118657	-0.034817	1.014582
	H292	H	-0.120610	-0.038779	1.017009
	H293	H	-0.122234	-0.022476	1.015379
	O294	O	1.078280	0.994658	0.140178
	H295	H	1.079553	0.992386	0.131883
	H296	H	1.067840	0.996309	0.146152
	O297	O	1.107000	1.058361	-0.028986
	H298	H	1.113300	1.057961	-0.030640
	H299	H	1.111492	1.052368	-0.017487
	O300	O	0.365587	0.405483	0.551925
	H301	H	0.363331	0.415851	0.544636
	H302	H	0.363747	0.402255	0.546730
	O303	O	0.509718	0.463578	0.531082
	H304	H	0.515695	0.450222	0.533385
	H305	H	0.500172	0.473012	0.547308
	O306	O	1.041482	1.178614	1.066731
	H307	H	1.043327	1.173562	1.077994
	H308	H	1.034204	1.176685	1.069556
	O309	O	0.397112	0.543768	0.515692
	H310	H	0.400426	0.545532	0.514897
	H311	H	0.396398	0.546804	0.513089
	O312	O	0.806860	1.028597	0.887886
	H313	H	0.822651	1.011445	0.888956
	H314	H	0.797818	1.033339	0.873916
	O315	O	1.099126	0.911530	-0.110485
	H316	H	1.098141	0.917853	-0.104347
	H317	H	1.096949	0.903371	-0.109634
	O318	O	0.516952	0.584149	0.453843
	H319	H	0.510973	0.575188	0.455657
	H320	H	0.528479	0.568373	0.454259
	O321	O	0.468993	0.489420	0.385328
	H322	H	0.476443	0.491803	0.399196
	H323	H	0.468724	0.487705	0.388507
	O324	O	-0.003211	0.843926	1.012312
	H325	H	0.001581	0.838607	1.005047
	H326	H	-0.012335	0.846943	1.007176
	O327	O	-0.016983	1.167558	1.042942
	H328	H	-0.003469	1.162880	1.035105
	H329	H	-0.030543	1.172083	1.020590
	O330	O	0.054365	0.043527	0.094252
	H331	H	0.056000	0.041335	0.098727
	H332	H	0.055157	0.058486	0.091675
	O333	O	0.511720	0.515361	0.558460
	H334	H	0.509637	0.534863	0.562446
	H335	H	0.507687	0.521610	0.560886
	O336	O	-0.065871	-0.049187	-0.028052
	H337	H	-0.072643	-0.034213	-0.035941
	H338	H	-0.071782	-0.030289	-0.025163
	O339	O	0.054272	0.146093	0.144195
	H340	H	0.048493	0.150901	0.149721
	H341	H	0.056251	0.159513	0.140363
	O342	O	0.565633	0.494130	0.597374
	H343	H	0.567538	0.496327	0.598599
	H344	H	0.558197	0.486997	0.599283
	O345	O	0.132219	0.915275	0.873898
	H346	H	0.126366	0.901320	0.868396
	H347	H	0.148425	0.914306	0.866571
	O348	O	0.469862	0.435791	0.492967
	H349	H	0.461953	0.431977	0.483867
	H350	H	0.470915	0.434631	0.483735
	O351	O	0.510597	0.489261	0.472791
	H352	H	0.510716	0.478392	0.481490
	H353	H	0.511001	0.493000	0.472083
	O354	O	0.582380	0.375317	0.450560
	H355	H	0.585154	0.370872	0.449891
	H356	H	0.597349	0.393592	0.464901
	O357	O	0.771939	0.923741	0.196410
	H358	H	0.760778	0.930860	0.213226
	H359	H	0.768048	0.928301	0.192103
	O360	O	0.859711	0.033587	1.006978
	H361	H	0.872962	0.033858	0.994769
	H362	H	0.838570	0.043993	1.007754
	O363	O	0.470497	0.438388	0.602329
	H364	H	0.468459	0.431592	0.595579
	H365	H	0.474363	0.427442	0.603306
	O366	O	0.822496	0.839469	0.044440
	H367	H	0.835027	0.834066	0.066238
	H368	H	0.804772	0.843445	0.053160
	O369	O	0.943040	-0.029328	0.023200
	H370	H	0.945578	-0.036545	0.023787
	H371	H	0.936537	-0.019954	0.028593
	O372	O	0.495612	0.559520	0.642936
	H373	H	0.483313	0.565349	0.639031
	H374	H	0.502823	0.554007	0.633838
	O375	O	0.857392	0.081645	0.939592
	H376	H	0.862477	0.072899	0.942209
	H377	H	0.870260	0.080292	0.938048
	O378	O	-0.027633	0.889757	-0.045910
	H379	H	-0.025052	0.898475	-0.036365
	H380	H	-0.025941	0.881686	-0.043496
	O381	O	0.582032	0.424447	0.423749
	H382	H	0.571847	0.425575	0.429292
	H383	H	0.602398	0.413222	0.421587
	O384	O	1.042790	0.990139	-0.106443
	H385	H	1.059856	0.988435	-0.106855
	H386	H	1.044470	0.977299	-0.092918
	O387	O	1.114773	-0.051284	0.948503
	H388	H	1.122431	-0.066997	0.954444
	H389	H	1.124778	-0.060277	0.938611
	O390	O	0.908745	1.030903	-0.054263
	H391	H	0.904127	1.022418	-0.053423
	H392	H	0.912686	1.040915	-0.066179
	O393	O	0.351717	0.496777	0.501567
	H394	H	0.354839	0.498326	0.504227
	H395	H	0.350724	0.505790	0.502345
