data_Molecule from HDF5

_cell_length_a		16.403728
_cell_length_b		16.240280
_cell_length_c		16.005420
_cell_angle_alpha	89.749868
_cell_angle_beta	89.992216
_cell_angle_gamma	89.696376
_symmetry_space_group_name_H-M	'P 1'
_symmetry_Int_Tables_number		1

loop_
	_symmetry_equiv_pos_as_xyz
	x,y,z

loop_
	_atom_site_label
	_atom_site_type_symbol
	_atom_site_fract_x
	_atom_site_fract_y
	_atom_site_fract_z
	H0	H	0.402922	0.834090	0.716461
	H1	H	0.593209	0.164579	0.713263
	H2	H	0.595144	0.834298	0.290935
	H3	H	0.401683	0.164539	0.291582
	H4	H	0.714936	0.397133	0.840356
	H5	H	0.710803	0.597401	0.170153
	H6	H	0.280840	0.601015	0.839327
	H7	H	0.285106	0.398879	0.169982
	H8	H	0.837611	0.717199	0.402288
	H9	H	0.161049	0.713096	0.605604
	H10	H	0.836681	0.280299	0.606174
	H11	H	0.160506	0.279822	0.403965
	H12	H	0.835367	0.399538	0.720269
	H13	H	0.162261	0.592575	0.717082
	H14	H	0.834335	0.595144	0.292924
	H15	H	0.162610	0.400965	0.291931
	H16	H	0.397214	0.713476	0.838401
	H17	H	0.594094	0.711438	0.170022
	H18	H	0.596568	0.287721	0.837982
	H19	H	0.399924	0.284638	0.169530
	H20	H	0.716612	0.835408	0.400225
	H21	H	0.717451	0.159731	0.607883
	H22	H	0.283112	0.835256	0.606293
	H23	H	0.278909	0.160411	0.399519
	H24	H	0.901205	0.333414	0.218711
	H25	H	0.092217	0.662862	0.216362
	H26	H	0.096859	0.333640	0.792523
	H27	H	0.900182	0.662972	0.789950
	H28	H	0.215556	0.895081	0.338103
	H29	H	0.212602	0.096454	0.668485
	H30	H	0.782597	0.098548	0.338628
	H31	H	0.782354	0.893709	0.668422
	H32	H	0.336291	0.218512	0.901026
	H33	H	0.659066	0.215180	0.104898
	H34	H	0.335163	0.784265	0.105215
	H35	H	0.658787	0.780067	0.900547
	H36	H	0.333911	0.902734	0.217619
	H37	H	0.660293	0.095905	0.217048
	H38	H	0.335304	0.099006	0.787650
	H39	H	0.661167	0.901830	0.789003
	H40	H	0.898942	0.211794	0.338214
	H41	H	0.095249	0.207660	0.669893
	H42	H	0.097322	0.784027	0.337517
	H43	H	0.902575	0.784469	0.670520
	H44	H	0.217976	0.336843	0.902245
	H45	H	0.214377	0.661179	0.108443
	H46	H	0.779400	0.336084	0.109933
	H47	H	0.778547	0.660643	0.899827
	H48	H	0.404887	0.113208	0.587426
	H49	H	0.590077	0.882117	0.594151
	H50	H	0.594064	0.116647	0.410623
	H51	H	0.400243	0.880609	0.416832
	H52	H	0.592937	0.412236	0.121928
	H53	H	0.596122	0.586873	0.885218
	H54	H	0.405788	0.602266	0.125828
	H55	H	0.409012	0.413672	0.886873
	H56	H	0.114699	0.593016	0.413031
	H57	H	0.880722	0.588507	0.606729
	H58	H	0.115229	0.398360	0.596756
	H59	H	0.883882	0.405065	0.415107
	H60	H	0.112654	0.403174	0.593888
	H61	H	0.881046	0.603019	0.593221
	H62	H	0.113547	0.588982	0.411292
	H63	H	0.882527	0.406034	0.410869
	H64	H	0.394293	0.587122	0.125617
	H65	H	0.584090	0.586021	0.888237
	H66	H	0.583381	0.407028	0.120835
	H67	H	0.406963	0.404698	0.884689
	H68	H	0.589786	0.114685	0.410072
	H69	H	0.593229	0.881777	0.593602
	H70	H	0.396808	0.118128	0.593178
	H71	H	0.404155	0.879020	0.404316
	H72	H	0.910061	0.613835	0.098626
	H73	H	0.090768	0.381712	0.097861
	H74	H	0.095474	0.615741	0.917986
	H75	H	0.918803	0.383821	0.909660
	H76	H	0.096026	0.906893	0.621829
	H77	H	0.086780	0.086006	0.386194
	H78	H	0.914470	0.081850	0.618200
	H79	H	0.896121	0.909930	0.383124
	H80	H	0.613540	0.096745	0.913343
	H81	H	0.380910	0.100425	0.092345
	H82	H	0.609645	0.909892	0.093314
	H83	H	0.385591	0.913368	0.914938
	H84	H	0.615809	0.903394	0.100710
	H85	H	0.384434	0.089624	0.091757
	H86	H	0.613193	0.090013	0.910657
	H87	H	0.379832	0.908004	0.902901
	H88	H	0.907293	0.098383	0.624939
	H89	H	0.088289	0.093147	0.384013
	H90	H	0.089862	0.906440	0.621392
	H91	H	0.913333	0.915699	0.390247
	H92	H	0.090395	0.617480	0.906235
	H93	H	0.094725	0.381819	0.093879
	H94	H	0.899700	0.613812	0.088649
	H95	H	0.900965	0.384815	0.930029
	H96	H	0.405300	0.116511	0.598180
	H97	H	0.592246	0.880710	0.596696
	H98	H	0.592613	0.115697	0.414659
	H99	H	0.411956	0.884432	0.413209
	H100	H	0.592311	0.400908	0.125672
	H101	H	0.588203	0.596552	0.883289
	H102	H	0.411300	0.585679	0.119558
	H103	H	0.399309	0.410982	0.884208
	H104	H	0.115817	0.592807	0.408112
	H105	H	0.887665	0.585013	0.588334
	H106	H	0.114565	0.403717	0.600653
	H107	H	0.882375	0.401909	0.412263
	H108	H	0.897123	0.617984	0.101825
	H109	H	0.095445	0.380114	0.097842
	H110	H	0.083262	0.612242	0.915416
	H111	H	0.894395	0.376088	0.905699
	H112	H	0.093121	0.901223	0.623847
	H113	H	0.093501	0.087280	0.383320
	H114	H	0.896965	0.082329	0.624277
	H115	H	0.910775	0.897746	0.383809
	H116	H	0.615448	0.095686	0.906385
	H117	H	0.380098	0.092523	0.102085
	H118	H	0.613170	0.900156	0.091180
	H119	H	0.380992	0.900593	0.914724
	C120	C	0.375618	0.007364	0.623832
	C121	C	0.619818	0.989898	0.624111
	C122	C	0.620542	0.007343	0.382019
	C123	C	0.376226	0.989752	0.381466
	C124	C	0.618941	0.378083	0.013451
	C125	C	0.617631	0.619056	0.995360
	C126	C	0.374916	0.621031	0.013776
	C127	C	0.377316	0.379164	0.994782
	C128	C	0.007046	0.620783	0.381795
	C129	C	0.990740	0.619935	0.625746
	C130	C	0.006812	0.373638	0.627462
	C131	C	0.990493	0.375535	0.383130
	C132	C	0.874789	0.507064	0.126701
	C133	C	0.120525	0.489252	0.126376
	C134	C	0.119674	0.507121	0.883988
	C135	C	0.875738	0.489649	0.883701
	C136	C	0.121233	0.875925	0.512657
	C137	C	0.118654	0.117256	0.494464
	C138	C	0.876914	0.118006	0.512871
	C139	C	0.877777	0.877096	0.495080
	C140	C	0.506577	0.123131	0.880258
	C141	C	0.488901	0.122115	0.125011
	C142	C	0.505641	0.876719	0.125208
	C143	C	0.489223	0.877336	0.880852
	C144	C	0.380818	0.883620	0.679508
	C145	C	0.615496	0.114412	0.677606
	C146	C	0.617015	0.883582	0.327275
	C147	C	0.379888	0.114408	0.327681
	C148	C	0.675451	0.378811	0.889083
	C149	C	0.672946	0.617638	0.120427
	C150	C	0.319060	0.620380	0.888839
	C151	C	0.322151	0.378930	0.120002
	C152	C	0.885405	0.677601	0.383014
	C153	C	0.112667	0.674676	0.624614
	C154	C	0.884934	0.318755	0.626124
	C155	C	0.112428	0.319309	0.384570
	C156	C	0.884405	0.377946	0.682873
	C157	C	0.113212	0.614908	0.680519
	C158	C	0.884042	0.617235	0.328175
	C159	C	0.113198	0.379112	0.328289
	C160	C	0.376839	0.676243	0.888316
	C161	C	0.614867	0.674300	0.120367
	C162	C	0.617194	0.323857	0.888126
	C163	C	0.379354	0.322213	0.119599
	C164	C	0.677172	0.884359	0.382036
	C165	C	0.676980	0.112057	0.624898
	C166	C	0.321246	0.884141	0.624599
	C167	C	0.318813	0.112486	0.381427
	C168	C	0.879182	0.383228	0.182261
	C169	C	0.115080	0.613342	0.180510
	C170	C	0.117942	0.383246	0.829191
	C171	C	0.878748	0.613372	0.827149
	C172	C	0.177096	0.876409	0.387539
	C173	C	0.174364	0.115602	0.619160
	C174	C	0.820921	0.117834	0.388257
	C175	C	0.821427	0.875707	0.619383
	C176	C	0.384723	0.179693	0.881450
	C177	C	0.610850	0.176994	0.124228
	C178	C	0.383632	0.822068	0.124500
	C179	C	0.610589	0.819420	0.881243
	C180	C	0.383129	0.881121	0.180631
	C181	C	0.611297	0.117997	0.180343
	C182	C	0.384150	0.119958	0.825331
	C183	C	0.612024	0.880089	0.825890
	C184	C	0.878688	0.174268	0.388001
	C185	C	0.116398	0.171449	0.619740
	C186	C	0.118168	0.821440	0.387063
	C187	C	0.881178	0.821322	0.620393
	C188	C	0.177938	0.384761	0.884095
	C189	C	0.175868	0.612484	0.126903
	C190	C	0.818561	0.384492	0.127998
	C191	C	0.818374	0.612328	0.882105
	C192	C	0.396232	0.093455	0.599945
	C193	C	0.598202	0.903786	0.601454
	C194	C	0.598466	0.093402	0.404975
	C195	C	0.398874	0.903732	0.404444
	C196	C	0.596302	0.400292	0.100280
	C197	C	0.595890	0.596567	0.908093
	C198	C	0.397166	0.598320	0.101127
	C199	C	0.398860	0.402797	0.907769
	C200	C	0.092575	0.598385	0.404191
	C201	C	0.905252	0.598596	0.602861
	C202	C	0.092208	0.395304	0.604118
	C203	C	0.905033	0.397733	0.405948
	C204	C	0.895966	0.592978	0.103173
	C205	C	0.099804	0.403494	0.103334
	C206	C	0.096614	0.592767	0.906473
	C207	C	0.898108	0.403866	0.907910
	C208	C	0.099372	0.898197	0.599530
	C209	C	0.096219	0.095257	0.407069
	C210	C	0.899558	0.094466	0.599955
	C211	C	0.900178	0.900887	0.408304
	C212	C	0.591979	0.100446	0.903286
	C213	C	0.403747	0.100495	0.102294
	C214	C	0.590781	0.898218	0.101883
	C215	C	0.404371	0.900542	0.904038
	Zn216	Zn	0.498306	0.000122	0.751519
	Zn217	Zn	0.497871	-0.000787	0.253722
	Zn218	Zn	0.746208	0.497915	0.005043
	Zn219	Zn	0.248616	0.499564	0.005090
	Zn220	Zn	-0.000820	0.749890	0.503566
	Zn221	Zn	-0.001914	0.244772	0.504236
	Zn222	Zn	-0.001957	0.497578	0.755524
	Zn223	Zn	-0.001677	0.498034	0.253664
	Zn224	Zn	0.496593	0.747253	0.003683
	Zn225	Zn	0.498256	0.251427	0.003200
	Zn226	Zn	0.749169	-0.002502	0.504152
	Zn227	Zn	0.247293	-0.002427	0.502607
	N228	N	0.413795	0.961405	0.679384
	N229	N	0.580631	0.037393	0.677252
	N230	N	0.582647	0.961129	0.326734
	N231	N	0.415101	0.037301	0.327920
	N232	N	0.676813	0.411553	0.968108
	N233	N	0.674903	0.584113	0.041677
	N234	N	0.317489	0.586670	0.967972
	N235	N	0.320658	0.413868	0.041579
	N236	N	0.962937	0.680005	0.415557
	N237	N	0.035368	0.677982	0.591341
	N238	N	0.962132	0.316084	0.592422
	N239	N	0.034845	0.316811	0.417763
	N240	N	0.961340	0.411449	0.683573
	N241	N	0.036276	0.581595	0.681363
	N242	N	0.960850	0.582607	0.327304
	N243	N	0.036357	0.413337	0.327578
	N244	N	0.410793	0.676625	0.966850
	N245	N	0.581555	0.675403	0.041453
	N246	N	0.582484	0.323446	0.966356
	N247	N	0.413124	0.322327	0.040844
	N248	N	0.679422	0.962361	0.415344
	N249	N	0.679860	0.033649	0.592666
	N250	N	0.318031	0.962064	0.590518
	N251	N	0.316314	0.033977	0.414083
	N252	N	0.913573	0.460367	0.181688
	N253	N	0.081291	0.535948	0.180229
	N254	N	0.082140	0.460073	0.829107
	N255	N	0.913693	0.536057	0.827973
	N256	N	0.179164	0.909374	0.466545
	N257	N	0.175981	0.082912	0.540047
	N258	N	0.819643	0.083795	0.467175
	N259	N	0.819340	0.909700	0.540470
	N260	N	0.462132	0.181703	0.914809
	N261	N	0.533862	0.179711	0.090625
	N262	N	0.460775	0.819333	0.090714
	N263	N	0.533314	0.817493	0.914665
	N264	N	0.460075	0.914484	0.181148
	N265	N	0.534521	0.084337	0.180825
	N266	N	0.460959	0.085484	0.824586
	N267	N	0.535663	0.915529	0.825481
	N268	N	0.912802	0.174564	0.466535
	N269	N	0.082259	0.172422	0.541140
	N270	N	0.084242	0.820606	0.465733
	N271	N	0.915639	0.822020	0.542005
	N272	N	0.179255	0.462873	0.917177
	N273	N	0.179436	0.534460	0.093880
	N274	N	0.815769	0.462435	0.094167
	N275	N	0.816359	0.534509	0.916582
	O276	O	0.892897	1.049348	-0.000138
	H277	H	0.886512	1.056670	-0.007226
	H278	H	0.904633	1.055747	0.002687
	O279	O	0.398261	0.492854	0.497507
	H280	H	0.389725	0.503213	0.495770
	H281	H	0.389440	0.507857	0.490055
	O282	O	1.009510	1.032953	0.071950
	H283	H	1.003577	1.037564	0.074865
	H284	H	1.018453	1.025431	0.077743
	O285	O	1.038964	0.144632	1.022505
	H286	H	1.038210	0.151643	1.021171
	H287	H	1.044821	0.145849	1.035491
	O288	O	0.419489	0.520553	0.440323
	H289	H	0.410715	0.518766	0.437440
	H290	H	0.421510	0.506193	0.446823
	O291	O	0.508241	0.478806	0.545665
	H292	H	0.503254	0.484173	0.547581
	H293	H	0.507203	0.479442	0.546628
	O294	O	0.523388	0.445578	0.515513
	H295	H	0.517219	0.447928	0.525091
	H296	H	0.532496	0.448780	0.517649
	O297	O	-0.011376	-0.071917	0.970962
	H298	H	-0.001818	-0.060449	0.973297
	H299	H	-0.009993	-0.064806	0.982329
	O300	O	0.439782	0.576620	0.448545
	H301	H	0.435072	0.565638	0.446419
	H302	H	0.454447	0.570658	0.455812
	O303	O	0.923354	0.899337	0.017370
	H304	H	0.917116	0.894223	0.031173
	H305	H	0.914352	0.892083	0.028231
	O306	O	-0.083960	1.013907	1.052904
	H307	H	-0.095164	1.019330	1.048328
	H308	H	-0.084610	1.010175	1.053152
	O309	O	0.528495	0.489840	0.519036
	H310	H	0.522620	0.491055	0.512465
	H311	H	0.526616	0.495940	0.531895
	O312	O	0.018545	-0.091140	-0.068845
	H313	H	0.020131	-0.096021	-0.072069
	H314	H	0.011065	-0.078322	-0.055884
	O315	O	0.925840	-0.021126	0.004709
	H316	H	0.927030	-0.019804	-0.000118
	H317	H	0.914967	-0.015890	0.008614
	O318	O	1.139542	0.951049	0.934357
	H319	H	1.153366	0.938661	0.923422
	H320	H	1.139061	0.950240	0.933744
	O321	O	-0.014560	-0.046403	0.876274
	H322	H	-0.010121	-0.047298	0.865670
	H323	H	-0.020026	-0.054319	0.869026
	O324	O	0.483020	0.545301	0.541104
	H325	H	0.491454	0.551748	0.546403
	H326	H	0.487813	0.548667	0.543688
	O327	O	0.116176	-0.079131	0.011229
	H328	H	0.114053	-0.078307	0.003815
	H329	H	0.112556	-0.081834	0.019689
	O330	O	0.585298	0.482912	0.423934
	H331	H	0.588703	0.484772	0.426165
	H332	H	0.583771	0.484289	0.421763
	O333	O	0.097133	1.015658	0.930853
	H334	H	0.095398	1.003975	0.927290
	H335	H	0.092715	1.012344	0.926446
	O336	O	-0.027126	0.124075	-0.038806
	H337	H	-0.031119	0.124208	-0.025494
	H338	H	-0.029191	0.127983	-0.040139
	O339	O	0.418596	0.464004	0.514417
	H340	H	0.423044	0.460783	0.504884
	H341	H	0.413253	0.456969	0.512671
	O342	O	0.962320	0.979494	1.097633
	H343	H	0.962782	0.993400	1.102396
	H344	H	0.976690	0.983572	1.090699
	O345	O	0.932795	0.944996	0.086757
	H346	H	0.938181	0.947288	0.096861
	H347	H	0.928089	0.928515	0.090283
	O348	O	0.523959	0.493596	0.514261
	H349	H	0.524669	0.495649	0.527882
	H350	H	0.527520	0.502537	0.519484
	O351	O	0.631088	0.484353	0.458446
	H352	H	0.622273	0.481497	0.452667
	H353	H	0.636609	0.484449	0.472437
	O354	O	0.443088	0.473388	0.467417
	H355	H	0.444609	0.473492	0.460214
	H356	H	0.441210	0.470355	0.461757
	O357	O	1.052242	-0.065548	0.962615
	H358	H	1.049435	-0.074402	0.971101
	H359	H	1.046134	-0.066603	0.954026
	O360	O	0.523743	0.393435	0.446553
	H361	H	0.529965	0.373636	0.440662
	H362	H	0.518527	0.400714	0.447855
	O363	O	0.580550	0.522601	0.421127
	H364	H	0.582934	0.529132	0.412217
	H365	H	0.583384	0.509933	0.416699
	O366	O	1.065089	0.982099	1.012658
	H367	H	1.056394	0.979968	0.999263
	H368	H	1.064201	0.978992	1.017278
	O369	O	0.985473	-0.048674	1.010918
	H370	H	0.982386	-0.051064	1.008745
	H371	H	0.988295	-0.057046	0.988581
	O372	O	-0.010281	0.109770	0.082052
	H373	H	-0.014100	0.101429	0.075464
	H374	H	-0.007715	0.127792	0.085315
	O375	O	0.904024	0.113184	-0.053530
	H376	H	0.907612	0.115159	-0.052050
	H377	H	0.919957	0.108649	-0.049905
	O378	O	0.517316	0.539860	0.538330
	H379	H	0.513028	0.538299	0.538728
	H380	H	0.521501	0.537697	0.528451
	O381	O	0.464271	0.526714	0.546813
	H382	H	0.466895	0.521320	0.551095
	H383	H	0.459199	0.533199	0.540851
