data_Molecule from HDF5

_cell_length_a		16.274200
_cell_length_b		16.224992
_cell_length_c		16.279431
_cell_angle_alpha	89.916533
_cell_angle_beta	90.026701
_cell_angle_gamma	90.058297
_symmetry_space_group_name_H-M	'P 1'
_symmetry_Int_Tables_number		1

loop_
	_symmetry_equiv_pos_as_xyz
	x,y,z

loop_
	_atom_site_label
	_atom_site_type_symbol
	_atom_site_fract_x
	_atom_site_fract_y
	_atom_site_fract_z
	H0	H	0.402000	0.835438	0.713862
	H1	H	0.597295	0.164419	0.712749
	H2	H	0.597643	0.835356	0.285846
	H3	H	0.401370	0.164453	0.285207
	H4	H	0.714053	0.402088	0.835644
	H5	H	0.714294	0.597375	0.163699
	H6	H	0.286384	0.598385	0.836562
	H7	H	0.286628	0.402224	0.164300
	H8	H	0.835369	0.712146	0.403618
	H9	H	0.164045	0.714374	0.598001
	H10	H	0.835844	0.285350	0.597770
	H11	H	0.164376	0.285802	0.402361
	H12	H	0.835496	0.402047	0.713343
	H13	H	0.163922	0.597465	0.713690
	H14	H	0.837257	0.598383	0.284613
	H15	H	0.164587	0.401945	0.286223
	H16	H	0.403254	0.713343	0.836086
	H17	H	0.597300	0.713145	0.164293
	H18	H	0.596776	0.287106	0.835517
	H19	H	0.404326	0.287805	0.164749
	H20	H	0.712785	0.836060	0.401748
	H21	H	0.712345	0.164023	0.596885
	H22	H	0.286480	0.835670	0.598335
	H23	H	0.286255	0.164744	0.401867
	H24	H	0.903174	0.335290	0.214475
	H25	H	0.097758	0.664659	0.213702
	H26	H	0.097410	0.335525	0.787070
	H27	H	0.902231	0.664162	0.786094
	H28	H	0.215541	0.900605	0.337018
	H29	H	0.214283	0.098060	0.663326
	H30	H	0.784385	0.098591	0.336540
	H31	H	0.785263	0.901981	0.664058
	H32	H	0.335203	0.212934	0.902235
	H33	H	0.664255	0.213608	0.097600
	H34	H	0.336126	0.785301	0.097950
	H35	H	0.664872	0.788095	0.903773
	H36	H	0.336005	0.901777	0.213834
	H37	H	0.664315	0.097347	0.213444
	H38	H	0.336000	0.098348	0.785056
	H39	H	0.664439	0.902568	0.786530
	H40	H	0.901957	0.213582	0.335650
	H41	H	0.097154	0.212575	0.663952
	H42	H	0.097019	0.786905	0.335810
	H43	H	0.902889	0.787311	0.664349
	H44	H	0.212991	0.335385	0.903554
	H45	H	0.213512	0.664892	0.098341
	H46	H	0.786445	0.335160	0.098650
	H47	H	0.786952	0.664048	0.901620
	H48	H	0.408603	0.118585	0.600396
	H49	H	0.594455	0.881952	0.592564
	H50	H	0.601813	0.117407	0.415155
	H51	H	0.408444	0.886582	0.415135
	H52	H	0.600363	0.406454	0.117792
	H53	H	0.603082	0.607747	0.876659
	H54	H	0.410320	0.583302	0.113173
	H55	H	0.398098	0.408532	0.881307
	H56	H	0.115702	0.592042	0.410154
	H57	H	0.881243	0.605037	0.588233
	H58	H	0.117941	0.398500	0.591080
	H59	H	0.880373	0.400905	0.400508
	H60	H	0.112820	0.412217	0.587630
	H61	H	0.887501	0.584006	0.587298
	H62	H	0.118251	0.592173	0.402308
	H63	H	0.885306	0.404545	0.415251
	H64	H	0.412828	0.601350	0.118091
	H65	H	0.602495	0.578704	0.884814
	H66	H	0.591459	0.412669	0.114077
	H67	H	0.410787	0.412781	0.885734
	H68	H	0.594227	0.121659	0.394161
	H69	H	0.592512	0.881446	0.596238
	H70	H	0.412157	0.114588	0.588389
	H71	H	0.398660	0.879681	0.404550
	H72	H	0.911823	0.614249	0.088582
	H73	H	0.090275	0.383069	0.099682
	H74	H	0.096832	0.616831	0.912644
	H75	H	0.912792	0.384544	0.908437
	H76	H	0.091068	0.900688	0.618462
	H77	H	0.089629	0.082883	0.387657
	H78	H	0.898006	0.087488	0.617387
	H79	H	0.916295	0.900342	0.384379
	H80	H	0.616436	0.095185	0.907026
	H81	H	0.382156	0.097786	0.093860
	H82	H	0.617327	0.908978	0.096565
	H83	H	0.382916	0.903059	0.908288
	H84	H	0.618336	0.903215	0.094207
	H85	H	0.383771	0.092257	0.089212
	H86	H	0.615460	0.091754	0.906341
	H87	H	0.384540	0.910009	0.907573
	H88	H	0.914517	0.088580	0.612649
	H89	H	0.086848	0.102242	0.382049
	H90	H	0.099707	0.908165	0.618298
	H91	H	0.894870	0.901104	0.378887
	H92	H	0.096924	0.619529	0.901733
	H93	H	0.090446	0.385292	0.088074
	H94	H	0.901539	0.617333	0.090559
	H95	H	0.901740	0.382243	0.911501
	H96	H	0.399311	0.118016	0.589848
	H97	H	0.590619	0.882774	0.592760
	H98	H	0.580412	0.112407	0.409726
	H99	H	0.413315	0.882748	0.400661
	H100	H	0.589663	0.401054	0.116921
	H101	H	0.577750	0.594990	0.887357
	H102	H	0.396035	0.593477	0.120622
	H103	H	0.408167	0.399397	0.882136
	H104	H	0.118652	0.598981	0.407194
	H105	H	0.879630	0.592887	0.606305
	H106	H	0.118069	0.409598	0.601532
	H107	H	0.885521	0.415555	0.403206
	H108	H	0.908584	0.618695	0.098678
	H109	H	0.100666	0.380788	0.093436
	H110	H	0.087908	0.615818	0.906146
	H111	H	0.905534	0.379687	0.900132
	H112	H	0.089978	0.911180	0.613823
	H113	H	0.103821	0.093946	0.379714
	H114	H	0.906178	0.102206	0.619160
	H115	H	0.905513	0.918984	0.386469
	H116	H	0.618007	0.093709	0.904056
	H117	H	0.382931	0.090844	0.096748
	H118	H	0.615725	0.908118	0.090004
	H119	H	0.381937	0.906193	0.902540
	C120	C	0.378624	0.008517	0.621287
	C121	C	0.620863	0.990940	0.621684
	C122	C	0.620490	0.008386	0.378350
	C123	C	0.378309	0.991650	0.378311
	C124	C	0.621887	0.378532	0.007991
	C125	C	0.622295	0.621663	0.991353
	C126	C	0.378877	0.620996	0.008779
	C127	C	0.378059	0.378294	0.991635
	C128	C	0.009038	0.622266	0.378345
	C129	C	0.991350	0.621930	0.622102
	C130	C	0.007900	0.378140	0.621568
	C131	C	0.992158	0.378520	0.378368
	C132	C	0.879154	0.508130	0.121211
	C133	C	0.121983	0.491772	0.121986
	C134	C	0.121950	0.508539	0.878716
	C135	C	0.878772	0.491263	0.878641
	C136	C	0.121733	0.878378	0.508353
	C137	C	0.121828	0.121595	0.491230
	C138	C	0.877845	0.121475	0.508124
	C139	C	0.877741	0.878554	0.491684
	C140	C	0.508072	0.121890	0.877897
	C141	C	0.491617	0.121662	0.121541
	C142	C	0.508402	0.878458	0.121604
	C143	C	0.491830	0.878561	0.878170
	C144	C	0.381251	0.884476	0.676227
	C145	C	0.617971	0.114997	0.675440
	C146	C	0.617390	0.884460	0.323881
	C147	C	0.380851	0.115443	0.323118
	C148	C	0.676522	0.381258	0.884679
	C149	C	0.676697	0.618274	0.115015
	C150	C	0.324517	0.618394	0.885090
	C151	C	0.324131	0.380989	0.115395
	C152	C	0.884761	0.675396	0.382191
	C153	C	0.115057	0.676371	0.618748
	C154	C	0.884681	0.323178	0.618692
	C155	C	0.115505	0.323615	0.381560
	C156	C	0.884525	0.381153	0.675960
	C157	C	0.115034	0.618555	0.676347
	C158	C	0.885425	0.618842	0.323255
	C159	C	0.115554	0.380960	0.323598
	C160	C	0.382548	0.675449	0.884936
	C161	C	0.618578	0.675569	0.115233
	C162	C	0.618508	0.324077	0.884543
	C163	C	0.382676	0.324351	0.115582
	C164	C	0.675207	0.884816	0.381030
	C165	C	0.675219	0.115071	0.618014
	C166	C	0.323880	0.884597	0.618794
	C167	C	0.323657	0.115555	0.380928
	C168	C	0.882046	0.384305	0.176467
	C169	C	0.118231	0.615854	0.175827
	C170	C	0.118718	0.384775	0.824287
	C171	C	0.881697	0.615208	0.824059
	C172	C	0.176829	0.880896	0.385275
	C173	C	0.176220	0.118402	0.614771
	C174	C	0.822771	0.118942	0.385051
	C175	C	0.822906	0.881289	0.615072
	C176	C	0.384355	0.175733	0.881409
	C177	C	0.615310	0.175877	0.118349
	C178	C	0.384894	0.823610	0.118664
	C179	C	0.615652	0.824853	0.882192
	C180	C	0.384810	0.881178	0.176293
	C181	C	0.615170	0.118409	0.176200
	C182	C	0.384648	0.119041	0.822972
	C183	C	0.615429	0.881818	0.823882
	C184	C	0.880791	0.176362	0.384834
	C185	C	0.118331	0.175496	0.614791
	C186	C	0.118023	0.824453	0.384778
	C187	C	0.881526	0.824566	0.615315
	C188	C	0.176092	0.384692	0.882049
	C189	C	0.176232	0.615708	0.118927
	C190	C	0.824286	0.384177	0.118909
	C191	C	0.824567	0.615204	0.881557
	C192	C	0.400385	0.094807	0.599341
	C193	C	0.599024	0.904372	0.600108
	C194	C	0.598815	0.094930	0.400048
	C195	C	0.400152	0.905421	0.400275
	C196	C	0.600163	0.400314	0.093962
	C197	C	0.600733	0.600130	0.905232
	C198	C	0.400073	0.599205	0.094889
	C199	C	0.399283	0.400333	0.905467
	C200	C	0.095242	0.600740	0.399944
	C201	C	0.905089	0.600376	0.600442
	C202	C	0.094026	0.400496	0.599804
	C203	C	0.905970	0.400685	0.399984
	C204	C	0.900971	0.594461	0.099282
	C205	C	0.100209	0.405172	0.100271
	C206	C	0.100300	0.595191	0.900339
	C207	C	0.900359	0.404560	0.900197
	C208	C	0.099993	0.900296	0.594650
	C209	C	0.100181	0.099576	0.405223
	C210	C	0.899791	0.099234	0.594111
	C211	C	0.899215	0.900438	0.405322
	C212	C	0.594302	0.100095	0.899397
	C213	C	0.405276	0.100069	0.099706
	C214	C	0.594965	0.900319	0.099942
	C215	C	0.405455	0.900107	0.899715
	Zn216	Zn	0.499866	-0.000124	0.749824
	Zn217	Zn	0.499776	0.000115	0.250057
	Zn218	Zn	0.750525	0.499712	-0.000108
	Zn219	Zn	0.250076	0.500300	0.000573
	Zn220	Zn	-0.000111	0.750350	0.500180
	Zn221	Zn	0.000032	0.249985	0.499736
	Zn222	Zn	0.000031	0.499961	0.750393
	Zn223	Zn	0.000601	0.500060	0.250109
	Zn224	Zn	0.500231	0.749829	0.000111
	Zn225	Zn	0.499942	0.250204	-0.000152
	Zn226	Zn	0.748746	-0.000122	0.500079
	Zn227	Zn	0.250233	0.000131	0.499890
	N228	N	0.414620	0.962429	0.677770
	N229	N	0.584835	0.036965	0.677688
	N230	N	0.584341	0.962543	0.322124
	N231	N	0.414048	0.037512	0.321434
	N232	N	0.678707	0.414340	0.962396
	N233	N	0.679031	0.585377	0.037070
	N234	N	0.322036	0.585327	0.962929
	N235	N	0.321300	0.414009	0.037538
	N236	N	0.962489	0.677695	0.415542
	N237	N	0.037167	0.678540	0.585741
	N238	N	0.962499	0.321298	0.585552
	N239	N	0.037748	0.321922	0.414779
	N240	N	0.962309	0.414641	0.678012
	N241	N	0.037226	0.585508	0.678542
	N242	N	0.963570	0.586402	0.320935
	N243	N	0.037914	0.414455	0.321695
	N244	N	0.415593	0.677221	0.962793
	N245	N	0.585464	0.677748	0.037457
	N246	N	0.585077	0.322368	0.962249
	N247	N	0.415490	0.322711	0.037594
	N248	N	0.677105	0.962843	0.414284
	N249	N	0.677178	0.036849	0.585258
	N250	N	0.322045	0.962638	0.585288
	N251	N	0.321890	0.037568	0.414598
	N252	N	0.915523	0.462294	0.177931
	N253	N	0.085314	0.537661	0.177807
	N254	N	0.085577	0.462783	0.822309
	N255	N	0.914760	0.537101	0.822113
	N256	N	0.179306	0.913752	0.463244
	N257	N	0.178452	0.085429	0.536971
	N258	N	0.820558	0.085801	0.462869
	N259	N	0.820568	0.914433	0.537079
	N260	N	0.462046	0.177726	0.914857
	N261	N	0.537434	0.178088	0.085272
	N262	N	0.462702	0.821888	0.085462
	N263	N	0.537830	0.822875	0.915295
	N264	N	0.462740	0.914481	0.178201
	N265	N	0.537292	0.085447	0.178165
	N266	N	0.462572	0.086106	0.820818
	N267	N	0.537332	0.914493	0.821351
	N268	N	0.914538	0.177828	0.462275
	N269	N	0.085077	0.177455	0.537138
	N270	N	0.084492	0.823072	0.462339
	N271	N	0.914639	0.822714	0.537625
	N272	N	0.178030	0.462591	0.915295
	N273	N	0.178436	0.537563	0.085997
	N274	N	0.822298	0.462083	0.085312
	N275	N	0.822812	0.537157	0.914857
