data_Molecule from HDF5

_cell_length_a		16.346443
_cell_length_b		16.237012
_cell_length_c		16.127082
_cell_angle_alpha	89.944591
_cell_angle_beta	89.933488
_cell_angle_gamma	90.070942
_symmetry_space_group_name_H-M	'P 1'
_symmetry_Int_Tables_number		1

loop_
	_symmetry_equiv_pos_as_xyz
	x,y,z

loop_
	_atom_site_label
	_atom_site_type_symbol
	_atom_site_fract_x
	_atom_site_fract_y
	_atom_site_fract_z
	H0	H	0.389193	0.832816	0.713331
	H1	H	0.585496	0.161446	0.710014
	H2	H	0.584083	0.830818	0.285343
	H3	H	0.391427	0.160172	0.284318
	H4	H	0.704471	0.397076	0.831833
	H5	H	0.707745	0.598893	0.158629
	H6	H	0.275370	0.598359	0.830758
	H7	H	0.271913	0.395370	0.158727
	H8	H	0.825845	0.713068	0.395309
	H9	H	0.151675	0.713050	0.594024
	H10	H	0.826149	0.281372	0.596359
	H11	H	0.149870	0.279072	0.391542
	H12	H	0.825185	0.400986	0.709416
	H13	H	0.151863	0.596839	0.708314
	H14	H	0.826485	0.596701	0.277792
	H15	H	0.151807	0.397221	0.278997
	H16	H	0.390699	0.713971	0.832387
	H17	H	0.588889	0.709587	0.162107
	H18	H	0.589202	0.281110	0.832769
	H19	H	0.390604	0.284860	0.161897
	H20	H	0.705291	0.833259	0.394921
	H21	H	0.706541	0.158812	0.599921
	H22	H	0.270139	0.833905	0.599431
	H23	H	0.273761	0.159653	0.395989
	H24	H	0.890694	0.333361	0.209012
	H25	H	0.089066	0.661585	0.208358
	H26	H	0.086036	0.332970	0.780742
	H27	H	0.891985	0.662311	0.780662
	H28	H	0.205009	0.896324	0.332377
	H29	H	0.204763	0.100112	0.659477
	H30	H	0.771918	0.096935	0.331914
	H31	H	0.772292	0.893964	0.659307
	H32	H	0.326021	0.212760	0.897516
	H33	H	0.650417	0.214011	0.099415
	H34	H	0.327590	0.777664	0.101128
	H35	H	0.652391	0.780753	0.897559
	H36	H	0.324612	0.897489	0.212305
	H37	H	0.651842	0.093788	0.212344
	H38	H	0.326361	0.097480	0.780760
	H39	H	0.651849	0.897418	0.781302
	H40	H	0.887595	0.212586	0.330908
	H41	H	0.086895	0.213332	0.659477
	H42	H	0.087619	0.784202	0.330701
	H43	H	0.888382	0.782135	0.660229
	H44	H	0.206730	0.334698	0.890796
	H45	H	0.206864	0.659759	0.095017
	H46	H	0.771428	0.334935	0.097573
	H47	H	0.772752	0.660963	0.891891
	H48	H	0.396185	0.112656	0.587570
	H49	H	0.585817	0.874998	0.598905
	H50	H	0.579744	0.113147	0.399651
	H51	H	0.387339	0.880292	0.414374
	H52	H	0.571908	0.410735	0.109734
	H53	H	0.580881	0.593350	0.877901
	H54	H	0.394704	0.584203	0.112927
	H55	H	0.397936	0.409011	0.879581
	H56	H	0.105760	0.600352	0.407041
	H57	H	0.872574	0.593474	0.582828
	H58	H	0.100231	0.407196	0.576302
	H59	H	0.877731	0.410429	0.413581
	H60	H	0.105025	0.412807	0.593950
	H61	H	0.873505	0.586638	0.588283
	H62	H	0.101642	0.584051	0.407047
	H63	H	0.873172	0.412756	0.392857
	H64	H	0.400644	0.588207	0.112646
	H65	H	0.584111	0.587429	0.878406
	H66	H	0.582033	0.394799	0.117420
	H67	H	0.401152	0.402170	0.878912
	H68	H	0.578012	0.110671	0.409832
	H69	H	0.569139	0.883800	0.588380
	H70	H	0.395551	0.113203	0.586983
	H71	H	0.391361	0.874576	0.395706
	H72	H	0.886533	0.614321	0.076469
	H73	H	0.076489	0.380963	0.091105
	H74	H	0.089929	0.615358	0.904934
	H75	H	0.892138	0.381313	0.907900
	H76	H	0.075208	0.909406	0.610245
	H77	H	0.075341	0.087233	0.380526
	H78	H	0.899756	0.091028	0.612349
	H79	H	0.892285	0.903864	0.376744
	H80	H	0.605521	0.096401	0.906892
	H81	H	0.372665	0.093031	0.089672
	H82	H	0.604510	0.901274	0.089115
	H83	H	0.372554	0.904169	0.902867
	H84	H	0.603654	0.906822	0.091438
	H85	H	0.373287	0.089749	0.090202
	H86	H	0.601610	0.085969	0.911684
	H87	H	0.374859	0.902063	0.911694
	H88	H	0.893852	0.090193	0.613637
	H89	H	0.083718	0.094165	0.376241
	H90	H	0.079011	0.901247	0.614493
	H91	H	0.894919	0.909964	0.378756
	H92	H	0.083261	0.616183	0.896158
	H93	H	0.079734	0.384344	0.078215
	H94	H	0.896584	0.618000	0.098538
	H95	H	0.893094	0.378927	0.896485
	H96	H	0.395905	0.112726	0.588372
	H97	H	0.587457	0.880995	0.578231
	H98	H	0.586896	0.113661	0.407616
	H99	H	0.404550	0.882478	0.407121
	H100	H	0.591438	0.412553	0.113922
	H101	H	0.577454	0.587842	0.880354
	H102	H	0.394410	0.591088	0.114230
	H103	H	0.394220	0.402936	0.876222
	H104	H	0.107434	0.591184	0.392858
	H105	H	0.870309	0.594429	0.591820
	H106	H	0.107940	0.394890	0.588684
	H107	H	0.869883	0.393151	0.402546
	H108	H	0.910752	0.608518	0.080441
	H109	H	0.089252	0.377667	0.086486
	H110	H	0.079364	0.612082	0.905784
	H111	H	0.901863	0.383163	0.903415
	H112	H	0.084706	0.909104	0.614602
	H113	H	0.085852	0.083302	0.378647
	H114	H	0.897035	0.085431	0.611004
	H115	H	0.899556	0.904378	0.378638
	H116	H	0.604473	0.086576	0.899323
	H117	H	0.370994	0.090712	0.092597
	H118	H	0.606277	0.902123	0.094104
	H119	H	0.375540	0.910191	0.907825
	C120	C	0.366283	0.005239	0.618731
	C121	C	0.610380	0.987936	0.618680
	C122	C	0.609750	0.004179	0.376175
	C123	C	0.366339	0.987186	0.375941
	C124	C	0.610780	0.376100	0.005248
	C125	C	0.610625	0.618332	0.987536
	C126	C	0.367895	0.618252	0.004708
	C127	C	0.367907	0.375626	0.986813
	C128	C	-0.002607	0.620215	0.372692
	C129	C	0.979908	0.620699	0.616784
	C130	C	-0.002988	0.375837	0.616539
	C131	C	0.980563	0.375990	0.373030
	C132	C	0.868244	0.505805	0.115498
	C133	C	0.111367	0.488603	0.115318
	C134	C	0.112041	0.506078	0.872527
	C135	C	0.867228	0.489569	0.873198
	C136	C	0.109580	0.876834	0.504393
	C137	C	0.110359	0.118961	0.486699
	C138	C	0.867007	0.118459	0.503982
	C139	C	0.866558	0.875837	0.486772
	C140	C	0.496853	0.119141	0.875729
	C141	C	0.479836	0.119722	0.120291
	C142	C	0.497161	0.874322	0.120012
	C143	C	0.481465	0.875826	0.877121
	C144	C	0.368783	0.881776	0.675031
	C145	C	0.607461	0.111695	0.673924
	C146	C	0.605972	0.880552	0.321699
	C147	C	0.369671	0.110922	0.320755
	C148	C	0.666640	0.376979	0.881125
	C149	C	0.668469	0.617720	0.110439
	C150	C	0.313382	0.617650	0.880390
	C151	C	0.310884	0.376557	0.110170
	C152	C	0.874871	0.675665	0.374112
	C153	C	0.102729	0.675502	0.614042
	C154	C	0.874662	0.320090	0.615450
	C155	C	0.101858	0.318478	0.372857
	C156	C	0.874238	0.379148	0.672065
	C157	C	0.103145	0.617492	0.670919
	C158	C	0.875128	0.617455	0.316199
	C159	C	0.102947	0.377307	0.316766
	C160	C	0.370377	0.675456	0.881377
	C161	C	0.609419	0.672667	0.112199
	C162	C	0.609223	0.319352	0.881654
	C163	C	0.369838	0.321481	0.111747
	C164	C	0.665842	0.881502	0.376740
	C165	C	0.667322	0.110414	0.618669
	C166	C	0.309239	0.882575	0.618842
	C167	C	0.311344	0.110639	0.376468
	C168	C	0.870003	0.382669	0.171743
	C169	C	0.109589	0.611864	0.171158
	C170	C	0.108127	0.382577	0.817210
	C171	C	0.870834	0.613080	0.818094
	C172	C	0.166363	0.877386	0.381233
	C173	C	0.166123	0.118837	0.610400
	C174	C	0.810411	0.117243	0.380775
	C175	C	0.810412	0.875339	0.610359
	C176	C	0.374834	0.175021	0.877097
	C177	C	0.602106	0.175344	0.119056
	C178	C	0.375640	0.816684	0.119825
	C179	C	0.603638	0.819307	0.877667
	C180	C	0.373866	0.876810	0.174789
	C181	C	0.602685	0.115760	0.175380
	C182	C	0.374863	0.117273	0.819416
	C183	C	0.603445	0.877472	0.819934
	C184	C	0.868194	0.174513	0.380243
	C185	C	0.107685	0.175171	0.610349
	C186	C	0.107926	0.821378	0.380370
	C187	C	0.868554	0.820055	0.610744
	C188	C	0.168136	0.383298	0.872215
	C189	C	0.168001	0.611390	0.114424
	C190	C	0.810869	0.383467	0.115898
	C191	C	0.811346	0.612344	0.873396
	C192	C	0.389245	0.090608	0.594832
	C193	C	0.587549	0.902185	0.595502
	C194	C	0.588003	0.090333	0.399045
	C195	C	0.387942	0.901272	0.399023
	C196	C	0.588366	0.399296	0.091361
	C197	C	0.587472	0.596091	0.901220
	C198	C	0.389912	0.594544	0.090996
	C199	C	0.390993	0.398136	0.900775
	C200	C	0.082721	0.598346	0.395551
	C201	C	0.894343	0.598137	0.594335
	C202	C	0.082062	0.398498	0.593261
	C203	C	0.895574	0.398707	0.396171
	C204	C	0.891175	0.591551	0.091894
	C205	C	0.088609	0.403228	0.092020
	C206	C	0.090646	0.591999	0.895239
	C207	C	0.889131	0.403384	0.895919
	C208	C	0.086330	0.899848	0.590873
	C209	C	0.088075	0.095197	0.400710
	C210	C	0.890054	0.095659	0.589957
	C211	C	0.889039	0.899139	0.400358
	C212	C	0.581912	0.096377	0.899045
	C213	C	0.394409	0.097577	0.097527
	C214	C	0.582578	0.896806	0.097916
	C215	C	0.396550	0.898823	0.900444
	Zn216	Zn	0.488721	-0.002801	0.746767
	Zn217	Zn	0.487869	-0.004113	0.248291
	Zn218	Zn	0.738744	0.498137	-0.005073
	Zn219	Zn	0.240357	0.496370	-0.005854
	Zn220	Zn	-0.011678	0.749326	0.495627
	Zn221	Zn	-0.011208	0.246486	0.494590
	Zn222	Zn	-0.010635	0.498747	0.744951
	Zn223	Zn	-0.010530	0.497575	0.244084
	Zn224	Zn	0.489991	0.745936	-0.001660
	Zn225	Zn	0.489121	0.248381	-0.002573
	Zn226	Zn	0.739058	-0.003765	0.496953
	Zn227	Zn	0.238379	-0.002780	0.496381
	N228	N	0.403273	0.959092	0.675295
	N229	N	0.572708	0.034576	0.673942
	N230	N	0.571715	0.957779	0.321239
	N231	N	0.403082	0.033288	0.320122
	N232	N	0.667874	0.411430	0.958910
	N233	N	0.669105	0.584451	0.032037
	N234	N	0.311504	0.583015	0.958282
	N235	N	0.309565	0.409465	0.031610
	N236	N	0.951801	0.677640	0.408567
	N237	N	0.025082	0.677641	0.581382
	N238	N	0.952026	0.317790	0.581832
	N239	N	0.024895	0.317355	0.407167
	N240	N	0.951360	0.413165	0.672782
	N241	N	0.025734	0.584178	0.672942
	N242	N	0.952250	0.583826	0.315281
	N243	N	0.026463	0.412454	0.316737
	N244	N	0.403303	0.676099	0.959685
	N245	N	0.574187	0.673292	0.034735
	N246	N	0.575499	0.318566	0.959762
	N247	N	0.404727	0.320809	0.034209
	N248	N	0.668354	0.959708	0.409914
	N249	N	0.669221	0.032518	0.585112
	N250	N	0.307403	0.960298	0.584808
	N251	N	0.309040	0.032680	0.409862
	N252	N	0.905249	0.459638	0.171284
	N253	N	0.075084	0.534747	0.171631
	N254	N	0.073939	0.459904	0.817276
	N255	N	0.904960	0.535714	0.817795
	N256	N	0.167305	0.911236	0.459442
	N257	N	0.167749	0.084377	0.532603
	N258	N	0.809421	0.082973	0.458788
	N259	N	0.809251	0.909711	0.532328
	N260	N	0.451792	0.176306	0.911484
	N261	N	0.524664	0.178186	0.085812
	N262	N	0.453124	0.815160	0.086388
	N263	N	0.526824	0.818160	0.912500
	N264	N	0.450518	0.911741	0.175306
	N265	N	0.525637	0.082025	0.176368
	N266	N	0.451879	0.083247	0.818453
	N267	N	0.526466	0.911818	0.819308
	N268	N	0.902461	0.175388	0.457940
	N269	N	0.073820	0.175216	0.532499
	N270	N	0.073239	0.821150	0.458041
	N271	N	0.902751	0.820257	0.532842
	N272	N	0.170688	0.460951	0.906053
	N273	N	0.169510	0.533707	0.080368
	N274	N	0.809686	0.461188	0.081599
	N275	N	0.809044	0.534373	0.906852
	O276	O	0.975111	-0.090230	1.048113
	H277	H	0.977027	-0.102138	1.054111
	H278	H	0.968047	-0.082363	1.054576
	O279	O	0.486634	0.442779	0.633638
	H280	H	0.481077	0.444418	0.631821
	H281	H	0.488276	0.451982	0.633981
	O282	O	0.566750	0.417825	0.519698
	H283	H	0.554238	0.425871	0.527734
	H284	H	0.570341	0.418818	0.526188
	O285	O	0.408140	0.546955	0.497971
	H286	H	0.414548	0.551029	0.498498
	H287	H	0.416141	0.547562	0.497616
	O288	O	0.440161	0.441495	0.439562
	H289	H	0.459908	0.434925	0.430878
	H290	H	0.440503	0.448657	0.442223
	O291	O	0.065249	-0.136557	0.902458
	H292	H	0.053938	-0.126807	0.903066
	H293	H	0.051905	-0.139817	0.901251
	O294	O	0.542802	1.503404	0.469617
	H295	H	0.539853	1.510713	0.460536
	H296	H	0.550089	1.501220	0.480771
	O297	O	0.886555	0.932300	-0.050912
	H298	H	0.890348	0.941668	-0.049272
	H299	H	0.878690	0.922274	-0.043996
	O300	O	0.423666	0.501826	0.440409
	H301	H	0.418141	0.489953	0.455273
	H302	H	0.421473	0.504466	0.431471
	O303	O	0.405717	0.505741	0.384146
	H304	H	0.409026	0.499355	0.395367
	H305	H	0.397100	0.516110	0.383469
	O306	O	0.946149	0.993737	0.958694
	H307	H	0.956843	0.986520	0.955542
	H308	H	0.940729	0.993746	0.960734
	O309	O	0.447444	0.476588	0.432516
	H310	H	0.440906	0.465240	0.423400
	H311	H	0.440377	0.480320	0.429004
	O312	O	0.885876	1.019698	0.981019
	H313	H	0.883262	1.034012	0.973019
	H314	H	0.884793	1.030480	0.987149
	O315	O	1.155489	0.934761	-0.130598
	H316	H	1.173292	0.936776	-0.137148
	H317	H	1.143923	0.933916	-0.117909
	O318	O	0.528802	0.439770	0.358995
	H319	H	0.531953	0.431845	0.360994
	H320	H	0.536597	0.427684	0.349299
	O321	O	0.625888	0.373822	0.425508
	H322	H	0.616712	0.371829	0.432121
	H323	H	0.631952	0.372193	0.421656
	O324	O	-0.023646	1.070508	0.971429
	H325	H	-0.030343	1.069896	0.967942
	H326	H	-0.006935	1.077151	0.961084
	O327	O	-0.015404	1.033160	1.051153
	H328	H	-0.001365	1.027123	1.035287
	H329	H	-0.013048	1.029433	1.046271
	O330	O	-0.060838	0.066633	-0.011008
	H331	H	-0.050296	0.077690	-0.007357
	H332	H	-0.068149	0.069260	-0.013512
	O333	O	0.454856	0.534818	0.600630
	H334	H	0.460294	0.533328	0.604935
	H335	H	0.453134	0.539380	0.595956
	O336	O	-0.029881	0.042760	-0.079016
	H337	H	-0.025304	0.052592	-0.083051
	H338	H	-0.039539	0.031441	-0.084862
	O339	O	-0.004653	-0.160497	0.025170
	H340	H	-0.000641	-0.157149	0.029043
	H341	H	-0.010141	-0.175260	0.016478
	O342	O	0.521754	0.422078	0.479578
	H343	H	0.528056	0.424409	0.482439
	H344	H	0.520152	0.425349	0.479751
	O345	O	-0.026958	1.112314	1.023466
	H346	H	-0.011045	1.109166	1.016354
	H347	H	-0.033527	1.106345	1.029800
	O348	O	0.159970	0.288257	0.755881
	H349	H	0.157725	0.293857	0.754189
	H350	H	0.164388	0.284905	0.759508
	O351	O	0.499795	0.538863	0.546379
	H352	H	0.495358	0.535640	0.541432
	H353	H	0.495567	0.542054	0.542701
	O354	O	0.401199	0.518203	0.464571
	H355	H	0.389075	0.516418	0.457578
	H356	H	0.404783	0.526604	0.454642
	O357	O	1.019343	1.035392	0.063421
	H358	H	1.015166	1.035316	0.059840
	H359	H	1.008162	1.022758	0.070991
	O360	O	0.890041	-0.004700	1.093271
	H361	H	0.895088	-0.003154	1.104685
	H362	H	0.892823	0.008809	1.087783
	O363	O	0.448083	0.360996	0.584096
	H364	H	0.431907	0.358841	0.573141
	H365	H	0.443199	0.347880	0.579105
	O366	O	0.929993	1.079060	0.023144
	H367	H	0.929788	1.096192	0.027885
	H368	H	0.933878	1.080709	0.018967
	O369	O	1.066769	0.088992	0.090443
	H370	H	1.071085	0.085327	0.094511
	H371	H	1.066425	0.088598	0.080140
	O372	O	0.603239	0.569309	0.561025
	H373	H	0.610160	0.574226	0.562294
	H374	H	0.609814	0.570868	0.545949
	O375	O	1.023621	-0.091967	0.911609
	H376	H	1.026129	-0.096324	0.929734
	H377	H	1.020839	-0.088744	0.900700
	O378	O	0.152253	1.132136	0.083487
	H379	H	0.161218	1.121715	0.091496
	H380	H	0.150093	1.134862	0.075863
	O381	O	0.607718	0.456120	0.553155
	H382	H	0.611607	0.459943	0.562517
	H383	H	0.605297	0.444416	0.549892
	O384	O	1.096144	0.963563	0.050257
	H385	H	1.105587	0.957906	0.046611
	H386	H	1.093536	0.963298	0.043167
	O387	O	1.091505	-0.170790	1.035227
	H388	H	1.106486	-0.180024	1.030937
	H389	H	1.075890	-0.162978	1.013147
	O390	O	0.883395	1.066606	-0.061990
	H391	H	0.887703	1.069342	-0.053800
	H392	H	0.882822	1.069175	-0.052771
	O393	O	0.362857	0.553933	0.527781
	H394	H	0.360412	0.566084	0.534297
	H395	H	0.371765	0.541274	0.523439
