data_Molecule from HDF5

_cell_length_a		16.371647
_cell_length_b		16.550018
_cell_length_c		16.653221
_cell_angle_alpha	89.959314
_cell_angle_beta	90.075043
_cell_angle_gamma	89.938370
_symmetry_space_group_name_H-M	'P 1'
_symmetry_Int_Tables_number		1

loop_
	_symmetry_equiv_pos_as_xyz
	x,y,z

loop_
	_atom_site_label
	_atom_site_type_symbol
	_atom_site_fract_x
	_atom_site_fract_y
	_atom_site_fract_z
	H0	H	0.425506	0.875594	0.723934
	H1	H	0.640014	0.186315	0.722749
	H2	H	0.642770	0.875237	0.275337
	H3	H	0.423849	0.183871	0.275310
	H4	H	0.758837	0.421948	0.847817
	H5	H	0.754748	0.635558	0.156468
	H6	H	0.310988	0.637066	0.844647
	H7	H	0.313086	0.429098	0.157061
	H8	H	0.873609	0.751287	0.394207
	H9	H	0.189966	0.751531	0.602893
	H10	H	0.872814	0.315327	0.599345
	H11	H	0.191691	0.311304	0.396022
	H12	H	0.875159	0.426493	0.720099
	H13	H	0.189554	0.637646	0.720979
	H14	H	0.873968	0.635902	0.278681
	H15	H	0.192252	0.427872	0.281052
	H16	H	0.426953	0.754335	0.845903
	H17	H	0.641931	0.755551	0.154477
	H18	H	0.642087	0.304153	0.848082
	H19	H	0.425517	0.308022	0.154418
	H20	H	0.754229	0.873404	0.396213
	H21	H	0.749196	0.189619	0.599694
	H22	H	0.310557	0.875004	0.605206
	H23	H	0.313379	0.187565	0.397061
	H24	H	0.930565	0.373585	0.218985
	H25	H	0.139011	0.690044	0.221237
	H26	H	0.141048	0.376492	0.776805
	H27	H	0.924742	0.687583	0.776361
	H28	H	0.255131	0.926451	0.344364
	H29	H	0.252666	0.134401	0.656940
	H30	H	0.814864	0.130557	0.341501
	H31	H	0.813868	0.930106	0.657460
	H32	H	0.373405	0.249361	0.897782
	H33	H	0.689434	0.251433	0.105953
	H34	H	0.374340	0.809220	0.105521
	H35	H	0.691703	0.809702	0.895054
	H36	H	0.374747	0.922358	0.222910
	H37	H	0.689438	0.134946	0.221648
	H38	H	0.374352	0.134603	0.780584
	H39	H	0.690815	0.924706	0.778994
	H40	H	0.930441	0.249958	0.341666
	H41	H	0.137980	0.253608	0.655913
	H42	H	0.140851	0.807578	0.344202
	H43	H	0.925043	0.808364	0.654953
	H44	H	0.251705	0.374779	0.898730
	H45	H	0.250681	0.691866	0.100499
	H46	H	0.815913	0.372162	0.101401
	H47	H	0.812219	0.689212	0.896958
	H48	H	0.442681	0.143998	0.591527
	H49	H	0.626469	0.917411	0.588008
	H50	H	0.618228	0.140556	0.412906
	H51	H	0.445064	0.918182	0.412630
	H52	H	0.620313	0.441265	0.111821
	H53	H	0.622831	0.622194	0.887721
	H54	H	0.447971	0.620734	0.110959
	H55	H	0.443489	0.443104	0.888677
	H56	H	0.142761	0.612871	0.412376
	H57	H	0.917626	0.620738	0.589346
	H58	H	0.148874	0.440305	0.592202
	H59	H	0.919220	0.442646	0.407603
	H60	H	0.146265	0.441343	0.584041
	H61	H	0.919873	0.619282	0.584044
	H62	H	0.148765	0.621277	0.403145
	H63	H	0.918183	0.440756	0.409007
	H64	H	0.443218	0.625344	0.114038
	H65	H	0.621954	0.615237	0.890572
	H66	H	0.620765	0.441542	0.111572
	H67	H	0.444658	0.439053	0.888037
	H68	H	0.624468	0.143430	0.410468
	H69	H	0.621250	0.915641	0.596429
	H70	H	0.445860	0.143622	0.592613
	H71	H	0.445293	0.918039	0.410475
	H72	H	0.936829	0.649123	0.098847
	H73	H	0.123923	0.417960	0.097366
	H74	H	0.117948	0.645017	0.906503
	H75	H	0.945778	0.421207	0.914166
	H76	H	0.125144	0.951534	0.608411
	H77	H	0.124064	0.125490	0.385496
	H78	H	0.945690	0.119660	0.609832
	H79	H	0.941804	0.942492	0.388345
	H80	H	0.646208	0.118268	0.910217
	H81	H	0.416665	0.123767	0.089579
	H82	H	0.646123	0.941423	0.090699
	H83	H	0.419880	0.941459	0.913767
	H84	H	0.644307	0.943328	0.085427
	H85	H	0.420816	0.117177	0.084262
	H86	H	0.646520	0.119382	0.912315
	H87	H	0.421052	0.945171	0.912638
	H88	H	0.944477	0.130961	0.613438
	H89	H	0.123967	0.116566	0.389354
	H90	H	0.109206	0.940407	0.606801
	H91	H	0.945167	0.942272	0.388320
	H92	H	0.117955	0.643702	0.911902
	H93	H	0.116363	0.423268	0.089399
	H94	H	0.954246	0.640869	0.092385
	H95	H	0.943585	0.418655	0.909274
	H96	H	0.445354	0.143237	0.589459
	H97	H	0.616580	0.920946	0.588570
	H98	H	0.618570	0.142459	0.406046
	H99	H	0.447055	0.917836	0.412101
	H100	H	0.620535	0.441784	0.111126
	H101	H	0.616170	0.620319	0.890830
	H102	H	0.440835	0.618056	0.112321
	H103	H	0.440513	0.440396	0.887461
	H104	H	0.146612	0.626110	0.415704
	H105	H	0.919449	0.615071	0.588210
	H106	H	0.146008	0.448097	0.590158
	H107	H	0.919606	0.442481	0.409899
	H108	H	0.938668	0.642684	0.079812
	H109	H	0.127660	0.420650	0.086237
	H110	H	0.123085	0.645759	0.909565
	H111	H	0.948997	0.421464	0.908879
	H112	H	0.125084	0.932997	0.615039
	H113	H	0.116287	0.122605	0.390142
	H114	H	0.934844	0.123444	0.614143
	H115	H	0.943624	0.939790	0.387604
	H116	H	0.645452	0.117083	0.912405
	H117	H	0.418152	0.115362	0.093017
	H118	H	0.644194	0.946800	0.089907
	H119	H	0.419585	0.942672	0.910588
	C120	C	0.411573	0.040030	0.622280
	C121	C	0.653990	1.021748	0.622278
	C122	C	0.653748	0.038813	0.378129
	C123	C	0.412306	1.021511	0.379102
	C124	C	0.654303	0.408314	0.009429
	C125	C	0.653958	0.652282	0.992117
	C126	C	0.411262	0.653656	0.009484
	C127	C	0.410400	0.409489	0.991220
	C128	C	0.041147	0.652454	0.378237
	C129	C	1.023300	0.651431	0.619571
	C130	C	0.042071	0.411255	0.620260
	C131	C	1.024495	0.410674	0.378229
	C132	C	0.912046	0.539853	0.121395
	C133	C	0.154236	0.524706	0.121788
	C134	C	0.153252	0.541010	0.878123
	C135	C	0.911556	0.523320	0.878168
	C136	C	0.153707	0.909336	0.507633
	C137	C	0.153881	0.153145	0.491746
	C138	C	0.910806	0.154127	0.508126
	C139	C	0.910673	0.909769	0.491432
	C140	C	0.541175	0.151062	0.879704
	C141	C	0.523181	0.150890	0.121328
	C142	C	0.540969	0.909829	0.121591
	C143	C	0.524828	0.910117	0.879910
	C144	C	0.407724	0.922334	0.683027
	C145	C	0.657179	0.139832	0.681962
	C146	C	0.659046	0.921589	0.317000
	C147	C	0.407293	0.138247	0.317152
	C148	C	0.717084	0.404315	0.893610
	C149	C	0.715044	0.654537	0.109206
	C150	C	0.351008	0.655872	0.891691
	C151	C	0.351695	0.409064	0.109371
	C152	C	0.921591	0.712193	0.375534
	C153	C	0.142553	0.711758	0.621517
	C154	C	0.921358	0.353454	0.619881
	C155	C	0.144250	0.351382	0.377384
	C156	C	0.922351	0.408495	0.679851
	C157	C	0.142277	0.655199	0.680202
	C158	C	0.921793	0.654639	0.318189
	C159	C	0.144375	0.409083	0.319913
	C160	C	0.408177	0.714300	0.892168
	C161	C	0.658672	0.714169	0.108444
	C162	C	0.659465	0.345885	0.893757
	C163	C	0.407840	0.349129	0.108340
	C164	C	0.714683	0.920818	0.377040
	C165	C	0.711550	0.141426	0.621055
	C166	C	0.350895	0.921952	0.623988
	C167	C	0.352016	0.139671	0.377278
	C168	C	0.911776	0.420906	0.179566
	C169	C	0.156656	0.643146	0.181035
	C170	C	0.157521	0.423094	0.818240
	C171	C	0.907129	0.640820	0.817132
	C172	C	0.215151	0.907460	0.390925
	C173	C	0.213285	0.153880	0.609692
	C174	C	0.853642	0.151799	0.388834
	C175	C	0.852240	0.909766	0.609861
	C176	C	0.421462	0.210181	0.878497
	C177	C	0.641985	0.211217	0.124112
	C178	C	0.421897	0.849078	0.123824
	C179	C	0.643864	0.849728	0.877476
	C180	C	0.422212	0.905340	0.182481
	C181	C	0.642086	0.153312	0.181577
	C182	C	0.421864	0.153368	0.820213
	C183	C	0.643464	0.906853	0.819442
	C184	C	0.910968	0.210811	0.389022
	C185	C	0.156116	0.213083	0.609192
	C186	C	0.157886	0.848555	0.390983
	C187	C	0.907447	0.849281	0.608505
	C188	C	0.213132	0.422506	0.878362
	C189	C	0.212331	0.644178	0.121085
	C190	C	0.854343	0.420272	0.121340
	C191	C	0.851059	0.641443	0.876989
	C192	C	0.437190	0.122179	0.597996
	C193	C	0.628859	0.939433	0.598027
	C194	C	0.627650	0.120782	0.402758
	C195	C	0.438553	0.939370	0.404398
	C196	C	0.627982	0.434134	0.090384
	C197	C	0.627691	0.626562	0.910954
	C198	C	0.436720	0.628590	0.091097
	C199	C	0.435649	0.433855	0.909450
	C200	C	0.124247	0.627298	0.403256
	C201	C	0.940552	0.625662	0.594410
	C202	C	0.125244	0.436098	0.595993
	C203	C	0.940678	0.435084	0.402120
	C204	C	0.936331	0.622726	0.097363
	C205	C	0.129752	0.442167	0.097807
	C206	C	0.127163	0.623291	0.902116
	C207	C	0.938322	0.441597	0.903473
	C208	C	0.127380	0.934562	0.588957
	C209	C	0.128699	0.128589	0.409751
	C210	C	0.934571	0.131145	0.590861
	C211	C	0.936050	0.934281	0.409464
	C212	C	0.624504	0.125642	0.904666
	C213	C	0.440102	0.125829	0.096218
	C214	C	0.623464	0.936152	0.096177
	C215	C	0.441853	0.935967	0.904970
	Zn216	Zn	0.532984	0.030721	0.751038
	Zn217	Zn	0.532389	0.029433	0.249958
	Zn218	Zn	0.782988	0.530581	0.000261
	Zn219	Zn	0.282189	0.533014	0.000322
	Zn220	Zn	0.031397	0.780296	0.499183
	Zn221	Zn	0.032734	0.283102	0.499304
	Zn222	Zn	0.032164	0.531646	0.748652
	Zn223	Zn	0.033852	0.532046	0.250405
	Zn224	Zn	0.532855	0.782111	0.000793
	Zn225	Zn	0.532111	0.279623	0.000607
	Zn226	Zn	0.782057	0.031229	0.500043
	Zn227	Zn	0.283437	0.031188	0.500150
	N228	N	0.444688	0.996669	0.682127
	N229	N	0.622268	0.064423	0.682978
	N230	N	0.621689	0.995881	0.317611
	N231	N	0.443793	0.063532	0.318013
	N232	N	0.713759	0.442624	0.966502
	N233	N	0.712329	0.616761	0.035905
	N234	N	0.352562	0.619179	0.965623
	N235	N	0.352853	0.445786	0.035351
	N236	N	0.996999	0.711158	0.412059
	N237	N	0.067506	0.709685	0.584527
	N238	N	0.996784	0.354432	0.583897
	N239	N	0.068538	0.351994	0.412751
	N240	N	0.998512	0.443478	0.680445
	N241	N	0.067004	0.618640	0.679303
	N242	N	0.997237	0.618527	0.319547
	N243	N	0.068777	0.445154	0.320386
	N244	N	0.444892	0.713141	0.966402
	N245	N	0.621661	0.713140	0.034478
	N246	N	0.621066	0.348305	0.966715
	N247	N	0.443582	0.349171	0.033889
	N248	N	0.711382	0.994680	0.414489
	N249	N	0.710075	0.066960	0.584646
	N250	N	0.353233	0.996061	0.586963
	N251	N	0.355170	0.066116	0.415199
	N252	N	0.946668	0.496371	0.179950
	N253	N	0.121618	0.567818	0.181864
	N254	N	0.121009	0.497834	0.817900
	N255	N	0.943772	0.566113	0.817615
	N256	N	0.212646	0.944592	0.464463
	N257	N	0.211988	0.117519	0.535599
	N258	N	0.853132	0.117495	0.464016
	N259	N	0.854030	0.946590	0.535995
	N260	N	0.496895	0.208998	0.914687
	N261	N	0.566925	0.209776	0.087357
	N262	N	0.496847	0.851757	0.086703
	N263	N	0.569052	0.851916	0.914621
	N264	N	0.497175	0.942432	0.181185
	N265	N	0.566990	0.116670	0.180195
	N266	N	0.497691	0.117531	0.820735
	N267	N	0.568313	0.943845	0.820821
	N268	N	0.945211	0.212869	0.464293
	N269	N	0.120071	0.212934	0.534667
	N270	N	0.120561	0.849382	0.464785
	N271	N	0.942812	0.849037	0.533733
	N272	N	0.210674	0.496796	0.914963
	N273	N	0.210845	0.569719	0.084959
	N274	N	0.854240	0.495353	0.085892
	N275	N	0.853474	0.567247	0.914012
	O276	O	0.918338	1.118898	0.877283
	H277	H	0.937709	1.109599	0.877018
	H278	H	0.915698	1.126518	0.885775
	O279	O	0.063344	0.239665	1.211858
	H280	H	0.082871	0.237113	1.220534
	H281	H	0.078981	0.242156	1.226161
	O282	O	0.636440	0.557708	0.350352
	H283	H	0.647993	0.538474	0.337983
	H284	H	0.635726	0.543463	0.363762
	O285	O	0.102247	-0.154204	1.042344
	H286	H	0.086401	-0.161436	1.046702
	H287	H	0.097378	-0.138301	1.051854
	O288	O	0.708513	-0.632360	0.634905
	H289	H	0.704052	-0.619528	0.638217
	H290	H	0.726503	-0.640309	0.655613
	O291	O	0.206820	0.178686	0.030719
	H292	H	0.218492	0.186690	0.028937
	H293	H	0.204666	0.179093	0.042249
	O294	O	-0.107176	0.170946	0.188286
	H295	H	-0.102899	0.152180	0.172831
	H296	H	-0.094695	0.167372	0.178838
	O297	O	0.753151	-0.621510	0.262041
	H298	H	0.767201	-0.635499	0.242379
	H299	H	0.762697	-0.634003	0.281531
	O300	O	0.237144	0.060512	0.215008
	H301	H	0.248369	0.052787	0.207417
	H302	H	0.251648	0.061679	0.221312
	O303	O	0.116089	0.019005	0.042594
	H304	H	0.114111	0.010320	0.037879
	H305	H	0.110005	0.020353	0.034976
	O306	O	0.859156	-0.023605	-0.118995
	H307	H	0.857737	-0.032902	-0.122261
	H308	H	0.867580	-0.030712	-0.106733
	O309	O	0.330225	0.472086	0.431499
	H310	H	0.324996	0.477130	0.433646
	H311	H	0.326012	0.480432	0.437122
	O312	O	-0.848520	-0.848177	0.794464
	H313	H	-0.851842	-0.869482	0.797677
	H314	H	-0.850177	-0.849570	0.812037
	O315	O	0.551229	0.311031	0.428962
	H316	H	0.572518	0.301072	0.443570
	H317	H	0.542017	0.305363	0.429146
	O318	O	1.114643	1.127026	-0.127660
	H319	H	1.121223	1.110023	-0.123155
	H320	H	1.105483	1.133194	-0.112951
	O321	O	0.061861	0.823820	0.784117
	H322	H	0.062448	0.816315	0.778435
	H323	H	0.075220	0.818663	0.775087
	O324	O	1.236458	0.235236	1.204697
	H325	H	1.253580	0.226312	1.216058
	H326	H	1.247568	0.246535	1.214122
	O327	O	0.495825	0.415333	0.393987
	H328	H	0.494628	0.415092	0.399909
	H329	H	0.505709	0.413865	0.388765
	O330	O	0.647207	0.486900	0.619085
	H331	H	0.652164	0.478367	0.618415
	H332	H	0.660298	0.482420	0.622066
	O333	O	0.522701	0.572533	0.322369
	H334	H	0.520397	0.562470	0.323760
	H335	H	0.510119	0.570390	0.316700
	O336	O	0.319327	0.747338	0.462036
	H337	H	0.313053	0.755230	0.457828
	H338	H	0.313082	0.751002	0.469864
	O339	O	0.623728	0.483532	0.502564
	H340	H	0.624746	0.482408	0.511158
	H341	H	0.629430	0.468925	0.500187
	O342	O	-0.253114	0.553175	-0.273432
	H343	H	-0.225511	0.569641	-0.256996
	H344	H	-0.254183	0.586073	-0.282623
	O345	O	0.318563	0.555713	0.283168
	H346	H	0.302702	0.563401	0.265870
	H347	H	0.319470	0.573445	0.286501
	O348	O	0.471168	0.755148	0.548484
	H349	H	0.470881	0.742392	0.536353
	H350	H	0.477896	0.762098	0.551021
	O351	O	-0.894801	-0.817220	2.105079
	H352	H	-0.887246	-0.807351	2.111188
	H353	H	-0.896353	-0.827428	2.104297
	O354	O	0.831880	0.157292	1.029320
	H355	H	0.835347	0.171983	1.021894
	H356	H	0.836063	0.147863	1.019620
	O357	O	0.560926	0.631300	0.342659
	H358	H	0.550081	0.621313	0.340961
	H359	H	0.562065	0.617697	0.334072
	O360	O	0.316436	0.502288	0.717627
	H361	H	0.327014	0.461896	0.712072
	H362	H	0.286697	0.490750	0.747434
	O363	O	1.348368	0.339186	0.310299
	H364	H	1.375608	0.346140	0.329531
	H365	H	1.361342	0.364700	0.326789
	O366	O	-0.109728	-0.004248	1.191579
	H367	H	-0.113404	-0.006935	1.189019
	H368	H	-0.118857	-0.011641	1.198172
	O369	O	0.000416	0.074815	0.789195
	H370	H	0.020446	0.086969	0.786824
	H371	H	0.004312	0.069267	0.792833
	O372	O	-0.358717	1.460886	1.459883
	H373	H	-0.348411	1.453546	1.456932
	H374	H	-0.347705	1.437309	1.459757
	O375	O	1.082900	0.068297	-0.037703
	H376	H	1.086415	0.062698	-0.033490
	H377	H	1.078406	0.066247	-0.025617
	O378	O	0.673063	0.395558	0.285754
	H379	H	0.673350	0.382404	0.279644
	H380	H	0.682246	0.378064	0.274686
	O381	O	0.237470	0.829592	-0.206602
	H382	H	0.221164	0.824403	-0.178292
	H383	H	0.270036	0.794498	-0.235792
	O384	O	0.461744	0.621980	0.590741
	H385	H	0.448791	0.615686	0.591292
	H386	H	0.465273	0.620462	0.586697
	O387	O	0.742233	0.367621	0.348713
	H388	H	0.738288	0.376781	0.353315
	H389	H	0.764781	0.338305	0.344141
	O390	O	-0.052439	1.233612	0.848244
	H391	H	-0.055416	1.254661	0.833969
	H392	H	-0.034970	1.220815	0.850077
	O393	O	1.000480	-0.185651	0.219487
	H394	H	1.013198	-0.182954	0.235462
	H395	H	1.010777	-0.184964	0.233772
	O396	O	0.553826	0.431230	0.656902
	H397	H	0.552585	0.440846	0.654419
	H398	H	0.575171	0.435926	0.656571
	O399	O	0.342559	0.722727	0.693934
	H400	H	0.360418	0.717084	0.660276
	H401	H	0.365950	0.694574	0.690704
	O402	O	1.004490	0.237627	0.988696
	H403	H	1.006134	0.229455	0.986920
	H404	H	1.013351	0.246977	1.009735
	O405	O	0.834076	-0.162532	0.194995
	H406	H	0.869611	-0.172571	0.207173
	H407	H	0.824407	-0.168105	0.203648
	O408	O	1.222532	0.948825	1.096054
	H409	H	1.234095	0.955305	1.082219
	H410	H	1.207805	0.935883	1.085076
	O411	O	0.609702	1.461435	0.521597
	H412	H	0.615289	1.459303	0.528684
	H413	H	0.622125	1.464031	0.527858
	O414	O	-0.182556	-0.184029	0.028605
	H415	H	-0.189006	-0.198107	0.047171
	H416	H	-0.192003	-0.194629	0.043346
	O417	O	0.355397	0.709697	0.314995
	H418	H	0.356523	0.714314	0.343133
	H419	H	0.387265	0.697620	0.311626
	O420	O	0.540066	-0.254273	0.319332
	H421	H	0.538068	-0.232936	0.299057
	H422	H	0.543834	-0.273250	0.324651
	O423	O	1.245744	0.855629	-0.067833
	H424	H	1.267029	0.834912	-0.080658
	H425	H	1.230518	0.847837	-0.059956
	O426	O	0.332290	0.333870	0.702582
	H427	H	0.319100	0.303578	0.729527
	H428	H	0.364672	0.326521	0.687221
	O429	O	0.747850	0.725393	0.524011
	H430	H	0.754278	0.722080	0.514677
	H431	H	0.763403	0.733913	0.519075
	O432	O	1.068261	0.128889	0.946512
	H433	H	1.059883	0.137407	0.947838
	H434	H	1.072344	0.126413	0.957193
	O435	O	0.752173	0.750401	0.714988
	H436	H	0.740990	0.747858	0.717442
	H437	H	0.755518	0.760327	0.689717
	O438	O	0.776729	1.279864	-0.247825
	H439	H	0.802375	1.261440	-0.240294
	H440	H	0.786822	1.271335	-0.242748
	O441	O	0.531301	0.475231	0.494696
	H442	H	0.530909	0.475350	0.491105
	H443	H	0.530255	0.469886	0.501302
	O444	O	0.060664	0.939483	1.003272
	H445	H	0.050927	0.946194	1.003206
	H446	H	0.061612	0.928628	1.006012
	O447	O	-0.075546	1.012393	-0.159512
	H448	H	-0.080137	1.003040	-0.152217
	H449	H	-0.070853	1.013798	-0.168034
	O450	O	0.683985	-0.415190	-0.581688
	H451	H	0.675162	-0.425087	-0.575689
	H452	H	0.678223	-0.425205	-0.572868
	O453	O	0.555140	0.741279	0.708609
	H454	H	0.547336	0.738269	0.717741
	H455	H	0.555379	0.739394	0.705708
	O456	O	0.093646	0.979528	1.189941
	H457	H	0.106534	0.976100	1.186542
	H458	H	0.086358	1.002347	1.189730
	O459	O	0.521278	0.655674	0.456397
	H460	H	0.526194	0.647123	0.470099
	H461	H	0.525260	0.648872	0.478270
	O462	O	0.469549	0.587593	0.725377
	H463	H	0.450393	0.577450	0.728822
	H464	H	0.482275	0.567426	0.728314
	O465	O	0.500790	0.315167	0.718954
	H466	H	0.507851	0.312286	0.732807
	H467	H	0.514969	0.315696	0.724819
	O468	O	-0.183462	0.053521	0.025294
	H469	H	-0.185907	0.047869	0.016416
	H470	H	-0.183376	0.039826	0.018821
	O471	O	0.182965	0.018707	-0.204313
	H472	H	0.207879	0.000331	-0.227179
	H473	H	0.174481	-0.007442	-0.197765
	O474	O	0.893207	0.873831	-0.089632
	H475	H	0.912019	0.871320	-0.082320
	H476	H	0.877221	0.865279	-0.091894
	O477	O	0.319007	0.315239	0.535490
	H478	H	0.301661	0.311816	0.536296
	H479	H	0.312459	0.307183	0.553295
