data_Molecule from HDF5

_cell_length_a		16.221668
_cell_length_b		16.172395
_cell_length_c		16.343495
_cell_angle_alpha	89.907771
_cell_angle_beta	89.867341
_cell_angle_gamma	89.815087
_symmetry_space_group_name_H-M	'P 1'
_symmetry_Int_Tables_number		1

loop_
	_symmetry_equiv_pos_as_xyz
	x,y,z

loop_
	_atom_site_label
	_atom_site_type_symbol
	_atom_site_fract_x
	_atom_site_fract_y
	_atom_site_fract_z
	H0	H	0.405135	0.840706	0.719033
	H1	H	0.604295	0.168514	0.718161
	H2	H	0.608432	0.839538	0.287901
	H3	H	0.406171	0.167092	0.287180
	H4	H	0.723393	0.402390	0.839646
	H5	H	0.720695	0.599952	0.166259
	H6	H	0.291686	0.603048	0.839781
	H7	H	0.291130	0.404051	0.165196
	H8	H	0.842317	0.720278	0.404638
	H9	H	0.171909	0.715438	0.599080
	H10	H	0.841459	0.291664	0.600459
	H11	H	0.170375	0.291417	0.405626
	H12	H	0.842775	0.404472	0.719432
	H13	H	0.169193	0.603839	0.717662
	H14	H	0.842145	0.605332	0.287717
	H15	H	0.169594	0.404214	0.288281
	H16	H	0.408373	0.718053	0.839935
	H17	H	0.605187	0.717223	0.166735
	H18	H	0.604481	0.288220	0.839203
	H19	H	0.410050	0.290746	0.166958
	H20	H	0.721605	0.839368	0.405190
	H21	H	0.718022	0.170028	0.599839
	H22	H	0.293186	0.839756	0.601664
	H23	H	0.294777	0.169047	0.405638
	H24	H	0.907565	0.339721	0.219442
	H25	H	0.105057	0.667901	0.216933
	H26	H	0.106667	0.340202	0.787880
	H27	H	0.905857	0.668575	0.788598
	H28	H	0.224527	0.903970	0.341061
	H29	H	0.221185	0.102843	0.665895
	H30	H	0.790765	0.105115	0.339305
	H31	H	0.790858	0.905979	0.665963
	H32	H	0.341474	0.216416	0.907227
	H33	H	0.671668	0.214809	0.099393
	H34	H	0.341215	0.790660	0.100199
	H35	H	0.671040	0.789760	0.906160
	H36	H	0.342683	0.902886	0.219618
	H37	H	0.670331	0.102174	0.217728
	H38	H	0.342359	0.103715	0.788663
	H39	H	0.669663	0.902726	0.787116
	H40	H	0.908350	0.219762	0.338687
	H41	H	0.102587	0.217387	0.666360
	H42	H	0.106379	0.789981	0.340161
	H43	H	0.908925	0.791041	0.666708
	H44	H	0.219016	0.338268	0.906067
	H45	H	0.218420	0.668613	0.098743
	H46	H	0.795674	0.337283	0.101242
	H47	H	0.792099	0.667725	0.905230
	H48	H	0.422215	0.119342	0.595648
	H49	H	0.601055	0.885132	0.600365
	H50	H	0.592131	0.120382	0.407893
	H51	H	0.422406	0.888961	0.413946
	H52	H	0.602253	0.415008	0.117678
	H53	H	0.598931	0.595188	0.887116
	H54	H	0.407829	0.587419	0.118600
	H55	H	0.413536	0.408141	0.885915
	H56	H	0.125022	0.610367	0.417377
	H57	H	0.890782	0.591353	0.595400
	H58	H	0.119916	0.413869	0.586676
	H59	H	0.890543	0.417814	0.410100
	H60	H	0.123190	0.418648	0.604855
	H61	H	0.886935	0.599037	0.601419
	H62	H	0.116560	0.583053	0.416210
	H63	H	0.886671	0.411378	0.406623
	H64	H	0.421300	0.595496	0.116603
	H65	H	0.599952	0.596697	0.887000
	H66	H	0.595154	0.405264	0.117805
	H67	H	0.411726	0.411781	0.885861
	H68	H	0.600327	0.119062	0.414818
	H69	H	0.593223	0.889520	0.595553
	H70	H	0.407565	0.121818	0.589943
	H71	H	0.409524	0.885877	0.415511
	H72	H	0.912370	0.621976	0.098159
	H73	H	0.101418	0.384885	0.097089
	H74	H	0.103896	0.624332	0.904084
	H75	H	0.916605	0.389838	0.919943
	H76	H	0.107301	0.907833	0.622248
	H77	H	0.105429	0.096897	0.385035
	H78	H	0.921555	0.099213	0.616267
	H79	H	0.911456	0.919682	0.387983
	H80	H	0.623174	0.096890	0.911775
	H81	H	0.387525	0.091046	0.110369
	H82	H	0.625968	0.906086	0.100926
	H83	H	0.389746	0.910582	0.914226
	H84	H	0.621535	0.907959	0.089388
	H85	H	0.385433	0.110351	0.094892
	H86	H	0.622383	0.090818	0.909751
	H87	H	0.390387	0.914472	0.907987
	H88	H	0.906484	0.105541	0.622036
	H89	H	0.097704	0.093576	0.389151
	H90	H	0.100300	0.917891	0.616999
	H91	H	0.922169	0.910531	0.389258
	H92	H	0.092988	0.620179	0.907499
	H93	H	0.098367	0.385719	0.098998
	H94	H	0.916242	0.619303	0.095564
	H95	H	0.906267	0.382610	0.906040
	H96	H	0.410502	0.125591	0.604889
	H97	H	0.601974	0.888453	0.590526
	H98	H	0.601803	0.123878	0.404475
	H99	H	0.414898	0.883933	0.403861
	H100	H	0.606601	0.404238	0.121482
	H101	H	0.600737	0.594852	0.887107
	H102	H	0.408644	0.602304	0.122341
	H103	H	0.415639	0.411151	0.887197
	H104	H	0.128160	0.596281	0.392935
	H105	H	0.889303	0.601104	0.591462
	H106	H	0.127681	0.400721	0.598855
	H107	H	0.889717	0.411135	0.414482
	H108	H	0.911498	0.621064	0.092849
	H109	H	0.098208	0.386325	0.095387
	H110	H	0.101456	0.620780	0.914930
	H111	H	0.924171	0.387332	0.903066
	H112	H	0.094101	0.905774	0.620083
	H113	H	0.097819	0.102034	0.385741
	H114	H	0.907322	0.089024	0.617513
	H115	H	0.909018	0.906392	0.383847
	H116	H	0.624345	0.095242	0.905873
	H117	H	0.394204	0.088358	0.086363
	H118	H	0.621054	0.917052	0.097699
	H119	H	0.386698	0.907728	0.907999
	C120	C	0.385070	0.013166	0.624976
	C121	C	0.626936	0.996233	0.624378
	C122	C	0.628090	0.012489	0.380773
	C123	C	0.386066	0.994870	0.381847
	C124	C	0.629498	0.379892	0.011273
	C125	C	0.628496	0.624271	0.994872
	C126	C	0.384321	0.624545	0.011154
	C127	C	0.384928	0.381403	0.994134
	C128	C	0.014906	0.626467	0.380448
	C129	C	0.997705	0.625333	0.623805
	C130	C	0.015008	0.382673	0.625088
	C131	C	0.997349	0.383957	0.381983
	C132	C	0.885222	0.511811	0.124599
	C133	C	0.127788	0.494816	0.124663
	C134	C	0.128015	0.512804	0.880704
	C135	C	0.885473	0.495210	0.881410
	C136	C	0.129383	0.882123	0.511930
	C137	C	0.128154	0.125638	0.494514
	C138	C	0.883519	0.127177	0.510375
	C139	C	0.885145	0.883278	0.494872
	C140	C	0.514829	0.124182	0.881527
	C141	C	0.498001	0.124309	0.124768
	C142	C	0.514728	0.881422	0.124966
	C143	C	0.497532	0.881716	0.881360
	C144	C	0.386469	0.889464	0.680527
	C145	C	0.624924	0.119538	0.680256
	C146	C	0.627747	0.888676	0.325965
	C147	C	0.386761	0.118369	0.325909
	C148	C	0.684762	0.382507	0.888092
	C149	C	0.683001	0.620706	0.117754
	C150	C	0.329548	0.622895	0.888558
	C151	C	0.329778	0.383803	0.117021
	C152	C	0.891418	0.682443	0.383395
	C153	C	0.122197	0.679062	0.620218
	C154	C	0.890699	0.328997	0.621608
	C155	C	0.121238	0.328863	0.384830
	C156	C	0.891457	0.384978	0.680627
	C157	C	0.120898	0.623745	0.679263
	C158	C	0.891389	0.625272	0.325331
	C159	C	0.120818	0.384821	0.326395
	C160	C	0.387303	0.680349	0.888663
	C161	C	0.625435	0.679129	0.117945
	C162	C	0.626132	0.325456	0.887970
	C163	C	0.388895	0.327546	0.117642
	C164	C	0.684056	0.888683	0.384197
	C165	C	0.680920	0.120462	0.621136
	C166	C	0.330381	0.889072	0.622429
	C167	C	0.331238	0.119264	0.384664
	C168	C	0.887552	0.388417	0.180857
	C169	C	0.125291	0.618958	0.178913
	C170	C	0.126541	0.389078	0.825815
	C171	C	0.886520	0.619204	0.826465
	C172	C	0.185650	0.884062	0.389409
	C173	C	0.182587	0.122798	0.617389
	C174	C	0.828422	0.125511	0.388067
	C175	C	0.829472	0.885929	0.617494
	C176	C	0.390854	0.179534	0.885408
	C177	C	0.622386	0.177896	0.120798
	C178	C	0.390534	0.827450	0.121839
	C179	C	0.621405	0.826530	0.884374
	C180	C	0.391464	0.883098	0.181002
	C181	C	0.621614	0.121959	0.179674
	C182	C	0.391094	0.123198	0.826982
	C183	C	0.620976	0.882683	0.825365
	C184	C	0.887135	0.182309	0.387667
	C185	C	0.123822	0.179819	0.617590
	C186	C	0.126944	0.827451	0.389074
	C187	C	0.887725	0.828546	0.617703
	C188	C	0.181994	0.388055	0.884974
	C189	C	0.181968	0.619100	0.120527
	C190	C	0.831936	0.387192	0.122091
	C191	C	0.829801	0.618930	0.884332
	C192	C	0.406996	0.099844	0.603177
	C193	C	0.605144	0.910056	0.601984
	C194	C	0.605047	0.098894	0.402727
	C195	C	0.408944	0.908596	0.404394
	C196	C	0.607754	0.401770	0.096812
	C197	C	0.606416	0.602175	0.909276
	C198	C	0.406097	0.601754	0.096995
	C199	C	0.407046	0.403682	0.908477
	C200	C	0.100943	0.603353	0.402513
	C201	C	0.911450	0.603562	0.602440
	C202	C	0.101263	0.404468	0.603077
	C203	C	0.911211	0.406795	0.403954
	C204	C	0.906937	0.598390	0.101977
	C205	C	0.105825	0.407962	0.103516
	C206	C	0.105874	0.599341	0.902289
	C207	C	0.908713	0.408799	0.903293
	C208	C	0.107093	0.903947	0.597633
	C209	C	0.106520	0.103924	0.408716
	C210	C	0.905225	0.104517	0.596574
	C211	C	0.907576	0.905660	0.409140
	C212	C	0.600999	0.101150	0.902882
	C213	C	0.411497	0.102832	0.103654
	C214	C	0.600674	0.903705	0.102573
	C215	C	0.411262	0.904260	0.903526
	Zn216	Zn	0.505831	0.003753	0.752866
	Zn217	Zn	0.506538	0.003310	0.253319
	Zn218	Zn	0.757767	0.502330	0.002967
	Zn219	Zn	0.255552	0.503176	0.002624
	Zn220	Zn	0.006956	0.753677	0.503213
	Zn221	Zn	0.005656	0.255275	0.502441
	Zn222	Zn	0.006484	0.504644	0.752868
	Zn223	Zn	0.006129	0.503841	0.252857
	Zn224	Zn	0.506153	0.753169	0.003300
	Zn225	Zn	0.506697	0.252060	0.002937
	Zn226	Zn	0.755490	0.004739	0.502919
	Zn227	Zn	0.257999	0.004161	0.503029
	N228	N	0.419594	0.967822	0.682384
	N229	N	0.591925	0.041353	0.682068
	N230	N	0.593572	0.966651	0.323717
	N231	N	0.420307	0.040258	0.324214
	N232	N	0.687170	0.415381	0.965759
	N233	N	0.684988	0.587405	0.040312
	N234	N	0.327618	0.588988	0.965812
	N235	N	0.327192	0.416677	0.039398
	N236	N	0.969006	0.683314	0.416730
	N237	N	0.044501	0.680210	0.586416
	N238	N	0.968437	0.327470	0.587731
	N239	N	0.043479	0.328100	0.418648
	N240	N	0.969641	0.417633	0.682956
	N241	N	0.042734	0.591022	0.681613
	N242	N	0.969370	0.591208	0.323301
	N243	N	0.042850	0.418406	0.324679
	N244	N	0.420666	0.681448	0.965943
	N245	N	0.592321	0.681460	0.040471
	N246	N	0.592336	0.323918	0.965188
	N247	N	0.422479	0.325802	0.040130
	N248	N	0.684410	0.966731	0.417541
	N249	N	0.682498	0.042878	0.587045
	N250	N	0.329376	0.966845	0.588538
	N251	N	0.330650	0.041326	0.419023
	N252	N	0.919764	0.466995	0.182578
	N253	N	0.092396	0.540640	0.181651
	N254	N	0.093475	0.467564	0.823268
	N255	N	0.920585	0.541172	0.824701
	N256	N	0.187128	0.917395	0.466617
	N257	N	0.185531	0.089950	0.539768
	N258	N	0.826036	0.092002	0.465547
	N259	N	0.827607	0.919249	0.539858
	N260	N	0.468598	0.180026	0.918882
	N261	N	0.544627	0.179488	0.087510
	N262	N	0.468182	0.826045	0.087821
	N263	N	0.543685	0.825646	0.918177
	N264	N	0.469715	0.915963	0.183208
	N265	N	0.543289	0.089214	0.182092
	N266	N	0.468969	0.089365	0.824659
	N267	N	0.542819	0.916298	0.823269
	N268	N	0.920423	0.183394	0.464980
	N269	N	0.090521	0.181656	0.540221
	N270	N	0.092658	0.826002	0.466232
	N271	N	0.921318	0.826655	0.540441
	N272	N	0.183084	0.465998	0.918520
	N273	N	0.183363	0.540916	0.087394
	N274	N	0.830262	0.465001	0.087770
	N275	N	0.829036	0.540847	0.917709
	O276	O	0.593501	0.532635	0.516230
	H277	H	0.587898	0.528483	0.519192
	H278	H	0.603962	0.533191	0.506572
	O279	O	-0.093623	-0.002574	0.024401
	H280	H	-0.091032	-0.005710	0.025668
	H281	H	-0.100987	0.005658	0.015304
	O282	O	0.488946	0.591720	0.514883
	H283	H	0.486703	0.603055	0.514475
	H284	H	0.497305	0.582241	0.508459
	O285	O	0.549345	0.571008	0.455647
	H286	H	0.534795	0.566284	0.457459
	H287	H	0.554109	0.573793	0.447256
	O288	O	0.920149	-0.024167	0.026064
	H289	H	0.916664	-0.022469	0.027971
	H290	H	0.919215	-0.018055	0.031358
	O291	O	-0.492308	0.507729	-0.525550
	H292	H	-0.493552	0.509402	-0.517090
	H293	H	-0.480443	0.504096	-0.524460
	O294	O	0.528256	0.532873	0.495370
	H295	H	0.527161	0.527455	0.491944
	H296	H	0.515853	0.538665	0.492250
	O297	O	-0.082661	1.014501	-0.007098
	H298	H	-0.086367	1.016011	-0.008707
	H299	H	-0.079241	1.001899	-0.006391
	O300	O	0.922866	0.013122	1.012903
	H301	H	0.923869	0.010622	1.008456
	H302	H	0.916929	0.013479	1.014138
	O303	O	0.541497	0.542277	0.518260
	H304	H	0.551816	0.547023	0.525247
	H305	H	0.547756	0.542137	0.524842
	O306	O	-0.042991	0.987971	0.978615
	H307	H	-0.043782	0.986844	0.987672
	H308	H	-0.041648	0.987213	0.979056
	O309	O	0.546897	0.539395	0.496499
	H310	H	0.545260	0.541902	0.499946
	H311	H	0.547278	0.542202	0.487519
