data_Molecule from HDF5

_cell_length_a		16.327333
_cell_length_b		16.127906
_cell_length_c		16.194429
_cell_angle_alpha	89.347267
_cell_angle_beta	90.083598
_cell_angle_gamma	89.964856
_symmetry_space_group_name_H-M	'P 1'
_symmetry_Int_Tables_number		1

loop_
	_symmetry_equiv_pos_as_xyz
	x,y,z

loop_
	_atom_site_label
	_atom_site_type_symbol
	_atom_site_fract_x
	_atom_site_fract_y
	_atom_site_fract_z
	H0	H	0.405159	0.852564	0.715536
	H1	H	0.600549	0.182724	0.710818
	H2	H	0.600012	0.851379	0.289301
	H3	H	0.405914	0.182806	0.286778
	H4	H	0.717695	0.419012	0.837574
	H5	H	0.716756	0.615903	0.164772
	H6	H	0.284555	0.620819	0.838148
	H7	H	0.285817	0.414308	0.164914
	H8	H	0.837952	0.732711	0.401201
	H9	H	0.165331	0.729922	0.599070
	H10	H	0.839092	0.300959	0.601236
	H11	H	0.166502	0.304974	0.406597
	H12	H	0.838475	0.416708	0.716062
	H13	H	0.165094	0.614767	0.715656
	H14	H	0.838273	0.617735	0.284661
	H15	H	0.164864	0.417925	0.287062
	H16	H	0.404006	0.731198	0.835385
	H17	H	0.598522	0.728583	0.165872
	H18	H	0.597360	0.309466	0.834164
	H19	H	0.404588	0.301204	0.165111
	H20	H	0.715625	0.851303	0.403995
	H21	H	0.716011	0.181719	0.596966
	H22	H	0.288856	0.852449	0.602210
	H23	H	0.287622	0.181788	0.398133
	H24	H	0.905247	0.351767	0.214679
	H25	H	0.099922	0.682653	0.213758
	H26	H	0.098385	0.350691	0.792716
	H27	H	0.902819	0.680516	0.784808
	H28	H	0.218007	0.918358	0.336591
	H29	H	0.218902	0.113977	0.664311
	H30	H	0.787655	0.119654	0.337222
	H31	H	0.787091	0.914144	0.664643
	H32	H	0.338704	0.233673	0.899723
	H33	H	0.665990	0.228570	0.094584
	H34	H	0.337841	0.800710	0.100663
	H35	H	0.665135	0.803865	0.905004
	H36	H	0.338854	0.916476	0.218045
	H37	H	0.665770	0.114710	0.212175
	H38	H	0.339481	0.118794	0.782697
	H39	H	0.666221	0.921437	0.789980
	H40	H	0.907051	0.231272	0.336931
	H41	H	0.098021	0.224296	0.668113
	H42	H	0.098199	0.806492	0.334793
	H43	H	0.905404	0.802652	0.666269
	H44	H	0.217305	0.353279	0.903330
	H45	H	0.217095	0.681899	0.101267
	H46	H	0.788574	0.352482	0.102347
	H47	H	0.787680	0.681893	0.900021
	H48	H	0.405612	0.138272	0.595526
	H49	H	0.595755	0.900487	0.588178
	H50	H	0.586013	0.132697	0.403875
	H51	H	0.415488	0.903564	0.416000
	H52	H	0.599815	0.429220	0.118693
	H53	H	0.608403	0.611413	0.879667
	H54	H	0.404008	0.610139	0.120301
	H55	H	0.402364	0.422976	0.880585
	H56	H	0.116048	0.608042	0.411194
	H57	H	0.882004	0.611166	0.603981
	H58	H	0.122735	0.423141	0.609320
	H59	H	0.887417	0.420096	0.420289
	H60	H	0.121532	0.409409	0.594233
	H61	H	0.884990	0.617864	0.585576
	H62	H	0.118085	0.608226	0.401972
	H63	H	0.887906	0.435858	0.404034
	H64	H	0.408148	0.603235	0.116691
	H65	H	0.590213	0.599401	0.888065
	H66	H	0.587836	0.422796	0.115809
	H67	H	0.405748	0.434257	0.884843
	H68	H	0.602031	0.133543	0.415067
	H69	H	0.603164	0.895552	0.599393
	H70	H	0.416784	0.133688	0.590622
	H71	H	0.400109	0.896332	0.412029
	H72	H	0.892379	0.640527	0.094177
	H73	H	0.098159	0.398062	0.098279
	H74	H	0.091785	0.637547	0.897545
	H75	H	0.903903	0.395726	0.906052
	H76	H	0.103836	0.915089	0.622100
	H77	H	0.088678	0.117605	0.384235
	H78	H	0.912128	0.102824	0.616941
	H79	H	0.905247	0.929201	0.383119
	H80	H	0.614851	0.107588	0.913956
	H81	H	0.382904	0.108167	0.100589
	H82	H	0.616994	0.924154	0.092951
	H83	H	0.385611	0.932014	0.901383
	H84	H	0.617920	0.923243	0.096740
	H85	H	0.383981	0.116321	0.090542
	H86	H	0.620042	0.106918	0.895200
	H87	H	0.382088	0.917705	0.905334
	H88	H	0.909114	0.114011	0.621516
	H89	H	0.103761	0.115967	0.380181
	H90	H	0.100403	0.932704	0.615528
	H91	H	0.912477	0.926540	0.384997
	H92	H	0.085358	0.631310	0.913927
	H93	H	0.090445	0.400066	0.096763
	H94	H	0.918384	0.636707	0.105188
	H95	H	0.912184	0.399235	0.909851
	H96	H	0.406402	0.134485	0.583408
	H97	H	0.589393	0.898944	0.601034
	H98	H	0.602503	0.140182	0.396575
	H99	H	0.412358	0.897832	0.400508
	H100	H	0.598136	0.415152	0.121681
	H101	H	0.587586	0.621922	0.882099
	H102	H	0.413024	0.610656	0.118221
	H103	H	0.413791	0.425210	0.884673
	H104	H	0.119359	0.615886	0.407953
	H105	H	0.889232	0.598593	0.590109
	H106	H	0.114489	0.428295	0.590861
	H107	H	0.879896	0.415443	0.399466
	H108	H	0.913349	0.630557	0.077831
	H109	H	0.096216	0.401081	0.090084
	H110	H	0.102674	0.636251	0.912129
	H111	H	0.905316	0.399203	0.914653
	H112	H	0.086618	0.919489	0.616531
	H113	H	0.096309	0.103220	0.385305
	H114	H	0.900626	0.105692	0.621207
	H115	H	0.907126	0.921327	0.381334
	H116	H	0.622659	0.124239	0.904426
	H117	H	0.388658	0.104184	0.089379
	H118	H	0.617658	0.920292	0.093564
	H119	H	0.388152	0.927469	0.915600
	C120	C	0.381724	0.026155	0.620643
	C121	C	0.623472	1.008055	0.622131
	C122	C	0.624576	0.025792	0.378481
	C123	C	0.381189	1.008451	0.379482
	C124	C	0.623241	0.395865	0.009383
	C125	C	0.623214	0.638566	0.992454
	C126	C	0.379614	0.638528	0.009813
	C127	C	0.379608	0.396479	0.992135
	C128	C	0.009923	0.639771	0.378233
	C129	C	0.993403	0.637485	0.622170
	C130	C	0.011000	0.392863	0.625639
	C131	C	0.993499	0.395697	0.380404
	C132	C	0.880258	0.526303	0.122262
	C133	C	0.123538	0.508743	0.123038
	C134	C	0.122109	0.525926	0.880876
	C135	C	0.879068	0.507470	0.879922
	C136	C	0.124444	0.894961	0.508989
	C137	C	0.123949	0.138101	0.492590
	C138	C	0.880419	0.137667	0.510604
	C139	C	0.880159	0.895178	0.492149
	C140	C	0.511219	0.141332	0.876134
	C141	C	0.493436	0.137799	0.120827
	C142	C	0.509983	0.893547	0.123679
	C143	C	0.493138	0.896828	0.879762
	C144	C	0.384523	0.901918	0.677389
	C145	C	0.620634	0.133210	0.674055
	C146	C	0.620942	0.900889	0.326052
	C147	C	0.384442	0.132987	0.323469
	C148	C	0.679113	0.398990	0.886167
	C149	C	0.677913	0.635482	0.116174
	C150	C	0.323287	0.639452	0.886584
	C151	C	0.324350	0.395850	0.115876
	C152	C	0.886764	0.694741	0.380777
	C153	C	0.116501	0.692281	0.619451
	C154	C	0.887877	0.338579	0.621966
	C155	C	0.117104	0.341883	0.384979
	C156	C	0.887461	0.396367	0.678881
	C157	C	0.116180	0.634923	0.677628
	C158	C	0.886901	0.637524	0.322822
	C159	C	0.116430	0.398426	0.325685
	C160	C	0.382913	0.694182	0.885245
	C161	C	0.619028	0.691510	0.116579
	C162	C	0.618983	0.344577	0.884421
	C163	C	0.383368	0.339614	0.116299
	C164	C	0.678634	0.901061	0.383042
	C165	C	0.678180	0.132438	0.617708
	C166	C	0.326739	0.901856	0.621085
	C167	C	0.325768	0.132507	0.379272
	C168	C	0.884057	0.401456	0.177375
	C169	C	0.120571	0.633276	0.176769
	C170	C	0.119259	0.400609	0.828731
	C171	C	0.882035	0.631431	0.822971
	C172	C	0.179492	0.898064	0.385365
	C173	C	0.179414	0.133848	0.616255
	C174	C	0.826049	0.138153	0.386438
	C175	C	0.825223	0.895223	0.615886
	C176	C	0.387563	0.196211	0.879070
	C177	C	0.616971	0.191763	0.116388
	C178	C	0.386757	0.838848	0.121203
	C179	C	0.616451	0.841867	0.883790
	C180	C	0.387484	0.895806	0.179875
	C181	C	0.616920	0.134765	0.174584
	C182	C	0.388090	0.139280	0.820713
	C183	C	0.616931	0.900136	0.826521
	C184	C	0.885109	0.193906	0.386445
	C185	C	0.119989	0.189207	0.617745
	C186	C	0.119873	0.842439	0.384558
	C187	C	0.884206	0.839823	0.616634
	C188	C	0.178327	0.401911	0.883906
	C189	C	0.178752	0.632877	0.120794
	C190	C	0.826274	0.401851	0.121214
	C191	C	0.824600	0.632015	0.880004
	C192	C	0.403302	0.113002	0.596932
	C193	C	0.602357	0.920888	0.602078
	C194	C	0.603169	0.112915	0.399070
	C195	C	0.402916	0.921559	0.402689
	C196	C	0.601606	0.416381	0.096319
	C197	C	0.601775	0.617184	0.905579
	C198	C	0.401734	0.614968	0.096197
	C199	C	0.400972	0.420255	0.905932
	C200	C	0.095518	0.617373	0.400327
	C201	C	0.907568	0.615634	0.599844
	C202	C	0.097300	0.414049	0.604602
	C203	C	0.907178	0.417520	0.401536
	C204	C	0.901718	0.613498	0.099196
	C205	C	0.101667	0.422209	0.101387
	C206	C	0.099879	0.612441	0.901898
	C207	C	0.900776	0.420426	0.903415
	C208	C	0.103215	0.916113	0.595712
	C209	C	0.102719	0.118130	0.405502
	C210	C	0.901208	0.114291	0.597460
	C211	C	0.901945	0.918793	0.405490
	C212	C	0.597028	0.119421	0.898148
	C213	C	0.407313	0.116166	0.099629
	C214	C	0.595528	0.915962	0.101117
	C215	C	0.407408	0.919100	0.901120
	Zn216	Zn	0.502217	0.018142	0.749103
	Zn217	Zn	0.502495	0.016748	0.251065
	Zn218	Zn	0.751866	0.517350	0.001828
	Zn219	Zn	0.251119	0.518146	0.001344
	Zn220	Zn	0.001524	0.767427	0.500613
	Zn221	Zn	0.002391	0.266181	0.503002
	Zn222	Zn	0.001285	0.515505	0.752472
	Zn223	Zn	0.001653	0.517344	0.249815
	Zn224	Zn	0.500879	0.766371	0.000457
	Zn225	Zn	0.501683	0.267786	-0.000346
	Zn226	Zn	0.751657	0.016331	0.501159
	Zn227	Zn	0.253088	0.017000	0.500425
	N228	N	0.418220	0.980167	0.677022
	N229	N	0.587293	0.055006	0.676895
	N230	N	0.587914	0.979303	0.323248
	N231	N	0.418407	0.054817	0.323621
	N232	N	0.681778	0.430222	0.964777
	N233	N	0.680597	0.603388	0.037815
	N234	N	0.321237	0.605335	0.964851
	N235	N	0.321895	0.430414	0.037743
	N236	N	0.964029	0.696390	0.414396
	N237	N	0.039260	0.694020	0.585655
	N238	N	0.965640	0.336413	0.589507
	N239	N	0.039601	0.340240	0.418366
	N240	N	0.965047	0.429383	0.681317
	N241	N	0.038486	0.601619	0.679439
	N242	N	0.964575	0.603948	0.321013
	N243	N	0.038489	0.431182	0.322674
	N244	N	0.417184	0.693745	0.962975
	N245	N	0.585899	0.693455	0.038512
	N246	N	0.584969	0.342379	0.962228
	N247	N	0.416897	0.339628	0.038411
	N248	N	0.680864	0.979791	0.414943
	N249	N	0.679906	0.053600	0.585953
	N250	N	0.324943	0.980130	0.586484
	N251	N	0.323444	0.054019	0.413145
	N252	N	0.917289	0.479897	0.177935
	N253	N	0.086941	0.555076	0.178489
	N254	N	0.085012	0.478427	0.826637
	N255	N	0.915300	0.553056	0.822843
	N256	N	0.182600	0.929781	0.463897
	N257	N	0.181944	0.102881	0.537543
	N258	N	0.823010	0.103808	0.464680
	N259	N	0.822471	0.928802	0.537415
	N260	N	0.465016	0.197805	0.912625
	N261	N	0.539198	0.193595	0.083572
	N262	N	0.463914	0.837127	0.087195
	N263	N	0.538574	0.839703	0.915941
	N264	N	0.465102	0.929125	0.181502
	N265	N	0.539025	0.102074	0.177646
	N266	N	0.465759	0.106053	0.818711
	N267	N	0.539339	0.933669	0.823766
	N268	N	0.918259	0.193769	0.464619
	N269	N	0.086150	0.192050	0.539846
	N270	N	0.086398	0.840399	0.462462
	N271	N	0.917510	0.839640	0.538503
	N272	N	0.180254	0.480756	0.915708
	N273	N	0.180640	0.554505	0.088170
	N274	N	0.823780	0.480626	0.087783
	N275	N	0.822851	0.553831	0.914912
	O276	O	0.523123	0.463705	0.576100
	H277	H	0.525293	0.454070	0.578601
	H278	H	0.524353	0.456988	0.570842
	O279	O	0.481632	0.503782	0.520651
	H280	H	0.483930	0.513051	0.521959
	H281	H	0.482594	0.491375	0.521310
	O282	O	0.404991	0.568229	0.483263
	H283	H	0.395015	0.567812	0.482172
	H284	H	0.407672	0.581683	0.479908
	O285	O	0.033966	1.000154	1.009356
	H286	H	0.027140	0.992373	1.011630
	H287	H	0.036109	1.007088	1.016964
	O288	O	0.569394	0.561206	0.479416
	H289	H	0.566059	0.551806	0.473201
	H290	H	0.576284	0.563821	0.484203
	O291	O	0.000961	-0.010147	1.039694
	H292	H	0.009491	-0.015203	1.043933
	H293	H	-0.003632	-0.011326	1.044280
	O294	O	0.555805	0.565872	0.524144
	H295	H	0.560253	0.558896	0.530624
	H296	H	0.550862	0.571565	0.521251
	O297	O	0.461188	0.452852	0.569659
	H298	H	0.447242	0.440706	0.565313
	H299	H	0.456125	0.450707	0.568333
	O300	O	0.418495	0.604467	0.464829
	H301	H	0.409762	0.604562	0.455496
	H302	H	0.421286	0.606239	0.455614
	O303	O	0.555237	0.488154	0.457936
	H304	H	0.565966	0.491776	0.462656
	H305	H	0.557317	0.487743	0.462569
	O306	O	0.999768	0.021406	1.020242
	H307	H	1.011254	0.015778	1.021517
	H308	H	0.997716	0.019974	1.018309
	O309	O	-0.011942	0.013365	0.036058
	H310	H	-0.012325	0.004298	0.034357
	H311	H	-0.022647	0.014888	0.036144
	O312	O	0.447519	0.498633	0.440985
	H313	H	0.441638	0.500143	0.451061
	H314	H	0.459620	0.499545	0.441203
	O315	O	1.004185	-0.003085	1.020669
	H316	H	1.008488	-0.001690	1.017609
	H317	H	0.999576	-0.005635	1.017888
	O318	O	-0.017029	-0.000569	0.015109
	H319	H	-0.017470	0.002006	0.013116
	H320	H	-0.023556	0.010753	0.014375
	O321	O	0.534077	0.608118	0.536731
	H322	H	0.537286	0.619984	0.534994
	H323	H	0.530798	0.601455	0.534016
	O324	O	1.432071	-0.504720	-0.552860
	H325	H	1.421122	-0.510194	-0.556002
	H326	H	1.423195	-0.498038	-0.541207
	O327	O	0.504724	0.574910	0.476761
	H328	H	0.516521	0.589802	0.481830
	H329	H	0.503118	0.560638	0.478738
	O330	O	0.450475	0.425096	0.525925
	H331	H	0.450373	0.425491	0.523882
	H332	H	0.437584	0.431585	0.526147
	O333	O	0.425457	-0.535210	0.470905
	H334	H	0.433993	-0.537655	0.460938
	H335	H	0.414223	-0.527220	0.472598
