data_Molecule from HDF5

_cell_length_a		16.456489
_cell_length_b		16.225306
_cell_length_c		16.329963
_cell_angle_alpha	90.013814
_cell_angle_beta	90.190466
_cell_angle_gamma	89.878729
_symmetry_space_group_name_H-M	'P 1'
_symmetry_Int_Tables_number		1

loop_
	_symmetry_equiv_pos_as_xyz
	x,y,z

loop_
	_atom_site_label
	_atom_site_type_symbol
	_atom_site_fract_x
	_atom_site_fract_y
	_atom_site_fract_z
	H0	H	0.405114	0.837412	0.710992
	H1	H	0.608786	0.161942	0.714743
	H2	H	0.607059	0.837857	0.277559
	H3	H	0.400497	0.161606	0.275290
	H4	H	0.723396	0.396444	0.836223
	H5	H	0.724835	0.608325	0.155353
	H6	H	0.280090	0.605057	0.837046
	H7	H	0.285695	0.396557	0.157816
	H8	H	0.843645	0.719598	0.395275
	H9	H	0.163596	0.718752	0.602451
	H10	H	0.843495	0.280841	0.598032
	H11	H	0.165146	0.283359	0.397734
	H12	H	0.842320	0.396893	0.714109
	H13	H	0.162510	0.601660	0.719076
	H14	H	0.844341	0.605746	0.275726
	H15	H	0.162719	0.393531	0.276867
	H16	H	0.399064	0.717269	0.833813
	H17	H	0.603500	0.717861	0.157271
	H18	H	0.604620	0.283433	0.834574
	H19	H	0.402320	0.281993	0.157109
	H20	H	0.725486	0.839156	0.390516
	H21	H	0.723703	0.162120	0.599665
	H22	H	0.285210	0.839771	0.599958
	H23	H	0.283574	0.161047	0.388758
	H24	H	0.901039	0.337589	0.215047
	H25	H	0.107293	0.661155	0.219120
	H26	H	0.104621	0.337738	0.781239
	H27	H	0.895875	0.660465	0.776767
	H28	H	0.226498	0.892279	0.336777
	H29	H	0.227018	0.106838	0.654024
	H30	H	0.784018	0.106682	0.335541
	H31	H	0.784364	0.895254	0.654974
	H32	H	0.343940	0.220226	0.891652
	H33	H	0.663957	0.218856	0.097829
	H34	H	0.342667	0.782436	0.097146
	H35	H	0.662872	0.779362	0.893084
	H36	H	0.344296	0.895651	0.215873
	H37	H	0.663304	0.104729	0.215752
	H38	H	0.345252	0.103406	0.774403
	H39	H	0.664575	0.894727	0.777852
	H40	H	0.902770	0.219554	0.334991
	H41	H	0.106413	0.216600	0.657665
	H42	H	0.110697	0.776030	0.337934
	H43	H	0.903771	0.783936	0.657851
	H44	H	0.223225	0.340298	0.893012
	H45	H	0.224615	0.661167	0.105139
	H46	H	0.782238	0.339840	0.102531
	H47	H	0.784642	0.661977	0.894284
	H48	H	0.422180	0.115723	0.591337
	H49	H	0.598276	0.881681	0.593769
	H50	H	0.591402	0.114829	0.404446
	H51	H	0.421386	0.887989	0.407631
	H52	H	0.601096	0.404297	0.115842
	H53	H	0.601493	0.588727	0.878660
	H54	H	0.410606	0.591166	0.110868
	H55	H	0.407067	0.404096	0.877601
	H56	H	0.116332	0.591045	0.410508
	H57	H	0.889750	0.589126	0.589474
	H58	H	0.117028	0.414333	0.592570
	H59	H	0.886717	0.408309	0.398027
	H60	H	0.120058	0.405342	0.596393
	H61	H	0.888964	0.593299	0.588026
	H62	H	0.113821	0.583803	0.411667
	H63	H	0.890548	0.403334	0.413999
	H64	H	0.413422	0.588564	0.110641
	H65	H	0.590364	0.581734	0.886278
	H66	H	0.596824	0.423023	0.107605
	H67	H	0.406070	0.421177	0.883915
	H68	H	0.594088	0.113993	0.409642
	H69	H	0.588468	0.888784	0.583368
	H70	H	0.419531	0.111274	0.574949
	H71	H	0.409807	0.885397	0.410351
	H72	H	0.914347	0.615252	0.090561
	H73	H	0.095843	0.384571	0.088284
	H74	H	0.088635	0.614073	0.908393
	H75	H	0.901629	0.381850	0.910000
	H76	H	0.097522	0.912267	0.610484
	H77	H	0.091312	0.093928	0.380190
	H78	H	0.911513	0.091261	0.611794
	H79	H	0.913491	0.915255	0.382152
	H80	H	0.616198	0.085393	0.906035
	H81	H	0.388194	0.094509	0.088483
	H82	H	0.614391	0.909346	0.081394
	H83	H	0.390153	0.911901	0.900377
	H84	H	0.616838	0.914271	0.089149
	H85	H	0.392472	0.091763	0.079034
	H86	H	0.620206	0.092809	0.899039
	H87	H	0.388696	0.907645	0.902019
	H88	H	0.912805	0.087846	0.609694
	H89	H	0.099290	0.090171	0.379927
	H90	H	0.095907	0.913683	0.609999
	H91	H	0.918477	0.912373	0.382671
	H92	H	0.092378	0.614651	0.911511
	H93	H	0.092445	0.385965	0.087233
	H94	H	0.916769	0.612901	0.083586
	H95	H	0.914818	0.382010	0.897348
	H96	H	0.406712	0.118094	0.584161
	H97	H	0.603200	0.884518	0.579308
	H98	H	0.596855	0.116074	0.405160
	H99	H	0.414321	0.882827	0.399558
	H100	H	0.582869	0.408829	0.107839
	H101	H	0.588503	0.595567	0.880620
	H102	H	0.414190	0.592685	0.110095
	H103	H	0.421124	0.411963	0.884862
	H104	H	0.116908	0.585539	0.404889
	H105	H	0.890579	0.590257	0.585646
	H106	H	0.116416	0.405940	0.586228
	H107	H	0.894030	0.419208	0.409119
	H108	H	0.909295	0.615720	0.084515
	H109	H	0.095054	0.385645	0.085077
	H110	H	0.092271	0.615836	0.907825
	H111	H	0.917665	0.389338	0.914320
	H112	H	0.094975	0.911450	0.609866
	H113	H	0.092504	0.085427	0.382866
	H114	H	0.915038	0.091231	0.610413
	H115	H	0.913629	0.908926	0.380475
	H116	H	0.618108	0.096228	0.909142
	H117	H	0.391247	0.084793	0.086155
	H118	H	0.619306	0.904970	0.088641
	H119	H	0.390952	0.910712	0.904520
	C120	C	0.384761	0.008806	0.615650
	C121	C	0.627391	0.991923	0.617231
	C122	C	0.625847	0.008536	0.374374
	C123	C	0.382927	0.991584	0.373498
	C124	C	0.624751	0.379727	0.004534
	C125	C	0.624741	0.621576	0.987437
	C126	C	0.380507	0.622089	0.004654
	C127	C	0.381662	0.380163	0.988224
	C128	C	0.011512	0.620917	0.376343
	C129	C	0.994834	0.621725	0.620003
	C130	C	0.011565	0.377609	0.620231
	C131	C	0.995895	0.378273	0.376184
	C132	C	0.882152	0.508318	0.118203
	C133	C	0.125713	0.491632	0.119850
	C134	C	0.122381	0.508306	0.878313
	C135	C	0.880555	0.491368	0.875844
	C136	C	0.127443	0.878411	0.505125
	C137	C	0.125900	0.121326	0.487122
	C138	C	0.882223	0.122645	0.504650
	C139	C	0.884101	0.880299	0.487570
	C140	C	0.512790	0.122603	0.872899
	C141	C	0.495567	0.121792	0.116680
	C142	C	0.511199	0.878506	0.117105
	C143	C	0.495526	0.878240	0.873115
	C144	C	0.384906	0.886763	0.673378
	C145	C	0.627561	0.113298	0.675900
	C146	C	0.626511	0.886712	0.315977
	C147	C	0.381471	0.112878	0.314275
	C148	C	0.683789	0.377898	0.884232
	C149	C	0.684126	0.624979	0.107716
	C150	C	0.320055	0.623891	0.884770
	C151	C	0.324273	0.378067	0.109418
	C152	C	0.891594	0.680868	0.375129
	C153	C	0.115580	0.679605	0.621360
	C154	C	0.891301	0.319667	0.618122
	C155	C	0.116658	0.321039	0.377068
	C156	C	0.890582	0.377615	0.675837
	C157	C	0.114937	0.621153	0.679233
	C158	C	0.891858	0.623977	0.315951
	C159	C	0.115329	0.376178	0.317145
	C160	C	0.379525	0.679589	0.883048
	C161	C	0.624006	0.679938	0.108547
	C162	C	0.624488	0.321829	0.883034
	C163	C	0.382622	0.321200	0.109178
	C164	C	0.685407	0.887432	0.372395
	C165	C	0.685023	0.113489	0.618404
	C166	C	0.325750	0.887588	0.617399
	C167	C	0.322919	0.112664	0.370503
	C168	C	0.881607	0.386564	0.176536
	C169	C	0.126556	0.612868	0.179770
	C170	C	0.123645	0.386504	0.820093
	C171	C	0.878519	0.612390	0.816448
	C172	C	0.186699	0.874415	0.384808
	C173	C	0.186144	0.123729	0.607011
	C174	C	0.823608	0.124826	0.383747
	C175	C	0.824789	0.877737	0.607661
	C176	C	0.392199	0.181184	0.871924
	C177	C	0.615698	0.180219	0.117452
	C178	C	0.390900	0.820942	0.116588
	C179	C	0.615142	0.818659	0.873632
	C180	C	0.391792	0.877219	0.176105
	C181	C	0.615468	0.123132	0.176049
	C182	C	0.392894	0.123140	0.813657
	C183	C	0.616201	0.876686	0.816413
	C184	C	0.882831	0.181055	0.383452
	C185	C	0.125970	0.178391	0.608789
	C186	C	0.129078	0.816474	0.385413
	C187	C	0.883775	0.822031	0.609057
	C188	C	0.182403	0.387699	0.876087
	C189	C	0.184930	0.612825	0.122979
	C190	C	0.822696	0.387531	0.120180
	C191	C	0.822709	0.613065	0.874956
	C192	C	0.409115	0.093156	0.590583
	C193	C	0.603607	0.907020	0.592552
	C194	C	0.601071	0.092930	0.399156
	C195	C	0.407735	0.907290	0.398666
	C196	C	0.600468	0.404400	0.088489
	C197	C	0.600467	0.596074	0.903539
	C198	C	0.405503	0.597785	0.088802
	C199	C	0.404781	0.405098	0.904060
	C200	C	0.093900	0.594605	0.401755
	C201	C	0.911565	0.597827	0.594961
	C202	C	0.095988	0.401653	0.598100
	C203	C	0.912197	0.403083	0.400122
	C204	C	0.906356	0.592602	0.093317
	C205	C	0.101390	0.407335	0.094369
	C206	C	0.098003	0.592867	0.902317
	C207	C	0.904680	0.406451	0.900270
	C208	C	0.103259	0.904845	0.588374
	C209	C	0.101451	0.096826	0.402881
	C210	C	0.906277	0.097472	0.588857
	C211	C	0.908320	0.904984	0.403707
	C212	C	0.596429	0.098495	0.897582
	C213	C	0.412282	0.097301	0.091853
	C214	C	0.595229	0.902581	0.093385
	C215	C	0.411681	0.902964	0.895846
	Zn216	Zn	0.505506	-0.000250	0.744421
	Zn217	Zn	0.504206	0.000087	0.246117
	Zn218	Zn	0.753189	0.500631	-0.003272
	Zn219	Zn	0.252523	0.501063	-0.002456
	Zn220	Zn	0.004428	0.751140	0.497302
	Zn221	Zn	0.004682	0.249770	0.497359
	Zn222	Zn	0.001891	0.499071	0.749311
	Zn223	Zn	0.003441	0.499348	0.246763
	Zn224	Zn	0.502664	0.749527	-0.005040
	Zn225	Zn	0.503347	0.251501	-0.004234
	Zn226	Zn	0.754809	0.000480	0.495309
	Zn227	Zn	0.255202	0.000764	0.495076
	N228	N	0.420957	0.963099	0.672280
	N229	N	0.592738	0.036432	0.675390
	N230	N	0.590245	0.963103	0.316880
	N231	N	0.417773	0.036701	0.316035
	N232	N	0.684036	0.413131	0.960930
	N233	N	0.684504	0.589307	0.031322
	N234	N	0.320562	0.589077	0.961534
	N235	N	0.323381	0.413851	0.033117
	N236	N	0.966858	0.679059	0.411969
	N237	N	0.040052	0.680221	0.585178
	N238	N	0.967704	0.319390	0.584636
	N239	N	0.041226	0.322220	0.413185
	N240	N	0.966658	0.412660	0.677478
	N241	N	0.038873	0.586216	0.678794
	N242	N	0.967338	0.587581	0.316368
	N243	N	0.039137	0.410904	0.316336
	N244	N	0.416161	0.678729	0.958696
	N245	N	0.587520	0.677655	0.032774
	N246	N	0.588729	0.322789	0.958846
	N247	N	0.417318	0.321993	0.032707
	N248	N	0.685202	0.964316	0.407882
	N249	N	0.684884	0.036937	0.582327
	N250	N	0.325680	0.964533	0.581884
	N251	N	0.323443	0.036085	0.406622
	N252	N	0.917489	0.462688	0.175682
	N253	N	0.090424	0.536550	0.177828
	N254	N	0.086683	0.462564	0.821363
	N255	N	0.913628	0.535449	0.816727
	N256	N	0.185870	0.912189	0.460079
	N257	N	0.186314	0.088894	0.530207
	N258	N	0.823243	0.089340	0.460105
	N259	N	0.824871	0.913120	0.531200
	N260	N	0.467839	0.181208	0.907914
	N261	N	0.540172	0.179672	0.081420
	N262	N	0.466210	0.821617	0.080461
	N263	N	0.539214	0.819366	0.908104
	N264	N	0.467869	0.912122	0.176467
	N265	N	0.539607	0.087485	0.175834
	N266	N	0.468915	0.087809	0.814013
	N267	N	0.540751	0.913192	0.816073
	N268	N	0.918471	0.179888	0.459765
	N269	N	0.089473	0.177110	0.533160
	N270	N	0.092973	0.818756	0.461107
	N271	N	0.920228	0.823528	0.533388
	N272	N	0.181594	0.464413	0.911616
	N273	N	0.184704	0.536482	0.086596
	N274	N	0.822498	0.464437	0.084771
	N275	N	0.823764	0.536767	0.911020
	O276	O	0.567034	0.600961	0.572947
	H277	H	0.565719	0.605656	0.576252
	H278	H	0.555289	0.590732	0.586296
	O279	O	0.166343	0.038572	-0.111117
	H280	H	0.160075	0.024233	-0.107360
	H281	H	0.159937	0.056580	-0.115868
	O282	O	0.348794	0.670141	0.533736
	H283	H	0.334660	0.682196	0.526142
	H284	H	0.354881	0.658681	0.516397
	O285	O	1.644022	0.605669	0.553183
	H286	H	1.656785	0.617795	0.571021
	H287	H	1.646134	0.607610	0.573261
	O288	O	0.421356	0.354810	0.514274
	H289	H	0.420540	0.335470	0.508968
	H290	H	0.410209	0.369567	0.514893
	O291	O	0.515833	0.564547	0.306455
	H292	H	0.524163	0.557218	0.297418
	H293	H	0.529186	0.549672	0.313769
	O294	O	1.102865	1.019375	0.991759
	H295	H	1.101554	1.020322	0.996026
	H296	H	1.109723	1.019611	0.991682
	O297	O	0.856090	1.098544	1.037094
	H298	H	0.864934	1.108478	1.036985
	H299	H	0.852884	1.118790	1.036880
	O300	O	-0.183142	-0.108411	0.156167
	H301	H	-0.186905	-0.105118	0.136339
	H302	H	-0.195142	-0.101909	0.161260
	O303	O	-0.005745	1.165954	1.105251
	H304	H	0.003235	1.168101	1.111847
	H305	H	-0.010267	1.170466	1.103016
	O306	O	0.920390	-0.103333	-0.113109
	H307	H	0.930327	-0.111467	-0.104728
	H308	H	0.922455	-0.094294	-0.127335
	O309	O	0.469758	0.422183	0.454897
	H310	H	0.464679	0.429872	0.461760
	H311	H	0.491172	0.422508	0.452726
	O312	O	1.189138	0.800998	-0.076377
	H313	H	1.180168	0.804370	-0.068904
	H314	H	1.204183	0.779637	-0.078120
	O315	O	0.633436	0.302815	0.556114
	H316	H	0.639871	0.294488	0.547998
	H317	H	0.642115	0.298764	0.544625
	O318	O	0.327849	0.544044	0.470945
	H319	H	0.326148	0.539084	0.469433
	H320	H	0.340007	0.537765	0.451676
	O321	O	0.802654	-0.150643	1.044494
	H322	H	0.785812	-0.158534	1.032613
	H323	H	0.831809	-0.162424	1.042572
	O324	O	0.311440	0.363851	1.549629
	H325	H	0.316204	0.370963	1.538251
	H326	H	0.302846	0.377548	1.555195
	O327	O	0.000558	0.829749	1.069457
	H328	H	0.017932	0.830378	1.055608
	H329	H	0.003992	0.838164	1.085087
	O330	O	0.471029	0.389740	0.360296
	H331	H	0.466494	0.398840	0.367375
	H332	H	0.459196	0.387827	0.367799
	O333	O	0.907610	1.086329	1.062924
	H334	H	0.914235	1.083392	1.065640
	H335	H	0.895296	1.074976	1.063586
	O336	O	0.607990	0.380249	0.305003
	H337	H	0.598292	0.400823	0.312851
	H338	H	0.603907	0.372859	0.294874
	O339	O	0.572921	0.678949	0.659357
	H340	H	0.559713	0.670470	0.667535
	H341	H	0.563407	0.668987	0.653397
	O342	O	0.203564	1.182521	1.026507
	H343	H	0.212754	1.202756	1.031813
	H344	H	0.200947	1.170105	1.040594
	O345	O	-0.046697	1.157980	0.792278
	H346	H	-0.054906	1.178677	0.784721
	H347	H	-0.081067	1.141330	0.794244
	O348	O	0.682074	0.519337	0.621029
	H349	H	0.677718	0.507120	0.611523
	H350	H	0.684976	0.513211	0.616360
	O351	O	0.081331	0.014063	0.100994
	H352	H	0.076671	0.006189	0.106311
	H353	H	0.071139	0.025292	0.099503
	O354	O	0.405784	0.529057	-0.630370
	H355	H	0.419603	0.533847	-0.635274
	H356	H	0.401142	0.532358	-0.636407
	O357	O	-0.053592	0.914948	-0.108124
	H358	H	-0.073408	0.905573	-0.110775
	H359	H	-0.064466	0.909583	-0.103010
	O360	O	-0.006225	-0.072736	-0.113914
	H361	H	-0.003451	-0.070144	-0.119428
	H362	H	-0.010116	-0.061711	-0.123803
	O363	O	0.446994	0.537694	0.538206
	H364	H	0.447928	0.543554	0.532008
	H365	H	0.429509	0.541974	0.531855
	O366	O	0.573760	0.341019	0.398336
	H367	H	0.575982	0.333074	0.386317
	H368	H	0.577818	0.362493	0.402081
	O369	O	0.573768	0.556587	0.608136
	H370	H	0.579446	0.543333	0.605950
	H371	H	0.575834	0.557722	0.610836
	O372	O	0.565557	0.333559	0.502372
	H373	H	0.569478	0.337417	0.498136
	H374	H	0.563276	0.341272	0.516698
	O375	O	0.951729	0.114956	0.125285
	H376	H	0.958212	0.129675	0.145909
	H377	H	0.970869	0.114035	0.124860
	O378	O	0.490580	0.670262	0.395490
	H379	H	0.492522	0.672117	0.394791
	H380	H	0.510784	0.678697	0.397387
	O381	O	-0.056483	-0.081300	-0.124653
	H382	H	-0.048841	-0.107264	-0.132672
	H383	H	-0.041775	-0.080284	-0.116152
	O384	O	0.621740	0.567286	1.512405
	H385	H	0.620348	0.575089	1.515783
	H386	H	0.617838	0.579077	1.527307
	O387	O	1.114908	0.811118	-0.140359
	H388	H	1.120219	0.801647	-0.114362
	H389	H	1.121397	0.829873	-0.151921
	O390	O	0.505227	0.501665	0.572725
	H391	H	0.507598	0.503620	0.554889
	H392	H	0.509790	0.478117	0.563433
	O393	O	1.003206	-0.006303	0.848611
	H394	H	1.008968	0.015065	0.846628
	H395	H	0.990949	0.005699	0.834215
	O396	O	-0.158533	1.172753	0.866563
	H397	H	-0.174749	1.177930	0.876669
	H398	H	-0.169403	1.154313	0.880975
	O399	O	0.447619	0.467739	0.671775
	H400	H	0.437469	0.470058	0.678468
	H401	H	0.453500	0.471227	0.654645
	O402	O	1.085402	-0.088210	0.857440
	H403	H	1.097763	-0.100615	0.856227
	H404	H	1.093309	-0.086107	0.842995
	O405	O	0.178063	0.073434	0.164105
	H406	H	0.195779	0.078257	0.156457
	H407	H	0.184244	0.044070	0.170542
	O408	O	1.103965	0.974835	1.089332
	H409	H	1.099371	0.966488	1.076822
	H410	H	1.109775	0.968985	1.077575
	O411	O	0.978396	0.797382	0.200821
	H412	H	0.978747	0.791991	0.209452
	H413	H	0.958792	0.791666	0.205031
	O414	O	0.183254	0.108346	1.176540
	H415	H	0.162572	0.089747	1.183578
	H416	H	0.202942	0.101727	1.202330
	O417	O	0.405908	0.641478	0.415573
	H418	H	0.412540	0.645452	0.426409
	H419	H	0.404685	0.646600	0.419137
	O420	O	-0.109153	0.999229	0.025242
	H421	H	-0.104459	1.001213	0.031511
	H422	H	-0.100239	1.008939	0.023545
	O423	O	0.418837	-0.592338	0.684303
	H424	H	0.421728	-0.608613	0.687650
	H425	H	0.409851	-0.591524	0.686912
	O426	O	-0.036580	0.195215	0.904266
	H427	H	-0.054209	0.201825	0.901199
	H428	H	-0.034260	0.200212	0.900151
	O429	O	0.574981	0.466670	0.309642
	H430	H	0.573853	0.460197	0.330526
	H431	H	0.560626	0.466372	0.315647
