data_Molecule from HDF5

_cell_length_a		16.443363
_cell_length_b		16.087018
_cell_length_c		16.093095
_cell_angle_alpha	89.546426
_cell_angle_beta	89.849793
_cell_angle_gamma	89.655774
_symmetry_space_group_name_H-M	'P 1'
_symmetry_Int_Tables_number		1

loop_
	_symmetry_equiv_pos_as_xyz
	x,y,z

loop_
	_atom_site_label
	_atom_site_type_symbol
	_atom_site_fract_x
	_atom_site_fract_y
	_atom_site_fract_z
	H0	H	0.409553	0.839080	0.710077
	H1	H	0.599536	0.171701	0.706373
	H2	H	0.603321	0.838429	0.287745
	H3	H	0.407682	0.170130	0.284462
	H4	H	0.724844	0.402079	0.833505
	H5	H	0.722005	0.604697	0.160787
	H6	H	0.290347	0.606721	0.832355
	H7	H	0.289986	0.400749	0.160881
	H8	H	0.843732	0.722408	0.398187
	H9	H	0.169032	0.717207	0.593814
	H10	H	0.842873	0.290577	0.598934
	H11	H	0.168214	0.288869	0.399626
	H12	H	0.844783	0.406185	0.715004
	H13	H	0.169440	0.600287	0.710498
	H14	H	0.843636	0.607653	0.279922
	H15	H	0.168371	0.407059	0.283737
	H16	H	0.410425	0.717415	0.830934
	H17	H	0.600443	0.712164	0.163776
	H18	H	0.602170	0.294906	0.829976
	H19	H	0.410716	0.292631	0.163203
	H20	H	0.724355	0.841594	0.395831
	H21	H	0.721658	0.168641	0.600480
	H22	H	0.290530	0.840607	0.600696
	H23	H	0.288325	0.168531	0.393481
	H24	H	0.909742	0.339092	0.212470
	H25	H	0.100726	0.671028	0.205260
	H26	H	0.102488	0.337386	0.789686
	H27	H	0.910146	0.669994	0.785142
	H28	H	0.223431	0.903304	0.332931
	H29	H	0.220581	0.104654	0.661169
	H30	H	0.788824	0.110117	0.332990
	H31	H	0.788912	0.901764	0.661543
	H32	H	0.342932	0.220556	0.899259
	H33	H	0.668769	0.218336	0.094736
	H34	H	0.342828	0.789104	0.096890
	H35	H	0.668090	0.789277	0.898218
	H36	H	0.343140	0.905617	0.213892
	H37	H	0.668033	0.101717	0.212451
	H38	H	0.343355	0.104866	0.782103
	H39	H	0.668081	0.906128	0.782418
	H40	H	0.908933	0.219610	0.332118
	H41	H	0.099365	0.212649	0.664396
	H42	H	0.102450	0.795353	0.330206
	H43	H	0.909463	0.791433	0.663450
	H44	H	0.222704	0.340161	0.896474
	H45	H	0.220436	0.668266	0.096238
	H46	H	0.791254	0.340157	0.100818
	H47	H	0.788549	0.667327	0.892430
	H48	H	0.404039	0.124856	0.583875
	H49	H	0.600165	0.890360	0.578963
	H50	H	0.600389	0.123585	0.405499
	H51	H	0.402794	0.882415	0.406043
	H52	H	0.592454	0.416934	0.112128
	H53	H	0.592482	0.595871	0.880177
	H54	H	0.405769	0.594893	0.116905
	H55	H	0.412015	0.411776	0.876766
	H56	H	0.122053	0.596768	0.397557
	H57	H	0.896383	0.580592	0.587209
	H58	H	0.125582	0.404755	0.598731
	H59	H	0.891861	0.414111	0.409947
	H60	H	0.121486	0.403827	0.586431
	H61	H	0.885333	0.602727	0.608876
	H62	H	0.123022	0.604028	0.400962
	H63	H	0.890752	0.417168	0.403086
	H64	H	0.412833	0.589701	0.113713
	H65	H	0.601439	0.602133	0.876456
	H66	H	0.598382	0.402562	0.117510
	H67	H	0.410630	0.414991	0.878095
	H68	H	0.596158	0.123592	0.403101
	H69	H	0.607049	0.882867	0.594037
	H70	H	0.409566	0.125117	0.594436
	H71	H	0.419523	0.885164	0.399624
	H72	H	0.911908	0.621616	0.083099
	H73	H	0.105910	0.387142	0.078676
	H74	H	0.099958	0.623258	0.905403
	H75	H	0.910257	0.387682	0.917847
	H76	H	0.105225	0.908316	0.618086
	H77	H	0.090228	0.091008	0.383144
	H78	H	0.916642	0.092646	0.613197
	H79	H	0.915333	0.922291	0.382214
	H80	H	0.623171	0.096093	0.892068
	H81	H	0.388997	0.101613	0.090622
	H82	H	0.621093	0.916925	0.099098
	H83	H	0.389465	0.909756	0.901678
	H84	H	0.623708	0.899609	0.094690
	H85	H	0.391754	0.096154	0.088249
	H86	H	0.623204	0.108509	0.904728
	H87	H	0.389432	0.910810	0.905904
	H88	H	0.909840	0.102419	0.618211
	H89	H	0.096994	0.107233	0.375857
	H90	H	0.099838	0.917671	0.613491
	H91	H	0.916567	0.910392	0.379339
	H92	H	0.102085	0.624084	0.902594
	H93	H	0.106701	0.380422	0.099428
	H94	H	0.909367	0.623796	0.087637
	H95	H	0.906524	0.380735	0.900129
	H96	H	0.415776	0.121043	0.585104
	H97	H	0.591064	0.888158	0.593208
	H98	H	0.595815	0.122082	0.407534
	H99	H	0.415751	0.890080	0.417666
	H100	H	0.608240	0.415401	0.116306
	H101	H	0.603300	0.590715	0.879594
	H102	H	0.414021	0.598333	0.115369
	H103	H	0.413782	0.414280	0.878202
	H104	H	0.119936	0.597213	0.404831
	H105	H	0.890758	0.610516	0.577602
	H106	H	0.120299	0.414352	0.593278
	H107	H	0.888727	0.409649	0.403886
	H108	H	0.914569	0.622271	0.088113
	H109	H	0.088182	0.389087	0.091146
	H110	H	0.098021	0.623560	0.903110
	H111	H	0.924344	0.387244	0.904664
	H112	H	0.094246	0.907956	0.614634
	H113	H	0.107298	0.092766	0.378266
	H114	H	0.905079	0.090950	0.615593
	H115	H	0.906327	0.915841	0.377033
	H116	H	0.617980	0.091849	0.908323
	H117	H	0.390078	0.096442	0.094540
	H118	H	0.617351	0.911177	0.081883
	H119	H	0.390175	0.913832	0.902821
	C120	C	0.383218	0.013958	0.617821
	C121	C	0.626793	0.996368	0.617742
	C122	C	0.627050	0.014098	0.376550
	C123	C	0.384006	0.995372	0.377330
	C124	C	0.627998	0.383302	0.005715
	C125	C	0.627423	0.624690	0.987871
	C126	C	0.383307	0.624945	0.006011
	C127	C	0.384323	0.383442	0.987419
	C128	C	0.014366	0.628845	0.373018
	C129	C	0.998436	0.625811	0.618833
	C130	C	0.014716	0.380344	0.621671
	C131	C	0.997622	0.383985	0.376542
	C132	C	0.884290	0.513414	0.117584
	C133	C	0.127404	0.495276	0.117636
	C134	C	0.128044	0.513493	0.876056
	C135	C	0.885337	0.494693	0.876980
	C136	C	0.128085	0.883362	0.505915
	C137	C	0.125917	0.124854	0.488782
	C138	C	0.882306	0.126639	0.506538
	C139	C	0.884183	0.885070	0.488611
	C140	C	0.513960	0.127832	0.873779
	C141	C	0.497480	0.126289	0.119368
	C142	C	0.513476	0.881043	0.120754
	C143	C	0.497003	0.882420	0.874813
	C144	C	0.387658	0.889067	0.673422
	C145	C	0.621958	0.121589	0.671137
	C146	C	0.624818	0.888644	0.323450
	C147	C	0.387143	0.120471	0.321868
	C148	C	0.685278	0.383506	0.882026
	C149	C	0.683253	0.623692	0.111674
	C150	C	0.328835	0.625119	0.881447
	C151	C	0.328437	0.382555	0.111812
	C152	C	0.892222	0.684809	0.376444
	C153	C	0.120486	0.679646	0.614800
	C154	C	0.892115	0.327245	0.619412
	C155	C	0.119664	0.327568	0.379295
	C156	C	0.892901	0.384556	0.677262
	C157	C	0.120640	0.621518	0.672998
	C158	C	0.892225	0.627382	0.318016
	C159	C	0.119758	0.386189	0.321433
	C160	C	0.388057	0.680685	0.880977
	C161	C	0.622886	0.677171	0.113488
	C162	C	0.624687	0.330150	0.880276
	C163	C	0.388530	0.328719	0.112990
	C164	C	0.684722	0.890369	0.377264
	C165	C	0.682303	0.120239	0.617868
	C166	C	0.328414	0.889744	0.618821
	C167	C	0.327379	0.119597	0.375648
	C168	C	0.888227	0.388805	0.174701
	C169	C	0.122896	0.620838	0.169875
	C170	C	0.124270	0.387922	0.824134
	C171	C	0.888847	0.620089	0.822020
	C172	C	0.184245	0.884590	0.381903
	C173	C	0.181151	0.122987	0.612478
	C174	C	0.826844	0.128239	0.382425
	C175	C	0.828343	0.884041	0.612861
	C176	C	0.391661	0.183333	0.877575
	C177	C	0.619841	0.180994	0.116152
	C178	C	0.391343	0.826691	0.117923
	C179	C	0.619420	0.827252	0.877908
	C180	C	0.391590	0.884401	0.176096
	C181	C	0.619653	0.122829	0.174572
	C182	C	0.391781	0.125502	0.819453
	C183	C	0.619401	0.885050	0.819778
	C184	C	0.886352	0.183012	0.382010
	C185	C	0.121253	0.177127	0.614136
	C186	C	0.123976	0.831145	0.380397
	C187	C	0.888221	0.829188	0.613730
	C188	C	0.183802	0.389143	0.877669
	C189	C	0.182207	0.619471	0.115553
	C190	C	0.829352	0.389254	0.119148
	C191	C	0.828283	0.618667	0.875245
	C192	C	0.403656	0.101189	0.594734
	C193	C	0.605603	0.909670	0.595367
	C194	C	0.604197	0.100492	0.398850
	C195	C	0.406247	0.908523	0.400767
	C196	C	0.606195	0.405237	0.092460
	C197	C	0.605554	0.602829	0.901196
	C198	C	0.404547	0.601315	0.092897
	C199	C	0.405868	0.406806	0.900257
	C200	C	0.099677	0.606076	0.394637
	C201	C	0.912993	0.604514	0.597473
	C202	C	0.100349	0.401322	0.599364
	C203	C	0.912566	0.406973	0.398902
	C204	C	0.905575	0.600061	0.093473
	C205	C	0.106384	0.408245	0.096178
	C206	C	0.106553	0.601142	0.897528
	C207	C	0.907256	0.407675	0.900657
	C208	C	0.106079	0.904819	0.593037
	C209	C	0.104380	0.103349	0.401588
	C210	C	0.903942	0.102473	0.593250
	C211	C	0.906304	0.908925	0.401910
	C212	C	0.599498	0.105486	0.895296
	C213	C	0.412444	0.104554	0.097725
	C214	C	0.598774	0.902809	0.098327
	C215	C	0.411628	0.904781	0.896801
	Zn216	Zn	0.505507	0.004946	0.744849
	Zn217	Zn	0.505114	0.004054	0.249851
	Zn218	Zn	0.756114	0.504117	-0.003277
	Zn219	Zn	0.255628	0.503807	-0.003019
	Zn220	Zn	0.006224	0.756636	0.496721
	Zn221	Zn	0.004852	0.252900	0.498296
	Zn222	Zn	0.006562	0.503612	0.749697
	Zn223	Zn	0.005865	0.505604	0.244802
	Zn224	Zn	0.505786	0.752411	-0.002278
	Zn225	Zn	0.506158	0.256526	-0.003558
	Zn226	Zn	0.754943	0.005597	0.497499
	Zn227	Zn	0.255643	0.004795	0.497044
	N228	N	0.421208	0.967218	0.673041
	N229	N	0.588165	0.043503	0.671305
	N230	N	0.589405	0.966222	0.322968
	N231	N	0.421755	0.042248	0.322688
	N232	N	0.687556	0.415693	0.961087
	N233	N	0.686122	0.591655	0.032639
	N234	N	0.325670	0.591420	0.960297
	N235	N	0.325609	0.415824	0.032644
	N236	N	0.969085	0.685928	0.409840
	N237	N	0.043280	0.682744	0.582059
	N238	N	0.969128	0.324146	0.585723
	N239	N	0.042572	0.325902	0.412843
	N240	N	0.970185	0.416616	0.678849
	N241	N	0.043469	0.588874	0.675615
	N242	N	0.969176	0.593314	0.315928
	N243	N	0.042961	0.420434	0.319612
	N244	N	0.421494	0.680636	0.959340
	N245	N	0.588830	0.678155	0.035424
	N246	N	0.589746	0.329600	0.958005
	N247	N	0.422621	0.329241	0.034790
	N248	N	0.686369	0.969405	0.409491
	N249	N	0.685455	0.041401	0.585416
	N250	N	0.325701	0.968436	0.584798
	N251	N	0.325270	0.040874	0.409390
	N252	N	0.921489	0.467110	0.173915
	N253	N	0.089756	0.542635	0.171501
	N254	N	0.090295	0.466376	0.822892
	N255	N	0.923523	0.541990	0.822899
	N256	N	0.187016	0.916217	0.460994
	N257	N	0.184244	0.091363	0.533309
	N258	N	0.824187	0.094073	0.461166
	N259	N	0.825785	0.917954	0.534166
	N260	N	0.468697	0.184867	0.910561
	N261	N	0.542966	0.183306	0.082614
	N262	N	0.468375	0.824250	0.084468
	N263	N	0.542313	0.825346	0.911346
	N264	N	0.468575	0.917454	0.178025
	N265	N	0.542680	0.089583	0.176723
	N266	N	0.468865	0.091757	0.817127
	N267	N	0.542344	0.918934	0.818025
	N268	N	0.920125	0.182175	0.460011
	N269	N	0.087381	0.178334	0.536036
	N270	N	0.089427	0.830371	0.458483
	N271	N	0.922548	0.829758	0.535422
	N272	N	0.186248	0.468332	0.909295
	N273	N	0.185340	0.540246	0.083845
	N274	N	0.826542	0.467752	0.084639
	N275	N	0.826048	0.539744	0.908768
	O276	O	-0.080881	0.043398	-0.127942
	H277	H	-0.077359	0.038654	-0.132434
	H278	H	-0.079184	0.040719	-0.131790
	O279	O	0.439381	0.512332	0.496277
	H280	H	0.443542	0.520834	0.496413
	H281	H	0.432034	0.507805	0.506483
	O282	O	0.568537	0.585009	0.476249
	H283	H	0.566124	0.576394	0.468810
	H284	H	0.568789	0.573237	0.469066
	O285	O	1.018334	-0.019626	0.965805
	H286	H	1.012054	-0.014845	0.965163
	H287	H	1.018954	-0.022395	0.959684
	O288	O	1.018411	-0.039716	0.036459
	H289	H	1.012459	-0.044932	0.039364
	H290	H	1.010322	-0.029508	0.039479
	O291	O	0.562684	0.502359	0.560108
	H292	H	0.564404	0.503231	0.560388
	H293	H	0.575188	0.508130	0.560434
	O294	O	1.028055	-0.016013	0.972591
	H295	H	1.023117	-0.025635	0.974841
	H296	H	1.027050	-0.020986	0.966997
	O297	O	0.021664	0.041219	0.085468
	H298	H	0.026985	0.046117	0.088961
	H299	H	0.027358	0.036980	0.076460
	O300	O	0.648002	0.503544	0.519657
	H301	H	0.659681	0.496383	0.517711
	H302	H	0.650627	0.500320	0.505452
	O303	O	0.447498	0.459110	0.442350
	H304	H	0.455630	0.454001	0.462551
	H305	H	0.434200	0.468058	0.435124
	O306	O	0.963294	-0.043426	-0.025337
	H307	H	0.964625	-0.042836	-0.024558
	H308	H	0.961118	-0.036919	-0.036000
	O309	O	-0.038409	0.064473	0.877404
	H310	H	-0.045634	0.068438	0.875072
	H311	H	-0.039785	0.064663	0.879708
	O312	O	0.946375	0.985767	1.101836
	H313	H	0.942430	0.981402	1.097736
	H314	H	0.941405	0.989777	1.106509
	O315	O	0.526533	0.479278	0.431055
	H316	H	0.521487	0.475457	0.426685
	H317	H	0.538271	0.474448	0.422587
	O318	O	0.552153	0.559442	0.503852
	H319	H	0.552022	0.568774	0.511410
	H320	H	0.557301	0.555048	0.504456
	O321	O	-0.104609	0.969219	0.982980
	H322	H	-0.107643	0.969980	0.981692
	H323	H	-0.100022	0.975786	0.976088
	O324	O	0.463109	0.570112	0.482835
	H325	H	0.463564	0.576557	0.482617
	H326	H	0.469989	0.569761	0.486930
	O327	O	0.496061	0.550593	0.475080
	H328	H	0.498204	0.544714	0.472748
	H329	H	0.495736	0.550690	0.473189
	O330	O	0.447985	0.603786	0.463709
	H331	H	0.438765	0.608610	0.463372
	H332	H	0.443895	0.611190	0.461343
	O333	O	0.554021	0.540104	0.548215
	H334	H	0.567122	0.537354	0.534939
	H335	H	0.547007	0.544197	0.544696
	O336	O	0.517066	0.406629	0.560750
	H337	H	0.508418	0.420697	0.558516
	H338	H	0.523489	0.398446	0.556538
	O339	O	0.991377	1.041862	0.021499
	H340	H	0.990096	1.032712	0.027607
	H341	H	0.995618	1.055071	0.017983
	O342	O	0.588211	0.395289	0.463081
	H343	H	0.586644	0.395298	0.460479
	H344	H	0.595276	0.385132	0.465131
	O345	O	0.448929	0.389133	0.553000
	H346	H	0.447802	0.391707	0.545577
	H347	H	0.441731	0.393787	0.564546
	O348	O	-0.013946	-0.018709	0.040883
	H349	H	-0.017974	-0.027750	0.041783
	H350	H	-0.019013	-0.028659	0.040499
	O351	O	0.054256	1.071973	1.016433
	H352	H	0.047139	1.062916	1.013448
	H353	H	0.056240	1.078438	1.028565
	O354	O	0.475484	0.472037	0.406722
	H355	H	0.464176	0.474313	0.417154
	H356	H	0.465041	0.471899	0.413625
	O357	O	-0.050023	1.017746	1.039519
	H358	H	-0.038584	1.011908	1.056614
	H359	H	-0.047111	1.032644	1.043251
