data_Molecule from HDF5

_cell_length_a		16.282622
_cell_length_b		16.219622
_cell_length_c		16.232487
_cell_angle_alpha	90.076216
_cell_angle_beta	90.106005
_cell_angle_gamma	89.825803
_symmetry_space_group_name_H-M	'P 1'
_symmetry_Int_Tables_number		1

loop_
	_symmetry_equiv_pos_as_xyz
	x,y,z

loop_
	_atom_site_label
	_atom_site_type_symbol
	_atom_site_fract_x
	_atom_site_fract_y
	_atom_site_fract_z
	H0	H	0.404963	0.835371	0.713589
	H1	H	0.599966	0.164477	0.714283
	H2	H	0.599907	0.835373	0.286999
	H3	H	0.404211	0.164942	0.287469
	H4	H	0.716591	0.399623	0.836745
	H5	H	0.717220	0.598761	0.164899
	H6	H	0.286080	0.598915	0.836271
	H7	H	0.288223	0.400049	0.164435
	H8	H	0.837506	0.712450	0.403836
	H9	H	0.165753	0.714497	0.601912
	H10	H	0.838223	0.285448	0.598312
	H11	H	0.165382	0.284592	0.402812
	H12	H	0.838171	0.401589	0.714014
	H13	H	0.166003	0.596498	0.715448
	H14	H	0.837569	0.597070	0.286910
	H15	H	0.165083	0.399317	0.286496
	H16	H	0.404208	0.713389	0.835643
	H17	H	0.599654	0.713241	0.164865
	H18	H	0.600053	0.284859	0.836694
	H19	H	0.406044	0.286015	0.164838
	H20	H	0.716196	0.834554	0.402000
	H21	H	0.716707	0.163315	0.598961
	H22	H	0.289066	0.835745	0.598427
	H23	H	0.287059	0.164190	0.401715
	H24	H	0.906016	0.334061	0.212265
	H25	H	0.099374	0.663628	0.215406
	H26	H	0.099276	0.333970	0.788556
	H27	H	0.903338	0.663834	0.787174
	H28	H	0.217288	0.898712	0.335901
	H29	H	0.216630	0.097157	0.664113
	H30	H	0.787488	0.097022	0.336242
	H31	H	0.788184	0.901163	0.664542
	H32	H	0.338162	0.212135	0.903169
	H33	H	0.666900	0.212187	0.098339
	H34	H	0.338007	0.786527	0.097221
	H35	H	0.666247	0.783299	0.900564
	H36	H	0.338358	0.901830	0.214192
	H37	H	0.666748	0.096292	0.214195
	H38	H	0.339290	0.098875	0.785358
	H39	H	0.666389	0.900881	0.785949
	H40	H	0.904021	0.212372	0.335531
	H41	H	0.100833	0.212458	0.664178
	H42	H	0.098777	0.785194	0.335720
	H43	H	0.905040	0.786683	0.665155
	H44	H	0.217058	0.334925	0.902461
	H45	H	0.215975	0.664291	0.100410
	H46	H	0.789589	0.334472	0.098734
	H47	H	0.786630	0.663371	0.902461
	H48	H	0.400157	0.118806	0.592327
	H49	H	0.598259	0.881899	0.594031
	H50	H	0.596962	0.117786	0.405692
	H51	H	0.397671	0.881210	0.412823
	H52	H	0.585569	0.416524	0.111563
	H53	H	0.593682	0.582337	0.887001
	H54	H	0.406603	0.593658	0.118028
	H55	H	0.415369	0.397716	0.882237
	H56	H	0.117260	0.588349	0.408433
	H57	H	0.885857	0.590209	0.596199
	H58	H	0.118066	0.408785	0.595697
	H59	H	0.886183	0.404961	0.415553
	H60	H	0.121121	0.402755	0.596721
	H61	H	0.884406	0.595701	0.595220
	H62	H	0.119507	0.592407	0.405481
	H63	H	0.885639	0.414308	0.401744
	H64	H	0.408954	0.589373	0.116071
	H65	H	0.588409	0.595507	0.885011
	H66	H	0.592035	0.390375	0.121758
	H67	H	0.398033	0.404359	0.880192
	H68	H	0.594241	0.116835	0.406826
	H69	H	0.594837	0.882262	0.595144
	H70	H	0.412731	0.118579	0.600575
	H71	H	0.411385	0.879374	0.394169
	H72	H	0.910546	0.615706	0.093827
	H73	H	0.086912	0.387315	0.086918
	H74	H	0.098791	0.614497	0.916269
	H75	H	0.905602	0.382435	0.912021
	H76	H	0.100450	0.903077	0.619080
	H77	H	0.097960	0.099123	0.380053
	H78	H	0.911847	0.095139	0.616567
	H79	H	0.911681	0.907003	0.384605
	H80	H	0.622935	0.093994	0.898597
	H81	H	0.382767	0.099593	0.097594
	H82	H	0.617713	0.910432	0.092848
	H83	H	0.387485	0.907368	0.910521
	H84	H	0.620709	0.904376	0.098272
	H85	H	0.388003	0.094194	0.087091
	H86	H	0.620044	0.099783	0.912171
	H87	H	0.386557	0.909883	0.904782
	H88	H	0.904914	0.093988	0.619151
	H89	H	0.099334	0.085016	0.383037
	H90	H	0.097625	0.911561	0.615544
	H91	H	0.908230	0.902627	0.382217
	H92	H	0.099966	0.620247	0.901616
	H93	H	0.109582	0.380288	0.088789
	H94	H	0.907815	0.616345	0.092015
	H95	H	0.907356	0.379793	0.902466
	H96	H	0.412914	0.113977	0.586024
	H97	H	0.595295	0.882697	0.592351
	H98	H	0.596691	0.116803	0.408916
	H99	H	0.419930	0.888395	0.413804
	H100	H	0.611741	0.410598	0.121250
	H101	H	0.602096	0.592412	0.881402
	H102	H	0.411985	0.594138	0.117059
	H103	H	0.411757	0.414915	0.886976
	H104	H	0.117701	0.592956	0.411083
	H105	H	0.886529	0.592582	0.591301
	H106	H	0.117572	0.404339	0.591202
	H107	H	0.881427	0.398096	0.401365
	H108	H	0.908298	0.617539	0.095070
	H109	H	0.094873	0.378612	0.107253
	H110	H	0.086328	0.614796	0.907164
	H111	H	0.914839	0.384281	0.907516
	H112	H	0.091444	0.905095	0.616156
	H113	H	0.087110	0.091747	0.385043
	H114	H	0.909034	0.088699	0.615971
	H115	H	0.905788	0.907557	0.382839
	H116	H	0.616862	0.085251	0.908962
	H117	H	0.386175	0.087349	0.098182
	H118	H	0.618950	0.903035	0.090460
	H119	H	0.385118	0.903177	0.905706
	C120	C	0.380763	0.008382	0.621420
	C121	C	0.624004	0.991137	0.622034
	C122	C	0.624047	0.008308	0.379179
	C123	C	0.380821	0.991656	0.378740
	C124	C	0.624575	0.377120	0.009575
	C125	C	0.623596	0.619890	0.992350
	C126	C	0.380635	0.621084	0.008360
	C127	C	0.381158	0.377766	0.991936
	C128	C	0.009953	0.620389	0.379357
	C129	C	0.993970	0.621010	0.622806
	C130	C	0.010395	0.377313	0.622427
	C131	C	0.993017	0.377250	0.378578
	C132	C	0.881055	0.507565	0.121742
	C133	C	0.124806	0.490807	0.123143
	C134	C	0.123316	0.507564	0.879911
	C135	C	0.880562	0.490910	0.879365
	C136	C	0.124380	0.877170	0.508422
	C137	C	0.123467	0.120344	0.491284
	C138	C	0.880414	0.120741	0.508652
	C139	C	0.880409	0.877718	0.491786
	C140	C	0.511063	0.120850	0.878988
	C141	C	0.494061	0.121516	0.122424
	C142	C	0.510680	0.877666	0.121973
	C143	C	0.494360	0.877741	0.878124
	C144	C	0.384087	0.884926	0.676427
	C145	C	0.620689	0.115349	0.676323
	C146	C	0.621397	0.884444	0.324173
	C147	C	0.383047	0.115670	0.324601
	C148	C	0.679376	0.379117	0.885809
	C149	C	0.679066	0.618731	0.115914
	C150	C	0.324727	0.618999	0.885082
	C151	C	0.326562	0.380272	0.115566
	C152	C	0.886535	0.675161	0.382611
	C153	C	0.117012	0.676143	0.621241
	C154	C	0.887075	0.323121	0.618969
	C155	C	0.116402	0.322067	0.382066
	C156	C	0.887143	0.380836	0.676601
	C157	C	0.117193	0.617845	0.678026
	C158	C	0.886598	0.617768	0.324493
	C159	C	0.116279	0.379158	0.324109
	C160	C	0.383462	0.675685	0.884663
	C161	C	0.620911	0.675658	0.115976
	C162	C	0.621106	0.322308	0.885754
	C163	C	0.385163	0.323767	0.115868
	C164	C	0.678615	0.884079	0.381634
	C165	C	0.678822	0.114651	0.619526
	C166	C	0.326874	0.884675	0.618629
	C167	C	0.324804	0.115127	0.381230
	C168	C	0.885034	0.383352	0.175570
	C169	C	0.121150	0.614561	0.178213
	C170	C	0.120329	0.383540	0.825484
	C171	C	0.882940	0.614638	0.824701
	C172	C	0.179315	0.878914	0.384972
	C173	C	0.178714	0.117478	0.615025
	C174	C	0.825546	0.117685	0.385009
	C175	C	0.825810	0.880403	0.615514
	C176	C	0.387372	0.175294	0.882073
	C177	C	0.617781	0.175085	0.119328
	C178	C	0.387173	0.823641	0.118408
	C179	C	0.617397	0.821682	0.880239
	C180	C	0.387375	0.880704	0.176776
	C181	C	0.617808	0.117474	0.176815
	C182	C	0.387820	0.118650	0.823828
	C183	C	0.617583	0.879982	0.823210
	C184	C	0.883214	0.175173	0.384719
	C185	C	0.121052	0.174830	0.615066
	C186	C	0.120411	0.822431	0.384754
	C187	C	0.883921	0.823640	0.615960
	C188	C	0.178320	0.383740	0.882515
	C189	C	0.179084	0.614669	0.120853
	C190	C	0.827382	0.383488	0.118968
	C191	C	0.824855	0.614412	0.881967
	C192	C	0.402125	0.094923	0.599367
	C193	C	0.602467	0.904758	0.600203
	C194	C	0.602454	0.094677	0.400774
	C195	C	0.403178	0.905277	0.400505
	C196	C	0.602963	0.399332	0.095892
	C197	C	0.601271	0.597015	0.906700
	C198	C	0.402858	0.598934	0.094596
	C199	C	0.402148	0.399354	0.905382
	C200	C	0.096040	0.597844	0.401744
	C201	C	0.907880	0.599155	0.600539
	C202	C	0.096701	0.399015	0.600915
	C203	C	0.906794	0.399268	0.399838
	C204	C	0.902475	0.594091	0.099975
	C205	C	0.103484	0.404298	0.100991
	C206	C	0.101464	0.594197	0.901879
	C207	C	0.902582	0.404411	0.901058
	C208	C	0.102822	0.899783	0.594763
	C209	C	0.101385	0.098346	0.404945
	C210	C	0.902199	0.099083	0.594911
	C211	C	0.902114	0.899398	0.405574
	C212	C	0.597517	0.099380	0.900470
	C213	C	0.407803	0.100144	0.100706
	C214	C	0.596778	0.899491	0.100303
	C215	C	0.408529	0.900201	0.900374
	Zn216	Zn	0.502377	-0.000133	0.749932
	Zn217	Zn	0.502180	-0.000035	0.250829
	Zn218	Zn	0.752498	0.498869	0.001217
	Zn219	Zn	0.252375	0.499354	0.000595
	Zn220	Zn	0.002362	0.749435	0.501170
	Zn221	Zn	0.001882	0.249064	0.500339
	Zn222	Zn	0.002065	0.499238	0.750931
	Zn223	Zn	0.001723	0.498970	0.250239
	Zn224	Zn	0.502820	0.748938	0.000348
	Zn225	Zn	0.502500	0.249203	0.000544
	Zn226	Zn	0.752104	-0.000798	0.500585
	Zn227	Zn	0.252365	-0.000583	0.499728
	N228	N	0.416977	0.962931	0.677872
	N229	N	0.587543	0.037463	0.678043
	N230	N	0.588030	0.962529	0.322330
	N231	N	0.417204	0.038058	0.323081
	N232	N	0.681393	0.412762	0.963711
	N233	N	0.680878	0.584780	0.038244
	N234	N	0.322918	0.585782	0.963045
	N235	N	0.324105	0.413256	0.037508
	N236	N	0.964268	0.676848	0.416018
	N237	N	0.039182	0.678406	0.587729
	N238	N	0.964739	0.320859	0.585977
	N239	N	0.038803	0.321068	0.415461
	N240	N	0.964872	0.413782	0.678746
	N241	N	0.039801	0.584364	0.678982
	N242	N	0.964470	0.584556	0.322227
	N243	N	0.038601	0.412794	0.321933
	N244	N	0.417397	0.677076	0.962411
	N245	N	0.586994	0.676408	0.038243
	N246	N	0.587678	0.321172	0.963532
	N247	N	0.418289	0.322014	0.037955
	N248	N	0.680343	0.961979	0.415200
	N249	N	0.680921	0.036540	0.586397
	N250	N	0.324568	0.962479	0.585174
	N251	N	0.323402	0.036928	0.414162
	N252	N	0.917846	0.461553	0.177436
	N253	N	0.088129	0.536639	0.179751
	N254	N	0.086722	0.461605	0.823806
	N255	N	0.916704	0.536849	0.822929
	N256	N	0.181791	0.912366	0.463053
	N257	N	0.180418	0.084384	0.536887
	N258	N	0.823631	0.084677	0.462967
	N259	N	0.823514	0.913259	0.537486
	N260	N	0.465135	0.176923	0.915528
	N261	N	0.540025	0.177361	0.086233
	N262	N	0.464877	0.821646	0.085308
	N263	N	0.539845	0.820094	0.913765
	N264	N	0.465072	0.914128	0.178832
	N265	N	0.539808	0.084789	0.178925
	N266	N	0.465666	0.085614	0.821872
	N267	N	0.540086	0.914089	0.821763
	N268	N	0.916680	0.177240	0.462698
	N269	N	0.087409	0.176634	0.537292
	N270	N	0.087290	0.821096	0.462637
	N271	N	0.917217	0.821821	0.538103
	N272	N	0.180328	0.461796	0.915577
	N273	N	0.181578	0.536577	0.087451
	N274	N	0.824762	0.461631	0.086266
	N275	N	0.823462	0.536497	0.915227
	O276	O	0.024255	-0.017581	0.945162
	H277	H	0.019841	-0.018107	0.939170
	H278	H	0.029702	-0.013582	0.947542
	O279	O	0.443814	0.612814	0.489932
	H280	H	0.447877	0.619929	0.486853
	H281	H	0.440954	0.610818	0.495432
	O282	O	0.434467	0.590173	0.448191
	H283	H	0.427079	0.588072	0.445147
	H284	H	0.435465	0.587302	0.454955
	O285	O	0.472465	0.586285	0.482460
	H286	H	0.475272	0.586336	0.477953
	H287	H	0.468419	0.591236	0.469169
	O288	O	0.455292	0.552467	0.444507
	H289	H	0.452269	0.559106	0.449252
	H290	H	0.453208	0.558180	0.442570
	O291	O	0.020616	1.004268	0.957495
	H292	H	0.022658	1.009733	0.953599
	H293	H	0.026397	1.002975	0.958988
	O294	O	0.458690	0.587465	0.512858
	H295	H	0.465720	0.591399	0.517582
	H296	H	0.458849	0.588058	0.508366
	O297	O	1.005699	0.008087	-0.064105
	H298	H	1.004618	0.006524	-0.070343
	H299	H	1.003285	0.006202	-0.060881
