data_Molecule from HDF5

_cell_length_a		16.208158
_cell_length_b		16.296144
_cell_length_c		16.214881
_cell_angle_alpha	90.163478
_cell_angle_beta	90.236757
_cell_angle_gamma	90.507247
_symmetry_space_group_name_H-M	'P 1'
_symmetry_Int_Tables_number		1

loop_
	_symmetry_equiv_pos_as_xyz
	x,y,z

loop_
	_atom_site_label
	_atom_site_type_symbol
	_atom_site_fract_x
	_atom_site_fract_y
	_atom_site_fract_z
	H0	H	0.403287	0.833633	0.715866
	H1	H	0.605109	0.160842	0.720361
	H2	H	0.599805	0.833690	0.287802
	H3	H	0.402610	0.159699	0.285604
	H4	H	0.715871	0.396621	0.837366
	H5	H	0.720842	0.596326	0.165334
	H6	H	0.290618	0.592505	0.837736
	H7	H	0.288495	0.397409	0.166716
	H8	H	0.839280	0.709077	0.402953
	H9	H	0.166112	0.715589	0.603609
	H10	H	0.839196	0.280823	0.600814
	H11	H	0.166536	0.283551	0.402119
	H12	H	0.839233	0.398527	0.715732
	H13	H	0.166914	0.599595	0.716876
	H14	H	0.840560	0.597075	0.285593
	H15	H	0.167891	0.401153	0.289907
	H16	H	0.402245	0.710927	0.839171
	H17	H	0.606703	0.712640	0.165666
	H18	H	0.599982	0.279598	0.838973
	H19	H	0.401015	0.278919	0.165910
	H20	H	0.715104	0.833373	0.403198
	H21	H	0.720500	0.160716	0.602364
	H22	H	0.284664	0.835510	0.602895
	H23	H	0.288714	0.161219	0.403592
	H24	H	0.901853	0.335022	0.218809
	H25	H	0.108129	0.660527	0.219012
	H26	H	0.102089	0.335385	0.785130
	H27	H	0.904154	0.660322	0.787982
	H28	H	0.215859	0.899818	0.338974
	H29	H	0.220152	0.101311	0.666203
	H30	H	0.788340	0.095051	0.338479
	H31	H	0.788465	0.897395	0.666760
	H32	H	0.339479	0.209371	0.901371
	H33	H	0.664851	0.214803	0.107126
	H34	H	0.340679	0.777113	0.102237
	H35	H	0.666828	0.781687	0.901979
	H36	H	0.339154	0.894424	0.216839
	H37	H	0.666718	0.096430	0.217534
	H38	H	0.339018	0.094016	0.788193
	H39	H	0.666662	0.897258	0.786125
	H40	H	0.899874	0.213208	0.339436
	H41	H	0.105084	0.216225	0.665436
	H42	H	0.102614	0.781657	0.339377
	H43	H	0.902156	0.780362	0.665553
	H44	H	0.215929	0.333166	0.902460
	H45	H	0.222857	0.659506	0.101577
	H46	H	0.785630	0.334785	0.102060
	H47	H	0.786805	0.659102	0.900964
	H48	H	0.406992	0.114063	0.590699
	H49	H	0.583109	0.880913	0.607170
	H50	H	0.590762	0.112460	0.410259
	H51	H	0.406075	0.883054	0.418949
	H52	H	0.595208	0.402807	0.119993
	H53	H	0.606044	0.589583	0.881359
	H54	H	0.413923	0.589134	0.119327
	H55	H	0.409884	0.399608	0.885144
	H56	H	0.120082	0.591341	0.413757
	H57	H	0.887033	0.578735	0.601443
	H58	H	0.120289	0.399488	0.590661
	H59	H	0.886280	0.406294	0.408412
	H60	H	0.117366	0.414092	0.589695
	H61	H	0.881518	0.598701	0.600522
	H62	H	0.120892	0.589277	0.410199
	H63	H	0.885654	0.403013	0.409281
	H64	H	0.411375	0.586253	0.119927
	H65	H	0.591311	0.579623	0.889473
	H66	H	0.596935	0.408416	0.118894
	H67	H	0.408970	0.401267	0.885878
	H68	H	0.598990	0.112352	0.416067
	H69	H	0.590800	0.887739	0.579614
	H70	H	0.410427	0.115936	0.602926
	H71	H	0.401712	0.877820	0.404292
	H72	H	0.913620	0.613838	0.094378
	H73	H	0.092832	0.385245	0.088615
	H74	H	0.103166	0.616270	0.907253
	H75	H	0.903130	0.380081	0.915302
	H76	H	0.088564	0.892975	0.623104
	H77	H	0.090572	0.094271	0.385838
	H78	H	0.910848	0.093307	0.620175
	H79	H	0.912181	0.902519	0.387162
	H80	H	0.620497	0.092829	0.913314
	H81	H	0.385935	0.090959	0.087540
	H82	H	0.623895	0.903704	0.107502
	H83	H	0.389258	0.904880	0.915803
	H84	H	0.621037	0.894912	0.087857
	H85	H	0.388403	0.079262	0.094442
	H86	H	0.618044	0.086651	0.916214
	H87	H	0.386406	0.906056	0.905209
	H88	H	0.911039	0.084352	0.618648
	H89	H	0.100653	0.091081	0.383527
	H90	H	0.107837	0.910732	0.623052
	H91	H	0.908318	0.900032	0.383724
	H92	H	0.093305	0.614296	0.907365
	H93	H	0.102320	0.378323	0.095827
	H94	H	0.915843	0.611971	0.091868
	H95	H	0.908627	0.378189	0.899546
	H96	H	0.419151	0.112262	0.594636
	H97	H	0.609686	0.876630	0.597732
	H98	H	0.599900	0.115420	0.406326
	H99	H	0.416761	0.882564	0.406256
	H100	H	0.591061	0.406557	0.117257
	H101	H	0.588374	0.597688	0.884973
	H102	H	0.415186	0.585729	0.118225
	H103	H	0.411323	0.402086	0.885964
	H104	H	0.122158	0.593505	0.410357
	H105	H	0.888768	0.590320	0.583269
	H106	H	0.121710	0.407946	0.603080
	H107	H	0.887256	0.404993	0.412433
	H108	H	0.912089	0.611927	0.091416
	H109	H	0.090611	0.380148	0.101018
	H110	H	0.098932	0.612661	0.915181
	H111	H	0.918633	0.383863	0.910987
	H112	H	0.084216	0.916773	0.612521
	H113	H	0.093788	0.085081	0.388392
	H114	H	0.918267	0.089558	0.617364
	H115	H	0.907846	0.905429	0.384665
	H116	H	0.620169	0.087204	0.909138
	H117	H	0.382176	0.089342	0.100659
	H118	H	0.616269	0.915477	0.092410
	H119	H	0.384922	0.896839	0.910195
	C120	C	0.381658	0.006141	0.624786
	C121	C	0.625400	0.989257	0.625160
	C122	C	0.624256	0.005573	0.381501
	C123	C	0.380204	0.988962	0.380789
	C124	C	0.623323	0.375532	0.010704
	C125	C	0.625783	0.618463	0.993401
	C126	C	0.383608	0.616203	0.010783
	C127	C	0.380274	0.372482	0.993873
	C128	C	0.012560	0.619233	0.381351
	C129	C	0.993883	0.619847	0.624287
	C130	C	0.011571	0.376764	0.623443
	C131	C	0.994371	0.376402	0.380783
	C132	C	0.883014	0.505618	0.123090
	C133	C	0.126457	0.488698	0.124700
	C134	C	0.125482	0.506098	0.880598
	C135	C	0.881362	0.488243	0.879986
	C136	C	0.123212	0.876924	0.511545
	C137	C	0.125202	0.120603	0.493877
	C138	C	0.882919	0.117860	0.510465
	C139	C	0.880267	0.874301	0.493753
	C140	C	0.511532	0.117108	0.882291
	C141	C	0.493595	0.117664	0.124794
	C142	C	0.512025	0.874099	0.124628
	C143	C	0.494876	0.874244	0.880746
	C144	C	0.382782	0.882885	0.679050
	C145	C	0.624607	0.112154	0.681718
	C146	C	0.620627	0.882696	0.325671
	C147	C	0.382852	0.111306	0.324611
	C148	C	0.678110	0.376695	0.886787
	C149	C	0.682820	0.616649	0.116420
	C150	C	0.328051	0.613497	0.887212
	C151	C	0.325451	0.376271	0.117327
	C152	C	0.888623	0.672536	0.382659
	C153	C	0.117154	0.677200	0.623443
	C154	C	0.888357	0.319375	0.621439
	C155	C	0.117646	0.320992	0.381936
	C156	C	0.888282	0.377920	0.678464
	C157	C	0.117623	0.619292	0.679667
	C158	C	0.889397	0.616950	0.324162
	C159	C	0.118315	0.379511	0.326378
	C160	C	0.383792	0.672398	0.888083
	C161	C	0.626186	0.674690	0.116531
	C162	C	0.620579	0.318536	0.887481
	C163	C	0.381573	0.317503	0.117140
	C164	C	0.677979	0.882387	0.383295
	C165	C	0.682272	0.111962	0.623374
	C166	C	0.323856	0.883928	0.622870
	C167	C	0.326104	0.112199	0.383379
	C168	C	0.882606	0.383526	0.180232
	C169	C	0.126810	0.611375	0.180557
	C170	C	0.122363	0.383835	0.823659
	C171	C	0.883628	0.611277	0.825172
	C172	C	0.178497	0.879079	0.388181
	C173	C	0.181964	0.120473	0.617006
	C174	C	0.826300	0.115377	0.387454
	C175	C	0.825367	0.876839	0.617276
	C176	C	0.388184	0.171604	0.882378
	C177	C	0.616185	0.175789	0.125456
	C178	C	0.389354	0.815871	0.122703
	C179	C	0.617995	0.819395	0.882181
	C180	C	0.388639	0.874335	0.179602
	C181	C	0.617145	0.116914	0.180624
	C182	C	0.388155	0.114214	0.825978
	C183	C	0.617920	0.876916	0.824655
	C184	C	0.882114	0.174172	0.387839
	C185	C	0.124730	0.177953	0.616505
	C186	C	0.121847	0.820544	0.388329
	C187	C	0.881988	0.818599	0.616863
	C188	C	0.179134	0.382628	0.882061
	C189	C	0.184124	0.611001	0.122374
	C190	C	0.824765	0.383343	0.122365
	C191	C	0.824991	0.610516	0.881216
	C192	C	0.405255	0.091896	0.602611
	C193	C	0.601563	0.903921	0.601797
	C194	C	0.602937	0.091235	0.404330
	C195	C	0.401653	0.903234	0.403276
	C196	C	0.601003	0.398962	0.096417
	C197	C	0.602155	0.595593	0.907613
	C198	C	0.406811	0.593666	0.096834
	C199	C	0.403298	0.394460	0.907749
	C200	C	0.098635	0.597627	0.404663
	C201	C	0.907925	0.596210	0.601589
	C202	C	0.097602	0.400379	0.601081
	C203	C	0.908546	0.398362	0.403431
	C204	C	0.906897	0.590408	0.099518
	C205	C	0.102213	0.403205	0.101683
	C206	C	0.104714	0.591969	0.903232
	C207	C	0.903589	0.402856	0.902181
	C208	C	0.100338	0.900055	0.597298
	C209	C	0.101847	0.097002	0.408354
	C210	C	0.906484	0.095545	0.596499
	C211	C	0.902844	0.896223	0.407537
	C212	C	0.597270	0.095353	0.906099
	C213	C	0.407728	0.093626	0.101053
	C214	C	0.598277	0.897790	0.102540
	C215	C	0.409081	0.896045	0.903725
	Zn216	Zn	0.502987	-0.002822	0.753468
	Zn217	Zn	0.502443	-0.003236	0.252383
	Zn218	Zn	0.753101	0.496686	0.001290
	Zn219	Zn	0.254426	0.495872	0.001780
	Zn220	Zn	0.002579	0.746755	0.502465
	Zn221	Zn	0.003008	0.247884	0.501571
	Zn222	Zn	0.003391	0.498826	0.752221
	Zn223	Zn	0.004228	0.498218	0.253032
	Zn224	Zn	0.503949	0.745879	0.002564
	Zn225	Zn	0.502504	0.245166	0.003068
	Zn226	Zn	0.753485	-0.002883	0.502057
	Zn227	Zn	0.252165	-0.001353	0.503423
	N228	N	0.418044	0.959959	0.680269
	N229	N	0.590160	0.034570	0.683056
	N230	N	0.587809	0.960222	0.324463
	N231	N	0.415939	0.033810	0.323053
	N232	N	0.680158	0.411048	0.964426
	N233	N	0.682695	0.582581	0.038736
	N234	N	0.328043	0.579076	0.964539
	N235	N	0.324555	0.409615	0.039387
	N236	N	0.966279	0.674283	0.417187
	N237	N	0.039153	0.677740	0.589945
	N238	N	0.966152	0.318474	0.588252
	N239	N	0.039557	0.318557	0.414805
	N240	N	0.965994	0.412636	0.679938
	N241	N	0.040015	0.584451	0.680568
	N242	N	0.967505	0.584617	0.323164
	N243	N	0.040816	0.413177	0.325294
	N244	N	0.417545	0.674080	0.966008
	N245	N	0.591458	0.676000	0.038925
	N246	N	0.587242	0.317720	0.965399
	N247	N	0.414830	0.315039	0.039401
	N248	N	0.680202	0.959788	0.417438
	N249	N	0.682996	0.034628	0.589195
	N250	N	0.322949	0.961717	0.590071
	N251	N	0.324241	0.034938	0.417418
	N252	N	0.918122	0.460546	0.180703
	N253	N	0.091706	0.534233	0.182008
	N254	N	0.089876	0.461662	0.822492
	N255	N	0.917893	0.534384	0.824137
	N256	N	0.179541	0.913536	0.465728
	N257	N	0.182500	0.085554	0.539578
	N258	N	0.826829	0.080993	0.464712
	N259	N	0.824275	0.910977	0.539681
	N260	N	0.465897	0.173540	0.916985
	N261	N	0.538384	0.176357	0.091387
	N262	N	0.467146	0.815869	0.089195
	N263	N	0.540399	0.817743	0.916449
	N264	N	0.466074	0.909909	0.180835
	N265	N	0.539713	0.081497	0.180248
	N266	N	0.465749	0.081038	0.825863
	N267	N	0.540303	0.910112	0.823536
	N268	N	0.916749	0.175702	0.465355
	N269	N	0.090003	0.177992	0.539085
	N270	N	0.088152	0.819073	0.466075
	N271	N	0.915332	0.816909	0.538973
	N272	N	0.181175	0.459534	0.916864
	N273	N	0.184061	0.533692	0.088224
	N274	N	0.825030	0.460043	0.087264
	N275	N	0.823538	0.533040	0.914556
	O276	O	1.019922	1.051600	0.022053
	H277	H	1.030620	1.056750	0.022647
	H278	H	1.008249	1.048335	0.027136
	O279	O	0.534220	0.583937	0.518791
	H280	H	0.531739	0.580212	0.518170
	H281	H	0.531308	0.597557	0.511025
	O282	O	1.116710	0.947344	0.071630
	H283	H	1.124488	0.954039	0.088487
	H284	H	1.109592	0.951291	0.078096
	O285	O	0.877203	-0.089684	0.884731
	H286	H	0.876366	-0.081901	0.874727
	H287	H	0.871787	-0.096254	0.886070
	O288	O	0.568262	0.439396	0.418586
	H289	H	0.573237	0.445485	0.427030
	H290	H	0.562146	0.446510	0.421655
	O291	O	0.438167	0.385870	0.483748
	H292	H	0.449267	0.388007	0.488118
	H293	H	0.434770	0.385139	0.476343
	O294	O	0.538589	0.500044	0.596995
	H295	H	0.534171	0.496297	0.597736
	H296	H	0.533805	0.496784	0.610046
	O297	O	-0.056854	-0.052357	0.867366
	H298	H	-0.039006	-0.046182	0.873666
	H299	H	-0.068896	-0.056252	0.857078
	O300	O	0.533607	0.545401	0.532300
	H301	H	0.542623	0.546058	0.541336
	H302	H	0.527442	0.539329	0.523848
	O303	O	1.050606	0.925939	0.007943
	H304	H	1.046442	0.920962	0.016633
	H305	H	1.060375	0.922469	0.002874
	O306	O	0.140667	1.093516	1.068457
	H307	H	0.148101	1.105568	1.071098
	H308	H	0.117277	1.086782	1.088400
	O309	O	0.006506	0.114267	0.955399
	H310	H	-0.004421	0.098700	0.953491
	H311	H	0.023856	0.116568	0.959035
	O312	O	-0.015919	-0.042398	0.112911
	H313	H	-0.017254	-0.048974	0.117817
	H314	H	-0.028833	-0.034026	0.106421
	O315	O	0.932561	0.059366	-0.091640
	H316	H	0.949921	0.065637	-0.081994
	H317	H	0.946671	0.063840	-0.101466
	O318	O	0.886021	0.894973	1.068758
	H319	H	0.888698	0.896975	1.058842
	H320	H	0.891801	0.906532	1.057908
	O321	O	0.051237	0.077795	0.930440
	H322	H	0.059966	0.073717	0.940406
	H323	H	0.067623	0.078205	0.929857
	O324	O	0.496933	0.503326	0.502397
	H325	H	0.499840	0.510009	0.509664
	H326	H	0.499118	0.508105	0.497818
	O327	O	-0.015693	-0.047389	-0.104741
	H328	H	-0.013740	-0.059999	-0.097837
	H329	H	-0.009041	-0.049707	-0.102313
	O330	O	0.538321	0.452179	0.541629
	H331	H	0.541556	0.456420	0.544711
	H332	H	0.533863	0.460496	0.552870
	O333	O	0.005121	1.033857	0.839276
	H334	H	0.021572	1.030591	0.833390
	H335	H	0.011335	1.029099	0.839650
	O336	O	0.056781	-0.006888	0.134849
	H337	H	0.041569	-0.009521	0.131756
	H338	H	0.042251	-0.004670	0.134281
	O339	O	0.488082	0.419121	0.422799
	H340	H	0.479414	0.410439	0.407566
	H341	H	0.490590	0.422553	0.428580
	O342	O	0.864983	0.909089	1.079662
	H343	H	0.865264	0.901519	1.070811
	H344	H	0.863030	0.926495	1.085827
	O345	O	0.866501	1.069703	0.014496
	H346	H	0.860633	1.080760	0.001689
	H347	H	0.875264	1.064490	0.014329
	O348	O	0.499613	0.551341	0.454629
	H349	H	0.503527	0.555639	0.451293
	H350	H	0.501000	0.543906	0.454607
	O351	O	0.062869	0.984521	0.150757
	H352	H	0.037503	0.995100	0.144959
	H353	H	0.061805	0.974343	0.163839
	O354	O	0.530433	0.567653	0.550505
	H355	H	0.524132	0.571267	0.553691
	H356	H	0.539096	0.563492	0.555420
	O357	O	0.936168	0.194892	0.941324
	H358	H	0.926470	0.186922	0.919577
	H359	H	0.927676	0.219748	0.933529
	O360	O	0.422424	0.539162	0.524601
	H361	H	0.426839	0.537465	0.523451
	H362	H	0.429973	0.542592	0.525321
	O363	O	0.494138	0.527945	0.507670
	H364	H	0.493708	0.524818	0.510720
	H365	H	0.488074	0.525128	0.514693
	O366	O	0.988066	0.886992	1.051363
	H367	H	0.998514	0.889432	1.053168
	H368	H	0.986098	0.880807	1.055394
	O369	O	1.110599	0.076495	1.044756
	H370	H	1.109602	0.080905	1.042922
	H371	H	1.110974	0.088431	1.046932
	O372	O	0.086876	-0.027512	-0.113278
	H373	H	0.097143	-0.022857	-0.106466
	H374	H	0.087980	-0.033301	-0.110065
	O375	O	1.028405	-0.083138	0.074214
	H376	H	1.016184	-0.082688	0.073087
	H377	H	1.033685	-0.065382	0.068216
	O378	O	0.520386	0.512622	0.466208
	H379	H	0.520084	0.517084	0.457243
	H380	H	0.529762	0.514536	0.468515
	O381	O	0.517659	0.576637	0.504877
	H382	H	0.520313	0.579834	0.507443
	H383	H	0.513530	0.581744	0.498146
