data_Molecule from HDF5

_cell_length_a		16.254795
_cell_length_b		16.163093
_cell_length_c		16.241879
_cell_angle_alpha	90.038353
_cell_angle_beta	90.261471
_cell_angle_gamma	89.676674
_symmetry_space_group_name_H-M	'P 1'
_symmetry_Int_Tables_number		1

loop_
	_symmetry_equiv_pos_as_xyz
	x,y,z

loop_
	_atom_site_label
	_atom_site_type_symbol
	_atom_site_fract_x
	_atom_site_fract_y
	_atom_site_fract_z
	H0	H	0.404269	0.830025	0.717073
	H1	H	0.600535	0.157798	0.720841
	H2	H	0.602191	0.830474	0.290451
	H3	H	0.397012	0.158221	0.286935
	H4	H	0.716407	0.394355	0.842362
	H5	H	0.714468	0.594557	0.168330
	H6	H	0.282667	0.595348	0.842205
	H7	H	0.286054	0.395231	0.169198
	H8	H	0.836538	0.712679	0.408597
	H9	H	0.165072	0.709079	0.604773
	H10	H	0.837510	0.282870	0.605090
	H11	H	0.163862	0.279845	0.407539
	H12	H	0.837024	0.397760	0.719660
	H13	H	0.163563	0.596040	0.723338
	H14	H	0.837284	0.599459	0.289724
	H15	H	0.163877	0.394371	0.290844
	H16	H	0.400754	0.708827	0.840831
	H17	H	0.600441	0.710846	0.167883
	H18	H	0.598241	0.280966	0.839988
	H19	H	0.400594	0.278819	0.167906
	H20	H	0.719507	0.832825	0.404832
	H21	H	0.713016	0.160163	0.605828
	H22	H	0.287254	0.831532	0.604211
	H23	H	0.283560	0.159483	0.404097
	H24	H	0.900683	0.333237	0.223714
	H25	H	0.100438	0.660393	0.221132
	H26	H	0.103095	0.333606	0.789292
	H27	H	0.898780	0.660454	0.792153
	H28	H	0.216774	0.892796	0.342331
	H29	H	0.219123	0.097895	0.667939
	H30	H	0.782125	0.101396	0.344152
	H31	H	0.787157	0.897176	0.669030
	H32	H	0.337481	0.210814	0.903244
	H33	H	0.663823	0.209223	0.103965
	H34	H	0.336426	0.781650	0.101287
	H35	H	0.663512	0.776807	0.904645
	H36	H	0.338271	0.892423	0.220550
	H37	H	0.663393	0.095362	0.222065
	H38	H	0.337595	0.093252	0.788615
	H39	H	0.665114	0.892922	0.790010
	H40	H	0.898708	0.215153	0.344045
	H41	H	0.102015	0.211635	0.669033
	H42	H	0.100629	0.779076	0.343187
	H43	H	0.904055	0.785330	0.670563
	H44	H	0.217950	0.333518	0.904241
	H45	H	0.215919	0.659530	0.107435
	H46	H	0.786422	0.331138	0.106252
	H47	H	0.782229	0.659508	0.905816
	H48	H	0.414053	0.110347	0.592978
	H49	H	0.597284	0.877289	0.595420
	H50	H	0.591072	0.114563	0.406108
	H51	H	0.405524	0.876096	0.410938
	H52	H	0.584531	0.405238	0.118500
	H53	H	0.594819	0.586706	0.886716
	H54	H	0.407830	0.579970	0.119719
	H55	H	0.402543	0.403316	0.886581
	H56	H	0.120384	0.600944	0.413937
	H57	H	0.882276	0.588738	0.605140
	H58	H	0.119686	0.403565	0.606515
	H59	H	0.889417	0.406091	0.427926
	H60	H	0.118141	0.399090	0.594573
	H61	H	0.880429	0.598165	0.600863
	H62	H	0.112142	0.582627	0.426016
	H63	H	0.886780	0.420494	0.408013
	H64	H	0.415030	0.592473	0.120667
	H65	H	0.591857	0.582618	0.888996
	H66	H	0.594912	0.393224	0.125307
	H67	H	0.408071	0.406708	0.890289
	H68	H	0.583732	0.109567	0.416229
	H69	H	0.597944	0.875724	0.598473
	H70	H	0.404548	0.113310	0.594687
	H71	H	0.413131	0.878762	0.409403
	H72	H	0.910379	0.612236	0.099242
	H73	H	0.086440	0.379711	0.102347
	H74	H	0.086360	0.613696	0.910247
	H75	H	0.898306	0.376004	0.915487
	H76	H	0.096086	0.906292	0.620805
	H77	H	0.091126	0.084891	0.390656
	H78	H	0.912158	0.101938	0.625327
	H79	H	0.902448	0.905603	0.387108
	H80	H	0.620855	0.087467	0.901450
	H81	H	0.385557	0.082278	0.094043
	H82	H	0.615426	0.906016	0.094054
	H83	H	0.387112	0.907021	0.918147
	H84	H	0.618065	0.904048	0.101818
	H85	H	0.381901	0.086834	0.097950
	H86	H	0.619341	0.095231	0.918098
	H87	H	0.383165	0.907658	0.899072
	H88	H	0.895253	0.086326	0.626519
	H89	H	0.089374	0.089179	0.389350
	H90	H	0.093648	0.902466	0.623591
	H91	H	0.912084	0.913494	0.392188
	H92	H	0.088689	0.610593	0.921673
	H93	H	0.093039	0.380964	0.090360
	H94	H	0.905771	0.611736	0.093944
	H95	H	0.911714	0.375835	0.902314
	H96	H	0.410379	0.113792	0.600882
	H97	H	0.594612	0.877091	0.597939
	H98	H	0.596741	0.112458	0.418174
	H99	H	0.408722	0.879142	0.416470
	H100	H	0.600650	0.408754	0.121596
	H101	H	0.589114	0.587284	0.888022
	H102	H	0.401101	0.591916	0.125907
	H103	H	0.409220	0.400339	0.888456
	H104	H	0.117284	0.579818	0.403317
	H105	H	0.885900	0.589896	0.594395
	H106	H	0.115189	0.411356	0.597644
	H107	H	0.879593	0.397140	0.407627
	H108	H	0.903942	0.615097	0.099279
	H109	H	0.099655	0.375263	0.102346
	H110	H	0.097657	0.615680	0.914208
	H111	H	0.915129	0.382952	0.919286
	H112	H	0.097854	0.902940	0.624433
	H113	H	0.093079	0.087706	0.388117
	H114	H	0.915991	0.080806	0.617835
	H115	H	0.914387	0.899967	0.388692
	H116	H	0.614512	0.078220	0.916155
	H117	H	0.385273	0.089010	0.092658
	H118	H	0.617703	0.898245	0.095613
	H119	H	0.380713	0.891274	0.909237
	C120	C	0.381081	0.003827	0.625051
	C121	C	0.624255	0.985349	0.627322
	C122	C	0.621641	0.003763	0.384088
	C123	C	0.378583	0.986276	0.382507
	C124	C	0.622350	0.372817	0.013815
	C125	C	0.621294	0.615487	0.996079
	C126	C	0.378201	0.616850	0.013774
	C127	C	0.378402	0.373721	0.996371
	C128	C	0.009178	0.618920	0.384571
	C129	C	0.991403	0.619560	0.629160
	C130	C	0.009617	0.375389	0.628168
	C131	C	0.992573	0.376170	0.384995
	C132	C	0.878613	0.504504	0.127001
	C133	C	0.122387	0.486805	0.128064
	C134	C	0.121006	0.505535	0.885364
	C135	C	0.878199	0.487325	0.884164
	C136	C	0.124049	0.873766	0.514902
	C137	C	0.121470	0.116927	0.497242
	C138	C	0.878069	0.119875	0.515281
	C139	C	0.880693	0.877140	0.497544
	C140	C	0.509782	0.116402	0.881861
	C141	C	0.491973	0.115767	0.125477
	C142	C	0.509399	0.873065	0.125792
	C143	C	0.492423	0.872417	0.881582
	C144	C	0.383904	0.879394	0.679607
	C145	C	0.621153	0.108998	0.683174
	C146	C	0.621769	0.880137	0.328346
	C147	C	0.378260	0.109591	0.325765
	C148	C	0.678026	0.374300	0.890771
	C149	C	0.676898	0.614399	0.119382
	C150	C	0.321230	0.615172	0.890948
	C151	C	0.323754	0.375055	0.120098
	C152	C	0.885646	0.675246	0.387255
	C153	C	0.115383	0.672827	0.626357
	C154	C	0.886414	0.320481	0.625426
	C155	C	0.115162	0.318279	0.386803
	C156	C	0.886346	0.377701	0.682661
	C157	C	0.114783	0.616463	0.685039
	C158	C	0.886248	0.619043	0.328096
	C159	C	0.114910	0.375298	0.328613
	C160	C	0.380089	0.671397	0.890146
	C161	C	0.619866	0.671887	0.119247
	C162	C	0.619224	0.318071	0.889862
	C163	C	0.380845	0.317300	0.119299
	C164	C	0.680468	0.881422	0.384889
	C165	C	0.676987	0.110084	0.625793
	C166	C	0.325691	0.880188	0.623502
	C167	C	0.321708	0.110170	0.383799
	C168	C	0.880745	0.381641	0.184507
	C169	C	0.120786	0.610792	0.183700
	C170	C	0.121474	0.382432	0.828086
	C171	C	0.879220	0.611289	0.829827
	C172	C	0.179320	0.873701	0.391713
	C173	C	0.179684	0.116915	0.619385
	C174	C	0.820650	0.120432	0.392958
	C175	C	0.825349	0.878368	0.620464
	C176	C	0.386395	0.172562	0.883248
	C177	C	0.614670	0.171749	0.124695
	C178	C	0.386008	0.818341	0.122440
	C179	C	0.615168	0.815497	0.884288
	C180	C	0.386670	0.873575	0.181479
	C181	C	0.614353	0.115010	0.183480
	C182	C	0.386754	0.114228	0.825969
	C183	C	0.615958	0.873394	0.827477
	C184	C	0.878732	0.176894	0.392712
	C185	C	0.121370	0.173630	0.620115
	C186	C	0.121207	0.817061	0.391964
	C187	C	0.883318	0.822173	0.621108
	C188	C	0.178621	0.382074	0.885196
	C189	C	0.178043	0.610555	0.126936
	C190	C	0.823949	0.380620	0.126170
	C191	C	0.821124	0.610635	0.886259
	C192	C	0.403159	0.090020	0.602708
	C193	C	0.602837	0.898964	0.604097
	C194	C	0.597453	0.089997	0.406844
	C195	C	0.402149	0.900295	0.405447
	C196	C	0.600014	0.395633	0.099389
	C197	C	0.598620	0.592414	0.910215
	C198	C	0.401067	0.594639	0.099872
	C199	C	0.400235	0.396559	0.910583
	C200	C	0.094393	0.594816	0.407668
	C201	C	0.905284	0.598463	0.606761
	C202	C	0.095538	0.397830	0.606040
	C203	C	0.907408	0.400612	0.407988
	C204	C	0.900305	0.590648	0.104175
	C205	C	0.099648	0.400930	0.104880
	C206	C	0.097727	0.591180	0.908550
	C207	C	0.901554	0.400671	0.905980
	C208	C	0.102340	0.897169	0.600724
	C209	C	0.098020	0.094036	0.411602
	C210	C	0.901307	0.096582	0.600953
	C211	C	0.903029	0.899597	0.411580
	C212	C	0.595900	0.093758	0.905126
	C213	C	0.406457	0.092665	0.101797
	C214	C	0.594912	0.896024	0.103674
	C215	C	0.406003	0.895369	0.902675
	Zn216	Zn	0.502288	-0.005990	0.753242
	Zn217	Zn	0.500261	-0.006143	0.254482
	Zn218	Zn	0.750462	0.495112	0.005064
	Zn219	Zn	0.249426	0.495610	0.006784
	Zn220	Zn	0.000793	0.747708	0.506546
	Zn221	Zn	0.000528	0.246937	0.506592
	Zn222	Zn	0.000011	0.496731	0.756646
	Zn223	Zn	0.000911	0.497124	0.255310
	Zn224	Zn	0.500662	0.745052	0.004356
	Zn225	Zn	0.500410	0.244890	0.003865
	Zn226	Zn	0.750878	-0.002862	0.505970
	Zn227	Zn	0.251468	-0.004124	0.504759
	N228	N	0.417591	0.957308	0.680695
	N229	N	0.589121	0.030468	0.684288
	N230	N	0.585820	0.957351	0.327683
	N231	N	0.412677	0.031503	0.324673
	N232	N	0.680404	0.407178	0.968822
	N233	N	0.677779	0.579988	0.041870
	N234	N	0.320095	0.581775	0.968954
	N235	N	0.321973	0.409527	0.042692
	N236	N	0.963121	0.675435	0.421566
	N237	N	0.037600	0.675006	0.592454
	N238	N	0.964106	0.318857	0.592299
	N239	N	0.038045	0.318621	0.421093
	N240	N	0.964075	0.410993	0.684596
	N241	N	0.036749	0.584138	0.686945
	N242	N	0.963843	0.584759	0.326207
	N243	N	0.037807	0.410824	0.327553
	N244	N	0.414645	0.672608	0.967335
	N245	N	0.585892	0.672656	0.041545
	N246	N	0.585255	0.317000	0.967295
	N247	N	0.414010	0.316204	0.041472
	N248	N	0.680576	0.959549	0.418673
	N249	N	0.678969	0.032091	0.591766
	N250	N	0.323574	0.958465	0.590443
	N251	N	0.321768	0.032452	0.418342
	N252	N	0.913970	0.459607	0.185189
	N253	N	0.086817	0.533067	0.184410
	N254	N	0.086185	0.459986	0.828171
	N255	N	0.913866	0.533598	0.828389
	N256	N	0.181176	0.908359	0.469122
	N257	N	0.179921	0.082322	0.542006
	N258	N	0.820069	0.085858	0.470166
	N259	N	0.823606	0.912087	0.542646
	N260	N	0.464064	0.173808	0.917413
	N261	N	0.537584	0.172454	0.089543
	N262	N	0.463316	0.817885	0.088383
	N263	N	0.537388	0.814824	0.917060
	N264	N	0.464362	0.906843	0.183920
	N265	N	0.536798	0.080964	0.184169
	N266	N	0.464470	0.080163	0.825092
	N267	N	0.538425	0.908130	0.825778
	N268	N	0.913961	0.176620	0.469811
	N269	N	0.085790	0.173898	0.543127
	N270	N	0.087756	0.816837	0.469611
	N271	N	0.917286	0.821503	0.543744
	N272	N	0.178541	0.459462	0.920181
	N273	N	0.179274	0.532466	0.093112
	N274	N	0.822446	0.458056	0.091164
	N275	N	0.820593	0.532201	0.919359
	O276	O	0.883671	1.028919	-0.104927
	H277	H	0.888212	1.026465	-0.122257
	H278	H	0.876671	1.031130	-0.103452
	O279	O	0.541358	0.496432	0.559478
	H280	H	0.539289	0.499141	0.557741
	H281	H	0.537144	0.485283	0.561431
	O282	O	0.966675	0.892401	0.025095
	H283	H	0.969282	0.891229	0.026574
	H284	H	0.964138	0.893782	0.034052
	O285	O	1.172458	-0.085158	0.986203
	H286	H	1.168901	-0.072575	0.988303
	H287	H	1.183750	-0.082011	0.996590
	O288	O	0.471745	0.482865	0.521351
	H289	H	0.472405	0.484593	0.516760
	H290	H	0.473559	0.474333	0.526852
	O291	O	0.586871	0.425048	0.481729
	H292	H	0.585170	0.436577	0.470617
	H293	H	0.589071	0.419539	0.472229
	O294	O	0.463126	0.522995	0.578347
	H295	H	0.464135	0.526116	0.577271
	H296	H	0.462791	0.531727	0.576153
	O297	O	-0.008696	0.030861	1.123648
	H298	H	-0.014567	0.029617	1.127990
	H299	H	-0.011953	0.033792	1.120606
	O300	O	0.406919	0.456008	0.561124
	H301	H	0.413782	0.448101	0.563082
	H302	H	0.405663	0.450942	0.556362
	O303	O	0.893955	0.899755	-0.068803
	H304	H	0.905307	0.897671	-0.083774
	H305	H	0.898496	0.893526	-0.080250
	O306	O	0.111896	1.072079	1.117476
	H307	H	0.115590	1.081201	1.127474
	H308	H	0.118330	1.082395	1.128500
	O309	O	0.421019	0.489141	0.479693
	H310	H	0.427281	0.477424	0.480136
	H311	H	0.429198	0.489742	0.477074
	O312	O	0.061661	0.062628	-0.030958
	H313	H	0.056720	0.073630	-0.029830
	H314	H	0.040241	0.062304	-0.026717
	O315	O	0.965975	0.077449	-0.097816
	H316	H	0.958517	0.060677	-0.087063
	H317	H	0.958657	0.075171	-0.089008
	O318	O	1.126365	0.960408	0.873881
	H319	H	1.123277	0.963784	0.861343
	H320	H	1.115206	0.969316	0.879964
	O321	O	0.043818	-0.009210	0.908148
	H322	H	0.044390	-0.003077	0.910869
	H323	H	0.041423	-0.010298	0.884555
	O324	O	0.469836	0.520444	0.436859
	H325	H	0.465765	0.517636	0.441093
	H326	H	0.472273	0.534479	0.438817
	O327	O	0.082947	0.009918	0.152124
	H328	H	0.098646	0.015072	0.148564
	H329	H	0.083770	0.010291	0.144718
	O330	O	0.440336	0.561613	0.486937
	H331	H	0.426029	0.562191	0.495373
	H332	H	0.438345	0.567851	0.482919
	O333	O	0.020021	1.177703	1.008159
	H334	H	0.011317	1.192551	0.994398
	H335	H	0.005569	1.181005	1.015038
	O336	O	0.082615	0.166281	0.078608
	H337	H	0.074483	0.170793	0.067461
	H338	H	0.091544	0.160324	0.077397
	O339	O	0.543930	0.422845	0.389953
	H340	H	0.549358	0.428464	0.377397
	H341	H	0.552253	0.421749	0.388546
	O342	O	0.938045	0.926340	1.122336
	H343	H	0.940633	0.914124	1.108630
	H344	H	0.939215	0.922594	1.123492
	O345	O	0.856440	0.943981	0.110319
	H346	H	0.858656	0.946056	0.101490
	H347	H	0.864383	0.934109	0.115992
	O348	O	0.474149	0.495391	0.529293
	H349	H	0.466410	0.496941	0.528144
	H350	H	0.474328	0.497519	0.515755
	O351	O	0.056321	1.001568	0.106136
	H352	H	0.053638	1.017705	0.107724
	H353	H	0.066789	0.999667	0.115289
	O354	O	0.608895	0.446374	0.379405
	H355	H	0.605931	0.451540	0.378980
	H356	H	0.617711	0.451319	0.385471
	O357	O	1.003649	0.079017	0.922965
	H358	H	1.004704	0.082537	0.930864
	H359	H	1.004547	0.078752	0.928700
	O360	O	0.493361	0.445598	0.539850
	H361	H	0.490674	0.430972	0.546664
	H362	H	0.484400	0.438568	0.530640
	O363	O	0.460150	0.460315	0.490080
	H364	H	0.473443	0.460497	0.494001
	H365	H	0.457292	0.457452	0.480604
	O366	O	0.960806	0.879786	0.863346
	H367	H	0.969942	0.887095	0.871101
	H368	H	0.970927	0.871807	0.853097
	O369	O	0.825562	-0.026026	1.114607
	H370	H	0.821486	-0.038602	1.110217
	H371	H	0.824610	-0.041966	1.120545
	O372	O	0.040232	0.001023	-0.094235
	H373	H	0.052391	0.007689	-0.102192
	H374	H	0.036884	0.003799	-0.105538
	O375	O	0.985496	-0.095761	0.117695
	H376	H	0.995386	-0.099577	0.118211
	H377	H	0.979286	-0.090117	0.124889
	O378	O	0.530901	0.498179	0.495283
	H379	H	0.529491	0.499663	0.502248
	H380	H	0.524557	0.511163	0.490672
	O381	O	0.515929	0.543415	0.442185
	H382	H	0.522338	0.548420	0.440548
	H383	H	0.514191	0.550377	0.441340
