data_Molecule from HDF5

_cell_length_a		16.437905
_cell_length_b		16.578312
_cell_length_c		16.434019
_cell_angle_alpha	89.998718
_cell_angle_beta	89.906906
_cell_angle_gamma	90.151548
_symmetry_space_group_name_H-M	'P 1'
_symmetry_Int_Tables_number		1

loop_
	_symmetry_equiv_pos_as_xyz
	x,y,z

loop_
	_atom_site_label
	_atom_site_type_symbol
	_atom_site_fract_x
	_atom_site_fract_y
	_atom_site_fract_z
	H0	H	0.395507	0.832575	0.716892
	H1	H	0.601878	0.148154	0.717261
	H2	H	0.603825	0.833430	0.275922
	H3	H	0.388210	0.144893	0.268897
	H4	H	0.721049	0.384984	0.840209
	H5	H	0.717973	0.592071	0.156354
	H6	H	0.276651	0.596604	0.841461
	H7	H	0.276629	0.381824	0.156366
	H8	H	0.843673	0.711875	0.390254
	H9	H	0.155804	0.716937	0.607300
	H10	H	0.843748	0.270006	0.600119
	H11	H	0.157387	0.265301	0.383475
	H12	H	0.843762	0.386180	0.716847
	H13	H	0.157570	0.598257	0.721482
	H14	H	0.841648	0.592554	0.278802
	H15	H	0.158307	0.385307	0.272363
	H16	H	0.391447	0.714049	0.842150
	H17	H	0.606583	0.711762	0.154857
	H18	H	0.604745	0.268057	0.840455
	H19	H	0.389980	0.264611	0.154539
	H20	H	0.720818	0.833279	0.392273
	H21	H	0.720285	0.147356	0.601894
	H22	H	0.277296	0.833811	0.600805
	H23	H	0.273348	0.146345	0.386125
	H24	H	0.896283	0.333641	0.217403
	H25	H	0.108939	0.646259	0.220941
	H26	H	0.109399	0.333870	0.772809
	H27	H	0.897355	0.646665	0.775794
	H28	H	0.223433	0.883814	0.340100
	H29	H	0.220927	0.096110	0.655385
	H30	H	0.781352	0.091524	0.338447
	H31	H	0.783051	0.889472	0.656738
	H32	H	0.341235	0.214680	0.887269
	H33	H	0.654219	0.213524	0.103604
	H34	H	0.343065	0.763460	0.106549
	H35	H	0.656898	0.769712	0.891900
	H36	H	0.342402	0.880352	0.222642
	H37	H	0.655405	0.094805	0.217782
	H38	H	0.340633	0.097090	0.773776
	H39	H	0.657251	0.887981	0.777790
	H40	H	0.896465	0.209935	0.338212
	H41	H	0.108185	0.214985	0.652933
	H42	H	0.111004	0.765231	0.341569
	H43	H	0.895783	0.769232	0.654619
	H44	H	0.225490	0.333650	0.888785
	H45	H	0.227616	0.644140	0.107780
	H46	H	0.780142	0.333530	0.100617
	H47	H	0.780955	0.647595	0.892419
	H48	H	0.408820	0.103440	0.588189
	H49	H	0.585700	0.878182	0.589227
	H50	H	0.589035	0.102345	0.408450
	H51	H	0.410069	0.878649	0.405495
	H52	H	0.590280	0.399772	0.112409
	H53	H	0.597271	0.581319	0.881164
	H54	H	0.415541	0.571471	0.108116
	H55	H	0.407403	0.400372	0.883717
	H56	H	0.113857	0.581061	0.411283
	H57	H	0.888760	0.581002	0.583175
	H58	H	0.113556	0.408890	0.585055
	H59	H	0.891622	0.403127	0.412664
	H60	H	0.117755	0.398551	0.588118
	H61	H	0.890702	0.576046	0.583182
	H62	H	0.112261	0.576694	0.410802
	H63	H	0.887290	0.403135	0.402624
	H64	H	0.417862	0.580489	0.109578
	H65	H	0.586655	0.573784	0.885670
	H66	H	0.587683	0.403209	0.109426
	H67	H	0.413742	0.408681	0.888619
	H68	H	0.588887	0.102001	0.408948
	H69	H	0.593468	0.878076	0.583802
	H70	H	0.413289	0.102242	0.587223
	H71	H	0.418952	0.883986	0.411867
	H72	H	0.911240	0.603184	0.085745
	H73	H	0.086505	0.381064	0.079819
	H74	H	0.086933	0.597560	0.914391
	H75	H	0.914546	0.382376	0.919391
	H76	H	0.084165	0.906889	0.606596
	H77	H	0.093986	0.081201	0.380336
	H78	H	0.911649	0.081317	0.610773
	H79	H	0.912308	0.899234	0.383732
	H80	H	0.611310	0.081291	0.906815
	H81	H	0.388158	0.071603	0.080987
	H82	H	0.610185	0.902008	0.082699
	H83	H	0.387083	0.899840	0.915809
	H84	H	0.612254	0.902869	0.089290
	H85	H	0.384107	0.075473	0.086364
	H86	H	0.610024	0.080978	0.911271
	H87	H	0.386941	0.906070	0.908572
	H88	H	0.911824	0.082204	0.611027
	H89	H	0.086868	0.069068	0.388079
	H90	H	0.084002	0.900750	0.608907
	H91	H	0.910506	0.898515	0.381532
	H92	H	0.091665	0.601713	0.910734
	H93	H	0.089719	0.377554	0.085819
	H94	H	0.906590	0.604536	0.086598
	H95	H	0.896131	0.372633	0.906253
	H96	H	0.410228	0.102205	0.583377
	H97	H	0.593550	0.874452	0.592480
	H98	H	0.589594	0.101839	0.408718
	H99	H	0.408274	0.881695	0.417297
	H100	H	0.585772	0.398494	0.110657
	H101	H	0.584865	0.587647	0.882797
	H102	H	0.409296	0.577055	0.112152
	H103	H	0.417984	0.398512	0.887200
	H104	H	0.114657	0.578418	0.407030
	H105	H	0.887913	0.577996	0.587118
	H106	H	0.112510	0.400304	0.577344
	H107	H	0.886905	0.394488	0.408651
	H108	H	0.909795	0.604914	0.090314
	H109	H	0.082352	0.380144	0.086230
	H110	H	0.085058	0.600069	0.907485
	H111	H	0.918346	0.376353	0.895860
	H112	H	0.089593	0.904604	0.609465
	H113	H	0.079021	0.082664	0.385902
	H114	H	0.910702	0.082289	0.611312
	H115	H	0.910133	0.900626	0.383670
	H116	H	0.609416	0.077462	0.908456
	H117	H	0.386443	0.078780	0.079331
	H118	H	0.612934	0.897230	0.086454
	H119	H	0.383647	0.897176	0.907096
	C120	C	0.378056	-0.001289	0.618490
	C121	C	0.621776	0.981184	0.619984
	C122	C	0.621285	-0.001326	0.376275
	C123	C	0.377261	0.983017	0.375269
	C124	C	0.620040	0.368771	0.006173
	C125	C	0.621512	0.612009	0.988141
	C126	C	0.379353	0.610544	0.006817
	C127	C	0.378308	0.368336	0.989959
	C128	C	0.009431	0.611211	0.376580
	C129	C	0.992359	0.612032	0.618950
	C130	C	0.010462	0.369730	0.616503
	C131	C	0.992718	0.368383	0.374290
	C132	C	0.878282	0.499767	0.118749
	C133	C	0.121092	0.481937	0.118514
	C134	C	0.122353	0.497566	0.876089
	C135	C	0.878462	0.481122	0.875252
	C136	C	0.120765	0.869822	0.505377
	C137	C	0.121223	0.111995	0.488035
	C138	C	0.879361	0.112170	0.505962
	C139	C	0.879667	0.868725	0.488330
	C140	C	0.506415	0.112574	0.875365
	C141	C	0.489866	0.109221	0.116287
	C142	C	0.507902	0.867318	0.119605
	C143	C	0.490394	0.869191	0.877217
	C144	C	0.376031	0.880051	0.677758
	C145	C	0.621695	0.100362	0.678116
	C146	C	0.622532	0.880594	0.315991
	C147	C	0.371614	0.098589	0.310546
	C148	C	0.680667	0.366693	0.887443
	C149	C	0.679693	0.612048	0.108340
	C150	C	0.317211	0.614566	0.888711
	C151	C	0.316944	0.364503	0.108706
	C152	C	0.891111	0.671679	0.373166
	C153	C	0.109625	0.674817	0.623863
	C154	C	0.891190	0.309824	0.618724
	C155	C	0.110576	0.306759	0.368319
	C156	C	0.891207	0.367479	0.676742
	C157	C	0.110369	0.616047	0.680788
	C158	C	0.889932	0.612287	0.317466
	C159	C	0.110962	0.366466	0.312399
	C160	C	0.374422	0.672877	0.889056
	C161	C	0.624092	0.671488	0.107475
	C162	C	0.622982	0.308394	0.887591
	C163	C	0.373193	0.305861	0.107814
	C164	C	0.680942	0.880394	0.373798
	C165	C	0.680570	0.100100	0.620583
	C166	C	0.317734	0.880562	0.619738
	C167	C	0.314547	0.099468	0.369438
	C168	C	0.877324	0.380979	0.177722
	C169	C	0.126046	0.599123	0.180514
	C170	C	0.126790	0.380739	0.813576
	C171	C	0.877932	0.599367	0.815549
	C172	C	0.182896	0.866195	0.387369
	C173	C	0.181633	0.114815	0.607413
	C174	C	0.820427	0.111565	0.386115
	C175	C	0.821489	0.869018	0.608505
	C176	C	0.388381	0.174142	0.870420
	C177	C	0.607723	0.171734	0.120802
	C178	C	0.389910	0.804627	0.124230
	C179	C	0.609236	0.809656	0.874094
	C180	C	0.389566	0.862847	0.181904
	C181	C	0.608344	0.112706	0.177284
	C182	C	0.387980	0.115078	0.814088
	C183	C	0.609558	0.868434	0.817230
	C184	C	0.877705	0.170182	0.385907
	C185	C	0.125818	0.174154	0.606099
	C186	C	0.126672	0.807282	0.388024
	C187	C	0.877455	0.809447	0.607506
	C188	C	0.184623	0.380631	0.871666
	C189	C	0.185302	0.598057	0.124108
	C190	C	0.819685	0.380768	0.119452
	C191	C	0.819864	0.599822	0.873702
	C192	C	0.403614	0.081209	0.593364
	C193	C	0.597745	0.898497	0.595666
	C194	C	0.596316	0.080673	0.401568
	C195	C	0.404654	0.902368	0.403448
	C196	C	0.594884	0.393379	0.089164
	C197	C	0.596778	0.587812	0.905006
	C198	C	0.406405	0.583901	0.088638
	C199	C	0.405439	0.395027	0.907913
	C200	C	0.092217	0.586049	0.402286
	C201	C	0.910501	0.585717	0.592225
	C202	C	0.093090	0.395289	0.590740
	C203	C	0.910091	0.393146	0.400680
	C204	C	0.902428	0.582580	0.094551
	C205	C	0.093958	0.400816	0.091558
	C206	C	0.095663	0.578805	0.903079
	C207	C	0.902774	0.398581	0.899863
	C208	C	0.093575	0.896344	0.587048
	C209	C	0.094287	0.085313	0.406118
	C210	C	0.904265	0.088779	0.589315
	C211	C	0.903959	0.892472	0.404615
	C212	C	0.588802	0.087191	0.901613
	C213	C	0.407840	0.082960	0.089677
	C214	C	0.590157	0.893259	0.093544
	C215	C	0.407516	0.893937	0.903179
	Zn216	Zn	0.498372	-0.009869	0.748453
	Zn217	Zn	0.498891	-0.009572	0.247106
	Zn218	Zn	0.749386	0.490754	-0.002590
	Zn219	Zn	0.250663	0.488935	-0.001504
	Zn220	Zn	0.000923	0.740323	0.496926
	Zn221	Zn	0.001467	0.240661	0.495498
	Zn222	Zn	0.001800	0.489756	0.746477
	Zn223	Zn	0.000261	0.490952	0.247386
	Zn224	Zn	0.500015	0.739547	-0.002045
	Zn225	Zn	0.497765	0.239978	-0.002672
	Zn226	Zn	0.750983	-0.009953	0.497710
	Zn227	Zn	0.248938	-0.008895	0.496997
	N228	N	0.412631	0.954762	0.677085
	N229	N	0.586027	0.025477	0.678028
	N230	N	0.585974	0.955018	0.317363
	N231	N	0.409607	0.024854	0.313866
	N232	N	0.679040	0.403533	0.962212
	N233	N	0.678509	0.576059	0.033082
	N234	N	0.319972	0.576724	0.962933
	N235	N	0.319768	0.402360	0.034271
	N236	N	0.966733	0.671387	0.409082
	N237	N	0.035114	0.672558	0.586062
	N238	N	0.966337	0.311023	0.582005
	N239	N	0.035940	0.308064	0.406367
	N240	N	0.966365	0.403963	0.675517
	N241	N	0.036443	0.577828	0.677790
	N242	N	0.964591	0.575593	0.319245
	N243	N	0.036772	0.404074	0.316153
	N244	N	0.412160	0.670647	0.963645
	N245	N	0.588761	0.671788	0.031699
	N246	N	0.585936	0.309662	0.962469
	N247	N	0.410421	0.307931	0.032905
	N248	N	0.680280	0.954723	0.410615
	N249	N	0.680974	0.024961	0.585280
	N250	N	0.318520	0.955609	0.584324
	N251	N	0.317991	0.026623	0.408988
	N252	N	0.913043	0.456026	0.177383
	N253	N	0.086641	0.525967	0.177003
	N254	N	0.089038	0.454482	0.816185
	N255	N	0.913381	0.524456	0.816200
	N256	N	0.179354	0.904442	0.461388
	N257	N	0.179015	0.076983	0.532919
	N258	N	0.820996	0.076530	0.461879
	N259	N	0.822740	0.905167	0.533271
	N260	N	0.463173	0.172766	0.907835
	N261	N	0.533015	0.169786	0.083626
	N262	N	0.464532	0.807149	0.086464
	N263	N	0.533909	0.809763	0.910443
	N264	N	0.463739	0.901097	0.179222
	N265	N	0.534226	0.074541	0.174464
	N266	N	0.462267	0.077518	0.817003
	N267	N	0.534518	0.904619	0.819033
	N268	N	0.913358	0.170893	0.461459
	N269	N	0.089487	0.172789	0.530962
	N270	N	0.088579	0.809458	0.462352
	N271	N	0.912327	0.808873	0.531478
	N272	N	0.182078	0.454443	0.909969
	N273	N	0.182246	0.524301	0.086169
	N274	N	0.819867	0.455664	0.083772
	N275	N	0.819705	0.525049	0.909769
	O276	O	0.455797	0.260913	0.427456
	H277	H	0.450968	0.262354	0.424312
	H278	H	0.432358	0.254163	0.423437
	O279	O	1.052564	0.772088	1.044295
	H280	H	1.032191	0.776892	1.062146
	H281	H	1.031842	0.777185	1.044118
	O282	O	0.814610	1.170951	0.178814
	H283	H	0.828444	1.171131	0.167289
	H284	H	0.832614	1.154826	0.164269
	O285	O	0.303353	0.294481	0.690585
	H286	H	0.295237	0.303693	0.668666
	H287	H	0.341542	0.286251	0.699975
	O288	O	-0.173271	-0.062280	0.104874
	H289	H	-0.170610	-0.035508	0.111228
	H290	H	-0.164144	-0.060528	0.091043
	O291	O	0.800642	1.184496	-0.081354
	H292	H	0.781965	1.182512	-0.100653
	H293	H	0.812060	1.191989	-0.102675
	O294	O	-0.212790	1.019355	-0.209051
	H295	H	-0.217332	1.033831	-0.200152
	H296	H	-0.234058	1.028794	-0.228670
	O297	O	0.599638	0.590462	0.358817
	H298	H	0.620699	0.593747	0.355198
	H299	H	0.587500	0.597179	0.346653
	O300	O	0.279869	0.267317	0.518804
	H301	H	0.266657	0.269458	0.528895
	H302	H	0.253880	0.264252	0.509620
	O303	O	0.336853	0.637783	0.675725
	H304	H	0.328269	0.622667	0.653936
	H305	H	0.351219	0.624179	0.679460
	O306	O	-0.039180	0.777114	0.913357
	H307	H	-0.040685	0.768292	0.905424
	H308	H	-0.056274	0.785200	0.936942
	O309	O	0.722810	0.713600	0.527016
	H310	H	0.737773	0.722831	0.546029
	H311	H	0.741030	0.718554	0.543530
	O312	O	0.478942	0.698599	0.281161
	H313	H	0.445211	0.702076	0.289262
	H314	H	0.482932	0.719172	0.264603
	O315	O	0.313739	-0.320246	1.317155
	H316	H	0.309717	-0.321381	1.354941
	H317	H	0.323591	-0.351552	1.315234
	O318	O	-0.175326	0.821282	-0.167516
	H319	H	-0.172376	0.829769	-0.156155
	H320	H	-0.157841	0.834071	-0.163219
	O321	O	0.345300	0.478341	0.714799
	H322	H	0.324518	0.481388	0.731645
	H323	H	0.362730	0.442782	0.698835
	O324	O	0.717399	0.268322	0.468292
	H325	H	0.733316	0.255072	0.447829
	H326	H	0.727898	0.260798	0.440066
	O327	O	0.965387	0.064410	1.013861
	H328	H	0.974433	0.062940	0.988750
	H329	H	0.956592	0.073560	1.023615
	O330	O	1.211959	-0.105778	0.091860
	H331	H	1.205589	-0.106078	0.076384
	H332	H	1.216932	-0.114423	0.072138
	O333	O	1.061572	1.052080	0.820807
	H334	H	1.094285	1.042150	0.819180
	H335	H	1.050141	1.033055	0.804385
	O336	O	1.193452	-0.199585	0.803582
	H337	H	1.201458	-0.207249	0.855423
	H338	H	1.174879	-0.213011	0.790949
	O339	O	0.552001	0.289468	0.547741
	H340	H	0.571815	0.288892	0.535243
	H341	H	0.538600	0.278637	0.541871
	O342	O	0.695608	0.686039	0.692011
	H343	H	0.711564	0.685981	0.698826
	H344	H	0.641957	0.693275	0.701419
	O345	O	0.218093	-0.203095	-0.016953
	H346	H	0.207350	-0.218717	0.000305
	H347	H	0.224528	-0.226996	-0.009478
	O348	O	0.837998	0.199480	0.791703
	H349	H	0.816798	0.232245	0.759977
	H350	H	0.886520	0.206769	0.793274
	O351	O	1.032901	0.836131	-0.204274
	H352	H	1.038613	0.826253	-0.190700
	H353	H	1.022384	0.842822	-0.211889
	O354	O	0.511416	0.587482	0.464041
	H355	H	0.519408	0.569940	0.470064
	H356	H	0.526425	0.599229	0.472897
	O357	O	1.003608	1.198681	1.009552
	H358	H	1.004743	1.183772	1.006814
	H359	H	0.991157	1.200863	1.005856
	O360	O	0.222944	0.963978	0.777987
	H361	H	0.222362	0.940484	0.764564
	H362	H	0.237447	0.938940	0.760693
	O363	O	0.488818	0.294811	0.308770
	H364	H	0.500284	0.286323	0.298961
	H365	H	0.506135	0.303341	0.312503
	O366	O	1.021936	-0.012874	0.983569
	H367	H	1.022337	-0.002842	0.985856
	H368	H	1.036893	-0.000491	0.975682
	O369	O	0.590485	0.445833	0.687311
	H370	H	0.601445	0.453612	0.662890
	H371	H	0.605233	0.456906	0.696551
	O372	O	0.290635	0.494437	0.371943
	H373	H	0.308202	0.482724	0.367583
	H374	H	0.288453	0.475397	0.355540
	O375	O	0.092113	0.941321	1.201389
	H376	H	0.108653	0.940697	1.181884
	H377	H	0.102394	0.958861	1.209913
	O378	O	0.761829	0.752708	0.235268
	H379	H	0.776330	0.763622	0.241534
	H380	H	0.771741	0.752979	0.220303
	O381	O	1.182843	0.177896	0.139630
	H382	H	1.169608	0.172672	0.136451
	H383	H	1.189500	0.152943	0.148584
	O384	O	-0.213920	-0.228604	1.028255
	H385	H	-0.215856	-0.200851	1.018547
	H386	H	-0.246343	-0.255474	1.037555
	O387	O	-0.205983	0.962411	1.206399
	H388	H	-0.197956	0.967960	1.204707
	H389	H	-0.231353	0.970458	1.205151
	O390	O	-0.217493	0.056408	0.984533
	H391	H	-0.219070	0.075457	0.970778
	H392	H	-0.212854	0.065263	0.968356
	O393	O	0.699763	1.480508	-0.481164
	H394	H	0.699088	1.467709	-0.469259
	H395	H	0.711449	1.474112	-0.469087
	O396	O	0.706085	0.278963	0.290422
	H397	H	0.686039	0.304773	0.287904
	H398	H	0.729351	0.269404	0.262782
	O399	O	0.718766	0.519767	0.717470
	H400	H	0.737233	0.544879	0.733841
	H401	H	0.722670	0.527354	0.720626
	O402	O	-0.050260	-0.045886	0.792820
	H403	H	-0.070126	-0.045569	0.783662
	H404	H	-0.056632	-0.043724	0.793838
	O405	O	0.477601	0.285340	-0.295895
	H406	H	0.486214	0.286856	-0.299953
	H407	H	0.486055	0.276282	-0.287726
	O408	O	0.978738	0.774097	1.209113
	H409	H	0.982803	0.781005	1.218882
	H410	H	0.975482	0.772153	1.229131
	O411	O	0.309561	0.621246	0.409534
	H412	H	0.292535	0.602522	0.422596
	H413	H	0.320716	0.634736	0.415392
	O414	O	0.359082	0.436089	0.467591
	H415	H	0.364972	0.442019	0.473173
	H416	H	0.360453	0.448146	0.452883
	O417	O	0.476708	0.521845	0.469691
	H418	H	0.473564	0.528427	0.454213
	H419	H	0.482756	0.526951	0.481853
	O420	O	0.390065	0.583822	0.587418
	H421	H	0.390319	0.564436	0.595155
	H422	H	0.368574	0.585772	0.581500
	O423	O	0.217013	1.163446	0.005587
	H424	H	0.227973	1.172097	0.018318
	H425	H	0.220997	1.167201	0.004797
	O426	O	0.900437	0.973019	0.999228
	H427	H	0.914954	0.964059	1.004358
	H428	H	0.905590	0.978768	0.999523
	O429	O	0.457498	0.666978	0.546330
	H430	H	0.449285	0.681663	0.558574
	H431	H	0.480926	0.659602	0.548270
	O432	O	0.283959	0.507514	0.606810
	H433	H	0.300687	0.507176	0.611862
	H434	H	0.270501	0.507186	0.626082
	O435	O	0.158313	0.031492	-0.062471
	H436	H	0.160168	0.034947	-0.054781
	H437	H	0.159164	0.032739	-0.064752
	O438	O	1.206358	0.047826	0.204293
	H439	H	1.228281	0.043920	0.205682
	H440	H	1.226252	0.025090	0.195261
	O441	O	0.402734	0.421243	0.317596
	H442	H	0.410588	0.403345	0.337161
	H443	H	0.432393	0.439992	0.309536
	O444	O	-0.029008	1.007527	1.203762
	H445	H	-0.039798	1.011578	1.204447
	H446	H	-0.014552	1.003232	1.212848
	O447	O	0.523074	0.694079	0.700386
	H448	H	0.493639	0.675995	0.696065
	H449	H	0.518100	0.710374	0.711354
	O450	O	0.001110	0.179024	0.193648
	H451	H	0.012013	0.164347	0.187275
	H452	H	0.005044	0.195890	0.191453
	O453	O	0.660041	0.415020	0.299639
	H454	H	0.667674	0.416211	0.302306
	H455	H	0.642440	0.448575	0.295261
	O456	O	0.665154	0.329603	0.655797
	H457	H	0.645219	0.340781	0.635426
	H458	H	0.656352	0.340174	0.641722
	O459	O	0.617198	0.485384	0.498882
	H460	H	0.630511	0.469924	0.485587
	H461	H	0.611015	0.493156	0.491301
	O462	O	0.672124	0.574025	0.392969
	H463	H	0.679561	0.576656	0.398719
	H464	H	0.666869	0.577246	0.396294
	O465	O	0.989754	0.189785	-0.167776
	H466	H	1.007723	0.196615	-0.174473
	H467	H	1.007327	0.174959	-0.161325
