data_Molecule from HDF5

_cell_length_a		16.206468
_cell_length_b		16.122602
_cell_length_c		16.443309
_cell_angle_alpha	90.399380
_cell_angle_beta	90.341989
_cell_angle_gamma	89.952767
_symmetry_space_group_name_H-M	'P 1'
_symmetry_Int_Tables_number		1

loop_
	_symmetry_equiv_pos_as_xyz
	x,y,z

loop_
	_atom_site_label
	_atom_site_type_symbol
	_atom_site_fract_x
	_atom_site_fract_y
	_atom_site_fract_z
	H0	H	0.395812	0.846959	0.717270
	H1	H	0.601370	0.173248	0.717222
	H2	H	0.605869	0.849101	0.277235
	H3	H	0.396918	0.174029	0.285107
	H4	H	0.712016	0.406155	0.836486
	H5	H	0.716852	0.610584	0.158868
	H6	H	0.278223	0.610374	0.838285
	H7	H	0.281912	0.409906	0.160595
	H8	H	0.834131	0.719482	0.398572
	H9	H	0.162115	0.720523	0.597975
	H10	H	0.833778	0.293509	0.591926
	H11	H	0.162843	0.291790	0.398968
	H12	H	0.835941	0.401049	0.714522
	H13	H	0.158589	0.610329	0.719010
	H14	H	0.836028	0.608968	0.279714
	H15	H	0.160204	0.401200	0.278629
	H16	H	0.396522	0.724403	0.837269
	H17	H	0.599576	0.726948	0.160094
	H18	H	0.596052	0.290389	0.837600
	H19	H	0.398578	0.295040	0.161684
	H20	H	0.711028	0.843589	0.399891
	H21	H	0.716778	0.172448	0.600936
	H22	H	0.286175	0.843288	0.597031
	H23	H	0.282641	0.172768	0.400807
	H24	H	0.895278	0.343125	0.212396
	H25	H	0.100485	0.669353	0.218036
	H26	H	0.100165	0.343632	0.780993
	H27	H	0.893497	0.669413	0.779324
	H28	H	0.216533	0.904366	0.337335
	H29	H	0.215476	0.107294	0.660162
	H30	H	0.778689	0.107408	0.338503
	H31	H	0.784089	0.907347	0.659466
	H32	H	0.332769	0.220975	0.902810
	H33	H	0.662841	0.223330	0.096803
	H34	H	0.333712	0.796700	0.096877
	H35	H	0.662013	0.793635	0.899655
	H36	H	0.336921	0.907688	0.217490
	H37	H	0.661462	0.116364	0.219271
	H38	H	0.336810	0.115395	0.779637
	H39	H	0.660925	0.905917	0.782213
	H40	H	0.898888	0.219315	0.334996
	H41	H	0.099756	0.224602	0.659255
	H42	H	0.098036	0.789354	0.336030
	H43	H	0.900219	0.791552	0.659287
	H44	H	0.213662	0.343785	0.898798
	H45	H	0.210522	0.673016	0.100069
	H46	H	0.783551	0.342834	0.093805
	H47	H	0.782612	0.672025	0.898596
	H48	H	0.411308	0.122516	0.585628
	H49	H	0.589008	0.893003	0.589659
	H50	H	0.594178	0.129078	0.405166
	H51	H	0.402594	0.889346	0.403252
	H52	H	0.590810	0.422785	0.111210
	H53	H	0.593228	0.597460	0.883447
	H54	H	0.407283	0.602634	0.113637
	H55	H	0.408703	0.422682	0.887049
	H56	H	0.114486	0.596886	0.410710
	H57	H	0.881924	0.592142	0.593285
	H58	H	0.112681	0.420941	0.590720
	H59	H	0.882616	0.419164	0.399756
	H60	H	0.116638	0.415685	0.593683
	H61	H	0.878474	0.603699	0.590940
	H62	H	0.113384	0.591500	0.405699
	H63	H	0.879011	0.409507	0.399862
	H64	H	0.404534	0.604448	0.114798
	H65	H	0.584802	0.599428	0.885417
	H66	H	0.587073	0.413191	0.113001
	H67	H	0.408759	0.410159	0.884371
	H68	H	0.581345	0.124345	0.408731
	H69	H	0.592364	0.890409	0.594164
	H70	H	0.400119	0.128525	0.592508
	H71	H	0.415742	0.892473	0.399537
	H72	H	0.907766	0.624425	0.088407
	H73	H	0.081661	0.393806	0.085517
	H74	H	0.086553	0.623627	0.907706
	H75	H	0.903349	0.390331	0.909153
	H76	H	0.097154	0.919388	0.612854
	H77	H	0.092802	0.096028	0.383335
	H78	H	0.912335	0.092669	0.609097
	H79	H	0.905489	0.916684	0.383760
	H80	H	0.616957	0.098519	0.903366
	H81	H	0.382426	0.095448	0.097744
	H82	H	0.614094	0.922012	0.092038
	H83	H	0.379205	0.915157	0.902120
	H84	H	0.614396	0.918619	0.091442
	H85	H	0.378024	0.107282	0.098126
	H86	H	0.615904	0.104004	0.910182
	H87	H	0.384024	0.918072	0.912553
	H88	H	0.912743	0.106681	0.613907
	H89	H	0.089656	0.097515	0.383498
	H90	H	0.087117	0.914534	0.611925
	H91	H	0.906465	0.910650	0.382413
	H92	H	0.086593	0.625080	0.906264
	H93	H	0.097768	0.389090	0.084374
	H94	H	0.907530	0.625401	0.091593
	H95	H	0.902191	0.386826	0.900373
	H96	H	0.412424	0.127355	0.598861
	H97	H	0.586587	0.892138	0.594684
	H98	H	0.592222	0.124353	0.418691
	H99	H	0.411590	0.895338	0.412575
	H100	H	0.596817	0.416461	0.115544
	H101	H	0.589656	0.605717	0.881618
	H102	H	0.403444	0.601655	0.113788
	H103	H	0.397120	0.417227	0.882825
	H104	H	0.116696	0.597611	0.403959
	H105	H	0.883223	0.596486	0.582878
	H106	H	0.114382	0.414851	0.587578
	H107	H	0.882684	0.413591	0.407579
	H108	H	0.910289	0.623692	0.091042
	H109	H	0.089648	0.387124	0.098430
	H110	H	0.085629	0.623722	0.907335
	H111	H	0.910943	0.390673	0.903160
	H112	H	0.096023	0.908410	0.615449
	H113	H	0.092271	0.099581	0.381937
	H114	H	0.900858	0.099014	0.615401
	H115	H	0.901413	0.913124	0.380815
	H116	H	0.611900	0.095480	0.911016
	H117	H	0.383901	0.102400	0.087565
	H118	H	0.614244	0.922131	0.088542
	H119	H	0.383200	0.926294	0.904438
	C120	C	0.378611	0.017564	0.620823
	C121	C	0.620236	1.000215	0.622170
	C122	C	0.619527	0.017856	0.379581
	C123	C	0.378684	1.000827	0.377359
	C124	C	0.619763	0.386338	0.006859
	C125	C	0.619846	0.630968	0.990169
	C126	C	0.374519	0.632472	0.007800
	C127	C	0.375863	0.387845	0.991263
	C128	C	0.007190	0.626326	0.376617
	C129	C	0.988880	0.627904	0.619702
	C130	C	0.006499	0.386231	0.618703
	C131	C	0.989610	0.384084	0.374266
	C132	C	0.877715	0.515725	0.118592
	C133	C	0.119162	0.498652	0.119952
	C134	C	0.117522	0.516154	0.877570
	C135	C	0.875415	0.497707	0.875248
	C136	C	0.122207	0.883964	0.506756
	C137	C	0.121457	0.128538	0.489782
	C138	C	0.877575	0.128309	0.506511
	C139	C	0.876235	0.884507	0.489219
	C140	C	0.506786	0.130080	0.878967
	C141	C	0.489813	0.132223	0.122902
	C142	C	0.506982	0.890012	0.120409
	C143	C	0.490025	0.889068	0.877353
	C144	C	0.378008	0.895003	0.677874
	C145	C	0.620602	0.123955	0.678803
	C146	C	0.622231	0.896574	0.318527
	C147	C	0.377950	0.124679	0.322844
	C148	C	0.674366	0.386716	0.885085
	C149	C	0.677649	0.630487	0.110963
	C150	C	0.316952	0.630368	0.886576
	C151	C	0.320378	0.389878	0.112652
	C152	C	0.883529	0.682279	0.378017
	C153	C	0.112184	0.683963	0.618971
	C154	C	0.883099	0.330353	0.614171
	C155	C	0.113321	0.328866	0.377818
	C156	C	0.884197	0.384281	0.674935
	C157	C	0.110652	0.628754	0.678831
	C158	C	0.884738	0.627272	0.318772
	C159	C	0.111967	0.383496	0.318023
	C160	C	0.375842	0.687059	0.885910
	C161	C	0.619402	0.688428	0.111546
	C162	C	0.616701	0.328992	0.885551
	C163	C	0.378196	0.332367	0.112908
	C164	C	0.674678	0.893727	0.379743
	C165	C	0.677912	0.123470	0.620942
	C166	C	0.323534	0.893054	0.617909
	C167	C	0.321169	0.124023	0.380637
	C168	C	0.876865	0.392344	0.174056
	C169	C	0.119246	0.621072	0.178422
	C170	C	0.118665	0.392709	0.819990
	C171	C	0.875003	0.620915	0.818430
	C172	C	0.178260	0.884579	0.385406
	C173	C	0.177560	0.127808	0.611505
	C174	C	0.818859	0.126820	0.385759
	C175	C	0.821197	0.886514	0.610744
	C176	C	0.382398	0.184669	0.881557
	C177	C	0.613360	0.187266	0.119243
	C178	C	0.383582	0.833865	0.118034
	C179	C	0.612862	0.831712	0.879466
	C180	C	0.385033	0.889411	0.178026
	C181	C	0.612779	0.133594	0.179665
	C182	C	0.384750	0.132206	0.820071
	C183	C	0.612338	0.887861	0.820985
	C184	C	0.878489	0.182658	0.384270
	C185	C	0.120173	0.186327	0.611085
	C186	C	0.119604	0.827212	0.384899
	C187	C	0.879439	0.829331	0.610976
	C188	C	0.175241	0.392939	0.878590
	C189	C	0.173713	0.623042	0.119258
	C190	C	0.821030	0.392143	0.115236
	C191	C	0.819936	0.622332	0.877752
	C192	C	0.401252	0.103518	0.598708
	C193	C	0.596456	0.914286	0.599423
	C194	C	0.596116	0.103889	0.404030
	C195	C	0.402878	0.914581	0.398816
	C196	C	0.598002	0.410441	0.091438
	C197	C	0.596266	0.607527	0.905468
	C198	C	0.398055	0.609674	0.092239
	C199	C	0.398276	0.410154	0.906829
	C200	C	0.092646	0.602351	0.400046
	C201	C	0.903370	0.604415	0.595953
	C202	C	0.092479	0.410159	0.596905
	C203	C	0.903737	0.407190	0.396011
	C204	C	0.901498	0.602016	0.096649
	C205	C	0.096438	0.412305	0.096219
	C206	C	0.093377	0.601883	0.900378
	C207	C	0.898534	0.411919	0.897631
	C208	C	0.099930	0.907077	0.591306
	C209	C	0.098242	0.104702	0.405033
	C210	C	0.901520	0.106005	0.590887
	C211	C	0.898004	0.906926	0.404342
	C212	C	0.592434	0.106467	0.901697
	C213	C	0.403656	0.108718	0.100885
	C214	C	0.592182	0.913968	0.097444
	C215	C	0.404543	0.912752	0.899841
	Zn216	Zn	0.498465	0.010179	0.749936
	Zn217	Zn	0.500029	0.011446	0.250098
	Zn218	Zn	0.749065	0.507998	-0.002671
	Zn219	Zn	0.246542	0.508952	-0.000821
	Zn220	Zn	-0.001506	0.755322	0.497154
	Zn221	Zn	-0.001028	0.257617	0.497083
	Zn222	Zn	-0.003441	0.506191	0.748001
	Zn223	Zn	-0.001396	0.506207	0.247130
	Zn224	Zn	0.497766	0.760955	-0.001474
	Zn225	Zn	0.497438	0.257781	-0.000162
	Zn226	Zn	0.747678	0.007195	0.499251
	Zn227	Zn	0.250917	0.006903	0.498881
	N228	N	0.411231	0.973372	0.679994
	N229	N	0.585677	0.046314	0.679796
	N230	N	0.588613	0.974878	0.318284
	N231	N	0.413009	0.047019	0.320767
	N232	N	0.676303	0.421885	0.961493
	N233	N	0.678173	0.595661	0.034459
	N234	N	0.315893	0.597167	0.963452
	N235	N	0.318716	0.423578	0.036157
	N236	N	0.960653	0.682062	0.413273
	N237	N	0.035439	0.683666	0.582963
	N238	N	0.960413	0.331380	0.579831
	N239	N	0.036280	0.328858	0.411879
	N240	N	0.961972	0.418181	0.677562
	N241	N	0.032842	0.594730	0.679470
	N242	N	0.962535	0.593119	0.317814
	N243	N	0.033810	0.417078	0.315515
	N244	N	0.411011	0.688585	0.962199
	N245	N	0.583961	0.688704	0.035309
	N246	N	0.583450	0.328698	0.962164
	N247	N	0.412114	0.330842	0.036444
	N248	N	0.673039	0.970222	0.417072
	N249	N	0.678138	0.045457	0.586537
	N250	N	0.323865	0.970068	0.582853
	N251	N	0.321515	0.045833	0.413683
	N252	N	0.911532	0.470257	0.176128
	N253	N	0.086013	0.542693	0.178914
	N254	N	0.083474	0.470256	0.819146
	N255	N	0.908611	0.542582	0.816643
	N256	N	0.180036	0.919169	0.462115
	N257	N	0.178652	0.092949	0.535091
	N258	N	0.818139	0.093883	0.462748
	N259	N	0.819231	0.920012	0.534097
	N260	N	0.459210	0.183669	0.917437
	N261	N	0.536053	0.186317	0.084497
	N262	N	0.460385	0.833899	0.083097
	N263	N	0.535640	0.832095	0.913764
	N264	N	0.462778	0.923782	0.179721
	N265	N	0.534715	0.100374	0.182184
	N266	N	0.462941	0.098980	0.818281
	N267	N	0.534811	0.922655	0.819628
	N268	N	0.914361	0.183920	0.460242
	N269	N	0.086276	0.187200	0.534127
	N270	N	0.085335	0.826710	0.461196
	N271	N	0.912847	0.827886	0.534339
	N272	N	0.174889	0.470676	0.913571
	N273	N	0.173638	0.545721	0.083463
	N274	N	0.821346	0.470059	0.081555
	N275	N	0.819883	0.544889	0.912230
	O276	O	0.031733	0.068200	0.048145
	H277	H	0.028341	0.069936	0.038391
	H278	H	0.030777	0.063254	0.053225
	O279	O	0.431714	0.404936	0.599950
	H280	H	0.435405	0.416078	0.615037
	H281	H	0.431440	0.405406	0.588579
	O282	O	0.475835	-0.438772	-0.450127
	H283	H	0.471626	-0.438088	-0.438726
	H284	H	0.471049	-0.448220	-0.454036
	O285	O	0.068778	0.897380	-0.191331
	H286	H	0.069194	0.897770	-0.197230
	H287	H	0.062892	0.908311	-0.183126
	O288	O	0.613530	0.361542	0.329099
	H289	H	0.625483	0.353519	0.315499
	H290	H	0.627217	0.357386	0.336335
	O291	O	0.965192	-0.063629	0.954093
	H292	H	0.967172	-0.060569	0.954066
	H293	H	0.961987	-0.063262	0.953560
	O294	O	1.018136	1.011053	1.031644
	H295	H	1.009501	1.016169	1.034380
	H296	H	1.015513	1.023442	1.022227
	O297	O	0.024005	0.071929	-0.046507
	H298	H	0.012518	0.083576	-0.063505
	H299	H	0.033724	0.057808	-0.043290
	O300	O	0.671141	0.629534	0.481867
	H301	H	0.680436	0.653429	0.479480
	H302	H	0.656798	0.621572	0.487713
	O303	O	-0.140918	1.012434	0.980380
	H304	H	-0.145746	1.011762	0.985789
	H305	H	-0.132919	1.003661	0.983829
	O306	O	0.408361	0.669570	0.596834
	H307	H	0.385337	0.658808	0.588701
	H308	H	0.412686	0.676580	0.580750
	O309	O	0.992088	0.030214	0.050947
	H310	H	0.987225	0.024631	0.041705
	H311	H	0.997774	0.036826	0.039474
	O312	O	0.059908	0.033214	0.955842
	H313	H	0.060313	0.031171	0.946097
	H314	H	0.058796	0.040621	0.958641
	O315	O	0.646343	0.576751	0.647318
	H316	H	0.659712	0.587952	0.656115
	H317	H	0.658247	0.600124	0.661668
	O318	O	0.587634	0.655434	0.642766
	H319	H	0.568743	0.662471	0.619974
	H320	H	0.598592	0.662798	0.652848
	O321	O	0.388002	0.479856	0.572600
	H322	H	0.411804	0.480396	0.574351
	H323	H	0.385165	0.487318	0.578963
	O324	O	0.479029	0.358184	0.567487
	H325	H	0.467692	0.354041	0.572173
	H326	H	0.488905	0.382315	0.593226
	O327	O	-0.114439	1.076239	1.017162
	H328	H	-0.115099	1.064267	1.025815
	H329	H	-0.124631	1.096714	0.997509
	O330	O	-0.060779	-0.150773	-0.050739
	H331	H	-0.063046	-0.160374	-0.040114
	H332	H	-0.046836	-0.146071	-0.056959
	O333	O	0.038604	0.989855	0.956400
	H334	H	0.036919	0.982872	0.954192
	H335	H	0.045970	0.986149	0.959525
	O336	O	0.940453	0.946556	0.916958
	H337	H	0.925900	0.942820	0.933731
	H338	H	0.942955	0.941885	0.911829
	O339	O	0.614198	0.350584	0.459071
	H340	H	0.618412	0.373208	0.455352
	H341	H	0.613579	0.351180	0.457846
	O342	O	0.960792	-0.037810	0.126335
	H343	H	0.967247	-0.035231	0.133314
	H344	H	0.944734	-0.033419	0.133241
	O345	O	0.513678	0.689884	0.465967
	H346	H	0.498888	0.674013	0.467875
	H347	H	0.513653	0.698046	0.457698
	O348	O	1.078618	1.022976	1.040138
	H349	H	1.090619	1.012959	1.028347
	H350	H	1.082041	1.020621	1.049960
	O351	O	1.079018	0.933045	-0.011274
	H352	H	1.087659	0.930595	-0.010854
	H353	H	1.065425	0.944390	-0.017459
	O354	O	0.363298	0.638046	0.443454
	H355	H	0.352751	0.632750	0.431982
	H356	H	0.372915	0.612674	0.441922
	O357	O	0.442422	0.414454	0.561853
	H358	H	0.436788	0.416716	0.563301
	H359	H	0.443437	0.395969	0.558790
	O360	O	-0.029534	-0.145374	-0.071521
	H361	H	-0.022667	-0.151371	-0.064361
	H362	H	-0.020707	-0.140761	-0.072844
	O363	O	0.502278	0.419381	0.591467
	H364	H	0.507865	0.408864	0.571209
	H365	H	0.517776	0.426956	0.596727
	O366	O	0.363191	0.665446	0.417945
	H367	H	0.371252	0.644956	0.400733
	H368	H	0.348589	0.674775	0.413853
	O369	O	0.591986	0.380901	0.487259
	H370	H	0.603276	0.385689	0.501694
	H371	H	0.602193	0.368326	0.464601
	O372	O	0.439663	0.484643	0.360286
	H373	H	0.444777	0.480858	0.364923
	H374	H	0.444849	0.476726	0.369752
	O375	O	0.528264	0.614404	0.372900
	H376	H	0.523876	0.619655	0.368137
	H377	H	0.521185	0.606663	0.364240
	O378	O	0.543292	0.532283	0.526914
	H379	H	0.536869	0.538614	0.520729
	H380	H	0.540560	0.529677	0.515325
	O381	O	0.354474	0.455612	0.385542
	H382	H	0.369601	0.438142	0.382748
	H383	H	0.350974	0.455145	0.395623
	O384	O	0.009114	1.140021	0.064931
	H385	H	0.004909	1.148096	0.056543
	H386	H	0.018186	1.137773	0.067089
	O387	O	1.061890	-0.094991	1.013887
	H388	H	1.070438	-0.107696	1.008558
	H389	H	1.060265	-0.092969	1.007934
	O390	O	-0.015157	1.035332	0.019644
	H391	H	-0.011539	1.027097	0.026945
	H392	H	-0.009680	1.037068	0.021051
	O393	O	0.994439	1.121700	0.044096
	H394	H	0.998184	1.110132	0.045341
	H395	H	1.001782	1.110521	0.032163
	O396	O	0.651765	0.523951	0.400010
	H397	H	0.650266	0.536740	0.393908
	H398	H	0.658433	0.533937	0.405494
	O399	O	0.339152	0.398844	1.524741
	H400	H	0.338825	0.400226	1.542219
	H401	H	0.335366	0.382583	1.526074
	O402	O	1.027124	1.112182	1.019630
	H403	H	1.042347	1.123977	1.030251
	H404	H	1.036172	1.107459	1.030905
	O405	O	0.561928	0.568821	0.458273
	H406	H	0.550509	0.572674	0.444824
	H407	H	0.560464	0.583791	0.468028
