data_Molecule from HDF5

_cell_length_a		16.515341
_cell_length_b		16.487406
_cell_length_c		16.435561
_cell_angle_alpha	89.902063
_cell_angle_beta	90.060774
_cell_angle_gamma	89.971985
_symmetry_space_group_name_H-M	'P 1'
_symmetry_Int_Tables_number		1

loop_
	_symmetry_equiv_pos_as_xyz
	x,y,z

loop_
	_atom_site_label
	_atom_site_type_symbol
	_atom_site_fract_x
	_atom_site_fract_y
	_atom_site_fract_z
	H0	H	0.402236	0.834785	0.723065
	H1	H	0.615361	0.148740	0.723912
	H2	H	0.614699	0.835261	0.278190
	H3	H	0.401999	0.148867	0.278108
	H4	H	0.733884	0.382159	0.845632
	H5	H	0.727600	0.595711	0.158741
	H6	H	0.284478	0.596149	0.843829
	H7	H	0.285152	0.382133	0.159173
	H8	H	0.850997	0.711207	0.399197
	H9	H	0.164792	0.712778	0.609900
	H10	H	0.850220	0.268423	0.607059
	H11	H	0.165216	0.268174	0.395650
	H12	H	0.850686	0.384528	0.723899
	H13	H	0.165509	0.593426	0.723030
	H14	H	0.851892	0.595985	0.281569
	H15	H	0.164507	0.382983	0.278510
	H16	H	0.400947	0.711290	0.842700
	H17	H	0.610746	0.711342	0.158652
	H18	H	0.616054	0.268207	0.843805
	H19	H	0.401266	0.266707	0.157938
	H20	H	0.732185	0.836044	0.393795
	H21	H	0.734092	0.146897	0.610711
	H22	H	0.286197	0.834843	0.606748
	H23	H	0.284166	0.148462	0.392349
	H24	H	0.901943	0.333667	0.225040
	H25	H	0.113218	0.648476	0.223915
	H26	H	0.113280	0.331681	0.782087
	H27	H	0.903324	0.647552	0.779583
	H28	H	0.228676	0.885054	0.343937
	H29	H	0.231070	0.097630	0.657931
	H30	H	0.787249	0.096972	0.343081
	H31	H	0.784707	0.884738	0.658913
	H32	H	0.352691	0.216807	0.892677
	H33	H	0.664007	0.215364	0.109386
	H34	H	0.348380	0.770433	0.104883
	H35	H	0.664372	0.769716	0.894274
	H36	H	0.349338	0.885062	0.223366
	H37	H	0.664369	0.097033	0.224236
	H38	H	0.351555	0.099469	0.777744
	H39	H	0.664868	0.888018	0.780314
	H40	H	0.901991	0.213217	0.343840
	H41	H	0.112999	0.211152	0.659824
	H42	H	0.113389	0.768687	0.344432
	H43	H	0.901680	0.769849	0.660697
	H44	H	0.230482	0.332869	0.897215
	H45	H	0.229084	0.648043	0.107432
	H46	H	0.784176	0.334878	0.110603
	H47	H	0.787483	0.648639	0.895744
	H48	H	0.423824	0.104370	0.593166
	H49	H	0.594683	0.881303	0.585666
	H50	H	0.590185	0.102427	0.412223
	H51	H	0.419333	0.878497	0.410613
	H52	H	0.585371	0.397916	0.111261
	H53	H	0.601574	0.579798	0.885717
	H54	H	0.418936	0.581850	0.114829
	H55	H	0.417781	0.404964	0.889252
	H56	H	0.122924	0.580874	0.411205
	H57	H	0.893090	0.583426	0.592246
	H58	H	0.123496	0.392648	0.595034
	H59	H	0.902283	0.411283	0.421590
	H60	H	0.118296	0.401045	0.583798
	H61	H	0.896945	0.579988	0.587145
	H62	H	0.121857	0.582324	0.417282
	H63	H	0.894371	0.405431	0.404765
	H64	H	0.416695	0.582295	0.114936
	H65	H	0.594896	0.576407	0.888634
	H66	H	0.604851	0.399324	0.118251
	H67	H	0.421118	0.406923	0.890779
	H68	H	0.599417	0.103495	0.418210
	H69	H	0.599893	0.878654	0.589523
	H70	H	0.421496	0.101488	0.582334
	H71	H	0.418154	0.879206	0.414368
	H72	H	0.916366	0.604564	0.092050
	H73	H	0.096759	0.380069	0.086572
	H74	H	0.093713	0.599955	0.917827
	H75	H	0.923048	0.380283	0.915115
	H76	H	0.087715	0.907549	0.609984
	H77	H	0.099607	0.078830	0.387403
	H78	H	0.917793	0.074894	0.613549
	H79	H	0.921698	0.900811	0.389680
	H80	H	0.620108	0.082975	0.916344
	H81	H	0.393383	0.082759	0.091836
	H82	H	0.621713	0.906400	0.100365
	H83	H	0.395195	0.899555	0.916110
	H84	H	0.621622	0.889450	0.087603
	H85	H	0.398352	0.081053	0.078931
	H86	H	0.618225	0.076003	0.914592
	H87	H	0.395492	0.907151	0.909668
	H88	H	0.923864	0.079057	0.612929
	H89	H	0.092803	0.076517	0.390336
	H90	H	0.096113	0.891884	0.617802
	H91	H	0.918519	0.901715	0.388689
	H92	H	0.101562	0.604329	0.913714
	H93	H	0.100228	0.375895	0.093029
	H94	H	0.920853	0.603471	0.093189
	H95	H	0.917757	0.377673	0.917666
	H96	H	0.413819	0.106219	0.589112
	H97	H	0.593851	0.880002	0.592258
	H98	H	0.599332	0.106493	0.407465
	H99	H	0.415684	0.878446	0.411601
	H100	H	0.595950	0.415340	0.108887
	H101	H	0.594975	0.584099	0.886840
	H102	H	0.418053	0.580404	0.114743
	H103	H	0.421615	0.403094	0.889600
	H104	H	0.119495	0.576714	0.414616
	H105	H	0.895937	0.576622	0.593563
	H106	H	0.119688	0.407008	0.597274
	H107	H	0.895147	0.393411	0.419969
	H108	H	0.918681	0.603068	0.088331
	H109	H	0.092332	0.378545	0.093504
	H110	H	0.093220	0.603138	0.908694
	H111	H	0.919362	0.377267	0.911988
	H112	H	0.106147	0.908283	0.615945
	H113	H	0.093246	0.083584	0.387659
	H114	H	0.917876	0.081881	0.615773
	H115	H	0.920874	0.904420	0.390112
	H116	H	0.620952	0.079715	0.909450
	H117	H	0.399477	0.070508	0.088404
	H118	H	0.613214	0.907825	0.080555
	H119	H	0.391738	0.898898	0.906651
	C120	C	0.386543	0.000445	0.621640
	C121	C	0.629694	0.983258	0.622609
	C122	C	0.628898	0.000357	0.380044
	C123	C	0.385276	0.982673	0.378690
	C124	C	0.629459	0.370225	0.009540
	C125	C	0.628915	0.612505	0.991454
	C126	C	0.385472	0.612972	0.010155
	C127	C	0.387145	0.370515	0.993633
	C128	C	0.017423	0.612389	0.381616
	C129	C	0.999207	0.611914	0.624147
	C130	C	0.016485	0.368147	0.624022
	C131	C	1.000439	0.369979	0.381626
	C132	C	0.886139	0.499782	0.124237
	C133	C	0.129138	0.482215	0.123984
	C134	C	0.129144	0.498500	0.880979
	C135	C	0.887452	0.482052	0.881160
	C136	C	0.129195	0.869687	0.510564
	C137	C	0.128469	0.112116	0.492704
	C138	C	0.886476	0.112311	0.510011
	C139	C	0.886783	0.869502	0.493494
	C140	C	0.516763	0.113611	0.879625
	C141	C	0.500006	0.112018	0.121269
	C142	C	0.514946	0.869136	0.121997
	C143	C	0.498206	0.869749	0.878583
	C144	C	0.384033	0.882154	0.682837
	C145	C	0.633329	0.101320	0.683811
	C146	C	0.632411	0.882336	0.318713
	C147	C	0.383196	0.101462	0.317861
	C148	C	0.692392	0.365261	0.892136
	C149	C	0.688359	0.614609	0.110867
	C150	C	0.324922	0.614469	0.891222
	C151	C	0.325794	0.365386	0.111726
	C152	C	0.898668	0.671598	0.379924
	C153	C	0.117717	0.672117	0.627327
	C154	C	0.897746	0.308136	0.626034
	C155	C	0.118159	0.308503	0.378042
	C156	C	0.897732	0.366148	0.683856
	C157	C	0.117962	0.612765	0.683720
	C158	C	0.898861	0.614030	0.321741
	C159	C	0.117817	0.365810	0.319701
	C160	C	0.382847	0.672012	0.890710
	C161	C	0.629814	0.671627	0.110981
	C162	C	0.633523	0.308645	0.891265
	C163	C	0.383591	0.307728	0.111105
	C164	C	0.690701	0.882648	0.376319
	C165	C	0.692157	0.100465	0.627063
	C166	C	0.326103	0.882248	0.624958
	C167	C	0.324631	0.101173	0.374855
	C168	C	0.883494	0.381327	0.185051
	C169	C	0.131470	0.600984	0.183899
	C170	C	0.131726	0.379440	0.821493
	C171	C	0.885129	0.600545	0.819921
	C172	C	0.189102	0.866811	0.391455
	C173	C	0.190114	0.115176	0.610978
	C174	C	0.826412	0.115128	0.391099
	C175	C	0.825234	0.866848	0.611614
	C176	C	0.399258	0.175602	0.875318
	C177	C	0.617371	0.173913	0.126058
	C178	C	0.396244	0.809462	0.124112
	C179	C	0.617101	0.809945	0.876626
	C180	C	0.396631	0.866735	0.182874
	C181	C	0.617543	0.115067	0.183189
	C182	C	0.398768	0.117236	0.818137
	C183	C	0.617452	0.868673	0.819635
	C184	C	0.883846	0.172956	0.391322
	C185	C	0.131223	0.171668	0.612091
	C186	C	0.131972	0.808570	0.392141
	C187	C	0.883688	0.809750	0.612786
	C188	C	0.190124	0.380082	0.878760
	C189	C	0.188958	0.600892	0.125748
	C190	C	0.824900	0.381873	0.127844
	C191	C	0.827334	0.601005	0.877579
	C192	C	0.412220	0.082500	0.595630
	C193	C	0.603560	0.901395	0.596391
	C194	C	0.603464	0.082517	0.405372
	C195	C	0.410556	0.900223	0.404794
	C196	C	0.602960	0.396727	0.091451
	C197	C	0.604308	0.587270	0.908755
	C198	C	0.410524	0.588416	0.093403
	C199	C	0.412764	0.397274	0.911333
	C200	C	0.099974	0.587066	0.407011
	C201	C	0.916839	0.587025	0.598394
	C202	C	0.098996	0.393161	0.599125
	C203	C	0.918605	0.395969	0.407785
	C204	C	0.911403	0.582258	0.098398
	C205	C	0.103702	0.399597	0.098515
	C206	C	0.103571	0.580885	0.906194
	C207	C	0.912710	0.399894	0.907529
	C208	C	0.103924	0.895443	0.592986
	C209	C	0.102693	0.086909	0.409962
	C210	C	0.912508	0.086135	0.592692
	C211	C	0.912893	0.894892	0.410981
	C212	C	0.598426	0.087199	0.905883
	C213	C	0.418330	0.085633	0.094258
	C214	C	0.597305	0.894000	0.096718
	C215	C	0.415745	0.894577	0.903666
	Zn216	Zn	0.507978	-0.007091	0.750754
	Zn217	Zn	0.507002	-0.008793	0.250948
	Zn218	Zn	0.758206	0.491160	0.001047
	Zn219	Zn	0.257696	0.490631	0.002438
	Zn220	Zn	0.008288	0.741153	0.503324
	Zn221	Zn	0.007835	0.240249	0.501648
	Zn222	Zn	0.007830	0.489761	0.752561
	Zn223	Zn	0.008209	0.490980	0.252635
	Zn224	Zn	0.506792	0.740875	-0.000078
	Zn225	Zn	0.508497	0.241986	0.000934
	Zn226	Zn	0.758357	-0.008404	0.501384
	Zn227	Zn	0.257332	-0.008400	0.500326
	N228	N	0.420984	0.956842	0.681007
	N229	N	0.594947	0.027457	0.681103
	N230	N	0.594648	0.956439	0.320962
	N231	N	0.420156	0.026787	0.320019
	N232	N	0.689936	0.402882	0.966653
	N233	N	0.688227	0.578616	0.035536
	N234	N	0.326338	0.578333	0.966723
	N235	N	0.328158	0.404007	0.037647
	N236	N	0.973389	0.670816	0.416344
	N237	N	0.042785	0.671805	0.590994
	N238	N	0.972713	0.308969	0.589875
	N239	N	0.044021	0.310900	0.415831
	N240	N	0.972575	0.402432	0.682991
	N241	N	0.043265	0.576243	0.681959
	N242	N	0.973927	0.577966	0.322655
	N243	N	0.043725	0.403231	0.321819
	N244	N	0.419702	0.670983	0.965562
	N245	N	0.593829	0.670886	0.035657
	N246	N	0.595081	0.311679	0.965301
	N247	N	0.421081	0.310954	0.036615
	N248	N	0.688667	0.957005	0.413806
	N249	N	0.689915	0.026062	0.589504
	N250	N	0.327499	0.956757	0.587757
	N251	N	0.325908	0.026429	0.412024
	N252	N	0.920695	0.455741	0.183139
	N253	N	0.095109	0.525941	0.182864
	N254	N	0.094486	0.454039	0.822699
	N255	N	0.921641	0.525749	0.822110
	N256	N	0.187488	0.904322	0.466050
	N257	N	0.188497	0.079101	0.535749
	N258	N	0.828062	0.078204	0.466165
	N259	N	0.826973	0.903182	0.536267
	N260	N	0.473754	0.173886	0.912504
	N261	N	0.543102	0.171957	0.088098
	N262	N	0.470835	0.810788	0.087328
	N263	N	0.541820	0.810354	0.912290
	N264	N	0.471595	0.903023	0.182001
	N265	N	0.543517	0.077258	0.180144
	N266	N	0.472927	0.079523	0.820665
	N267	N	0.542534	0.904986	0.820278
	N268	N	0.920401	0.171425	0.466399
	N269	N	0.093662	0.170035	0.537416
	N270	N	0.095468	0.810137	0.467175
	N271	N	0.921226	0.811165	0.538253
	N272	N	0.188753	0.455078	0.914946
	N273	N	0.187836	0.525971	0.089404
	N274	N	0.826461	0.456540	0.090560
	N275	N	0.828612	0.526357	0.914981
	O276	O	0.519037	0.272280	0.520508
	H277	H	0.505688	0.271749	0.535971
	H278	H	0.528340	0.267865	0.529177
	O279	O	1.209063	1.089095	1.022129
	H280	H	1.211979	1.086540	1.028207
	H281	H	1.199713	1.087427	1.027311
	O282	O	0.861364	1.002838	-0.094771
	H283	H	0.866251	0.996235	-0.096463
	H284	H	0.864013	1.010408	-0.090756
	O285	O	-0.192834	0.023935	0.814498
	H286	H	-0.192090	0.009145	0.826029
	H287	H	-0.189418	0.026713	0.805035
	O288	O	0.081865	-0.118692	0.099827
	H289	H	0.046327	-0.122312	0.101211
	H290	H	0.078487	-0.106924	0.105778
	O291	O	1.117242	0.917090	-0.031056
	H292	H	1.117985	0.915732	-0.011876
	H293	H	1.103381	0.922537	-0.016061
	O294	O	-0.195814	1.161452	-0.047161
	H295	H	-0.169367	1.156833	-0.040949
	H296	H	-0.213050	1.167458	-0.046719
	O297	O	0.383209	0.442360	0.690378
	H298	H	0.391177	0.438818	0.707774
	H299	H	0.380039	0.445749	0.696736
	O300	O	0.297231	0.602560	0.647586
	H301	H	0.303846	0.589583	0.636194
	H302	H	0.308086	0.576713	0.655537
	O303	O	0.739697	0.176724	0.189574
	H304	H	0.738968	0.175166	0.217747
	H305	H	0.728180	0.189451	0.194861
	O306	O	-0.205037	0.961497	1.209944
	H307	H	-0.215310	0.951743	1.230168
	H308	H	-0.209083	0.944281	1.203349
	O309	O	0.478196	0.596434	0.536487
	H310	H	0.498038	0.603842	0.534871
	H311	H	0.457350	0.594827	0.528551
	O312	O	0.482534	0.713799	0.286599
	H313	H	0.473367	0.737151	0.254051
	H314	H	0.445667	0.698877	0.290853
	O315	O	0.322775	-0.301225	1.490099
	H316	H	0.315381	-0.301857	1.492219
	H317	H	0.318945	-0.303147	1.492854
	O318	O	-0.339055	0.512788	-0.603354
	H319	H	-0.334895	0.519542	-0.608564
	H320	H	-0.331745	0.490096	-0.617340
	O321	O	0.536107	0.705973	0.717976
	H322	H	0.540440	0.707218	0.718481
	H323	H	0.527025	0.725360	0.731244
	O324	O	0.386196	0.404943	0.501888
	H325	H	0.396424	0.409920	0.503605
	H326	H	0.382104	0.409869	0.508242
	O327	O	1.026750	-0.219523	0.799240
	H328	H	1.012044	-0.235785	0.814892
	H329	H	1.047646	-0.232545	0.786971
	O330	O	0.730409	0.376585	-0.367358
	H331	H	0.736883	0.384873	-0.369981
	H332	H	0.739984	0.382020	-0.354494
	O333	O	1.013099	0.829608	0.963516
	H334	H	1.024326	0.827539	0.953867
	H335	H	1.010412	0.835952	0.966565
	O336	O	1.192431	-0.192464	0.815807
	H337	H	1.189625	-0.214245	0.798726
	H338	H	1.192109	-0.169709	0.831127
	O339	O	0.527954	0.472485	0.307762
	H340	H	0.509359	0.484275	0.310755
	H341	H	0.514029	0.467442	0.300470
	O342	O	0.699754	0.675826	0.693802
	H343	H	0.695384	0.684239	0.659406
	H344	H	0.687803	0.685856	0.694326
	O345	O	0.009766	0.067267	0.204331
	H346	H	0.011612	0.066320	0.206410
	H347	H	-0.002629	0.058593	0.205944
	O348	O	0.518814	0.389052	0.682497
	H349	H	0.530196	0.389623	0.680664
	H350	H	0.536347	0.383504	0.691274
	O351	O	1.207002	0.782576	-0.018471
	H352	H	1.221391	0.767323	-0.026613
	H353	H	1.205188	0.785590	-0.022427
	O354	O	0.611299	0.291669	0.321376
	H355	H	0.593804	0.287063	0.318283
	H356	H	0.612829	0.272334	0.339305
	O357	O	0.789339	0.775417	1.028147
	H358	H	0.770627	0.760291	1.029189
	H359	H	0.792669	0.771999	1.033800
	O360	O	-0.075083	1.081160	0.952992
	H361	H	-0.072053	1.102031	0.955001
	H362	H	-0.071717	1.073274	0.956686
	O363	O	0.565002	0.716120	0.449580
	H364	H	0.546473	0.719574	0.413611
	H365	H	0.544232	0.711412	0.459791
	O366	O	1.014072	0.150561	0.785390
	H367	H	1.015488	0.148622	0.778584
	H368	H	1.002357	0.142053	0.779079
	O369	O	0.595349	0.346574	0.668487
	H370	H	0.611282	0.364782	0.674744
	H371	H	0.598375	0.349960	0.674704
	O372	O	0.296118	0.320492	0.616219
	H373	H	0.294268	0.336707	0.631467
	H374	H	0.275139	0.310477	0.625314
	O375	O	0.114013	1.158118	1.048331
	H376	H	0.120688	1.134630	1.049852
	H377	H	0.117181	1.164580	1.035228
	O378	O	1.012157	0.888043	0.140175
	H379	H	1.028367	0.897223	0.138560
	H380	H	1.013686	0.877316	0.149793
	O381	O	1.111908	-0.071225	0.131487
	H382	H	1.112236	-0.064902	0.137322
	H383	H	1.117653	-0.056151	0.130723
	O384	O	-0.066211	-0.012991	0.855536
	H385	H	-0.068566	-0.008472	0.852038
	H386	H	-0.063274	-0.022254	0.859510
	O387	O	-0.047482	1.051804	0.921137
	H388	H	-0.040774	1.034410	0.932973
	H389	H	-0.038685	1.046095	0.916750
	O390	O	0.012329	0.201659	1.167545
	H391	H	-0.014633	0.200202	1.158987
	H392	H	0.009084	0.217012	1.169737
	O393	O	0.379893	1.293875	-0.301386
	H394	H	0.388415	1.270645	-0.289919
	H395	H	0.370375	1.317727	-0.295152
	O396	O	0.712725	0.278062	0.493844
	H397	H	0.708266	0.268309	0.507412
	H398	H	0.724261	0.273205	0.503067
	O399	O	0.695639	0.668408	0.325548
	H400	H	0.681113	0.646006	0.339303
	H401	H	0.666611	0.656675	0.337762
	O402	O	0.083511	0.056584	1.028678
	H403	H	0.093308	0.053271	1.018596
	H404	H	0.081130	0.068806	1.034521
	O405	O	0.722275	0.507414	-0.278168
	H406	H	0.732645	0.515925	-0.283267
	H407	H	0.736381	0.542770	-0.267865
	O408	O	0.807468	0.789557	1.203269
	H409	H	0.794589	0.785077	1.190780
	H410	H	0.808120	0.772225	1.222604
	O411	O	0.328495	0.670834	0.324750
	H412	H	0.331501	0.658663	0.357174
	H413	H	0.316416	0.657459	0.314813
	O414	O	0.452066	0.332991	0.300852
	H415	H	0.445303	0.335501	0.323057
	H416	H	0.445652	0.337770	0.285290
	O417	O	0.646338	0.603078	0.535854
	H418	H	0.639885	0.610280	0.515709
	H419	H	0.664162	0.608681	0.527085
	O420	O	0.483683	0.545491	0.417086
	H421	H	0.497061	0.530401	0.410361
	H422	H	0.493998	0.532519	0.436536
	O423	O	-0.088353	1.153825	0.055881
	H424	H	-0.098779	1.168653	0.042021
	H425	H	-0.088603	1.139483	0.036451
	O426	O	0.883501	1.189166	0.802912
	H427	H	0.887701	1.180249	0.788140
	H428	H	0.886827	1.175076	0.818532
	O429	O	0.657030	0.500239	0.487869
	H430	H	0.658719	0.505213	0.480274
	H431	H	0.657146	0.490569	0.471908
	O432	O	-0.059795	-0.070575	1.039653
	H433	H	-0.061271	-0.070262	1.033078
	H434	H	-0.071577	-0.071152	1.028531
	O435	O	0.172306	0.133668	-0.106090
	H436	H	0.170024	0.105902	-0.105823
	H437	H	0.159501	0.117351	-0.107612
	O438	O	1.224656	0.012832	0.212811
	H439	H	1.243649	0.039858	0.232804
	H440	H	1.220991	0.039913	0.209123
	O441	O	0.719851	0.443065	0.288691
	H442	H	0.729266	0.428365	0.278976
	H443	H	0.720178	0.434012	0.278191
	O444	O	-0.030018	0.786547	1.151680
	H445	H	-0.031845	0.780282	1.159220
	H446	H	-0.049977	0.786973	1.167211
	O447	O	0.436386	0.683747	0.563971
	H448	H	0.441806	0.687708	0.552677
	H449	H	0.430237	0.670598	0.559496
	O450	O	0.237743	0.217914	0.227079
	H451	H	0.247574	0.224898	0.208071
	H452	H	0.197611	0.224805	0.234820
	O453	O	0.310249	0.384267	0.508337
	H454	H	0.307250	0.363920	0.523101
	H455	H	0.299029	0.385454	0.516570
	O456	O	0.467458	0.511299	0.632807
	H457	H	0.494646	0.505263	0.626255
	H458	H	0.479524	0.503770	0.636722
	O459	O	0.292719	0.515308	0.285573
	H460	H	0.269989	0.512531	0.266411
	H461	H	0.287674	0.515752	0.302551
	O462	O	0.442476	0.429785	0.477943
	H463	H	0.449811	0.419908	0.465771
	H464	H	0.430894	0.421903	0.472213
	O465	O	1.219130	-0.035046	-0.213418
	H466	H	1.218372	-0.044067	-0.219756
	H467	H	1.232880	-0.035988	-0.214747
