data_Molecule from HDF5

_cell_length_a		16.274698
_cell_length_b		16.306663
_cell_length_c		16.101125
_cell_angle_alpha	90.198713
_cell_angle_beta	90.018581
_cell_angle_gamma	90.115328
_symmetry_space_group_name_H-M	'P 1'
_symmetry_Int_Tables_number		1

loop_
	_symmetry_equiv_pos_as_xyz
	x,y,z

loop_
	_atom_site_label
	_atom_site_type_symbol
	_atom_site_fract_x
	_atom_site_fract_y
	_atom_site_fract_z
	H0	H	0.391917	0.843137	0.714142
	H1	H	0.591651	0.168391	0.714367
	H2	H	0.592290	0.843822	0.280358
	H3	H	0.392118	0.169897	0.284215
	H4	H	0.706885	0.407093	0.833231
	H5	H	0.711249	0.609128	0.162476
	H6	H	0.276552	0.607843	0.834620
	H7	H	0.279078	0.405174	0.162357
	H8	H	0.830274	0.720620	0.395231
	H9	H	0.153675	0.725884	0.602838
	H10	H	0.830386	0.289643	0.599324
	H11	H	0.154928	0.286497	0.394748
	H12	H	0.830144	0.407468	0.712095
	H13	H	0.156825	0.605050	0.712982
	H14	H	0.830285	0.603017	0.282240
	H15	H	0.156927	0.405611	0.283190
	H16	H	0.393740	0.719924	0.833572
	H17	H	0.598846	0.726072	0.160821
	H18	H	0.595150	0.290287	0.834783
	H19	H	0.392995	0.291758	0.162144
	H20	H	0.708711	0.843270	0.395428
	H21	H	0.710490	0.167456	0.602253
	H22	H	0.272967	0.844263	0.602720
	H23	H	0.274015	0.167516	0.397900
	H24	H	0.896554	0.340783	0.210441
	H25	H	0.096068	0.667079	0.216371
	H26	H	0.094196	0.342234	0.781584
	H27	H	0.896643	0.668652	0.784921
	H28	H	0.208700	0.902620	0.335010
	H29	H	0.207182	0.106353	0.662998
	H30	H	0.777447	0.104120	0.333778
	H31	H	0.776858	0.905220	0.662497
	H32	H	0.330948	0.223639	0.896470
	H33	H	0.655562	0.223632	0.100822
	H34	H	0.332139	0.785706	0.102425
	H35	H	0.654818	0.787942	0.893972
	H36	H	0.328579	0.906598	0.213306
	H37	H	0.655195	0.106891	0.214924
	H38	H	0.328730	0.103645	0.785840
	H39	H	0.655608	0.906876	0.782316
	H40	H	0.892107	0.219355	0.333624
	H41	H	0.093273	0.220566	0.662669
	H42	H	0.093428	0.788590	0.334735
	H43	H	0.888722	0.789035	0.661703
	H44	H	0.209805	0.342473	0.897067
	H45	H	0.212242	0.667027	0.102120
	H46	H	0.776046	0.343504	0.099052
	H47	H	0.777319	0.667576	0.896465
	H48	H	0.394830	0.124754	0.595986
	H49	H	0.586321	0.892047	0.581446
	H50	H	0.582653	0.122970	0.400358
	H51	H	0.397218	0.887034	0.397605
	H52	H	0.583973	0.414621	0.115733
	H53	H	0.589326	0.591844	0.881451
	H54	H	0.403110	0.597743	0.114847
	H55	H	0.392584	0.416668	0.877640
	H56	H	0.109017	0.603347	0.409892
	H57	H	0.876181	0.597980	0.591240
	H58	H	0.113725	0.408550	0.597241
	H59	H	0.878690	0.416103	0.408110
	H60	H	0.108911	0.407464	0.582088
	H61	H	0.876662	0.597658	0.590221
	H62	H	0.105966	0.594359	0.412251
	H63	H	0.875144	0.411186	0.401469
	H64	H	0.403523	0.596959	0.114279
	H65	H	0.578584	0.596468	0.883354
	H66	H	0.586482	0.414194	0.117157
	H67	H	0.409184	0.420541	0.884221
	H68	H	0.579955	0.118679	0.413477
	H69	H	0.590984	0.885348	0.593774
	H70	H	0.406678	0.120910	0.592817
	H71	H	0.409431	0.894133	0.407831
	H72	H	0.901489	0.621039	0.089251
	H73	H	0.093710	0.385782	0.093067
	H74	H	0.079201	0.620206	0.905617
	H75	H	0.899721	0.385923	0.898903
	H76	H	0.082903	0.916088	0.615473
	H77	H	0.078270	0.089108	0.384863
	H78	H	0.890619	0.095946	0.618993
	H79	H	0.895150	0.913255	0.378924
	H80	H	0.611848	0.111010	0.910011
	H81	H	0.378522	0.099766	0.081813
	H82	H	0.609538	0.922529	0.099141
	H83	H	0.376597	0.911111	0.907259
	H84	H	0.611883	0.904153	0.088289
	H85	H	0.377485	0.093844	0.093836
	H86	H	0.605407	0.092371	0.914694
	H87	H	0.376756	0.913177	0.908291
	H88	H	0.907274	0.091507	0.612914
	H89	H	0.080217	0.103362	0.378857
	H90	H	0.081879	0.915147	0.615142
	H91	H	0.903872	0.917783	0.382983
	H92	H	0.087830	0.619412	0.914262
	H93	H	0.081656	0.389484	0.094830
	H94	H	0.902300	0.622356	0.091983
	H95	H	0.905185	0.391189	0.908643
	H96	H	0.396563	0.119755	0.583858
	H97	H	0.576825	0.890686	0.592809
	H98	H	0.592247	0.123215	0.410130
	H99	H	0.394247	0.890585	0.414903
	H100	H	0.586101	0.416590	0.116674
	H101	H	0.587759	0.602653	0.878823
	H102	H	0.404256	0.597523	0.116206
	H103	H	0.404963	0.404439	0.877498
	H104	H	0.110461	0.595910	0.403574
	H105	H	0.877060	0.596998	0.590838
	H106	H	0.107672	0.420779	0.588897
	H107	H	0.875994	0.408150	0.410249
	H108	H	0.904033	0.621074	0.089737
	H109	H	0.086332	0.391509	0.082943
	H110	H	0.090587	0.623618	0.902835
	H111	H	0.893788	0.388745	0.909244
	H112	H	0.082494	0.914893	0.616117
	H113	H	0.092522	0.094225	0.378434
	H114	H	0.903574	0.107989	0.618466
	H115	H	0.903289	0.907706	0.379731
	H116	H	0.611749	0.095540	0.895367
	H117	H	0.373315	0.105574	0.091478
	H118	H	0.603237	0.921692	0.078023
	H119	H	0.376453	0.912431	0.907066
	C120	C	0.369674	0.014502	0.620740
	C121	C	0.614283	0.996733	0.620226
	C122	C	0.614233	0.014363	0.376732
	C123	C	0.370453	0.997918	0.377204
	C124	C	0.614818	0.385252	0.007654
	C125	C	0.615757	0.627849	0.989489
	C126	C	0.373016	0.626882	0.006908
	C127	C	0.372778	0.384962	0.988871
	C128	C	0.001657	0.626994	0.377131
	C129	C	0.984059	0.627518	0.620467
	C130	C	0.002069	0.383429	0.619220
	C131	C	0.984538	0.382624	0.376582
	C132	C	0.872689	0.513706	0.119596
	C133	C	0.116557	0.496162	0.120634
	C134	C	0.115698	0.513739	0.877182
	C135	C	0.871316	0.496515	0.876660
	C136	C	0.113089	0.884370	0.507372
	C137	C	0.113214	0.125694	0.489656
	C138	C	0.870976	0.126753	0.507588
	C139	C	0.870710	0.883900	0.489223
	C140	C	0.501927	0.128562	0.876902
	C141	C	0.483971	0.129182	0.119898
	C142	C	0.500886	0.884924	0.119258
	C143	C	0.484030	0.883789	0.876795
	C144	C	0.371166	0.892013	0.676978
	C145	C	0.612224	0.119572	0.676527
	C146	C	0.612478	0.892412	0.318730
	C147	C	0.371899	0.120493	0.321400
	C148	C	0.670046	0.386957	0.883137
	C149	C	0.672976	0.628299	0.112974
	C150	C	0.315731	0.626267	0.883635
	C151	C	0.316965	0.386190	0.113018
	C152	C	0.879016	0.682387	0.376648
	C153	C	0.105623	0.685952	0.621050
	C154	C	0.879470	0.327586	0.618639
	C155	C	0.106524	0.325476	0.376222
	C156	C	0.879085	0.386219	0.674879
	C157	C	0.107376	0.625868	0.675929
	C158	C	0.879091	0.624274	0.320133
	C159	C	0.107735	0.384777	0.320611
	C160	C	0.373740	0.682551	0.883107
	C161	C	0.617152	0.686859	0.112142
	C162	C	0.614276	0.328850	0.883719
	C163	C	0.373721	0.329467	0.112857
	C164	C	0.670550	0.892238	0.375886
	C165	C	0.671539	0.118902	0.621033
	C166	C	0.311871	0.892705	0.621331
	C167	C	0.313291	0.119621	0.378266
	C168	C	0.875307	0.390388	0.174046
	C169	C	0.115370	0.618543	0.177755
	C170	C	0.114276	0.390934	0.819925
	C171	C	0.874947	0.619268	0.821297
	C172	C	0.170562	0.883449	0.384303
	C173	C	0.169261	0.125488	0.613649
	C174	C	0.815120	0.124423	0.383242
	C175	C	0.814613	0.885252	0.613128
	C176	C	0.379219	0.184709	0.877529
	C177	C	0.606606	0.185543	0.119994
	C178	C	0.379974	0.825860	0.120532
	C179	C	0.606286	0.826782	0.875650
	C180	C	0.378078	0.885900	0.175723
	C181	C	0.606594	0.127268	0.176570
	C182	C	0.378311	0.125054	0.822277
	C183	C	0.606883	0.886010	0.820158
	C184	C	0.872157	0.181808	0.383315
	C185	C	0.112537	0.182449	0.613477
	C186	C	0.113169	0.826730	0.384112
	C187	C	0.870534	0.827506	0.612688
	C188	C	0.171647	0.391071	0.877651
	C189	C	0.173427	0.618336	0.120875
	C190	C	0.815247	0.391709	0.118790
	C191	C	0.815465	0.618866	0.877059
	C192	C	0.392665	0.099740	0.597550
	C193	C	0.591461	0.911461	0.596289
	C194	C	0.591559	0.099643	0.400877
	C195	C	0.393629	0.912758	0.400179
	C196	C	0.592131	0.408259	0.094226
	C197	C	0.592062	0.604095	0.903394
	C198	C	0.396908	0.604076	0.092890
	C199	C	0.395411	0.407376	0.902342
	C200	C	0.086514	0.604599	0.401450
	C201	C	0.898856	0.604209	0.597599
	C202	C	0.088022	0.405809	0.596215
	C203	C	0.898981	0.405282	0.399631
	C204	C	0.895780	0.599354	0.096841
	C205	C	0.093894	0.410989	0.096998
	C206	C	0.092764	0.598626	0.900674
	C207	C	0.893091	0.410702	0.899266
	C208	C	0.089308	0.908402	0.593217
	C209	C	0.090359	0.102259	0.403190
	C210	C	0.893790	0.104752	0.594329
	C211	C	0.893933	0.906375	0.402768
	C212	C	0.587410	0.106345	0.899823
	C213	C	0.398590	0.106461	0.095903
	C214	C	0.586094	0.909081	0.095441
	C215	C	0.398813	0.905902	0.900548
	Zn216	Zn	0.492293	0.005442	0.748731
	Zn217	Zn	0.491692	0.006945	0.247852
	Zn218	Zn	0.742614	0.505914	-0.001087
	Zn219	Zn	0.244994	0.505276	-0.001738
	Zn220	Zn	-0.008354	0.756269	0.498211
	Zn221	Zn	-0.007005	0.253926	0.498054
	Zn222	Zn	-0.005871	0.504727	0.748225
	Zn223	Zn	-0.005977	0.504993	0.248665
	Zn224	Zn	0.493683	0.755217	-0.002031
	Zn225	Zn	0.493552	0.257519	-0.001834
	Zn226	Zn	0.743039	0.005381	0.498515
	Zn227	Zn	0.241092	0.005570	0.498791
	N228	N	0.406535	0.968708	0.676728
	N229	N	0.577219	0.042619	0.676398
	N230	N	0.578076	0.969468	0.318987
	N231	N	0.406556	0.043579	0.320558
	N232	N	0.670626	0.421297	0.961307
	N233	N	0.672274	0.592369	0.035699
	N234	N	0.315255	0.592348	0.961639
	N235	N	0.316254	0.420121	0.034836
	N236	N	0.956253	0.684328	0.411317
	N237	N	0.028055	0.687158	0.587189
	N238	N	0.957039	0.325830	0.584679
	N239	N	0.029034	0.324050	0.410182
	N240	N	0.956506	0.420090	0.675663
	N241	N	0.030798	0.590080	0.675709
	N242	N	0.956116	0.590223	0.320439
	N243	N	0.030756	0.419717	0.320533
	N244	N	0.408806	0.683096	0.960867
	N245	N	0.582182	0.686758	0.034262
	N246	N	0.580724	0.327552	0.962076
	N247	N	0.407971	0.328715	0.034721
	N248	N	0.671619	0.969109	0.411336
	N249	N	0.673071	0.041457	0.586932
	N250	N	0.310904	0.969816	0.587062
	N251	N	0.312216	0.042340	0.412152
	N252	N	0.910158	0.467568	0.174935
	N253	N	0.080895	0.541565	0.178129
	N254	N	0.079977	0.467903	0.819571
	N255	N	0.909000	0.542094	0.820808
	N256	N	0.170780	0.918584	0.462144
	N257	N	0.169806	0.090894	0.535605
	N258	N	0.814253	0.090945	0.461553
	N259	N	0.814559	0.919611	0.535246
	N260	N	0.457096	0.187310	0.910553
	N261	N	0.529314	0.186798	0.085432
	N262	N	0.457523	0.825172	0.086362
	N263	N	0.529009	0.825332	0.910207
	N264	N	0.454471	0.921967	0.175063
	N265	N	0.529395	0.093001	0.176823
	N266	N	0.455439	0.090716	0.821748
	N267	N	0.529995	0.920633	0.820623
	N268	N	0.905793	0.183848	0.461721
	N269	N	0.078458	0.182829	0.535320
	N270	N	0.078173	0.827044	0.461634
	N271	N	0.904646	0.826415	0.534571
	N272	N	0.172790	0.468349	0.912369
	N273	N	0.174228	0.541292	0.085954
	N274	N	0.813417	0.469520	0.086110
	N275	N	0.813114	0.541528	0.910606
	O276	O	0.997011	-0.078344	0.924326
	H277	H	0.993820	-0.070030	0.938897
	H278	H	0.994801	-0.085134	0.936999
	O279	O	0.479192	0.557783	0.523139
	H280	H	0.478316	0.551839	0.512860
	H281	H	0.475104	0.559261	0.520016
	O282	O	0.551421	0.429093	0.568287
	H283	H	0.564806	0.426727	0.570783
	H284	H	0.540841	0.430450	0.570236
	O285	O	0.594824	0.434982	0.428396
	H286	H	0.602034	0.431272	0.425022
	H287	H	0.597848	0.427671	0.434405
	O288	O	0.600445	0.439074	0.565322
	H289	H	0.595889	0.458353	0.571997
	H290	H	0.601405	0.437767	0.566175
	O291	O	0.068725	0.021755	1.049113
	H292	H	0.055828	0.030333	1.042755
	H293	H	0.074209	0.010088	1.044844
	O294	O	0.985221	0.890692	-0.108505
	H295	H	0.980808	0.885161	-0.098742
	H296	H	0.999069	0.886496	-0.104311
	O297	O	0.863775	1.069709	-0.012803
	H298	H	0.870146	1.071927	-0.026528
	H299	H	0.858297	1.092883	-0.021646
	O300	O	0.431915	0.516885	0.497093
	H301	H	0.432237	0.517034	0.496809
	H302	H	0.428967	0.523806	0.474908
	O303	O	0.370832	0.628235	0.474357
	H304	H	0.372305	0.636356	0.475794
	H305	H	0.382826	0.640947	0.493879
	O306	O	0.583557	0.574305	0.520122
	H307	H	0.597965	0.568453	0.524979
	H308	H	0.589575	0.560055	0.519308
	O309	O	0.539207	0.407745	0.562710
	H310	H	0.532830	0.410684	0.560690
	H311	H	0.541933	0.402750	0.562458
	O312	O	0.908594	0.981159	1.078515
	H313	H	0.901598	0.984913	1.079431
	H314	H	0.909223	0.983980	1.064364
	O315	O	1.176558	0.891738	-0.075354
	H316	H	1.175615	0.886044	-0.087571
	H317	H	1.179589	0.878179	-0.093827
	O318	O	0.473185	0.594276	0.347765
	H319	H	0.467921	0.594017	0.342830
	H320	H	0.463134	0.598219	0.350612
	O321	O	0.588142	0.506362	0.424768
	H322	H	0.584581	0.501360	0.402036
	H323	H	0.591380	0.516235	0.418995
	O324	O	0.024969	0.981119	0.864090
	H325	H	0.017900	0.984512	0.861056
	H326	H	0.025768	0.979572	0.870320
	O327	O	-0.072626	1.025628	0.959070
	H328	H	-0.068665	1.029453	0.954257
	H329	H	-0.085074	1.024991	0.944336
	O330	O	-0.068689	0.029518	-0.034570
	H331	H	-0.075312	0.027179	-0.044317
	H332	H	-0.066801	0.023929	-0.036398
	O333	O	0.439590	0.401690	0.654739
	H334	H	0.446548	0.411567	0.662386
	H335	H	0.435111	0.407926	0.647294
	O336	O	0.026949	-0.032234	0.023871
	H337	H	0.023243	-0.039218	0.024750
	H338	H	0.026741	-0.031900	0.024920
	O339	O	-0.121842	-0.093276	0.125244
	H340	H	-0.126086	-0.085017	0.119897
	H341	H	-0.126571	-0.079590	0.125475
	O342	O	0.520271	0.630669	0.389493
	H343	H	0.519045	0.632809	0.384914
	H344	H	0.523456	0.634917	0.382665
	O345	O	0.063810	1.081871	1.011071
	H346	H	0.075364	1.084190	1.021325
	H347	H	0.057787	1.076675	1.010421
	O348	O	0.307412	0.563913	0.470190
	H349	H	0.311922	0.550613	0.482505
	H350	H	0.296063	0.564197	0.471449
	O351	O	0.497298	0.633941	0.473565
	H352	H	0.485611	0.633682	0.467229
	H353	H	0.503355	0.626942	0.479064
	O354	O	0.472294	0.508735	0.540249
	H355	H	0.484579	0.522345	0.540564
	H356	H	0.462970	0.509046	0.533061
	O357	O	0.401030	0.475555	0.340662
	H358	H	0.400154	0.469337	0.334113
	H359	H	0.402097	0.475323	0.345726
	O360	O	1.064815	-0.025536	0.998426
	H361	H	1.071375	-0.025808	1.003043
	H362	H	1.068064	-0.023552	1.006526
	O363	O	0.590977	0.518288	0.468144
	H364	H	0.584800	0.520152	0.463435
	H365	H	0.595844	0.514249	0.470988
	O366	O	0.420382	0.511323	0.603089
	H367	H	0.406647	0.518056	0.601178
	H368	H	0.424921	0.504080	0.606806
	O369	O	0.966013	-0.114816	0.165365
	H370	H	0.969519	-0.112880	0.179440
	H371	H	0.940906	-0.103546	0.162620
	O372	O	0.399280	0.391464	0.414973
	H373	H	0.396843	0.402030	0.421304
	H374	H	0.410169	0.386473	0.428756
	O375	O	0.916648	0.072142	0.957232
	H376	H	0.915741	0.075063	0.973425
	H377	H	0.926058	0.070165	0.939286
	O378	O	0.086829	0.996355	-0.000734
	H379	H	0.076092	0.983885	0.002868
	H380	H	0.098201	0.991928	-0.001648
	O381	O	0.589073	0.504077	0.501982
	H382	H	0.576188	0.513536	0.512805
	H383	H	0.595238	0.492883	0.495824
	O384	O	1.115124	1.093110	0.072363
	H385	H	1.117308	1.094107	0.073664
	H386	H	1.122243	1.092615	0.087678
	O387	O	1.033643	0.098971	1.019737
	H388	H	1.032128	0.107479	1.022657
	H389	H	1.046508	0.093638	1.021325
	O390	O	0.897383	0.937094	-0.094199
	H391	H	0.912366	0.938217	-0.093915
	H392	H	0.891106	0.935572	-0.095363
	O393	O	0.434101	0.482299	0.597869
	H394	H	0.445102	0.475332	0.602676
	H395	H	0.435989	0.481835	0.598105
