data_Molecule from HDF5

_cell_length_a		16.634561
_cell_length_b		16.472258
_cell_length_c		16.633813
_cell_angle_alpha	90.084693
_cell_angle_beta	89.871514
_cell_angle_gamma	90.042078
_symmetry_space_group_name_H-M	'P 1'
_symmetry_Int_Tables_number		1

loop_
	_symmetry_equiv_pos_as_xyz
	x,y,z

loop_
	_atom_site_label
	_atom_site_type_symbol
	_atom_site_fract_x
	_atom_site_fract_y
	_atom_site_fract_z
	H0	H	0.394693	0.838985	0.734905
	H1	H	0.600908	0.155743	0.734254
	H2	H	0.607264	0.842967	0.292060
	H3	H	0.394716	0.153754	0.295823
	H4	H	0.720600	0.391617	0.859871
	H5	H	0.722100	0.607129	0.169488
	H6	H	0.276092	0.604293	0.860419
	H7	H	0.271858	0.387397	0.169022
	H8	H	0.844443	0.721029	0.410453
	H9	H	0.154131	0.721532	0.622608
	H10	H	0.842881	0.278072	0.618373
	H11	H	0.154151	0.275413	0.408858
	H12	H	0.843606	0.392127	0.737351
	H13	H	0.154389	0.604278	0.738846
	H14	H	0.844473	0.606054	0.292761
	H15	H	0.152604	0.389105	0.289782
	H16	H	0.395244	0.718316	0.859623
	H17	H	0.605654	0.723347	0.169265
	H18	H	0.602969	0.276131	0.859705
	H19	H	0.387362	0.271850	0.167780
	H20	H	0.720857	0.841082	0.409729
	H21	H	0.719077	0.155140	0.619562
	H22	H	0.276691	0.840016	0.621110
	H23	H	0.278839	0.153879	0.412073
	H24	H	0.895150	0.340344	0.233653
	H25	H	0.103272	0.655581	0.237234
	H26	H	0.101313	0.339875	0.796824
	H27	H	0.895294	0.656115	0.796193
	H28	H	0.223284	0.889645	0.360661
	H29	H	0.220667	0.104703	0.671787
	H30	H	0.779373	0.101057	0.359340
	H31	H	0.778779	0.893643	0.673079
	H32	H	0.342964	0.219881	0.910015
	H33	H	0.653267	0.220958	0.119871
	H34	H	0.342083	0.777142	0.120517
	H35	H	0.655350	0.778138	0.912211
	H36	H	0.343880	0.890482	0.240104
	H37	H	0.651709	0.108695	0.240367
	H38	H	0.342242	0.102244	0.794251
	H39	H	0.654932	0.892496	0.794109
	H40	H	0.897383	0.215516	0.357662
	H41	H	0.102432	0.218668	0.672023
	H42	H	0.105778	0.774891	0.359717
	H43	H	0.897537	0.779108	0.673785
	H44	H	0.218961	0.341110	0.911389
	H45	H	0.220326	0.655417	0.123183
	H46	H	0.780006	0.339885	0.116728
	H47	H	0.779090	0.656238	0.912446
	H48	H	0.404772	0.110131	0.602810
	H49	H	0.586525	0.883529	0.610024
	H50	H	0.585620	0.108173	0.432015
	H51	H	0.411316	0.884355	0.428937
	H52	H	0.583636	0.410702	0.124636
	H53	H	0.595318	0.581269	0.903820
	H54	H	0.410691	0.584828	0.125769
	H55	H	0.414867	0.410880	0.907503
	H56	H	0.107774	0.580931	0.429785
	H57	H	0.887421	0.589400	0.604268
	H58	H	0.111261	0.408015	0.605500
	H59	H	0.886188	0.408177	0.424104
	H60	H	0.110714	0.408478	0.605861
	H61	H	0.890039	0.584459	0.604486
	H62	H	0.110077	0.582823	0.421476
	H63	H	0.887273	0.406832	0.426996
	H64	H	0.409792	0.588904	0.127409
	H65	H	0.580923	0.585272	0.907929
	H66	H	0.588805	0.406687	0.128144
	H67	H	0.407641	0.407157	0.903290
	H68	H	0.593618	0.111290	0.429727
	H69	H	0.585599	0.886748	0.600516
	H70	H	0.409216	0.111333	0.610140
	H71	H	0.414695	0.885536	0.427981
	H72	H	0.914667	0.611360	0.110079
	H73	H	0.092311	0.384780	0.100492
	H74	H	0.083083	0.609405	0.928007
	H75	H	0.910402	0.383668	0.919721
	H76	H	0.093068	0.916018	0.625708
	H77	H	0.094058	0.084045	0.403431
	H78	H	0.909757	0.086134	0.626963
	H79	H	0.908651	0.913690	0.406099
	H80	H	0.611320	0.088574	0.921421
	H81	H	0.387005	0.084111	0.107647
	H82	H	0.607302	0.915955	0.105408
	H83	H	0.386418	0.906297	0.925982
	H84	H	0.610836	0.909117	0.106882
	H85	H	0.387468	0.086438	0.103421
	H86	H	0.608615	0.088592	0.928463
	H87	H	0.387117	0.909801	0.924644
	H88	H	0.909873	0.088753	0.627174
	H89	H	0.085852	0.082782	0.406410
	H90	H	0.080528	0.911683	0.622726
	H91	H	0.914084	0.906956	0.406081
	H92	H	0.088683	0.610573	0.931130
	H93	H	0.082562	0.385971	0.108953
	H94	H	0.910385	0.608875	0.097940
	H95	H	0.911610	0.387472	0.930289
	H96	H	0.413535	0.107561	0.603421
	H97	H	0.594514	0.882801	0.603646
	H98	H	0.587082	0.111166	0.423689
	H99	H	0.413567	0.886604	0.431292
	H100	H	0.590082	0.413874	0.126843
	H101	H	0.589857	0.595475	0.900074
	H102	H	0.406322	0.585682	0.127520
	H103	H	0.407691	0.416172	0.905666
	H104	H	0.110877	0.589222	0.428527
	H105	H	0.886971	0.586143	0.609040
	H106	H	0.111346	0.408490	0.606448
	H107	H	0.888791	0.410307	0.426206
	H108	H	0.901943	0.613525	0.106266
	H109	H	0.081368	0.390312	0.096880
	H110	H	0.088253	0.612467	0.924817
	H111	H	0.902167	0.383651	0.927054
	H112	H	0.088698	0.903339	0.629368
	H113	H	0.088474	0.090555	0.402780
	H114	H	0.907469	0.087694	0.627696
	H115	H	0.906587	0.905906	0.402706
	H116	H	0.608828	0.082247	0.924778
	H117	H	0.389097	0.081738	0.103521
	H118	H	0.608797	0.910319	0.099537
	H119	H	0.385016	0.907207	0.922364
	C120	C	0.376711	0.005678	0.637665
	C121	C	0.619791	0.988878	0.636288
	C122	C	0.621287	0.006796	0.394676
	C123	C	0.379964	0.988982	0.396787
	C124	C	0.619290	0.377620	0.023698
	C125	C	0.620921	0.620779	1.006468
	C126	C	0.376843	0.619234	0.024069
	C127	C	0.375920	0.376789	1.007029
	C128	C	0.007148	0.618119	0.394756
	C129	C	0.990888	0.619426	0.638040
	C130	C	0.007840	0.376408	0.637019
	C131	C	0.990127	0.376078	0.393096
	C132	C	0.877458	0.506942	0.136026
	C133	C	0.118573	0.490318	0.135825
	C134	C	0.118809	0.506630	0.895518
	C135	C	0.876660	0.489303	0.893975
	C136	C	0.120688	0.876441	0.523595
	C137	C	0.121238	0.119029	0.507357
	C138	C	0.878129	0.118892	0.523716
	C139	C	0.877988	0.876671	0.508310
	C140	C	0.506484	0.118836	0.893465
	C141	C	0.489803	0.119087	0.137332
	C142	C	0.506467	0.877672	0.137059
	C143	C	0.489602	0.875757	0.892773
	C144	C	0.375479	0.886662	0.695987
	C145	C	0.620114	0.108284	0.694683
	C146	C	0.624656	0.889444	0.333060
	C147	C	0.377009	0.107099	0.336518
	C148	C	0.679966	0.373980	0.906552
	C149	C	0.681571	0.624722	0.122974
	C150	C	0.316774	0.621917	0.907021
	C151	C	0.313016	0.371084	0.122375
	C152	C	0.890699	0.679911	0.392253
	C153	C	0.107818	0.680509	0.640550
	C154	C	0.889917	0.317204	0.637944
	C155	C	0.107241	0.315569	0.390396
	C156	C	0.890366	0.374181	0.696799
	C157	C	0.107856	0.622524	0.698361
	C158	C	0.890979	0.622939	0.333524
	C159	C	0.106476	0.372197	0.331375
	C160	C	0.375827	0.678759	0.906346
	C161	C	0.623617	0.682463	0.122946
	C162	C	0.621289	0.316682	0.906447
	C163	C	0.370701	0.313341	0.122055
	C164	C	0.681164	0.888541	0.391534
	C165	C	0.678860	0.108077	0.638016
	C166	C	0.316792	0.887222	0.639618
	C167	C	0.319489	0.106963	0.394170
	C168	C	0.876384	0.387796	0.194106
	C169	C	0.121621	0.608296	0.197138
	C170	C	0.120531	0.387499	0.836250
	C171	C	0.876331	0.608649	0.835620
	C172	C	0.182526	0.871996	0.407198
	C173	C	0.180703	0.122140	0.624730
	C174	C	0.819192	0.119777	0.406187
	C175	C	0.818838	0.875243	0.626032
	C176	C	0.389428	0.179353	0.891480
	C177	C	0.606341	0.180927	0.139061
	C178	C	0.389313	0.816997	0.139435
	C179	C	0.607977	0.816895	0.892508
	C180	C	0.390199	0.873263	0.198960
	C181	C	0.605569	0.125018	0.198937
	C182	C	0.389196	0.121104	0.833817
	C183	C	0.607764	0.873921	0.833895
	C184	C	0.878014	0.176663	0.405308
	C185	C	0.122010	0.179105	0.624902
	C186	C	0.123801	0.815067	0.406757
	C187	C	0.877807	0.818206	0.626418
	C188	C	0.178679	0.387954	0.893322
	C189	C	0.179695	0.608226	0.140019
	C190	C	0.818993	0.387516	0.136135
	C191	C	0.818365	0.608664	0.893144
	C192	C	0.401979	0.088186	0.612626
	C193	C	0.595787	0.905900	0.611822
	C194	C	0.595881	0.088822	0.420903
	C195	C	0.405870	0.906915	0.422232
	C196	C	0.594510	0.403361	0.105151
	C197	C	0.595873	0.594838	0.924926
	C198	C	0.401897	0.593943	0.105572
	C199	C	0.402742	0.403739	0.926328
	C200	C	0.088482	0.591937	0.419602
	C201	C	0.909338	0.593877	0.613028
	C202	C	0.089824	0.401059	0.612647
	C203	C	0.908514	0.401244	0.418562
	C204	C	0.901831	0.589726	0.111765
	C205	C	0.092718	0.408223	0.109740
	C206	C	0.093791	0.589187	0.920605
	C207	C	0.900962	0.406510	0.918533
	C208	C	0.094891	0.902800	0.604807
	C209	C	0.096524	0.093226	0.425704
	C210	C	0.902262	0.094583	0.605956
	C211	C	0.902664	0.901615	0.426322
	C212	C	0.588240	0.093786	0.917884
	C213	C	0.408905	0.092033	0.111936
	C214	C	0.587884	0.904187	0.111242
	C215	C	0.407624	0.900505	0.917268
	Zn216	Zn	0.498749	-0.002985	0.764819
	Zn217	Zn	0.499273	-0.002329	0.267040
	Zn218	Zn	0.748726	0.498422	0.015626
	Zn219	Zn	0.247426	0.498309	0.016069
	Zn220	Zn	-0.000259	0.747365	0.515926
	Zn221	Zn	-0.000612	0.247769	0.515074
	Zn222	Zn	-0.000922	0.498077	0.766566
	Zn223	Zn	-0.001515	0.498115	0.264785
	Zn224	Zn	0.498260	0.748682	0.015876
	Zn225	Zn	0.497270	0.247877	0.015056
	Zn226	Zn	0.748669	-0.002335	0.515782
	Zn227	Zn	0.249555	-0.002871	0.515665
	N228	N	0.411692	0.961515	0.695203
	N229	N	0.584275	0.033157	0.694002
	N230	N	0.588390	0.964149	0.334589
	N231	N	0.414128	0.032664	0.337988
	N232	N	0.678881	0.411117	0.980528
	N233	N	0.680146	0.587078	0.049482
	N234	N	0.317321	0.585734	0.981171
	N235	N	0.316280	0.410014	0.049801
	N236	N	0.964029	0.677082	0.429762
	N237	N	0.034010	0.678696	0.603893
	N238	N	0.964007	0.318340	0.601657
	N239	N	0.033784	0.317756	0.428039
	N240	N	0.964737	0.410338	0.696580
	N241	N	0.034093	0.585191	0.696970
	N242	N	0.964418	0.585008	0.335213
	N243	N	0.032527	0.408854	0.332669
	N244	N	0.412647	0.677256	0.980228
	N245	N	0.586499	0.680045	0.049463
	N246	N	0.584218	0.318537	0.980304
	N247	N	0.409725	0.317022	0.049406
	N248	N	0.679220	0.962604	0.429191
	N249	N	0.679092	0.032657	0.602794
	N250	N	0.317123	0.962551	0.604429
	N251	N	0.321278	0.032456	0.430880
	N252	N	0.911777	0.462985	0.194326
	N253	N	0.084565	0.533719	0.194925
	N254	N	0.084167	0.462363	0.837501
	N255	N	0.911532	0.533165	0.835733
	N256	N	0.180725	0.909307	0.480933
	N257	N	0.180415	0.085517	0.550579
	N258	N	0.819010	0.084628	0.480919
	N259	N	0.818574	0.910542	0.551370
	N260	N	0.463381	0.178217	0.927620
	N261	N	0.533139	0.177470	0.101340
	N262	N	0.462730	0.819562	0.101605
	N263	N	0.533324	0.817562	0.928150
	N264	N	0.464368	0.909941	0.197818
	N265	N	0.532177	0.087164	0.197911
	N266	N	0.463188	0.084250	0.834738
	N267	N	0.533192	0.909477	0.833715
	N268	N	0.913945	0.176288	0.479621
	N269	N	0.085801	0.177585	0.550866
	N270	N	0.086155	0.817464	0.480364
	N271	N	0.913598	0.818653	0.551943
	N272	N	0.178051	0.463158	0.929274
	N273	N	0.177960	0.533740	0.102733
	N274	N	0.819243	0.462815	0.100882
	N275	N	0.818199	0.533377	0.928512
	O276	O	-0.720661	0.712245	-0.506349
	H277	H	-0.723309	0.721982	-0.512715
	H278	H	-0.728620	0.724015	-0.525120
	O279	O	0.290264	0.293471	0.720975
	H280	H	0.283241	0.325663	0.731146
	H281	H	0.266626	0.284604	0.731829
	O282	O	0.942118	-0.098392	1.192902
	H283	H	0.943770	-0.094966	1.177990
	H284	H	0.932982	-0.089980	1.192757
	O285	O	-0.125166	-0.100724	-0.168378
	H286	H	-0.113630	-0.086079	-0.159633
	H287	H	-0.116051	-0.100404	-0.146977
	O288	O	0.589591	0.407006	0.443066
	H289	H	0.586946	0.401339	0.442622
	H290	H	0.602473	0.413334	0.440058
	O291	O	0.475019	0.715308	0.294924
	H292	H	0.466540	0.719123	0.297799
	H293	H	0.480507	0.726710	0.280389
	O294	O	1.180726	0.167112	0.858365
	H295	H	1.180078	0.156757	0.888554
	H296	H	1.147484	0.159069	0.863486
	O297	O	0.711274	0.283516	0.479331
	H298	H	0.723536	0.264208	0.475072
	H299	H	0.710570	0.294553	0.478120
	O300	O	0.008822	-0.192458	0.808358
	H301	H	0.027597	-0.204120	0.793523
	H302	H	0.024077	-0.191888	0.809597
	O303	O	0.286041	0.522462	0.553827
	H304	H	0.299894	0.518849	0.541084
	H305	H	0.287033	0.533995	0.546430
	O306	O	1.216364	0.212080	0.234509
	H307	H	1.249894	0.243353	0.262040
	H308	H	1.220864	0.177677	0.235535
	O309	O	0.697125	0.696890	0.716120
	H310	H	0.671608	0.674951	0.723349
	H311	H	0.715345	0.686436	0.737688
	O312	O	0.531866	0.717770	0.737121
	H313	H	0.525636	0.728049	0.746660
	H314	H	0.543405	0.725428	0.747762
	O315	O	1.048613	1.139631	1.053156
	H316	H	1.046368	1.141465	1.059469
	H317	H	1.064647	1.145567	1.063055
	O318	O	0.426907	0.310437	0.509055
	H319	H	0.424686	0.300199	0.515332
	H320	H	0.413920	0.318891	0.514260
	O321	O	0.176541	0.956780	0.041380
	H322	H	0.179972	0.952190	0.036825
	H323	H	0.178461	0.945204	0.018944
	O324	O	0.964783	1.210751	-0.201029
	H325	H	0.947697	1.228928	-0.207861
	H326	H	0.943042	1.222706	-0.197951
	O327	O	-0.107260	0.025791	0.916621
	H328	H	-0.091830	0.036688	0.920226
	H329	H	-0.107808	0.019068	0.923036
	O330	O	0.278859	0.283977	0.532935
	H331	H	0.269753	0.270289	0.542849
	H332	H	0.273098	0.281637	0.552178
	O333	O	0.713785	0.555554	0.479059
	H334	H	0.722436	0.562504	0.478033
	H335	H	0.712934	0.583122	0.472113
	O336	O	1.205641	1.012500	-0.044485
	H337	H	1.208537	1.005670	-0.061018
	H338	H	1.202771	1.023227	-0.038999
	O339	O	1.515131	-0.507928	0.488454
	H340	H	1.521259	-0.493374	0.482832
	H341	H	1.527741	-0.504507	0.482474
	O342	O	0.006646	0.126189	0.197962
	H343	H	0.015394	0.147150	0.202664
	H344	H	0.027559	0.131536	0.185596
	O345	O	-0.060040	0.998650	1.065153
	H346	H	-0.056959	0.991233	1.069726
	H347	H	-0.053529	1.004807	1.065291
	O348	O	0.283584	-0.537274	0.733144
	H349	H	0.273395	-0.522696	0.737700
	H350	H	0.279042	-0.527446	0.725872
	O351	O	0.792943	0.791262	0.225568
	H352	H	0.800888	0.807894	0.199350
	H353	H	0.820538	0.806107	0.218616
	O354	O	0.061495	0.169110	1.095030
	H355	H	0.064026	0.153448	1.104899
	H356	H	0.073599	0.178198	1.107219
	O357	O	0.436770	0.443885	0.279888
	H358	H	0.453852	0.419242	0.273967
	H359	H	0.446898	0.446932	0.280724
	O360	O	0.346422	0.301038	0.355505
	H361	H	0.381047	0.311390	0.354544
	H362	H	0.337296	0.319700	0.384054
	O363	O	0.190500	-0.036427	-0.204837
	H364	H	0.195384	-0.019302	-0.226430
	H365	H	0.177300	-0.021054	-0.217727
	O366	O	0.745131	0.888356	0.220928
	H367	H	0.755193	0.903368	0.213325
	H368	H	0.732753	0.892488	0.223575
	O369	O	0.642257	0.696919	0.377001
	H370	H	0.647551	0.707219	0.365030
	H371	H	0.659497	0.702112	0.379418
	O372	O	0.936540	1.070417	0.190280
	H373	H	0.951357	1.068628	0.185595
	H374	H	0.936159	1.034894	0.189242
	O375	O	0.780282	-0.079150	-0.066696
	H376	H	0.781583	-0.055793	-0.061485
	H377	H	0.771394	-0.085341	-0.054839
	O378	O	0.449683	0.541775	0.690759
	H379	H	0.446691	0.542750	0.684168
	H380	H	0.460187	0.539558	0.687906
	O381	O	-0.315129	1.313210	0.698695
	H382	H	-0.338050	1.323677	0.681057
	H383	H	-0.329916	1.331973	0.682061
	O384	O	0.780351	0.210899	0.979944
	H385	H	0.762991	0.225047	0.970890
	H386	H	0.779758	0.217656	0.958363
	O387	O	1.074161	0.836127	0.170934
	H388	H	1.062417	0.829773	0.180491
	H389	H	1.068850	0.819460	0.169120
	O390	O	0.462073	0.674794	0.504643
	H391	H	0.467054	0.666171	0.500874
	H392	H	0.481624	0.686877	0.502150
	O393	O	0.201626	-0.200959	-0.186197
	H394	H	0.225121	-0.227583	-0.218247
	H395	H	0.208560	-0.154592	-0.191717
	O396	O	-0.449250	1.443351	0.744341
	H397	H	-0.467799	1.432044	0.746722
	H398	H	-0.455278	1.443601	0.741152
	O399	O	0.387928	0.546305	0.461154
	H400	H	0.397428	0.545874	0.468672
	H401	H	0.394013	0.549639	0.476605
	O402	O	0.557287	0.554453	0.285313
	H403	H	0.570248	0.544118	0.287501
	H404	H	0.548523	0.566903	0.288129
	O405	O	0.998311	0.121695	1.232915
	H406	H	1.006168	0.137415	1.240618
	H407	H	1.009273	0.130263	1.237653
	O408	O	0.188935	0.051380	0.195623
	H409	H	0.200948	0.039623	0.212180
	H410	H	0.180312	0.031707	0.175906
	O411	O	0.002949	0.801298	1.013149
	H412	H	0.014424	0.794654	1.004104
	H413	H	0.024495	0.813734	1.010256
	O414	O	0.460849	0.520610	0.428227
	H415	H	0.461695	0.518922	0.420299
	H416	H	0.471592	0.531129	0.425744
	O417	O	0.457224	0.685892	0.615318
	H418	H	0.472097	0.688685	0.612617
	H419	H	0.465321	0.694504	0.613960
	O420	O	0.276376	0.522287	0.294720
	H421	H	0.284577	0.505912	0.296768
	H422	H	0.260860	0.519861	0.274952
	O423	O	0.523863	-0.715083	0.291979
	H424	H	0.545606	-0.723427	0.304123
	H425	H	0.541316	-0.742039	0.275574
	O426	O	-0.219556	0.034322	-0.199674
	H427	H	-0.211497	0.025038	-0.201932
	H428	H	-0.227773	0.027852	-0.211137
	O429	O	0.984871	0.797317	1.146406
	H430	H	1.003259	0.802257	1.152802
	H431	H	1.001556	0.803915	1.140429
	O432	O	1.013414	0.899758	0.009604
	H433	H	1.011085	0.902771	0.008222
	H434	H	1.028906	0.892250	0.005037
	O435	O	-0.208431	1.203484	-0.187210
	H436	H	-0.230766	1.207017	-0.212185
	H437	H	-0.215976	1.184848	-0.190376
	O438	O	-0.045457	0.076005	-0.002704
	H439	H	-0.041007	0.070480	-0.012124
	H440	H	-0.055137	0.082249	-0.016148
	O441	O	0.171466	0.211366	0.025969
	H442	H	0.177212	0.216349	0.038955
	H443	H	0.173679	0.216161	0.039102
	O444	O	0.369640	0.440616	0.542914
	H445	H	0.370494	0.427895	0.550269
	H446	H	0.390794	0.441285	0.532783
	O447	O	-0.215299	0.789996	1.046917
	H448	H	-0.216982	0.784607	1.042482
	H449	H	-0.219892	0.784308	1.049477
	O450	O	-0.276385	0.718497	1.551210
	H451	H	-0.241253	0.755394	1.557051
	H452	H	-0.286874	0.707069	1.597481
	O453	O	0.728749	0.441428	0.577880
	H454	H	0.724430	0.448030	0.556017
	H455	H	0.733568	0.453779	0.582838
	O456	O	-0.018266	-0.067038	0.988111
	H457	H	-0.021518	-0.080184	0.990362
	H458	H	-0.014644	-0.055663	0.984360
	O459	O	1.212684	0.804095	0.008460
	H460	H	1.216046	0.789851	-0.017083
	H461	H	1.231543	0.788613	0.004219
	O462	O	0.720116	0.532734	0.738217
	H463	H	0.707938	0.515984	0.738938
	H464	H	0.742856	0.524319	0.759292
	O465	O	1.298493	-0.306711	0.314426
	H466	H	1.311184	-0.337849	0.309115
	H467	H	1.309836	-0.315784	0.332997
	O468	O	0.563985	0.297711	0.568581
	H469	H	0.568042	0.292445	0.555682
	H470	H	0.541899	0.291740	0.581464
	O471	O	0.497657	0.516321	0.545228
	H472	H	0.505955	0.520510	0.544439
	H473	H	0.507705	0.522620	0.538547
	O474	O	0.313181	0.677493	0.699783
	H475	H	0.327231	0.658860	0.682549
	H476	H	0.333584	0.663351	0.678932
	O477	O	0.722403	0.464722	1.288177
	H478	H	0.734524	0.470265	1.283481
	H479	H	0.727221	0.458756	1.274236
	O480	O	0.470719	0.279675	0.738042
	H481	H	0.440256	0.273390	0.744834
	H482	H	0.456642	0.265476	0.753256
	O483	O	1.089330	1.023662	0.791102
	H484	H	1.069842	1.034985	0.786192
	H485	H	1.072555	1.025062	0.806022
	O486	O	0.713027	0.289663	1.304299
	H487	H	0.722175	0.301592	1.309291
	H488	H	0.715293	0.284626	1.301159
	O489	O	0.818239	1.066722	0.172987
	H490	H	0.824841	1.079256	0.169503
	H491	H	0.830845	1.069373	0.183937
