data_Molecule from HDF5

_cell_length_a		16.197499
_cell_length_b		16.285763
_cell_length_c		16.279808
_cell_angle_alpha	89.774997
_cell_angle_beta	89.836542
_cell_angle_gamma	90.046488
_symmetry_space_group_name_H-M	'P 1'
_symmetry_Int_Tables_number		1

loop_
	_symmetry_equiv_pos_as_xyz
	x,y,z

loop_
	_atom_site_label
	_atom_site_type_symbol
	_atom_site_fract_x
	_atom_site_fract_y
	_atom_site_fract_z
	H0	H	0.391331	0.831741	0.723258
	H1	H	0.590717	0.158585	0.718887
	H2	H	0.588942	0.830470	0.291854
	H3	H	0.393888	0.158859	0.291452
	H4	H	0.706861	0.397686	0.843113
	H5	H	0.703570	0.591963	0.171027
	H6	H	0.278594	0.593671	0.841681
	H7	H	0.277948	0.398009	0.170710
	H8	H	0.826644	0.708889	0.409092
	H9	H	0.155757	0.709435	0.603747
	H10	H	0.826297	0.280777	0.605999
	H11	H	0.155154	0.282019	0.409189
	H12	H	0.826854	0.397046	0.722150
	H13	H	0.156007	0.592621	0.718674
	H14	H	0.826968	0.594063	0.292529
	H15	H	0.155251	0.397233	0.293036
	H16	H	0.392898	0.711811	0.843230
	H17	H	0.588683	0.709431	0.170081
	H18	H	0.590182	0.282356	0.842005
	H19	H	0.392342	0.280249	0.169792
	H20	H	0.704592	0.830288	0.408652
	H21	H	0.703698	0.158806	0.601482
	H22	H	0.276878	0.830770	0.604291
	H23	H	0.277989	0.159268	0.408142
	H24	H	0.892558	0.331365	0.222289
	H25	H	0.089144	0.658595	0.220435
	H26	H	0.090036	0.331662	0.792847
	H27	H	0.892214	0.659095	0.791561
	H28	H	0.203125	0.898943	0.342364
	H29	H	0.203208	0.090414	0.670163
	H30	H	0.778629	0.092890	0.341944
	H31	H	0.776234	0.897312	0.669476
	H32	H	0.326482	0.210219	0.908076
	H33	H	0.656030	0.209058	0.102571
	H34	H	0.326357	0.781265	0.104964
	H35	H	0.655737	0.781601	0.907383
	H36	H	0.325944	0.897352	0.219892
	H37	H	0.656656	0.091884	0.218057
	H38	H	0.326604	0.094161	0.791909
	H39	H	0.655821	0.898036	0.791820
	H40	H	0.893245	0.211192	0.343712
	H41	H	0.089682	0.208319	0.670271
	H42	H	0.091316	0.779889	0.343509
	H43	H	0.890853	0.780177	0.670160
	H44	H	0.203950	0.331069	0.910656
	H45	H	0.204255	0.659629	0.103178
	H46	H	0.776195	0.331690	0.106523
	H47	H	0.778648	0.659816	0.910368
	H48	H	0.392289	0.114223	0.602683
	H49	H	0.585718	0.878095	0.596364
	H50	H	0.590512	0.111305	0.417075
	H51	H	0.397815	0.876539	0.407464
	H52	H	0.580810	0.396734	0.123857
	H53	H	0.590737	0.596637	0.886782
	H54	H	0.392570	0.573588	0.119763
	H55	H	0.397278	0.399124	0.888115
	H56	H	0.109815	0.596743	0.414582
	H57	H	0.875147	0.585052	0.597961
	H58	H	0.106594	0.413684	0.605560
	H59	H	0.875216	0.403519	0.418577
	H60	H	0.113390	0.391163	0.606987
	H61	H	0.873141	0.588266	0.603109
	H62	H	0.104458	0.583390	0.419532
	H63	H	0.872779	0.405391	0.410933
	H64	H	0.412627	0.593685	0.120269
	H65	H	0.588014	0.581737	0.891121
	H66	H	0.588631	0.401646	0.124807
	H67	H	0.395236	0.405189	0.889376
	H68	H	0.587073	0.113922	0.403690
	H69	H	0.586078	0.876522	0.604170
	H70	H	0.404466	0.109923	0.602219
	H71	H	0.401468	0.880032	0.414582
	H72	H	0.893083	0.609839	0.087216
	H73	H	0.070775	0.382128	0.101309
	H74	H	0.085743	0.613766	0.908112
	H75	H	0.900477	0.376950	0.905055
	H76	H	0.082991	0.904720	0.622412
	H77	H	0.087407	0.089108	0.388926
	H78	H	0.883059	0.091621	0.629245
	H79	H	0.896878	0.896818	0.387710
	H80	H	0.606229	0.087639	0.918705
	H81	H	0.374049	0.090538	0.096909
	H82	H	0.609051	0.902852	0.101864
	H83	H	0.378685	0.909677	0.922291
	H84	H	0.609482	0.898789	0.099426
	H85	H	0.374646	0.084874	0.098674
	H86	H	0.608393	0.084420	0.906350
	H87	H	0.371933	0.907031	0.903714
	H88	H	0.899255	0.074030	0.618492
	H89	H	0.081695	0.087720	0.390556
	H90	H	0.079540	0.898630	0.622880
	H91	H	0.894108	0.905670	0.388787
	H92	H	0.081244	0.610753	0.912919
	H93	H	0.091353	0.379807	0.088617
	H94	H	0.888735	0.617030	0.109976
	H95	H	0.905278	0.382652	0.920548
	H96	H	0.396352	0.109724	0.591434
	H97	H	0.578742	0.878352	0.601033
	H98	H	0.577521	0.108954	0.412282
	H99	H	0.393131	0.877439	0.414927
	H100	H	0.580814	0.405782	0.120380
	H101	H	0.576524	0.592169	0.891357
	H102	H	0.386024	0.599719	0.129582
	H103	H	0.401587	0.404127	0.890907
	H104	H	0.110118	0.584745	0.405616
	H105	H	0.873627	0.590988	0.597834
	H106	H	0.105504	0.399735	0.586906
	H107	H	0.871470	0.398094	0.413987
	H108	H	0.910397	0.609177	0.104176
	H109	H	0.090926	0.373056	0.112173
	H110	H	0.087929	0.613082	0.914740
	H111	H	0.889761	0.377446	0.917514
	H112	H	0.086471	0.899122	0.624537
	H113	H	0.082514	0.093031	0.388454
	H114	H	0.907782	0.097971	0.622947
	H115	H	0.903370	0.902358	0.390688
	H116	H	0.610915	0.096260	0.910838
	H117	H	0.373267	0.089897	0.102419
	H118	H	0.607660	0.902535	0.096810
	H119	H	0.371125	0.892211	0.916756
	C120	C	0.369313	0.002994	0.627909
	C121	C	0.612270	0.986458	0.627586
	C122	C	0.612822	0.002727	0.383489
	C123	C	0.369331	0.986364	0.384202
	C124	C	0.612264	0.373948	0.014578
	C125	C	0.613077	0.617678	0.998033
	C126	C	0.369512	0.617443	0.014783
	C127	C	0.369440	0.373978	0.997895
	C128	C	-0.000201	0.617045	0.384825
	C129	C	0.982810	0.616355	0.627218
	C130	C	-0.000463	0.373319	0.628722
	C131	C	0.982006	0.373968	0.386017
	C132	C	0.869053	0.503497	0.129206
	C133	C	0.112395	0.486779	0.128082
	C134	C	0.113246	0.504040	0.884590
	C135	C	0.869596	0.487333	0.885418
	C136	C	0.111851	0.873174	0.515001
	C137	C	0.112287	0.117100	0.497585
	C138	C	0.869034	0.116708	0.515091
	C139	C	0.869074	0.873026	0.497315
	C140	C	0.499679	0.117460	0.883924
	C141	C	0.483032	0.116340	0.127160
	C142	C	0.499383	0.873511	0.127810
	C143	C	0.482897	0.874730	0.885312
	C144	C	0.370959	0.880288	0.684556
	C145	C	0.610170	0.109581	0.681330
	C146	C	0.609731	0.879285	0.329603
	C147	C	0.372760	0.110020	0.329176
	C148	C	0.668212	0.377349	0.891525
	C149	C	0.666581	0.613492	0.121875
	C150	C	0.315691	0.614632	0.890973
	C151	C	0.315179	0.376766	0.121602
	C152	C	0.875722	0.671374	0.388248
	C153	C	0.106761	0.671471	0.624278
	C154	C	0.875444	0.318671	0.626597
	C155	C	0.106117	0.319656	0.388870
	C156	C	0.875483	0.376651	0.683850
	C157	C	0.106896	0.613552	0.681415
	C158	C	0.875863	0.614161	0.330539
	C159	C	0.106140	0.376948	0.331192
	C160	C	0.372461	0.673079	0.891641
	C161	C	0.609588	0.671754	0.121414
	C162	C	0.610684	0.319748	0.891180
	C163	C	0.371658	0.318053	0.121025
	C164	C	0.667027	0.879186	0.387667
	C165	C	0.666812	0.109533	0.623139
	C166	C	0.314170	0.879923	0.625574
	C167	C	0.315372	0.110304	0.387369
	C168	C	0.871496	0.380359	0.184760
	C169	C	0.109958	0.609984	0.182776
	C170	C	0.110473	0.380610	0.830487
	C171	C	0.872622	0.610383	0.830155
	C172	C	0.166098	0.877428	0.391450
	C173	C	0.166656	0.112597	0.621144
	C174	C	0.815543	0.113935	0.391206
	C175	C	0.814090	0.876279	0.620878
	C176	C	0.375578	0.172291	0.887300
	C177	C	0.607141	0.171052	0.123432
	C178	C	0.375472	0.819223	0.125090
	C179	C	0.606585	0.819842	0.887363
	C180	C	0.375330	0.876825	0.182205
	C181	C	0.607267	0.113242	0.180975
	C182	C	0.375547	0.114926	0.829691
	C183	C	0.606712	0.877608	0.829913
	C184	C	0.872320	0.172590	0.392095
	C185	C	0.109748	0.170665	0.621326
	C186	C	0.110138	0.818661	0.391892
	C187	C	0.871109	0.818170	0.621014
	C188	C	0.167205	0.380271	0.888871
	C189	C	0.166487	0.610682	0.123971
	C190	C	0.813820	0.380487	0.127123
	C191	C	0.815979	0.610839	0.889146
	C192	C	0.391465	0.088882	0.605530
	C193	C	0.590021	0.899908	0.606413
	C194	C	0.591285	0.089138	0.404705
	C195	C	0.390999	0.900410	0.405999
	C196	C	0.589929	0.395090	0.100804
	C197	C	0.591517	0.596429	0.911917
	C198	C	0.390844	0.595585	0.100761
	C199	C	0.391621	0.396107	0.911912
	C200	C	0.086005	0.595064	0.406780
	C201	C	0.896289	0.594612	0.605848
	C202	C	0.086201	0.395086	0.606322
	C203	C	0.895550	0.396065	0.407892
	C204	C	0.891076	0.589879	0.107152
	C205	C	0.090754	0.400601	0.106918
	C206	C	0.091563	0.590314	0.905657
	C207	C	0.891810	0.401126	0.907817
	C208	C	0.089595	0.894660	0.601129
	C209	C	0.090369	0.096192	0.411498
	C210	C	0.890399	0.094474	0.601102
	C211	C	0.891462	0.895044	0.411271
	C212	C	0.586169	0.095767	0.905385
	C213	C	0.396412	0.094847	0.105584
	C214	C	0.586429	0.895007	0.105849
	C215	C	0.396207	0.896532	0.907520
	Zn216	Zn	0.491219	-0.004475	0.756332
	Zn217	Zn	0.491457	-0.005485	0.255716
	Zn218	Zn	0.740920	0.495144	0.007136
	Zn219	Zn	0.241200	0.495690	0.006605
	Zn220	Zn	-0.008941	0.745045	0.506363
	Zn221	Zn	-0.009186	0.245377	0.507262
	Zn222	Zn	-0.008652	0.495241	0.756351
	Zn223	Zn	-0.008986	0.495071	0.257296
	Zn224	Zn	0.491347	0.746081	0.006376
	Zn225	Zn	0.491005	0.245397	0.005661
	Zn226	Zn	0.740559	-0.005550	0.505762
	Zn227	Zn	0.240211	-0.005056	0.505794
	N228	N	0.404341	0.958008	0.686039
	N229	N	0.576970	0.031858	0.684185
	N230	N	0.576793	0.957139	0.327070
	N231	N	0.405450	0.032141	0.326927
	N232	N	0.669251	0.410292	0.969304
	N233	N	0.668840	0.580623	0.044295
	N234	N	0.313653	0.580462	0.968411
	N235	N	0.313236	0.410417	0.043979
	N236	N	0.953679	0.673285	0.421358
	N237	N	0.028626	0.673327	0.591461
	N238	N	0.953527	0.316698	0.593117
	N239	N	0.028022	0.317860	0.422460
	N240	N	0.953596	0.409896	0.685169
	N241	N	0.028887	0.579913	0.683237
	N242	N	0.953916	0.580922	0.328455
	N243	N	0.028126	0.410063	0.329461
	N244	N	0.404758	0.675240	0.969619
	N245	N	0.576985	0.674415	0.043400
	N246	N	0.576584	0.317630	0.968572
	N247	N	0.404835	0.316280	0.043137
	N248	N	0.668895	0.956912	0.420495
	N249	N	0.668010	0.031782	0.590436
	N250	N	0.312865	0.957107	0.591118
	N251	N	0.313109	0.032453	0.420711
	N252	N	0.904955	0.458055	0.186259
	N253	N	0.076943	0.532099	0.185318
	N254	N	0.077639	0.458420	0.827821
	N255	N	0.905336	0.532408	0.827838
	N256	N	0.167040	0.910824	0.468938
	N257	N	0.168137	0.079926	0.543440
	N258	N	0.813371	0.079736	0.468606
	N259	N	0.812823	0.909758	0.543260
	N260	N	0.453687	0.173975	0.920370
	N261	N	0.528944	0.172992	0.090619
	N262	N	0.453727	0.817093	0.092049
	N263	N	0.528644	0.818103	0.921092
	N264	N	0.453422	0.910173	0.183615
	N265	N	0.529170	0.079951	0.183330
	N266	N	0.453590	0.081658	0.827450
	N267	N	0.528694	0.910961	0.828758
	N268	N	0.904855	0.174291	0.469958
	N269	N	0.076765	0.173712	0.543542
	N270	N	0.077624	0.815729	0.469863
	N271	N	0.904573	0.815977	0.543168
	N272	N	0.169459	0.458075	0.921468
	N273	N	0.168485	0.533043	0.091113
	N274	N	0.812344	0.458110	0.093409
	N275	N	0.814284	0.533223	0.922762
	O276	O	1.501632	0.438043	0.559965
	H277	H	1.506037	0.433247	0.563476
	H278	H	1.505227	0.445051	0.560023
	O279	O	0.450062	0.405163	0.538326
	H280	H	0.449707	0.403689	0.544228
	H281	H	0.443168	0.401748	0.537145
	O282	O	1.458761	1.399972	-0.433216
	H283	H	1.455611	1.406647	-0.431773
	H284	H	1.462120	1.398777	-0.434301
	O285	O	0.465025	0.426279	0.513157
	H286	H	0.457726	0.418083	0.527079
	H287	H	0.463437	0.419691	0.495999
