data_Molecule from HDF5

_cell_length_a		16.202276
_cell_length_b		16.335059
_cell_length_c		16.247713
_cell_angle_alpha	90.043940
_cell_angle_beta	90.150878
_cell_angle_gamma	90.088499
_symmetry_space_group_name_H-M	'P 1'
_symmetry_Int_Tables_number		1

loop_
	_symmetry_equiv_pos_as_xyz
	x,y,z

loop_
	_atom_site_label
	_atom_site_type_symbol
	_atom_site_fract_x
	_atom_site_fract_y
	_atom_site_fract_z
	H0	H	0.402699	0.837017	0.713866
	H1	H	0.599355	0.163725	0.715297
	H2	H	0.597888	0.836771	0.285942
	H3	H	0.403589	0.163687	0.285998
	H4	H	0.712383	0.403226	0.835463
	H5	H	0.713564	0.596359	0.164734
	H6	H	0.286583	0.595651	0.835437
	H7	H	0.286985	0.402780	0.164598
	H8	H	0.835297	0.712573	0.401423
	H9	H	0.164138	0.713867	0.598664
	H10	H	0.835670	0.286213	0.597852
	H11	H	0.164973	0.286103	0.401643
	H12	H	0.835478	0.403691	0.712134
	H13	H	0.164344	0.597250	0.713217
	H14	H	0.834924	0.596095	0.287601
	H15	H	0.164720	0.403666	0.287470
	H16	H	0.399413	0.714885	0.836221
	H17	H	0.599363	0.713997	0.164142
	H18	H	0.598432	0.284840	0.836259
	H19	H	0.401803	0.286231	0.164314
	H20	H	0.711821	0.836087	0.404149
	H21	H	0.714063	0.164432	0.596665
	H22	H	0.285662	0.836509	0.597454
	H23	H	0.287435	0.164450	0.402564
	H24	H	0.902309	0.336066	0.213666
	H25	H	0.097479	0.663590	0.213771
	H26	H	0.097137	0.336907	0.785481
	H27	H	0.902181	0.663157	0.786276
	H28	H	0.211538	0.904220	0.335117
	H29	H	0.213199	0.096758	0.664467
	H30	H	0.787492	0.095766	0.335215
	H31	H	0.787778	0.903820	0.664639
	H32	H	0.335449	0.213996	0.901063
	H33	H	0.664014	0.215463	0.098943
	H34	H	0.335337	0.786072	0.097544
	H35	H	0.664218	0.784686	0.900773
	H36	H	0.335676	0.903019	0.212592
	H37	H	0.664939	0.097353	0.213012
	H38	H	0.335882	0.097948	0.785334
	H39	H	0.665422	0.903888	0.787939
	H40	H	0.900453	0.215232	0.336502
	H41	H	0.100291	0.215455	0.663792
	H42	H	0.099197	0.784735	0.335909
	H43	H	0.901927	0.786213	0.663701
	H44	H	0.212377	0.335682	0.903119
	H45	H	0.213469	0.663800	0.097447
	H46	H	0.786254	0.335820	0.096369
	H47	H	0.787025	0.663374	0.903304
	H48	H	0.403940	0.116590	0.589937
	H49	H	0.607964	0.879872	0.593505
	H50	H	0.589874	0.116996	0.400868
	H51	H	0.400489	0.882725	0.407898
	H52	H	0.604866	0.403580	0.121410
	H53	H	0.598880	0.588734	0.882877
	H54	H	0.406379	0.602343	0.119920
	H55	H	0.415198	0.411062	0.886836
	H56	H	0.114627	0.597080	0.418133
	H57	H	0.881100	0.590040	0.598878
	H58	H	0.121468	0.402765	0.602597
	H59	H	0.888208	0.419945	0.412633
	H60	H	0.116934	0.399978	0.584373
	H61	H	0.879021	0.601070	0.594230
	H62	H	0.115709	0.583103	0.404289
	H63	H	0.878392	0.404717	0.391596
	H64	H	0.399944	0.588503	0.118099
	H65	H	0.585452	0.591024	0.885801
	H66	H	0.590547	0.417797	0.112926
	H67	H	0.406633	0.394363	0.879887
	H68	H	0.591492	0.115220	0.411181
	H69	H	0.585780	0.882771	0.606649
	H70	H	0.406496	0.117627	0.597445
	H71	H	0.406677	0.882613	0.400719
	H72	H	0.900712	0.617332	0.094405
	H73	H	0.093024	0.384376	0.091596
	H74	H	0.088056	0.612986	0.911242
	H75	H	0.909611	0.385025	0.910693
	H76	H	0.092905	0.908744	0.616334
	H77	H	0.096088	0.091228	0.383078
	H78	H	0.902302	0.099269	0.620498
	H79	H	0.907020	0.909804	0.384265
	H80	H	0.618861	0.097768	0.906098
	H81	H	0.381350	0.095383	0.095866
	H82	H	0.615089	0.908760	0.088820
	H83	H	0.379901	0.904702	0.899152
	H84	H	0.618145	0.909244	0.098092
	H85	H	0.382277	0.095583	0.090408
	H86	H	0.616500	0.093086	0.912569
	H87	H	0.383362	0.900310	0.913742
	H88	H	0.905621	0.086400	0.615466
	H89	H	0.088519	0.092761	0.384371
	H90	H	0.091387	0.904395	0.616777
	H91	H	0.909721	0.901354	0.381808
	H92	H	0.101017	0.617960	0.908967
	H93	H	0.096103	0.382593	0.095265
	H94	H	0.909607	0.617259	0.099400
	H95	H	0.901236	0.381677	0.906096
	H96	H	0.411610	0.114516	0.592311
	H97	H	0.587125	0.889425	0.581810
	H98	H	0.599436	0.119134	0.405251
	H99	H	0.409723	0.886387	0.408553
	H100	H	0.584068	0.398006	0.117185
	H101	H	0.593731	0.600848	0.880524
	H102	H	0.415030	0.590335	0.114281
	H103	H	0.395771	0.410922	0.882060
	H104	H	0.122230	0.601103	0.400106
	H105	H	0.884055	0.591772	0.586921
	H106	H	0.114668	0.417618	0.592323
	H107	H	0.881934	0.393320	0.416603
	H108	H	0.909464	0.613957	0.089871
	H109	H	0.090871	0.383673	0.095513
	H110	H	0.092098	0.617734	0.898752
	H111	H	0.909476	0.382379	0.900657
	H112	H	0.095756	0.905583	0.618080
	H113	H	0.093460	0.098619	0.381613
	H114	H	0.915977	0.096583	0.616194
	H115	H	0.900769	0.904263	0.380613
	H116	H	0.617065	0.089705	0.905401
	H117	H	0.383443	0.091395	0.092949
	H118	H	0.619630	0.900575	0.092943
	H119	H	0.385474	0.914523	0.909117
	C120	C	0.378825	0.008583	0.621514
	C121	C	0.622241	0.992252	0.622146
	C122	C	0.621604	0.008654	0.378020
	C123	C	0.378075	0.991949	0.377750
	C124	C	0.621124	0.378201	0.008341
	C125	C	0.621362	0.621431	0.991864
	C126	C	0.378548	0.621264	0.008621
	C127	C	0.378011	0.377929	0.991421
	C128	C	0.008372	0.621345	0.379154
	C129	C	0.990974	0.621853	0.621383
	C130	C	0.008861	0.378656	0.621024
	C131	C	0.991862	0.378457	0.378998
	C132	C	0.878254	0.508104	0.122175
	C133	C	0.121604	0.491755	0.122017
	C134	C	0.121571	0.508097	0.878277
	C135	C	0.878301	0.491098	0.877963
	C136	C	0.121738	0.878039	0.508276
	C137	C	0.121659	0.122123	0.491541
	C138	C	0.879074	0.121957	0.508593
	C139	C	0.878230	0.878093	0.491161
	C140	C	0.508515	0.121522	0.879179
	C141	C	0.491399	0.121822	0.121212
	C142	C	0.508609	0.878381	0.121069
	C143	C	0.491775	0.878319	0.878447
	C144	C	0.381689	0.885431	0.676146
	C145	C	0.619965	0.115172	0.677170
	C146	C	0.618259	0.885466	0.323815
	C147	C	0.381599	0.114793	0.322947
	C148	C	0.675340	0.381911	0.884485
	C149	C	0.676007	0.617650	0.115655
	C150	C	0.323835	0.617242	0.884623
	C151	C	0.324259	0.381460	0.115427
	C152	C	0.884374	0.675139	0.381668
	C153	C	0.115109	0.676104	0.618809
	C154	C	0.884832	0.323888	0.618316
	C155	C	0.115646	0.323945	0.381626
	C156	C	0.884557	0.382068	0.675030
	C157	C	0.115146	0.618360	0.675991
	C158	C	0.884418	0.617544	0.324616
	C159	C	0.115869	0.382058	0.324670
	C160	C	0.380126	0.676146	0.884918
	C161	C	0.619418	0.676064	0.115342
	C162	C	0.618567	0.323421	0.884933
	C163	C	0.381189	0.323660	0.115318
	C164	C	0.674890	0.885117	0.382476
	C165	C	0.676491	0.115565	0.618020
	C166	C	0.323773	0.885485	0.618334
	C167	C	0.324042	0.115223	0.381165
	C168	C	0.881282	0.384954	0.176504
	C169	C	0.118619	0.614823	0.176404
	C170	C	0.117990	0.385191	0.823600
	C171	C	0.881279	0.614513	0.823882
	C172	C	0.174797	0.882608	0.384260
	C173	C	0.176321	0.118374	0.615305
	C174	C	0.824560	0.117546	0.384608
	C175	C	0.824813	0.882443	0.615307
	C176	C	0.384564	0.176094	0.880686
	C177	C	0.615333	0.176977	0.119176
	C178	C	0.384496	0.824035	0.118098
	C179	C	0.615602	0.823448	0.881281
	C180	C	0.384590	0.881966	0.175162
	C181	C	0.615633	0.118703	0.175863
	C182	C	0.384663	0.118402	0.823596
	C183	C	0.615904	0.881882	0.824341
	C184	C	0.880743	0.176690	0.385239
	C185	C	0.120086	0.177047	0.614848
	C186	C	0.118700	0.823541	0.384738
	C187	C	0.881127	0.823770	0.614913
	C188	C	0.175180	0.384657	0.881904
	C189	C	0.176080	0.614809	0.118387
	C190	C	0.824055	0.384648	0.117974
	C191	C	0.824130	0.614516	0.882050
	C192	C	0.400939	0.094229	0.599831
	C193	C	0.600147	0.906289	0.600441
	C194	C	0.599972	0.094895	0.399460
	C195	C	0.399352	0.905872	0.399468
	C196	C	0.599481	0.400071	0.094770
	C197	C	0.599279	0.599958	0.905376
	C198	C	0.400554	0.599993	0.095127
	C199	C	0.399545	0.399182	0.905084
	C200	C	0.095272	0.600009	0.401151
	C201	C	0.904046	0.600518	0.599747
	C202	C	0.095336	0.400408	0.599553
	C203	C	0.905323	0.399880	0.400406
	C204	C	0.900084	0.593902	0.100905
	C205	C	0.099815	0.405762	0.100494
	C206	C	0.100080	0.594100	0.899835
	C207	C	0.900253	0.405290	0.899341
	C208	C	0.099945	0.899788	0.594696
	C209	C	0.099337	0.100561	0.405213
	C210	C	0.901350	0.100337	0.595054
	C211	C	0.899464	0.898834	0.404511
	C212	C	0.594989	0.100020	0.901467
	C213	C	0.404759	0.100414	0.099447
	C214	C	0.595255	0.899821	0.099625
	C215	C	0.405371	0.900166	0.900475
	Zn216	Zn	0.500551	0.000351	0.750924
	Zn217	Zn	0.500171	-0.000119	0.248855
	Zn218	Zn	0.749695	0.499538	-0.000156
	Zn219	Zn	0.250243	0.499411	0.000168
	Zn220	Zn	-0.000548	0.749844	0.499887
	Zn221	Zn	0.000363	0.250323	0.500300
	Zn222	Zn	-0.000400	0.500116	0.749323
	Zn223	Zn	0.000183	0.500059	0.251111
	Zn224	Zn	0.500048	0.749815	-0.000076
	Zn225	Zn	0.499543	0.249997	-0.000047
	Zn226	Zn	0.750405	0.000128	0.499840
	Zn227	Zn	0.249525	0.000357	0.499646
	N228	N	0.415190	0.962979	0.678415
	N229	N	0.586684	0.037657	0.679607
	N230	N	0.585928	0.963245	0.320945
	N231	N	0.414588	0.037210	0.321046
	N232	N	0.676946	0.415190	0.962311
	N233	N	0.677309	0.584414	0.037880
	N234	N	0.322954	0.583618	0.962255
	N235	N	0.322406	0.414610	0.037672
	N236	N	0.962574	0.677764	0.414640
	N237	N	0.036848	0.678469	0.585671
	N238	N	0.963028	0.321814	0.585447
	N239	N	0.037649	0.321941	0.414813
	N240	N	0.962714	0.415407	0.676836
	N241	N	0.037045	0.585179	0.677485
	N242	N	0.962634	0.584709	0.323050
	N243	N	0.037832	0.415250	0.322736
	N244	N	0.413395	0.678772	0.963065
	N245	N	0.585999	0.678381	0.037311
	N246	N	0.585519	0.321243	0.962863
	N247	N	0.414045	0.321318	0.037188
	N248	N	0.677121	0.962698	0.415375
	N249	N	0.678192	0.037977	0.584867
	N250	N	0.321892	0.962898	0.585134
	N251	N	0.321816	0.037749	0.414444
	N252	N	0.914416	0.462621	0.179130
	N253	N	0.085270	0.537316	0.178603
	N254	N	0.085440	0.463008	0.821185
	N255	N	0.914062	0.536915	0.821080
	N256	N	0.176575	0.915800	0.462173
	N257	N	0.177120	0.084639	0.537707
	N258	N	0.823528	0.084118	0.462319
	N259	N	0.822768	0.915357	0.537434
	N260	N	0.462461	0.178158	0.914572
	N261	N	0.537188	0.178940	0.085655
	N262	N	0.462613	0.821704	0.085104
	N263	N	0.537266	0.820835	0.913890
	N264	N	0.462582	0.915253	0.176804
	N265	N	0.537714	0.085041	0.177007
	N266	N	0.462782	0.085437	0.822332
	N267	N	0.538137	0.915448	0.822886
	N268	N	0.913793	0.179483	0.463431
	N269	N	0.086771	0.179421	0.536910
	N270	N	0.086306	0.820572	0.462962
	N271	N	0.913631	0.821057	0.536794
	N272	N	0.177506	0.462044	0.915123
	N273	N	0.178028	0.537256	0.085368
	N274	N	0.822115	0.462118	0.084951
	N275	N	0.822286	0.536877	0.915039
