data_Molecule from HDF5

_cell_length_a		16.170409
_cell_length_b		15.981985
_cell_length_c		16.473840
_cell_angle_alpha	89.853518
_cell_angle_beta	89.284995
_cell_angle_gamma	89.974836
_symmetry_space_group_name_H-M	'P 1'
_symmetry_Int_Tables_number		1

loop_
	_symmetry_equiv_pos_as_xyz
	x,y,z

loop_
	_atom_site_label
	_atom_site_type_symbol
	_atom_site_fract_x
	_atom_site_fract_y
	_atom_site_fract_z
	H0	H	0.398011	0.839321	0.721546
	H1	H	0.605245	0.167577	0.715626
	H2	H	0.608208	0.837055	0.284206
	H3	H	0.402610	0.166249	0.287699
	H4	H	0.722499	0.401041	0.840039
	H5	H	0.716283	0.603296	0.163647
	H6	H	0.285409	0.605288	0.839710
	H7	H	0.281998	0.401341	0.162780
	H8	H	0.835821	0.713030	0.408729
	H9	H	0.168050	0.711829	0.595186
	H10	H	0.837090	0.289285	0.598104
	H11	H	0.168732	0.290497	0.403449
	H12	H	0.839796	0.395431	0.722082
	H13	H	0.164562	0.606375	0.718849
	H14	H	0.837273	0.604254	0.286942
	H15	H	0.162964	0.395966	0.279202
	H16	H	0.405158	0.719413	0.839994
	H17	H	0.596574	0.716143	0.165401
	H18	H	0.601535	0.287984	0.838546
	H19	H	0.401885	0.286143	0.163852
	H20	H	0.715492	0.834536	0.403468
	H21	H	0.714371	0.167945	0.595077
	H22	H	0.290446	0.835324	0.601834
	H23	H	0.292323	0.167139	0.404668
	H24	H	0.896952	0.335970	0.218980
	H25	H	0.101348	0.666033	0.216622
	H26	H	0.106120	0.337216	0.785270
	H27	H	0.899916	0.664633	0.785063
	H28	H	0.224287	0.899232	0.340488
	H29	H	0.218024	0.100116	0.663647
	H30	H	0.789497	0.101658	0.338797
	H31	H	0.783247	0.899380	0.662546
	H32	H	0.336654	0.213165	0.908504
	H33	H	0.668795	0.213746	0.093257
	H34	H	0.336195	0.792884	0.100326
	H35	H	0.668281	0.792652	0.905383
	H36	H	0.340782	0.899169	0.223252
	H37	H	0.666439	0.105535	0.216176
	H38	H	0.340032	0.109959	0.784759
	H39	H	0.663968	0.898918	0.781155
	H40	H	0.909478	0.215260	0.338335
	H41	H	0.099236	0.214769	0.664286
	H42	H	0.102034	0.786754	0.338180
	H43	H	0.905529	0.787435	0.665327
	H44	H	0.215026	0.335712	0.903685
	H45	H	0.210233	0.668780	0.097542
	H46	H	0.787726	0.334825	0.100072
	H47	H	0.793335	0.669042	0.906399
	H48	H	0.415641	0.118667	0.590940
	H49	H	0.593926	0.882469	0.596841
	H50	H	0.587388	0.118915	0.406484
	H51	H	0.418860	0.882863	0.409006
	H52	H	0.589046	0.408060	0.114951
	H53	H	0.595982	0.597257	0.887122
	H54	H	0.415572	0.588624	0.112104
	H55	H	0.406561	0.418106	0.888293
	H56	H	0.120281	0.591680	0.402412
	H57	H	0.885302	0.593691	0.592807
	H58	H	0.121582	0.407078	0.596835
	H59	H	0.887751	0.421245	0.410890
	H60	H	0.120022	0.410171	0.592197
	H61	H	0.886718	0.584956	0.597331
	H62	H	0.118556	0.592912	0.406907
	H63	H	0.879915	0.405778	0.399630
	H64	H	0.404782	0.608196	0.120266
	H65	H	0.599488	0.598059	0.886522
	H66	H	0.596514	0.405651	0.117923
	H67	H	0.416154	0.407298	0.887512
	H68	H	0.599894	0.119526	0.415168
	H69	H	0.587877	0.883289	0.594932
	H70	H	0.406293	0.122765	0.591742
	H71	H	0.414776	0.883225	0.414434
	H72	H	0.903496	0.621389	0.092487
	H73	H	0.100094	0.381066	0.087871
	H74	H	0.095959	0.622850	0.905741
	H75	H	0.916032	0.380737	0.904547
	H76	H	0.100329	0.906096	0.618028
	H77	H	0.099995	0.084808	0.388729
	H78	H	0.900037	0.095724	0.618765
	H79	H	0.903660	0.910871	0.385269
	H80	H	0.620871	0.098495	0.909074
	H81	H	0.383001	0.100261	0.098342
	H82	H	0.619867	0.905950	0.087399
	H83	H	0.387657	0.918691	0.915142
	H84	H	0.618347	0.918789	0.095274
	H85	H	0.388651	0.088333	0.092224
	H86	H	0.617747	0.088470	0.907739
	H87	H	0.382960	0.915271	0.903413
	H88	H	0.906935	0.085244	0.614099
	H89	H	0.092685	0.097699	0.387587
	H90	H	0.095083	0.910882	0.614077
	H91	H	0.915995	0.910514	0.388143
	H92	H	0.088170	0.620713	0.905302
	H93	H	0.089218	0.379142	0.102878
	H94	H	0.908968	0.622028	0.104026
	H95	H	0.915819	0.385505	0.917258
	H96	H	0.411709	0.123118	0.599244
	H97	H	0.592813	0.883945	0.590531
	H98	H	0.600606	0.124336	0.399608
	H99	H	0.412281	0.881123	0.409047
	H100	H	0.595685	0.413589	0.115786
	H101	H	0.598932	0.594720	0.886960
	H102	H	0.392968	0.588430	0.118734
	H103	H	0.402513	0.404623	0.882896
	H104	H	0.117837	0.587924	0.405000
	H105	H	0.882535	0.593216	0.601889
	H106	H	0.120314	0.413202	0.596959
	H107	H	0.884566	0.401767	0.418762
	H108	H	0.916080	0.617998	0.093513
	H109	H	0.082008	0.387657	0.086563
	H110	H	0.091807	0.619198	0.912534
	H111	H	0.903823	0.379341	0.912190
	H112	H	0.093043	0.903377	0.616997
	H113	H	0.106714	0.097837	0.382819
	H114	H	0.912395	0.097365	0.616054
	H115	H	0.910043	0.899672	0.384327
	H116	H	0.621610	0.093443	0.900396
	H117	H	0.383917	0.089102	0.105662
	H118	H	0.624603	0.906262	0.101452
	H119	H	0.382892	0.905842	0.912815
	C120	C	0.381272	0.011988	0.623850
	C121	C	0.621666	0.992939	0.621419
	C122	C	0.625728	0.011033	0.378461
	C123	C	0.385081	0.991973	0.382020
	C124	C	0.624241	0.380185	0.009423
	C125	C	0.624684	0.625062	0.994007
	C126	C	0.377220	0.625423	0.010127
	C127	C	0.378458	0.380075	0.992961
	C128	C	0.010063	0.620961	0.379125
	C129	C	0.993609	0.621196	0.624011
	C130	C	0.011753	0.379818	0.624271
	C131	C	0.992750	0.379737	0.379630
	C132	C	0.879148	0.510462	0.125054
	C133	C	0.120117	0.492405	0.121532
	C134	C	0.122494	0.511143	0.879351
	C135	C	0.882620	0.491893	0.882130
	C136	C	0.126433	0.877657	0.509563
	C137	C	0.126639	0.122855	0.493503
	C138	C	0.880088	0.122894	0.509245
	C139	C	0.880003	0.877888	0.493161
	C140	C	0.511486	0.123892	0.879357
	C141	C	0.494049	0.122755	0.124189
	C142	C	0.511808	0.881189	0.124448
	C143	C	0.493124	0.882893	0.880686
	C144	C	0.379965	0.888052	0.681845
	C145	C	0.622803	0.117890	0.676798
	C146	C	0.626184	0.886386	0.322793
	C147	C	0.384387	0.116861	0.326120
	C148	C	0.682525	0.381698	0.887911
	C149	C	0.678339	0.622905	0.115626
	C150	C	0.323618	0.624366	0.888225
	C151	C	0.321029	0.381280	0.114683
	C152	C	0.885390	0.676298	0.385718
	C153	C	0.118093	0.675515	0.617819
	C154	C	0.887248	0.325087	0.620465
	C155	C	0.118094	0.326078	0.382144
	C156	C	0.888523	0.378054	0.682046
	C157	C	0.116165	0.622999	0.679461
	C158	C	0.886093	0.622013	0.325537
	C159	C	0.115342	0.378497	0.320311
	C160	C	0.382708	0.681763	0.888391
	C161	C	0.618484	0.678977	0.116442
	C162	C	0.622614	0.325262	0.887161
	C163	C	0.380973	0.324320	0.115302
	C164	C	0.679629	0.884934	0.381941
	C165	C	0.677140	0.118300	0.616908
	C166	C	0.326545	0.886142	0.622341
	C167	C	0.328981	0.117055	0.383769
	C168	C	0.878650	0.385585	0.180446
	C169	C	0.119470	0.616835	0.177538
	C170	C	0.124204	0.386489	0.823632
	C171	C	0.882054	0.616223	0.824783
	C172	C	0.184572	0.879260	0.388248
	C173	C	0.180377	0.120461	0.615241
	C174	C	0.827011	0.121342	0.387250
	C175	C	0.822668	0.879422	0.614741
	C176	C	0.386595	0.177899	0.885409
	C177	C	0.618961	0.177310	0.116413
	C178	C	0.386649	0.828109	0.121986
	C179	C	0.617862	0.828264	0.883756
	C180	C	0.389036	0.880979	0.183069
	C181	C	0.617904	0.123489	0.177628
	C182	C	0.388315	0.126184	0.824143
	C183	C	0.615856	0.881279	0.821934
	C184	C	0.886457	0.178155	0.387169
	C185	C	0.121417	0.177864	0.615366
	C186	C	0.123666	0.823223	0.387354
	C187	C	0.883352	0.823790	0.615904
	C188	C	0.178294	0.385710	0.882712
	C189	C	0.174311	0.618344	0.118427
	C190	C	0.824185	0.385097	0.121447
	C191	C	0.829073	0.618428	0.884878
	C192	C	0.404633	0.099015	0.600943
	C193	C	0.598343	0.905797	0.600313
	C194	C	0.602562	0.098393	0.400470
	C195	C	0.408574	0.904892	0.404298
	C196	C	0.600815	0.402570	0.094383
	C197	C	0.604252	0.603056	0.908956
	C198	C	0.398242	0.602024	0.095072
	C199	C	0.401646	0.403344	0.908223
	C200	C	0.096431	0.597730	0.398796
	C201	C	0.907170	0.597665	0.603469
	C202	C	0.098337	0.403349	0.601964
	C203	C	0.906608	0.402737	0.402843
	C204	C	0.902609	0.597848	0.103139
	C205	C	0.097282	0.405190	0.099000
	C206	C	0.098784	0.598343	0.901265
	C207	C	0.905191	0.404785	0.904596
	C208	C	0.103022	0.900246	0.594501
	C209	C	0.105918	0.100084	0.408417
	C210	C	0.900423	0.099658	0.594318
	C211	C	0.903064	0.900515	0.408028
	C212	C	0.597792	0.100308	0.899717
	C213	C	0.407536	0.099535	0.104572
	C214	C	0.598417	0.903746	0.101348
	C215	C	0.406796	0.906506	0.903671
	Zn216	Zn	0.501445	0.003878	0.751362
	Zn217	Zn	0.504316	0.001773	0.253059
	Zn218	Zn	0.754423	0.502315	0.001876
	Zn219	Zn	0.247777	0.502390	0.001047
	Zn220	Zn	0.002509	0.748202	0.501780
	Zn221	Zn	0.003430	0.252576	0.501763
	Zn222	Zn	0.001798	0.500689	0.752995
	Zn223	Zn	0.000507	0.500365	0.250607
	Zn224	Zn	0.501288	0.754612	0.002167
	Zn225	Zn	0.501854	0.250142	0.000797
	Zn226	Zn	0.749742	0.000154	0.500483
	Zn227	Zn	0.256855	0.000793	0.501862
	N228	N	0.413360	0.967198	0.683020
	N229	N	0.588726	0.038941	0.679691
	N230	N	0.593549	0.965858	0.320195
	N231	N	0.418623	0.038041	0.325023
	N232	N	0.683612	0.415267	0.964970
	N233	N	0.682347	0.590048	0.038528
	N234	N	0.319949	0.590142	0.965033
	N235	N	0.319476	0.415239	0.037771
	N236	N	0.963249	0.675940	0.418392
	N237	N	0.040758	0.674497	0.583893
	N238	N	0.964794	0.326069	0.585194
	N239	N	0.040982	0.326785	0.418344
	N240	N	0.967101	0.411210	0.684676
	N241	N	0.037691	0.589671	0.683194
	N242	N	0.964538	0.588506	0.321066
	N243	N	0.036365	0.410866	0.318269
	N244	N	0.415408	0.682449	0.965147
	N245	N	0.585629	0.680486	0.039790
	N246	N	0.587179	0.324338	0.963570
	N247	N	0.415917	0.323515	0.038737
	N248	N	0.679391	0.963337	0.416020
	N249	N	0.676604	0.039660	0.583355
	N250	N	0.327339	0.964104	0.586796
	N251	N	0.329410	0.038492	0.418082
	N252	N	0.911962	0.464639	0.182730
	N253	N	0.086532	0.537417	0.179517
	N254	N	0.090020	0.465314	0.821734
	N255	N	0.914677	0.536636	0.823001
	N256	N	0.186618	0.912143	0.465405
	N257	N	0.183793	0.087171	0.538416
	N258	N	0.822877	0.087488	0.464238
	N259	N	0.820242	0.911972	0.537185
	N260	N	0.463913	0.176547	0.919117
	N261	N	0.540935	0.177159	0.083923
	N262	N	0.463959	0.828097	0.086036
	N263	N	0.540532	0.829331	0.919749
	N264	N	0.467903	0.913286	0.184493
	N265	N	0.539379	0.090615	0.182718
	N266	N	0.467133	0.093401	0.819840
	N267	N	0.537272	0.914295	0.819890
	N268	N	0.918730	0.179281	0.464050
	N269	N	0.088662	0.179380	0.538537
	N270	N	0.088530	0.821932	0.463861
	N271	N	0.918494	0.822981	0.539464
	N272	N	0.177610	0.464437	0.916490
	N273	N	0.174476	0.539940	0.084233
	N274	N	0.824247	0.463867	0.087656
	N275	N	0.829401	0.540320	0.920123
	O276	O	0.015981	-0.046110	0.075123
	H277	H	0.009393	-0.053219	0.088969
	H278	H	0.023086	-0.036224	0.076826
	O279	O	0.579054	0.458601	0.547004
	H280	H	0.575567	0.449446	0.554993
	H281	H	0.573982	0.462659	0.539981
	O282	O	0.430191	0.589119	0.448073
	H283	H	0.425853	0.591903	0.441161
	H284	H	0.437794	0.590178	0.433981
	O285	O	0.121478	1.046413	1.038372
	H286	H	0.135947	1.056470	1.025480
	H287	H	0.119553	1.038738	1.036050
	O288	O	0.995150	0.029599	-0.061805
	H289	H	0.992501	0.026328	-0.057947
	H290	H	0.991993	0.030947	-0.065291
	O291	O	1.018750	1.021488	0.908252
	H292	H	1.013901	1.013050	0.893724
	H293	H	1.019113	1.017164	0.928248
	O294	O	0.561040	1.438082	0.430853
	H295	H	0.568978	1.429510	0.425037
	H296	H	0.561651	1.441109	0.427471
	O297	O	0.981241	-0.096445	0.986888
	H298	H	0.976506	-0.095417	0.992705
	H299	H	0.982090	-0.100644	0.993379
	O300	O	0.596207	0.398653	0.518640
	H301	H	0.586963	0.388464	0.513927
	H302	H	0.587466	0.398773	0.515486
	O303	O	0.909322	0.062029	-0.014270
	H304	H	0.910864	0.057066	-0.008784
	H305	H	0.908864	0.053187	-0.019010
	O306	O	-0.055145	0.899831	1.033783
	H307	H	-0.052332	0.905316	1.027317
	H308	H	-0.053370	0.902731	1.032795
	O309	O	0.460926	0.535906	0.562429
	H310	H	0.464727	0.545915	0.555399
	H311	H	0.471161	0.536229	0.543392
	O312	O	1.463851	0.532089	0.623815
	H313	H	1.466549	0.526777	0.631646
	H314	H	1.453259	0.532614	0.635855
	O315	O	0.489083	0.441803	0.439569
	H316	H	0.478670	0.447084	0.448476
	H317	H	0.491746	0.434944	0.443454
	O318	O	0.426555	0.529748	0.567326
	H319	H	0.430874	0.536089	0.576864
	H320	H	0.445171	0.525781	0.567789
	O321	O	1.044058	0.982474	1.042840
	H322	H	1.051200	0.989307	1.041780
	H323	H	1.038302	0.988971	1.036880
	O324	O	0.410444	0.503684	0.601699
	H325	H	0.405131	0.500794	0.602931
	H326	H	0.402920	0.515685	0.595706
	O327	O	0.427036	0.609080	0.389459
	H328	H	0.431848	0.603372	0.384736
	H329	H	0.426850	0.606518	0.389162
	O330	O	0.985538	0.056379	1.135417
	H331	H	0.987944	0.056848	1.136885
	H332	H	0.982137	0.059880	1.128171
	O333	O	0.950713	1.046892	0.067397
	H334	H	0.933657	1.045121	0.067477
	H335	H	0.961874	1.049523	0.070356
	O336	O	0.487804	0.566091	0.428044
	H337	H	0.481569	0.569277	0.430690
	H338	H	0.482356	0.563290	0.429414
	O339	O	0.637376	0.489139	0.486977
	H340	H	0.629926	0.473786	0.487518
	H341	H	0.630654	0.487042	0.489203
	O342	O	0.027875	0.958871	-0.122485
	H343	H	0.028519	0.953873	-0.134608
	H344	H	0.017990	0.959488	-0.120026
	O345	O	0.095004	-0.003020	-0.066051
	H346	H	0.084596	-0.000767	-0.069647
	H347	H	0.098675	-0.010743	-0.063277
	O348	O	-0.526794	0.464892	0.496617
	H349	H	-0.542023	0.472398	0.507352
	H350	H	-0.527052	0.457945	0.500667
	O351	O	0.449471	0.505130	0.505112
	H352	H	0.454866	0.514664	0.507740
	H353	H	0.444635	0.510399	0.502508
	O354	O	0.428170	0.581483	0.421381
	H355	H	0.421681	0.580702	0.422189
	H356	H	0.433181	0.588551	0.415506
	O357	O	0.516921	0.514098	0.515211
	H358	H	0.516652	0.505129	0.521450
	H359	H	0.529361	0.526090	0.515082
	O360	O	-0.017005	0.083394	0.042515
	H361	H	-0.013983	0.085119	0.046606
	H362	H	-0.015488	0.086514	0.041261
	O363	O	0.681143	0.446021	0.399304
	H364	H	0.671334	0.434161	0.390022
	H365	H	0.703105	0.444503	0.385622
	O366	O	-0.535008	-0.587818	1.541609
	H367	H	-0.544910	-0.591814	1.551475
	H368	H	-0.527281	-0.568781	1.534329
	O369	O	0.578079	0.535298	0.629903
	H370	H	0.589493	0.527602	0.628773
	H371	H	0.582976	0.540128	0.636682
