data_Molecule from HDF5

_cell_length_a		16.505293
_cell_length_b		16.579485
_cell_length_c		16.642646
_cell_angle_alpha	90.071680
_cell_angle_beta	89.992616
_cell_angle_gamma	89.987042
_symmetry_space_group_name_H-M	'P 1'
_symmetry_Int_Tables_number		1

loop_
	_symmetry_equiv_pos_as_xyz
	x,y,z

loop_
	_atom_site_label
	_atom_site_type_symbol
	_atom_site_fract_x
	_atom_site_fract_y
	_atom_site_fract_z
	H0	H	0.391489	0.855977	0.729082
	H1	H	0.603944	0.166390	0.725676
	H2	H	0.607311	0.854886	0.282485
	H3	H	0.393785	0.165903	0.282745
	H4	H	0.718977	0.407110	0.848353
	H5	H	0.721283	0.614731	0.160954
	H6	H	0.279139	0.612763	0.850239
	H7	H	0.277132	0.403469	0.162295
	H8	H	0.842038	0.728302	0.404286
	H9	H	0.158855	0.728260	0.608023
	H10	H	0.844334	0.289062	0.609444
	H11	H	0.159477	0.292771	0.404245
	H12	H	0.844697	0.404657	0.726902
	H13	H	0.158266	0.613568	0.725626
	H14	H	0.842548	0.613856	0.286656
	H15	H	0.158336	0.406854	0.285969
	H16	H	0.391235	0.733052	0.851653
	H17	H	0.605602	0.731920	0.160504
	H18	H	0.601865	0.291400	0.847886
	H19	H	0.394198	0.288346	0.162555
	H20	H	0.721131	0.853742	0.401499
	H21	H	0.718622	0.167769	0.608027
	H22	H	0.281638	0.852622	0.608071
	H23	H	0.277850	0.165418	0.398946
	H24	H	0.895916	0.354335	0.226003
	H25	H	0.108074	0.665960	0.229780
	H26	H	0.105596	0.354019	0.783874
	H27	H	0.893637	0.665915	0.783464
	H28	H	0.221829	0.905217	0.348977
	H29	H	0.221321	0.112368	0.661788
	H30	H	0.779766	0.113895	0.349873
	H31	H	0.780842	0.908179	0.662795
	H32	H	0.341650	0.229298	0.902801
	H33	H	0.657231	0.229468	0.108158
	H34	H	0.343838	0.787558	0.110925
	H35	H	0.655400	0.786403	0.897785
	H36	H	0.343338	0.904810	0.226311
	H37	H	0.656058	0.114519	0.225742
	H38	H	0.341720	0.112600	0.786926
	H39	H	0.655252	0.903184	0.782569
	H40	H	0.897375	0.229954	0.349273
	H41	H	0.107107	0.231325	0.661439
	H42	H	0.105321	0.787497	0.349786
	H43	H	0.896765	0.790695	0.662787
	H44	H	0.219126	0.352178	0.902977
	H45	H	0.222836	0.666021	0.111437
	H46	H	0.781693	0.353294	0.106861
	H47	H	0.779543	0.666993	0.901625
	H48	H	0.406674	0.124308	0.597289
	H49	H	0.589700	0.894789	0.600378
	H50	H	0.583013	0.119591	0.417184
	H51	H	0.416092	0.900214	0.415945
	H52	H	0.589341	0.427317	0.115682
	H53	H	0.588731	0.595211	0.895051
	H54	H	0.409625	0.595337	0.116763
	H55	H	0.412064	0.413380	0.893560
	H56	H	0.112830	0.604021	0.422571
	H57	H	0.884583	0.602927	0.601080
	H58	H	0.114316	0.423864	0.599503
	H59	H	0.888149	0.426508	0.411092
	H60	H	0.115129	0.416576	0.594507
	H61	H	0.888353	0.603401	0.589930
	H62	H	0.109660	0.591761	0.418761
	H63	H	0.884116	0.413519	0.412582
	H64	H	0.415691	0.597711	0.115827
	H65	H	0.585194	0.599263	0.894831
	H66	H	0.583960	0.414286	0.116446
	H67	H	0.402790	0.420106	0.892434
	H68	H	0.595420	0.122593	0.420372
	H69	H	0.583642	0.899727	0.593310
	H70	H	0.415428	0.122258	0.597955
	H71	H	0.410464	0.898189	0.418242
	H72	H	0.911819	0.621402	0.092772
	H73	H	0.093564	0.398384	0.093886
	H74	H	0.086239	0.620559	0.917271
	H75	H	0.907381	0.395046	0.911254
	H76	H	0.091323	0.924810	0.615971
	H77	H	0.090498	0.104252	0.392539
	H78	H	0.904778	0.099209	0.618983
	H79	H	0.914554	0.912965	0.393095
	H80	H	0.614182	0.098567	0.911668
	H81	H	0.384416	0.104986	0.097104
	H82	H	0.611630	0.922426	0.092293
	H83	H	0.388712	0.923890	0.919068
	H84	H	0.611690	0.922942	0.093658
	H85	H	0.389100	0.099114	0.088204
	H86	H	0.614465	0.104528	0.914392
	H87	H	0.388456	0.923872	0.916437
	H88	H	0.912881	0.096735	0.615868
	H89	H	0.093505	0.096175	0.393310
	H90	H	0.086139	0.917610	0.616354
	H91	H	0.903211	0.920441	0.391699
	H92	H	0.090797	0.622133	0.917704
	H93	H	0.083642	0.397611	0.101471
	H94	H	0.907027	0.624947	0.097309
	H95	H	0.916827	0.399380	0.914027
	H96	H	0.411469	0.121088	0.589795
	H97	H	0.594334	0.897677	0.591354
	H98	H	0.590408	0.124934	0.408846
	H99	H	0.411354	0.897525	0.411744
	H100	H	0.597455	0.416788	0.120558
	H101	H	0.590008	0.600067	0.892881
	H102	H	0.411171	0.601746	0.118567
	H103	H	0.412333	0.424827	0.897186
	H104	H	0.115500	0.600024	0.410014
	H105	H	0.889053	0.593789	0.596504
	H106	H	0.111611	0.424344	0.591131
	H107	H	0.890435	0.420046	0.422583
	H108	H	0.914399	0.623343	0.099528
	H109	H	0.082670	0.403218	0.090121
	H110	H	0.088516	0.621768	0.913299
	H111	H	0.908499	0.399486	0.921171
	H112	H	0.094957	0.917276	0.618871
	H113	H	0.085456	0.098270	0.395990
	H114	H	0.911861	0.105013	0.619492
	H115	H	0.914538	0.925878	0.397023
	H116	H	0.611261	0.099846	0.917503
	H117	H	0.387294	0.093642	0.098693
	H118	H	0.611986	0.921845	0.093398
	H119	H	0.387404	0.921497	0.918441
	C120	C	0.379144	0.018750	0.626434
	C121	C	0.620657	1.001427	0.626460
	C122	C	0.622118	0.018918	0.383386
	C123	C	0.379718	1.001831	0.383358
	C124	C	0.621230	0.388655	0.013757
	C125	C	0.620890	0.631239	0.996729
	C126	C	0.378573	0.630769	0.014497
	C127	C	0.377333	0.387512	0.997880
	C128	C	0.008441	0.630667	0.385449
	C129	C	0.991924	0.631262	0.627142
	C130	C	0.009742	0.389200	0.626731
	C131	C	0.992008	0.389091	0.384536
	C132	C	0.879244	0.519288	0.127386
	C133	C	0.120812	0.502306	0.127640
	C134	C	0.120779	0.517875	0.884688
	C135	C	0.878671	0.501353	0.883667
	C136	C	0.122635	0.887956	0.513811
	C137	C	0.121760	0.130711	0.497273
	C138	C	0.879043	0.131735	0.514284
	C139	C	0.878855	0.888776	0.497434
	C140	C	0.508606	0.131579	0.883948
	C141	C	0.490917	0.131461	0.126530
	C142	C	0.508503	0.889391	0.125794
	C143	C	0.491184	0.889203	0.884542
	C144	C	0.375390	0.902056	0.687416
	C145	C	0.622473	0.119520	0.685928
	C146	C	0.625258	0.901575	0.322974
	C147	C	0.376413	0.119205	0.323106
	C148	C	0.679686	0.388108	0.895536
	C149	C	0.681011	0.633383	0.114122
	C150	C	0.318426	0.632161	0.897293
	C151	C	0.317244	0.385253	0.115279
	C152	C	0.889599	0.689568	0.384756
	C153	C	0.111185	0.689294	0.627518
	C154	C	0.891432	0.329013	0.628575
	C155	C	0.111645	0.331263	0.384198
	C156	C	0.891458	0.386524	0.686600
	C157	C	0.110982	0.632102	0.685677
	C158	C	0.889868	0.632557	0.326439
	C159	C	0.111032	0.388161	0.325640
	C160	C	0.374547	0.691691	0.897839
	C161	C	0.623489	0.691623	0.113806
	C162	C	0.621012	0.330856	0.895143
	C163	C	0.375349	0.327732	0.115369
	C164	C	0.681873	0.901093	0.382084
	C165	C	0.679268	0.120163	0.627180
	C166	C	0.320036	0.900529	0.627687
	C167	C	0.318843	0.119070	0.381087
	C168	C	0.877639	0.401190	0.186036
	C169	C	0.125406	0.619327	0.188876
	C170	C	0.123497	0.400506	0.824536
	C171	C	0.875904	0.618979	0.823656
	C172	C	0.182072	0.886147	0.395985
	C173	C	0.181588	0.131719	0.615005
	C174	C	0.820041	0.132616	0.396523
	C175	C	0.820118	0.888532	0.615680
	C176	C	0.389079	0.189715	0.883694
	C177	C	0.609627	0.190335	0.127450
	C178	C	0.390684	0.828394	0.128901
	C179	C	0.608339	0.827253	0.880402
	C180	C	0.390550	0.886540	0.186287
	C181	C	0.609401	0.133117	0.185493
	C182	C	0.389070	0.131820	0.826185
	C183	C	0.608528	0.885223	0.823071
	C184	C	0.878190	0.190320	0.396440
	C185	C	0.124429	0.190431	0.614744
	C186	C	0.124160	0.827942	0.396291
	C187	C	0.878005	0.830392	0.615517
	C188	C	0.179921	0.399719	0.883742
	C189	C	0.182190	0.619583	0.129969
	C190	C	0.820858	0.400756	0.126972
	C191	C	0.819070	0.619619	0.882409
	C192	C	0.404050	0.101116	0.601878
	C193	C	0.596084	0.918930	0.602018
	C194	C	0.596749	0.100938	0.408224
	C195	C	0.405352	0.919907	0.408285
	C196	C	0.597060	0.412545	0.095846
	C197	C	0.595173	0.605469	0.915327
	C198	C	0.404666	0.605332	0.095944
	C199	C	0.402169	0.412267	0.915917
	C200	C	0.091150	0.605831	0.410055
	C201	C	0.908952	0.607092	0.602979
	C202	C	0.092140	0.414524	0.602170
	C203	C	0.909108	0.413114	0.408509
	C204	C	0.904034	0.601815	0.103425
	C205	C	0.094362	0.420702	0.102372
	C206	C	0.095848	0.600190	0.909194
	C207	C	0.903704	0.419202	0.908368
	C208	C	0.097889	0.912814	0.595707
	C209	C	0.096894	0.106471	0.415184
	C210	C	0.903061	0.107403	0.596657
	C211	C	0.903467	0.913023	0.415503
	C212	C	0.591609	0.107803	0.907627
	C213	C	0.408300	0.106462	0.101811
	C214	C	0.590547	0.914967	0.100133
	C215	C	0.409506	0.915651	0.910450
	Zn216	Zn	0.499692	0.010231	0.755386
	Zn217	Zn	0.500427	0.009921	0.254547
	Zn218	Zn	0.750420	0.510595	0.005435
	Zn219	Zn	0.249486	0.509833	0.006437
	Zn220	Zn	0.000381	0.759583	0.505853
	Zn221	Zn	0.001015	0.260335	0.505807
	Zn222	Zn	0.000345	0.510085	0.755240
	Zn223	Zn	0.000208	0.511034	0.256631
	Zn224	Zn	0.499427	0.760242	0.004942
	Zn225	Zn	0.499380	0.259283	0.005513
	Zn226	Zn	0.749818	0.010492	0.505704
	Zn227	Zn	0.251329	0.009948	0.504850
	N228	N	0.411255	0.976682	0.687005
	N229	N	0.587151	0.044534	0.685926
	N230	N	0.588969	0.975993	0.323607
	N231	N	0.413608	0.045176	0.324509
	N232	N	0.680382	0.422959	0.970333
	N233	N	0.679654	0.596540	0.040089
	N234	N	0.320834	0.595013	0.970843
	N235	N	0.318158	0.421460	0.041238
	N236	N	0.964498	0.688537	0.420728
	N237	N	0.035939	0.689305	0.592198
	N238	N	0.965882	0.330609	0.592040
	N239	N	0.036537	0.331398	0.419907
	N240	N	0.965885	0.423225	0.685528
	N241	N	0.035617	0.596991	0.685781
	N242	N	0.964869	0.596845	0.326634
	N243	N	0.035517	0.423114	0.325436
	N244	N	0.411144	0.691151	0.971912
	N245	N	0.587039	0.690537	0.039698
	N246	N	0.585876	0.330255	0.969984
	N247	N	0.411782	0.328661	0.041133
	N248	N	0.680301	0.975281	0.418773
	N249	N	0.678589	0.045637	0.591053
	N250	N	0.322345	0.974274	0.590197
	N251	N	0.320629	0.045023	0.417816
	N252	N	0.912987	0.476067	0.186447
	N253	N	0.087940	0.545405	0.187479
	N254	N	0.087727	0.475277	0.824755
	N255	N	0.912152	0.544365	0.824096
	N256	N	0.181421	0.922561	0.470102
	N257	N	0.180099	0.095141	0.540830
	N258	N	0.820228	0.096896	0.471002
	N259	N	0.820393	0.924037	0.541222
	N260	N	0.464281	0.189821	0.918812
	N261	N	0.534900	0.189207	0.091453
	N262	N	0.465013	0.830101	0.091916
	N263	N	0.534310	0.829716	0.918010
	N264	N	0.464837	0.923730	0.184523
	N265	N	0.534318	0.097430	0.185174
	N266	N	0.464461	0.096632	0.825994
	N267	N	0.534648	0.923197	0.825473
	N268	N	0.914077	0.189756	0.470715
	N269	N	0.088075	0.189932	0.540604
	N270	N	0.088064	0.828855	0.470548
	N271	N	0.913780	0.830297	0.541064
	N272	N	0.178249	0.473757	0.920609
	N273	N	0.179524	0.545702	0.092674
	N274	N	0.821523	0.475429	0.091347
	N275	N	0.820687	0.545492	0.918999
	O276	O	-0.302187	0.699674	-0.410715
	H277	H	-0.283810	0.701058	-0.413939
	H278	H	-0.296681	0.701393	-0.427986
	O279	O	0.521358	0.487638	0.344926
	H280	H	0.525491	0.491947	0.343093
	H281	H	0.538815	0.497325	0.348611
	O282	O	1.038904	0.229368	1.225653
	H283	H	1.048364	0.247256	1.236922
	H284	H	1.039698	0.240009	1.217504
	O285	O	-0.099437	0.194615	0.071846
	H286	H	-0.088752	0.197352	0.054391
	H287	H	-0.095247	0.198042	0.059385
	O288	O	0.462661	0.393251	0.719673
	H289	H	0.450805	0.388247	0.730081
	H290	H	0.462017	0.396163	0.723974
	O291	O	0.647780	0.508636	0.550356
	H292	H	0.649831	0.499494	0.552532
	H293	H	0.650594	0.503307	0.562980
	O294	O	1.205264	0.215377	1.211103
	H295	H	1.196813	0.184896	1.206940
	H296	H	1.198493	0.211652	1.199507
	O297	O	0.488662	0.466806	0.508320
	H298	H	0.496075	0.466075	0.509877
	H299	H	0.490132	0.474889	0.500137
	O300	O	0.114692	0.028129	0.788235
	H301	H	0.107453	0.020163	0.794908
	H302	H	0.117756	0.025504	0.772765
	O303	O	0.545067	0.532096	0.717326
	H304	H	0.557762	0.534850	0.716773
	H305	H	0.525115	0.515806	0.713580
	O306	O	0.805969	0.106079	0.198523
	H307	H	0.820427	0.090370	0.186215
	H308	H	0.822567	0.103026	0.196040
	O309	O	0.713911	0.534211	0.721064
	H310	H	0.724679	0.545020	0.733215
	H311	H	0.715775	0.529349	0.726416
	O312	O	0.672642	0.682781	0.369977
	H313	H	0.665645	0.664553	0.378196
	H314	H	0.660340	0.666926	0.377837
	O315	O	0.968652	0.809862	1.207778
	H316	H	0.941142	0.799014	1.214690
	H317	H	0.953517	0.794836	1.209119
	O318	O	0.721320	0.309330	0.478593
	H319	H	0.714419	0.314047	0.447894
	H320	H	0.738080	0.285470	0.477274
	O321	O	0.207638	1.048072	0.209782
	H322	H	0.195478	1.032115	0.210691
	H323	H	0.215493	1.031475	0.219443
	O324	O	0.759867	1.250928	0.243409
	H325	H	0.764302	1.240954	0.245145
	H326	H	0.780077	1.220670	0.218045
	O327	O	0.177950	0.121292	0.957928
	H328	H	0.181787	0.131101	0.963297
	H329	H	0.179820	0.111304	0.964717
	O330	O	0.535977	0.294565	0.288993
	H331	H	0.523151	0.302658	0.296016
	H332	H	0.529538	0.277916	0.270329
	O333	O	0.471502	0.618452	0.510082
	H334	H	0.481882	0.616868	0.506701
	H335	H	0.467943	0.616787	0.517444
	O336	O	0.424785	0.309567	0.441291
	H337	H	0.430466	0.315765	0.438162
	H338	H	0.424000	0.306388	0.444886
	O339	O	1.283900	-0.273355	0.467836
	H340	H	1.278278	-0.253185	0.471188
	H341	H	1.286272	-0.257312	0.458189
	O342	O	0.176414	0.185690	-0.178133
	H343	H	0.181794	0.197155	-0.185088
	H344	H	0.172547	0.155739	-0.176258
	O345	O	0.182542	0.829069	1.185826
	H346	H	0.177564	0.847250	1.172792
	H347	H	0.152227	0.826218	1.167687
	O348	O	0.285085	-0.476423	0.344622
	H349	H	0.284636	-0.466516	0.341021
	H350	H	0.275256	-0.468065	0.333862
	O351	O	0.505077	0.720326	0.721437
	H352	H	0.527971	0.739970	0.734228
	H353	H	0.535692	0.705652	0.727439
	O354	O	-0.027359	0.222748	0.796225
	H355	H	-0.038973	0.225752	0.787478
	H356	H	-0.034540	0.226715	0.790049
	O357	O	0.408499	0.503437	0.438844
	H358	H	0.405741	0.499028	0.436383
	H359	H	0.414064	0.510838	0.437098
	O360	O	0.389310	0.369841	0.546048
	H361	H	0.370766	0.367809	0.542355
	H362	H	0.387870	0.366644	0.551506
	O363	O	0.206520	-0.195821	-0.201818
	H364	H	0.209591	-0.169998	-0.209559
	H365	H	0.230921	-0.219654	-0.224029
	O366	O	0.312690	0.701133	0.699616
	H367	H	0.338409	0.686296	0.683159
	H368	H	0.330355	0.681090	0.686604
	O369	O	0.385697	0.369571	0.448190
	H370	H	0.391868	0.381578	0.469604
	H371	H	0.373893	0.375338	0.420865
	O372	O	0.886799	0.964067	0.085257
	H373	H	0.878134	0.947389	0.103599
	H374	H	0.878864	0.969924	0.060039
	O375	O	0.775054	-0.012291	-0.018890
	H376	H	0.775175	0.006010	-0.001121
	H377	H	0.769097	-0.011995	-0.016750
	O378	O	0.467553	0.725584	0.292002
	H379	H	0.476746	0.717335	0.280725
	H380	H	0.463348	0.726356	0.277026
	O381	O	-0.190156	1.057739	0.816046
	H382	H	-0.194197	1.053280	0.813380
	H383	H	-0.194157	1.051675	0.809853
	O384	O	1.064427	-0.088577	1.189711
	H385	H	1.053951	-0.095614	1.183565
	H386	H	1.057936	-0.101787	1.202428
	O387	O	1.183438	0.915126	-0.058598
	H388	H	1.188327	0.920305	-0.076523
	H389	H	1.191195	0.908534	-0.058738
	O390	O	0.643764	0.300152	0.417018
	H391	H	0.614300	0.289878	0.413973
	H392	H	0.648109	0.284199	0.395107
	O393	O	0.031480	-0.214156	-0.217445
	H394	H	0.051931	-0.221439	-0.218446
	H395	H	0.045767	-0.232257	-0.234618
	O396	O	-0.155106	0.849932	0.811379
	H397	H	-0.137184	0.850280	0.829732
	H398	H	-0.138539	0.875520	0.821587
	O399	O	0.291587	0.404880	0.700759
	H400	H	0.270122	0.405250	0.712683
	H401	H	0.299516	0.407212	0.667915
	O402	O	0.558387	0.347524	0.481213
	H403	H	0.551790	0.347846	0.481171
	H404	H	0.552565	0.339383	0.474599
	O405	O	1.059040	0.041256	1.051767
	H406	H	1.064513	0.039934	1.063380
	H407	H	1.056235	0.037653	1.047808
	O408	O	0.215185	0.230431	0.042202
	H409	H	0.221668	0.249531	0.043899
	H410	H	0.220548	0.235503	0.049612
	O411	O	0.007325	0.978693	0.954277
	H412	H	-0.000755	0.971318	0.961361
	H413	H	0.014815	0.982057	0.954536
	O414	O	0.780370	0.231749	0.783967
	H415	H	0.755502	0.236241	0.764381
	H416	H	0.792521	0.228212	0.776025
	O417	O	0.345913	0.370771	0.429627
	H418	H	0.337032	0.368890	0.415402
	H419	H	0.342623	0.356185	0.436524
	O420	O	0.719790	0.477796	0.283996
	H421	H	0.715759	0.432194	0.292872
	H422	H	0.752210	0.473466	0.254903
	O423	O	0.450820	-0.269315	0.550157
	H424	H	0.461158	-0.274884	0.543099
	H425	H	0.465039	-0.259960	0.562127
	O426	O	-0.219323	0.230636	-0.028240
	H427	H	-0.220274	0.239128	-0.052306
	H428	H	-0.231145	0.249729	-0.045810
	O429	O	0.806488	1.034223	0.939361
	H430	H	0.804402	1.037111	0.942942
	H431	H	0.803019	1.040846	0.937248
	O432	O	0.764984	0.770045	0.237215
	H433	H	0.757986	0.785175	0.239254
	H434	H	0.741737	0.759894	0.250055
	O435	O	0.149790	0.950531	-0.130865
	H436	H	0.133847	0.969286	-0.129077
	H437	H	0.159653	0.959542	-0.133688
	O438	O	0.003704	-0.166751	-0.025805
	H439	H	0.014052	-0.174315	-0.048022
	H440	H	0.006931	-0.151789	-0.017599
	O441	O	0.025061	0.232950	-0.010656
	H442	H	0.021876	0.229648	-0.039308
	H443	H	0.036389	0.233078	-0.018250
	O444	O	0.557342	0.639382	0.340722
	H445	H	0.544833	0.616600	0.341506
	H446	H	0.567181	0.636159	0.332765
	O447	O	-0.214559	0.796262	1.040492
	H448	H	-0.211299	0.782308	1.026316
	H449	H	-0.217789	0.785379	1.047993
	O450	O	-0.287043	0.728536	1.677045
	H451	H	-0.251854	0.762692	1.697268
	H452	H	-0.292186	0.718842	1.641055
	O453	O	0.686039	0.336172	0.671767
	H454	H	0.668680	0.355123	0.652837
	H455	H	0.673295	0.341684	0.656878
	O456	O	-0.017490	0.018721	1.221135
	H457	H	-0.012599	0.021653	1.216119
	H458	H	-0.023303	0.011764	1.225669
	O459	O	1.082233	0.787457	0.046608
	H460	H	1.094472	0.780726	0.034596
	H461	H	1.072334	0.778638	0.034220
	O462	O	0.299244	0.532230	0.631324
	H463	H	0.310636	0.525508	0.620076
	H464	H	0.286064	0.524200	0.631274
	O465	O	0.903687	-0.069194	-0.073740
	H466	H	0.897691	-0.053008	-0.072147
	H467	H	0.899348	-0.069731	-0.078581
	O468	O	0.351949	0.513523	0.425846
	H469	H	0.347310	0.526795	0.411954
	H470	H	0.348413	0.518780	0.436584
	O471	O	0.294857	0.716136	0.297076
	H472	H	0.279700	0.731707	0.302494
	H473	H	0.312175	0.722137	0.286654
	O474	O	0.504609	0.498608	0.628189
	H475	H	0.497726	0.495393	0.624764
	H476	H	0.496312	0.498941	0.627243
	O477	O	0.698624	0.553077	1.449119
	H478	H	0.710342	0.533118	1.452906
	H479	H	0.697148	0.554965	1.450741
	O480	O	0.292247	0.300495	0.633307
	H481	H	0.300806	0.296694	0.611068
	H482	H	0.292663	0.332860	0.628681
	O483	O	1.229677	0.957468	1.061831
	H484	H	1.225791	0.957266	1.068508
	H485	H	1.234626	0.942036	1.048842
	O486	O	0.970712	-0.024324	0.781668
	H487	H	0.977706	-0.020808	0.785493
	H488	H	0.977646	-0.033450	0.782137
	O489	O	0.832922	0.991357	0.214912
	H490	H	0.830530	0.995210	0.227972
	H491	H	0.840968	0.989421	0.200423
