data_Molecule from HDF5

_cell_length_a		16.549993
_cell_length_b		16.494129
_cell_length_c		16.534215
_cell_angle_alpha	89.957463
_cell_angle_beta	89.951941
_cell_angle_gamma	89.964021
_symmetry_space_group_name_H-M	'P 1'
_symmetry_Int_Tables_number		1

loop_
	_symmetry_equiv_pos_as_xyz
	x,y,z

loop_
	_atom_site_label
	_atom_site_type_symbol
	_atom_site_fract_x
	_atom_site_fract_y
	_atom_site_fract_z
	H0	H	0.393750	0.870176	0.730128
	H1	H	0.606645	0.183315	0.731474
	H2	H	0.602944	0.869832	0.289513
	H3	H	0.397170	0.185524	0.288228
	H4	H	0.722322	0.422212	0.852154
	H5	H	0.722413	0.634596	0.164965
	H6	H	0.278484	0.633851	0.850878
	H7	H	0.278980	0.424044	0.165077
	H8	H	0.842282	0.747939	0.406186
	H9	H	0.157269	0.750193	0.613818
	H10	H	0.843110	0.308176	0.612369
	H11	H	0.158121	0.309572	0.405149
	H12	H	0.843225	0.424242	0.729532
	H13	H	0.156480	0.635678	0.731950
	H14	H	0.842107	0.632181	0.289094
	H15	H	0.157670	0.425854	0.288325
	H16	H	0.395669	0.749470	0.850390
	H17	H	0.604462	0.749248	0.164776
	H18	H	0.604340	0.307888	0.851021
	H19	H	0.395963	0.307624	0.165095
	H20	H	0.719858	0.870067	0.404829
	H21	H	0.722465	0.183900	0.613696
	H22	H	0.276936	0.871133	0.615122
	H23	H	0.279960	0.185826	0.403385
	H24	H	0.894607	0.369880	0.230023
	H25	H	0.103964	0.685213	0.228906
	H26	H	0.107200	0.372637	0.785347
	H27	H	0.893606	0.684654	0.786157
	H28	H	0.223712	0.921464	0.352264
	H29	H	0.221918	0.133378	0.664657
	H30	H	0.778888	0.134150	0.350667
	H31	H	0.779196	0.923876	0.665334
	H32	H	0.343720	0.248672	0.903570
	H33	H	0.656929	0.251051	0.114052
	H34	H	0.346290	0.803338	0.116176
	H35	H	0.656380	0.804795	0.901122
	H36	H	0.345831	0.920500	0.231778
	H37	H	0.657502	0.134168	0.229750
	H38	H	0.344023	0.132482	0.786860
	H39	H	0.655042	0.919387	0.783047
	H40	H	0.895624	0.249781	0.349966
	H41	H	0.103455	0.248058	0.665274
	H42	H	0.107164	0.805507	0.351818
	H43	H	0.895209	0.806324	0.664850
	H44	H	0.222511	0.372531	0.902490
	H45	H	0.222609	0.684915	0.113709
	H46	H	0.778446	0.370411	0.113807
	H47	H	0.778581	0.684733	0.902986
	H48	H	0.413914	0.139760	0.599622
	H49	H	0.590345	0.913705	0.600456
	H50	H	0.591153	0.142152	0.417741
	H51	H	0.414534	0.915388	0.416925
	H52	H	0.584993	0.438100	0.120165
	H53	H	0.593939	0.615974	0.894975
	H54	H	0.414957	0.615561	0.117604
	H55	H	0.408319	0.435261	0.893623
	H56	H	0.110862	0.617008	0.422683
	H57	H	0.892066	0.615568	0.589679
	H58	H	0.111181	0.438548	0.594254
	H59	H	0.885282	0.432627	0.419705
	H60	H	0.112615	0.441964	0.598949
	H61	H	0.889540	0.609969	0.600103
	H62	H	0.112736	0.613669	0.414079
	H63	H	0.890160	0.442064	0.422817
	H64	H	0.410925	0.620017	0.121512
	H65	H	0.588342	0.611245	0.897161
	H66	H	0.592144	0.436170	0.122550
	H67	H	0.408155	0.442825	0.895570
	H68	H	0.589666	0.141851	0.417589
	H69	H	0.582022	0.917813	0.594613
	H70	H	0.413331	0.137176	0.593536
	H71	H	0.413084	0.916904	0.424331
	H72	H	0.909472	0.640963	0.098842
	H73	H	0.088929	0.417155	0.094815
	H74	H	0.094599	0.642635	0.919794
	H75	H	0.910041	0.413829	0.916680
	H76	H	0.091705	0.939267	0.621175
	H77	H	0.086700	0.116156	0.397051
	H78	H	0.900408	0.120726	0.623587
	H79	H	0.910324	0.935876	0.395036
	H80	H	0.616072	0.120884	0.913564
	H81	H	0.389106	0.116784	0.097501
	H82	H	0.613962	0.935419	0.095163
	H83	H	0.386958	0.935192	0.918611
	H84	H	0.610589	0.941994	0.093769
	H85	H	0.388505	0.117463	0.097968
	H86	H	0.611336	0.120369	0.927205
	H87	H	0.390272	0.939546	0.925164
	H88	H	0.912357	0.107066	0.615863
	H89	H	0.089549	0.122274	0.394202
	H90	H	0.087348	0.944586	0.618581
	H91	H	0.908725	0.941896	0.395522
	H92	H	0.084217	0.641334	0.914673
	H93	H	0.092119	0.414779	0.097475
	H94	H	0.911621	0.639656	0.098166
	H95	H	0.915312	0.417288	0.920068
	H96	H	0.408225	0.140267	0.596485
	H97	H	0.591559	0.916245	0.589798
	H98	H	0.590291	0.140855	0.418890
	H99	H	0.408042	0.913896	0.419219
	H100	H	0.590410	0.443601	0.120020
	H101	H	0.586710	0.618738	0.896792
	H102	H	0.408374	0.613220	0.119789
	H103	H	0.414820	0.438721	0.896890
	H104	H	0.114643	0.623057	0.416363
	H105	H	0.887101	0.621271	0.598623
	H106	H	0.114206	0.436085	0.599174
	H107	H	0.886226	0.440793	0.412246
	H108	H	0.909978	0.639988	0.096601
	H109	H	0.087560	0.415826	0.099069
	H110	H	0.085393	0.638084	0.925625
	H111	H	0.909716	0.415745	0.923264
	H112	H	0.085112	0.937455	0.619471
	H113	H	0.094273	0.116229	0.394510
	H114	H	0.919152	0.125290	0.619783
	H115	H	0.914232	0.939922	0.397974
	H116	H	0.610389	0.108579	0.918032
	H117	H	0.389075	0.117150	0.097388
	H118	H	0.613565	0.940730	0.100312
	H119	H	0.388864	0.943671	0.917243
	C120	C	0.378598	0.035697	0.629633
	C121	C	0.620768	1.019192	0.628492
	C122	C	0.622338	0.037315	0.386291
	C123	C	0.379614	1.019359	0.387275
	C124	C	0.621167	0.406981	0.017027
	C125	C	0.621896	0.648842	0.999690
	C126	C	0.379283	0.649526	0.016020
	C127	C	0.378458	0.406780	0.999287
	C128	C	0.008619	0.649831	0.386370
	C129	C	0.992511	0.649251	0.629448
	C130	C	0.008706	0.406815	0.629906
	C131	C	0.991548	0.407190	0.386600
	C132	C	0.878335	0.535934	0.129658
	C133	C	0.121484	0.519763	0.129145
	C134	C	0.121037	0.537288	0.887237
	C135	C	0.879098	0.519298	0.887737
	C136	C	0.121501	0.906968	0.516713
	C137	C	0.121793	0.149943	0.499417
	C138	C	0.878146	0.150126	0.516284
	C139	C	0.879083	0.906889	0.499779
	C140	C	0.508848	0.148708	0.887131
	C141	C	0.492226	0.149835	0.129868
	C142	C	0.509394	0.906799	0.129066
	C143	C	0.491593	0.906151	0.886732
	C144	C	0.375702	0.917664	0.690158
	C145	C	0.624680	0.136532	0.690577
	C146	C	0.622722	0.917524	0.328207
	C147	C	0.378278	0.138189	0.327889
	C148	C	0.681512	0.404296	0.898813
	C149	C	0.681864	0.652114	0.117922
	C150	C	0.318676	0.652151	0.897868
	C151	C	0.319135	0.405509	0.117853
	C152	C	0.889860	0.708776	0.386430
	C153	C	0.110164	0.710069	0.632124
	C154	C	0.890388	0.347595	0.631349
	C155	C	0.110694	0.348875	0.385978
	C156	C	0.890742	0.405132	0.689809
	C157	C	0.109879	0.652736	0.690576
	C158	C	0.889691	0.651103	0.328213
	C159	C	0.110548	0.406554	0.327874
	C160	C	0.377146	0.709472	0.897528
	C161	C	0.623262	0.709275	0.117777
	C162	C	0.622973	0.347525	0.898379
	C163	C	0.377158	0.347504	0.118026
	C164	C	0.680888	0.917822	0.385259
	C165	C	0.682119	0.137049	0.632161
	C166	C	0.317467	0.917996	0.632802
	C167	C	0.320139	0.138270	0.385461
	C168	C	0.876508	0.417157	0.189835
	C169	C	0.123006	0.638189	0.188872
	C170	C	0.124637	0.419508	0.826024
	C171	C	0.876007	0.637465	0.826904
	C172	C	0.183028	0.903572	0.399112
	C173	C	0.181411	0.151610	0.617612
	C174	C	0.818763	0.152229	0.397770
	C175	C	0.819484	0.905433	0.618308
	C176	C	0.390923	0.208800	0.884940
	C177	C	0.609920	0.210723	0.132322
	C178	C	0.392650	0.844547	0.133532
	C179	C	0.609315	0.844992	0.882968
	C180	C	0.392675	0.902744	0.191158
	C181	C	0.610132	0.152766	0.190179
	C182	C	0.391103	0.150952	0.826834
	C183	C	0.608677	0.902122	0.824596
	C184	C	0.876576	0.210087	0.397588
	C185	C	0.122593	0.208639	0.617973
	C186	C	0.125077	0.845915	0.398898
	C187	C	0.877031	0.847137	0.618157
	C188	C	0.182062	0.419394	0.883998
	C189	C	0.181806	0.637982	0.131758
	C190	C	0.818485	0.417531	0.132243
	C191	C	0.818585	0.637445	0.884880
	C192	C	0.404454	0.117908	0.603807
	C193	C	0.595314	0.937366	0.602472
	C194	C	0.597538	0.120103	0.410816
	C195	C	0.404822	0.936891	0.412595
	C196	C	0.596352	0.432113	0.099331
	C197	C	0.596875	0.622973	0.917811
	C198	C	0.404395	0.623894	0.098209
	C199	C	0.403298	0.431720	0.916916
	C200	C	0.091223	0.625029	0.410550
	C201	C	0.910872	0.623174	0.603587
	C202	C	0.091391	0.431652	0.604640
	C203	C	0.908970	0.431650	0.410926
	C204	C	0.903187	0.618581	0.104960
	C205	C	0.096524	0.437275	0.104045
	C206	C	0.095321	0.619463	0.912891
	C207	C	0.904331	0.437048	0.912927
	C208	C	0.095358	0.932975	0.598409
	C209	C	0.097174	0.125131	0.416687
	C210	C	0.903287	0.124987	0.598328
	C211	C	0.903964	0.932028	0.417568
	C212	C	0.591141	0.123629	0.912420
	C213	C	0.410301	0.124280	0.104763
	C214	C	0.591562	0.932381	0.103399
	C215	C	0.410128	0.932149	0.912959
	Zn216	Zn	0.500665	0.027008	0.757906
	Zn217	Zn	0.501439	0.027951	0.258288
	Zn218	Zn	0.750010	0.527539	0.008403
	Zn219	Zn	0.250160	0.528859	0.007609
	Zn220	Zn	0.000810	0.778023	0.508484
	Zn221	Zn	0.000103	0.277992	0.507840
	Zn222	Zn	0.000123	0.528705	0.758762
	Zn223	Zn	-0.000280	0.528071	0.257909
	Zn224	Zn	0.500429	0.777873	0.007773
	Zn225	Zn	0.500435	0.278292	0.007960
	Zn226	Zn	0.750055	0.027947	0.507678
	Zn227	Zn	0.250462	0.027741	0.508317
	N228	N	0.413032	0.991981	0.688423
	N229	N	0.587361	0.062364	0.688334
	N230	N	0.587368	0.992883	0.328513
	N231	N	0.414554	0.063238	0.328809
	N232	N	0.680631	0.440441	0.973705
	N233	N	0.681019	0.615175	0.043575
	N234	N	0.319706	0.615799	0.972721
	N235	N	0.319759	0.441552	0.043062
	N236	N	0.964962	0.708381	0.421471
	N237	N	0.036298	0.707525	0.594351
	N238	N	0.964904	0.348617	0.594754
	N239	N	0.035549	0.348695	0.421429
	N240	N	0.965546	0.441084	0.688978
	N241	N	0.035572	0.615774	0.689174
	N242	N	0.964779	0.615600	0.327700
	N243	N	0.035361	0.441753	0.328046
	N244	N	0.413996	0.707895	0.971906
	N245	N	0.586939	0.707553	0.043130
	N246	N	0.586079	0.349103	0.972794
	N247	N	0.413103	0.347935	0.043119
	N248	N	0.681009	0.993383	0.420425
	N249	N	0.679714	0.063127	0.594055
	N250	N	0.319308	0.992478	0.595907
	N251	N	0.320730	0.063188	0.421478
	N252	N	0.912939	0.491991	0.188527
	N253	N	0.086167	0.563663	0.187474
	N254	N	0.087375	0.493864	0.828070
	N255	N	0.912927	0.563038	0.828355
	N256	N	0.180742	0.940993	0.473226
	N257	N	0.181136	0.115966	0.542695
	N258	N	0.819376	0.115831	0.472504
	N259	N	0.820544	0.941852	0.543597
	N260	N	0.465398	0.207733	0.921531
	N261	N	0.535484	0.209371	0.095730
	N262	N	0.466333	0.847175	0.095464
	N263	N	0.535482	0.847361	0.920993
	N264	N	0.466228	0.940913	0.188350
	N265	N	0.535933	0.115713	0.188948
	N266	N	0.465579	0.114419	0.827895
	N267	N	0.534561	0.939322	0.826699
	N268	N	0.912790	0.209094	0.472240
	N269	N	0.086473	0.207776	0.543216
	N270	N	0.087576	0.847788	0.472986
	N271	N	0.913378	0.847882	0.543576
	N272	N	0.179933	0.493616	0.921456
	N273	N	0.180629	0.563357	0.095300
	N274	N	0.819337	0.492372	0.095890
	N275	N	0.820274	0.562983	0.922023
	O276	O	1.203180	1.229279	0.206033
	H277	H	1.220470	1.222692	0.225992
	H278	H	1.185232	1.210728	0.210117
	O279	O	-0.177596	0.070971	0.802379
	H280	H	-0.176291	0.070566	0.801595
	H281	H	-0.184748	0.075252	0.807456
	O282	O	0.360366	0.498262	0.544137
	H283	H	0.364368	0.489047	0.557526
	H284	H	0.369631	0.498973	0.553160
	O285	O	0.141600	0.138495	0.968559
	H286	H	0.141338	0.144607	0.983306
	H287	H	0.132931	0.127716	0.977272
	O288	O	1.029088	-0.106355	0.806611
	H289	H	1.034152	-0.115760	0.794000
	H290	H	1.022299	-0.119714	0.833482
	O291	O	0.665363	0.501953	0.535507
	H292	H	0.670564	0.500673	0.534494
	H293	H	0.668712	0.499936	0.553830
	O294	O	0.296244	-0.265237	0.298891
	H295	H	0.295367	-0.289917	0.292642
	H296	H	0.300323	-0.274819	0.293492
	O297	O	0.786111	-0.182153	0.037073
	H298	H	0.786433	-0.182594	0.048315
	H299	H	0.766170	-0.196754	0.041885
	O300	O	0.194550	-0.171124	-0.184682
	H301	H	0.174103	-0.155972	-0.194358
	H302	H	0.187040	-0.175535	-0.181448
	O303	O	-0.059453	0.071803	0.229083
	H304	H	-0.053836	0.077247	0.222810
	H305	H	-0.041605	0.072234	0.229190
	O306	O	1.086926	0.041185	-0.215575
	H307	H	1.068933	0.025338	-0.217427
	H308	H	1.080944	0.033783	-0.227139
	O309	O	0.552280	0.330484	0.542929
	H310	H	0.553030	0.329669	0.550732
	H311	H	0.546426	0.326034	0.544654
	O312	O	0.226482	-0.024307	1.053622
	H313	H	0.222175	-0.029247	1.042655
	H314	H	0.234032	-0.014830	1.040080
	O315	O	0.693024	0.691713	0.360388
	H316	H	0.681634	0.676179	0.381217
	H317	H	0.684292	0.669356	0.359576
	O318	O	1.037506	1.246560	0.227860
	H319	H	1.035659	1.277122	0.253841
	H320	H	1.046936	1.243794	0.214710
	O321	O	-0.001863	1.192141	0.814252
	H322	H	0.003160	1.206707	0.823168
	H323	H	0.007127	1.205658	0.801615
	O324	O	0.784172	0.034644	0.979015
	H325	H	0.787071	0.027266	0.988795
	H326	H	0.795057	0.044390	0.992210
	O327	O	0.425457	0.476829	0.327885
	H328	H	0.430559	0.482295	0.339957
	H329	H	0.435244	0.484043	0.322747
	O330	O	0.449160	0.684972	0.640249
	H331	H	0.451962	0.687106	0.646359
	H332	H	0.443444	0.679350	0.632702
	O333	O	0.638498	0.331322	0.539102
	H334	H	0.646001	0.326771	0.537924
	H335	H	0.636423	0.311049	0.537068
	O336	O	0.798831	0.828662	0.199468
	H337	H	0.798179	0.866878	0.195910
	H338	H	0.769630	0.803874	0.210735
	O339	O	0.298840	0.740440	0.486523
	H340	H	0.302741	0.745873	0.465652
	H341	H	0.290428	0.754356	0.466602
	O342	O	-0.443923	0.676521	-0.514819
	H343	H	-0.431608	0.686425	-0.503128
	H344	H	-0.443915	0.668317	-0.502629
	O345	O	0.544010	0.682516	0.652765
	H346	H	0.542183	0.688547	0.673700
	H347	H	0.545354	0.670576	0.640219
	O348	O	0.304371	0.387791	0.654267
	H349	H	0.322850	0.389288	0.658217
	H350	H	0.295221	0.384558	0.648234
	O351	O	-0.162811	-0.106303	0.841636
	H352	H	-0.162714	-0.100876	0.847867
	H353	H	-0.153907	-0.105385	0.846637
	O354	O	0.805509	0.011666	1.018984
	H355	H	0.808886	0.017595	1.028661
	H356	H	0.810869	0.010651	1.021911
	O357	O	0.489575	0.621959	0.682401
	H358	H	0.481715	0.616654	0.689975
	H359	H	0.500978	0.627239	0.663042
	O360	O	0.293627	0.564450	0.298327
	H361	H	0.293821	0.546312	0.314371
	H362	H	0.288333	0.555749	0.284444
	O363	O	1.004699	0.038236	-0.015086
	H364	H	1.007148	0.041561	-0.004140
	H365	H	1.006233	0.044441	-0.016459
	O366	O	0.292266	0.319920	0.597180
	H367	H	0.268431	0.303303	0.609491
	H368	H	0.286944	0.339825	0.617423
	O369	O	-0.027558	-0.044887	1.009352
	H370	H	-0.029316	-0.043666	1.005319
	H371	H	-0.017760	-0.059554	1.018240
	O372	O	0.163453	0.830728	0.925071
	H373	H	0.155355	0.837767	0.897114
	H374	H	0.170261	0.801870	0.926703
	O375	O	1.180728	-0.150433	0.193432
	H376	H	1.175267	-0.129921	0.174636
	H377	H	1.194020	-0.156895	0.193574
	O378	O	0.466775	0.728971	0.318237
	H379	H	0.460591	0.732778	0.318447
	H380	H	0.473092	0.721241	0.318926
	O381	O	-0.097218	1.198977	0.055233
	H382	H	-0.079228	1.185449	0.067980
	H383	H	-0.102424	1.203891	0.050112
	O384	O	0.563815	0.315738	0.445984
	H385	H	0.579854	0.298470	0.446180
	H386	H	0.553361	0.322536	0.438024
	O387	O	0.573677	0.482020	0.676013
	H388	H	0.563980	0.477962	0.688797
	H389	H	0.574451	0.465229	0.674997
	O390	O	-0.128251	1.215839	1.155649
	H391	H	-0.105920	1.207866	1.149213
	H392	H	-0.123149	1.205152	1.145402
	O393	O	1.196297	0.024167	-0.134312
	H394	H	1.198785	0.019996	-0.148984
	H395	H	1.197206	0.045206	-0.135523
	O396	O	0.575240	0.582448	0.305254
	H397	H	0.598145	0.580162	0.308126
	H398	H	0.586084	0.574392	0.313998
	O399	O	0.411809	0.490333	0.526623
	H400	H	0.423831	0.481948	0.527420
	H401	H	0.416479	0.485734	0.534830
	O402	O	1.184224	0.213513	0.823620
	H403	H	1.166103	0.199922	0.839383
	H404	H	1.171265	0.207435	0.837607
	O405	O	1.015293	0.240824	-0.079026
	H406	H	1.019953	0.239983	-0.072348
	H407	H	1.018449	0.238098	-0.069583
	O408	O	0.964135	0.806226	1.229575
	H409	H	0.928640	0.810576	1.221054
	H410	H	0.954914	0.775598	1.260291
	O411	O	1.002884	1.087473	-0.005661
	H412	H	1.015647	1.080869	-0.003622
	H413	H	1.001815	1.065605	-0.007016
	O414	O	-0.056552	-0.189087	-0.068794
	H415	H	-0.082369	-0.177895	-0.053424
	H416	H	-0.036894	-0.199624	-0.035200
	O417	O	0.526250	0.322503	0.298399
	H418	H	0.500176	0.337997	0.311363
	H419	H	0.518407	0.307356	0.282551
	O420	O	1.047097	-0.108278	0.932181
	H421	H	1.063178	-0.119830	0.925042
	H422	H	1.037459	-0.105354	0.924933
	O423	O	1.221853	1.060879	0.224742
	H424	H	1.226586	1.048617	0.240752
	H425	H	1.232326	1.048710	0.224844
	O426	O	0.682610	0.728263	0.706878
	H427	H	0.643091	0.724526	0.709517
	H428	H	0.693034	0.732082	0.713119
	O429	O	0.791637	0.236402	0.796928
	H430	H	0.814204	0.213624	0.799697
	H431	H	0.796863	0.235252	0.819189
	O432	O	0.784032	0.232852	0.973610
	H433	H	0.779090	0.237041	0.965871
	H434	H	0.778605	0.232506	0.979486
	O435	O	0.291905	0.555793	0.593159
	H436	H	0.292945	0.570726	0.591163
	H437	H	0.298810	0.580011	0.592101
	O438	O	0.719741	0.497360	0.306607
	H439	H	0.726453	0.464364	0.294902
	H440	H	0.737137	0.476109	0.299073
	O441	O	0.437167	0.573553	0.553088
	H442	H	0.453816	0.572366	0.559132
	H443	H	0.434649	0.565874	0.564225
	O444	O	0.414887	0.362036	0.719957
	H445	H	0.403559	0.365348	0.729690
	H446	H	0.395351	0.358060	0.721420
	O447	O	0.638981	0.733157	0.516957
	H448	H	0.645826	0.731335	0.520626
	H449	H	0.638394	0.734744	0.530252
	O450	O	1.063428	-0.021480	0.223890
	H451	H	1.056218	-0.038835	0.221199
	H452	H	1.065799	-0.029275	0.231356
	O453	O	0.479657	0.521075	0.584494
	H454	H	0.488648	0.507790	0.588850
	H455	H	0.479210	0.518945	0.568932
	O456	O	-0.346245	0.571526	0.493995
	H457	H	-0.340387	0.579005	0.484623
	H458	H	-0.342224	0.553265	0.502810
	O459	O	0.677065	0.411540	0.659342
	H460	H	0.668288	0.419158	0.643818
	H461	H	0.691965	0.393311	0.670553
	O462	O	0.584600	0.474644	0.656236
	H463	H	0.594085	0.487276	0.676880
	H464	H	0.568009	0.489127	0.656979
	O465	O	0.306669	0.333637	0.396701
	H466	H	0.314862	0.344015	0.429671
	H467	H	0.307629	0.344041	0.397914
	O468	O	-0.216663	-0.000574	0.224625
	H469	H	-0.205668	0.012947	0.223423
	H470	H	-0.230361	-0.002563	0.250006
	O471	O	0.218662	0.246603	0.036283
	H472	H	0.231235	0.269620	0.049373
	H473	H	0.225905	0.246258	0.063479
	O474	O	1.053433	0.820725	0.066346
	H475	H	1.058103	0.814793	0.086177
	H476	H	1.067993	0.818247	0.077560
	O477	O	0.691824	0.334652	0.312404
	H478	H	0.709066	0.312666	0.329762
	H479	H	0.637785	0.326000	0.304338
