data_Molecule from HDF5

_cell_length_a		16.448819
_cell_length_b		16.227276
_cell_length_c		16.461168
_cell_angle_alpha	90.229323
_cell_angle_beta	90.110169
_cell_angle_gamma	89.931319
_symmetry_space_group_name_H-M	'P 1'
_symmetry_Int_Tables_number		1

loop_
	_symmetry_equiv_pos_as_xyz
	x,y,z

loop_
	_atom_site_label
	_atom_site_type_symbol
	_atom_site_fract_x
	_atom_site_fract_y
	_atom_site_fract_z
	H0	H	0.396843	0.842423	0.712230
	H1	H	0.608514	0.161561	0.713871
	H2	H	0.607626	0.842826	0.268246
	H3	H	0.394843	0.162353	0.273054
	H4	H	0.722060	0.394252	0.833972
	H5	H	0.725539	0.613346	0.148971
	H6	H	0.275954	0.611875	0.834741
	H7	H	0.275754	0.396377	0.147660
	H8	H	0.842235	0.722228	0.388401
	H9	H	0.158768	0.721782	0.597051
	H10	H	0.841138	0.281057	0.594604
	H11	H	0.160500	0.281455	0.389383
	H12	H	0.841628	0.394111	0.713378
	H13	H	0.154725	0.612509	0.718631
	H14	H	0.843180	0.610612	0.267540
	H15	H	0.159289	0.393629	0.268274
	H16	H	0.397169	0.721872	0.832568
	H17	H	0.606025	0.726014	0.150449
	H18	H	0.603843	0.281096	0.833197
	H19	H	0.393655	0.281759	0.149726
	H20	H	0.720867	0.840668	0.386087
	H21	H	0.723886	0.160650	0.599856
	H22	H	0.282072	0.841396	0.595742
	H23	H	0.279829	0.161622	0.387547
	H24	H	0.894818	0.342396	0.211213
	H25	H	0.105664	0.662352	0.212919
	H26	H	0.105779	0.343259	0.770297
	H27	H	0.893108	0.662420	0.771442
	H28	H	0.224750	0.891885	0.334125
	H29	H	0.222012	0.106080	0.650389
	H30	H	0.776888	0.108182	0.335226
	H31	H	0.777223	0.891709	0.647970
	H32	H	0.340684	0.219906	0.889067
	H33	H	0.658877	0.223630	0.094820
	H34	H	0.339142	0.786080	0.092846
	H35	H	0.659539	0.780773	0.888410
	H36	H	0.341894	0.897156	0.212801
	H37	H	0.658345	0.109893	0.214259
	H38	H	0.343541	0.109081	0.768433
	H39	H	0.659013	0.894398	0.769489
	H40	H	0.896391	0.221279	0.332502
	H41	H	0.105938	0.223102	0.650029
	H42	H	0.105426	0.779514	0.332517
	H43	H	0.897867	0.782248	0.650727
	H44	H	0.221563	0.343851	0.883703
	H45	H	0.219855	0.663260	0.097819
	H46	H	0.778182	0.342991	0.097616
	H47	H	0.779924	0.662757	0.889251
	H48	H	0.406050	0.120233	0.585021
	H49	H	0.585582	0.888177	0.578372
	H50	H	0.586238	0.116288	0.402483
	H51	H	0.408289	0.883500	0.397017
	H52	H	0.597296	0.412975	0.107662
	H53	H	0.592052	0.588307	0.879400
	H54	H	0.411510	0.591476	0.104326
	H55	H	0.411071	0.416014	0.879349
	H56	H	0.114290	0.583209	0.395500
	H57	H	0.888274	0.583135	0.581358
	H58	H	0.112158	0.416651	0.582806
	H59	H	0.884666	0.408176	0.396905
	H60	H	0.114116	0.413100	0.583207
	H61	H	0.883443	0.594258	0.587093
	H62	H	0.116223	0.595593	0.401063
	H63	H	0.890106	0.412211	0.405887
	H64	H	0.409156	0.594716	0.105876
	H65	H	0.587207	0.589488	0.881864
	H66	H	0.587367	0.425571	0.100361
	H67	H	0.410994	0.410024	0.877429
	H68	H	0.588384	0.113563	0.408264
	H69	H	0.592235	0.887286	0.577454
	H70	H	0.418967	0.115668	0.583716
	H71	H	0.419937	0.888328	0.400355
	H72	H	0.909861	0.618079	0.082231
	H73	H	0.080304	0.392761	0.074840
	H74	H	0.093021	0.618668	0.907805
	H75	H	0.910590	0.388556	0.906198
	H76	H	0.099863	0.911564	0.608086
	H77	H	0.088968	0.097633	0.376693
	H78	H	0.918269	0.091124	0.602362
	H79	H	0.905613	0.918523	0.379340
	H80	H	0.616188	0.094961	0.899845
	H81	H	0.384674	0.095185	0.085314
	H82	H	0.614029	0.917071	0.085093
	H83	H	0.393061	0.922160	0.908080
	H84	H	0.614038	0.910946	0.080096
	H85	H	0.387111	0.092307	0.078672
	H86	H	0.611551	0.091840	0.907328
	H87	H	0.385507	0.917730	0.889515
	H88	H	0.909589	0.092810	0.606846
	H89	H	0.099305	0.087038	0.375385
	H90	H	0.090743	0.919566	0.602445
	H91	H	0.918771	0.915652	0.381231
	H92	H	0.085514	0.619633	0.897812
	H93	H	0.095524	0.387570	0.071934
	H94	H	0.914652	0.616558	0.081267
	H95	H	0.907331	0.385590	0.900808
	H96	H	0.410507	0.115050	0.572680
	H97	H	0.589859	0.886748	0.583305
	H98	H	0.592718	0.116997	0.403897
	H99	H	0.410445	0.888405	0.408793
	H100	H	0.580923	0.409345	0.103660
	H101	H	0.589836	0.593308	0.878493
	H102	H	0.407648	0.590577	0.105243
	H103	H	0.405549	0.414038	0.876466
	H104	H	0.110505	0.585787	0.408709
	H105	H	0.887444	0.595072	0.574324
	H106	H	0.112090	0.413989	0.580062
	H107	H	0.889018	0.418828	0.396532
	H108	H	0.911002	0.617309	0.077071
	H109	H	0.088781	0.384448	0.086433
	H110	H	0.081430	0.613402	0.907769
	H111	H	0.913490	0.387698	0.900138
	H112	H	0.087575	0.906702	0.605437
	H113	H	0.085851	0.083874	0.382367
	H114	H	0.911663	0.084284	0.603219
	H115	H	0.910295	0.906282	0.375870
	H116	H	0.613717	0.086089	0.900322
	H117	H	0.387427	0.088444	0.085022
	H118	H	0.611155	0.917718	0.078097
	H119	H	0.385458	0.903197	0.904353
	C120	C	0.380383	0.010835	0.612482
	C121	C	0.622698	0.992800	0.613284
	C122	C	0.621951	0.010364	0.371115
	C123	C	0.380267	0.992895	0.370720
	C124	C	0.620737	0.382034	-0.000058
	C125	C	0.622325	0.624474	0.983918
	C126	C	0.377806	0.624462	0.000172
	C127	C	0.377192	0.381173	0.982369
	C128	C	0.009285	0.622329	0.369726
	C129	C	0.990752	0.623432	0.613840
	C130	C	0.008051	0.381036	0.613373
	C131	C	0.992285	0.379631	0.368257
	C132	C	0.879226	0.511526	0.112570
	C133	C	0.120943	0.493975	0.111477
	C134	C	0.120356	0.512074	0.870483
	C135	C	0.877987	0.493468	0.870781
	C136	C	0.124355	0.878837	0.500409
	C137	C	0.123271	0.122794	0.482982
	C138	C	0.879492	0.122186	0.499957
	C139	C	0.879501	0.880163	0.483073
	C140	C	0.509323	0.123350	0.870390
	C141	C	0.491172	0.125120	0.114544
	C142	C	0.508118	0.882746	0.112676
	C143	C	0.492692	0.881084	0.869368
	C144	C	0.378518	0.890444	0.672190
	C145	C	0.626308	0.113306	0.674009
	C146	C	0.625241	0.890334	0.309234
	C147	C	0.377377	0.113998	0.312369
	C148	C	0.681588	0.377641	0.881286
	C149	C	0.683918	0.629529	0.102198
	C150	C	0.317315	0.628132	0.881580
	C151	C	0.316234	0.378063	0.100737
	C152	C	0.889818	0.682852	0.368483
	C153	C	0.110419	0.683003	0.615995
	C154	C	0.888862	0.320594	0.613741
	C155	C	0.112415	0.320006	0.368580
	C156	C	0.889095	0.377144	0.672942
	C157	C	0.108367	0.628297	0.676466
	C158	C	0.890526	0.627437	0.308256
	C159	C	0.111635	0.375819	0.308335
	C160	C	0.377609	0.683332	0.880475
	C161	C	0.624626	0.686191	0.102749
	C162	C	0.622706	0.320914	0.880865
	C163	C	0.375466	0.321418	0.101804
	C164	C	0.681641	0.889404	0.367840
	C165	C	0.684047	0.112595	0.617372
	C166	C	0.321388	0.889860	0.614284
	C167	C	0.319434	0.113558	0.368997
	C168	C	0.876678	0.390399	0.171528
	C169	C	0.123681	0.614360	0.172743
	C170	C	0.123457	0.391673	0.809977
	C171	C	0.875192	0.614310	0.811213
	C172	C	0.184274	0.874908	0.381423
	C173	C	0.182509	0.124962	0.602577
	C174	C	0.818049	0.125806	0.381964
	C175	C	0.818457	0.875749	0.601199
	C176	C	0.388912	0.181816	0.869331
	C177	C	0.610810	0.184807	0.114912
	C178	C	0.387741	0.824422	0.112438
	C179	C	0.611918	0.820780	0.869093
	C180	C	0.388938	0.880064	0.172262
	C181	C	0.610607	0.128232	0.174318
	C182	C	0.390526	0.126456	0.809418
	C183	C	0.611595	0.877123	0.809491
	C184	C	0.877494	0.182263	0.380784
	C185	C	0.124291	0.182872	0.602559
	C186	C	0.124810	0.818706	0.380718
	C187	C	0.878502	0.820683	0.602569
	C188	C	0.181051	0.391822	0.866812
	C189	C	0.180852	0.614735	0.115412
	C190	C	0.818393	0.391062	0.115247
	C191	C	0.818657	0.614380	0.869398
	C192	C	0.404925	0.095216	0.587751
	C193	C	0.596593	0.909251	0.587209
	C194	C	0.596450	0.093827	0.397419
	C195	C	0.405512	0.908648	0.394897
	C196	C	0.595795	0.408319	0.082333
	C197	C	0.597045	0.598104	0.901310
	C198	C	0.402362	0.599446	0.083547
	C199	C	0.402088	0.406159	0.899502
	C200	C	0.091918	0.595867	0.394588
	C201	C	0.907905	0.597993	0.588276
	C202	C	0.091042	0.407086	0.588922
	C203	C	0.909554	0.405534	0.392676
	C204	C	0.904598	0.595352	0.087523
	C205	C	0.095553	0.410171	0.085337
	C206	C	0.094225	0.595628	0.896875
	C207	C	0.903313	0.409233	0.895277
	C208	C	0.099844	0.904940	0.583703
	C209	C	0.098583	0.096881	0.399750
	C210	C	0.905541	0.096557	0.582585
	C211	C	0.904392	0.906075	0.400521
	C212	C	0.592361	0.098168	0.895180
	C213	C	0.408105	0.099322	0.090121
	C214	C	0.591411	0.907958	0.088214
	C215	C	0.409612	0.906955	0.893537
	Zn216	Zn	0.501511	0.002942	0.740198
	Zn217	Zn	0.500654	0.002596	0.242870
	Zn218	Zn	0.751012	0.502155	-0.007709
	Zn219	Zn	0.248316	0.503666	-0.009125
	Zn220	Zn	0.000730	0.751639	0.491570
	Zn221	Zn	0.000916	0.251829	0.491443
	Zn222	Zn	-0.001344	0.502216	0.742922
	Zn223	Zn	0.000928	0.501632	0.239529
	Zn224	Zn	0.499844	0.752753	-0.007828
	Zn225	Zn	0.499505	0.252543	-0.008653
	Zn226	Zn	0.750074	0.000931	0.491949
	Zn227	Zn	0.252189	0.001173	0.491207
	N228	N	0.414571	0.966718	0.671123
	N229	N	0.588994	0.037720	0.671827
	N230	N	0.588907	0.966494	0.311043
	N231	N	0.414562	0.038203	0.313589
	N232	N	0.680549	0.415298	0.956318
	N233	N	0.682538	0.591841	0.027400
	N234	N	0.317300	0.592330	0.957153
	N235	N	0.317063	0.414547	0.025586
	N236	N	0.964404	0.679833	0.405861
	N237	N	0.036198	0.680225	0.577833
	N238	N	0.964124	0.322613	0.577780
	N239	N	0.037390	0.321993	0.404928
	N240	N	0.964345	0.413931	0.672991
	N241	N	0.032750	0.592320	0.675618
	N242	N	0.965781	0.590063	0.309061
	N243	N	0.035989	0.411994	0.307908
	N244	N	0.414720	0.680939	0.955190
	N245	N	0.586823	0.683026	0.028289
	N246	N	0.585452	0.323745	0.955344
	N247	N	0.412368	0.323033	0.026996
	N248	N	0.679780	0.965048	0.405577
	N249	N	0.681923	0.036551	0.580269
	N250	N	0.322534	0.965626	0.577775
	N251	N	0.321057	0.037100	0.404592
	N252	N	0.913435	0.466311	0.170246
	N253	N	0.087160	0.538279	0.170308
	N254	N	0.086466	0.467639	0.811947
	N255	N	0.911233	0.537723	0.811859
	N256	N	0.184238	0.911307	0.456941
	N257	N	0.181882	0.088276	0.527109
	N258	N	0.819096	0.089486	0.457202
	N259	N	0.818686	0.911788	0.525792
	N260	N	0.463686	0.179869	0.906475
	N261	N	0.535485	0.183197	0.078824
	N262	N	0.463017	0.825739	0.076261
	N263	N	0.536919	0.822920	0.905444
	N264	N	0.464939	0.915317	0.172624
	N265	N	0.535164	0.091864	0.174127
	N266	N	0.466393	0.090829	0.809830
	N267	N	0.536352	0.914050	0.809661
	N268	N	0.914990	0.180178	0.455372
	N269	N	0.088322	0.181634	0.527133
	N270	N	0.088427	0.820923	0.455821
	N271	N	0.915820	0.823403	0.528095
	N272	N	0.179205	0.467837	0.903808
	N273	N	0.179226	0.538819	0.077930
	N274	N	0.819867	0.467469	0.079283
	N275	N	0.820320	0.538270	0.905487
	O276	O	0.561037	0.640505	0.455978
	H277	H	0.542190	0.645349	0.454112
	H278	H	0.562356	0.652077	0.454199
	O279	O	0.592979	0.634726	0.377887
	H280	H	0.576206	0.638703	0.386053
	H281	H	0.585480	0.632824	0.378120
	O282	O	-0.003070	-0.091005	0.854077
	H283	H	0.004479	-0.059760	0.847169
	H284	H	-0.025434	-0.081957	0.841437
	O285	O	0.948711	0.871770	-0.204706
	H286	H	0.951757	0.860739	-0.208581
	H287	H	0.944018	0.866325	-0.184772
	O288	O	0.132166	0.171950	0.160434
	H289	H	0.130363	0.174838	0.157523
	H290	H	0.110114	0.158087	0.147133
	O291	O	1.055464	0.118425	0.938901
	H292	H	1.062323	0.139756	0.942125
	H293	H	1.051982	0.116688	0.954046
	O294	O	1.028478	0.825756	1.177120
	H295	H	1.051853	0.836853	1.168736
	H296	H	1.037254	0.814960	1.171095
	O297	O	0.557193	0.536526	0.695899
	H298	H	0.568586	0.544820	0.696706
	H299	H	0.561599	0.519134	0.707867
	O300	O	0.290241	0.709416	0.464962
	H301	H	0.289489	0.687403	0.491445
	H302	H	0.268800	0.739605	0.469012
	O303	O	0.426192	0.536857	0.368289
	H304	H	0.430434	0.540462	0.343797
	H305	H	0.436185	0.517796	0.379660
	O306	O	0.055762	0.077101	1.028404
	H307	H	0.075136	0.091514	1.020211
	H308	H	0.043442	0.071005	1.033128
	O309	O	1.003294	0.156161	-0.177898
	H310	H	0.998272	0.172598	-0.188038
	H311	H	0.992561	0.146011	-0.182453
	O312	O	0.354667	0.393752	0.445226
	H313	H	0.366146	0.396967	0.442176
	H314	H	0.353492	0.376382	0.437613
	O315	O	0.691671	0.476192	0.277054
	H316	H	0.714941	0.487407	0.265248
	H317	H	0.679993	0.503214	0.275658
	O318	O	-0.192152	-0.177145	0.022635
	H319	H	-0.193231	-0.185426	0.024632
	H320	H	-0.187554	-0.164269	0.014834
	O321	O	0.019834	0.909439	1.033439
	H322	H	0.029174	0.913092	1.038125
	H323	H	0.030984	0.907562	1.034251
	O324	O	0.863983	-0.043294	1.000484
	H325	H	0.857250	-0.052490	1.036083
	H326	H	0.869218	-0.038949	1.007460
	O327	O	0.522437	0.702653	0.616609
	H328	H	0.550421	0.702839	0.617354
	H329	H	0.525726	0.713371	0.618716
	O330	O	-0.042762	0.864071	0.977557
	H331	H	-0.041277	0.879334	0.963194
	H332	H	-0.024877	0.851522	0.990956
	O333	O	0.191706	0.891384	0.034143
	H334	H	0.198403	0.907055	0.036197
	H335	H	0.210431	0.898860	0.032620
	O336	O	0.833937	0.825118	0.167681
	H337	H	0.868512	0.818449	0.161265
	H338	H	0.838696	0.814253	0.144451
	O339	O	-0.020836	1.152665	1.098294
	H340	H	-0.033114	1.149503	1.092605
	H341	H	-0.033243	1.162165	1.108977
	O342	O	0.403551	0.473826	0.340389
	H343	H	0.412540	0.475496	0.337424
	H344	H	0.401057	0.481069	0.334451
	O345	O	-0.079983	0.105675	1.103563
	H346	H	-0.065006	0.086665	1.089239
	H347	H	-0.074767	0.123997	1.127095
	O348	O	0.524452	0.284610	0.271433
	H349	H	0.547858	0.278001	0.256651
	H350	H	0.553171	0.270993	0.260020
	O351	O	0.617370	0.368163	0.465806
	H352	H	0.618918	0.374735	0.465264
	H353	H	0.624279	0.361351	0.468892
	O354	O	1.184609	0.900082	0.875085
	H355	H	1.196597	0.902563	0.856032
	H356	H	1.181962	0.904450	0.872518
	O357	O	0.130892	-0.123054	-0.179646
	H358	H	0.157343	-0.106156	-0.169515
	H359	H	0.144531	-0.144870	-0.198414
	O360	O	0.544517	0.372350	0.535972
	H361	H	0.547349	0.370727	0.524312
	H362	H	0.546793	0.368688	0.540213
	O363	O	1.171360	-0.017327	0.124282
	H364	H	1.169417	-0.010761	0.128531
	H365	H	1.167510	-0.011283	0.137583
	O366	O	-0.496960	0.527489	0.594432
	H367	H	-0.505631	0.525651	0.601574
	H368	H	-0.496069	0.546483	0.590699
	O369	O	1.688497	0.312692	0.304795
	H370	H	1.694732	0.308114	0.345033
	H371	H	1.699577	0.360030	0.300998
	O372	O	0.350030	0.605017	0.586871
	H373	H	0.366518	0.604588	0.599642
	H374	H	0.357491	0.587224	0.581001
	O375	O	-0.531997	-0.454217	1.403825
	H376	H	-0.536010	-0.430696	1.410568
	H377	H	-0.537213	-0.439012	1.412913
	O378	O	0.326540	0.682500	0.306204
	H379	H	0.316947	0.650659	0.301461
	H380	H	0.312584	0.686711	0.350214
	O381	O	-0.100227	1.181101	-0.013540
	H382	H	-0.115249	1.185808	-0.017714
	H383	H	-0.097036	1.178440	-0.034659
	O384	O	0.397595	0.416894	0.397175
	H385	H	0.409464	0.413726	0.380362
	H386	H	0.406473	0.422275	0.387539
	O387	O	0.839926	1.180331	-0.168669
	H388	H	0.835744	1.159937	-0.159747
	H389	H	0.858319	1.173510	-0.166060
	O390	O	0.942372	0.999787	0.207779
	H391	H	0.916577	0.992567	0.205982
	H392	H	0.947875	1.005956	0.222453
	O393	O	1.158050	0.178942	0.970869
	H394	H	1.135629	0.189791	0.966021
	H395	H	1.157673	0.182256	0.988453
	O396	O	0.488892	0.326229	0.692761
	H397	H	0.453938	0.332161	0.689666
	H398	H	0.478620	0.312474	0.706618
	O399	O	0.814744	0.106776	0.873136
	H400	H	0.807016	0.108165	0.861883
	H401	H	0.816865	0.094277	0.879215
	O402	O	0.812173	0.986840	-0.010355
	H403	H	0.789907	0.983594	-0.011900
	H404	H	0.821399	0.949475	-0.009305
	O405	O	0.514063	0.570239	0.494707
	H406	H	0.513465	0.584912	0.481515
	H407	H	0.528723	0.577359	0.507698
	O408	O	0.600209	0.307796	0.517550
	H409	H	0.594174	0.297756	0.514820
	H410	H	0.598370	0.301849	0.527778
	O411	O	1.704588	0.607870	1.491343
	H412	H	1.705288	0.615333	1.501940
	H413	H	1.710535	0.587641	1.488168
	O414	O	0.304670	0.420700	0.627732
	H415	H	0.291621	0.412344	0.643219
	H416	H	0.319122	0.424722	0.616616
	O417	O	0.316300	0.651414	0.667200
	H418	H	0.323677	0.640004	0.655611
	H419	H	0.334698	0.665695	0.668745
	O420	O	0.017646	0.972445	0.852540
	H421	H	0.010449	0.971192	0.855581
	H422	H	0.016999	0.966376	0.848767
	O423	O	0.176384	1.044325	-0.030295
	H424	H	0.173903	1.073911	-0.025164
	H425	H	0.181812	1.052382	-0.023408
	O426	O	0.686878	0.690458	0.643203
	H427	H	0.697275	0.693344	0.624733
	H428	H	0.698558	0.660779	0.647898
	O429	O	0.437319	0.606641	0.295032
	H430	H	0.433808	0.645095	0.274502
	H431	H	0.409728	0.598631	0.303988
	O432	O	0.303917	0.395086	0.631884
	H433	H	0.296965	0.397675	0.630810
	H434	H	0.297337	0.386556	0.610092
	O435	O	-0.065314	0.101266	0.155575
	H436	H	-0.087004	0.094480	0.157892
	H437	H	-0.076958	0.096596	0.161774
	O438	O	-0.368549	1.606593	1.699442
	H439	H	-0.352335	1.588929	1.684186
	H440	H	-0.349566	1.615160	1.717759
	O441	O	0.624551	0.354194	0.612475
	H442	H	0.609042	0.363301	0.611426
	H443	H	0.592743	0.346153	0.609171
