data_Molecule from HDF5

_cell_length_a		16.173292
_cell_length_b		16.222446
_cell_length_c		16.323416
_cell_angle_alpha	89.726115
_cell_angle_beta	89.814244
_cell_angle_gamma	89.812147
_symmetry_space_group_name_H-M	'P 1'
_symmetry_Int_Tables_number		1

loop_
	_symmetry_equiv_pos_as_xyz
	x,y,z

loop_
	_atom_site_label
	_atom_site_type_symbol
	_atom_site_fract_x
	_atom_site_fract_y
	_atom_site_fract_z
	H0	H	0.418268	0.830174	0.727062
	H1	H	0.615160	0.158827	0.722560
	H2	H	0.619044	0.830463	0.295505
	H3	H	0.416488	0.156987	0.294387
	H4	H	0.733794	0.396619	0.845686
	H5	H	0.729893	0.588673	0.173694
	H6	H	0.304319	0.594251	0.845244
	H7	H	0.303369	0.395858	0.172885
	H8	H	0.852906	0.708827	0.410467
	H9	H	0.182758	0.705396	0.604505
	H10	H	0.852082	0.282008	0.606798
	H11	H	0.182936	0.281334	0.412394
	H12	H	0.853786	0.395011	0.724815
	H13	H	0.182944	0.590727	0.720504
	H14	H	0.853256	0.593865	0.293901
	H15	H	0.181416	0.393566	0.293857
	H16	H	0.419550	0.711130	0.846708
	H17	H	0.616469	0.707149	0.173171
	H18	H	0.617370	0.279705	0.845458
	H19	H	0.418669	0.278738	0.172591
	H20	H	0.730408	0.829340	0.415242
	H21	H	0.729303	0.158851	0.605496
	H22	H	0.305736	0.828590	0.608478
	H23	H	0.304948	0.158334	0.412699
	H24	H	0.918557	0.330168	0.224581
	H25	H	0.115934	0.657933	0.222848
	H26	H	0.119282	0.329835	0.795356
	H27	H	0.918384	0.657955	0.792855
	H28	H	0.233781	0.895893	0.346212
	H29	H	0.229601	0.088646	0.673632
	H30	H	0.804717	0.091500	0.345336
	H31	H	0.803815	0.894479	0.672927
	H32	H	0.352135	0.208583	0.911673
	H33	H	0.682262	0.206277	0.106050
	H34	H	0.352374	0.780972	0.108323
	H35	H	0.682733	0.782417	0.914781
	H36	H	0.352615	0.895632	0.225293
	H37	H	0.682358	0.091796	0.223698
	H38	H	0.352747	0.095406	0.794151
	H39	H	0.681647	0.894658	0.796162
	H40	H	0.918989	0.209412	0.345724
	H41	H	0.115927	0.206614	0.673004
	H42	H	0.115726	0.781126	0.344751
	H43	H	0.920412	0.778645	0.672073
	H44	H	0.231071	0.329303	0.913231
	H45	H	0.229408	0.658593	0.105143
	H46	H	0.805460	0.329689	0.107842
	H47	H	0.805659	0.659420	0.911895
	H48	H	0.416968	0.114286	0.610486
	H49	H	0.604387	0.877362	0.608403
	H50	H	0.619131	0.113235	0.418049
	H51	H	0.425487	0.872048	0.403868
	H52	H	0.602934	0.399687	0.122794
	H53	H	0.606889	0.596642	0.892670
	H54	H	0.420485	0.588501	0.127541
	H55	H	0.428684	0.396674	0.893226
	H56	H	0.137570	0.586406	0.409134
	H57	H	0.898831	0.586433	0.604293
	H58	H	0.135361	0.399984	0.602338
	H59	H	0.898806	0.406740	0.409735
	H60	H	0.135661	0.399774	0.603555
	H61	H	0.899965	0.587874	0.601427
	H62	H	0.135437	0.591350	0.417804
	H63	H	0.897461	0.393293	0.416055
	H64	H	0.423161	0.582653	0.124558
	H65	H	0.620913	0.589177	0.889782
	H66	H	0.613484	0.391868	0.127886
	H67	H	0.419042	0.399136	0.889784
	H68	H	0.608254	0.113943	0.406668
	H69	H	0.612762	0.877828	0.597927
	H70	H	0.434063	0.108827	0.605869
	H71	H	0.438651	0.881779	0.422948
	H72	H	0.926053	0.610963	0.102927
	H73	H	0.105215	0.376719	0.106172
	H74	H	0.105934	0.608163	0.921929
	H75	H	0.923658	0.374924	0.910117
	H76	H	0.104494	0.900105	0.623568
	H77	H	0.103511	0.088985	0.395061
	H78	H	0.927404	0.089945	0.625181
	H79	H	0.919413	0.898260	0.390541
	H80	H	0.637897	0.087686	0.906716
	H81	H	0.396658	0.092594	0.108581
	H82	H	0.629235	0.913818	0.096525
	H83	H	0.395540	0.896341	0.912948
	H84	H	0.639713	0.900073	0.119575
	H85	H	0.401558	0.088333	0.094902
	H86	H	0.635149	0.093517	0.922158
	H87	H	0.401839	0.901208	0.926395
	H88	H	0.920152	0.088646	0.627421
	H89	H	0.117255	0.095066	0.388824
	H90	H	0.112612	0.891949	0.627583
	H91	H	0.923993	0.906803	0.393483
	H92	H	0.120493	0.614297	0.913446
	H93	H	0.110658	0.379147	0.096545
	H94	H	0.923813	0.611695	0.100918
	H95	H	0.933569	0.379790	0.918012
	H96	H	0.420182	0.109509	0.593545
	H97	H	0.617361	0.873082	0.610112
	H98	H	0.604050	0.108699	0.420589
	H99	H	0.414853	0.875441	0.426178
	H100	H	0.615894	0.405747	0.125784
	H101	H	0.607855	0.581706	0.895967
	H102	H	0.426844	0.589122	0.124772
	H103	H	0.425476	0.406972	0.895148
	H104	H	0.133258	0.581319	0.416996
	H105	H	0.900994	0.584349	0.601605
	H106	H	0.136243	0.398306	0.602918
	H107	H	0.903441	0.404900	0.424175
	H108	H	0.923281	0.612894	0.103796
	H109	H	0.115826	0.374032	0.105391
	H110	H	0.104896	0.612501	0.904795
	H111	H	0.921027	0.377697	0.922985
	H112	H	0.115805	0.902349	0.625729
	H113	H	0.116097	0.079905	0.393932
	H114	H	0.923722	0.083235	0.624739
	H115	H	0.929386	0.898266	0.392884
	H116	H	0.630794	0.077510	0.918592
	H117	H	0.401815	0.078589	0.106269
	H118	H	0.636525	0.886501	0.095862
	H119	H	0.401059	0.910434	0.914186
	C120	C	0.395835	0.002143	0.632407
	C121	C	0.639009	0.985390	0.632276
	C122	C	0.639024	0.002850	0.388471
	C123	C	0.397018	0.984969	0.389211
	C124	C	0.640038	0.371322	0.017293
	C125	C	0.639651	0.615912	1.001233
	C126	C	0.395338	0.616458	0.017970
	C127	C	0.395931	0.372346	1.000752
	C128	C	0.026297	0.615337	0.386567
	C129	C	1.009072	0.614111	0.629522
	C130	C	0.026685	0.371363	0.631534
	C131	C	1.008945	0.373047	0.388080
	C132	C	0.896166	0.502853	0.131293
	C133	C	0.138926	0.485246	0.130811
	C134	C	0.139611	0.502721	0.886706
	C135	C	0.896604	0.485613	0.887551
	C136	C	0.139739	0.870961	0.517504
	C137	C	0.139866	0.115169	0.501022
	C138	C	0.895660	0.116147	0.517553
	C139	C	0.895977	0.871854	0.500368
	C140	C	0.525599	0.115469	0.887573
	C141	C	0.509107	0.114444	0.130633
	C142	C	0.526291	0.871814	0.132965
	C143	C	0.508760	0.873935	0.889893
	C144	C	0.398016	0.878800	0.688595
	C145	C	0.635612	0.109338	0.685529
	C146	C	0.637879	0.879109	0.334406
	C147	C	0.397613	0.108490	0.333393
	C148	C	0.695542	0.375465	0.894552
	C149	C	0.693273	0.611002	0.124764
	C150	C	0.341472	0.614684	0.894449
	C151	C	0.341007	0.374946	0.123850
	C152	C	0.901988	0.670345	0.390204
	C153	C	0.133356	0.668337	0.625812
	C154	C	0.901953	0.318249	0.628226
	C155	C	0.133530	0.318624	0.391347
	C156	C	0.902665	0.374620	0.686660
	C157	C	0.133635	0.611190	0.683185
	C158	C	0.902220	0.613491	0.332206
	C159	C	0.132761	0.374536	0.332423
	C160	C	0.398861	0.672554	0.895073
	C161	C	0.636600	0.669487	0.124483
	C162	C	0.637755	0.317403	0.894192
	C163	C	0.398527	0.317026	0.123810
	C164	C	0.693435	0.878641	0.393427
	C165	C	0.692315	0.109511	0.627232
	C166	C	0.342034	0.878050	0.629813
	C167	C	0.341912	0.108983	0.391978
	C168	C	0.898450	0.379192	0.186552
	C169	C	0.136227	0.608747	0.185324
	C170	C	0.138709	0.378935	0.832897
	C171	C	0.898550	0.609099	0.831442
	C172	C	0.195527	0.874633	0.394561
	C173	C	0.192787	0.110284	0.624612
	C174	C	0.841626	0.113026	0.394266
	C175	C	0.841651	0.874405	0.623914
	C176	C	0.401413	0.171239	0.890583
	C177	C	0.633266	0.168730	0.127315
	C178	C	0.401801	0.817876	0.129707
	C179	C	0.633366	0.819379	0.893282
	C180	C	0.402023	0.874596	0.187891
	C181	C	0.633146	0.111923	0.185666
	C182	C	0.401746	0.114657	0.832429
	C183	C	0.632733	0.875163	0.834630
	C184	C	0.898565	0.171237	0.394445
	C185	C	0.135949	0.168728	0.624291
	C186	C	0.136953	0.817762	0.393804
	C187	C	0.899502	0.816743	0.623591
	C188	C	0.194482	0.378742	0.891565
	C189	C	0.192353	0.609381	0.126495
	C190	C	0.842286	0.378979	0.128447
	C191	C	0.842260	0.609795	0.890453
	C192	C	0.417446	0.088623	0.609857
	C193	C	0.617549	0.898308	0.611623
	C194	C	0.616969	0.089583	0.409048
	C195	C	0.419598	0.898757	0.411256
	C196	C	0.617487	0.392746	0.103246
	C197	C	0.618339	0.595159	0.915052
	C198	C	0.417048	0.593467	0.103442
	C199	C	0.417842	0.394503	0.914898
	C200	C	0.113080	0.592981	0.408257
	C201	C	0.922325	0.592546	0.608654
	C202	C	0.113390	0.392926	0.609477
	C203	C	0.922308	0.395171	0.410145
	C204	C	0.918070	0.589522	0.109139
	C205	C	0.117115	0.398770	0.109084
	C206	C	0.117046	0.589246	0.907370
	C207	C	0.919414	0.399600	0.910162
	C208	C	0.117604	0.891826	0.603352
	C209	C	0.118556	0.094411	0.414914
	C210	C	0.917370	0.093964	0.603519
	C211	C	0.917760	0.894332	0.414466
	C212	C	0.612120	0.092801	0.909369
	C213	C	0.422575	0.092995	0.109465
	C214	C	0.612862	0.893634	0.110732
	C215	C	0.422079	0.896191	0.911575
	Zn216	Zn	0.517427	-0.006020	0.760445
	Zn217	Zn	0.517688	-0.006114	0.260312
	Zn218	Zn	0.768604	0.494414	0.009694
	Zn219	Zn	0.266994	0.494596	0.008892
	Zn220	Zn	0.017623	0.742644	0.508222
	Zn221	Zn	0.017843	0.244534	0.509269
	Zn222	Zn	0.018557	0.493765	0.758830
	Zn223	Zn	0.017337	0.493768	0.259066
	Zn224	Zn	0.517560	0.744729	0.010529
	Zn225	Zn	0.517756	0.242911	0.008881
	Zn226	Zn	0.767013	-0.005673	0.509886
	Zn227	Zn	0.268803	-0.006744	0.509815
	N228	N	0.430769	0.956882	0.690300
	N229	N	0.603344	0.031033	0.688523
	N230	N	0.605120	0.957350	0.330795
	N231	N	0.431179	0.030509	0.331386
	N232	N	0.696917	0.408319	0.972090
	N233	N	0.695263	0.578536	0.047000
	N234	N	0.339281	0.580188	0.971696
	N235	N	0.339389	0.408829	0.046448
	N236	N	0.980233	0.671637	0.423176
	N237	N	0.055078	0.670092	0.593029
	N238	N	0.980123	0.316131	0.594682
	N239	N	0.055635	0.317642	0.425338
	N240	N	0.981252	0.406775	0.688951
	N241	N	0.055420	0.577898	0.685576
	N242	N	0.980426	0.579930	0.330002
	N243	N	0.054258	0.407691	0.330370
	N244	N	0.431576	0.673862	0.972728
	N245	N	0.603780	0.672563	0.046822
	N246	N	0.604120	0.314691	0.971691
	N247	N	0.432127	0.315405	0.046238
	N248	N	0.694165	0.956651	0.426452
	N249	N	0.694787	0.031260	0.594996
	N250	N	0.340632	0.955720	0.595559
	N251	N	0.341643	0.031209	0.426169
	N252	N	0.931081	0.457339	0.188386
	N253	N	0.103645	0.530592	0.187756
	N254	N	0.105149	0.456873	0.829951
	N255	N	0.931703	0.530858	0.829727
	N256	N	0.197331	0.907135	0.472346
	N257	N	0.195181	0.077396	0.547225
	N258	N	0.839731	0.079388	0.471789
	N259	N	0.839389	0.908141	0.546345
	N260	N	0.479399	0.171684	0.924332
	N261	N	0.555483	0.170262	0.093776
	N262	N	0.479985	0.815967	0.096429
	N263	N	0.555287	0.818640	0.926973
	N264	N	0.480538	0.907423	0.190074
	N265	N	0.554898	0.078851	0.187899
	N266	N	0.479844	0.080947	0.830480
	N267	N	0.554189	0.908236	0.832127
	N268	N	0.931405	0.173440	0.472245
	N269	N	0.103617	0.171837	0.546371
	N270	N	0.102968	0.815374	0.471137
	N271	N	0.932481	0.815085	0.545881
	N272	N	0.195040	0.456711	0.924461
	N273	N	0.194323	0.531490	0.093545
	N274	N	0.840900	0.456863	0.094641
	N275	N	0.840837	0.532015	0.924533
	O276	O	0.456207	0.507958	0.517652
	H277	H	0.455347	0.510976	0.519283
	H278	H	0.458567	0.504469	0.510071
	O279	O	-0.517872	0.537064	-0.517896
	H280	H	-0.518842	0.538283	-0.524830
	H281	H	-0.527302	0.544371	-0.526214
	O282	O	0.497762	0.498589	0.506701
	H283	H	0.505295	0.497635	0.506281
	H284	H	0.490987	0.492212	0.510061
	O285	O	-0.026774	1.077593	0.952685
	H286	H	-0.028656	1.076155	0.948784
	H287	H	-0.031626	1.076691	0.947240
	O288	O	0.990436	0.079239	-0.075868
	H289	H	0.995031	0.072978	-0.077005
	H290	H	0.987958	0.079747	-0.081917
	O291	O	-1.029051	1.014751	-1.069713
	H292	H	-1.024866	1.019982	-1.076482
	H293	H	-1.041679	1.014558	-1.066304
	O294	O	0.464008	0.547912	0.446082
	H295	H	0.463384	0.555462	0.445744
	H296	H	0.460337	0.551153	0.443382
	O297	O	0.007837	0.992276	-0.067662
	H298	H	0.003853	0.991226	-0.071167
	H299	H	0.009637	0.994511	-0.066939
	O300	O	0.906876	0.051997	0.928042
	H301	H	0.902237	0.054207	0.924830
	H302	H	0.897103	0.058166	0.934140
	O303	O	0.486056	0.483888	0.481240
	H304	H	0.487391	0.482256	0.485969
	H305	H	0.481407	0.487967	0.475626
	O306	O	-0.039746	1.014040	0.920278
	H307	H	-0.028608	1.016801	0.919175
	H308	H	-0.041038	1.021692	0.916299
	O309	O	0.478894	0.497056	0.492905
	H310	H	0.479349	0.490171	0.504600
	H311	H	0.480747	0.494763	0.498322
