data_Molecule from HDF5

_cell_length_a		16.049132
_cell_length_b		16.414507
_cell_length_c		16.472354
_cell_angle_alpha	90.133170
_cell_angle_beta	89.738248
_cell_angle_gamma	90.010570
_symmetry_space_group_name_H-M	'P 1'
_symmetry_Int_Tables_number		1

loop_
	_symmetry_equiv_pos_as_xyz
	x,y,z

loop_
	_atom_site_label
	_atom_site_type_symbol
	_atom_site_fract_x
	_atom_site_fract_y
	_atom_site_fract_z
	H0	H	0.385870	0.827264	0.732915
	H1	H	0.598570	0.144785	0.728272
	H2	H	0.604261	0.827995	0.283433
	H3	H	0.387752	0.144059	0.288815
	H4	H	0.711460	0.384933	0.848767
	H5	H	0.712433	0.587275	0.169787
	H6	H	0.277355	0.585426	0.848857
	H7	H	0.275137	0.386254	0.170136
	H8	H	0.832613	0.704431	0.400642
	H9	H	0.155715	0.702503	0.611242
	H10	H	0.830622	0.267457	0.607239
	H11	H	0.159645	0.268245	0.405397
	H12	H	0.831572	0.377127	0.726866
	H13	H	0.155572	0.587779	0.726580
	H14	H	0.830741	0.586328	0.289430
	H15	H	0.156814	0.378889	0.288528
	H16	H	0.389064	0.706592	0.850921
	H17	H	0.602162	0.709476	0.167727
	H18	H	0.601027	0.262633	0.851855
	H19	H	0.384141	0.263050	0.167783
	H20	H	0.711427	0.823487	0.406683
	H21	H	0.709775	0.146483	0.605608
	H22	H	0.275697	0.823670	0.610843
	H23	H	0.279474	0.146428	0.412414
	H24	H	0.887178	0.322122	0.227692
	H25	H	0.101630	0.640365	0.232309
	H26	H	0.100197	0.324631	0.786872
	H27	H	0.884969	0.641476	0.784256
	H28	H	0.214546	0.883038	0.348047
	H29	H	0.207884	0.082669	0.670744
	H30	H	0.778828	0.083799	0.347103
	H31	H	0.776373	0.883487	0.668730
	H32	H	0.329498	0.200721	0.910302
	H33	H	0.656407	0.204580	0.112799
	H34	H	0.330334	0.768784	0.113142
	H35	H	0.657736	0.768839	0.906377
	H36	H	0.331757	0.882458	0.229021
	H37	H	0.656530	0.091872	0.228323
	H38	H	0.330653	0.088553	0.793518
	H39	H	0.656462	0.882711	0.790421
	H40	H	0.892313	0.202461	0.348738
	H41	H	0.101047	0.206304	0.665813
	H42	H	0.104196	0.759282	0.350316
	H43	H	0.886374	0.761290	0.666213
	H44	H	0.210889	0.323266	0.908874
	H45	H	0.205966	0.646476	0.106926
	H46	H	0.775233	0.322718	0.107602
	H47	H	0.779911	0.647580	0.910411
	H48	H	0.397907	0.099943	0.596639
	H49	H	0.580884	0.869309	0.607501
	H50	H	0.581620	0.095880	0.423077
	H51	H	0.409277	0.871158	0.414586
	H52	H	0.581739	0.402589	0.120019
	H53	H	0.579187	0.576135	0.898242
	H54	H	0.399743	0.576589	0.123951
	H55	H	0.412557	0.388070	0.896931
	H56	H	0.110162	0.580211	0.426149
	H57	H	0.878179	0.573882	0.590131
	H58	H	0.110445	0.393802	0.592366
	H59	H	0.877840	0.392408	0.418986
	H60	H	0.110842	0.399469	0.599999
	H61	H	0.880096	0.563087	0.596394
	H62	H	0.103641	0.559823	0.423383
	H63	H	0.876661	0.391423	0.415951
	H64	H	0.405633	0.578280	0.122017
	H65	H	0.584133	0.583141	0.894345
	H66	H	0.575388	0.391025	0.122934
	H67	H	0.397107	0.388500	0.892638
	H68	H	0.592854	0.101727	0.417768
	H69	H	0.579130	0.872676	0.597460
	H70	H	0.400077	0.103429	0.610777
	H71	H	0.410746	0.873565	0.422030
	H72	H	0.906900	0.595365	0.097321
	H73	H	0.077851	0.370432	0.099219
	H74	H	0.080535	0.597516	0.916183
	H75	H	0.904333	0.371932	0.922783
	H76	H	0.077145	0.893696	0.619467
	H77	H	0.084479	0.079798	0.393871
	H78	H	0.905036	0.084130	0.624300
	H79	H	0.900540	0.889927	0.392516
	H80	H	0.608221	0.070599	0.922424
	H81	H	0.373529	0.083267	0.103558
	H82	H	0.610515	0.904782	0.104609
	H83	H	0.379842	0.897812	0.924939
	H84	H	0.613919	0.887111	0.098680
	H85	H	0.380111	0.074031	0.091515
	H86	H	0.612652	0.073758	0.912607
	H87	H	0.376518	0.898917	0.915867
	H88	H	0.898218	0.073022	0.622514
	H89	H	0.089976	0.075940	0.392856
	H90	H	0.081661	0.886533	0.622899
	H91	H	0.906965	0.897221	0.396657
	H92	H	0.084216	0.598479	0.916141
	H93	H	0.086533	0.369288	0.095187
	H94	H	0.901684	0.598966	0.103600
	H95	H	0.899506	0.367864	0.915054
	H96	H	0.411764	0.096423	0.602847
	H97	H	0.589489	0.869046	0.600539
	H98	H	0.581118	0.100507	0.410403
	H99	H	0.403953	0.870077	0.420014
	H100	H	0.588621	0.392490	0.126394
	H101	H	0.588215	0.574441	0.895565
	H102	H	0.402214	0.581983	0.125561
	H103	H	0.404063	0.401753	0.898387
	H104	H	0.113537	0.570076	0.407077
	H105	H	0.874178	0.573636	0.602117
	H106	H	0.113505	0.390466	0.600695
	H107	H	0.876909	0.389477	0.418854
	H108	H	0.910256	0.596274	0.105156
	H109	H	0.084626	0.365879	0.103768
	H110	H	0.081753	0.599288	0.912994
	H111	H	0.909459	0.371346	0.913940
	H112	H	0.085768	0.894353	0.621505
	H113	H	0.084636	0.073179	0.394534
	H114	H	0.910917	0.072962	0.619717
	H115	H	0.911234	0.887706	0.394518
	H116	H	0.612728	0.081610	0.920774
	H117	H	0.377823	0.067104	0.106892
	H118	H	0.605793	0.899933	0.086212
	H119	H	0.374719	0.890890	0.921285
	C120	C	0.371353	-0.006213	0.633261
	C121	C	0.614783	0.976339	0.630832
	C122	C	0.617316	-0.006005	0.385541
	C123	C	0.375043	0.976851	0.388806
	C124	C	0.614332	0.364301	0.017873
	C125	C	0.615925	0.608488	1.001311
	C126	C	0.371742	0.608381	0.018068
	C127	C	0.371834	0.362877	1.001287
	C128	C	0.002343	0.602866	0.386692
	C129	C	0.984633	0.602943	0.628112
	C130	C	0.003536	0.362530	0.628516
	C131	C	0.985473	0.361172	0.386882
	C132	C	0.872564	0.491300	0.131585
	C133	C	0.114302	0.474506	0.130405
	C134	C	0.114924	0.492808	0.885330
	C135	C	0.872145	0.476195	0.886609
	C136	C	0.115528	0.860838	0.516288
	C137	C	0.116653	0.106264	0.499611
	C138	C	0.873884	0.105939	0.516363
	C139	C	0.872732	0.860814	0.499613
	C140	C	0.502741	0.105946	0.889460
	C141	C	0.485058	0.106621	0.131057
	C142	C	0.502764	0.865570	0.129429
	C143	C	0.484962	0.864896	0.888881
	C144	C	0.368152	0.874530	0.692706
	C145	C	0.616768	0.097101	0.688447
	C146	C	0.620938	0.874857	0.324477
	C147	C	0.371342	0.096668	0.329763
	C148	C	0.673223	0.364445	0.897183
	C149	C	0.674293	0.607903	0.121558
	C150	C	0.315166	0.606166	0.897221
	C151	C	0.313425	0.365229	0.121914
	C152	C	0.880736	0.663473	0.383589
	C153	C	0.106969	0.662693	0.629679
	C154	C	0.880004	0.305104	0.627967
	C155	C	0.109789	0.305555	0.386661
	C156	C	0.880404	0.360162	0.687096
	C157	C	0.106790	0.605611	0.687309
	C158	C	0.879908	0.604713	0.328047
	C159	C	0.108293	0.360569	0.328279
	C160	C	0.371088	0.666189	0.898241
	C161	C	0.619190	0.668618	0.120580
	C162	C	0.618106	0.303684	0.898809
	C163	C	0.367767	0.303843	0.120603
	C164	C	0.674683	0.872732	0.385863
	C165	C	0.672106	0.097828	0.627604
	C166	C	0.313559	0.872591	0.631620
	C167	C	0.317179	0.097901	0.391122
	C168	C	0.869479	0.370662	0.188910
	C169	C	0.117597	0.593744	0.190930
	C170	C	0.117590	0.372287	0.827333
	C171	C	0.868709	0.594992	0.826107
	C172	C	0.175642	0.861920	0.396361
	C173	C	0.171556	0.103772	0.621492
	C174	C	0.817094	0.103879	0.395562
	C175	C	0.814292	0.862467	0.620075
	C176	C	0.379035	0.162812	0.890683
	C177	C	0.607485	0.165643	0.131520
	C178	C	0.379578	0.807354	0.131397
	C179	C	0.608246	0.807154	0.887339
	C180	C	0.380410	0.863636	0.189389
	C181	C	0.607707	0.109261	0.189007
	C182	C	0.379588	0.106923	0.832376
	C183	C	0.607733	0.863951	0.829659
	C184	C	0.873306	0.163400	0.396239
	C185	C	0.118297	0.165370	0.619223
	C186	C	0.120732	0.800289	0.397488
	C187	C	0.869335	0.801691	0.618979
	C188	C	0.173127	0.371744	0.887574
	C189	C	0.169908	0.596724	0.128595
	C190	C	0.813795	0.370736	0.128832
	C191	C	0.816068	0.597930	0.888931
	C192	C	0.396025	0.077976	0.610083
	C193	C	0.590343	0.892208	0.608517
	C194	C	0.592409	0.077672	0.409857
	C195	C	0.400678	0.893282	0.412113
	C196	C	0.589207	0.388482	0.101261
	C197	C	0.591051	0.584679	0.917911
	C198	C	0.395639	0.585530	0.102021
	C199	C	0.397238	0.386003	0.917705
	C200	C	0.087064	0.577536	0.411856
	C201	C	0.899589	0.577678	0.603125
	C202	C	0.089361	0.387360	0.604483
	C203	C	0.899397	0.384261	0.410892
	C204	C	0.898649	0.575034	0.108605
	C205	C	0.090070	0.390555	0.106506
	C206	C	0.089646	0.576593	0.908476
	C207	C	0.897134	0.392192	0.910518
	C208	C	0.089121	0.884731	0.599566
	C209	C	0.093365	0.083103	0.415609
	C210	C	0.897973	0.083380	0.600304
	C211	C	0.898761	0.884741	0.416147
	C212	C	0.588857	0.082360	0.912045
	C213	C	0.399382	0.081781	0.107428
	C214	C	0.587983	0.890244	0.104165
	C215	C	0.399264	0.888836	0.913416
	Zn216	Zn	0.493658	-0.014193	0.761507
	Zn217	Zn	0.494901	-0.014324	0.257439
	Zn218	Zn	0.744021	0.485568	0.009178
	Zn219	Zn	0.242680	0.485280	0.009102
	Zn220	Zn	-0.006791	0.730671	0.507490
	Zn221	Zn	-0.004491	0.235329	0.507854
	Zn222	Zn	-0.007175	0.482969	0.756493
	Zn223	Zn	-0.005896	0.481606	0.260325
	Zn224	Zn	0.494189	0.737376	0.010054
	Zn225	Zn	0.493651	0.233675	0.010285
	Zn226	Zn	0.744253	-0.016015	0.508310
	Zn227	Zn	0.244498	-0.015636	0.509455
	N228	N	0.403280	0.950942	0.693796
	N229	N	0.582030	0.020639	0.690723
	N230	N	0.585994	0.951327	0.323938
	N231	N	0.406870	0.020479	0.328340
	N232	N	0.671095	0.401499	0.972103
	N233	N	0.672444	0.571355	0.046412
	N234	N	0.315489	0.570758	0.972732
	N235	N	0.315648	0.401213	0.046609
	N236	N	0.957848	0.662240	0.419574
	N237	N	0.030000	0.661134	0.593464
	N238	N	0.957707	0.306242	0.592619
	N239	N	0.032188	0.305694	0.422499
	N240	N	0.958336	0.395212	0.687528
	N241	N	0.029710	0.569207	0.686321
	N242	N	0.956529	0.567538	0.329882
	N243	N	0.030154	0.394242	0.328213
	N244	N	0.405496	0.667768	0.974494
	N245	N	0.583615	0.669218	0.044815
	N246	N	0.582438	0.303370	0.974840
	N247	N	0.403527	0.302338	0.044653
	N248	N	0.672483	0.947616	0.423147
	N249	N	0.671364	0.021700	0.592776
	N250	N	0.315494	0.947827	0.595391
	N251	N	0.319250	0.022435	0.427209
	N252	N	0.905193	0.446829	0.190825
	N253	N	0.083811	0.516678	0.192325
	N254	N	0.082233	0.448528	0.825632
	N255	N	0.902870	0.518107	0.824673
	N256	N	0.172707	0.898709	0.471294
	N257	N	0.170589	0.067567	0.546194
	N258	N	0.817447	0.068716	0.471166
	N259	N	0.816249	0.898386	0.544723
	N260	N	0.456685	0.162390	0.925352
	N261	N	0.529985	0.164203	0.096342
	N262	N	0.456994	0.808267	0.095069
	N263	N	0.531001	0.807634	0.923440
	N264	N	0.457899	0.899180	0.188264
	N265	N	0.530488	0.073311	0.188874
	N266	N	0.457482	0.072116	0.831469
	N267	N	0.529844	0.898894	0.830281
	N268	N	0.908275	0.164619	0.472400
	N269	N	0.085190	0.167321	0.542513
	N270	N	0.084165	0.799617	0.473116
	N271	N	0.904684	0.800507	0.542792
	N272	N	0.171664	0.447554	0.923024
	N273	N	0.167917	0.521719	0.091528
	N274	N	0.815455	0.446815	0.094131
	N275	N	0.818341	0.522942	0.925925
	O276	O	0.532822	0.378869	0.575796
	H277	H	0.530854	0.393468	0.570357
	H278	H	0.527599	0.368210	0.582241
	O279	O	0.400681	0.629472	0.596761
	H280	H	0.396478	0.614842	0.585200
	H281	H	0.391904	0.632317	0.583172
	O282	O	1.019748	-0.100846	0.999228
	H283	H	1.014648	-0.097510	1.009591
	H284	H	1.032399	-0.100358	1.004236
	O285	O	0.419406	0.365741	0.456971
	H286	H	0.442633	0.348183	0.464984
	H287	H	0.423772	0.376117	0.443413
	O288	O	1.060968	0.943447	0.985576
	H289	H	1.062290	0.945916	0.977537
	H290	H	1.071144	0.954504	0.987576
	O291	O	0.512302	1.412729	-0.431749
	H292	H	0.522468	1.418566	-0.437491
	H293	H	0.523447	1.418544	-0.442278
	O294	O	0.547560	0.442516	0.621720
	H295	H	0.556681	0.446118	0.629041
	H296	H	0.535517	0.441929	0.622576
	O297	O	0.405271	0.514452	0.328466
	H298	H	0.418666	0.500582	0.326706
	H299	H	0.432935	0.509822	0.323576
	O300	O	0.598480	0.336428	0.377730
	H301	H	0.607223	0.331857	0.373147
	H302	H	0.611475	0.332711	0.377259
	O303	O	0.519261	0.401660	0.490707
	H304	H	0.519697	0.415253	0.502535
	H305	H	0.523921	0.386644	0.495429
	O306	O	0.409992	0.563848	0.595303
	H307	H	0.404768	0.571736	0.585444
	H308	H	0.419875	0.559414	0.581242
	O309	O	0.403789	0.572502	0.338574
	H310	H	0.398143	0.582272	0.328017
	H311	H	0.396955	0.566699	0.352305
	O312	O	-0.095653	-0.128460	0.028235
	H313	H	-0.100193	-0.140697	0.028995
	H314	H	-0.091119	-0.126648	0.038378
	O315	O	0.601061	0.511411	0.432261
	H316	H	0.606230	0.519862	0.441737
	H317	H	0.610911	0.506226	0.431783
	O318	O	-0.054732	1.014954	1.030026
	H319	H	-0.057075	1.013485	1.019270
	H320	H	-0.060213	1.030748	1.037226
	O321	O	0.608795	0.574757	0.511405
	H322	H	0.604027	0.575936	0.519085
	H323	H	0.588815	0.589902	0.514501
	O324	O	-0.072170	1.124631	-0.000444
	H325	H	-0.069021	1.121941	-0.016291
	H326	H	-0.081616	1.130646	-0.015125
	O327	O	-0.008933	-0.077777	0.130770
	H328	H	-0.006353	-0.074013	0.132708
	H329	H	-0.013249	-0.082998	0.132610
	O330	O	-0.106351	0.025286	1.070845
	H331	H	-0.115205	0.027709	1.070115
	H332	H	-0.096637	0.029488	1.068427
	O333	O	-0.145723	0.037988	0.813350
	H334	H	-0.150038	0.026600	0.812720
	H335	H	-0.144983	0.025711	0.805424
	O336	O	0.467153	0.623175	0.612796
	H337	H	0.452527	0.625738	0.595837
	H338	H	0.463822	0.623256	0.621469
	O339	O	0.902818	0.114108	-0.123872
	H340	H	0.907367	0.089085	-0.133034
	H341	H	0.893276	0.119365	-0.139592
	O342	O	-0.100449	-0.186824	0.026080
	H343	H	-0.115051	-0.184356	0.028301
	H344	H	-0.102808	-0.190304	0.027940
	O345	O	1.094180	0.126922	1.140843
	H346	H	1.098085	0.113036	1.135789
	H347	H	1.078676	0.138594	1.144474
	O348	O	0.872609	1.009925	0.152214
	H349	H	0.879192	1.021246	0.143693
	H350	H	0.880701	1.009834	0.149915
	O351	O	0.493043	0.405140	0.695271
	H352	H	0.484476	0.404426	0.688135
	H353	H	0.501977	0.381688	0.694461
	O354	O	1.101655	0.039488	1.084042
	H355	H	1.111927	0.040105	1.081791
	H356	H	1.098592	0.032857	1.091744
	O357	O	0.537301	0.500848	0.584164
	H358	H	0.529999	0.507200	0.592963
	H359	H	0.519454	0.488068	0.578618
	O360	O	0.994182	0.934802	0.897003
	H361	H	1.000060	0.928991	0.902579
	H362	H	0.986582	0.935898	0.909434
	O363	O	0.111685	0.939223	0.896380
	H364	H	0.129778	0.939344	0.893785
	H365	H	0.092126	0.937740	0.900068
	O366	O	0.431106	0.385183	0.499238
	H367	H	0.424531	0.373615	0.493364
	H368	H	0.432454	0.387760	0.521375
	O369	O	-0.097208	0.925495	-0.162618
	H370	H	-0.071007	0.919062	-0.156073
	H371	H	-0.092544	0.909204	-0.158795
	O372	O	0.424889	0.428124	0.554394
	H373	H	0.427553	0.435159	0.555466
	H374	H	0.423407	0.426385	0.552203
	O375	O	0.646792	0.650673	0.493914
	H376	H	0.655748	0.661714	0.498996
	H377	H	0.647698	0.652592	0.501209
	O378	O	1.037221	0.943522	-0.068728
	H379	H	1.051119	0.947819	-0.068754
	H380	H	1.043836	0.940082	-0.070287
	O381	O	1.109395	-0.012834	0.031182
	H382	H	1.101408	-0.004351	0.021118
	H383	H	1.103064	-0.024595	0.035146
	O384	O	1.403793	1.397749	-0.423510
	H385	H	1.396771	1.393920	-0.421006
	H386	H	1.413716	1.414460	-0.414760
	O387	O	-0.073343	-0.115836	0.074941
	H388	H	-0.069298	-0.104529	0.079973
	H389	H	-0.068430	-0.107058	0.083274
	O390	O	0.078637	0.870391	0.071158
	H391	H	0.066933	0.870038	0.077748
	H392	H	0.076931	0.877319	0.068903
	O393	O	0.568724	0.565176	0.311620
	H394	H	0.593110	0.562560	0.304370
	H395	H	0.560991	0.583381	0.295386
	O396	O	0.374517	0.658142	0.412378
	H397	H	0.357792	0.655562	0.410367
	H398	H	0.364752	0.654673	0.413367
	O399	O	0.391725	1.572960	1.540551
	H400	H	0.385330	1.587648	1.538018
	H401	H	0.378610	1.551658	1.544400
	O402	O	0.546848	0.340226	0.473868
	H403	H	0.541922	0.350758	0.468630
	H404	H	0.555930	0.335216	0.474619
	O405	O	1.099602	1.094307	-0.119099
	H406	H	1.087625	1.078548	-0.110797
	H407	H	1.110186	1.110681	-0.111775
	O408	O	0.980919	1.085321	-0.111807
	H409	H	0.969182	1.096228	-0.112186
	H410	H	0.978625	1.086310	-0.119495
	O411	O	1.002299	-0.004924	1.149270
	H412	H	0.996989	-0.013787	1.147261
	H413	H	0.992493	-0.009460	1.139745
	O414	O	0.475727	0.442467	0.635994
	H415	H	0.464161	0.448534	0.632468
	H416	H	0.464081	0.446762	0.638332
	O417	O	0.633480	0.632851	0.509464
	H418	H	0.643317	0.646532	0.532708
	H419	H	0.639005	0.621427	0.523015
