data_Molecule from HDF5

_cell_length_a		16.279775
_cell_length_b		16.161976
_cell_length_c		16.307297
_cell_angle_alpha	89.791552
_cell_angle_beta	90.191703
_cell_angle_gamma	90.043557
_symmetry_space_group_name_H-M	'P 1'
_symmetry_Int_Tables_number		1

loop_
	_symmetry_equiv_pos_as_xyz
	x,y,z

loop_
	_atom_site_label
	_atom_site_type_symbol
	_atom_site_fract_x
	_atom_site_fract_y
	_atom_site_fract_z
	H0	H	0.394045	0.827711	0.721311
	H1	H	0.591422	0.157188	0.720141
	H2	H	0.589911	0.828066	0.293394
	H3	H	0.393376	0.157185	0.291584
	H4	H	0.705891	0.395720	0.844155
	H5	H	0.707664	0.590672	0.171134
	H6	H	0.274747	0.592716	0.844736
	H7	H	0.278409	0.393041	0.171794
	H8	H	0.826670	0.705213	0.410495
	H9	H	0.156226	0.704338	0.605529
	H10	H	0.827739	0.277534	0.605075
	H11	H	0.156968	0.281814	0.415166
	H12	H	0.828021	0.392357	0.722220
	H13	H	0.155431	0.589358	0.722639
	H14	H	0.828675	0.592286	0.291515
	H15	H	0.155774	0.393270	0.294593
	H16	H	0.394290	0.706511	0.842281
	H17	H	0.589647	0.704954	0.172274
	H18	H	0.588883	0.280664	0.843080
	H19	H	0.395634	0.277321	0.170861
	H20	H	0.704473	0.827244	0.409678
	H21	H	0.706662	0.156785	0.604228
	H22	H	0.279828	0.827257	0.604118
	H23	H	0.278320	0.157886	0.407262
	H24	H	0.894762	0.327470	0.221802
	H25	H	0.090170	0.657721	0.221564
	H26	H	0.088753	0.327140	0.796369
	H27	H	0.893613	0.656969	0.793387
	H28	H	0.206020	0.894372	0.343563
	H29	H	0.207631	0.089528	0.670633
	H30	H	0.777448	0.090522	0.343330
	H31	H	0.777310	0.891437	0.670601
	H32	H	0.327235	0.205228	0.909544
	H33	H	0.656224	0.204611	0.103468
	H34	H	0.327865	0.779252	0.102726
	H35	H	0.656687	0.781367	0.912204
	H36	H	0.328185	0.893849	0.220949
	H37	H	0.654884	0.091497	0.222251
	H38	H	0.329285	0.091593	0.790517
	H39	H	0.656105	0.894231	0.794171
	H40	H	0.895256	0.205429	0.342787
	H41	H	0.089107	0.203571	0.672574
	H42	H	0.088076	0.778669	0.343562
	H43	H	0.896384	0.779303	0.672022
	H44	H	0.204447	0.327169	0.911875
	H45	H	0.206817	0.657638	0.105604
	H46	H	0.778667	0.327489	0.106366
	H47	H	0.778900	0.657320	0.909699
	H48	H	0.399385	0.110123	0.599234
	H49	H	0.582821	0.875661	0.599761
	H50	H	0.583601	0.108088	0.419908
	H51	H	0.396169	0.875523	0.418467
	H52	H	0.585634	0.385626	0.128061
	H53	H	0.584602	0.591189	0.890097
	H54	H	0.400681	0.579554	0.120957
	H55	H	0.401306	0.401104	0.892207
	H56	H	0.110554	0.594452	0.417163
	H57	H	0.872208	0.587036	0.608153
	H58	H	0.102222	0.402853	0.586094
	H59	H	0.875597	0.394497	0.420807
	H60	H	0.108914	0.411031	0.617112
	H61	H	0.875205	0.590395	0.596423
	H62	H	0.104231	0.578759	0.422725
	H63	H	0.876645	0.407261	0.412588
	H64	H	0.404919	0.588709	0.123686
	H65	H	0.591290	0.585797	0.889423
	H66	H	0.598471	0.405141	0.125728
	H67	H	0.396147	0.396123	0.889543
	H68	H	0.592063	0.112463	0.412976
	H69	H	0.588423	0.874107	0.598973
	H70	H	0.400207	0.109804	0.600024
	H71	H	0.396689	0.873109	0.410186
	H72	H	0.891207	0.613558	0.105075
	H73	H	0.085532	0.374564	0.102776
	H74	H	0.086754	0.609172	0.918456
	H75	H	0.891311	0.371157	0.910240
	H76	H	0.085446	0.896067	0.624134
	H77	H	0.096829	0.082960	0.388691
	H78	H	0.890612	0.088284	0.627153
	H79	H	0.903860	0.897641	0.392167
	H80	H	0.607888	0.079123	0.911698
	H81	H	0.373475	0.083620	0.105708
	H82	H	0.604073	0.906433	0.093034
	H83	H	0.372825	0.900232	0.904899
	H84	H	0.611082	0.903754	0.113416
	H85	H	0.373223	0.090770	0.097948
	H86	H	0.612550	0.091646	0.906750
	H87	H	0.373818	0.893460	0.915734
	H88	H	0.898620	0.074292	0.621231
	H89	H	0.077109	0.080683	0.394630
	H90	H	0.089902	0.900097	0.624893
	H91	H	0.893787	0.893677	0.388357
	H92	H	0.085617	0.611320	0.911434
	H93	H	0.086022	0.374486	0.102404
	H94	H	0.908897	0.608885	0.105206
	H95	H	0.906499	0.375594	0.910976
	H96	H	0.400594	0.109794	0.598680
	H97	H	0.585682	0.873435	0.604965
	H98	H	0.580897	0.110440	0.409095
	H99	H	0.403335	0.876604	0.414069
	H100	H	0.575938	0.405233	0.119536
	H101	H	0.582889	0.583081	0.892575
	H102	H	0.394860	0.587526	0.124706
	H103	H	0.393210	0.403292	0.890391
	H104	H	0.109461	0.580961	0.406388
	H105	H	0.876558	0.578289	0.599901
	H106	H	0.115134	0.380744	0.606471
	H107	H	0.871689	0.394097	0.406695
	H108	H	0.898365	0.607254	0.090117
	H109	H	0.086376	0.375642	0.102563
	H110	H	0.079948	0.608564	0.915580
	H111	H	0.897209	0.376603	0.923592
	H112	H	0.084701	0.901761	0.622491
	H113	H	0.084025	0.098919	0.388106
	H114	H	0.906820	0.090001	0.623261
	H115	H	0.894926	0.904549	0.390912
	H116	H	0.608199	0.090546	0.919753
	H117	H	0.377579	0.081224	0.095704
	H118	H	0.612409	0.887124	0.099929
	H119	H	0.377481	0.906010	0.915313
	C120	C	0.371493	0.000968	0.627953
	C121	C	0.614328	0.983347	0.628798
	C122	C	0.613290	0.001000	0.385982
	C123	C	0.370521	0.984298	0.385393
	C124	C	0.613906	0.371263	0.015844
	C125	C	0.614610	0.614545	0.999174
	C126	C	0.370694	0.614423	0.015228
	C127	C	0.369912	0.371126	0.999191
	C128	C	0.000090	0.613678	0.386612
	C129	C	0.983116	0.613710	0.630078
	C130	C	0.000170	0.369845	0.630561
	C131	C	0.983504	0.371084	0.386678
	C132	C	0.871201	0.500931	0.129016
	C133	C	0.114480	0.483940	0.130516
	C134	C	0.112674	0.500748	0.887354
	C135	C	0.870097	0.483568	0.886109
	C136	C	0.114296	0.870694	0.515905
	C137	C	0.114655	0.114518	0.498978
	C138	C	0.870629	0.112984	0.515231
	C139	C	0.870137	0.870316	0.499139
	C140	C	0.500965	0.115068	0.884429
	C141	C	0.483240	0.113388	0.127798
	C142	C	0.500622	0.870749	0.129318
	C143	C	0.483634	0.871691	0.885479
	C144	C	0.373923	0.876678	0.682900
	C145	C	0.611998	0.107837	0.682976
	C146	C	0.610466	0.877054	0.331212
	C147	C	0.373002	0.108341	0.329740
	C148	C	0.667916	0.375124	0.892778
	C149	C	0.669676	0.611277	0.122593
	C150	C	0.314227	0.612239	0.892538
	C151	C	0.316492	0.373309	0.122757
	C152	C	0.876239	0.668154	0.389451
	C153	C	0.107074	0.667294	0.626691
	C154	C	0.876652	0.315234	0.626139
	C155	C	0.107795	0.318384	0.392582
	C156	C	0.876784	0.372218	0.684392
	C157	C	0.106569	0.610295	0.685000
	C158	C	0.877057	0.611738	0.330613
	C159	C	0.107143	0.373855	0.332812
	C160	C	0.373512	0.668974	0.891570
	C161	C	0.610909	0.667950	0.123005
	C162	C	0.609788	0.317893	0.892266
	C163	C	0.374427	0.315626	0.122298
	C164	C	0.667062	0.876519	0.389412
	C165	C	0.668960	0.107646	0.625173
	C166	C	0.316900	0.876738	0.624878
	C167	C	0.316188	0.108656	0.387289
	C168	C	0.874073	0.376508	0.183938
	C169	C	0.111228	0.608620	0.184113
	C170	C	0.109578	0.376402	0.833290
	C171	C	0.872946	0.607744	0.830983
	C172	C	0.167811	0.873865	0.392171
	C173	C	0.169839	0.110761	0.621991
	C174	C	0.815662	0.110814	0.392053
	C175	C	0.815748	0.872373	0.622136
	C176	C	0.376744	0.168538	0.887951
	C177	C	0.607262	0.167113	0.124094
	C178	C	0.376686	0.816708	0.124331
	C179	C	0.607596	0.818126	0.890263
	C180	C	0.376932	0.873452	0.183121
	C181	C	0.606557	0.111053	0.183226
	C182	C	0.377805	0.112195	0.828802
	C183	C	0.607312	0.874260	0.831779
	C184	C	0.874185	0.167848	0.391801
	C185	C	0.110723	0.167114	0.623098
	C186	C	0.109753	0.816131	0.392406
	C187	C	0.874499	0.816294	0.622901
	C188	C	0.167046	0.376442	0.890660
	C189	C	0.169167	0.608354	0.126814
	C190	C	0.816511	0.376555	0.126770
	C191	C	0.816095	0.608061	0.888753
	C192	C	0.393711	0.087526	0.605877
	C193	C	0.592110	0.896705	0.607487
	C194	C	0.591801	0.087951	0.407584
	C195	C	0.392364	0.897564	0.407630
	C196	C	0.592717	0.392301	0.102248
	C197	C	0.592854	0.593059	0.913029
	C198	C	0.393362	0.591948	0.101100
	C199	C	0.390729	0.393553	0.912886
	C200	C	0.085879	0.591361	0.408980
	C201	C	0.896863	0.591676	0.608080
	C202	C	0.086622	0.391795	0.609561
	C203	C	0.897006	0.392377	0.407221
	C204	C	0.892964	0.587426	0.106845
	C205	C	0.092538	0.397225	0.109062
	C206	C	0.090686	0.587412	0.908863
	C207	C	0.891715	0.396830	0.908422
	C208	C	0.092960	0.892704	0.601666
	C209	C	0.092476	0.093676	0.412611
	C210	C	0.892296	0.090807	0.601660
	C211	C	0.891295	0.892131	0.412831
	C212	C	0.587355	0.093593	0.906286
	C213	C	0.396946	0.091773	0.106241
	C214	C	0.586984	0.892692	0.108418
	C215	C	0.397110	0.893417	0.905906
	Zn216	Zn	0.492801	-0.007525	0.756761
	Zn217	Zn	0.491596	-0.007044	0.257911
	Zn218	Zn	0.743202	0.492628	0.007921
	Zn219	Zn	0.241322	0.492717	0.008037
	Zn220	Zn	-0.008245	0.742100	0.508329
	Zn221	Zn	-0.007815	0.242417	0.507847
	Zn222	Zn	-0.008451	0.491741	0.758499
	Zn223	Zn	-0.007809	0.492634	0.257527
	Zn224	Zn	0.492711	0.743217	0.006748
	Zn225	Zn	0.492038	0.242782	0.007236
	Zn226	Zn	0.741818	-0.008475	0.507132
	Zn227	Zn	0.243287	-0.007176	0.506503
	N228	N	0.407231	0.954972	0.685034
	N229	N	0.578291	0.029655	0.685258
	N230	N	0.577503	0.955372	0.329351
	N231	N	0.406191	0.030058	0.328562
	N232	N	0.670337	0.407738	0.970566
	N233	N	0.672082	0.578820	0.044652
	N234	N	0.312463	0.579110	0.970436
	N235	N	0.313710	0.406991	0.045113
	N236	N	0.953697	0.669423	0.423660
	N237	N	0.029341	0.669612	0.593512
	N238	N	0.954493	0.313621	0.593455
	N239	N	0.030075	0.316623	0.425328
	N240	N	0.954682	0.405379	0.687097
	N241	N	0.028522	0.577604	0.687031
	N242	N	0.954961	0.578712	0.328717
	N243	N	0.028833	0.405799	0.328915
	N244	N	0.407753	0.670268	0.968903
	N245	N	0.577510	0.670150	0.045366
	N246	N	0.577212	0.315239	0.969955
	N247	N	0.406874	0.314317	0.044473
	N248	N	0.668931	0.954642	0.422636
	N249	N	0.670683	0.029244	0.592707
	N250	N	0.315402	0.955065	0.591545
	N251	N	0.314423	0.030611	0.421113
	N252	N	0.907275	0.454681	0.185430
	N253	N	0.078096	0.530307	0.186627
	N254	N	0.076468	0.454660	0.831231
	N255	N	0.905849	0.529365	0.829375
	N256	N	0.170924	0.906964	0.469672
	N257	N	0.172131	0.078893	0.543823
	N258	N	0.813662	0.077355	0.469642
	N259	N	0.812954	0.905201	0.544158
	N260	N	0.454264	0.170289	0.921788
	N261	N	0.529604	0.168816	0.090597
	N262	N	0.454553	0.814937	0.091639
	N263	N	0.529787	0.816357	0.922794
	N264	N	0.454866	0.906301	0.186243
	N265	N	0.528557	0.078380	0.185482
	N266	N	0.455933	0.079625	0.826610
	N267	N	0.529363	0.907194	0.829085
	N268	N	0.907710	0.169277	0.469553
	N269	N	0.077157	0.169475	0.545676
	N270	N	0.077268	0.814003	0.470257
	N271	N	0.907614	0.814886	0.545406
	N272	N	0.169124	0.454681	0.923432
	N273	N	0.171004	0.529942	0.094211
	N274	N	0.814638	0.454758	0.093204
	N275	N	0.814577	0.529943	0.922565
	O276	O	1.435689	0.526606	0.503262
	H277	H	1.431486	0.518661	0.501463
	H278	H	1.442095	0.512831	0.508036
	O279	O	0.412746	0.518238	0.501040
	H280	H	0.410251	0.533638	0.504205
	H281	H	0.405082	0.525907	0.490872
	O282	O	1.412495	1.570171	-0.504740
	H283	H	1.408400	1.574936	-0.500596
	H284	H	1.418668	1.568425	-0.508965
	O285	O	0.437973	0.483002	0.507106
	H286	H	0.440489	0.482571	0.502966
	H287	H	0.430390	0.482503	0.510480
