data_Molecule from HDF5

_cell_length_a		16.172748
_cell_length_b		16.192421
_cell_length_c		16.530106
_cell_angle_alpha	90.020868
_cell_angle_beta	89.921115
_cell_angle_gamma	89.858886
_symmetry_space_group_name_H-M	'P 1'
_symmetry_Int_Tables_number		1

loop_
	_symmetry_equiv_pos_as_xyz
	x,y,z

loop_
	_atom_site_label
	_atom_site_type_symbol
	_atom_site_fract_x
	_atom_site_fract_y
	_atom_site_fract_z
	H0	H	0.383370	0.822991	0.729221
	H1	H	0.598223	0.143968	0.729232
	H2	H	0.595759	0.821390	0.289536
	H3	H	0.385925	0.144810	0.288861
	H4	H	0.713111	0.379281	0.851178
	H5	H	0.707606	0.586350	0.170752
	H6	H	0.266890	0.590344	0.852489
	H7	H	0.273389	0.384140	0.170115
	H8	H	0.827033	0.701575	0.409402
	H9	H	0.152046	0.702164	0.610664
	H10	H	0.826700	0.268368	0.609876
	H11	H	0.154223	0.271494	0.411136
	H12	H	0.829799	0.376034	0.732994
	H13	H	0.150532	0.591688	0.731855
	H14	H	0.828484	0.589960	0.291271
	H15	H	0.151112	0.379244	0.291147
	H16	H	0.386089	0.704513	0.850516
	H17	H	0.591944	0.703749	0.169290
	H18	H	0.594630	0.264532	0.848316
	H19	H	0.387845	0.264006	0.167922
	H20	H	0.707188	0.821229	0.406700
	H21	H	0.702820	0.148022	0.604769
	H22	H	0.274200	0.821029	0.607859
	H23	H	0.273825	0.146662	0.406898
	H24	H	0.886687	0.322104	0.229587
	H25	H	0.095145	0.645290	0.231014
	H26	H	0.098191	0.324533	0.789771
	H27	H	0.879958	0.643427	0.787866
	H28	H	0.209599	0.878672	0.349004
	H29	H	0.210149	0.086267	0.667602
	H30	H	0.773566	0.085282	0.347539
	H31	H	0.770373	0.883903	0.667850
	H32	H	0.327255	0.200234	0.907270
	H33	H	0.655123	0.196973	0.105014
	H34	H	0.326357	0.769870	0.107123
	H35	H	0.654363	0.768005	0.909919
	H36	H	0.329348	0.877110	0.228569
	H37	H	0.653029	0.085407	0.225006
	H38	H	0.328646	0.089325	0.787534
	H39	H	0.652426	0.876211	0.787762
	H40	H	0.890621	0.202327	0.347945
	H41	H	0.092421	0.202749	0.669172
	H42	H	0.094494	0.761575	0.350743
	H43	H	0.884612	0.764959	0.667990
	H44	H	0.205839	0.321328	0.910781
	H45	H	0.205560	0.647620	0.111344
	H46	H	0.777079	0.319494	0.109189
	H47	H	0.775590	0.647508	0.913402
	H48	H	0.393800	0.101381	0.595112
	H49	H	0.568352	0.870540	0.600425
	H50	H	0.577558	0.099653	0.415407
	H51	H	0.399472	0.865793	0.414266
	H52	H	0.582813	0.388394	0.124222
	H53	H	0.575704	0.582829	0.896187
	H54	H	0.397777	0.578345	0.123877
	H55	H	0.403007	0.392566	0.896301
	H56	H	0.105633	0.573814	0.420585
	H57	H	0.874508	0.572147	0.600193
	H58	H	0.106868	0.396851	0.605140
	H59	H	0.871615	0.387597	0.419065
	H60	H	0.106759	0.391357	0.601592
	H61	H	0.875480	0.570837	0.600898
	H62	H	0.105039	0.570028	0.420305
	H63	H	0.874588	0.398101	0.422996
	H64	H	0.396823	0.574032	0.123295
	H65	H	0.592291	0.573953	0.893779
	H66	H	0.583824	0.392407	0.122479
	H67	H	0.394685	0.390579	0.893296
	H68	H	0.583764	0.101451	0.415990
	H69	H	0.583970	0.869751	0.588759
	H70	H	0.405626	0.100861	0.607556
	H71	H	0.405225	0.869088	0.415334
	H72	H	0.895133	0.602660	0.104517
	H73	H	0.077819	0.370335	0.098590
	H74	H	0.067702	0.597591	0.917157
	H75	H	0.891915	0.364186	0.919978
	H76	H	0.083950	0.896755	0.621973
	H77	H	0.078001	0.074107	0.396958
	H78	H	0.895508	0.075775	0.622957
	H79	H	0.891331	0.889744	0.390862
	H80	H	0.604724	0.065064	0.913014
	H81	H	0.373107	0.074261	0.100441
	H82	H	0.612994	0.886122	0.111660
	H83	H	0.377497	0.899361	0.922840
	H84	H	0.604486	0.887592	0.086463
	H85	H	0.374739	0.073189	0.097257
	H86	H	0.609886	0.077866	0.911405
	H87	H	0.374551	0.899077	0.910654
	H88	H	0.898988	0.075712	0.621498
	H89	H	0.080943	0.083007	0.393275
	H90	H	0.077338	0.897369	0.619735
	H91	H	0.900052	0.902511	0.398963
	H92	H	0.078821	0.597391	0.930577
	H93	H	0.085653	0.366738	0.102877
	H94	H	0.903300	0.600438	0.106871
	H95	H	0.910006	0.367507	0.910923
	H96	H	0.409477	0.094925	0.591747
	H97	H	0.585385	0.863089	0.606677
	H98	H	0.580555	0.101965	0.410235
	H99	H	0.400828	0.867838	0.419888
	H100	H	0.580062	0.390720	0.121657
	H101	H	0.577517	0.564114	0.901330
	H102	H	0.400995	0.575614	0.122696
	H103	H	0.396388	0.397977	0.896421
	H104	H	0.106937	0.571948	0.416972
	H105	H	0.874539	0.571641	0.601693
	H106	H	0.104363	0.396548	0.598777
	H107	H	0.871358	0.396885	0.412391
	H108	H	0.900485	0.598630	0.098936
	H109	H	0.076622	0.367087	0.107303
	H110	H	0.083727	0.604502	0.915511
	H111	H	0.907131	0.373097	0.929794
	H112	H	0.079582	0.890900	0.622700
	H113	H	0.087085	0.075771	0.394049
	H114	H	0.897471	0.078330	0.622281
	H115	H	0.908058	0.887485	0.395625
	H116	H	0.604457	0.074182	0.923439
	H117	H	0.375047	0.070256	0.100892
	H118	H	0.602802	0.908659	0.102017
	H119	H	0.373006	0.888369	0.917209
	C120	C	0.370336	-0.007718	0.629132
	C121	C	0.610781	0.975076	0.628468
	C122	C	0.611494	-0.006950	0.385010
	C123	C	0.369553	0.974559	0.386035
	C124	C	0.613663	0.360355	0.017230
	C125	C	0.611903	0.605034	1.002351
	C126	C	0.366989	0.607142	0.018443
	C127	C	0.368029	0.362690	1.001031
	C128	C	-0.001218	0.604294	0.389167
	C129	C	0.981422	0.604244	0.631646
	C130	C	-0.001282	0.363131	0.632211
	C131	C	0.980645	0.363579	0.388782
	C132	C	0.869145	0.492579	0.132773
	C133	C	0.110761	0.475686	0.132277
	C134	C	0.109874	0.493223	0.890089
	C135	C	0.870023	0.474863	0.889661
	C136	C	0.112003	0.862131	0.516792
	C137	C	0.112890	0.107231	0.500101
	C138	C	0.867494	0.107046	0.516263
	C139	C	0.867631	0.862546	0.500451
	C140	C	0.499144	0.104459	0.885628
	C141	C	0.481953	0.103519	0.128861
	C142	C	0.499284	0.862788	0.130107
	C143	C	0.482107	0.863270	0.886711
	C144	C	0.367102	0.870931	0.688369
	C145	C	0.614274	0.096283	0.688150
	C146	C	0.613993	0.870385	0.328014
	C147	C	0.367383	0.096271	0.327800
	C148	C	0.672764	0.360639	0.898055
	C149	C	0.669188	0.605393	0.122465
	C150	C	0.307107	0.608716	0.899490
	C151	C	0.311417	0.363471	0.121819
	C152	C	0.876065	0.663130	0.389480
	C153	C	0.103237	0.663555	0.631142
	C154	C	0.876198	0.305527	0.631160
	C155	C	0.104429	0.308029	0.390749
	C156	C	0.877653	0.359398	0.692162
	C157	C	0.102644	0.608372	0.691184
	C158	C	0.876798	0.607549	0.330814
	C159	C	0.102798	0.361670	0.330930
	C160	C	0.366436	0.665749	0.898680
	C161	C	0.611700	0.664175	0.121757
	C162	C	0.613690	0.303355	0.896874
	C163	C	0.368525	0.303834	0.120588
	C164	C	0.669319	0.870182	0.386521
	C165	C	0.666772	0.098460	0.626283
	C166	C	0.312151	0.869889	0.628423
	C167	C	0.311755	0.097245	0.386727
	C168	C	0.868269	0.370389	0.190131
	C169	C	0.113037	0.597140	0.191031
	C170	C	0.114249	0.372120	0.830366
	C171	C	0.864840	0.595956	0.829461
	C172	C	0.170768	0.860488	0.397095
	C173	C	0.170997	0.106152	0.619998
	C174	C	0.811675	0.105522	0.395717
	C175	C	0.809437	0.863840	0.620164
	C176	C	0.376382	0.162131	0.886864
	C177	C	0.605555	0.159748	0.126373
	C178	C	0.375908	0.806675	0.128115
	C179	C	0.605052	0.805524	0.888507
	C180	C	0.377442	0.860319	0.188509
	C181	C	0.604459	0.104159	0.185882
	C182	C	0.377182	0.107084	0.827077
	C183	C	0.604151	0.859893	0.828119
	C184	C	0.869480	0.164075	0.396005
	C185	C	0.112497	0.164180	0.620806
	C186	C	0.113308	0.801785	0.397946
	C187	C	0.866461	0.804572	0.620168
	C188	C	0.168368	0.370778	0.890474
	C189	C	0.167904	0.598388	0.131442
	C190	C	0.813444	0.369277	0.130379
	C191	C	0.812422	0.597814	0.891513
	C192	C	0.395378	0.076879	0.605094
	C193	C	0.586262	0.889949	0.605366
	C194	C	0.587662	0.078660	0.407268
	C195	C	0.394580	0.889436	0.409652
	C196	C	0.589344	0.383950	0.101037
	C197	C	0.588528	0.580720	0.918630
	C198	C	0.391592	0.582965	0.101581
	C199	C	0.391262	0.386668	0.917213
	C200	C	0.083609	0.579312	0.412519
	C201	C	0.896923	0.578683	0.607712
	C202	C	0.083806	0.387976	0.608687
	C203	C	0.894857	0.387312	0.411441
	C204	C	0.892728	0.578410	0.110200
	C205	C	0.086970	0.390367	0.109388
	C206	C	0.084208	0.577736	0.914219
	C207	C	0.895583	0.390297	0.913316
	C208	C	0.087409	0.887699	0.599814
	C209	C	0.089041	0.084342	0.416561
	C210	C	0.890556	0.083465	0.600350
	C211	C	0.892710	0.886460	0.416752
	C212	C	0.584223	0.079600	0.909054
	C213	C	0.396521	0.079525	0.106092
	C214	C	0.584719	0.887252	0.106790
	C215	C	0.397110	0.888361	0.910199
	Zn216	Zn	0.491574	-0.016601	0.758048
	Zn217	Zn	0.490598	-0.017151	0.258144
	Zn218	Zn	0.742361	0.483640	0.010813
	Zn219	Zn	0.238022	0.484829	0.010500
	Zn220	Zn	-0.010188	0.732589	0.509734
	Zn221	Zn	-0.009974	0.236646	0.508802
	Zn222	Zn	-0.009454	0.484070	0.760975
	Zn223	Zn	-0.010150	0.483846	0.260925
	Zn224	Zn	0.490419	0.735871	0.009224
	Zn225	Zn	0.490070	0.232158	0.007886
	Zn226	Zn	0.737879	-0.015933	0.506955
	Zn227	Zn	0.241870	-0.016181	0.507952
	N228	N	0.402434	0.948114	0.689104
	N229	N	0.580093	0.018629	0.689583
	N230	N	0.578628	0.947560	0.326934
	N231	N	0.402452	0.018849	0.327215
	N232	N	0.672948	0.395180	0.974058
	N233	N	0.669185	0.569190	0.047166
	N234	N	0.307306	0.573339	0.974932
	N235	N	0.310793	0.399226	0.046360
	N236	N	0.952721	0.661249	0.425223
	N237	N	0.026878	0.661210	0.594911
	N238	N	0.952598	0.307492	0.594607
	N239	N	0.027276	0.309002	0.425961
	N240	N	0.954922	0.394437	0.692881
	N241	N	0.025807	0.572342	0.691651
	N242	N	0.954058	0.571938	0.330111
	N243	N	0.024911	0.395786	0.329773
	N244	N	0.403131	0.664959	0.973646
	N245	N	0.576651	0.664105	0.045944
	N246	N	0.577566	0.303159	0.972162
	N247	N	0.402770	0.303322	0.044379
	N248	N	0.668167	0.947409	0.421075
	N249	N	0.664672	0.022093	0.589811
	N250	N	0.314081	0.946305	0.592231
	N251	N	0.312689	0.020443	0.422117
	N252	N	0.901874	0.448369	0.191795
	N253	N	0.077942	0.519938	0.191670
	N254	N	0.078794	0.449287	0.829808
	N255	N	0.899703	0.518379	0.827967
	N256	N	0.169999	0.897520	0.472091
	N257	N	0.171602	0.071732	0.544069
	N258	N	0.810117	0.071202	0.471713
	N259	N	0.810031	0.898917	0.544530
	N260	N	0.453213	0.160856	0.922394
	N261	N	0.528258	0.159648	0.091778
	N262	N	0.452733	0.808194	0.092424
	N263	N	0.528286	0.807327	0.924215
	N264	N	0.455212	0.894403	0.189763
	N265	N	0.526585	0.070151	0.187806
	N266	N	0.454674	0.072145	0.826079
	N267	N	0.526446	0.894718	0.826597
	N268	N	0.903431	0.165205	0.472288
	N269	N	0.076866	0.164998	0.545364
	N270	N	0.077688	0.802571	0.473449
	N271	N	0.901993	0.803812	0.544572
	N272	N	0.165911	0.447145	0.926940
	N273	N	0.166570	0.521886	0.095563
	N274	N	0.813755	0.446418	0.095695
	N275	N	0.815317	0.521540	0.928086
	O276	O	0.499975	0.387274	0.668768
	H277	H	0.489631	0.380789	0.675096
	H278	H	0.499377	0.391945	0.668035
	O279	O	0.449224	0.579033	0.454004
	H280	H	0.464200	0.587194	0.459166
	H281	H	0.443288	0.587705	0.433228
	O282	O	1.079296	-0.125810	1.041322
	H283	H	1.075846	-0.112239	1.044126
	H284	H	1.079433	-0.117756	1.049300
	O285	O	0.422064	0.388517	0.502369
	H286	H	0.427684	0.401557	0.488130
	H287	H	0.438093	0.386426	0.507837
	O288	O	1.147072	1.016162	1.036277
	H289	H	1.152634	1.023343	1.041565
	H290	H	1.143645	1.016584	1.045587
	O291	O	0.417169	1.542182	-0.544188
	H292	H	0.427184	1.546233	-0.550986
	H293	H	0.410304	1.538906	-0.539176
	O294	O	0.431668	0.611226	0.475545
	H295	H	0.424269	0.609774	0.481538
	H296	H	0.426849	0.616167	0.483386
	O297	O	0.658339	0.457116	0.410114
	H298	H	0.655985	0.480462	0.414762
	H299	H	0.665911	0.457325	0.415917
	O300	O	0.588601	0.414234	0.426166
	H301	H	0.588728	0.416733	0.431563
	H302	H	0.574970	0.423353	0.415265
	O303	O	0.819036	0.603965	0.295320
	H304	H	0.800181	0.602494	0.287645
	H305	H	0.809072	0.580626	0.294829
	O306	O	0.414974	0.548056	0.656530
	H307	H	0.424774	0.563441	0.651733
	H308	H	0.401352	0.562406	0.643662
	O309	O	0.313276	0.633534	0.420019
	H310	H	0.306459	0.638655	0.409461
	H311	H	0.310358	0.637598	0.423982
	O312	O	-0.032788	-0.162502	-0.110324
	H313	H	-0.005600	-0.162358	-0.115018
	H314	H	-0.032536	-0.164348	-0.120487
	O315	O	0.581019	0.526831	0.657757
	H316	H	0.564699	0.523069	0.667364
	H317	H	0.570918	0.537746	0.646986
	O318	O	0.041790	1.059690	0.994151
	H319	H	0.049211	1.060160	1.003957
	H320	H	0.037056	1.062372	0.985348
	O321	O	0.606877	0.294092	0.377459
	H322	H	0.623734	0.295962	0.392761
	H323	H	0.608343	0.282270	0.381179
	O324	O	-0.006338	0.969690	-0.048057
	H325	H	-0.019230	0.967326	-0.038743
	H326	H	-0.007287	0.968267	-0.054076
	O327	O	-0.147869	-0.119694	0.126684
	H328	H	-0.163383	-0.127089	0.101603
	H329	H	-0.155822	-0.099895	0.136635
	O330	O	-0.072575	-0.050297	1.056970
	H331	H	-0.063518	-0.049327	1.040623
	H332	H	-0.061924	-0.051266	1.041553
	O333	O	-0.164338	0.009962	1.005053
	H334	H	-0.142004	0.014216	1.001689
	H335	H	-0.154581	0.009021	1.009607
	O336	O	0.350340	0.380349	0.681656
	H337	H	0.340910	0.390846	0.673597
	H338	H	0.352353	0.377835	0.690937
	O339	O	1.117749	-0.091757	0.067278
	H340	H	1.118331	-0.090620	0.081181
	H341	H	1.114872	-0.085608	0.062337
	O342	O	0.157101	-0.038417	-0.147769
	H343	H	0.170750	-0.024923	-0.155858
	H344	H	0.160292	-0.025722	-0.142109
	O345	O	0.891260	-0.092057	1.173979
	H346	H	0.882047	-0.076972	1.185880
	H347	H	0.882786	-0.086167	1.177631
	O348	O	0.971641	1.125077	-0.071936
	H349	H	0.980079	1.130535	-0.082330
	H350	H	0.956871	1.119681	-0.075911
	O351	O	0.596536	0.427493	0.697982
	H352	H	0.606043	0.418997	0.712051
	H353	H	0.590185	0.422813	0.692075
	O354	O	1.090548	0.011856	1.030254
	H355	H	1.071867	0.020268	1.041700
	H356	H	1.092294	-0.003672	1.026066
	O357	O	0.619093	0.576382	0.558178
	H358	H	0.618860	0.590883	0.567717
	H359	H	0.610785	0.571799	0.573460
	O360	O	0.969456	1.047566	0.991743
	H361	H	0.957479	1.028349	1.001742
	H362	H	0.968140	1.047296	0.977445
	O363	O	0.079520	1.065597	1.006222
	H364	H	0.075389	1.048098	1.009246
	H365	H	0.082361	1.075441	1.014247
	O366	O	0.333074	0.445127	0.521622
	H367	H	0.341598	0.446109	0.517307
	H368	H	0.336068	0.439886	0.524846
	O369	O	0.061165	0.793157	-0.181937
	H370	H	0.088145	0.816502	-0.180831
	H371	H	0.070098	0.771508	-0.173478
	O372	O	0.560143	0.363670	0.326171
	H373	H	0.552265	0.377100	0.324638
	H374	H	0.577629	0.348060	0.337049
	O375	O	0.501673	0.527135	0.467466
	H376	H	0.500053	0.534973	0.462637
	H377	H	0.503871	0.521626	0.462298
	O378	O	1.080602	1.002791	0.123413
	H379	H	1.078903	0.981205	0.128661
	H380	H	1.084803	1.023861	0.128366
	O381	O	0.807590	0.093122	-0.025452
	H382	H	0.796714	0.102768	-0.023136
	H383	H	0.803480	0.080328	-0.019736
	O384	O	1.558339	1.583262	-0.294250
	H385	H	1.579414	1.579964	-0.291580
	H386	H	1.551345	1.594174	-0.283724
	O387	O	-0.101863	-0.011504	-0.155320
	H388	H	-0.111431	-0.022888	-0.161229
	H389	H	-0.096279	-0.007519	-0.152441
	O390	O	-0.104179	1.093326	-0.063857
	H391	H	-0.114359	1.091707	-0.070983
	H392	H	-0.092251	1.104583	-0.061522
	O393	O	0.611886	0.446127	0.482832
	H394	H	0.616336	0.456922	0.490776
	H395	H	0.600233	0.454718	0.490749
	O396	O	0.317603	0.464231	0.373986
	H397	H	0.321680	0.467025	0.379213
	H398	H	0.312976	0.462655	0.362856
	O399	O	0.493883	1.538428	1.456095
	H400	H	0.505173	1.540464	1.461619
	H401	H	0.480265	1.528536	1.454427
	O402	O	0.462507	0.514674	0.510640
	H403	H	0.461186	0.510735	0.523862
	H404	H	0.472186	0.504848	0.505864
	O405	O	1.047881	1.115220	0.131709
	H406	H	1.041257	1.106518	0.134711
	H407	H	1.061127	1.123776	0.142698
	O408	O	1.105723	1.173218	0.029808
	H409	H	1.110024	1.183893	0.026592
	H410	H	1.095527	1.168637	0.041764
	O411	O	0.994254	-0.131476	0.997562
	H412	H	1.005552	-0.134051	0.995827
	H413	H	0.986161	-0.139348	1.006702
	O414	O	0.380973	0.303733	0.461233
	H415	H	0.396614	0.301611	0.462353
	H416	H	0.383966	0.290394	0.460442
	O417	O	0.638409	0.662026	0.685837
	H418	H	0.644929	0.655546	0.678795
	H419	H	0.626728	0.645904	0.697419
