data_Molecule from HDF5

_cell_length_a		16.579074
_cell_length_b		16.649698
_cell_length_c		16.503117
_cell_angle_alpha	90.042929
_cell_angle_beta	90.010322
_cell_angle_gamma	90.124718
_symmetry_space_group_name_H-M	'P 1'
_symmetry_Int_Tables_number		1

loop_
	_symmetry_equiv_pos_as_xyz
	x,y,z

loop_
	_atom_site_label
	_atom_site_type_symbol
	_atom_site_fract_x
	_atom_site_fract_y
	_atom_site_fract_z
	H0	H	0.397954	0.848176	0.729632
	H1	H	0.597723	0.166131	0.728161
	H2	H	0.604008	0.852525	0.289710
	H3	H	0.392410	0.161153	0.288985
	H4	H	0.713964	0.406121	0.852754
	H5	H	0.718391	0.609543	0.169647
	H6	H	0.277038	0.611006	0.856900
	H7	H	0.279985	0.404602	0.171380
	H8	H	0.842903	0.728740	0.407317
	H9	H	0.152254	0.732889	0.622386
	H10	H	0.845186	0.282261	0.619415
	H11	H	0.155353	0.286350	0.406157
	H12	H	0.843807	0.399106	0.734486
	H13	H	0.152874	0.615278	0.737436
	H14	H	0.842563	0.610755	0.291291
	H15	H	0.155816	0.404792	0.293077
	H16	H	0.396238	0.725151	0.854259
	H17	H	0.603311	0.727212	0.169400
	H18	H	0.598767	0.289674	0.853075
	H19	H	0.392386	0.285687	0.169606
	H20	H	0.721829	0.852848	0.405444
	H21	H	0.717258	0.164919	0.613916
	H22	H	0.279282	0.848915	0.615113
	H23	H	0.274804	0.160005	0.405632
	H24	H	0.893371	0.349697	0.234653
	H25	H	0.101495	0.663095	0.233963
	H26	H	0.104977	0.352864	0.789206
	H27	H	0.891971	0.660106	0.789120
	H28	H	0.221706	0.899261	0.356276
	H29	H	0.218144	0.108997	0.670094
	H30	H	0.776944	0.113435	0.356406
	H31	H	0.780380	0.905125	0.670308
	H32	H	0.340241	0.226847	0.906936
	H33	H	0.653941	0.229254	0.118778
	H34	H	0.343978	0.783366	0.119439
	H35	H	0.656824	0.787429	0.906583
	H36	H	0.342819	0.901182	0.233155
	H37	H	0.653820	0.111510	0.233099
	H38	H	0.339383	0.108146	0.792841
	H39	H	0.657507	0.907101	0.793970
	H40	H	0.894479	0.227910	0.355398
	H41	H	0.107296	0.230386	0.666546
	H42	H	0.104906	0.782811	0.356466
	H43	H	0.894239	0.787710	0.669252
	H44	H	0.220989	0.352485	0.905831
	H45	H	0.221760	0.662025	0.121297
	H46	H	0.776766	0.349377	0.117391
	H47	H	0.775686	0.660805	0.906183
	H48	H	0.405005	0.119085	0.602549
	H49	H	0.598321	0.892620	0.602677
	H50	H	0.586504	0.119441	0.418796
	H51	H	0.407912	0.894376	0.422058
	H52	H	0.585432	0.413675	0.126005
	H53	H	0.584060	0.591937	0.902658
	H54	H	0.414393	0.592595	0.123258
	H55	H	0.397063	0.422757	0.897485
	H56	H	0.106550	0.593853	0.432767
	H57	H	0.886452	0.601551	0.596900
	H58	H	0.112724	0.416195	0.601783
	H59	H	0.884961	0.415404	0.421281
	H60	H	0.108977	0.418349	0.595492
	H61	H	0.890661	0.589365	0.596903
	H62	H	0.109887	0.589500	0.419193
	H63	H	0.887378	0.413337	0.425954
	H64	H	0.413251	0.601261	0.126468
	H65	H	0.584901	0.603566	0.898117
	H66	H	0.590147	0.416406	0.126620
	H67	H	0.418223	0.424589	0.905700
	H68	H	0.584423	0.115631	0.426497
	H69	H	0.587873	0.893638	0.610338
	H70	H	0.408239	0.118391	0.604624
	H71	H	0.413540	0.896963	0.422074
	H72	H	0.909720	0.618936	0.106998
	H73	H	0.088640	0.395095	0.102943
	H74	H	0.084239	0.618652	0.920966
	H75	H	0.909853	0.392435	0.919964
	H76	H	0.084501	0.920122	0.622409
	H77	H	0.084829	0.098270	0.400079
	H78	H	0.907831	0.098664	0.626973
	H79	H	0.909531	0.918855	0.400381
	H80	H	0.610558	0.101780	0.921240
	H81	H	0.388250	0.097304	0.091510
	H82	H	0.607021	0.925426	0.097998
	H83	H	0.386246	0.917956	0.917758
	H84	H	0.613020	0.917415	0.105924
	H85	H	0.388136	0.088525	0.103073
	H86	H	0.610052	0.097899	0.922223
	H87	H	0.384450	0.909311	0.920759
	H88	H	0.910116	0.091917	0.623407
	H89	H	0.091202	0.094718	0.398370
	H90	H	0.086035	0.914506	0.625101
	H91	H	0.911927	0.917444	0.399755
	H92	H	0.083283	0.615398	0.930120
	H93	H	0.088598	0.395386	0.103107
	H94	H	0.912240	0.614786	0.099398
	H95	H	0.912343	0.396687	0.925622
	H96	H	0.408680	0.118066	0.600564
	H97	H	0.587288	0.897813	0.597895
	H98	H	0.592277	0.119600	0.425280
	H99	H	0.410745	0.896157	0.427350
	H100	H	0.585696	0.419128	0.124358
	H101	H	0.594853	0.595479	0.896674
	H102	H	0.406115	0.595387	0.126286
	H103	H	0.410792	0.404455	0.896576
	H104	H	0.113293	0.603397	0.424012
	H105	H	0.884777	0.594312	0.607292
	H106	H	0.110138	0.424016	0.601211
	H107	H	0.888147	0.417970	0.424576
	H108	H	0.903541	0.617166	0.100761
	H109	H	0.088318	0.395290	0.103036
	H110	H	0.091410	0.619257	0.927485
	H111	H	0.906006	0.394562	0.925794
	H112	H	0.090769	0.919075	0.624937
	H113	H	0.085788	0.091548	0.402073
	H114	H	0.914877	0.097908	0.624062
	H115	H	0.909671	0.916322	0.398652
	H116	H	0.610593	0.099132	0.918805
	H117	H	0.382523	0.101379	0.104258
	H118	H	0.609890	0.914017	0.093974
	H119	H	0.388434	0.915751	0.926804
	C120	C	0.377067	0.014185	0.633442
	C121	C	0.620480	0.999420	0.633664
	C122	C	0.620041	0.015595	0.390760
	C123	C	0.377222	0.998001	0.390667
	C124	C	0.618180	0.385687	0.020772
	C125	C	0.620117	0.628296	1.003427
	C126	C	0.378754	0.627731	0.021051
	C127	C	0.376712	0.385825	1.004212
	C128	C	0.006691	0.627597	0.392397
	C129	C	0.989839	0.628845	0.634455
	C130	C	0.008084	0.385642	0.632876
	C131	C	0.990371	0.384814	0.391381
	C132	C	0.876344	0.513848	0.134353
	C133	C	0.120385	0.498504	0.135313
	C134	C	0.119363	0.515694	0.892331
	C135	C	0.877098	0.497217	0.891262
	C136	C	0.119632	0.885089	0.520557
	C137	C	0.120373	0.127104	0.503485
	C138	C	0.878818	0.128054	0.520988
	C139	C	0.877987	0.886334	0.503760
	C140	C	0.505711	0.128885	0.890088
	C141	C	0.489315	0.128312	0.132931
	C142	C	0.506988	0.886042	0.132670
	C143	C	0.490858	0.884982	0.890645
	C144	C	0.378323	0.895480	0.690578
	C145	C	0.618437	0.118448	0.690011
	C146	C	0.622615	0.898843	0.330101
	C147	C	0.373859	0.114574	0.329477
	C148	C	0.675388	0.386385	0.900769
	C149	C	0.679115	0.628948	0.122300
	C150	C	0.318162	0.629211	0.903089
	C151	C	0.318944	0.385459	0.123628
	C152	C	0.889444	0.688246	0.389063
	C153	C	0.106006	0.691541	0.639379
	C154	C	0.891651	0.323376	0.636888
	C155	C	0.108528	0.326475	0.388916
	C156	C	0.890902	0.381780	0.693992
	C157	C	0.106264	0.632997	0.696440
	C158	C	0.889215	0.629751	0.331634
	C159	C	0.108932	0.385222	0.332400
	C160	C	0.376936	0.686052	0.901985
	C161	C	0.622158	0.687449	0.122240
	C162	C	0.618123	0.328309	0.901077
	C163	C	0.374861	0.326293	0.122646
	C164	C	0.681015	0.899243	0.387706
	C165	C	0.677645	0.117964	0.633122
	C166	C	0.319161	0.895812	0.633795
	C167	C	0.315497	0.114084	0.387205
	C168	C	0.874402	0.396542	0.194633
	C169	C	0.121551	0.615971	0.194857
	C170	C	0.123017	0.399398	0.830114
	C171	C	0.874008	0.613990	0.830164
	C172	C	0.180854	0.881248	0.402991
	C173	C	0.179392	0.128694	0.622139
	C174	C	0.818061	0.130900	0.402890
	C175	C	0.819235	0.885999	0.622550
	C176	C	0.387296	0.186954	0.888788
	C177	C	0.606760	0.188880	0.136034
	C178	C	0.390382	0.824576	0.136396
	C179	C	0.609722	0.827326	0.888941
	C180	C	0.389730	0.883236	0.192911
	C181	C	0.606920	0.130568	0.193246
	C182	C	0.386923	0.127893	0.832112
	C183	C	0.609813	0.886507	0.832575
	C184	C	0.876271	0.187980	0.402568
	C185	C	0.124055	0.188513	0.620745
	C186	C	0.122880	0.823572	0.403099
	C187	C	0.875972	0.827515	0.622237
	C188	C	0.180556	0.399161	0.888261
	C189	C	0.180862	0.615494	0.138333
	C190	C	0.816348	0.396531	0.136545
	C191	C	0.816283	0.614109	0.888344
	C192	C	0.400530	0.096896	0.609397
	C193	C	0.597781	0.916326	0.610325
	C194	C	0.594720	0.097053	0.416197
	C195	C	0.403156	0.916953	0.416342
	C196	C	0.594137	0.409496	0.103875
	C197	C	0.595068	0.604020	0.920820
	C198	C	0.403920	0.603414	0.103711
	C199	C	0.401389	0.410324	0.921425
	C200	C	0.088558	0.602622	0.417967
	C201	C	0.908396	0.602548	0.607917
	C202	C	0.089450	0.411949	0.606844
	C203	C	0.908031	0.408835	0.416545
	C204	C	0.901384	0.595659	0.109629
	C205	C	0.095574	0.416511	0.110246
	C206	C	0.093590	0.596593	0.918678
	C207	C	0.902312	0.415738	0.916559
	C208	C	0.094331	0.910617	0.602589
	C209	C	0.094749	0.101802	0.421353
	C210	C	0.903866	0.103309	0.603227
	C211	C	0.903178	0.910679	0.421216
	C212	C	0.588765	0.106034	0.914078
	C213	C	0.407481	0.102715	0.107382
	C214	C	0.588804	0.911864	0.106709
	C215	C	0.408066	0.907759	0.914824
	Zn216	Zn	0.498210	0.006842	0.762306
	Zn217	Zn	0.498598	0.006872	0.261552
	Zn218	Zn	0.747562	0.505453	0.012569
	Zn219	Zn	0.248926	0.507171	0.013367
	Zn220	Zn	-0.001925	0.757009	0.512675
	Zn221	Zn	0.000217	0.256145	0.511996
	Zn222	Zn	-0.001286	0.506692	0.762286
	Zn223	Zn	-0.001984	0.506246	0.263473
	Zn224	Zn	0.499429	0.756668	0.011861
	Zn225	Zn	0.497219	0.257135	0.011849
	Zn226	Zn	0.749812	0.007952	0.511969
	Zn227	Zn	0.248115	0.006102	0.512231
	N228	N	0.413330	0.970252	0.690610
	N229	N	0.583912	0.043400	0.690938
	N230	N	0.585393	0.972375	0.331932
	N231	N	0.411608	0.041469	0.331656
	N232	N	0.675810	0.421055	0.976344
	N233	N	0.678322	0.593111	0.047353
	N234	N	0.318866	0.594103	0.978318
	N235	N	0.319872	0.421708	0.048832
	N236	N	0.963423	0.686851	0.426204
	N237	N	0.032405	0.688936	0.601432
	N238	N	0.965578	0.325714	0.599544
	N239	N	0.033813	0.326083	0.424774
	N240	N	0.964417	0.419995	0.691681
	N241	N	0.033020	0.594568	0.693344
	N242	N	0.963092	0.592732	0.333659
	N243	N	0.034293	0.420825	0.333774
	N244	N	0.413766	0.685437	0.976529
	N245	N	0.586583	0.687436	0.047183
	N246	N	0.583554	0.327333	0.976709
	N247	N	0.409640	0.325997	0.047164
	N248	N	0.679624	0.972809	0.424666
	N249	N	0.679403	0.042706	0.599369
	N250	N	0.318183	0.970698	0.599130
	N251	N	0.317372	0.040578	0.424545
	N252	N	0.910976	0.470575	0.193512
	N253	N	0.084673	0.542099	0.193094
	N254	N	0.085533	0.472838	0.832491
	N255	N	0.911005	0.540301	0.831702
	N256	N	0.179013	0.918747	0.477048
	N257	N	0.177160	0.091095	0.548110
	N258	N	0.819557	0.094311	0.477360
	N259	N	0.820176	0.921801	0.547626
	N260	N	0.462369	0.187751	0.924163
	N261	N	0.532397	0.187849	0.099437
	N262	N	0.464465	0.826285	0.099561
	N263	N	0.534662	0.826032	0.924183
	N264	N	0.463578	0.920747	0.190866
	N265	N	0.532764	0.093641	0.191472
	N266	N	0.461713	0.092609	0.832798
	N267	N	0.534978	0.921635	0.833354
	N268	N	0.913545	0.186253	0.476915
	N269	N	0.088134	0.187683	0.545911
	N270	N	0.085646	0.825813	0.477319
	N271	N	0.911656	0.827409	0.547232
	N272	N	0.178591	0.472615	0.926271
	N273	N	0.180485	0.541205	0.102241
	N274	N	0.817296	0.470549	0.099995
	N275	N	0.817951	0.540546	0.925527
	O276	O	-0.308265	0.659528	-0.648147
	H277	H	-0.296408	0.656836	-0.647048
	H278	H	-0.319256	0.647016	-0.632141
	O279	O	0.471222	0.498611	0.308953
	H280	H	0.470863	0.477141	0.307900
	H281	H	0.466695	0.500354	0.319531
	O282	O	0.973984	0.177231	1.102029
	H283	H	0.968924	0.185007	1.115762
	H284	H	0.974044	0.177628	1.106037
	O285	O	-0.061876	0.158776	0.029720
	H286	H	-0.062531	0.161016	0.026294
	H287	H	-0.068235	0.155601	0.040632
	O288	O	0.432191	0.330199	0.679105
	H289	H	0.437934	0.317324	0.693016
	H290	H	0.424615	0.329335	0.678848
	O291	O	0.674200	0.732340	0.520700
	H292	H	0.693348	0.756542	0.515523
	H293	H	0.652887	0.739086	0.507361
	O294	O	1.174318	0.174358	1.189358
	H295	H	1.161296	0.176218	1.170008
	H296	H	1.172680	0.153952	1.181175
	O297	O	0.365953	0.471613	0.497509
	H298	H	0.363308	0.482915	0.515744
	H299	H	0.376425	0.467415	0.497987
	O300	O	0.222584	0.067808	0.969857
	H301	H	0.221639	0.053333	0.952482
	H302	H	0.219677	0.062064	0.968055
	O303	O	0.525636	0.714858	0.730174
	H304	H	0.544406	0.733057	0.744009
	H305	H	0.552097	0.724305	0.728214
	O306	O	0.905724	0.033659	0.236579
	H307	H	0.899453	0.028011	0.236126
	H308	H	0.905767	0.025161	0.244714
	O309	O	0.716732	0.587019	0.716676
	H310	H	0.719258	0.580752	0.731509
	H311	H	0.721013	0.602227	0.713187
	O312	O	0.758943	0.767711	0.251800
	H313	H	0.792430	0.766556	0.253358
	H314	H	0.740243	0.749013	0.260879
	O315	O	1.132041	1.007870	1.051220
	H316	H	1.128727	1.011012	1.039489
	H317	H	1.134834	1.005632	1.050004
	O318	O	0.720429	0.480209	0.549081
	H319	H	0.721843	0.492320	0.547833
	H320	H	0.737823	0.490396	0.548593
	O321	O	0.208041	1.039419	0.226296
	H322	H	0.218863	1.044684	0.233213
	H323	H	0.214948	1.035617	0.225890
	O324	O	0.821983	1.173200	0.199034
	H325	H	0.842690	1.166494	0.187272
	H326	H	0.821587	1.168562	0.211139
	O327	O	0.070640	0.227909	0.965373
	H328	H	0.095593	0.233741	0.976875
	H329	H	0.056339	0.220616	0.980686
	O330	O	0.578124	0.283535	0.336009
	H331	H	0.574602	0.273252	0.333919
	H332	H	0.583519	0.263892	0.322121
	O333	O	0.443125	0.412342	0.616010
	H334	H	0.443178	0.423951	0.634225
	H335	H	0.455029	0.403159	0.610325
	O336	O	0.690659	0.537519	0.442694
	H337	H	0.667359	0.541863	0.435089
	H338	H	0.699068	0.556377	0.433354
	O339	O	1.370577	-0.307078	0.565775
	H340	H	1.377828	-0.307711	0.581268
	H341	H	1.356815	-0.289538	0.569129
	O342	O	0.065324	0.128909	-0.167516
	H343	H	0.064074	0.141651	-0.167776
	H344	H	0.077364	0.138756	-0.177768
	O345	O	0.060555	0.943583	1.233113
	H346	H	0.075108	0.937769	1.237753
	H347	H	0.060056	0.947110	1.230254
	O348	O	0.268692	-0.447120	0.523658
	H349	H	0.263067	-0.436979	0.522529
	H350	H	0.274680	-0.457209	0.532978
	O351	O	0.380648	0.674426	0.523112
	H352	H	0.394535	0.668762	0.533119
	H353	H	0.371536	0.677919	0.525946
	O354	O	0.022454	0.204786	0.815893
	H355	H	0.025752	0.200259	0.837531
	H356	H	0.008625	0.208309	0.815380
	O357	O	0.375799	0.554334	0.430120
	H358	H	0.388234	0.541351	0.423628
	H359	H	0.356022	0.563519	0.422289
	O360	O	0.292517	0.297159	0.301792
	H361	H	0.279041	0.285445	0.294783
	H362	H	0.291144	0.301317	0.314136
	O363	O	0.207764	-0.200200	-0.190658
	H364	H	0.218569	-0.200021	-0.179546
	H365	H	0.169010	-0.205955	-0.186667
	O366	O	0.408599	0.680765	0.532064
	H367	H	0.402785	0.678062	0.524641
	H368	H	0.413003	0.674607	0.539203
	O369	O	0.519931	0.458199	0.499011
	H370	H	0.517289	0.458095	0.501445
	H371	H	0.522110	0.461503	0.506360
	O372	O	0.768218	1.082392	0.058115
	H373	H	0.772502	1.073768	0.080449
	H374	H	0.763801	1.062647	0.051001
	O375	O	0.775200	-0.054827	-0.027512
	H376	H	0.778698	-0.064474	-0.047232
	H377	H	0.773707	-0.082131	-0.025469
	O378	O	0.480462	0.661737	0.355300
	H379	H	0.477748	0.651700	0.350748
	H380	H	0.474161	0.665810	0.347289
	O381	O	-0.224707	1.097243	0.790773
	H382	H	-0.241073	1.105605	0.775492
	H383	H	-0.233311	1.100550	0.793889
	O384	O	1.033230	-0.224209	1.043902
	H385	H	1.041609	-0.215621	1.047004
	H386	H	1.045824	-0.216717	1.040831
	O387	O	1.181925	1.175317	-0.200641
	H388	H	1.166770	1.188345	-0.191528
	H389	H	1.187846	1.162302	-0.200704
	O390	O	0.704317	0.301700	0.314843
	H391	H	0.669653	0.300539	0.323642
	H392	H	0.717221	0.315374	0.303680
	O393	O	0.024203	-0.207196	-0.190903
	H394	H	0.017964	-0.225945	-0.208333
	H395	H	0.012190	-0.191967	-0.177257
	O396	O	-0.188441	0.871478	0.817515
	H397	H	-0.167434	0.864374	0.835704
	H398	H	-0.174504	0.898654	0.828108
	O399	O	0.283813	0.512716	0.679296
	H400	H	0.293746	0.501248	0.668317
	H401	H	0.275758	0.500440	0.694054
	O402	O	0.480061	0.279404	0.464256
	H403	H	0.454946	0.282123	0.466381
	H404	H	0.481200	0.280564	0.473128
	O405	O	1.012663	0.168927	1.223893
	H406	H	1.008924	0.178704	1.220382
	H407	H	1.014571	0.163747	1.228107
	O408	O	0.219523	0.231688	0.048592
	H409	H	0.243821	0.246424	0.057680
	H410	H	0.229827	0.213300	0.038251
	O411	O	0.142342	0.991444	0.937995
	H412	H	0.126132	0.989777	0.942051
	H413	H	0.149195	0.986530	0.926511
	O414	O	0.676622	0.334088	0.693084
	H415	H	0.688283	0.333461	0.699562
	H416	H	0.674582	0.344011	0.667883
	O417	O	0.290494	0.295203	0.528746
	H418	H	0.284701	0.303332	0.531928
	H419	H	0.275525	0.292045	0.537623
	O420	O	0.678638	0.497446	0.290943
	H421	H	0.691566	0.502009	0.287426
	H422	H	0.666561	0.497949	0.276960
	O423	O	0.343961	-0.440346	0.373882
	H424	H	0.352404	-0.445950	0.360066
	H425	H	0.344561	-0.459969	0.384838
	O426	O	-0.224775	0.231509	-0.026442
	H427	H	-0.232608	0.206016	-0.011561
	H428	H	-0.252650	0.255456	-0.031633
	O429	O	1.020251	0.971005	0.883786
	H430	H	1.027376	0.969787	0.892587
	H431	H	1.016698	0.983456	0.884892
	O432	O	0.783967	0.931331	0.225269
	H433	H	0.787615	0.915870	0.227928
	H434	H	0.760974	0.932859	0.244458
	O435	O	0.218021	0.968203	-0.204902
	H436	H	0.216835	0.954537	-0.217767
	H437	H	0.228800	0.953745	-0.218136
	O438	O	-0.091303	-0.216055	-0.065033
	H439	H	-0.088287	-0.223293	-0.054582
	H440	H	-0.090759	-0.217055	-0.047983
	O441	O	-0.011421	0.001674	0.037101
	H442	H	-0.013593	0.014040	0.035289
	H443	H	-0.026317	0.001663	0.045057
	O444	O	0.535301	0.715095	0.512514
	H445	H	0.526985	0.715869	0.517613
	H446	H	0.523994	0.704602	0.505886
	O447	O	-0.222510	0.783013	1.045942
	H448	H	-0.233022	0.774505	1.075275
	H449	H	-0.228453	0.760744	1.046922
	O450	O	-0.304725	0.712534	1.677004
	H451	H	-0.282478	0.732180	1.695879
	H452	H	-0.293692	0.704228	1.640420
	O453	O	0.613642	0.423718	0.651299
	H454	H	0.621432	0.425457	0.645642
	H455	H	0.597703	0.412316	0.654380
	O456	O	-0.014676	-0.204523	1.191093
	H457	H	-0.003311	-0.196263	1.180361
	H458	H	-0.006881	-0.213507	1.209248
	O459	O	1.217892	0.785686	-0.021204
	H460	H	1.231756	0.769579	-0.024778
	H461	H	1.213182	0.781764	-0.012356
	O462	O	0.518415	0.358351	0.573285
	H463	H	0.522040	0.347507	0.588220
	H464	H	0.534742	0.350532	0.580839
	O465	O	0.846673	0.220609	-0.200170
	H466	H	0.831495	0.228978	-0.165462
	H467	H	0.865179	0.223415	-0.213411
	O468	O	0.472202	0.437929	0.302592
	H469	H	0.470778	0.427452	0.317618
	H470	H	0.474253	0.422009	0.314233
	O471	O	0.287277	0.722454	0.302010
	H472	H	0.296883	0.712607	0.325964
	H473	H	0.291343	0.694314	0.318991
	O474	O	0.414518	0.577943	0.714315
	H475	H	0.407984	0.593777	0.724873
	H476	H	0.424593	0.567226	0.716007
	O477	O	0.700105	0.361034	1.499532
	H478	H	0.698642	0.357515	1.495569
	H479	H	0.719617	0.361872	1.513784
	O480	O	0.332961	0.340959	0.704373
	H481	H	0.351109	0.330903	0.683886
	H482	H	0.325814	0.349803	0.711601
	O483	O	1.180938	0.836106	1.179852
	H484	H	1.191140	0.836671	1.178813
	H485	H	1.197103	0.830034	1.185886
	O486	O	0.898425	-0.033862	0.832611
	H487	H	0.921242	-0.017676	0.828385
	H488	H	0.886379	-0.013885	0.818842
	O489	O	0.930814	0.905455	0.115274
	H490	H	0.931400	0.905226	0.107380
	H491	H	0.935473	0.909009	0.120360
