data_Molecule from HDF5

_cell_length_a		16.123498
_cell_length_b		16.271644
_cell_length_c		16.398707
_cell_angle_alpha	89.634482
_cell_angle_beta	89.893698
_cell_angle_gamma	89.624122
_symmetry_space_group_name_H-M	'P 1'
_symmetry_Int_Tables_number		1

loop_
	_symmetry_equiv_pos_as_xyz
	x,y,z

loop_
	_atom_site_label
	_atom_site_type_symbol
	_atom_site_fract_x
	_atom_site_fract_y
	_atom_site_fract_z
	H0	H	0.395672	0.841519	0.720872
	H1	H	0.606703	0.161452	0.720868
	H2	H	0.609098	0.840841	0.281434
	H3	H	0.395978	0.162949	0.279894
	H4	H	0.722019	0.396539	0.837323
	H5	H	0.719597	0.597106	0.160537
	H6	H	0.285762	0.604052	0.837713
	H7	H	0.283681	0.399332	0.160116
	H8	H	0.838536	0.721189	0.395703
	H9	H	0.165066	0.715436	0.598093
	H10	H	0.838057	0.288307	0.599657
	H11	H	0.164497	0.284597	0.396078
	H12	H	0.839398	0.398668	0.716587
	H13	H	0.161755	0.609061	0.717825
	H14	H	0.838131	0.608421	0.278399
	H15	H	0.164050	0.398764	0.279820
	H16	H	0.395685	0.724183	0.841014
	H17	H	0.606235	0.718243	0.160676
	H18	H	0.607474	0.278267	0.838777
	H19	H	0.400411	0.281692	0.160623
	H20	H	0.719453	0.839772	0.401503
	H21	H	0.714671	0.165996	0.597461
	H22	H	0.286057	0.839311	0.602410
	H23	H	0.283122	0.164427	0.398347
	H24	H	0.898283	0.340872	0.218507
	H25	H	0.106512	0.662118	0.215599
	H26	H	0.105317	0.340351	0.779032
	H27	H	0.895732	0.663310	0.778511
	H28	H	0.221013	0.902145	0.338451
	H29	H	0.214889	0.098843	0.663120
	H30	H	0.782973	0.105562	0.338482
	H31	H	0.786566	0.903244	0.662290
	H32	H	0.339229	0.218072	0.898034
	H33	H	0.666176	0.211455	0.097414
	H34	H	0.337540	0.785358	0.103719
	H35	H	0.664492	0.784265	0.901018
	H36	H	0.339295	0.898611	0.219883
	H37	H	0.663574	0.104419	0.216930
	H38	H	0.338820	0.105868	0.782676
	H39	H	0.663804	0.896838	0.782587
	H40	H	0.899880	0.221974	0.338071
	H41	H	0.102844	0.220359	0.660340
	H42	H	0.107375	0.783340	0.338852
	H43	H	0.898477	0.781343	0.659844
	H44	H	0.218557	0.338787	0.897957
	H45	H	0.215369	0.664319	0.094475
	H46	H	0.791840	0.335742	0.095877
	H47	H	0.780284	0.661422	0.894411
	H48	H	0.399693	0.119310	0.583944
	H49	H	0.596053	0.884208	0.595678
	H50	H	0.595151	0.120682	0.401752
	H51	H	0.416119	0.886051	0.404357
	H52	H	0.599080	0.405509	0.114427
	H53	H	0.589203	0.590083	0.886212
	H54	H	0.416321	0.591134	0.112780
	H55	H	0.410044	0.410115	0.884556
	H56	H	0.117748	0.591110	0.405697
	H57	H	0.887366	0.588280	0.582835
	H58	H	0.115450	0.410126	0.575205
	H59	H	0.882118	0.412382	0.402244
	H60	H	0.116228	0.423984	0.594046
	H61	H	0.883986	0.589103	0.592134
	H62	H	0.118158	0.591031	0.403685
	H63	H	0.884518	0.410377	0.411262
	H64	H	0.406494	0.598831	0.118025
	H65	H	0.588845	0.593478	0.885410
	H66	H	0.592359	0.408993	0.111859
	H67	H	0.414518	0.408683	0.884795
	H68	H	0.584774	0.116312	0.404513
	H69	H	0.587373	0.887011	0.593484
	H70	H	0.409975	0.121752	0.602868
	H71	H	0.416140	0.889276	0.414124
	H72	H	0.915936	0.617447	0.092255
	H73	H	0.090147	0.381280	0.104119
	H74	H	0.090671	0.616232	0.908139
	H75	H	0.916615	0.384338	0.898626
	H76	H	0.102357	0.912546	0.616861
	H77	H	0.084440	0.098431	0.385412
	H78	H	0.915771	0.103347	0.614808
	H79	H	0.903774	0.914692	0.383824
	H80	H	0.614492	0.083655	0.915136
	H81	H	0.387411	0.080408	0.089900
	H82	H	0.615001	0.914323	0.085930
	H83	H	0.385293	0.917953	0.910391
	H84	H	0.619870	0.912215	0.098210
	H85	H	0.379592	0.094993	0.100071
	H86	H	0.620247	0.084246	0.901150
	H87	H	0.382419	0.911570	0.905908
	H88	H	0.899749	0.098310	0.618126
	H89	H	0.100041	0.097843	0.382241
	H90	H	0.083613	0.913842	0.609690
	H91	H	0.916358	0.917459	0.388666
	H92	H	0.094865	0.619784	0.903700
	H93	H	0.080765	0.391132	0.082700
	H94	H	0.912161	0.614007	0.080499
	H95	H	0.918835	0.387950	0.909169
	H96	H	0.420840	0.112248	0.586133
	H97	H	0.594030	0.887332	0.586710
	H98	H	0.592492	0.117059	0.412281
	H99	H	0.407841	0.883651	0.409817
	H100	H	0.592693	0.400670	0.113667
	H101	H	0.591635	0.592106	0.885078
	H102	H	0.404233	0.586030	0.114927
	H103	H	0.411464	0.405878	0.882871
	H104	H	0.118810	0.592745	0.404358
	H105	H	0.882942	0.597655	0.585939
	H106	H	0.123501	0.401789	0.594255
	H107	H	0.887295	0.419412	0.407009
	H108	H	0.903574	0.619144	0.088294
	H109	H	0.105583	0.382918	0.083743
	H110	H	0.088525	0.617547	0.901922
	H111	H	0.908315	0.383923	0.905638
	H112	H	0.090688	0.896374	0.616603
	H113	H	0.091907	0.085818	0.388009
	H114	H	0.911814	0.087434	0.611825
	H115	H	0.913792	0.905272	0.383302
	H116	H	0.620962	0.096694	0.909510
	H117	H	0.384597	0.097949	0.081943
	H118	H	0.620057	0.902490	0.089419
	H119	H	0.385081	0.910076	0.913689
	C120	C	0.379880	0.010570	0.621969
	C121	C	0.622478	0.993374	0.621563
	C122	C	0.623157	0.011005	0.377526
	C123	C	0.380905	0.993440	0.378390
	C124	C	0.625395	0.375234	0.006994
	C125	C	0.622163	0.620906	0.991607
	C126	C	0.378788	0.623664	0.008713
	C127	C	0.381006	0.377873	0.990546
	C128	C	0.010478	0.624188	0.374248
	C129	C	0.992288	0.622558	0.617978
	C130	C	0.010515	0.382045	0.618818
	C131	C	0.992705	0.381981	0.376383
	C132	C	0.881059	0.509349	0.118097
	C133	C	0.122849	0.492215	0.118998
	C134	C	0.123111	0.510640	0.874906
	C135	C	0.880622	0.492233	0.874236
	C136	C	0.124157	0.878389	0.508009
	C137	C	0.122673	0.123802	0.491498
	C138	C	0.879146	0.125890	0.507966
	C139	C	0.880465	0.881143	0.491392
	C140	C	0.511227	0.121423	0.877884
	C141	C	0.492468	0.120557	0.119996
	C142	C	0.510506	0.879264	0.122526
	C143	C	0.491974	0.880744	0.879471
	C144	C	0.378536	0.889417	0.680808
	C145	C	0.624020	0.114136	0.680235
	C146	C	0.626413	0.889191	0.320589
	C147	C	0.378508	0.114864	0.319699
	C148	C	0.683260	0.376474	0.885777
	C149	C	0.680914	0.618400	0.112374
	C150	C	0.322670	0.623987	0.886934
	C151	C	0.323036	0.379318	0.111989
	C152	C	0.887588	0.682695	0.375270
	C153	C	0.115515	0.678506	0.617748
	C154	C	0.887132	0.326185	0.618808
	C155	C	0.115525	0.323395	0.376892
	C156	C	0.888057	0.380935	0.677205
	C157	C	0.114006	0.625039	0.677185
	C158	C	0.887450	0.626158	0.317073
	C159	C	0.115363	0.380181	0.318985
	C160	C	0.377683	0.683904	0.888547
	C161	C	0.624738	0.678840	0.112268
	C162	C	0.626294	0.317514	0.886455
	C163	C	0.381121	0.320811	0.112401
	C164	C	0.681416	0.888643	0.380311
	C165	C	0.677884	0.116423	0.619163
	C166	C	0.323463	0.888450	0.621978
	C167	C	0.321988	0.115428	0.378646
	C168	C	0.880556	0.388128	0.177629
	C169	C	0.124106	0.614176	0.176008
	C170	C	0.124291	0.388827	0.817840
	C171	C	0.877405	0.614353	0.817127
	C172	C	0.182356	0.881252	0.386978
	C173	C	0.178149	0.120778	0.613940
	C174	C	0.822028	0.124979	0.386577
	C175	C	0.824115	0.882241	0.613373
	C176	C	0.388045	0.179658	0.878466
	C177	C	0.616570	0.174964	0.117701
	C178	C	0.386965	0.823189	0.122708
	C179	C	0.615582	0.823023	0.880651
	C180	C	0.387895	0.879349	0.180836
	C181	C	0.615311	0.121436	0.177189
	C182	C	0.388074	0.123998	0.820692
	C183	C	0.614928	0.878992	0.821903
	C184	C	0.879871	0.183205	0.386303
	C185	C	0.122540	0.181284	0.612489
	C186	C	0.125522	0.822275	0.386992
	C187	C	0.879848	0.821596	0.611998
	C188	C	0.180611	0.387820	0.877185
	C189	C	0.178101	0.615388	0.115633
	C190	C	0.827593	0.385761	0.116553
	C191	C	0.820009	0.613318	0.874843
	C192	C	0.403330	0.095830	0.597963
	C193	C	0.599270	0.908462	0.598613
	C194	C	0.598198	0.095868	0.399720
	C195	C	0.406022	0.908353	0.402366
	C196	C	0.601537	0.398403	0.091300
	C197	C	0.597096	0.598495	0.907373
	C198	C	0.402240	0.599175	0.093192
	C199	C	0.405166	0.401377	0.906133
	C200	C	0.096064	0.598909	0.397601
	C201	C	0.906850	0.598621	0.593963
	C202	C	0.096141	0.405458	0.594788
	C203	C	0.906951	0.406775	0.400016
	C204	C	0.903893	0.594605	0.094055
	C205	C	0.099307	0.407314	0.096762
	C206	C	0.098696	0.595685	0.897847
	C207	C	0.906772	0.407410	0.897598
	C208	C	0.099378	0.900902	0.592345
	C209	C	0.099026	0.100874	0.407151
	C210	C	0.902231	0.102931	0.592717
	C211	C	0.904283	0.905476	0.407106
	C212	C	0.596435	0.095891	0.901545
	C213	C	0.406266	0.097753	0.097261
	C214	C	0.596105	0.902690	0.098378
	C215	C	0.406539	0.905670	0.903205
	Zn216	Zn	0.500790	0.001435	0.750146
	Zn217	Zn	0.501952	0.001360	0.248732
	Zn218	Zn	0.753219	0.498685	-0.002062
	Zn219	Zn	0.251560	0.501027	-0.001488
	Zn220	Zn	0.001834	0.749650	0.498354
	Zn221	Zn	0.001311	0.254638	0.498992
	Zn222	Zn	0.001587	0.502963	0.745356
	Zn223	Zn	0.001345	0.501994	0.247259
	Zn224	Zn	0.500609	0.752053	0.000972
	Zn225	Zn	0.502345	0.247082	-0.000463
	Zn226	Zn	0.750518	0.002977	0.500124
	Zn227	Zn	0.252562	0.001642	0.500806
	N228	N	0.412870	0.966584	0.680900
	N229	N	0.590155	0.036749	0.681575
	N230	N	0.591008	0.966193	0.318486
	N231	N	0.414376	0.037865	0.319566
	N232	N	0.682825	0.411764	0.961607
	N233	N	0.679720	0.583174	0.036326
	N234	N	0.323136	0.587242	0.962620
	N235	N	0.322339	0.413794	0.035018
	N236	N	0.965130	0.681706	0.410042
	N237	N	0.038841	0.677021	0.581496
	N238	N	0.964293	0.326611	0.583215
	N239	N	0.038054	0.324596	0.412004
	N240	N	0.965868	0.415252	0.677393
	N241	N	0.036271	0.590840	0.677304
	N242	N	0.965036	0.590392	0.316432
	N243	N	0.037973	0.416153	0.318729
	N244	N	0.412076	0.683636	0.965267
	N245	N	0.589093	0.680652	0.035994
	N246	N	0.591095	0.316593	0.962823
	N247	N	0.416311	0.319819	0.035945
	N248	N	0.679749	0.965381	0.414991
	N249	N	0.677031	0.040382	0.583197
	N250	N	0.324371	0.964814	0.585847
	N251	N	0.323600	0.038981	0.414753
	N252	N	0.912974	0.466166	0.178884
	N253	N	0.090254	0.536660	0.178213
	N254	N	0.089667	0.466399	0.815984
	N255	N	0.914309	0.538005	0.816849
	N256	N	0.181704	0.915411	0.463374
	N257	N	0.178641	0.085852	0.537701
	N258	N	0.821064	0.090421	0.463226
	N259	N	0.824321	0.918405	0.537390
	N260	N	0.465507	0.178283	0.913213
	N261	N	0.539126	0.174620	0.082963
	N262	N	0.464465	0.822672	0.087418
	N263	N	0.538096	0.823711	0.915671
	N264	N	0.465711	0.913410	0.180811
	N265	N	0.537125	0.088266	0.178627
	N266	N	0.465564	0.088308	0.820271
	N267	N	0.537000	0.913923	0.820851
	N268	N	0.914593	0.183891	0.462833
	N269	N	0.088774	0.183234	0.535433
	N270	N	0.090129	0.820273	0.463331
	N271	N	0.914282	0.820810	0.535054
	N272	N	0.180258	0.464635	0.911791
	N273	N	0.177777	0.538681	0.081158
	N274	N	0.827949	0.462193	0.080282
	N275	N	0.821877	0.536280	0.909624
	O276	O	0.084861	0.000484	-0.117863
	H277	H	0.096428	-0.007383	-0.119766
	H278	H	0.070457	-0.017332	-0.119362
	O279	O	0.423797	0.676545	0.354547
	H280	H	0.401246	0.679676	0.356717
	H281	H	0.406343	0.682247	0.328864
	O282	O	0.551087	-0.475904	-0.326427
	H283	H	0.555770	-0.464459	-0.321696
	H284	H	0.563245	-0.466728	-0.330789
	O285	O	0.060690	1.010812	-0.068808
	H286	H	0.063334	1.010441	-0.070056
	H287	H	0.068623	1.016206	-0.072535
	O288	O	0.420973	0.416831	0.668344
	H289	H	0.438088	0.407163	0.663548
	H290	H	0.427355	0.421863	0.671810
	O291	O	0.585028	0.553278	0.390705
	H292	H	0.586807	0.559294	0.386066
	H293	H	0.576294	0.569155	0.391699
	O294	O	1.002493	0.970094	0.931489
	H295	H	0.990503	0.972265	0.915522
	H296	H	1.004159	0.994063	0.941349
	O297	O	0.159090	0.066557	-0.034892
	H298	H	0.164599	0.068226	-0.021056
	H299	H	0.163773	0.055271	-0.022549
	O300	O	0.674673	0.517713	0.579306
	H301	H	0.653189	0.512711	0.580526
	H302	H	0.668012	0.521734	0.585964
	O303	O	-0.011761	1.062746	0.947788
	H304	H	-0.005497	1.060420	0.949279
	H305	H	-0.021624	1.062749	0.936658
	O306	O	0.432410	0.599196	0.406589
	H307	H	0.432479	0.583563	0.411749
	H308	H	0.436950	0.594730	0.403909
	O309	O	0.839395	-0.135004	0.075106
	H310	H	0.840178	-0.113807	0.083322
	H311	H	0.838694	-0.142195	0.066666
	O312	O	-0.100588	-0.064587	1.095577
	H313	H	-0.101180	-0.062879	1.090669
	H314	H	-0.111135	-0.073172	1.092198
	O315	O	0.441610	0.407535	0.432305
	H316	H	0.434999	0.389503	0.445261
	H317	H	0.448864	0.408197	0.439738
	O318	O	0.679189	0.453320	0.388946
	H319	H	0.670819	0.461560	0.395158
	H320	H	0.694009	0.437360	0.371641
	O321	O	0.595090	0.468780	0.599202
	H322	H	0.584754	0.467575	0.613356
	H323	H	0.593699	0.471069	0.605333
	O324	O	0.656584	0.682380	0.598303
	H325	H	0.667926	0.706605	0.601718
	H326	H	0.647164	0.679110	0.600784
	O327	O	-0.113468	1.058321	1.107882
	H328	H	-0.109410	1.053624	1.109030
	H329	H	-0.127528	1.069418	1.093240
	O330	O	0.412255	0.425223	0.358787
	H331	H	0.413793	0.420024	0.377766
	H332	H	0.430916	0.406760	0.354102
	O333	O	0.023651	1.032646	1.096968
	H334	H	0.004912	1.019160	1.117568
	H335	H	0.011093	1.036618	1.090119
	O336	O	0.974279	1.029028	0.959932
	H337	H	0.971261	1.044190	0.954384
	H338	H	0.971743	1.019187	0.947849
	O339	O	0.477472	0.375928	0.621913
	H340	H	0.492113	0.382171	0.612936
	H341	H	0.465918	0.374077	0.611961
	O342	O	1.087636	0.097613	0.020696
	H343	H	1.091325	0.105019	0.029355
	H344	H	1.082698	0.096063	0.030098
	O345	O	0.401545	0.337899	0.397800
	H346	H	0.411778	0.346208	0.415963
	H347	H	0.387581	0.328259	0.403003
	O348	O	0.937887	0.959888	1.095808
	H349	H	0.935013	0.944380	1.113777
	H350	H	0.934747	0.945311	1.088766
	O351	O	1.045163	0.860471	0.013720
	H352	H	1.053177	0.864786	0.024708
	H353	H	1.042501	0.858947	0.021340
	O354	O	0.398509	0.637478	0.463700
	H355	H	0.396188	0.639071	0.442581
	H356	H	0.403492	0.634727	0.452957
	O357	O	0.441470	0.547353	0.488392
	H358	H	0.426658	0.560739	0.497161
	H359	H	0.455205	0.553342	0.487773
	O360	O	0.037895	-0.015590	-0.129811
	H361	H	0.040224	-0.013829	-0.124457
	H362	H	0.052203	-0.011129	-0.128342
	O363	O	0.441238	0.355508	0.563741
	H364	H	0.455791	0.348490	0.571791
	H365	H	0.439379	0.365904	0.575235
	O366	O	0.646658	0.557939	0.686868
	H367	H	0.642304	0.572069	0.694316
	H368	H	0.639125	0.562869	0.683621
	O369	O	0.492830	0.641228	0.565028
	H370	H	0.501813	0.640104	0.565570
	H371	H	0.490875	0.651187	0.557098
	O372	O	0.524862	0.516070	0.423261
	H373	H	0.524354	0.510865	0.433660
	H374	H	0.531382	0.530344	0.422676
	O375	O	0.545861	0.377741	0.482292
	H376	H	0.562807	0.371717	0.472343
	H377	H	0.540223	0.376607	0.470084
	O378	O	0.418231	0.648062	0.398335
	H379	H	0.418022	0.632198	0.390503
	H380	H	0.401239	0.647183	0.411570
	O381	O	0.348371	0.475091	0.483292
	H382	H	0.335180	0.458505	0.501996
	H383	H	0.343610	0.457769	0.488032
	O384	O	-0.046005	1.026745	-0.045649
	H385	H	-0.040373	1.021271	-0.052952
	H386	H	-0.043728	1.024713	-0.038743
	O387	O	0.993860	-0.006115	0.968565
	H388	H	0.998895	0.001038	0.967391
	H389	H	1.003300	0.000286	0.979911
	O390	O	0.114472	1.105980	0.109610
	H391	H	0.104285	1.094935	0.116982
	H392	H	0.124021	1.106687	0.117376
	O393	O	1.023447	0.841917	0.082261
	H394	H	1.020352	0.840642	0.089017
	H395	H	1.026991	0.845017	0.082147
	O396	O	0.332572	0.407142	0.683952
	H397	H	0.331192	0.413825	0.692446
	H398	H	0.323095	0.403032	0.702429
	O399	O	0.035996	0.956813	1.053402
	H400	H	0.035366	0.953338	1.060933
	H401	H	0.037659	0.948048	1.045384
	O402	O	0.878947	0.943935	0.976411
	H403	H	0.869463	0.939850	0.974858
	H404	H	0.880826	0.946175	0.980353
	O405	O	0.632989	0.456680	0.415774
	H406	H	0.632529	0.464846	0.424939
	H407	H	0.640089	0.443659	0.417577
