data_Molecule from HDF5

_cell_length_a		16.522431
_cell_length_b		16.582060
_cell_length_c		16.482038
_cell_angle_alpha	89.993740
_cell_angle_beta	89.934001
_cell_angle_gamma	89.984907
_symmetry_space_group_name_H-M	'P 1'
_symmetry_Int_Tables_number		1

loop_
	_symmetry_equiv_pos_as_xyz
	x,y,z

loop_
	_atom_site_label
	_atom_site_type_symbol
	_atom_site_fract_x
	_atom_site_fract_y
	_atom_site_fract_z
	H0	H	0.417704	0.875236	0.723817
	H1	H	0.627175	0.188254	0.727410
	H2	H	0.625017	0.875010	0.283926
	H3	H	0.411777	0.187346	0.279446
	H4	H	0.742017	0.426533	0.846368
	H5	H	0.742698	0.636437	0.160896
	H6	H	0.299329	0.635992	0.847146
	H7	H	0.297625	0.424704	0.160925
	H8	H	0.864439	0.753560	0.398936
	H9	H	0.177979	0.752304	0.609018
	H10	H	0.864457	0.309659	0.609914
	H11	H	0.176024	0.306853	0.394423
	H12	H	0.863848	0.426183	0.725561
	H13	H	0.178733	0.634196	0.723604
	H14	H	0.862693	0.635866	0.284349
	H15	H	0.177428	0.425788	0.280754
	H16	H	0.414953	0.753035	0.847164
	H17	H	0.627102	0.753426	0.160904
	H18	H	0.628788	0.307552	0.847939
	H19	H	0.412218	0.307380	0.159699
	H20	H	0.741939	0.875368	0.399885
	H21	H	0.743357	0.188922	0.610580
	H22	H	0.299864	0.876149	0.609430
	H23	H	0.295581	0.187331	0.395369
	H24	H	0.913447	0.376099	0.228544
	H25	H	0.124595	0.688815	0.224386
	H26	H	0.129478	0.375426	0.779844
	H27	H	0.918521	0.688086	0.783643
	H28	H	0.243117	0.927698	0.346888
	H29	H	0.243115	0.138910	0.661255
	H30	H	0.799902	0.137331	0.346020
	H31	H	0.799034	0.926667	0.660551
	H32	H	0.365046	0.255973	0.896190
	H33	H	0.676795	0.255040	0.111426
	H34	H	0.363109	0.811782	0.107796
	H35	H	0.677109	0.810502	0.899829
	H36	H	0.362468	0.928099	0.224420
	H37	H	0.678357	0.136201	0.224995
	H38	H	0.364252	0.138465	0.781436
	H39	H	0.677117	0.926217	0.782091
	H40	H	0.914242	0.254908	0.347205
	H41	H	0.129674	0.257300	0.659897
	H42	H	0.126559	0.811486	0.346867
	H43	H	0.916232	0.811702	0.661675
	H44	H	0.245077	0.375762	0.897301
	H45	H	0.240959	0.688586	0.107922
	H46	H	0.795790	0.375602	0.112719
	H47	H	0.801825	0.688216	0.900965
	H48	H	0.433092	0.143314	0.589545
	H49	H	0.612091	0.920154	0.592227
	H50	H	0.612081	0.146742	0.409131
	H51	H	0.433660	0.921275	0.414870
	H52	H	0.606425	0.444551	0.114645
	H53	H	0.618629	0.615783	0.889597
	H54	H	0.434380	0.623847	0.117415
	H55	H	0.431135	0.445064	0.892275
	H56	H	0.133220	0.623385	0.416797
	H57	H	0.909557	0.621481	0.590907
	H58	H	0.134256	0.443980	0.595999
	H59	H	0.909913	0.441371	0.419578
	H60	H	0.133832	0.438883	0.588243
	H61	H	0.907796	0.619593	0.594517
	H62	H	0.132995	0.618218	0.413539
	H63	H	0.911535	0.446965	0.419843
	H64	H	0.428041	0.620530	0.118210
	H65	H	0.602859	0.618103	0.895189
	H66	H	0.608117	0.442752	0.115735
	H67	H	0.434948	0.446104	0.894042
	H68	H	0.604980	0.141892	0.416373
	H69	H	0.610452	0.920147	0.594671
	H70	H	0.428762	0.145416	0.593801
	H71	H	0.433036	0.922298	0.417476
	H72	H	0.928908	0.644444	0.093662
	H73	H	0.109506	0.419788	0.092058
	H74	H	0.118683	0.643329	0.920804
	H75	H	0.927488	0.416975	0.913581
	H76	H	0.112493	0.939145	0.619340
	H77	H	0.103365	0.126856	0.391481
	H78	H	0.928770	0.123026	0.618205
	H79	H	0.933584	0.941000	0.391599
	H80	H	0.630628	0.119994	0.921050
	H81	H	0.408821	0.120543	0.090109
	H82	H	0.633593	0.942118	0.094853
	H83	H	0.407694	0.942445	0.914537
	H84	H	0.633321	0.939923	0.092869
	H85	H	0.409941	0.118370	0.092387
	H86	H	0.630148	0.115377	0.916250
	H87	H	0.407003	0.940417	0.912654
	H88	H	0.932514	0.115959	0.614663
	H89	H	0.116067	0.118197	0.390552
	H90	H	0.112222	0.945376	0.616578
	H91	H	0.930812	0.941724	0.390089
	H92	H	0.110713	0.646442	0.904041
	H93	H	0.107768	0.420243	0.092637
	H94	H	0.933491	0.642555	0.093891
	H95	H	0.934959	0.418582	0.911951
	H96	H	0.435009	0.144832	0.595434
	H97	H	0.609120	0.921565	0.592080
	H98	H	0.615103	0.144026	0.419974
	H99	H	0.430842	0.920628	0.416213
	H100	H	0.609254	0.445377	0.115231
	H101	H	0.611552	0.630734	0.888226
	H102	H	0.433368	0.617304	0.114504
	H103	H	0.434872	0.442148	0.892284
	H104	H	0.134991	0.623435	0.411387
	H105	H	0.907155	0.623727	0.593668
	H106	H	0.129994	0.447610	0.588154
	H107	H	0.909047	0.445411	0.414671
	H108	H	0.931045	0.641365	0.090139
	H109	H	0.107749	0.420083	0.090705
	H110	H	0.100754	0.638142	0.918106
	H111	H	0.931981	0.419854	0.918919
	H112	H	0.106654	0.941270	0.616487
	H113	H	0.103767	0.112362	0.397602
	H114	H	0.936688	0.122747	0.615459
	H115	H	0.932590	0.943846	0.391673
	H116	H	0.633237	0.120896	0.914921
	H117	H	0.408412	0.120977	0.092880
	H118	H	0.632382	0.942613	0.092121
	H119	H	0.406667	0.939996	0.915727
	C120	C	0.400046	0.041009	0.625250
	C121	C	0.643101	1.023876	0.626010
	C122	C	0.642775	0.040590	0.382837
	C123	C	0.398937	1.024129	0.382717
	C124	C	0.641547	0.410661	0.012017
	C125	C	0.642802	0.653245	0.995369
	C126	C	0.399829	0.652586	0.012550
	C127	C	0.399687	0.410854	0.995931
	C128	C	0.029697	0.653831	0.382046
	C129	C	1.012265	0.653083	0.625117
	C130	C	0.029582	0.410098	0.624591
	C131	C	1.012719	0.410571	0.382821
	C132	C	0.898383	0.539610	0.125828
	C133	C	0.140996	0.523420	0.124470
	C134	C	0.142971	0.539439	0.881985
	C135	C	0.900178	0.522319	0.882944
	C136	C	0.142974	0.910501	0.512969
	C137	C	0.141666	0.153176	0.496289
	C138	C	0.899952	0.153083	0.512025
	C139	C	0.900047	0.910607	0.495240
	C140	C	0.528533	0.152406	0.883709
	C141	C	0.512271	0.153347	0.125398
	C142	C	0.528736	0.910448	0.125336
	C143	C	0.511313	0.909667	0.882341
	C144	C	0.398845	0.922574	0.684298
	C145	C	0.645773	0.141336	0.687092
	C146	C	0.643788	0.922434	0.323611
	C147	C	0.394648	0.140778	0.320512
	C148	C	0.702745	0.407398	0.893902
	C149	C	0.702750	0.655082	0.113702
	C150	C	0.339698	0.654651	0.894138
	C151	C	0.338381	0.407172	0.113874
	C152	C	0.911328	0.713676	0.380407
	C153	C	0.130902	0.712206	0.626995
	C154	C	0.911177	0.350102	0.627770
	C155	C	0.129569	0.348252	0.377687
	C156	C	0.911419	0.407684	0.685702
	C157	C	0.131059	0.653906	0.684372
	C158	C	0.910692	0.654950	0.323500
	C159	C	0.130154	0.407336	0.321026
	C160	C	0.397200	0.712711	0.894180
	C161	C	0.645179	0.713259	0.113626
	C162	C	0.645875	0.348657	0.894596
	C163	C	0.395339	0.348740	0.113277
	C164	C	0.702175	0.922465	0.381034
	C165	C	0.703492	0.141566	0.628789
	C166	C	0.340412	0.922866	0.627168
	C167	C	0.336807	0.140752	0.378503
	C168	C	0.895526	0.422521	0.187545
	C169	C	0.142836	0.641770	0.184113
	C170	C	0.146446	0.422055	0.821096
	C171	C	0.899147	0.640707	0.823475
	C172	C	0.202953	0.909175	0.394293
	C173	C	0.203079	0.157113	0.613948
	C174	C	0.839972	0.155826	0.393534
	C175	C	0.839602	0.908628	0.613598
	C176	C	0.411615	0.214641	0.879094
	C177	C	0.629937	0.214225	0.128784
	C178	C	0.410090	0.851539	0.126629
	C179	C	0.630212	0.850433	0.880943
	C180	C	0.409999	0.909292	0.184572
	C181	C	0.630572	0.155251	0.185630
	C182	C	0.411220	0.156117	0.822104
	C183	C	0.630062	0.908163	0.822711
	C184	C	0.897048	0.214119	0.393964
	C185	C	0.146232	0.215743	0.613283
	C186	C	0.145199	0.851113	0.394112
	C187	C	0.897665	0.851079	0.614087
	C188	C	0.204255	0.422214	0.879259
	C189	C	0.201040	0.641459	0.126486
	C190	C	0.837008	0.422315	0.129974
	C191	C	0.841234	0.640900	0.881672
	C192	C	0.424985	0.123028	0.600209
	C193	C	0.617847	0.941999	0.600340
	C194	C	0.617873	0.122787	0.408006
	C195	C	0.425088	0.942563	0.408736
	C196	C	0.615301	0.436806	0.093851
	C197	C	0.618135	0.628550	0.912494
	C198	C	0.424895	0.627862	0.095120
	C199	C	0.426122	0.436844	0.914081
	C200	C	0.112173	0.628898	0.406832
	C201	C	0.929772	0.628662	0.600187
	C202	C	0.111294	0.435813	0.598257
	C203	C	0.931366	0.436972	0.410144
	C204	C	0.923823	0.621435	0.099847
	C205	C	0.115697	0.441446	0.099281
	C206	C	0.117367	0.621405	0.907256
	C207	C	0.924425	0.439938	0.907743
	C208	C	0.117708	0.934823	0.595867
	C209	C	0.115184	0.126775	0.414493
	C210	C	0.925366	0.127691	0.594546
	C211	C	0.925214	0.935147	0.412603
	C212	C	0.609995	0.126190	0.910009
	C213	C	0.430309	0.127375	0.099192
	C214	C	0.611525	0.934616	0.100408
	C215	C	0.428867	0.934028	0.907180
	Zn216	Zn	0.520991	0.032073	0.754455
	Zn217	Zn	0.520364	0.031882	0.254153
	Zn218	Zn	0.770500	0.530794	0.003575
	Zn219	Zn	0.271339	0.531605	0.004123
	Zn220	Zn	0.021309	0.781928	0.504367
	Zn221	Zn	0.020732	0.281462	0.503818
	Zn222	Zn	0.021339	0.531024	0.753123
	Zn223	Zn	0.020602	0.531585	0.254197
	Zn224	Zn	0.520382	0.781203	0.004574
	Zn225	Zn	0.520434	0.282228	0.003857
	Zn226	Zn	0.771635	0.032536	0.503808
	Zn227	Zn	0.270817	0.032637	0.504592
	N228	N	0.435078	0.997023	0.683342
	N229	N	0.609115	0.067126	0.685665
	N230	N	0.607670	0.997030	0.324435
	N231	N	0.432736	0.067231	0.323141
	N232	N	0.700307	0.444965	0.967942
	N233	N	0.701380	0.618478	0.039104
	N234	N	0.341457	0.617726	0.968613
	N235	N	0.341033	0.445111	0.039893
	N236	N	0.986502	0.713388	0.415890
	N237	N	0.055809	0.712071	0.591235
	N238	N	0.985749	0.351186	0.590878
	N239	N	0.055489	0.350081	0.415405
	N240	N	0.986040	0.444281	0.683913
	N241	N	0.056322	0.617725	0.683221
	N242	N	0.985479	0.618663	0.324194
	N243	N	0.056462	0.445468	0.324297
	N244	N	0.434148	0.711233	0.968832
	N245	N	0.608582	0.712299	0.038810
	N246	N	0.608723	0.350429	0.969118
	N247	N	0.433032	0.351161	0.038996
	N248	N	0.701723	0.997155	0.416955
	N249	N	0.702003	0.067456	0.591541
	N250	N	0.340757	0.997623	0.591397
	N251	N	0.339452	0.067129	0.416446
	N252	N	0.932764	0.496475	0.185123
	N253	N	0.106541	0.567337	0.183142
	N254	N	0.108784	0.495779	0.822916
	N255	N	0.934861	0.565915	0.823987
	N256	N	0.201902	0.944986	0.469377
	N257	N	0.200307	0.118828	0.540130
	N258	N	0.841582	0.118723	0.468019
	N259	N	0.840844	0.944858	0.538747
	N260	N	0.485462	0.212362	0.916851
	N261	N	0.555157	0.213499	0.092417
	N262	N	0.485070	0.852031	0.090608
	N263	N	0.555329	0.850963	0.917156
	N264	N	0.484976	0.944939	0.184150
	N265	N	0.556141	0.118268	0.183827
	N266	N	0.484902	0.117873	0.824946
	N267	N	0.555268	0.944178	0.823493
	N268	N	0.933582	0.212560	0.468841
	N269	N	0.108794	0.213441	0.538940
	N270	N	0.108689	0.851672	0.469106
	N271	N	0.934689	0.852119	0.539505
	N272	N	0.202257	0.496353	0.916450
	N273	N	0.200114	0.566868	0.090213
	N274	N	0.838660	0.496217	0.092369
	N275	N	0.841698	0.566276	0.917802
	O276	O	1.229006	1.244902	1.027642
	H277	H	1.241622	1.249319	1.038810
	H278	H	1.239218	1.247019	1.039035
	O279	O	-0.039276	-0.127117	0.960785
	H280	H	-0.021369	-0.118516	0.969585
	H281	H	-0.029720	-0.135218	0.977384
	O282	O	0.590733	0.447515	0.500544
	H283	H	0.568402	0.439055	0.494730
	H284	H	0.594777	0.451987	0.496002
	O285	O	0.217002	-0.161459	0.906397
	H286	H	0.193715	-0.157848	0.906171
	H287	H	0.219996	-0.171707	0.902976
	O288	O	0.835065	-0.156117	0.819873
	H289	H	0.855220	-0.149073	0.845133
	H290	H	0.852462	-0.134908	0.832148
	O291	O	0.228722	0.062002	0.215416
	H292	H	0.238586	0.052129	0.218112
	H293	H	0.229238	0.059022	0.216225
	O294	O	-0.172925	0.039997	-0.210806
	H295	H	-0.169504	0.076594	-0.197718
	H296	H	-0.195706	0.046484	-0.234012
	O297	O	0.726233	-0.255817	0.292088
	H298	H	0.703425	-0.274675	0.302498
	H299	H	0.716527	-0.262582	0.279559
	O300	O	0.179060	-0.045748	-0.012847
	H301	H	0.185011	-0.048022	-0.024041
	H302	H	0.170395	-0.039639	-0.022903
	O303	O	-0.193676	-0.002261	0.219492
	H304	H	-0.196123	-0.032717	0.224052
	H305	H	-0.213838	-0.014230	0.232934
	O306	O	0.962760	-0.009902	-0.109092
	H307	H	0.966266	-0.006677	-0.104850
	H308	H	0.960475	-0.005116	-0.124766
	O309	O	0.554562	0.747360	0.716751
	H310	H	0.562729	0.761811	0.725257
	H311	H	0.550824	0.739814	0.731708
	O312	O	-0.721010	-0.748736	0.772939
	H313	H	-0.697404	-0.745615	0.766749
	H314	H	-0.715722	-0.751772	0.744784
	O315	O	0.315363	0.606721	0.547244
	H316	H	0.317856	0.624715	0.541246
	H317	H	0.306870	0.607649	0.543300
	O318	O	1.104146	1.205680	-0.050466
	H319	H	1.112016	1.212535	-0.040614
	H320	H	1.106664	1.198646	-0.054824
	O321	O	0.036139	1.176582	0.780313
	H322	H	0.034791	1.186936	0.782568
	H323	H	0.017870	1.188663	0.773865
	O324	O	0.934236	0.115512	1.210525
	H325	H	0.923385	0.103498	1.202485
	H326	H	0.921279	0.120571	1.217496
	O327	O	0.577702	0.583295	0.285154
	H328	H	0.580260	0.584617	0.288958
	H329	H	0.559120	0.569697	0.287270
	O330	O	0.486642	0.654642	0.481894
	H331	H	0.503210	0.652533	0.474203
	H332	H	0.491708	0.666878	0.503911
	O333	O	0.343899	0.705887	0.645610
	H334	H	0.352481	0.696033	0.649423
	H335	H	0.331710	0.699137	0.644849
	O336	O	0.305826	0.743450	0.405829
	H337	H	0.287548	0.770531	0.405646
	H338	H	0.330159	0.746626	0.403668
	O339	O	0.433779	0.431673	0.326707
	H340	H	0.425532	0.435866	0.338348
	H341	H	0.428724	0.418934	0.329974
	O342	O	-0.413532	0.613372	-0.448837
	H343	H	-0.414583	0.617035	-0.443974
	H344	H	-0.406996	0.606854	-0.444613
	O345	O	0.319471	0.511874	0.292306
	H346	H	0.304851	0.531925	0.285440
	H347	H	0.315033	0.536163	0.287184
	O348	O	0.558623	0.747132	0.452146
	H349	H	0.560347	0.744692	0.447587
	H350	H	0.566783	0.745557	0.446970
	O351	O	-0.586127	-0.570779	1.505162
	H352	H	-0.591010	-0.563208	1.499595
	H353	H	-0.583733	-0.556865	1.516085
	O354	O	0.805450	0.058768	1.035604
	H355	H	0.809753	0.057264	1.053859
	H356	H	0.803578	0.062865	1.037514
	O357	O	0.400050	0.497852	0.440456
	H358	H	0.383525	0.525582	0.436110
	H359	H	0.401425	0.500398	0.446209
	O360	O	0.716549	0.333460	0.389681
	H361	H	0.725614	0.343768	0.404640
	H362	H	0.692955	0.329841	0.390384
	O363	O	1.363772	0.332681	0.439062
	H364	H	1.370482	0.310661	0.432793
	H365	H	1.357151	0.356522	0.443862
	O366	O	-0.141358	-0.102551	1.202997
	H367	H	-0.142552	-0.120977	1.219769
	H368	H	-0.149229	-0.095734	1.164466
	O369	O	-0.009673	-0.187662	1.223031
	H370	H	-0.020387	-0.176069	1.231477
	H371	H	-0.022120	-0.210580	1.246861
	O372	O	-0.092185	1.246799	1.122198
	H373	H	-0.083841	1.252278	1.112722
	H374	H	-0.095050	1.252234	1.135766
	O375	O	1.131881	0.153904	-0.158405
	H376	H	1.140523	0.166123	-0.162115
	H377	H	1.149690	0.160531	-0.151432
	O378	O	0.550269	0.313908	0.286007
	H379	H	0.544990	0.309853	0.283881
	H380	H	0.536338	0.301790	0.268231
	O381	O	0.240467	1.001957	-0.214408
	H382	H	0.237470	0.996830	-0.224271
	H383	H	0.253163	0.986862	-0.236353
	O384	O	0.374375	0.397071	0.504083
	H385	H	0.368089	0.388463	0.502779
	H386	H	0.375567	0.398145	0.484548
	O387	O	0.722462	0.432413	0.303105
	H388	H	0.742547	0.428528	0.311107
	H389	H	0.691629	0.436860	0.301589
	O390	O	0.053836	0.819288	0.796892
	H391	H	0.054182	0.841431	0.802308
	H392	H	0.047412	0.795042	0.778210
	O393	O	1.046504	-0.021983	0.157345
	H394	H	1.045946	-0.003983	0.157708
	H395	H	1.034410	-0.019147	0.153015
	O396	O	0.522866	0.378935	0.710609
	H397	H	0.523322	0.378283	0.727338
	H398	H	0.535610	0.383121	0.709873
	O399	O	0.489204	0.746046	0.287116
	H400	H	0.482617	0.758567	0.272016
	H401	H	0.482699	0.745993	0.286163
	O402	O	1.057679	-0.172030	1.049226
	H403	H	1.062272	-0.161640	1.068305
	H404	H	1.060868	-0.170976	1.063419
	O405	O	1.032724	0.048555	0.029538
	H406	H	1.032864	0.034338	0.017799
	H407	H	1.012149	0.040530	0.030361
	O408	O	1.178418	1.019295	1.036205
	H409	H	1.184495	1.030675	1.012727
	H410	H	1.173155	1.025194	1.041402
	O411	O	0.735316	1.477491	0.388118
	H412	H	0.737740	1.474509	0.377517
	H413	H	0.741344	1.463904	0.366944
	O414	O	0.192240	-0.156696	0.179114
	H415	H	0.170902	-0.136916	0.175206
	H416	H	0.189954	-0.141231	0.153280
	O417	O	0.316068	0.736399	0.370558
	H418	H	0.303609	0.744598	0.382421
	H419	H	0.320557	0.750865	0.354066
	O420	O	0.738996	-0.415071	0.510971
	H421	H	0.740869	-0.414501	0.514843
	H422	H	0.739117	-0.414674	0.507509
	O423	O	1.086965	0.931407	-0.175045
	H424	H	1.100565	0.944805	-0.174039
	H425	H	1.081491	0.956073	-0.177483
	O426	O	0.631241	0.343797	0.656001
	H427	H	0.620126	0.337531	0.649089
	H428	H	0.618552	0.356870	0.650424
	O429	O	0.834896	0.213942	0.817155
	H430	H	0.836135	0.216163	0.831475
	H431	H	0.864191	0.228892	0.822768
	O432	O	1.043967	0.237582	1.213573
	H433	H	1.033147	0.224616	1.212933
	H434	H	1.044974	0.250123	1.227576
	O435	O	0.731027	0.735458	0.710578
	H436	H	0.740290	0.746503	0.704631
	H437	H	0.729009	0.755931	0.730677
	O438	O	0.805092	1.247226	-0.024361
	H439	H	0.781648	1.267591	-0.019400
	H440	H	0.817664	1.241834	-0.025611
	O441	O	0.615822	0.523322	0.650684
	H442	H	0.626838	0.528066	0.653477
	H443	H	0.614455	0.542442	0.649879
	O444	O	0.494041	0.505430	0.545672
	H445	H	0.499576	0.506413	0.541804
	H446	H	0.501558	0.502173	0.544092
	O447	O	-0.203983	1.007446	-0.054240
	H448	H	-0.211828	1.022895	-0.032989
	H449	H	-0.206599	1.022806	-0.079410
	O450	O	0.725729	-0.314740	-0.464470
	H451	H	0.736341	-0.322954	-0.472269
	H452	H	0.728394	-0.314505	-0.458341
	O453	O	0.430014	0.679864	0.667352
	H454	H	0.411118	0.669304	0.682120
	H455	H	0.446777	0.677973	0.661290
	O456	O	0.218261	1.194424	1.139722
	H457	H	0.213292	1.176364	1.124737
	H458	H	0.189603	1.191746	1.152892
	O459	O	0.327368	0.546786	0.704664
	H460	H	0.338345	0.538838	0.687233
	H461	H	0.319843	0.543055	0.721355
	O462	O	0.732272	0.548208	0.715619
	H463	H	0.736807	0.568285	0.723569
	H464	H	0.744605	0.562391	0.723801
	O465	O	0.606612	0.367342	0.500291
	H466	H	0.601819	0.368959	0.491895
	H467	H	0.614581	0.370168	0.498931
	O468	O	-0.188960	-0.170595	0.035179
	H469	H	-0.191987	-0.153498	0.021428
	H470	H	-0.185872	-0.186249	0.021974
	O471	O	0.022058	0.254195	-0.108337
	H472	H	0.019649	0.255552	-0.117509
	H473	H	0.040550	0.262391	-0.088793
	O474	O	1.044175	1.010510	0.057817
	H475	H	1.037436	1.001640	0.055565
	H476	H	1.038190	1.027514	0.040803
	O477	O	0.311755	0.315804	0.521859
	H478	H	0.307870	0.329121	0.525377
	H479	H	0.295845	0.302966	0.526220
