data_Molecule from HDF5

_cell_length_a		16.241264
_cell_length_b		16.435114
_cell_length_c		16.239181
_cell_angle_alpha	89.757797
_cell_angle_beta	89.649677
_cell_angle_gamma	89.917765
_symmetry_space_group_name_H-M	'P 1'
_symmetry_Int_Tables_number		1

loop_
	_symmetry_equiv_pos_as_xyz
	x,y,z

loop_
	_atom_site_label
	_atom_site_type_symbol
	_atom_site_fract_x
	_atom_site_fract_y
	_atom_site_fract_z
	H0	H	0.396426	0.829635	0.729425
	H1	H	0.598710	0.151292	0.723774
	H2	H	0.605144	0.829730	0.286831
	H3	H	0.394659	0.148933	0.288415
	H4	H	0.719886	0.391131	0.845823
	H5	H	0.717352	0.593904	0.169896
	H6	H	0.283575	0.593870	0.845448
	H7	H	0.280563	0.387909	0.170079
	H8	H	0.837669	0.709816	0.406699
	H9	H	0.156891	0.711837	0.617570
	H10	H	0.836172	0.270387	0.616737
	H11	H	0.160265	0.270579	0.408113
	H12	H	0.836230	0.390313	0.728059
	H13	H	0.162435	0.586515	0.721098
	H14	H	0.837167	0.593776	0.292500
	H15	H	0.160617	0.387125	0.291452
	H16	H	0.397836	0.710086	0.845784
	H17	H	0.607095	0.712404	0.166973
	H18	H	0.604660	0.274911	0.845005
	H19	H	0.393990	0.269783	0.168870
	H20	H	0.720008	0.829167	0.404682
	H21	H	0.716310	0.149695	0.609234
	H22	H	0.280487	0.828404	0.613936
	H23	H	0.279373	0.149166	0.406571
	H24	H	0.895510	0.330726	0.230149
	H25	H	0.101365	0.651497	0.227611
	H26	H	0.100511	0.328482	0.792350
	H27	H	0.899076	0.650701	0.790198
	H28	H	0.218056	0.884239	0.348092
	H29	H	0.212089	0.086328	0.672341
	H30	H	0.783470	0.091232	0.346128
	H31	H	0.779274	0.887997	0.671074
	H32	H	0.337599	0.211443	0.904493
	H33	H	0.661045	0.209086	0.109481
	H34	H	0.339089	0.770043	0.112523
	H35	H	0.661372	0.772833	0.901435
	H36	H	0.336879	0.888950	0.224500
	H37	H	0.660844	0.091992	0.224630
	H38	H	0.335082	0.090600	0.794320
	H39	H	0.662214	0.892976	0.791387
	H40	H	0.892604	0.211325	0.349473
	H41	H	0.099923	0.205630	0.671745
	H42	H	0.104000	0.768499	0.349904
	H43	H	0.891937	0.770779	0.671716
	H44	H	0.218256	0.329948	0.907312
	H45	H	0.215431	0.652751	0.108243
	H46	H	0.780147	0.330733	0.112507
	H47	H	0.783036	0.652089	0.905833
	H48	H	0.397541	0.107681	0.603679
	H49	H	0.589958	0.875664	0.595756
	H50	H	0.591588	0.106165	0.406940
	H51	H	0.421832	0.876391	0.408408
	H52	H	0.588188	0.399545	0.122966
	H53	H	0.595275	0.583529	0.890231
	H54	H	0.412502	0.585656	0.123458
	H55	H	0.413173	0.405401	0.895011
	H56	H	0.115338	0.575457	0.413192
	H57	H	0.880809	0.584675	0.600472
	H58	H	0.112784	0.396315	0.598162
	H59	H	0.883648	0.396642	0.425914
	H60	H	0.114841	0.395776	0.602853
	H61	H	0.884094	0.578888	0.595008
	H62	H	0.114935	0.588098	0.423879
	H63	H	0.885488	0.404864	0.420461
	H64	H	0.404966	0.580813	0.124413
	H65	H	0.590819	0.577220	0.893905
	H66	H	0.588333	0.399159	0.122080
	H67	H	0.412566	0.396383	0.892382
	H68	H	0.580277	0.098950	0.418398
	H69	H	0.590355	0.874137	0.602527
	H70	H	0.412156	0.104073	0.604706
	H71	H	0.409750	0.879673	0.432082
	H72	H	0.907133	0.606430	0.103555
	H73	H	0.082057	0.379101	0.101830
	H74	H	0.085985	0.599082	0.927135
	H75	H	0.909586	0.374937	0.914234
	H76	H	0.086006	0.906946	0.621818
	H77	H	0.088243	0.074842	0.395159
	H78	H	0.906003	0.076993	0.625125
	H79	H	0.906833	0.903433	0.395644
	H80	H	0.614689	0.077925	0.910928
	H81	H	0.385692	0.076099	0.098133
	H82	H	0.611362	0.907397	0.091520
	H83	H	0.382125	0.896965	0.917022
	H84	H	0.617549	0.901446	0.104542
	H85	H	0.382489	0.084794	0.099082
	H86	H	0.619095	0.090005	0.911598
	H87	H	0.384215	0.897542	0.923291
	H88	H	0.908314	0.080885	0.624148
	H89	H	0.082321	0.082257	0.395922
	H90	H	0.080903	0.893615	0.624962
	H91	H	0.916221	0.898960	0.395783
	H92	H	0.106579	0.610764	0.914343
	H93	H	0.092319	0.379805	0.092078
	H94	H	0.912771	0.604157	0.100810
	H95	H	0.914706	0.378871	0.921435
	H96	H	0.404229	0.100968	0.591377
	H97	H	0.584957	0.877033	0.599761
	H98	H	0.596646	0.102782	0.423420
	H99	H	0.395897	0.869232	0.411908
	H100	H	0.588162	0.399505	0.122663
	H101	H	0.586896	0.584819	0.893670
	H102	H	0.412427	0.577265	0.120524
	H103	H	0.404706	0.402648	0.890707
	H104	H	0.108905	0.573107	0.427978
	H105	H	0.882947	0.576654	0.603317
	H106	H	0.115354	0.391825	0.598935
	H107	H	0.881071	0.396893	0.416670
	H108	H	0.907295	0.604505	0.097102
	H109	H	0.095149	0.374219	0.104687
	H110	H	0.083690	0.606026	0.902163
	H111	H	0.905138	0.375889	0.923147
	H112	H	0.095060	0.896357	0.628382
	H113	H	0.090699	0.083353	0.392298
	H114	H	0.904465	0.081378	0.627261
	H115	H	0.908799	0.893893	0.392413
	H116	H	0.613294	0.084766	0.922597
	H117	H	0.385478	0.082193	0.091199
	H118	H	0.615766	0.892922	0.091564
	H119	H	0.384017	0.902353	0.918222
	C120	C	0.375499	-0.002137	0.631399
	C121	C	0.618596	0.981829	0.628866
	C122	C	0.621499	-0.002607	0.385143
	C123	C	0.377073	0.980804	0.386616
	C124	C	0.621190	0.369616	0.015816
	C125	C	0.622261	0.613014	0.998840
	C126	C	0.379489	0.612102	0.015979
	C127	C	0.378417	0.369809	0.999609
	C128	C	0.006981	0.610844	0.389903
	C129	C	0.989601	0.610487	0.630271
	C130	C	0.007219	0.365667	0.632142
	C131	C	0.990241	0.368156	0.389336
	C132	C	0.877627	0.499178	0.131698
	C133	C	0.120609	0.483249	0.130131
	C134	C	0.122635	0.499087	0.885003
	C135	C	0.879414	0.482470	0.888179
	C136	C	0.119693	0.867038	0.518926
	C137	C	0.117763	0.109188	0.501491
	C138	C	0.875909	0.111354	0.518197
	C139	C	0.877476	0.867824	0.500990
	C140	C	0.507985	0.113813	0.885568
	C141	C	0.490961	0.111503	0.127597
	C142	C	0.508569	0.868800	0.128100
	C143	C	0.490845	0.869857	0.887377
	C144	C	0.376532	0.877511	0.690474
	C145	C	0.618424	0.102835	0.685612
	C146	C	0.623329	0.877268	0.326500
	C147	C	0.375901	0.101068	0.328031
	C148	C	0.680793	0.370922	0.894292
	C149	C	0.679452	0.613336	0.120829
	C150	C	0.322216	0.612792	0.894142
	C151	C	0.319761	0.368891	0.121652
	C152	C	0.885870	0.670371	0.387990
	C153	C	0.109956	0.670531	0.633351
	C154	C	0.885061	0.309066	0.634719
	C155	C	0.111621	0.309819	0.388381
	C156	C	0.884703	0.368747	0.689809
	C157	C	0.112663	0.608204	0.685202
	C158	C	0.885675	0.612288	0.331373
	C159	C	0.112048	0.367806	0.330581
	C160	C	0.379450	0.670501	0.894101
	C161	C	0.624297	0.672361	0.119294
	C162	C	0.623429	0.313054	0.893822
	C163	C	0.376196	0.310175	0.120708
	C164	C	0.680430	0.877138	0.385309
	C165	C	0.676620	0.102210	0.628242
	C166	C	0.318989	0.876807	0.632588
	C167	C	0.318257	0.101030	0.386712
	C168	C	0.876681	0.378735	0.190434
	C169	C	0.120803	0.603597	0.188256
	C170	C	0.121218	0.377243	0.829934
	C171	C	0.879481	0.603171	0.829376
	C172	C	0.178976	0.865769	0.397071
	C173	C	0.174243	0.107114	0.623680
	C174	C	0.820544	0.111006	0.395635
	C175	C	0.818360	0.868466	0.622704
	C176	C	0.386028	0.171895	0.885789
	C177	C	0.612593	0.169835	0.128380
	C178	C	0.387195	0.809926	0.130661
	C179	C	0.612901	0.812397	0.884071
	C180	C	0.386099	0.868816	0.186628
	C181	C	0.612529	0.111301	0.185582
	C182	C	0.384540	0.111714	0.831045
	C183	C	0.613314	0.872106	0.829096
	C184	C	0.874884	0.171055	0.397329
	C185	C	0.118336	0.166275	0.623505
	C186	C	0.122182	0.808167	0.397876
	C187	C	0.874687	0.810096	0.623056
	C188	C	0.179737	0.378137	0.887217
	C189	C	0.177747	0.604155	0.128935
	C190	C	0.818956	0.378830	0.132221
	C191	C	0.821874	0.603650	0.887036
	C192	C	0.398234	0.082162	0.607022
	C193	C	0.595332	0.897664	0.606018
	C194	C	0.596617	0.080947	0.409185
	C195	C	0.401788	0.896871	0.410535
	C196	C	0.595480	0.392603	0.100419
	C197	C	0.598207	0.588903	0.914399
	C198	C	0.403176	0.588115	0.100886
	C199	C	0.402887	0.394473	0.914848
	C200	C	0.091202	0.586036	0.414881
	C201	C	0.904591	0.586882	0.606707
	C202	C	0.092387	0.388043	0.607314
	C203	C	0.905429	0.392449	0.414060
	C204	C	0.902040	0.583071	0.107519
	C205	C	0.096909	0.399483	0.106441
	C206	C	0.098860	0.583363	0.907583
	C207	C	0.902966	0.398369	0.912467
	C208	C	0.094678	0.891748	0.603106
	C209	C	0.093990	0.086582	0.416666
	C210	C	0.899531	0.086825	0.603371
	C211	C	0.903286	0.891622	0.416460
	C212	C	0.593533	0.090803	0.908278
	C213	C	0.406515	0.087962	0.103262
	C214	C	0.593018	0.893344	0.103130
	C215	C	0.405626	0.892272	0.912204
	Zn216	Zn	0.498174	-0.009362	0.759208
	Zn217	Zn	0.499107	-0.010806	0.256556
	Zn218	Zn	0.749318	0.492053	0.008475
	Zn219	Zn	0.250601	0.491624	0.008468
	Zn220	Zn	-0.002123	0.739386	0.510675
	Zn221	Zn	-0.003118	0.238570	0.510342
	Zn222	Zn	-0.000957	0.489510	0.757777
	Zn223	Zn	-0.000549	0.491157	0.260975
	Zn224	Zn	0.500808	0.740902	0.007004
	Zn225	Zn	0.499692	0.241225	0.006949
	Zn226	Zn	0.749350	-0.010993	0.508274
	Zn227	Zn	0.247453	-0.011695	0.509069
	N228	N	0.410772	0.953873	0.689972
	N229	N	0.582934	0.027052	0.686093
	N230	N	0.587210	0.953046	0.326233
	N231	N	0.411640	0.025177	0.327790
	N232	N	0.679749	0.405413	0.971309
	N233	N	0.678259	0.577033	0.044938
	N234	N	0.322233	0.576980	0.970784
	N235	N	0.321072	0.405347	0.045315
	N236	N	0.962322	0.669646	0.423819
	N237	N	0.032353	0.672168	0.600165
	N238	N	0.962199	0.307329	0.599525
	N239	N	0.034726	0.309933	0.423988
	N240	N	0.961630	0.403225	0.688561
	N241	N	0.036654	0.571681	0.683599
	N242	N	0.961901	0.575756	0.332587
	N243	N	0.035297	0.403326	0.330861
	N244	N	0.414558	0.670147	0.970968
	N245	N	0.589404	0.672328	0.042389
	N246	N	0.587170	0.311990	0.970487
	N247	N	0.412114	0.310799	0.043851
	N248	N	0.679522	0.952771	0.420846
	N249	N	0.677035	0.026005	0.593813
	N250	N	0.318034	0.952769	0.596594
	N251	N	0.318860	0.024983	0.422264
	N252	N	0.911964	0.454788	0.190554
	N253	N	0.086145	0.527484	0.189196
	N254	N	0.086689	0.453530	0.828093
	N255	N	0.914684	0.526994	0.829982
	N256	N	0.177831	0.901532	0.473387
	N257	N	0.174194	0.072291	0.546788
	N258	N	0.821000	0.074542	0.472011
	N259	N	0.820154	0.903957	0.545949
	N260	N	0.463811	0.173345	0.918668
	N261	N	0.535989	0.170122	0.093030
	N262	N	0.464301	0.809371	0.095411
	N263	N	0.535719	0.810634	0.919437
	N264	N	0.462658	0.904610	0.185279
	N265	N	0.535944	0.075864	0.185323
	N266	N	0.461479	0.076388	0.830615
	N267	N	0.536488	0.907279	0.831319
	N268	N	0.908392	0.171184	0.474792
	N269	N	0.083803	0.167795	0.546429
	N270	N	0.086040	0.808812	0.474594
	N271	N	0.910834	0.809694	0.546360
	N272	N	0.180929	0.454895	0.920481
	N273	N	0.177858	0.528175	0.093536
	N274	N	0.819074	0.454794	0.096604
	N275	N	0.821839	0.527692	0.923032
	O276	O	0.609383	0.608844	0.459675
	H277	H	0.617423	0.585446	0.457303
	H278	H	0.620256	0.607525	0.471848
	O279	O	0.591365	0.545067	0.501898
	H280	H	0.586398	0.557024	0.508611
	H281	H	0.578088	0.551287	0.492275
	O282	O	1.093683	0.035006	1.058161
	H283	H	1.086320	0.020111	1.056138
	H284	H	1.099337	0.031732	1.070367
	O285	O	0.505432	0.342972	0.342871
	H286	H	0.512626	0.338294	0.350877
	H287	H	0.508505	0.341260	0.340455
	O288	O	1.035477	0.993143	1.086296
	H289	H	1.019278	1.000726	1.094559
	H290	H	1.024429	0.982940	1.082749
	O291	O	0.465979	1.689927	-0.679075
	H292	H	0.482982	1.680747	-0.695687
	H293	H	0.475751	1.687851	-0.701178
	O294	O	0.530156	0.484120	0.665125
	H295	H	0.522444	0.481965	0.673156
	H296	H	0.529358	0.475210	0.674130
	O297	O	0.485923	0.515501	0.580459
	H298	H	0.483274	0.523245	0.584371
	H299	H	0.511379	0.510206	0.566516
	O300	O	0.351372	0.362006	0.607346
	H301	H	0.351264	0.343055	0.623499
	H302	H	0.349066	0.362110	0.593673
	O303	O	0.484230	0.477724	0.605334
	H304	H	0.486878	0.503545	0.609179
	H305	H	0.483780	0.486684	0.587848
	O306	O	0.481091	0.499964	0.630974
	H307	H	0.485579	0.500126	0.638395
	H308	H	0.503649	0.483113	0.615099
	O309	O	0.648191	0.365480	0.556265
	H310	H	0.662537	0.371659	0.569014
	H311	H	0.639172	0.369227	0.553688
	O312	O	0.050739	0.006719	0.186659
	H313	H	0.026467	0.011584	0.185959
	H314	H	0.052483	0.004544	0.173033
	O315	O	0.450024	0.547223	0.515259
	H316	H	0.457088	0.551001	0.514850
	H317	H	0.439838	0.558946	0.502477
	O318	O	-0.043390	1.063770	1.036586
	H319	H	-0.050510	1.062790	1.038812
	H320	H	-0.043909	1.068973	1.006119
	O321	O	0.487656	0.403478	0.389290
	H322	H	0.494834	0.404870	0.385998
	H323	H	0.475589	0.389151	0.379764
	O324	O	0.106825	1.062163	0.057021
	H325	H	0.113751	1.067787	0.065829
	H326	H	0.115039	1.059266	0.066499
	O327	O	0.440502	0.378456	0.360598
	H328	H	0.418703	0.384086	0.364823
	H329	H	0.433799	0.366765	0.356982
	O330	O	-0.073758	-0.151540	0.971381
	H331	H	-0.085454	-0.134319	0.982290
	H332	H	-0.074401	-0.145639	0.974211
	O333	O	0.113608	-0.045145	0.927421
	H334	H	0.115707	-0.029349	0.946397
	H335	H	0.111039	-0.041678	0.926746
	O336	O	0.334177	0.444343	0.390309
	H337	H	0.315109	0.462944	0.366338
	H338	H	0.339784	0.465589	0.397979
	O339	O	0.921761	0.156295	0.086748
	H340	H	0.938574	0.166452	0.085621
	H341	H	0.925184	0.158183	0.080544
	O342	O	0.187945	0.133330	0.055802
	H343	H	0.209245	0.133631	0.056505
	H344	H	0.183080	0.125377	0.051797
	O345	O	0.960719	0.097717	0.884613
	H346	H	0.971746	0.102836	0.888287
	H347	H	0.952043	0.096485	0.894233
	O348	O	0.980209	1.119856	-0.102473
	H349	H	0.980452	1.106494	-0.106585
	H350	H	0.982345	1.117753	-0.101782
	O351	O	0.679668	0.307192	0.356592
	H352	H	0.665406	0.305429	0.356697
	H353	H	0.671462	0.301538	0.379276
	O354	O	0.954375	-0.013596	0.871569
	H355	H	0.946605	-0.010913	0.877927
	H356	H	0.941516	-0.001982	0.870241
	O357	O	0.619306	0.401591	0.594346
	H358	H	0.623980	0.409618	0.589250
	H359	H	0.599338	0.404810	0.611122
	O360	O	0.385915	0.573822	0.639930
	H361	H	0.380116	0.576674	0.655243
	H362	H	0.383412	0.575040	0.625630
	O363	O	-0.072010	0.965306	1.161280
	H364	H	-0.062491	0.966574	1.155395
	H365	H	-0.082013	0.979608	1.172445
	O366	O	0.364400	0.694950	0.516168
	H367	H	0.340126	0.695355	0.517652
	H368	H	0.373293	0.692337	0.518091
	O369	O	0.059961	0.905901	-0.054923
	H370	H	0.057795	0.908967	-0.057094
	H371	H	0.061023	0.911913	-0.060016
	O372	O	0.368634	0.661236	0.462741
	H373	H	0.382227	0.654339	0.472534
	H374	H	0.365697	0.676221	0.474179
	O375	O	0.636110	0.577937	0.438446
	H376	H	0.646948	0.557685	0.425288
	H377	H	0.622543	0.554515	0.438463
	O378	O	1.100461	1.102720	0.019550
	H379	H	1.096771	1.105826	0.027251
	H380	H	1.100653	1.103252	0.018839
	O381	O	0.994425	-0.069431	0.009129
	H382	H	0.996441	-0.076574	0.002588
	H383	H	0.988898	-0.066096	0.015131
	O384	O	0.882508	0.889955	-0.045161
	H385	H	0.897270	0.887153	-0.046493
	H386	H	0.874520	0.888856	-0.041530
	O387	O	0.071008	-0.117964	-0.045511
	H388	H	0.085639	-0.132514	-0.049358
	H389	H	0.063328	-0.116103	-0.054061
	O390	O	-0.061359	0.851237	0.057936
	H391	H	-0.073510	0.851156	0.077866
	H392	H	-0.055882	0.846086	0.060534
	O393	O	0.463284	0.350089	0.643908
	H394	H	0.439195	0.348850	0.641532
	H395	H	0.450576	0.360566	0.652887
	O396	O	0.343505	0.599762	0.332402
	H397	H	0.356034	0.620748	0.342486
	H398	H	0.358128	0.610780	0.336668
	O399	O	0.097092	0.898868	1.104874
	H400	H	0.095935	0.899645	1.114261
	H401	H	0.100089	0.909195	1.117830
	O402	O	0.480531	0.344378	0.507024
	H403	H	0.481798	0.346996	0.515766
	H404	H	0.487825	0.339162	0.516092
	O405	O	0.997774	1.124225	-0.001086
	H406	H	1.008393	1.106505	-0.001740
	H407	H	0.996136	1.120027	-0.009634
	O408	O	0.867741	0.918135	-0.009582
	H409	H	0.853265	0.900078	-0.005750
	H410	H	0.870322	0.922172	-0.020194
	O411	O	0.831680	0.036731	1.086674
	H412	H	0.838009	0.045699	1.089062
	H413	H	0.830935	0.031636	1.085579
	O414	O	0.388880	0.402896	0.678961
	H415	H	0.390825	0.396063	0.692316
	H416	H	0.360295	0.397948	0.685386
	O417	O	0.658800	0.505359	0.309812
	H418	H	0.689435	0.499241	0.293378
	H419	H	0.654447	0.485026	0.326024
