data_Molecule from HDF5

_cell_length_a		16.160312
_cell_length_b		16.264151
_cell_length_c		16.151152
_cell_angle_alpha	90.558586
_cell_angle_beta	89.118106
_cell_angle_gamma	88.867228
_symmetry_space_group_name_H-M	'P 1'
_symmetry_Int_Tables_number		1

loop_
	_symmetry_equiv_pos_as_xyz
	x,y,z

loop_
	_atom_site_label
	_atom_site_type_symbol
	_atom_site_fract_x
	_atom_site_fract_y
	_atom_site_fract_z
	H0	H	0.421016	0.833372	0.715771
	H1	H	0.612356	0.161440	0.714206
	H2	H	0.625350	0.833316	0.281760
	H3	H	0.421085	0.162082	0.292414
	H4	H	0.736888	0.394263	0.836040
	H5	H	0.725606	0.595850	0.165974
	H6	H	0.306127	0.596508	0.833284
	H7	H	0.304026	0.407123	0.165830
	H8	H	0.856360	0.714724	0.403860
	H9	H	0.184913	0.706045	0.597912
	H10	H	0.852991	0.289030	0.599439
	H11	H	0.182107	0.276349	0.394151
	H12	H	0.853992	0.402148	0.715254
	H13	H	0.183141	0.591852	0.711834
	H14	H	0.853155	0.596506	0.291787
	H15	H	0.181747	0.391593	0.278839
	H16	H	0.418102	0.713863	0.834995
	H17	H	0.610889	0.713114	0.163652
	H18	H	0.624487	0.277852	0.836459
	H19	H	0.417314	0.288973	0.166379
	H20	H	0.741322	0.834449	0.396067
	H21	H	0.727923	0.162214	0.597946
	H22	H	0.307486	0.831569	0.600088
	H23	H	0.302043	0.159746	0.405012
	H24	H	0.918509	0.332905	0.214140
	H25	H	0.109873	0.660567	0.214005
	H26	H	0.122299	0.332980	0.781991
	H27	H	0.918362	0.661282	0.789711
	H28	H	0.238305	0.894409	0.336041
	H29	H	0.225666	0.092971	0.667082
	H30	H	0.806780	0.097269	0.334594
	H31	H	0.805420	0.903553	0.664465
	H32	H	0.353849	0.214816	0.906335
	H33	H	0.684067	0.210242	0.098355
	H34	H	0.351490	0.791970	0.100332
	H35	H	0.681298	0.776270	0.894666
	H36	H	0.354751	0.905048	0.217362
	H37	H	0.685768	0.093559	0.210857
	H38	H	0.352986	0.097576	0.792008
	H39	H	0.683328	0.894961	0.783165
	H40	H	0.919789	0.211832	0.335360
	H41	H	0.113703	0.212957	0.664165
	H42	H	0.126785	0.776879	0.336053
	H43	H	0.920290	0.786119	0.665530
	H44	H	0.241047	0.335295	0.895103
	H45	H	0.223900	0.663250	0.097435
	H46	H	0.805516	0.332311	0.097953
	H47	H	0.800183	0.660075	0.902555
	H48	H	0.425509	0.111987	0.593423
	H49	H	0.617315	0.878467	0.593212
	H50	H	0.606283	0.114319	0.401150
	H51	H	0.441762	0.879680	0.398629
	H52	H	0.617796	0.407560	0.119938
	H53	H	0.607214	0.598206	0.879113
	H54	H	0.429266	0.583728	0.111739
	H55	H	0.431818	0.401150	0.881868
	H56	H	0.139586	0.594048	0.409036
	H57	H	0.896643	0.597286	0.603124
	H58	H	0.137527	0.398032	0.587497
	H59	H	0.895964	0.396321	0.402730
	H60	H	0.134917	0.403906	0.585111
	H61	H	0.901414	0.601109	0.587220
	H62	H	0.133424	0.576350	0.409263
	H63	H	0.902775	0.403674	0.416757
	H64	H	0.425621	0.612483	0.121141
	H65	H	0.621971	0.582697	0.879815
	H66	H	0.603153	0.407361	0.115895
	H67	H	0.427229	0.406172	0.881708
	H68	H	0.612342	0.112083	0.413573
	H69	H	0.611240	0.881501	0.590026
	H70	H	0.417185	0.113314	0.594562
	H71	H	0.431856	0.883484	0.418464
	H72	H	0.919144	0.614468	0.099447
	H73	H	0.121528	0.376950	0.091605
	H74	H	0.107209	0.614815	0.901596
	H75	H	0.930297	0.376618	0.897080
	H76	H	0.121412	0.888677	0.625342
	H77	H	0.114961	0.095243	0.378346
	H78	H	0.926041	0.104722	0.619567
	H79	H	0.933924	0.911616	0.384667
	H80	H	0.633761	0.078136	0.906559
	H81	H	0.400281	0.090360	0.108376
	H82	H	0.639011	0.897478	0.090048
	H83	H	0.404383	0.924696	0.904089
	H84	H	0.634393	0.902034	0.083067
	H85	H	0.397560	0.107071	0.097063
	H86	H	0.640247	0.090785	0.897176
	H87	H	0.392009	0.895666	0.895455
	H88	H	0.912408	0.090267	0.621181
	H89	H	0.120244	0.078313	0.382735
	H90	H	0.118415	0.913307	0.617403
	H91	H	0.939704	0.897101	0.381964
	H92	H	0.109125	0.613864	0.908232
	H93	H	0.104742	0.380181	0.092873
	H94	H	0.923385	0.613269	0.094944
	H95	H	0.936410	0.382438	0.910869
	H96	H	0.422074	0.115061	0.600465
	H97	H	0.616667	0.880418	0.587079
	H98	H	0.618701	0.117204	0.403148
	H99	H	0.420155	0.874691	0.401706
	H100	H	0.610011	0.394997	0.121093
	H101	H	0.602541	0.578707	0.886909
	H102	H	0.402116	0.593832	0.121872
	H103	H	0.432964	0.407416	0.884725
	H104	H	0.140110	0.582779	0.393986
	H105	H	0.903554	0.583783	0.593241
	H106	H	0.136901	0.403768	0.591183
	H107	H	0.900790	0.412934	0.402619
	H108	H	0.916977	0.614753	0.093801
	H109	H	0.112655	0.383764	0.078341
	H110	H	0.113707	0.616244	0.903663
	H111	H	0.920634	0.378863	0.911157
	H112	H	0.098912	0.897413	0.615818
	H113	H	0.103270	0.083837	0.386164
	H114	H	0.930095	0.086524	0.613801
	H115	H	0.924777	0.900722	0.378990
	H116	H	0.636338	0.093451	0.913896
	H117	H	0.405040	0.089252	0.088866
	H118	H	0.636077	0.905982	0.091595
	H119	H	0.403250	0.901139	0.925818
	C120	C	0.395551	0.004917	0.623701
	C121	C	0.640381	0.988522	0.619912
	C122	C	0.643809	0.006326	0.375841
	C123	C	0.400133	0.988045	0.379978
	C124	C	0.641333	0.373569	0.009619
	C125	C	0.636872	0.616420	0.991188
	C126	C	0.393058	0.623179	0.008374
	C127	C	0.399490	0.378689	0.992013
	C128	C	0.028427	0.616013	0.378519
	C129	C	1.009915	0.619089	0.621572
	C130	C	0.027234	0.376120	0.618661
	C131	C	1.008807	0.373264	0.376004
	C132	C	0.893803	0.505492	0.123012
	C133	C	0.138259	0.488797	0.118262
	C134	C	0.142028	0.506401	0.874846
	C135	C	0.898037	0.487997	0.879116
	C136	C	0.143592	0.871047	0.509830
	C137	C	0.138957	0.115875	0.491874
	C138	C	0.896104	0.120900	0.508852
	C139	C	0.901552	0.876462	0.491045
	C140	C	0.527471	0.118098	0.879817
	C141	C	0.510622	0.121015	0.123994
	C142	C	0.527201	0.877172	0.119538
	C143	C	0.508946	0.875428	0.877397
	C144	C	0.400472	0.881827	0.677957
	C145	C	0.634204	0.112389	0.676114
	C146	C	0.644467	0.882705	0.319614
	C147	C	0.400856	0.112336	0.328344
	C148	C	0.698773	0.374533	0.885533
	C149	C	0.688753	0.615175	0.116342
	C150	C	0.341448	0.618487	0.883403
	C151	C	0.341863	0.384574	0.116254
	C152	C	0.904991	0.675274	0.383227
	C153	C	0.134947	0.670102	0.618181
	C154	C	0.902677	0.324493	0.619032
	C155	C	0.132817	0.315029	0.374916
	C156	C	0.903134	0.380849	0.676739
	C157	C	0.134242	0.613268	0.674769
	C158	C	0.903368	0.616483	0.327376
	C159	C	0.132860	0.372721	0.317838
	C160	C	0.397545	0.676400	0.884121
	C161	C	0.632191	0.673718	0.115206
	C162	C	0.642641	0.316529	0.885736
	C163	C	0.398777	0.326126	0.116720
	C164	C	0.702646	0.883321	0.376219
	C165	C	0.691618	0.112888	0.618280
	C166	C	0.343537	0.881206	0.620702
	C167	C	0.341721	0.110958	0.384668
	C168	C	0.898154	0.381792	0.176696
	C169	C	0.131560	0.612068	0.175321
	C170	C	0.142280	0.382637	0.819339
	C171	C	0.898359	0.611849	0.826166
	C172	C	0.200778	0.873542	0.385478
	C173	C	0.190106	0.113747	0.616968
	C174	C	0.843674	0.117053	0.384081
	C175	C	0.844040	0.881653	0.615359
	C176	C	0.403219	0.176165	0.884703
	C177	C	0.635090	0.172998	0.118886
	C178	C	0.401890	0.826993	0.119964
	C179	C	0.632460	0.816060	0.876043
	C180	C	0.403362	0.883419	0.178083
	C181	C	0.635825	0.115009	0.175131
	C182	C	0.402595	0.117626	0.828195
	C183	C	0.633476	0.875135	0.820672
	C184	C	0.899452	0.174826	0.384741
	C185	C	0.134532	0.173390	0.615525
	C186	C	0.145068	0.815068	0.385637
	C187	C	0.901278	0.823309	0.615690
	C188	C	0.201204	0.383783	0.875743
	C189	C	0.188225	0.613449	0.117403
	C190	C	0.841480	0.381624	0.119294
	C191	C	0.839626	0.611207	0.882564
	C192	C	0.415624	0.091353	0.602471
	C193	C	0.620922	0.902426	0.596977
	C194	C	0.619620	0.092382	0.399189
	C195	C	0.424199	0.901478	0.400191
	C196	C	0.617276	0.396422	0.096349
	C197	C	0.616668	0.593340	0.904515
	C198	C	0.413099	0.602914	0.095616
	C199	C	0.423667	0.399013	0.905067
	C200	C	0.115230	0.591549	0.398200
	C201	C	0.923078	0.599719	0.600828
	C202	C	0.114065	0.396022	0.594900
	C203	C	0.922330	0.397307	0.400260
	C204	C	0.913763	0.591823	0.102379
	C205	C	0.118948	0.402557	0.094523
	C206	C	0.117349	0.592694	0.897547
	C207	C	0.922042	0.401628	0.900286
	C208	C	0.119829	0.893166	0.597031
	C209	C	0.118669	0.092737	0.404933
	C210	C	0.916726	0.100048	0.595674
	C211	C	0.925643	0.897198	0.404367
	C212	C	0.614464	0.094389	0.899966
	C213	C	0.423436	0.101447	0.104206
	C214	C	0.613979	0.896082	0.095211
	C215	C	0.422395	0.899897	0.901489
	Zn216	Zn	0.518287	-0.003194	0.750084
	Zn217	Zn	0.521070	-0.002259	0.249496
	Zn218	Zn	0.767611	0.496214	0.000740
	Zn219	Zn	0.268734	0.499487	-0.001386
	Zn220	Zn	0.021379	0.745219	0.500060
	Zn221	Zn	0.018079	0.246940	0.499383
	Zn222	Zn	0.018521	0.497029	0.747919
	Zn223	Zn	0.017350	0.495385	0.248697
	Zn224	Zn	0.516510	0.748174	-0.001151
	Zn225	Zn	0.519346	0.247511	0.001637
	Zn226	Zn	0.770572	-0.001698	0.498795
	Zn227	Zn	0.268634	-0.005293	0.501474
	N228	N	0.432041	0.959768	0.680169
	N229	N	0.603068	0.034207	0.677383
	N230	N	0.608853	0.960238	0.318990
	N231	N	0.436655	0.034777	0.325355
	N232	N	0.698075	0.409470	0.963545
	N233	N	0.691890	0.580375	0.038147
	N234	N	0.338581	0.586031	0.961740
	N235	N	0.342330	0.416696	0.037678
	N236	N	0.983898	0.675203	0.414110
	N237	N	0.056728	0.673876	0.585915
	N238	N	0.980871	0.321381	0.583708
	N239	N	0.054780	0.315361	0.410368
	N240	N	0.981493	0.412346	0.676633
	N241	N	0.055504	0.582573	0.677644
	N242	N	0.981118	0.580041	0.324357
	N243	N	0.054687	0.408115	0.318139
	N244	N	0.428592	0.679761	0.962969
	N245	N	0.600399	0.674482	0.036699
	N246	N	0.607503	0.315906	0.963980
	N247	N	0.433709	0.322276	0.038307
	N248	N	0.702142	0.961104	0.410656
	N249	N	0.695636	0.035140	0.583866
	N250	N	0.340170	0.958927	0.587802
	N251	N	0.341247	0.032611	0.416020
	N252	N	0.929883	0.459729	0.179472
	N253	N	0.101246	0.533506	0.176173
	N254	N	0.106209	0.459995	0.818643
	N255	N	0.934246	0.534140	0.823987
	N256	N	0.200283	0.907572	0.463914
	N257	N	0.193144	0.078704	0.538850
	N258	N	0.841294	0.084249	0.462270
	N259	N	0.843862	0.914038	0.536821
	N260	N	0.482072	0.176624	0.915961
	N261	N	0.556299	0.177129	0.088095
	N262	N	0.479931	0.822815	0.084326
	N263	N	0.554007	0.816140	0.910577
	N264	N	0.482262	0.913886	0.177891
	N265	N	0.557311	0.083415	0.178462
	N266	N	0.480738	0.082333	0.824846
	N267	N	0.555700	0.911447	0.821537
	N268	N	0.931280	0.177403	0.463323
	N269	N	0.103572	0.174889	0.536671
	N270	N	0.110467	0.813356	0.464034
	N271	N	0.936324	0.819994	0.537355
	N272	N	0.201012	0.461776	0.909651
	N273	N	0.192328	0.535806	0.082403
	N274	N	0.838678	0.459477	0.086578
	N275	N	0.839591	0.533274	0.914943
	O276	O	-0.409026	0.443047	-0.518106
	H277	H	-0.408769	0.451228	-0.514307
	H278	H	-0.415448	0.455002	-0.509954
	O279	O	0.052686	0.906170	0.932789
	H280	H	0.036371	0.899667	0.934613
	H281	H	0.058032	0.905552	0.933562
	O282	O	0.490151	0.486621	0.519367
	H283	H	0.487789	0.482672	0.518744
	H284	H	0.486827	0.475378	0.521061
	O285	O	0.431792	-0.577832	1.559452
	H286	H	0.415759	-0.580227	1.571705
	H287	H	0.442655	-0.587842	1.551444
	O288	O	1.077644	-0.101197	0.093268
	H289	H	1.091550	-0.090486	0.095525
	H290	H	1.079775	-0.094366	0.084170
	O291	O	0.597159	0.485995	0.512349
	H292	H	0.604989	0.487587	0.514192
	H293	H	0.603188	0.486299	0.511291
	O294	O	0.986636	-0.032648	1.058115
	H295	H	0.983461	-0.042567	1.058224
	H296	H	0.980835	-0.035901	1.063276
	O297	O	0.070306	0.064754	0.018787
	H298	H	0.070004	0.065751	0.016702
	H299	H	0.070278	0.060200	0.012961
	O300	O	0.508090	0.454557	0.454989
	H301	H	0.514586	0.458208	0.467586
	H302	H	0.514084	0.457501	0.456592
	O303	O	0.508076	0.483240	0.475659
	H304	H	0.517884	0.474051	0.474642
	H305	H	0.513733	0.476416	0.480393
	O306	O	1.090124	0.072213	0.024797
	H307	H	1.090623	0.070069	0.021581
	H308	H	1.092382	0.066793	0.013074
	O309	O	0.027947	-0.006921	1.076710
	H310	H	0.036812	-0.009400	1.072606
	H311	H	0.016322	-0.002273	1.085383
	O312	O	1.011699	1.028562	0.985199
	H313	H	1.008694	1.030570	0.992480
	H314	H	1.011857	1.027392	0.984148
	O315	O	0.479022	0.568822	0.431389
	H316	H	0.478212	0.560928	0.418962
	H317	H	0.494128	0.558620	0.429518
	O318	O	0.091968	0.986016	-0.016077
	H319	H	0.092157	0.988493	-0.025256
	H320	H	0.095034	0.989604	-0.023055
	O321	O	-0.014598	1.005469	0.899858
	H322	H	-0.007651	1.004439	0.904053
	H323	H	-0.010843	1.001747	0.896806
	O324	O	0.435623	0.567218	0.484049
	H325	H	0.435742	0.556511	0.476191
	H326	H	0.419918	0.574862	0.479037
	O327	O	0.016541	0.917912	-0.035224
	H328	H	0.019752	0.917487	-0.033457
	H329	H	0.025164	0.916224	-0.027060
	O330	O	0.558089	0.454571	0.462500
	H331	H	0.560416	0.457749	0.455624
	H332	H	0.550608	0.455638	0.458570
	O333	O	0.542493	0.514833	0.545142
	H334	H	0.541678	0.525133	0.546659
	H335	H	0.527611	0.514550	0.539015
	O336	O	0.551877	0.502237	0.525307
	H337	H	0.545375	0.507483	0.528271
	H338	H	0.549730	0.502707	0.529237
	O339	O	1.042345	1.025796	0.061672
	H340	H	1.040670	1.030529	0.072153
	H341	H	1.049962	1.020467	0.050930
	O342	O	0.519153	0.543457	0.530412
	H343	H	0.521462	0.548464	0.535706
	H344	H	0.503958	0.550535	0.521767
	O345	O	0.450067	0.433524	0.456910
	H346	H	0.450782	0.422212	0.461473
	H347	H	0.445666	0.437988	0.466834
	O348	O	-0.079496	0.005901	-0.057854
	H349	H	-0.074956	0.012860	-0.063949
	H350	H	-0.081338	-0.001540	-0.050590
	O351	O	0.027123	1.089867	0.951977
	H352	H	0.021799	1.095129	0.953842
	H353	H	0.024171	1.086886	0.942023
	O354	O	0.461595	0.463831	0.507248
	H355	H	0.467156	0.470741	0.499596
	H356	H	0.465086	0.457334	0.511938
	O357	O	-0.018444	0.979191	1.050797
	H358	H	-0.016195	0.979165	1.054229
	H359	H	-0.029065	0.987368	1.054313
