data_Molecule from HDF5

_cell_length_a		16.586887
_cell_length_b		16.606207
_cell_length_c		16.550084
_cell_angle_alpha	90.121008
_cell_angle_beta	90.005467
_cell_angle_gamma	89.995792
_symmetry_space_group_name_H-M	'P 1'
_symmetry_Int_Tables_number		1

loop_
	_symmetry_equiv_pos_as_xyz
	x,y,z

loop_
	_atom_site_label
	_atom_site_type_symbol
	_atom_site_fract_x
	_atom_site_fract_y
	_atom_site_fract_z
	H0	H	0.392503	0.854774	0.728240
	H1	H	0.603556	0.166107	0.726691
	H2	H	0.602575	0.853083	0.285690
	H3	H	0.396159	0.166341	0.285996
	H4	H	0.719856	0.405392	0.848395
	H5	H	0.718255	0.614267	0.161015
	H6	H	0.279358	0.614295	0.846663
	H7	H	0.280745	0.410484	0.162321
	H8	H	0.843135	0.731866	0.400014
	H9	H	0.154424	0.734863	0.613255
	H10	H	0.842201	0.291270	0.607972
	H11	H	0.157230	0.292593	0.403107
	H12	H	0.842170	0.407201	0.724947
	H13	H	0.155326	0.617099	0.726939
	H14	H	0.842341	0.614797	0.284652
	H15	H	0.157446	0.409885	0.286347
	H16	H	0.394422	0.730918	0.846526
	H17	H	0.603337	0.732282	0.159667
	H18	H	0.602206	0.289787	0.848325
	H19	H	0.396612	0.292933	0.162723
	H20	H	0.720018	0.853300	0.401370
	H21	H	0.721937	0.165948	0.611746
	H22	H	0.273974	0.856182	0.613815
	H23	H	0.277335	0.165020	0.400114
	H24	H	0.897433	0.352613	0.222874
	H25	H	0.103990	0.667458	0.225685
	H26	H	0.102245	0.353908	0.784575
	H27	H	0.892735	0.667000	0.782259
	H28	H	0.221761	0.902954	0.349466
	H29	H	0.220274	0.115592	0.661181
	H30	H	0.779445	0.113453	0.347561
	H31	H	0.779065	0.906615	0.662234
	H32	H	0.343201	0.231225	0.901293
	H33	H	0.655749	0.231013	0.110181
	H34	H	0.342174	0.789708	0.109106
	H35	H	0.656004	0.791978	0.901677
	H36	H	0.342613	0.905583	0.226419
	H37	H	0.655896	0.113633	0.225618
	H38	H	0.344382	0.116231	0.781832
	H39	H	0.656222	0.907859	0.785189
	H40	H	0.896328	0.229072	0.346211
	H41	H	0.105520	0.233928	0.660424
	H42	H	0.106391	0.786499	0.350214
	H43	H	0.893438	0.788596	0.661199
	H44	H	0.219735	0.354798	0.899735
	H45	H	0.218717	0.668692	0.107603
	H46	H	0.778229	0.354413	0.109120
	H47	H	0.776777	0.666969	0.898257
	H48	H	0.412038	0.120476	0.593332
	H49	H	0.588962	0.899839	0.590585
	H50	H	0.587975	0.122854	0.409508
	H51	H	0.412447	0.898856	0.419698
	H52	H	0.585197	0.425772	0.114244
	H53	H	0.592587	0.597560	0.891238
	H54	H	0.411134	0.605327	0.116416
	H55	H	0.407583	0.422038	0.892331
	H56	H	0.109275	0.595199	0.416241
	H57	H	0.890558	0.598592	0.588901
	H58	H	0.113115	0.418508	0.595588
	H59	H	0.885723	0.421157	0.408770
	H60	H	0.110061	0.421108	0.589690
	H61	H	0.888656	0.595616	0.593187
	H62	H	0.112480	0.600846	0.413097
	H63	H	0.884438	0.414025	0.412320
	H64	H	0.406276	0.598921	0.116614
	H65	H	0.585019	0.597197	0.893827
	H66	H	0.586427	0.415133	0.118707
	H67	H	0.412605	0.420098	0.893033
	H68	H	0.586664	0.120109	0.419910
	H69	H	0.592522	0.897537	0.595131
	H70	H	0.411777	0.120297	0.591060
	H71	H	0.406940	0.896976	0.417291
	H72	H	0.908719	0.623082	0.096433
	H73	H	0.088859	0.399624	0.092882
	H74	H	0.089264	0.623048	0.914660
	H75	H	0.909045	0.400617	0.916667
	H76	H	0.088694	0.916877	0.619035
	H77	H	0.083757	0.102023	0.393829
	H78	H	0.918104	0.106299	0.615812
	H79	H	0.913411	0.917440	0.392480
	H80	H	0.614291	0.102837	0.912014
	H81	H	0.386148	0.099002	0.100079
	H82	H	0.610863	0.920822	0.096629
	H83	H	0.385646	0.918954	0.914637
	H84	H	0.611229	0.918951	0.094072
	H85	H	0.386337	0.104730	0.094415
	H86	H	0.608400	0.101200	0.924329
	H87	H	0.387448	0.921499	0.917527
	H88	H	0.903386	0.105292	0.621388
	H89	H	0.091664	0.102958	0.390549
	H90	H	0.090220	0.930228	0.615492
	H91	H	0.906419	0.920048	0.391634
	H92	H	0.086560	0.622345	0.915364
	H93	H	0.091790	0.398379	0.094082
	H94	H	0.910631	0.622402	0.095069
	H95	H	0.909800	0.399615	0.913597
	H96	H	0.410125	0.120609	0.592320
	H97	H	0.586269	0.898979	0.596056
	H98	H	0.596610	0.124306	0.416790
	H99	H	0.411874	0.897487	0.413594
	H100	H	0.595265	0.422456	0.119598
	H101	H	0.588137	0.604264	0.890305
	H102	H	0.413861	0.598369	0.113378
	H103	H	0.408922	0.416709	0.890861
	H104	H	0.110739	0.601916	0.420131
	H105	H	0.887093	0.601218	0.593263
	H106	H	0.110489	0.424941	0.595659
	H107	H	0.888119	0.419456	0.416510
	H108	H	0.908388	0.622503	0.093607
	H109	H	0.089365	0.398972	0.096004
	H110	H	0.088587	0.622507	0.917166
	H111	H	0.911824	0.400267	0.915931
	H112	H	0.078021	0.923709	0.613106
	H113	H	0.089025	0.095270	0.394236
	H114	H	0.909982	0.092927	0.614602
	H115	H	0.911697	0.924660	0.394949
	H116	H	0.608390	0.091210	0.915369
	H117	H	0.388673	0.097479	0.093083
	H118	H	0.609535	0.921579	0.093634
	H119	H	0.387070	0.922827	0.913689
	C120	C	0.377882	0.018408	0.626365
	C121	C	0.620680	1.002203	0.626034
	C122	C	0.621514	0.018633	0.383888
	C123	C	0.378246	1.001075	0.384450
	C124	C	0.620797	0.388810	0.013900
	C125	C	0.619955	0.631455	0.995640
	C126	C	0.378415	0.632401	0.011921
	C127	C	0.378056	0.389369	0.996465
	C128	C	0.007471	0.631413	0.384110
	C129	C	0.991151	0.632024	0.626010
	C130	C	0.007332	0.390106	0.625028
	C131	C	0.990907	0.388716	0.382524
	C132	C	0.878106	0.518785	0.126260
	C133	C	0.121169	0.502803	0.125711
	C134	C	0.120349	0.519306	0.883269
	C135	C	0.877714	0.503148	0.883213
	C136	C	0.119817	0.889645	0.513567
	C137	C	0.120771	0.132610	0.496160
	C138	C	0.878491	0.132120	0.513031
	C139	C	0.878499	0.889171	0.496855
	C140	C	0.507573	0.131424	0.884243
	C141	C	0.490809	0.131714	0.127336
	C142	C	0.507001	0.888906	0.126092
	C143	C	0.490510	0.889711	0.883539
	C144	C	0.374376	0.901762	0.687963
	C145	C	0.622502	0.119580	0.686336
	C146	C	0.621559	0.900135	0.325537
	C147	C	0.376782	0.118947	0.325243
	C148	C	0.679450	0.387219	0.895224
	C149	C	0.678876	0.633086	0.113768
	C150	C	0.319116	0.633152	0.893713
	C151	C	0.319677	0.390201	0.114996
	C152	C	0.889969	0.691614	0.381728
	C153	C	0.107995	0.693687	0.630209
	C154	C	0.889245	0.330858	0.626636
	C155	C	0.110095	0.331715	0.383125
	C156	C	0.889223	0.388777	0.684603
	C157	C	0.108466	0.635154	0.686975
	C158	C	0.889689	0.633245	0.324344
	C159	C	0.110251	0.389849	0.325464
	C160	C	0.376470	0.691144	0.893669
	C161	C	0.621682	0.691551	0.113243
	C162	C	0.621341	0.329519	0.895349
	C163	C	0.377520	0.332176	0.115373
	C164	C	0.680114	0.900272	0.382802
	C165	C	0.681176	0.119379	0.629385
	C166	C	0.315690	0.902132	0.630819
	C167	C	0.317863	0.118342	0.381935
	C168	C	0.877658	0.400216	0.184177
	C169	C	0.122423	0.620784	0.185306
	C170	C	0.121461	0.401265	0.824089
	C171	C	0.875025	0.620299	0.822882
	C172	C	0.181106	0.885581	0.396420
	C173	C	0.180329	0.134462	0.614261
	C174	C	0.819289	0.132560	0.394485
	C175	C	0.818560	0.887621	0.614814
	C176	C	0.390148	0.191394	0.882223
	C177	C	0.608839	0.190978	0.129083
	C178	C	0.389300	0.829352	0.127934
	C179	C	0.608687	0.830958	0.882190
	C180	C	0.389499	0.886739	0.186326
	C181	C	0.608955	0.132554	0.186190
	C182	C	0.390617	0.134327	0.823246
	C183	C	0.608903	0.888580	0.824436
	C184	C	0.877162	0.190216	0.394076
	C185	C	0.123343	0.193290	0.613697
	C186	C	0.123957	0.827415	0.396774
	C187	C	0.875505	0.829068	0.614490
	C188	C	0.179965	0.401708	0.881264
	C189	C	0.179432	0.621300	0.126654
	C190	C	0.818781	0.400925	0.127145
	C191	C	0.817112	0.620198	0.880512
	C192	C	0.403740	0.099501	0.599753
	C193	C	0.596264	0.920117	0.601111
	C194	C	0.597453	0.101041	0.408449
	C195	C	0.403337	0.918930	0.409753
	C196	C	0.596161	0.413894	0.096121
	C197	C	0.595598	0.606706	0.913220
	C198	C	0.403301	0.607914	0.094159
	C199	C	0.402682	0.412814	0.913640
	C200	C	0.089435	0.606593	0.409243
	C201	C	0.909881	0.605866	0.599507
	C202	C	0.089609	0.414535	0.600694
	C203	C	0.907799	0.411695	0.405724
	C204	C	0.902382	0.601120	0.101948
	C205	C	0.097068	0.420531	0.101357
	C206	C	0.095367	0.601331	0.908497
	C207	C	0.902959	0.421589	0.908257
	C208	C	0.093248	0.916261	0.594667
	C209	C	0.095416	0.107160	0.414160
	C210	C	0.903245	0.108326	0.595501
	C211	C	0.903579	0.913765	0.414476
	C212	C	0.589259	0.105787	0.910079
	C213	C	0.408502	0.107381	0.102727
	C214	C	0.589192	0.913544	0.101638
	C215	C	0.408117	0.914159	0.908122
	Zn216	Zn	0.499329	0.010255	0.754840
	Zn217	Zn	0.499593	0.009754	0.255612
	Zn218	Zn	0.749105	0.510935	0.004626
	Zn219	Zn	0.249650	0.511684	0.004012
	Zn220	Zn	-0.000326	0.760598	0.505433
	Zn221	Zn	-0.000503	0.260983	0.504258
	Zn222	Zn	-0.000555	0.511648	0.754482
	Zn223	Zn	-0.000252	0.510866	0.254632
	Zn224	Zn	0.498705	0.760619	0.003766
	Zn225	Zn	0.499282	0.260261	0.005625
	Zn226	Zn	0.750150	0.010785	0.505540
	Zn227	Zn	0.248980	0.010175	0.505274
	N228	N	0.412398	0.975101	0.685212
	N229	N	0.585694	0.045665	0.684437
	N230	N	0.586010	0.974756	0.326035
	N231	N	0.413475	0.044849	0.326606
	N232	N	0.679595	0.423177	0.970026
	N233	N	0.677917	0.596450	0.039622
	N234	N	0.320234	0.597182	0.968295
	N235	N	0.319766	0.424918	0.039940
	N236	N	0.964269	0.690772	0.418153
	N237	N	0.033902	0.691988	0.593177
	N238	N	0.963717	0.331477	0.590546
	N239	N	0.034678	0.330542	0.417326
	N240	N	0.963810	0.424765	0.684020
	N241	N	0.034720	0.597583	0.684522
	N242	N	0.963815	0.596399	0.325732
	N243	N	0.034930	0.424107	0.324482
	N244	N	0.412567	0.690804	0.968175
	N245	N	0.585837	0.690801	0.038729
	N246	N	0.585790	0.330256	0.970136
	N247	N	0.413228	0.331593	0.040521
	N248	N	0.680352	0.975072	0.418433
	N249	N	0.680214	0.045356	0.592481
	N250	N	0.317816	0.975645	0.593110
	N251	N	0.318413	0.043874	0.417845
	N252	N	0.913633	0.474687	0.183936
	N253	N	0.086959	0.546065	0.185056
	N254	N	0.085155	0.475625	0.825083
	N255	N	0.912021	0.546460	0.824235
	N256	N	0.178934	0.923416	0.470188
	N257	N	0.179024	0.097452	0.539930
	N258	N	0.819773	0.097340	0.469540
	N259	N	0.820400	0.924343	0.540502
	N260	N	0.464072	0.189679	0.919336
	N261	N	0.534262	0.190782	0.093205
	N262	N	0.463634	0.830299	0.091292
	N263	N	0.534183	0.831594	0.918192
	N264	N	0.463720	0.923041	0.185379
	N265	N	0.534403	0.096690	0.185498
	N266	N	0.464794	0.097784	0.824397
	N267	N	0.534072	0.924003	0.824672
	N268	N	0.913107	0.190324	0.468899
	N269	N	0.086877	0.191916	0.539339
	N270	N	0.086637	0.829731	0.470774
	N271	N	0.911855	0.829668	0.540015
	N272	N	0.179358	0.476201	0.917213
	N273	N	0.179157	0.546779	0.090636
	N274	N	0.818750	0.475806	0.092056
	N275	N	0.818317	0.546159	0.917053
	O276	O	-0.296971	0.716447	-0.289196
	H277	H	-0.331893	0.708119	-0.289781
	H278	H	-0.300975	0.729786	-0.297374
	O279	O	0.429803	0.647681	0.400524
	H280	H	0.418586	0.644101	0.391088
	H281	H	0.433462	0.642973	0.397719
	O282	O	0.995542	0.166808	1.075834
	H283	H	0.993301	0.174450	1.062833
	H284	H	0.987688	0.154781	1.075029
	O285	O	-0.115445	-0.000914	-0.074650
	H286	H	-0.121682	-0.014537	-0.078946
	H287	H	-0.125595	0.009119	-0.066835
	O288	O	0.340273	0.510207	0.472544
	H289	H	0.336910	0.513475	0.474127
	H290	H	0.341502	0.513099	0.474755
	O291	O	0.336841	0.464004	0.483541
	H292	H	0.327437	0.463398	0.500662
	H293	H	0.331035	0.471913	0.486010
	O294	O	1.057377	-0.126285	0.973279
	H295	H	1.051701	-0.129456	0.961507
	H296	H	1.062308	-0.139822	0.972311
	O297	O	0.722265	0.521748	0.505390
	H298	H	0.725189	0.502727	0.517639
	H299	H	0.726009	0.539637	0.523425
	O300	O	0.207251	-0.016190	0.798093
	H301	H	0.219220	-0.011634	0.789565
	H302	H	0.193796	-0.023395	0.797126
	O303	O	0.469192	0.676438	0.344335
	H304	H	0.482033	0.666157	0.362437
	H305	H	0.475030	0.671735	0.333208
	O306	O	0.788477	0.061629	0.061733
	H307	H	0.797705	0.060048	0.061524
	H308	H	0.781911	0.066379	0.064193
	O309	O	0.697389	0.682144	0.539341
	H310	H	0.720474	0.702061	0.535592
	H311	H	0.685884	0.673890	0.558501
	O312	O	0.716785	0.536903	0.719732
	H313	H	0.727551	0.553111	0.731282
	H314	H	0.718489	0.555571	0.724009
	O315	O	0.963237	0.793993	1.218178
	H316	H	0.945676	0.792841	1.223571
	H317	H	0.947299	0.787424	1.227559
	O318	O	0.497341	0.414311	0.390399
	H319	H	0.490493	0.405133	0.390144
	H320	H	0.487626	0.406908	0.392157
	O321	O	0.381542	0.713990	0.579803
	H322	H	0.383047	0.721864	0.568070
	H323	H	0.376284	0.685802	0.568362
	O324	O	0.839253	1.140307	0.190184
	H325	H	0.854594	1.126199	0.170459
	H326	H	0.822067	1.138859	0.188176
	O327	O	-0.042482	-0.045541	0.785659
	H328	H	-0.052086	-0.042940	0.787372
	H329	H	-0.032246	-0.056019	0.797149
	O330	O	0.723236	0.285895	0.475309
	H331	H	0.746776	0.257481	0.467229
	H332	H	0.718614	0.289597	0.445219
	O333	O	0.457814	0.297494	0.716412
	H334	H	0.462198	0.303502	0.714411
	H335	H	0.472877	0.287232	0.722152
	O336	O	0.421884	0.613850	0.641734
	H337	H	0.421586	0.615246	0.635917
	H338	H	0.406522	0.609445	0.633569
	O339	O	1.190216	-0.179728	0.808088
	H340	H	1.190325	-0.155672	0.818283
	H341	H	1.178558	-0.198092	0.803153
	O342	O	0.104276	0.191883	0.006755
	H343	H	0.085816	0.199296	-0.014389
	H344	H	0.112010	0.190376	0.005122
	O345	O	0.163932	0.816963	1.006220
	H346	H	0.171494	0.809661	1.018518
	H347	H	0.167558	0.822525	1.013741
	O348	O	0.293108	-0.300639	0.296980
	H349	H	0.290267	-0.296181	0.282645
	H350	H	0.305212	-0.293522	0.295558
	O351	O	0.750698	0.762368	0.251648
	H352	H	0.726798	0.745716	0.270555
	H353	H	0.742025	0.785252	0.258991
	O354	O	0.053664	-0.039270	1.225214
	H355	H	0.066552	-0.032084	1.221428
	H356	H	0.050915	-0.053217	1.234683
	O357	O	0.715249	0.480456	0.284377
	H358	H	0.719171	0.467880	0.297319
	H359	H	0.742336	0.484134	0.265851
	O360	O	0.288142	0.299958	0.715319
	H361	H	0.260905	0.269704	0.747237
	H362	H	0.327984	0.300373	0.718431
	O363	O	0.141354	-0.003903	0.062063
	H364	H	0.138096	0.013222	0.076741
	H365	H	0.141281	-0.007919	0.054890
	O366	O	0.695908	0.682909	0.377258
	H367	H	0.679430	0.669259	0.378997
	H368	H	0.689242	0.662068	0.393201
	O369	O	0.499511	0.345887	0.291645
	H370	H	0.489144	0.337314	0.283980
	H371	H	0.486736	0.337964	0.296136
	O372	O	0.782261	0.967700	0.222249
	H373	H	0.809352	0.978862	0.225336
	H374	H	0.757359	0.975642	0.248846
	O375	O	0.952399	0.136066	-0.006898
	H376	H	0.955947	0.131633	-0.017394
	H377	H	0.951184	0.138117	0.004793
	O378	O	0.617609	0.473858	0.305988
	H379	H	0.609490	0.468331	0.297063
	H380	H	0.599945	0.494376	0.292192
	O381	O	0.188821	1.195667	0.817865
	H382	H	0.160190	1.169448	0.816449
	H383	H	0.177950	1.182921	0.849754
	O384	O	0.926249	-0.011924	1.182620
	H385	H	0.944142	-0.008946	1.176845
	H386	H	0.930027	0.004558	1.179520
	O387	O	0.792433	1.049354	-0.206626
	H388	H	0.790991	1.034930	-0.218135
	H389	H	0.794738	1.032800	-0.209236
	O390	O	0.491692	0.341546	0.512501
	H391	H	0.475100	0.337222	0.517356
	H392	H	0.492579	0.347268	0.503892
	O393	O	0.206743	0.215334	0.215028
	H394	H	0.214390	0.207104	0.175356
	H395	H	0.210611	0.221073	0.229101
	O396	O	-0.091549	0.807826	0.926095
	H397	H	-0.089866	0.795214	0.922990
	H398	H	-0.102438	0.807137	0.929262
	O399	O	-0.194262	-0.212615	1.020746
	H400	H	-0.209481	-0.225427	1.042478
	H401	H	-0.196515	-0.220312	1.033185
	O402	O	0.614743	0.485392	0.637066
	H403	H	0.619156	0.476246	0.639483
	H404	H	0.612242	0.483868	0.650835
	O405	O	1.232172	0.066935	0.944738
	H406	H	1.226490	0.063589	0.934704
	H407	H	1.237841	0.072568	0.953072
	O408	O	0.214568	0.043666	0.223857
	H409	H	0.210291	0.057401	0.227979
	H410	H	0.234928	0.040165	0.237398
	O411	O	0.533246	0.726559	0.719900
	H412	H	0.510409	0.728398	0.688025
	H413	H	0.521866	0.753927	0.740017
	O414	O	0.686642	0.332791	0.677382
	H415	H	0.658997	0.335412	0.658806
	H416	H	0.679290	0.356134	0.662719
	O417	O	0.481253	0.331646	0.526335
	H418	H	0.470644	0.331211	0.517095
	H419	H	0.489410	0.332318	0.534202
	O420	O	0.373207	0.613564	0.608371
	H421	H	0.361284	0.595706	0.617451
	H422	H	0.371131	0.617312	0.595756
	O423	O	0.291167	-0.688440	0.522321
	H424	H	0.285357	-0.673712	0.541016
	H425	H	0.273505	-0.710311	0.540933
	O426	O	0.120017	0.187276	0.058954
	H427	H	0.099548	0.184331	0.059198
	H428	H	0.149676	0.197792	0.058330
	O429	O	0.963586	1.231742	0.785020
	H430	H	0.947557	1.253463	0.765562
	H431	H	0.927532	1.237169	0.782685
	O432	O	0.515831	0.507671	0.290223
	H433	H	0.529841	0.500521	0.287067
	H434	H	0.504017	0.492208	0.293680
	O435	O	0.025352	1.082154	-0.181654
	H436	H	0.020210	1.083950	-0.182906
	H437	H	0.014141	1.099923	-0.182768
	O438	O	-0.001699	0.138443	0.005265
	H439	H	-0.002007	0.134383	0.005919
	H440	H	-0.008969	0.138838	0.000727
	O441	O	0.156853	-0.137590	0.178464
	H442	H	0.149477	-0.133147	0.180331
	H443	H	0.152689	-0.130685	0.151837
	O444	O	0.366167	0.545683	0.407331
	H445	H	0.359972	0.545778	0.391019
	H446	H	0.371868	0.564809	0.405311
	O447	O	0.040914	1.235523	1.227300
	H448	H	0.059213	1.246608	1.240543
	H449	H	0.049780	1.249550	1.237757
	O450	O	-0.079777	0.859658	1.076781
	H451	H	-0.077769	0.871805	1.077894
	H452	H	-0.074119	0.842475	1.090129
	O453	O	0.274385	0.479694	0.720643
	H454	H	0.271364	0.454983	0.731707
	H455	H	0.264288	0.475116	0.739139
	O456	O	0.021454	-0.203150	0.791581
	H457	H	0.015806	-0.191541	0.785237
	H458	H	0.028651	-0.222916	0.777521
	O459	O	0.803877	0.880753	-0.135365
	H460	H	0.807963	0.878746	-0.119888
	H461	H	0.809491	0.881501	-0.126507
	O462	O	0.535859	0.486369	0.692918
	H463	H	0.551641	0.497497	0.692007
	H464	H	0.537358	0.500350	0.695658
	O465	O	1.130587	-0.131255	0.096829
	H466	H	1.115190	-0.157034	0.099233
	H467	H	1.113621	-0.113609	0.082309
	O468	O	0.284793	0.671104	0.412834
	H469	H	0.266034	0.681405	0.391422
	H470	H	0.287491	0.684195	0.389759
	O471	O	0.554768	0.703871	0.482699
	H472	H	0.559783	0.692773	0.493684
	H473	H	0.560739	0.705307	0.476422
	O474	O	0.314137	0.321551	0.318875
	H475	H	0.309506	0.321802	0.312222
	H476	H	0.312922	0.334714	0.353226
	O477	O	0.632494	0.502468	1.462310
	H478	H	0.625486	0.496746	1.460240
	H479	H	0.639716	0.500444	1.458507
	O480	O	0.481180	0.380448	0.574172
	H481	H	0.488222	0.386116	0.559562
	H482	H	0.476633	0.377525	0.581648
	O483	O	0.888306	1.149490	1.100607
	H484	H	0.907169	1.138591	1.093652
	H485	H	0.897788	1.148584	1.093921
	O486	O	0.792323	0.224628	0.794734
	H487	H	0.772338	0.223070	0.797309
	H488	H	0.770328	0.211405	0.779585
	O489	O	0.781778	1.233441	-0.025196
	H490	H	0.786423	1.213644	-0.039316
	H491	H	0.752501	1.263317	-0.033006
