data_Molecule from HDF5

_cell_length_a		16.301378
_cell_length_b		16.164686
_cell_length_c		16.290736
_cell_angle_alpha	90.276855
_cell_angle_beta	89.747060
_cell_angle_gamma	89.965371
_symmetry_space_group_name_H-M	'P 1'
_symmetry_Int_Tables_number		1

loop_
	_symmetry_equiv_pos_as_xyz
	x,y,z

loop_
	_atom_site_label
	_atom_site_type_symbol
	_atom_site_fract_x
	_atom_site_fract_y
	_atom_site_fract_z
	H0	H	0.398668	0.834998	0.708490
	H1	H	0.594443	0.164979	0.710424
	H2	H	0.595571	0.836280	0.281385
	H3	H	0.398808	0.166373	0.284316
	H4	H	0.712251	0.399502	0.832281
	H5	H	0.710841	0.599568	0.159982
	H6	H	0.283006	0.599193	0.832178
	H7	H	0.280256	0.401825	0.159252
	H8	H	0.832976	0.715576	0.399353
	H9	H	0.160605	0.716318	0.593940
	H10	H	0.832298	0.289386	0.592470
	H11	H	0.160221	0.285744	0.396642
	H12	H	0.834076	0.401904	0.710769
	H13	H	0.160607	0.600141	0.709984
	H14	H	0.833998	0.600745	0.281601
	H15	H	0.160617	0.401009	0.280159
	H16	H	0.400696	0.712875	0.831547
	H17	H	0.593172	0.714600	0.160022
	H18	H	0.594893	0.284245	0.832901
	H19	H	0.398226	0.288744	0.160732
	H20	H	0.711558	0.836531	0.396070
	H21	H	0.709802	0.165611	0.595394
	H22	H	0.282233	0.835873	0.593733
	H23	H	0.283669	0.166009	0.399650
	H24	H	0.898147	0.336451	0.210529
	H25	H	0.096424	0.664772	0.211098
	H26	H	0.096637	0.335442	0.779645
	H27	H	0.900180	0.664909	0.783919
	H28	H	0.212638	0.901433	0.332847
	H29	H	0.211154	0.101994	0.659705
	H30	H	0.782165	0.100634	0.332100
	H31	H	0.779155	0.901219	0.658612
	H32	H	0.332271	0.212931	0.901373
	H33	H	0.659978	0.215669	0.094951
	H34	H	0.332353	0.787890	0.093100
	H35	H	0.660776	0.786962	0.897983
	H36	H	0.333017	0.901375	0.212185
	H37	H	0.660358	0.099493	0.209881
	H38	H	0.333001	0.098695	0.782568
	H39	H	0.659658	0.900224	0.780087
	H40	H	0.901138	0.213572	0.332203
	H41	H	0.090918	0.214200	0.660714
	H42	H	0.095029	0.787382	0.332144
	H43	H	0.898671	0.789415	0.660310
	H44	H	0.211964	0.335370	0.895308
	H45	H	0.209446	0.665637	0.093623
	H46	H	0.783071	0.335962	0.094473
	H47	H	0.784763	0.665372	0.898518
	H48	H	0.399137	0.121990	0.600612
	H49	H	0.590334	0.883517	0.583372
	H50	H	0.592958	0.120417	0.400186
	H51	H	0.392833	0.882484	0.411058
	H52	H	0.587942	0.407733	0.112412
	H53	H	0.588692	0.594873	0.880001
	H54	H	0.414671	0.598921	0.110498
	H55	H	0.402448	0.393425	0.875067
	H56	H	0.114351	0.594046	0.399958
	H57	H	0.879240	0.590767	0.600369
	H58	H	0.115122	0.404860	0.591226
	H59	H	0.874977	0.403025	0.388443
	H60	H	0.113243	0.406723	0.586120
	H61	H	0.878722	0.604221	0.588516
	H62	H	0.112777	0.594857	0.405586
	H63	H	0.881476	0.398564	0.414068
	H64	H	0.392142	0.601027	0.117255
	H65	H	0.595360	0.595913	0.876910
	H66	H	0.591119	0.408982	0.113118
	H67	H	0.392760	0.415604	0.878805
	H68	H	0.585281	0.117264	0.402446
	H69	H	0.592669	0.881618	0.589327
	H70	H	0.414202	0.115304	0.590603
	H71	H	0.405900	0.879947	0.389751
	H72	H	0.903093	0.617471	0.088876
	H73	H	0.085667	0.385434	0.084559
	H74	H	0.086265	0.616148	0.904398
	H75	H	0.912747	0.384973	0.904121
	H76	H	0.086119	0.916662	0.609709
	H77	H	0.085789	0.090297	0.381629
	H78	H	0.907142	0.083453	0.608065
	H79	H	0.900239	0.901914	0.376620
	H80	H	0.615596	0.101010	0.903416
	H81	H	0.377607	0.099235	0.092006
	H82	H	0.614155	0.903002	0.088721
	H83	H	0.378068	0.901600	0.901380
	H84	H	0.611104	0.910636	0.085373
	H85	H	0.381858	0.091799	0.086822
	H86	H	0.609079	0.088408	0.910633
	H87	H	0.381064	0.908642	0.905863
	H88	H	0.909000	0.106199	0.614167
	H89	H	0.091876	0.099527	0.378109
	H90	H	0.086097	0.901579	0.613638
	H91	H	0.899929	0.915653	0.381140
	H92	H	0.093327	0.617129	0.906142
	H93	H	0.094290	0.381426	0.085880
	H94	H	0.903207	0.618500	0.089837
	H95	H	0.897937	0.382604	0.908786
	H96	H	0.397675	0.117518	0.581915
	H97	H	0.586138	0.883890	0.589027
	H98	H	0.591432	0.117850	0.407784
	H99	H	0.416762	0.889609	0.410103
	H100	H	0.588774	0.411096	0.111334
	H101	H	0.593421	0.589023	0.880037
	H102	H	0.400727	0.580528	0.109077
	H103	H	0.416086	0.411887	0.884886
	H104	H	0.111655	0.589353	0.403497
	H105	H	0.884727	0.587596	0.583237
	H106	H	0.113616	0.410652	0.590581
	H107	H	0.885066	0.422860	0.403497
	H108	H	0.904207	0.618074	0.089373
	H109	H	0.088100	0.381927	0.093275
	H110	H	0.091021	0.618713	0.899452
	H111	H	0.902137	0.378949	0.893677
	H112	H	0.098803	0.909581	0.615728
	H113	H	0.097167	0.088948	0.379083
	H114	H	0.888636	0.095620	0.616044
	H115	H	0.911870	0.908438	0.381641
	H116	H	0.613621	0.087424	0.895676
	H117	H	0.379451	0.091024	0.096555
	H118	H	0.613838	0.910445	0.094340
	H119	H	0.379089	0.909360	0.897260
	C120	C	0.374762	0.009105	0.618451
	C121	C	0.617757	0.992256	0.616745
	C122	C	0.618624	0.009574	0.374272
	C123	C	0.376415	0.992815	0.375797
	C124	C	0.618365	0.378895	0.004537
	C125	C	0.619472	0.622203	0.987656
	C126	C	0.375207	0.621784	0.004068
	C127	C	0.374741	0.378888	0.987648
	C128	C	0.005201	0.622274	0.374760
	C129	C	0.988854	0.623468	0.618614
	C130	C	0.005583	0.379311	0.617505
	C131	C	0.988692	0.379256	0.373850
	C132	C	0.875447	0.509026	0.117555
	C133	C	0.117822	0.491807	0.116734
	C134	C	0.119235	0.508603	0.873843
	C135	C	0.876175	0.491589	0.874737
	C136	C	0.118782	0.879912	0.504645
	C137	C	0.118681	0.122505	0.487845
	C138	C	0.874367	0.122892	0.504308
	C139	C	0.874849	0.879709	0.487521
	C140	C	0.504618	0.121036	0.875346
	C141	C	0.487936	0.122932	0.119631
	C142	C	0.504515	0.879627	0.117892
	C143	C	0.487836	0.877952	0.873553
	C144	C	0.377909	0.884378	0.671407
	C145	C	0.614778	0.115898	0.672518
	C146	C	0.616178	0.885696	0.318872
	C147	C	0.378244	0.117017	0.321397
	C148	C	0.674166	0.379696	0.881432
	C149	C	0.673315	0.620118	0.110880
	C150	C	0.320646	0.619544	0.880969
	C151	C	0.318821	0.381726	0.110726
	C152	C	0.881938	0.677666	0.378393
	C153	C	0.111775	0.678334	0.614646
	C154	C	0.881793	0.326041	0.613767
	C155	C	0.111625	0.323863	0.376517
	C156	C	0.882443	0.382268	0.672413
	C157	C	0.111733	0.620994	0.672801
	C158	C	0.882461	0.620673	0.319843
	C159	C	0.111682	0.380789	0.318193
	C160	C	0.379476	0.675641	0.880488
	C161	C	0.614921	0.677249	0.110876
	C162	C	0.615706	0.322773	0.881488
	C163	C	0.377414	0.325078	0.111357
	C164	C	0.673958	0.885786	0.375694
	C165	C	0.671858	0.116304	0.614987
	C166	C	0.320092	0.884853	0.614449
	C167	C	0.321303	0.116906	0.378812
	C168	C	0.878020	0.385309	0.172441
	C169	C	0.116193	0.615843	0.172860
	C170	C	0.116697	0.384624	0.818025
	C171	C	0.879122	0.615683	0.820875
	C172	C	0.174454	0.881599	0.381587
	C173	C	0.172862	0.121379	0.611207
	C174	C	0.820059	0.120359	0.381067
	C175	C	0.818148	0.881495	0.610165
	C176	C	0.381287	0.175676	0.879494
	C177	C	0.611035	0.178171	0.115917
	C178	C	0.381226	0.825348	0.114429
	C179	C	0.611390	0.823681	0.876758
	C180	C	0.381784	0.881721	0.173606
	C181	C	0.611287	0.120450	0.173188
	C182	C	0.381777	0.119046	0.820477
	C183	C	0.610867	0.879741	0.818059
	C184	C	0.879561	0.176096	0.380685
	C185	C	0.113462	0.177398	0.611531
	C186	C	0.115951	0.824896	0.381158
	C187	C	0.877717	0.826031	0.610942
	C188	C	0.174026	0.384551	0.875608
	C189	C	0.172437	0.616207	0.114622
	C190	C	0.820315	0.385165	0.115311
	C191	C	0.821848	0.615886	0.878141
	C192	C	0.397040	0.095704	0.597321
	C193	C	0.596026	0.905404	0.594017
	C194	C	0.596470	0.096152	0.396778
	C195	C	0.398475	0.906289	0.397423
	C196	C	0.595849	0.402286	0.090204
	C197	C	0.598715	0.599889	0.901280
	C198	C	0.396379	0.600044	0.090012
	C199	C	0.397118	0.400552	0.901804
	C200	C	0.090883	0.599516	0.396517
	C201	C	0.903004	0.600738	0.597169
	C202	C	0.091832	0.401017	0.595802
	C203	C	0.902680	0.401650	0.395614
	C204	C	0.897313	0.595651	0.095829
	C205	C	0.095760	0.405277	0.094389
	C206	C	0.096842	0.595169	0.896709
	C207	C	0.897784	0.404577	0.895927
	C208	C	0.096847	0.902417	0.590736
	C209	C	0.097744	0.099728	0.401859
	C210	C	0.895193	0.101464	0.590535
	C211	C	0.897435	0.901987	0.401737
	C212	C	0.590571	0.098778	0.896807
	C213	C	0.402045	0.100712	0.098143
	C214	C	0.590684	0.901390	0.095870
	C215	C	0.401783	0.899978	0.895110
	Zn216	Zn	0.496596	-0.000566	0.745377
	Zn217	Zn	0.496671	0.001133	0.247346
	Zn218	Zn	0.747970	0.500199	-0.004200
	Zn219	Zn	0.246244	0.500740	-0.004070
	Zn220	Zn	-0.003180	0.751497	0.496183
	Zn221	Zn	-0.003475	0.251073	0.495684
	Zn222	Zn	-0.002639	0.500427	0.746602
	Zn223	Zn	-0.002654	0.501165	0.245357
	Zn224	Zn	0.496429	0.750747	-0.004269
	Zn225	Zn	0.496484	0.250523	-0.003131
	Zn226	Zn	0.746284	0.001213	0.495818
	Zn227	Zn	0.247679	0.001251	0.496358
	N228	N	0.411184	0.962483	0.673944
	N229	N	0.581775	0.037564	0.673642
	N230	N	0.582586	0.963814	0.317922
	N231	N	0.411919	0.038986	0.319432
	N232	N	0.675853	0.414088	0.958925
	N233	N	0.676008	0.586367	0.033247
	N234	N	0.317900	0.586618	0.958662
	N235	N	0.316840	0.414107	0.032882
	N236	N	0.959370	0.678664	0.411914
	N237	N	0.034199	0.680019	0.581808
	N238	N	0.959485	0.324084	0.580410
	N239	N	0.034154	0.322883	0.410430
	N240	N	0.960343	0.414827	0.674795
	N241	N	0.034328	0.587239	0.675042
	N242	N	0.959998	0.587019	0.317512
	N243	N	0.034201	0.414451	0.316350
	N244	N	0.412508	0.677361	0.957995
	N245	N	0.582218	0.678778	0.033210
	N246	N	0.581720	0.322268	0.958926
	N247	N	0.411791	0.323475	0.034019
	N248	N	0.675543	0.963784	0.409541
	N249	N	0.673574	0.038295	0.580848
	N250	N	0.317984	0.963464	0.582382
	N251	N	0.320160	0.038764	0.411951
	N252	N	0.911364	0.463525	0.174152
	N253	N	0.082898	0.537586	0.174247
	N254	N	0.083321	0.462902	0.816936
	N255	N	0.912232	0.537447	0.818841
	N256	N	0.176391	0.914983	0.459458
	N257	N	0.176424	0.088001	0.533375
	N258	N	0.816793	0.088035	0.459152
	N259	N	0.816222	0.914198	0.532410
	N260	N	0.458500	0.176908	0.913096
	N261	N	0.533199	0.179950	0.083453
	N262	N	0.458688	0.823815	0.080482
	N263	N	0.533913	0.822399	0.910537
	N264	N	0.459454	0.914794	0.175626
	N265	N	0.533827	0.086826	0.175508
	N266	N	0.459633	0.085840	0.817815
	N267	N	0.533203	0.912858	0.816065
	N268	N	0.912225	0.177989	0.458149
	N269	N	0.080440	0.178154	0.533966
	N270	N	0.082186	0.823678	0.458576
	N271	N	0.912286	0.824866	0.533648
	N272	N	0.175653	0.462649	0.909481
	N273	N	0.173465	0.538244	0.080330
	N274	N	0.818629	0.462961	0.081856
	N275	N	0.819818	0.537502	0.910775
	O276	O	0.009611	-0.060035	0.978775
	H277	H	0.014573	-0.065957	0.974960
	H278	H	0.010800	-0.061763	0.977820
	O279	O	0.551800	0.451779	0.519989
	H280	H	0.556795	0.447636	0.521146
	H281	H	0.549132	0.452141	0.518195
	O282	O	0.502487	0.455423	0.465594
	H283	H	0.510361	0.450565	0.477043
	H284	H	0.505157	0.455126	0.457608
	O285	O	0.551047	0.484597	0.515332
	H286	H	0.549011	0.483274	0.511838
	H287	H	0.546436	0.481563	0.516271
	O288	O	0.482232	0.462583	0.518813
	H289	H	0.487820	0.463930	0.522784
	H290	H	0.467822	0.458427	0.521177
	O291	O	-0.008757	0.920348	0.963367
	H292	H	-0.009738	0.913857	0.961168
	H293	H	-0.004738	0.914510	0.959278
	O294	O	0.534454	0.507811	0.471002
	H295	H	0.531034	0.511544	0.462535
	H296	H	0.534859	0.503365	0.471699
	O297	O	1.521686	0.478373	0.454957
	H298	H	1.527754	0.477316	0.440556
	H299	H	1.523239	0.481526	0.459352
