data_Molecule from HDF5

_cell_length_a		16.335042
_cell_length_b		16.160109
_cell_length_c		16.193704
_cell_angle_alpha	90.027072
_cell_angle_beta	89.822085
_cell_angle_gamma	90.221405
_symmetry_space_group_name_H-M	'P 1'
_symmetry_Int_Tables_number		1

loop_
	_symmetry_equiv_pos_as_xyz
	x,y,z

loop_
	_atom_site_label
	_atom_site_type_symbol
	_atom_site_fract_x
	_atom_site_fract_y
	_atom_site_fract_z
	H0	H	0.404101	0.833822	0.713400
	H1	H	0.600131	0.164136	0.711961
	H2	H	0.601867	0.834595	0.285574
	H3	H	0.407064	0.164467	0.287032
	H4	H	0.716841	0.400543	0.835818
	H5	H	0.717792	0.600202	0.163594
	H6	H	0.287486	0.600270	0.837014
	H7	H	0.286498	0.398605	0.164676
	H8	H	0.837806	0.712804	0.402606
	H9	H	0.165207	0.715069	0.597618
	H10	H	0.839152	0.285498	0.598762
	H11	H	0.166359	0.287406	0.400991
	H12	H	0.838958	0.400693	0.714780
	H13	H	0.165422	0.599374	0.714613
	H14	H	0.838625	0.597614	0.285611
	H15	H	0.165232	0.402529	0.284510
	H16	H	0.407356	0.710954	0.834411
	H17	H	0.600438	0.713530	0.164552
	H18	H	0.598129	0.287868	0.834703
	H19	H	0.404827	0.286273	0.165767
	H20	H	0.717331	0.834896	0.400343
	H21	H	0.717866	0.163000	0.599556
	H22	H	0.285378	0.835859	0.601174
	H23	H	0.288576	0.163610	0.398893
	H24	H	0.903937	0.334676	0.213612
	H25	H	0.099298	0.665491	0.212226
	H26	H	0.100311	0.334854	0.786777
	H27	H	0.906162	0.665092	0.789213
	H28	H	0.218046	0.900839	0.335903
	H29	H	0.217893	0.100383	0.664283
	H30	H	0.789458	0.098980	0.336106
	H31	H	0.787423	0.899329	0.663575
	H32	H	0.339039	0.212692	0.902763
	H33	H	0.666786	0.215243	0.098026
	H34	H	0.339614	0.784907	0.099414
	H35	H	0.666330	0.787027	0.901061
	H36	H	0.340663	0.899578	0.216200
	H37	H	0.667047	0.099282	0.214496
	H38	H	0.339548	0.098117	0.784775
	H39	H	0.665432	0.900814	0.783712
	H40	H	0.908121	0.211306	0.334648
	H41	H	0.101597	0.215012	0.664755
	H42	H	0.100597	0.786852	0.334965
	H43	H	0.905057	0.787702	0.664952
	H44	H	0.217451	0.335396	0.900703
	H45	H	0.219305	0.663641	0.101455
	H46	H	0.786560	0.335717	0.100520
	H47	H	0.789499	0.663845	0.901354
	H48	H	0.405037	0.117027	0.587051
	H49	H	0.587465	0.882420	0.594075
	H50	H	0.596742	0.117756	0.405093
	H51	H	0.402311	0.879888	0.408370
	H52	H	0.599722	0.406588	0.119221
	H53	H	0.606360	0.599410	0.877716
	H54	H	0.408308	0.596488	0.119024
	H55	H	0.410108	0.404913	0.883171
	H56	H	0.116885	0.590042	0.407318
	H57	H	0.891873	0.579979	0.587323
	H58	H	0.121427	0.410250	0.604443
	H59	H	0.883960	0.394865	0.411261
	H60	H	0.121051	0.396902	0.588893
	H61	H	0.881538	0.592117	0.610178
	H62	H	0.119238	0.594291	0.402963
	H63	H	0.889900	0.413795	0.413422
	H64	H	0.407137	0.588336	0.116919
	H65	H	0.599081	0.582414	0.884076
	H66	H	0.594950	0.412001	0.116796
	H67	H	0.407510	0.407546	0.882960
	H68	H	0.596859	0.116275	0.409014
	H69	H	0.600035	0.882360	0.584325
	H70	H	0.408918	0.119093	0.598812
	H71	H	0.414298	0.881027	0.402279
	H72	H	0.901766	0.617160	0.084824
	H73	H	0.096029	0.380193	0.098979
	H74	H	0.088313	0.615293	0.907027
	H75	H	0.903539	0.376571	0.896750
	H76	H	0.091718	0.901937	0.617289
	H77	H	0.096750	0.106597	0.378132
	H78	H	0.907027	0.092425	0.619312
	H79	H	0.899343	0.912450	0.380853
	H80	H	0.615358	0.090712	0.916738
	H81	H	0.386053	0.091958	0.098851
	H82	H	0.617771	0.903863	0.083800
	H83	H	0.388495	0.915546	0.904518
	H84	H	0.617062	0.916896	0.094782
	H85	H	0.387288	0.096064	0.091100
	H86	H	0.619586	0.085468	0.896935
	H87	H	0.381686	0.899195	0.898682
	H88	H	0.909880	0.090825	0.617030
	H89	H	0.108948	0.086376	0.381411
	H90	H	0.102059	0.909368	0.618810
	H91	H	0.918933	0.911527	0.386100
	H92	H	0.099834	0.615676	0.916810
	H93	H	0.088154	0.384525	0.090422
	H94	H	0.907162	0.621887	0.103317
	H95	H	0.921730	0.385723	0.908194
	H96	H	0.416482	0.113845	0.590213
	H97	H	0.600596	0.877030	0.598659
	H98	H	0.600338	0.117916	0.407353
	H99	H	0.413106	0.885194	0.415478
	H100	H	0.592882	0.405394	0.117798
	H101	H	0.587131	0.598482	0.883569
	H102	H	0.414595	0.591333	0.116376
	H103	H	0.410550	0.408786	0.884785
	H104	H	0.117893	0.596084	0.408479
	H105	H	0.883328	0.606061	0.586762
	H106	H	0.114189	0.416350	0.587063
	H107	H	0.883428	0.407335	0.396332
	H108	H	0.919820	0.613505	0.090632
	H109	H	0.099462	0.382326	0.086560
	H110	H	0.101444	0.620983	0.902166
	H111	H	0.901466	0.382513	0.919303
	H112	H	0.090700	0.913958	0.614488
	H113	H	0.085671	0.087843	0.387851
	H114	H	0.910720	0.094548	0.617867
	H115	H	0.910313	0.895449	0.378558
	H116	H	0.622778	0.104808	0.903001
	H117	H	0.389307	0.087747	0.091812
	H118	H	0.623491	0.900930	0.099342
	H119	H	0.387604	0.901028	0.916188
	C120	C	0.381123	0.007830	0.621116
	C121	C	0.623968	0.990112	0.620568
	C122	C	0.625672	0.008144	0.378291
	C123	C	0.382136	0.990833	0.379305
	C124	C	0.623772	0.378987	0.008757
	C125	C	0.624929	0.621586	0.990988
	C126	C	0.381853	0.620802	0.008673
	C127	C	0.380916	0.377889	0.992218
	C128	C	0.010001	0.621654	0.378289
	C129	C	0.993509	0.622211	0.622724
	C130	C	0.011031	0.378686	0.622055
	C131	C	0.993886	0.377688	0.377919
	C132	C	0.880751	0.508535	0.121583
	C133	C	0.123889	0.491063	0.121646
	C134	C	0.124932	0.508432	0.879193
	C135	C	0.881325	0.490749	0.879589
	C136	C	0.123688	0.878934	0.508263
	C137	C	0.125089	0.122144	0.491660
	C138	C	0.881872	0.120847	0.508646
	C139	C	0.880928	0.878238	0.490900
	C140	C	0.511178	0.121533	0.877764
	C141	C	0.495346	0.121526	0.122571
	C142	C	0.511881	0.877554	0.122269
	C143	C	0.494097	0.877460	0.877708
	C144	C	0.383490	0.883473	0.675886
	C145	C	0.621044	0.114725	0.674846
	C146	C	0.622152	0.883824	0.323431
	C147	C	0.385738	0.115087	0.324210
	C148	C	0.679100	0.380444	0.884867
	C149	C	0.679634	0.619807	0.114795
	C150	C	0.326094	0.619221	0.885543
	C151	C	0.324987	0.379214	0.115826
	C152	C	0.886763	0.675311	0.381900
	C153	C	0.116504	0.677374	0.618654
	C154	C	0.888089	0.323176	0.619514
	C155	C	0.117285	0.324323	0.380512
	C156	C	0.888051	0.380381	0.677536
	C157	C	0.116766	0.619886	0.676691
	C158	C	0.887063	0.618093	0.323800
	C159	C	0.116807	0.381485	0.322582
	C160	C	0.385763	0.674256	0.884123
	C161	C	0.621390	0.676345	0.115231
	C162	C	0.620381	0.324426	0.884308
	C163	C	0.383721	0.323219	0.116322
	C164	C	0.679592	0.883949	0.380451
	C165	C	0.679751	0.113942	0.619122
	C166	C	0.324402	0.884566	0.620362
	C167	C	0.326798	0.114621	0.379611
	C168	C	0.883051	0.384188	0.176512
	C169	C	0.120636	0.615916	0.175340
	C170	C	0.121303	0.384268	0.824256
	C171	C	0.885320	0.615541	0.825930
	C172	C	0.179709	0.880780	0.384734
	C173	C	0.180031	0.120397	0.615120
	C174	C	0.827622	0.118604	0.384896
	C175	C	0.825419	0.879487	0.614581
	C176	C	0.387980	0.175270	0.881588
	C177	C	0.618129	0.177360	0.118936
	C178	C	0.388754	0.822317	0.120026
	C179	C	0.617309	0.823692	0.880463
	C180	C	0.389158	0.879732	0.177948
	C181	C	0.618410	0.119339	0.176634
	C182	C	0.388330	0.118483	0.822692
	C183	C	0.617032	0.880450	0.822136
	C184	C	0.886549	0.174535	0.384225
	C185	C	0.122148	0.177407	0.615330
	C186	C	0.121297	0.824279	0.384323
	C187	C	0.883695	0.823871	0.615153
	C188	C	0.179458	0.384490	0.880858
	C189	C	0.179929	0.614971	0.120077
	C190	C	0.824782	0.384713	0.120395
	C191	C	0.827008	0.614769	0.881613
	C192	C	0.403638	0.094278	0.598740
	C193	C	0.602300	0.903057	0.598812
	C194	C	0.604286	0.094963	0.400596
	C195	C	0.403525	0.904382	0.401956
	C196	C	0.602135	0.401376	0.095462
	C197	C	0.603916	0.599860	0.904246
	C198	C	0.403664	0.598635	0.095119
	C199	C	0.402957	0.400555	0.905909
	C200	C	0.095764	0.599855	0.399767
	C201	C	0.907859	0.599428	0.601342
	C202	C	0.096549	0.401252	0.600009
	C203	C	0.908015	0.399156	0.400355
	C204	C	0.902946	0.595029	0.099273
	C205	C	0.101270	0.404702	0.098743
	C206	C	0.102998	0.594996	0.901834
	C207	C	0.902649	0.404029	0.901435
	C208	C	0.101469	0.901725	0.594576
	C209	C	0.103639	0.099897	0.404966
	C210	C	0.903031	0.099056	0.595456
	C211	C	0.902856	0.900224	0.404248
	C212	C	0.596986	0.099883	0.899058
	C213	C	0.409582	0.098701	0.100483
	C214	C	0.597293	0.900393	0.099539
	C215	C	0.408136	0.898972	0.899803
	Zn216	Zn	0.502979	-0.000896	0.748919
	Zn217	Zn	0.503873	-0.000658	0.251444
	Zn218	Zn	0.752796	0.499568	0.000067
	Zn219	Zn	0.252671	0.499723	0.001011
	Zn220	Zn	0.001842	0.750717	0.499666
	Zn221	Zn	0.003353	0.249812	0.500498
	Zn222	Zn	0.002414	0.500100	0.751685
	Zn223	Zn	0.001817	0.500093	0.249271
	Zn224	Zn	0.502733	0.749352	-0.000495
	Zn225	Zn	0.502949	0.250448	0.000341
	Zn226	Zn	0.752940	-0.001050	0.499898
	Zn227	Zn	0.252953	0.000132	0.499952
	N228	N	0.418233	0.961172	0.676417
	N229	N	0.586944	0.036809	0.675797
	N230	N	0.589424	0.962153	0.322042
	N231	N	0.419594	0.037309	0.324054
	N232	N	0.681175	0.413655	0.963029
	N233	N	0.682054	0.586450	0.036561
	N234	N	0.323598	0.586563	0.964069
	N235	N	0.323166	0.412492	0.037626
	N236	N	0.964288	0.677655	0.414915
	N237	N	0.038927	0.678796	0.585796
	N238	N	0.965447	0.321728	0.586037
	N239	N	0.039845	0.321811	0.414071
	N240	N	0.965404	0.414603	0.679135
	N241	N	0.039454	0.586153	0.679402
	N242	N	0.964742	0.585708	0.321158
	N243	N	0.039093	0.413995	0.320866
	N244	N	0.419619	0.675281	0.961648
	N245	N	0.588170	0.677612	0.037240
	N246	N	0.586491	0.323720	0.962379
	N247	N	0.417810	0.322341	0.038571
	N248	N	0.681795	0.962256	0.413724
	N249	N	0.681505	0.035499	0.586004
	N250	N	0.322669	0.962893	0.587127
	N251	N	0.324512	0.036495	0.413515
	N252	N	0.917430	0.462073	0.177252
	N253	N	0.086494	0.537956	0.176482
	N254	N	0.088198	0.462543	0.822869
	N255	N	0.918544	0.537373	0.824492
	N256	N	0.181458	0.914049	0.463011
	N257	N	0.182095	0.086937	0.536984
	N258	N	0.824580	0.085775	0.463331
	N259	N	0.823660	0.912650	0.536401
	N260	N	0.465239	0.177640	0.914782
	N261	N	0.540592	0.178467	0.085769
	N262	N	0.465972	0.821148	0.085753
	N263	N	0.539915	0.821829	0.914275
	N264	N	0.466713	0.913260	0.179573
	N265	N	0.541140	0.085284	0.178836
	N266	N	0.465970	0.085553	0.820227
	N267	N	0.539499	0.913285	0.820307
	N268	N	0.919662	0.176010	0.462197
	N269	N	0.088893	0.178640	0.537457
	N270	N	0.087286	0.823173	0.462019
	N271	N	0.917546	0.822971	0.537247
	N272	N	0.181566	0.462624	0.914368
	N273	N	0.182108	0.536307	0.087447
	N274	N	0.823258	0.462863	0.087035
	N275	N	0.824372	0.536196	0.914176
	O276	O	1.025331	1.039883	-0.070081
	H277	H	1.030244	1.047241	-0.071368
	H278	H	1.022595	1.036152	-0.075205
	O279	O	0.067313	-0.051371	0.045505
	H280	H	0.072562	-0.058017	0.049008
	H281	H	0.074491	-0.058436	0.046788
	O282	O	0.017209	-0.020464	0.965652
	H283	H	0.019120	-0.015902	0.961879
	H284	H	0.020732	-0.018768	0.960851
	O285	O	0.430285	0.443539	0.525614
	H286	H	0.424431	0.438480	0.516464
	H287	H	0.443234	0.439742	0.525129
	O288	O	0.462228	0.485746	0.480522
	H289	H	0.454130	0.484946	0.493457
	H290	H	0.450662	0.491037	0.475832
	O291	O	0.437539	0.464771	0.526063
	H292	H	0.443924	0.463119	0.513835
	H293	H	0.430931	0.480517	0.527271
	O294	O	0.033165	-0.004862	-0.010334
	H295	H	0.024728	-0.011351	-0.004484
	H296	H	0.035353	0.002278	-0.007412
	O297	O	0.441966	0.496586	0.443644
	H298	H	0.437991	0.500964	0.437126
	H299	H	0.433928	0.494762	0.440805
	O300	O	0.001624	0.926737	0.937149
	H301	H	0.006561	0.917132	0.933476
	H302	H	-0.000110	0.932122	0.941608
	O303	O	0.371029	0.491898	0.484621
	H304	H	0.360694	0.501136	0.494106
	H305	H	0.369709	0.482235	0.482940
	O306	O	0.091255	-0.028745	1.046763
	H307	H	0.087955	-0.027901	1.042483
	H308	H	0.092710	-0.035622	1.042253
	O309	O	0.990967	1.027763	1.040349
	H310	H	0.982923	1.016574	1.050248
	H311	H	0.984857	1.029828	1.044077
	O312	O	0.426919	0.463922	0.503286
	H313	H	0.425559	0.465061	0.503916
	H314	H	0.420984	0.453555	0.513599
	O315	O	0.391819	0.473348	0.562722
	H316	H	0.392869	0.470608	0.574054
	H317	H	0.395442	0.469887	0.560926
	O318	O	0.016098	1.019505	-0.028531
	H319	H	0.007917	1.019767	-0.029795
	H320	H	0.015884	1.029256	-0.028408
	O321	O	1.033946	0.954771	-0.019837
	H322	H	1.031779	0.960017	-0.023952
	H323	H	1.040537	0.958347	-0.018105
