data_Molecule from HDF5

_cell_length_a		16.642451
_cell_length_b		16.560840
_cell_length_c		16.699133
_cell_angle_alpha	89.900344
_cell_angle_beta	89.998706
_cell_angle_gamma	90.148226
_symmetry_space_group_name_H-M	'P 1'
_symmetry_Int_Tables_number		1

loop_
	_symmetry_equiv_pos_as_xyz
	x,y,z

loop_
	_atom_site_label
	_atom_site_type_symbol
	_atom_site_fract_x
	_atom_site_fract_y
	_atom_site_fract_z
	H0	H	0.385151	0.862029	0.719385
	H1	H	0.598184	0.172812	0.718805
	H2	H	0.591970	0.859612	0.280544
	H3	H	0.386475	0.172899	0.276118
	H4	H	0.714301	0.413633	0.842599
	H5	H	0.716399	0.627090	0.150412
	H6	H	0.272156	0.619829	0.839914
	H7	H	0.269252	0.409437	0.150211
	H8	H	0.837926	0.739138	0.390505
	H9	H	0.145692	0.742052	0.604372
	H10	H	0.835118	0.297184	0.602278
	H11	H	0.148685	0.299276	0.396407
	H12	H	0.836406	0.410135	0.720714
	H13	H	0.145959	0.624921	0.720519
	H14	H	0.839255	0.625682	0.272796
	H15	H	0.147853	0.412581	0.277503
	H16	H	0.387539	0.737344	0.840323
	H17	H	0.595840	0.738628	0.151902
	H18	H	0.596894	0.297475	0.841669
	H19	H	0.386811	0.295777	0.150971
	H20	H	0.707373	0.859998	0.397411
	H21	H	0.714056	0.172531	0.603781
	H22	H	0.269778	0.861679	0.602484
	H23	H	0.271140	0.173644	0.392699
	H24	H	0.889521	0.361626	0.216986
	H25	H	0.099111	0.672588	0.217748
	H26	H	0.100006	0.362859	0.772961
	H27	H	0.887465	0.673600	0.776112
	H28	H	0.216249	0.908542	0.345153
	H29	H	0.214708	0.124103	0.652371
	H30	H	0.772001	0.121752	0.341905
	H31	H	0.768315	0.910930	0.651843
	H32	H	0.337447	0.239217	0.891293
	H33	H	0.648838	0.235900	0.098497
	H34	H	0.334950	0.798618	0.097924
	H35	H	0.645578	0.793018	0.887806
	H36	H	0.336282	0.912985	0.216532
	H37	H	0.647641	0.121232	0.216693
	H38	H	0.337194	0.124272	0.774061
	H39	H	0.646099	0.910390	0.773054
	H40	H	0.889665	0.237178	0.341743
	H41	H	0.096263	0.238361	0.653769
	H42	H	0.100972	0.792356	0.346234
	H43	H	0.884754	0.795304	0.652046
	H44	H	0.216022	0.362640	0.887434
	H45	H	0.211563	0.673556	0.098070
	H46	H	0.774109	0.361530	0.100647
	H47	H	0.772305	0.673618	0.891925
	H48	H	0.407142	0.127002	0.583586
	H49	H	0.580174	0.906115	0.584978
	H50	H	0.581085	0.131581	0.403549
	H51	H	0.400972	0.905840	0.410792
	H52	H	0.580353	0.430696	0.107330
	H53	H	0.583945	0.604292	0.885723
	H54	H	0.397932	0.606829	0.108447
	H55	H	0.407820	0.425505	0.886411
	H56	H	0.102827	0.607971	0.411777
	H57	H	0.879134	0.612719	0.582984
	H58	H	0.099190	0.428753	0.577445
	H59	H	0.876855	0.425397	0.399376
	H60	H	0.100727	0.438458	0.591532
	H61	H	0.884875	0.598478	0.582145
	H62	H	0.100503	0.602273	0.412711
	H63	H	0.879664	0.421670	0.411666
	H64	H	0.403032	0.602635	0.105535
	H65	H	0.579860	0.602480	0.887451
	H66	H	0.580937	0.422718	0.109082
	H67	H	0.398842	0.427217	0.883397
	H68	H	0.580171	0.130343	0.407791
	H69	H	0.579256	0.905433	0.587073
	H70	H	0.401123	0.129376	0.583552
	H71	H	0.400156	0.903206	0.405937
	H72	H	0.903105	0.629315	0.080829
	H73	H	0.081484	0.405872	0.082399
	H74	H	0.081342	0.628770	0.907952
	H75	H	0.901779	0.405462	0.908218
	H76	H	0.078033	0.930794	0.608300
	H77	H	0.079987	0.106190	0.387783
	H78	H	0.898043	0.109390	0.610612
	H79	H	0.901033	0.925077	0.385921
	H80	H	0.603233	0.109199	0.911146
	H81	H	0.383116	0.103994	0.080927
	H82	H	0.604596	0.922806	0.084097
	H83	H	0.381136	0.931700	0.906267
	H84	H	0.602410	0.932438	0.086122
	H85	H	0.379426	0.101568	0.092051
	H86	H	0.601650	0.101460	0.907288
	H87	H	0.380262	0.926936	0.906743
	H88	H	0.900268	0.101796	0.607455
	H89	H	0.079863	0.111356	0.387006
	H90	H	0.077778	0.933984	0.607408
	H91	H	0.897802	0.929340	0.385626
	H92	H	0.080127	0.628030	0.908099
	H93	H	0.083897	0.402545	0.089721
	H94	H	0.901462	0.632399	0.090100
	H95	H	0.904850	0.406522	0.907666
	H96	H	0.404291	0.129202	0.588703
	H97	H	0.577885	0.906226	0.585285
	H98	H	0.584469	0.131239	0.406568
	H99	H	0.405240	0.906148	0.406991
	H100	H	0.587106	0.427599	0.110306
	H101	H	0.580380	0.607149	0.886363
	H102	H	0.404786	0.609316	0.107750
	H103	H	0.404262	0.434245	0.887487
	H104	H	0.103394	0.603187	0.407702
	H105	H	0.877682	0.603541	0.594913
	H106	H	0.106228	0.422229	0.591490
	H107	H	0.882534	0.433997	0.407909
	H108	H	0.910205	0.629171	0.088021
	H109	H	0.075938	0.405811	0.088988
	H110	H	0.080796	0.627957	0.909094
	H111	H	0.903710	0.405780	0.911172
	H112	H	0.075636	0.931991	0.605788
	H113	H	0.084509	0.108094	0.386346
	H114	H	0.905900	0.108000	0.607650
	H115	H	0.902897	0.929859	0.387455
	H116	H	0.606015	0.107718	0.902724
	H117	H	0.378079	0.112816	0.087419
	H118	H	0.605651	0.926500	0.093320
	H119	H	0.382132	0.929547	0.910676
	C120	C	0.370765	0.025699	0.618154
	C121	C	0.612188	1.008883	0.617948
	C122	C	0.612332	0.026547	0.375963
	C123	C	0.369798	1.008368	0.375960
	C124	C	0.614186	0.396169	0.005684
	C125	C	0.613545	0.638361	0.988766
	C126	C	0.370322	0.638062	0.004281
	C127	C	0.370828	0.395789	0.987705
	C128	C	0.000511	0.637985	0.376847
	C129	C	0.982734	0.638875	0.619272
	C130	C	-0.000860	0.397181	0.618960
	C131	C	0.983386	0.395929	0.376146
	C132	C	0.872198	0.527097	0.118554
	C133	C	0.113232	0.508372	0.117803
	C134	C	0.113449	0.525731	0.875189
	C135	C	0.871407	0.509246	0.876758
	C136	C	0.111680	0.897486	0.506222
	C137	C	0.113725	0.140246	0.489570
	C138	C	0.870220	0.138405	0.506063
	C139	C	0.868977	0.895781	0.488950
	C140	C	0.500956	0.138682	0.874992
	C141	C	0.483532	0.138249	0.118075
	C142	C	0.500612	0.895784	0.118204
	C143	C	0.483633	0.896338	0.875142
	C144	C	0.367117	0.908665	0.679078
	C145	C	0.615990	0.126021	0.678788
	C146	C	0.611790	0.907341	0.319189
	C147	C	0.368053	0.125995	0.316130
	C148	C	0.673946	0.394821	0.889042
	C149	C	0.675078	0.643505	0.104398
	C150	C	0.311475	0.639018	0.886959
	C151	C	0.309790	0.391791	0.103705
	C152	C	0.884512	0.699121	0.372890
	C153	C	0.099314	0.701019	0.622503
	C154	C	0.882156	0.336890	0.620982
	C155	C	0.101471	0.337873	0.376537
	C156	C	0.882871	0.393249	0.679923
	C157	C	0.099585	0.642796	0.680007
	C158	C	0.885330	0.642430	0.314357
	C159	C	0.101118	0.394189	0.317539
	C160	C	0.369069	0.697331	0.886972
	C161	C	0.615270	0.699156	0.104998
	C162	C	0.615543	0.337271	0.888476
	C163	C	0.368430	0.335301	0.104185
	C164	C	0.668952	0.907237	0.377251
	C165	C	0.673399	0.125902	0.621364
	C166	C	0.310095	0.908415	0.620806
	C167	C	0.310603	0.126442	0.373917
	C168	C	0.870264	0.408907	0.177712
	C169	C	0.116450	0.626014	0.177124
	C170	C	0.117202	0.409267	0.813625
	C171	C	0.869132	0.626623	0.816416
	C172	C	0.174762	0.891949	0.391273
	C173	C	0.174044	0.142313	0.606056
	C174	C	0.811644	0.140119	0.388723
	C175	C	0.808502	0.892779	0.605253
	C176	C	0.383828	0.198938	0.873121
	C177	C	0.601586	0.196555	0.118188
	C178	C	0.382297	0.837433	0.117927
	C179	C	0.599382	0.834352	0.870796
	C180	C	0.382830	0.894154	0.176747
	C181	C	0.600803	0.139758	0.177025
	C182	C	0.383704	0.141754	0.814907
	C183	C	0.599787	0.892522	0.813513
	C184	C	0.870002	0.197612	0.388779
	C185	C	0.115396	0.199279	0.606685
	C186	C	0.117227	0.834109	0.391549
	C187	C	0.866490	0.835282	0.605355
	C188	C	0.175057	0.409243	0.870594
	C189	C	0.172261	0.626385	0.117681
	C190	C	0.813214	0.408891	0.119746
	C191	C	0.811963	0.626674	0.874023
	C192	C	0.396619	0.107365	0.592504
	C193	C	0.586330	0.927230	0.592898
	C194	C	0.588725	0.109441	0.399298
	C195	C	0.394728	0.926494	0.401072
	C196	C	0.589779	0.420317	0.087400
	C197	C	0.588447	0.612217	0.907648
	C198	C	0.394823	0.613462	0.085786
	C199	C	0.396308	0.421701	0.906747
	C200	C	0.081318	0.611727	0.403278
	C201	C	0.901892	0.612500	0.593942
	C202	C	0.080758	0.422463	0.594042
	C203	C	0.901084	0.420048	0.399516
	C204	C	0.897682	0.608926	0.093575
	C205	C	0.087783	0.426108	0.093806
	C206	C	0.087910	0.607038	0.900992
	C207	C	0.896347	0.427134	0.901757
	C208	C	0.084893	0.924615	0.586202
	C209	C	0.088804	0.115551	0.408248
	C210	C	0.894501	0.113427	0.587518
	C211	C	0.893588	0.920984	0.407503
	C212	C	0.582326	0.113130	0.899764
	C213	C	0.401533	0.113261	0.093823
	C214	C	0.582687	0.920162	0.094656
	C215	C	0.402485	0.922296	0.900691
	Zn216	Zn	0.492036	0.017401	0.746156
	Zn217	Zn	0.491119	0.017096	0.247259
	Zn218	Zn	0.743118	0.518262	-0.002136
	Zn219	Zn	0.241420	0.516053	-0.003681
	Zn220	Zn	-0.008916	0.767367	0.497662
	Zn221	Zn	-0.008419	0.268139	0.498371
	Zn222	Zn	-0.008419	0.517458	0.748217
	Zn223	Zn	-0.006604	0.517618	0.247488
	Zn224	Zn	0.491716	0.767468	-0.003664
	Zn225	Zn	0.492348	0.267091	-0.003132
	Zn226	Zn	0.740344	0.017636	0.497469
	Zn227	Zn	0.241810	0.017653	0.497700
	N228	N	0.404073	0.982852	0.677743
	N229	N	0.578470	0.052294	0.676745
	N230	N	0.577627	0.982754	0.317890
	N231	N	0.404053	0.051449	0.316942
	N232	N	0.673439	0.430586	0.963196
	N233	N	0.674134	0.606318	0.031005
	N234	N	0.312020	0.602965	0.960918
	N235	N	0.310940	0.428614	0.030153
	N236	N	0.957343	0.696511	0.411202
	N237	N	0.025711	0.698766	0.585611
	N238	N	0.955637	0.339112	0.583731
	N239	N	0.027127	0.338608	0.412188
	N240	N	0.956761	0.429991	0.678908
	N241	N	0.026089	0.604976	0.678521
	N242	N	0.958586	0.604819	0.316925
	N243	N	0.026662	0.429569	0.317006
	N244	N	0.404805	0.697116	0.961043
	N245	N	0.577819	0.696461	0.031841
	N246	N	0.579334	0.337720	0.962188
	N247	N	0.405627	0.337431	0.030813
	N248	N	0.669612	0.982484	0.411554
	N249	N	0.671362	0.051996	0.584344
	N250	N	0.312086	0.982344	0.583935
	N251	N	0.311247	0.052156	0.410118
	N252	N	0.906283	0.483492	0.177258
	N253	N	0.080450	0.551380	0.177421
	N254	N	0.079447	0.482715	0.816234
	N255	N	0.905355	0.552268	0.817809
	N256	N	0.171367	0.930988	0.463434
	N257	N	0.173442	0.106509	0.531990
	N258	N	0.811509	0.104033	0.462789
	N259	N	0.809759	0.929633	0.531738
	N260	N	0.457793	0.197498	0.909569
	N261	N	0.527376	0.195875	0.082394
	N262	N	0.456585	0.838075	0.082368
	N263	N	0.526227	0.836617	0.908525
	N264	N	0.457440	0.929592	0.177264
	N265	N	0.525938	0.104570	0.177452
	N266	N	0.457734	0.105128	0.815563
	N267	N	0.526530	0.930209	0.815882
	N268	N	0.905521	0.197054	0.462814
	N269	N	0.078333	0.197973	0.533275
	N270	N	0.078404	0.837454	0.463930
	N271	N	0.903394	0.836799	0.531808
	N272	N	0.172839	0.482564	0.908372
	N273	N	0.170570	0.552028	0.081643
	N274	N	0.813685	0.483602	0.084025
	N275	N	0.813142	0.552519	0.910767
	O276	O	0.210473	1.047695	0.221686
	H277	H	0.199443	1.034348	0.230638
	H278	H	0.221810	1.044576	0.241703
	O279	O	0.287499	0.311910	0.707862
	H280	H	0.294783	0.352123	0.704063
	H281	H	0.311160	0.316544	0.692876
	O282	O	1.194024	0.239718	1.009881
	H283	H	1.205164	0.241798	1.040314
	H284	H	1.209372	0.248925	1.010610
	O285	O	0.664667	0.528238	0.565274
	H286	H	0.660201	0.523582	0.563956
	H287	H	0.663434	0.524478	0.549193
	O288	O	0.701951	0.321941	0.303165
	H289	H	0.727791	0.296753	0.274141
	H290	H	0.699062	0.363638	0.296815
	O291	O	0.422752	0.476585	0.514618
	H292	H	0.418474	0.473943	0.531369
	H293	H	0.436069	0.479531	0.508939
	O294	O	0.965513	-0.179317	1.212931
	H295	H	0.958398	-0.189873	1.207169
	H296	H	0.954840	-0.190168	1.212696
	O297	O	-0.222875	0.816552	0.001130
	H298	H	-0.235594	0.815705	0.023659
	H299	H	-0.221151	0.808802	0.028140
	O300	O	0.409150	0.351077	0.463553
	H301	H	0.410201	0.360830	0.467830
	H302	H	0.418539	0.351584	0.460126
	O303	O	0.514423	0.730433	0.712965
	H304	H	0.535999	0.741112	0.718612
	H305	H	0.519748	0.740656	0.713789
	O306	O	0.520525	0.684758	0.408662
	H307	H	0.526903	0.682925	0.418837
	H308	H	0.504626	0.678029	0.421582
	O309	O	0.308218	0.531011	0.424770
	H310	H	0.308066	0.529372	0.421731
	H311	H	0.301409	0.514745	0.406776
	O312	O	0.631390	0.373318	0.558061
	H313	H	0.630850	0.376512	0.544599
	H314	H	0.632868	0.366674	0.546517
	O315	O	1.018446	1.225960	1.216159
	H316	H	1.017557	1.218133	1.230063
	H317	H	1.017635	1.243129	1.217528
	O318	O	0.266880	0.307149	0.527909
	H319	H	0.239310	0.277972	0.529978
	H320	H	0.288364	0.301439	0.547648
	O321	O	0.333567	0.469792	0.516273
	H322	H	0.331228	0.456361	0.512803
	H323	H	0.329317	0.474648	0.511109
	O324	O	1.405838	1.452200	-0.722952
	H325	H	1.386265	1.457893	-0.734635
	H326	H	1.403104	1.440863	-0.721631
	O327	O	-0.237779	0.066880	1.063051
	H328	H	-0.232957	0.045524	1.043227
	H329	H	-0.236120	0.101272	1.043184
	O330	O	0.966374	-0.056002	0.812201
	H331	H	0.976229	-0.042450	0.808419
	H332	H	0.957026	-0.033278	0.801470
	O333	O	0.767432	0.235471	-0.036691
	H334	H	0.751029	0.253015	-0.060657
	H335	H	0.769830	0.245697	-0.055329
	O336	O	0.675188	0.465723	0.339423
	H337	H	0.674055	0.472124	0.334539
	H338	H	0.687509	0.471178	0.331565
	O339	O	1.183673	-0.171790	1.192621
	H340	H	1.162523	-0.154399	1.174407
	H341	H	1.162669	-0.157930	1.175647
	O342	O	-0.035649	0.013208	0.222343
	H343	H	-0.033691	0.011752	0.218408
	H344	H	-0.056566	-0.000779	0.219375
	O345	O	0.042939	1.082482	0.772270
	H346	H	0.056327	1.111033	0.773880
	H347	H	0.063598	1.087470	0.766395
	O348	O	0.179559	0.154398	-0.167686
	H349	H	0.173658	0.154689	-0.151645
	H350	H	0.195069	0.171587	-0.177597
	O351	O	1.209924	-0.018133	0.779109
	H352	H	1.219804	-0.008969	0.791590
	H353	H	1.229204	-0.034342	0.762336
	O354	O	0.028897	-0.198389	0.779668
	H355	H	0.011436	-0.191065	0.769483
	H356	H	0.014132	-0.203138	0.771195
	O357	O	0.555702	0.475859	0.705577
	H358	H	0.551605	0.480678	0.708741
	H359	H	0.556930	0.475317	0.703536
	O360	O	0.446896	0.734557	0.282776
	H361	H	0.448321	0.735166	0.265789
	H362	H	0.433919	0.741387	0.286797
	O363	O	0.009666	0.023519	0.209659
	H364	H	-0.003077	0.000894	0.206933
	H365	H	0.008891	0.020840	0.214073
	O366	O	0.780042	0.222765	0.787112
	H367	H	0.812815	0.220346	0.780395
	H368	H	0.771305	0.240588	0.773118
	O369	O	1.306640	0.332986	0.307845
	H370	H	1.291850	0.328697	0.293278
	H371	H	1.336735	0.331046	0.325801
	O372	O	0.673503	0.701105	0.409916
	H373	H	0.668556	0.690018	0.436179
	H374	H	0.674414	0.705091	0.420699
	O375	O	1.038534	0.208796	-0.101824
	H376	H	1.042069	0.217353	-0.075360
	H377	H	1.047340	0.203086	-0.109201
	O378	O	0.994645	0.006279	0.122950
	H379	H	0.981658	0.005868	0.115193
	H380	H	1.001911	0.003978	0.105300
	O381	O	0.198779	1.229817	1.208868
	H382	H	0.209429	1.218280	1.216420
	H383	H	0.174363	1.215319	1.206245
	O384	O	0.922538	0.211703	1.070053
	H385	H	0.912581	0.221035	1.050780
	H386	H	0.940964	0.206071	1.065992
	O387	O	1.029185	1.249228	-0.070528
	H388	H	1.033848	1.242033	-0.062502
	H389	H	1.048227	1.247940	-0.057882
	O390	O	0.423089	0.514849	0.705154
	H391	H	0.435772	0.532103	0.707027
	H392	H	0.416473	0.514220	0.706297
	O393	O	0.477474	0.453685	0.412533
	H394	H	0.475859	0.446422	0.405066
	H395	H	0.470640	0.444433	0.415152
	O396	O	0.215994	0.796216	0.955529
	H397	H	0.235706	0.776946	0.934965
	H398	H	0.219212	0.789894	0.930064
	O399	O	-0.069456	0.029764	0.886905
	H400	H	-0.059498	0.032365	0.883967
	H401	H	-0.066294	0.043644	0.888596
	O402	O	0.708936	0.550367	0.716374
	H403	H	0.732068	0.540998	0.726263
	H404	H	0.705370	0.542735	0.706257
	O405	O	1.053249	-0.194872	1.055899
	H406	H	1.037085	-0.188699	1.034317
	H407	H	1.064058	-0.205163	1.043969
	O408	O	-0.042363	0.023270	-0.071773
	H409	H	-0.039315	0.011812	-0.072438
	H410	H	-0.033152	0.015926	-0.090476
	O411	O	0.322021	0.625630	0.374390
	H412	H	0.326994	0.646002	0.372845
	H413	H	0.316420	0.628670	0.362399
	O414	O	0.528298	0.563629	0.380250
	H415	H	0.503807	0.559838	0.367464
	H416	H	0.519947	0.570265	0.397820
	O417	O	0.658131	0.433805	0.324446
	H418	H	0.659831	0.435887	0.300986
	H419	H	0.646840	0.434171	0.321444
	O420	O	0.514188	0.292171	0.295237
	H421	H	0.537645	0.284377	0.288128
	H422	H	0.537002	0.276660	0.285463
	O423	O	0.193682	0.022802	1.074560
	H424	H	0.202603	0.023823	1.073286
	H425	H	0.179292	0.001109	1.066755
	O426	O	0.535523	0.620473	0.549825
	H427	H	0.533476	0.613874	0.548272
	H428	H	0.535123	0.618515	0.546729
	O429	O	0.968179	0.845244	0.934639
	H430	H	0.950799	0.837197	0.940766
	H431	H	0.973577	0.841688	0.922451
	O432	O	0.681870	0.331934	0.689403
	H433	H	0.660903	0.341213	0.666228
	H434	H	0.683783	0.338939	0.681138
	O435	O	-0.087717	0.847876	0.038041
	H436	H	-0.095554	0.858002	0.037129
	H437	H	-0.097496	0.851219	0.042911
	O438	O	-0.195925	-0.170948	-0.189997
	H439	H	-0.194480	-0.152620	-0.164409
	H440	H	-0.185866	-0.161090	-0.194162
	O441	O	-0.224146	0.045309	-0.223286
	H442	H	-0.229125	0.060191	-0.215530
	H443	H	-0.248394	0.054920	-0.231027
	O444	O	0.792188	0.221264	0.198948
	H445	H	0.810952	0.195707	0.182781
	H446	H	0.808911	0.212724	0.180728
	O447	O	0.153699	0.883219	0.884846
	H448	H	0.135782	0.880280	0.873917
	H449	H	0.157167	0.913421	0.878207
	O450	O	-0.297771	0.724579	0.708336
	H451	H	-0.291851	0.710800	0.711786
	H452	H	-0.293638	0.719041	0.723696
	O453	O	0.389632	0.544340	0.587857
	H454	H	0.393465	0.557935	0.581941
	H455	H	0.397646	0.539434	0.593485
	O456	O	-0.231384	-0.018545	1.222398
	H457	H	-0.245807	-0.022328	1.226075
	H458	H	-0.248904	-0.008913	1.215082
	O459	O	0.683165	0.297381	0.496357
	H460	H	0.696778	0.294757	0.470878
	H461	H	0.692111	0.292517	0.476933
	O462	O	0.627343	0.721824	0.494599
	H463	H	0.625177	0.708518	0.500853
	H464	H	0.632907	0.734151	0.495912
	O465	O	0.595087	-0.372730	0.291370
	H466	H	0.575254	-0.387356	0.290371
	H467	H	0.581712	-0.381509	0.310208
	O468	O	0.263490	0.645797	0.494770
	H469	H	0.254536	0.651208	0.473864
	H470	H	0.261560	0.632131	0.478328
	O471	O	0.340597	0.712273	0.644274
	H472	H	0.336017	0.701993	0.633025
	H473	H	0.345155	0.710261	0.635682
	O474	O	0.288087	0.720419	0.747423
	H475	H	0.253217	0.718316	0.749104
	H476	H	0.300157	0.708833	0.719619
	O477	O	0.460992	0.300414	1.714847
	H478	H	0.460386	0.287198	1.725747
	H479	H	0.468731	0.298875	1.713148
	O480	O	-0.000482	0.219139	-0.188460
	H481	H	0.009251	0.237490	-0.203172
	H482	H	0.019797	0.232403	-0.160207
	O483	O	0.271215	0.510359	0.657600
	H484	H	0.258489	0.514684	0.653778
	H485	H	0.281151	0.526383	0.657011
	O486	O	1.215452	0.019165	0.982089
	H487	H	1.208022	0.012836	0.988348
	H488	H	1.223207	0.028150	0.975775
	O489	O	0.761264	0.979293	-0.065144
	H490	H	0.758611	0.965554	-0.062340
	H491	H	0.774638	0.973667	-0.071267
	O492	O	0.013453	0.024867	0.074267
	H493	H	0.020727	0.027500	0.071447
	H494	H	0.016124	0.007151	0.081938
	O495	O	0.282788	0.723408	1.287398
	H496	H	0.251162	0.758132	1.257541
	H497	H	0.306410	0.725634	1.307493
	O498	O	0.769549	0.801110	1.219280
	H499	H	0.776899	0.824616	1.234290
	H500	H	0.741697	0.777935	1.246058
	O501	O	0.720703	0.566276	0.430413
	H502	H	0.727867	0.583520	0.441177
	H503	H	0.708407	0.563484	0.415345
