data_Molecule from HDF5

_cell_length_a		16.481058
_cell_length_b		16.347879
_cell_length_c		16.290824
_cell_angle_alpha	90.101786
_cell_angle_beta	90.079816
_cell_angle_gamma	89.964494
_symmetry_space_group_name_H-M	'P 1'
_symmetry_Int_Tables_number		1

loop_
	_symmetry_equiv_pos_as_xyz
	x,y,z

loop_
	_atom_site_label
	_atom_site_type_symbol
	_atom_site_fract_x
	_atom_site_fract_y
	_atom_site_fract_z
	H0	H	0.396454	0.837619	0.716417
	H1	H	0.598262	0.159409	0.711497
	H2	H	0.603853	0.839118	0.273544
	H3	H	0.398140	0.160180	0.279189
	H4	H	0.717009	0.399295	0.836448
	H5	H	0.723008	0.609177	0.155157
	H6	H	0.278506	0.604529	0.836373
	H7	H	0.277930	0.394638	0.156642
	H8	H	0.841745	0.720523	0.389475
	H9	H	0.158999	0.718791	0.600694
	H10	H	0.841176	0.280282	0.597564
	H11	H	0.159598	0.277628	0.393443
	H12	H	0.840286	0.399548	0.713487
	H13	H	0.159053	0.602887	0.717135
	H14	H	0.841273	0.603358	0.275306
	H15	H	0.160022	0.395947	0.276993
	H16	H	0.397370	0.717210	0.835065
	H17	H	0.602393	0.719183	0.158202
	H18	H	0.599578	0.283308	0.835703
	H19	H	0.394433	0.279472	0.157112
	H20	H	0.722446	0.838454	0.386946
	H21	H	0.720531	0.156029	0.601450
	H22	H	0.279486	0.837889	0.601281
	H23	H	0.278060	0.157489	0.390716
	H24	H	0.898346	0.338988	0.213720
	H25	H	0.103225	0.659060	0.217481
	H26	H	0.099365	0.337363	0.782045
	H27	H	0.896700	0.659609	0.776669
	H28	H	0.221635	0.891759	0.335866
	H29	H	0.217902	0.099337	0.658114
	H30	H	0.780368	0.101988	0.335937
	H31	H	0.781601	0.893960	0.657156
	H32	H	0.340003	0.219299	0.893445
	H33	H	0.658748	0.219478	0.100081
	H34	H	0.341052	0.777906	0.102443
	H35	H	0.657885	0.778514	0.892749
	H36	H	0.340700	0.895965	0.216634
	H37	H	0.658776	0.102984	0.215945
	H38	H	0.339505	0.100618	0.777987
	H39	H	0.659157	0.897462	0.779363
	H40	H	0.898746	0.215619	0.335189
	H41	H	0.100074	0.213748	0.659384
	H42	H	0.104370	0.777223	0.334819
	H43	H	0.900070	0.781020	0.658279
	H44	H	0.219994	0.340512	0.892331
	H45	H	0.220879	0.658536	0.104580
	H46	H	0.779083	0.340711	0.101322
	H47	H	0.778279	0.659161	0.890661
	H48	H	0.411652	0.108989	0.581386
	H49	H	0.589863	0.881935	0.586637
	H50	H	0.591873	0.109747	0.413996
	H51	H	0.407151	0.883073	0.404375
	H52	H	0.591387	0.409942	0.113382
	H53	H	0.587758	0.588241	0.883081
	H54	H	0.409804	0.584818	0.109863
	H55	H	0.417473	0.416902	0.887706
	H56	H	0.110814	0.587763	0.414772
	H57	H	0.882908	0.594257	0.592595
	H58	H	0.116164	0.409183	0.594352
	H59	H	0.885759	0.403963	0.404928
	H60	H	0.117051	0.400036	0.588365
	H61	H	0.888165	0.592169	0.578100
	H62	H	0.111744	0.581798	0.403347
	H63	H	0.888261	0.407453	0.407741
	H64	H	0.412641	0.589805	0.110504
	H65	H	0.589236	0.590053	0.881797
	H66	H	0.590685	0.412881	0.111646
	H67	H	0.411019	0.401044	0.880582
	H68	H	0.594413	0.114028	0.406248
	H69	H	0.592417	0.881584	0.586053
	H70	H	0.402501	0.113831	0.584699
	H71	H	0.415956	0.886081	0.405599
	H72	H	0.910646	0.613968	0.085597
	H73	H	0.083889	0.385394	0.089087
	H74	H	0.091913	0.615921	0.906147
	H75	H	0.907446	0.385627	0.909157
	H76	H	0.084495	0.902989	0.610522
	H77	H	0.090592	0.083114	0.382476
	H78	H	0.905543	0.085984	0.612133
	H79	H	0.901121	0.913767	0.380693
	H80	H	0.612179	0.088350	0.903578
	H81	H	0.384723	0.094886	0.087224
	H82	H	0.614874	0.903001	0.086734
	H83	H	0.386071	0.909518	0.907452
	H84	H	0.608364	0.912025	0.076649
	H85	H	0.386930	0.089230	0.082380
	H86	H	0.615581	0.094056	0.900888
	H87	H	0.385885	0.909329	0.905741
	H88	H	0.913185	0.086236	0.610260
	H89	H	0.087260	0.088889	0.382164
	H90	H	0.097374	0.906941	0.612581
	H91	H	0.918425	0.917288	0.387090
	H92	H	0.085913	0.613282	0.906725
	H93	H	0.089465	0.387977	0.078664
	H94	H	0.910630	0.613179	0.085324
	H95	H	0.906258	0.384590	0.905781
	H96	H	0.410657	0.112775	0.591474
	H97	H	0.591661	0.881569	0.588560
	H98	H	0.586000	0.110586	0.407151
	H99	H	0.410310	0.886731	0.412654
	H100	H	0.588281	0.410496	0.111063
	H101	H	0.590389	0.588211	0.882371
	H102	H	0.407022	0.589321	0.112292
	H103	H	0.399828	0.415904	0.881695
	H104	H	0.116222	0.593622	0.404696
	H105	H	0.889468	0.580557	0.588657
	H106	H	0.112009	0.409455	0.583774
	H107	H	0.887453	0.408405	0.402811
	H108	H	0.910782	0.613977	0.085186
	H109	H	0.094525	0.382648	0.087409
	H110	H	0.090412	0.613306	0.911745
	H111	H	0.909724	0.385786	0.905746
	H112	H	0.088586	0.915422	0.606662
	H113	H	0.093237	0.088424	0.380046
	H114	H	0.909170	0.093115	0.612854
	H115	H	0.913519	0.900367	0.380292
	H116	H	0.613142	0.094094	0.908032
	H117	H	0.386278	0.087421	0.089321
	H118	H	0.611261	0.916972	0.089927
	H119	H	0.385383	0.907852	0.907062
	C120	C	0.377530	0.006056	0.617866
	C121	C	0.621159	0.988350	0.617505
	C122	C	0.621826	0.006285	0.375200
	C123	C	0.378991	0.990388	0.375339
	C124	C	0.620141	0.380345	0.005491
	C125	C	0.621082	0.621682	0.988177
	C126	C	0.377937	0.620127	0.004846
	C127	C	0.377497	0.378852	0.988639
	C128	C	0.008057	0.619634	0.375207
	C129	C	0.991909	0.620593	0.618496
	C130	C	0.009019	0.376871	0.618561
	C131	C	0.992424	0.375981	0.374318
	C132	C	0.878747	0.508350	0.117433
	C133	C	0.121319	0.490652	0.118214
	C134	C	0.120679	0.508252	0.876451
	C135	C	0.877475	0.491085	0.875008
	C136	C	0.121924	0.876012	0.504445
	C137	C	0.120842	0.117928	0.488464
	C138	C	0.878231	0.119249	0.505408
	C139	C	0.879654	0.877361	0.487946
	C140	C	0.508120	0.122226	0.873667
	C141	C	0.491206	0.121766	0.117857
	C142	C	0.507354	0.878147	0.117409
	C143	C	0.490744	0.877821	0.875583
	C144	C	0.377096	0.885713	0.677041
	C145	C	0.619464	0.110273	0.674124
	C146	C	0.623233	0.886832	0.313513
	C147	C	0.378116	0.111418	0.317141
	C148	C	0.677724	0.379899	0.884328
	C149	C	0.682048	0.625859	0.107915
	C150	C	0.318352	0.622568	0.884551
	C151	C	0.318005	0.376524	0.108833
	C152	C	0.888914	0.679837	0.372211
	C153	C	0.111365	0.679411	0.619526
	C154	C	0.888757	0.319446	0.617716
	C155	C	0.112214	0.317163	0.373975
	C156	C	0.888357	0.378609	0.675127
	C157	C	0.111373	0.621599	0.677540
	C158	C	0.888828	0.621714	0.314997
	C159	C	0.112269	0.375998	0.316166
	C160	C	0.377418	0.678888	0.883791
	C161	C	0.622025	0.680778	0.109224
	C162	C	0.619333	0.322588	0.883886
	C163	C	0.376013	0.318936	0.109000
	C164	C	0.682068	0.886475	0.370466
	C165	C	0.680132	0.108695	0.619317
	C166	C	0.318777	0.885831	0.619764
	C167	C	0.318632	0.110137	0.372983
	C168	C	0.878549	0.387364	0.175215
	C169	C	0.122481	0.610808	0.178395
	C170	C	0.120014	0.386527	0.819140
	C171	C	0.877420	0.611685	0.816059
	C172	C	0.181392	0.873713	0.383612
	C173	C	0.178585	0.118290	0.609843
	C174	C	0.819797	0.120311	0.384333
	C175	C	0.821088	0.875393	0.609266
	C176	C	0.387699	0.179876	0.873983
	C177	C	0.610993	0.180070	0.119052
	C178	C	0.388429	0.817950	0.120573
	C179	C	0.610427	0.818480	0.874150
	C180	C	0.388170	0.877023	0.177435
	C181	C	0.610982	0.122036	0.176712
	C182	C	0.387565	0.120687	0.816575
	C183	C	0.611272	0.877903	0.817998
	C184	C	0.878448	0.177300	0.383946
	C185	C	0.119871	0.175118	0.610445
	C186	C	0.122821	0.816838	0.383233
	C187	C	0.879804	0.819068	0.609598
	C188	C	0.179675	0.387786	0.874366
	C189	C	0.180852	0.610666	0.121796
	C190	C	0.819040	0.388470	0.119370
	C191	C	0.818739	0.611649	0.872966
	C192	C	0.401406	0.090146	0.592943
	C193	C	0.597973	0.903672	0.593860
	C194	C	0.597528	0.089613	0.401475
	C195	C	0.403793	0.906942	0.400349
	C196	C	0.596672	0.404301	0.090128
	C197	C	0.596298	0.596234	0.904149
	C198	C	0.402718	0.595254	0.089004
	C199	C	0.402309	0.403979	0.905061
	C200	C	0.091235	0.594898	0.400251
	C201	C	0.908394	0.596004	0.593697
	C202	C	0.093002	0.399725	0.595382
	C203	C	0.908813	0.399841	0.398133
	C204	C	0.903385	0.592053	0.092571
	C205	C	0.096584	0.407005	0.092455
	C206	C	0.096627	0.592302	0.901001
	C207	C	0.900904	0.407273	0.899723
	C208	C	0.097421	0.901247	0.588005
	C209	C	0.097035	0.093836	0.403614
	C210	C	0.902209	0.095336	0.589774
	C211	C	0.903967	0.902754	0.404568
	C212	C	0.591809	0.099009	0.897336
	C213	C	0.407716	0.097678	0.093541
	C214	C	0.590038	0.903365	0.091699
	C215	C	0.407480	0.901931	0.899798
	Zn216	Zn	0.499622	-0.002125	0.745768
	Zn217	Zn	0.500065	-0.000404	0.246789
	Zn218	Zn	0.749388	0.500912	-0.002899
	Zn219	Zn	0.248686	0.499808	-0.002984
	Zn220	Zn	-0.000085	0.748540	0.495839
	Zn221	Zn	0.000891	0.247065	0.496540
	Zn222	Zn	0.000246	0.499209	0.747700
	Zn223	Zn	0.000439	0.498839	0.245961
	Zn224	Zn	0.499294	0.748572	-0.003242
	Zn225	Zn	0.499556	0.250916	-0.003287
	Zn226	Zn	0.750307	-0.003118	0.496801
	Zn227	Zn	0.249919	-0.002562	0.495868
	N228	N	0.412950	0.961605	0.676027
	N229	N	0.583532	0.034460	0.673022
	N230	N	0.586520	0.962244	0.316298
	N231	N	0.414957	0.036152	0.318388
	N232	N	0.678350	0.414856	0.961000
	N233	N	0.681688	0.589761	0.031635
	N234	N	0.318391	0.586978	0.961000
	N235	N	0.319015	0.412990	0.033037
	N236	N	0.964154	0.678990	0.408531
	N237	N	0.035836	0.678966	0.583615
	N238	N	0.964806	0.318358	0.583226
	N239	N	0.036539	0.316948	0.409242
	N240	N	0.964186	0.413575	0.675644
	N241	N	0.035841	0.586098	0.677242
	N242	N	0.963820	0.584819	0.316895
	N243	N	0.036773	0.411474	0.316362
	N244	N	0.413645	0.677645	0.959738
	N245	N	0.584871	0.678210	0.033697
	N246	N	0.584492	0.322570	0.960389
	N247	N	0.412346	0.320054	0.033109
	N248	N	0.681328	0.961800	0.408101
	N249	N	0.681376	0.031811	0.584980
	N250	N	0.319044	0.961816	0.583793
	N251	N	0.318992	0.033842	0.408417
	N252	N	0.914606	0.462982	0.174445
	N253	N	0.086195	0.535140	0.176217
	N254	N	0.084201	0.462478	0.820223
	N255	N	0.913251	0.535884	0.817306
	N256	N	0.181136	0.909644	0.460049
	N257	N	0.179420	0.083585	0.532869
	N258	N	0.819488	0.085111	0.460970
	N259	N	0.820414	0.910507	0.532641
	N260	N	0.463635	0.181095	0.908659
	N261	N	0.535422	0.180205	0.083415
	N262	N	0.463426	0.818646	0.084154
	N263	N	0.534653	0.818520	0.909465
	N264	N	0.463220	0.913807	0.175595
	N265	N	0.535381	0.086665	0.176164
	N266	N	0.463472	0.085885	0.816082
	N267	N	0.535978	0.914152	0.818696
	N268	N	0.914089	0.177016	0.460257
	N269	N	0.084844	0.174718	0.533804
	N270	N	0.086788	0.817978	0.459152
	N271	N	0.915216	0.819974	0.533239
	N272	N	0.180190	0.464448	0.909100
	N273	N	0.180197	0.534874	0.084995
	N274	N	0.818878	0.464962	0.084406
	N275	N	0.818445	0.535633	0.908867
	O276	O	0.388226	0.429793	0.307337
	H277	H	0.379020	0.430620	0.300988
	H278	H	0.388239	0.412755	0.296399
	O279	O	0.348202	0.590496	0.616000
	H280	H	0.342128	0.595551	0.603436
	H281	H	0.349653	0.596632	0.610738
	O282	O	0.708219	0.704488	0.597031
	H283	H	0.689491	0.687296	0.620988
	H284	H	0.736603	0.722768	0.610219
	O285	O	0.937869	1.013881	0.096396
	H286	H	0.943037	0.992229	0.105241
	H287	H	0.924600	1.010875	0.092263
	O288	O	0.177006	0.189870	0.169216
	H289	H	0.188727	0.203435	0.169584
	H290	H	0.178588	0.172011	0.155014
	O291	O	0.817206	-0.013002	0.892662
	H292	H	0.825945	-0.010826	0.881574
	H293	H	0.811856	-0.004500	0.888272
	O294	O	0.805997	1.043214	1.129721
	H295	H	0.799492	1.033442	1.116746
	H296	H	0.809204	1.046186	1.128327
	O297	O	0.705882	0.581518	0.516307
	H298	H	0.718546	0.593396	0.528685
	H299	H	0.696339	0.572228	0.531751
	O300	O	0.304290	0.466683	0.453164
	H301	H	0.292922	0.451308	0.484607
	H302	H	0.312779	0.474994	0.444493
	O303	O	0.426216	0.530767	0.337117
	H304	H	0.425260	0.524188	0.342062
	H305	H	0.405127	0.535382	0.328544
	O306	O	0.040432	-0.198769	1.005827
	H307	H	0.059805	-0.204706	1.001109
	H308	H	0.038313	-0.193395	1.024629
	O309	O	0.944392	-0.048011	0.012159
	H310	H	0.952447	-0.039097	0.006039
	H311	H	0.941344	-0.063250	0.018460
	O312	O	0.339618	0.309871	0.627963
	H313	H	0.372178	0.304554	0.631149
	H314	H	0.330115	0.310905	0.623110
	O315	O	0.470437	0.520321	0.509960
	H316	H	0.469466	0.533496	0.501670
	H317	H	0.476178	0.519190	0.503414
	O318	O	0.016625	-0.135019	0.126709
	H319	H	0.018733	-0.140205	0.125003
	H320	H	0.027141	-0.141466	0.145501
	O321	O	0.421760	0.300075	0.696430
	H322	H	0.421960	0.294384	0.699104
	H323	H	0.435438	0.294473	0.712734
	O324	O	1.069115	-0.152743	0.918635
	H325	H	1.056317	-0.157289	0.913522
	H326	H	1.069577	-0.158415	0.919419
	O327	O	0.443070	0.608276	0.703200
	H328	H	0.441500	0.633932	0.707633
	H329	H	0.432350	0.609448	0.697946
	O330	O	-0.188439	0.837474	1.082850
	H331	H	-0.199258	0.832172	1.079272
	H332	H	-0.189526	0.855926	1.073770
	O333	O	0.035246	0.972746	-0.138168
	H334	H	0.040980	0.978404	-0.140816
	H335	H	0.036185	0.975292	-0.123533
	O336	O	1.172977	1.078870	-0.100828
	H337	H	1.186908	1.066315	-0.104066
	H338	H	1.167560	1.074645	-0.099326
	O339	O	0.153546	0.982407	0.893042
	H340	H	0.143109	0.981715	0.892629
	H341	H	0.142011	0.984972	0.906568
	O342	O	0.410710	0.683604	0.311118
	H343	H	0.409289	0.684435	0.305066
	H344	H	0.425832	0.684577	0.306870
	O345	O	-0.016720	0.052747	0.914857
	H346	H	-0.012934	0.049753	0.919035
	H347	H	-0.014080	0.051235	0.911521
	O348	O	0.574112	0.318778	0.333530
	H349	H	0.585010	0.315232	0.341218
	H350	H	0.581808	0.325082	0.313440
	O351	O	0.290134	0.708423	0.441886
	H352	H	0.291851	0.697357	0.407266
	H353	H	0.264006	0.730649	0.438547
	O354	O	1.133621	1.031290	1.119868
	H355	H	1.150302	1.024511	1.121541
	H356	H	1.129607	1.044352	1.122087
	O357	O	0.037211	0.005939	0.078351
	H358	H	0.052153	0.005738	0.087401
	H359	H	0.047005	0.024037	0.080790
	O360	O	0.467497	0.399900	0.386463
	H361	H	0.478805	0.401699	0.396840
	H362	H	0.473274	0.391830	0.397043
	O363	O	0.877921	0.197216	-0.203812
	H364	H	0.882594	0.189239	-0.210851
	H365	H	0.893820	0.204761	-0.199083
	O366	O	0.116779	-0.168217	0.858950
	H367	H	0.107631	-0.156234	0.858232
	H368	H	0.111016	-0.156933	0.845585
	O369	O	1.533601	0.419993	0.499821
	H370	H	1.549767	0.410132	0.505981
	H371	H	1.523418	0.424286	0.500528
	O372	O	0.706779	0.304155	0.476233
	H373	H	0.722984	0.299255	0.467767
	H374	H	0.706703	0.301592	0.439717
	O375	O	-0.126215	0.134774	1.048912
	H376	H	-0.116066	0.140238	1.039529
	H377	H	-0.112380	0.129217	1.039481
	O378	O	0.617851	0.480740	0.304363
	H379	H	0.631890	0.495980	0.307651
	H380	H	0.620435	0.488623	0.302246
	O381	O	-0.116261	0.831643	0.195220
	H382	H	-0.138404	0.829569	0.196066
	H383	H	-0.113892	0.814788	0.202665
	O384	O	0.668513	0.383918	0.664962
	H385	H	0.669339	0.388587	0.643607
	H386	H	0.656081	0.376154	0.673352
	O387	O	0.309514	0.445464	0.607562
	H388	H	0.316615	0.412354	0.612498
	H389	H	0.291580	0.445878	0.629298
	O390	O	1.088241	0.854824	-0.091344
	H391	H	1.093286	0.837294	-0.080264
	H392	H	1.080545	0.859319	-0.120087
	O393	O	0.888944	0.202524	1.051751
	H394	H	0.887542	0.225372	1.057508
	H395	H	0.898068	0.202362	1.035316
	O396	O	0.490881	0.422149	0.571363
	H397	H	0.493563	0.421727	0.560804
	H398	H	0.486328	0.432935	0.566080
	O399	O	0.565949	0.304512	0.468438
	H400	H	0.575387	0.303316	0.457055
	H401	H	0.579492	0.300228	0.463274
	O402	O	1.000273	1.082949	0.162488
	H403	H	0.985464	1.084828	0.164406
	H404	H	0.987761	1.091901	0.159610
	O405	O	0.465015	0.635396	0.300315
	H406	H	0.477243	0.630447	0.292717
	H407	H	0.488121	0.635771	0.305411
	O408	O	0.359174	0.295976	0.534903
	H409	H	0.367290	0.304931	0.555322
	H410	H	0.355473	0.278862	0.529728
	O411	O	1.121164	1.054394	1.129778
	H412	H	1.129233	1.067214	1.125188
	H413	H	1.128022	1.049508	1.137199
	O414	O	0.597193	0.495918	0.687590
	H415	H	0.589411	0.489917	0.671428
	H416	H	0.589112	0.485232	0.692889
	O417	O	0.106967	1.101760	0.981152
	H418	H	0.099502	1.099186	0.977827
	H419	H	0.113008	1.098671	0.982196
	O420	O	-0.205921	1.121101	0.839263
	H421	H	-0.207348	1.143802	0.823279
	H422	H	-0.203175	1.131418	0.823161
	O423	O	-0.000717	1.087837	-0.142240
	H424	H	-0.006235	1.078368	-0.136009
	H425	H	-0.005241	1.083089	-0.142616
	O426	O	0.482287	0.694756	0.546441
	H427	H	0.475094	0.692084	0.547177
	H428	H	0.470055	0.700697	0.536772
	O429	O	0.610451	0.635086	0.649818
	H430	H	0.614068	0.615538	0.653715
	H431	H	0.595757	0.637748	0.641118
	O432	O	0.558432	0.605654	0.539139
	H433	H	0.567107	0.601514	0.534965
	H434	H	0.551327	0.602752	0.552940
	O435	O	0.004473	-0.039354	-0.066545
	H436	H	0.003673	-0.033118	-0.060625
	H437	H	0.015725	-0.048890	-0.043629
	O438	O	-0.443935	1.659885	1.409958
	H439	H	-0.429660	1.668255	1.427679
	H440	H	-0.450720	1.660235	1.420389
	O441	O	0.694797	0.369850	0.343119
	H442	H	0.706386	0.401430	0.330210
	H443	H	0.676915	0.361664	0.328904
