data_Molecule from HDF5

_cell_length_a		16.397964
_cell_length_b		16.438898
_cell_length_c		16.333953
_cell_angle_alpha	89.989621
_cell_angle_beta	89.794643
_cell_angle_gamma	89.991114
_symmetry_space_group_name_H-M	'P 1'
_symmetry_Int_Tables_number		1

loop_
	_symmetry_equiv_pos_as_xyz
	x,y,z

loop_
	_atom_site_label
	_atom_site_type_symbol
	_atom_site_fract_x
	_atom_site_fract_y
	_atom_site_fract_z
	H0	H	0.388762	0.845374	0.719594
	H1	H	0.607893	0.158791	0.721609
	H2	H	0.601002	0.843836	0.276122
	H3	H	0.387591	0.160062	0.270037
	H4	H	0.719834	0.394459	0.837154
	H5	H	0.718567	0.610495	0.152235
	H6	H	0.272139	0.610095	0.837181
	H7	H	0.273478	0.393963	0.154366
	H8	H	0.839051	0.725240	0.390782
	H9	H	0.153980	0.727533	0.606292
	H10	H	0.839012	0.277547	0.604140
	H11	H	0.154543	0.277856	0.385247
	H12	H	0.840573	0.391048	0.722799
	H13	H	0.155143	0.607823	0.717461
	H14	H	0.837789	0.606819	0.276185
	H15	H	0.155052	0.395607	0.270652
	H16	H	0.387749	0.725715	0.836607
	H17	H	0.601136	0.724581	0.152847
	H18	H	0.607549	0.276259	0.838862
	H19	H	0.388162	0.277434	0.153733
	H20	H	0.720653	0.846287	0.387789
	H21	H	0.722150	0.159664	0.605188
	H22	H	0.271600	0.845872	0.605515
	H23	H	0.272051	0.160085	0.386401
	H24	H	0.892335	0.342677	0.215791
	H25	H	0.100710	0.661175	0.215952
	H26	H	0.103830	0.343288	0.774670
	H27	H	0.888580	0.658165	0.769796
	H28	H	0.217177	0.897956	0.334879
	H29	H	0.219183	0.110715	0.653188
	H30	H	0.775882	0.109716	0.334984
	H31	H	0.772553	0.896943	0.653567
	H32	H	0.338764	0.225686	0.889571
	H33	H	0.654647	0.225042	0.103484
	H34	H	0.337028	0.781882	0.101522
	H35	H	0.654413	0.780440	0.886810
	H36	H	0.337186	0.899017	0.216647
	H37	H	0.656107	0.106934	0.216359
	H38	H	0.339417	0.111750	0.771980
	H39	H	0.655272	0.897817	0.772561
	H40	H	0.892387	0.223041	0.334732
	H41	H	0.103712	0.225664	0.653127
	H42	H	0.102589	0.780594	0.336344
	H43	H	0.886331	0.778468	0.653746
	H44	H	0.218675	0.343608	0.890618
	H45	H	0.222070	0.658331	0.107158
	H46	H	0.774495	0.343313	0.101376
	H47	H	0.774198	0.660041	0.886578
	H48	H	0.408138	0.117052	0.586953
	H49	H	0.582000	0.895340	0.572959
	H50	H	0.583993	0.116634	0.405035
	H51	H	0.408355	0.890155	0.404849
	H52	H	0.580765	0.417113	0.107077
	H53	H	0.585414	0.592751	0.879597
	H54	H	0.410813	0.591587	0.106888
	H55	H	0.407458	0.419520	0.883750
	H56	H	0.107036	0.591048	0.416942
	H57	H	0.883741	0.587608	0.588632
	H58	H	0.109319	0.418561	0.586428
	H59	H	0.883232	0.413341	0.404001
	H60	H	0.111853	0.408858	0.584850
	H61	H	0.883304	0.595193	0.580352
	H62	H	0.110570	0.583487	0.399035
	H63	H	0.883659	0.409365	0.408359
	H64	H	0.407763	0.594538	0.110107
	H65	H	0.585488	0.590037	0.880659
	H66	H	0.582913	0.410705	0.109643
	H67	H	0.414843	0.414505	0.884923
	H68	H	0.586538	0.115574	0.407797
	H69	H	0.593574	0.887950	0.582917
	H70	H	0.413885	0.112118	0.580659
	H71	H	0.408485	0.890738	0.407963
	H72	H	0.904881	0.614100	0.079826
	H73	H	0.092512	0.387763	0.081941
	H74	H	0.083970	0.614112	0.908764
	H75	H	0.912378	0.391037	0.908597
	H76	H	0.086906	0.913023	0.610558
	H77	H	0.083541	0.093998	0.380268
	H78	H	0.908457	0.090649	0.608063
	H79	H	0.917018	0.922227	0.387366
	H80	H	0.606898	0.092789	0.918599
	H81	H	0.383866	0.085758	0.089070
	H82	H	0.609331	0.912263	0.080142
	H83	H	0.384761	0.916038	0.910179
	H84	H	0.610289	0.915979	0.086839
	H85	H	0.380875	0.096970	0.084019
	H86	H	0.606389	0.078706	0.906550
	H87	H	0.382622	0.916104	0.903650
	H88	H	0.908927	0.089926	0.607947
	H89	H	0.088165	0.089951	0.380259
	H90	H	0.085505	0.917867	0.607753
	H91	H	0.914406	0.905422	0.380579
	H92	H	0.085929	0.614556	0.908450
	H93	H	0.081311	0.387331	0.089971
	H94	H	0.903518	0.617098	0.087957
	H95	H	0.906105	0.389876	0.912711
	H96	H	0.405061	0.114939	0.578233
	H97	H	0.578027	0.891324	0.588515
	H98	H	0.586973	0.117743	0.405089
	H99	H	0.405690	0.889698	0.407552
	H100	H	0.587296	0.416354	0.109107
	H101	H	0.583221	0.591399	0.880745
	H102	H	0.406457	0.590096	0.108257
	H103	H	0.407770	0.410974	0.880515
	H104	H	0.115140	0.601812	0.403160
	H105	H	0.887437	0.585563	0.578288
	H106	H	0.107033	0.413936	0.577434
	H107	H	0.885086	0.415067	0.409235
	H108	H	0.911026	0.614493	0.085191
	H109	H	0.080807	0.393200	0.077639
	H110	H	0.084237	0.614944	0.906934
	H111	H	0.906211	0.388084	0.905606
	H112	H	0.081251	0.913476	0.608077
	H113	H	0.082835	0.088372	0.382926
	H114	H	0.909366	0.091093	0.607281
	H115	H	0.900818	0.917223	0.381011
	H116	H	0.613082	0.095171	0.901755
	H117	H	0.387081	0.088582	0.077193
	H118	H	0.611915	0.908599	0.086226
	H119	H	0.382059	0.910718	0.907385
	C120	C	0.375208	0.011210	0.616719
	C121	C	0.618612	0.994965	0.616138
	C122	C	0.618389	0.012123	0.373548
	C123	C	0.374457	0.994536	0.373192
	C124	C	0.617986	0.380623	0.004377
	C125	C	0.617431	0.624381	0.985254
	C126	C	0.374008	0.624828	0.003935
	C127	C	0.376623	0.381433	0.987883
	C128	C	0.005941	0.624114	0.374371
	C129	C	0.988816	0.623042	0.616826
	C130	C	0.005501	0.379752	0.617141
	C131	C	0.988824	0.380706	0.373651
	C132	C	0.874173	0.510568	0.117211
	C133	C	0.118179	0.493500	0.117248
	C134	C	0.118305	0.509973	0.874957
	C135	C	0.875027	0.493373	0.873986
	C136	C	0.117606	0.881766	0.503880
	C137	C	0.118381	0.124375	0.485650
	C138	C	0.875555	0.124076	0.502812
	C139	C	0.876384	0.882130	0.487471
	C140	C	0.504950	0.123473	0.874954
	C141	C	0.488440	0.123229	0.116997
	C142	C	0.505077	0.880754	0.116595
	C143	C	0.487669	0.881298	0.873185
	C144	C	0.371179	0.892943	0.679233
	C145	C	0.623853	0.112163	0.679905
	C146	C	0.620063	0.892096	0.314728
	C147	C	0.370784	0.112988	0.311394
	C148	C	0.679509	0.376867	0.884841
	C149	C	0.678084	0.627940	0.104504
	C150	C	0.312156	0.627951	0.885080
	C151	C	0.314473	0.377146	0.106945
	C152	C	0.886393	0.684756	0.372272
	C153	C	0.106764	0.685853	0.622313
	C154	C	0.886842	0.317814	0.621807
	C155	C	0.107571	0.319197	0.368722
	C156	C	0.887556	0.374469	0.680953
	C157	C	0.107463	0.626315	0.678055
	C158	C	0.885769	0.625834	0.315299
	C159	C	0.107726	0.377708	0.311637
	C160	C	0.369981	0.685690	0.884565
	C161	C	0.619693	0.684984	0.104942
	C162	C	0.623575	0.317799	0.885892
	C163	C	0.371541	0.318848	0.106585
	C164	C	0.679375	0.893192	0.370648
	C165	C	0.681049	0.112738	0.621511
	C166	C	0.312699	0.893126	0.622146
	C167	C	0.312774	0.113046	0.369212
	C168	C	0.873203	0.390868	0.176601
	C169	C	0.119868	0.612874	0.177288
	C170	C	0.121166	0.390997	0.814651
	C171	C	0.871323	0.611162	0.811039
	C172	C	0.177583	0.879472	0.383142
	C173	C	0.179092	0.128031	0.605334
	C174	C	0.815897	0.126802	0.382863
	C175	C	0.813503	0.878845	0.606448
	C176	C	0.386452	0.185419	0.871501
	C177	C	0.607187	0.184617	0.120750
	C178	C	0.384959	0.821436	0.119539
	C179	C	0.606887	0.820524	0.869309
	C180	C	0.385086	0.879724	0.176938
	C181	C	0.607909	0.125874	0.177168
	C182	C	0.386528	0.128318	0.813030
	C183	C	0.607342	0.878763	0.812321
	C184	C	0.873941	0.183741	0.382743
	C185	C	0.121832	0.185685	0.605191
	C186	C	0.120618	0.820922	0.383771
	C187	C	0.870235	0.819980	0.606448
	C188	C	0.178890	0.391209	0.872236
	C189	C	0.180325	0.611468	0.122598
	C190	C	0.814203	0.391121	0.119697
	C191	C	0.813944	0.612027	0.869158
	C192	C	0.401464	0.093193	0.589651
	C193	C	0.592001	0.912898	0.589158
	C194	C	0.593109	0.095097	0.398629
	C195	C	0.400053	0.911942	0.399399
	C196	C	0.591197	0.407171	0.087015
	C197	C	0.592043	0.598644	0.902070
	C198	C	0.400456	0.599194	0.086883
	C199	C	0.402764	0.407527	0.904873
	C200	C	0.089223	0.599140	0.399100
	C201	C	0.906356	0.596978	0.590305
	C202	C	0.087908	0.406062	0.590404
	C203	C	0.905814	0.405625	0.399677
	C204	C	0.899202	0.593634	0.091684
	C205	C	0.092455	0.411018	0.090700
	C206	C	0.092121	0.592934	0.900743
	C207	C	0.900877	0.411080	0.901145
	C208	C	0.092085	0.907220	0.587025
	C209	C	0.092476	0.098360	0.402953
	C210	C	0.901373	0.098025	0.586166
	C211	C	0.903051	0.907657	0.404769
	C212	C	0.587373	0.096426	0.901240
	C213	C	0.405595	0.097735	0.090905
	C214	C	0.588616	0.905124	0.091591
	C215	C	0.404789	0.906733	0.899405
	Zn216	Zn	0.496804	0.003065	0.745392
	Zn217	Zn	0.497036	0.002463	0.245199
	Zn218	Zn	0.745656	0.502120	-0.005231
	Zn219	Zn	0.246897	0.501708	-0.003854
	Zn220	Zn	-0.002968	0.752447	0.496463
	Zn221	Zn	-0.003354	0.251820	0.494479
	Zn222	Zn	-0.002860	0.501296	0.745907
	Zn223	Zn	-0.003453	0.502513	0.245810
	Zn224	Zn	0.495843	0.752813	-0.005680
	Zn225	Zn	0.497280	0.252167	-0.003986
	Zn226	Zn	0.747486	0.003439	0.494827
	Zn227	Zn	0.246156	0.002832	0.495203
	N228	N	0.409257	0.967354	0.676028
	N229	N	0.585427	0.037956	0.676409
	N230	N	0.582871	0.967002	0.316348
	N231	N	0.408537	0.038373	0.313961
	N232	N	0.676320	0.415189	0.959496
	N233	N	0.676813	0.591050	0.029156
	N234	N	0.314462	0.590785	0.960517
	N235	N	0.317477	0.415442	0.032194
	N236	N	0.962129	0.683890	0.408003
	N237	N	0.031789	0.684109	0.585065
	N238	N	0.961169	0.320856	0.582800
	N239	N	0.032883	0.321378	0.407079
	N240	N	0.962301	0.412266	0.678140
	N241	N	0.033043	0.588096	0.674906
	N242	N	0.961117	0.589085	0.316322
	N243	N	0.033095	0.415408	0.314835
	N244	N	0.407599	0.683844	0.959478
	N245	N	0.582860	0.683132	0.029501
	N246	N	0.585884	0.320173	0.961132
	N247	N	0.409668	0.321563	0.031569
	N248	N	0.678513	0.968796	0.406615
	N249	N	0.677697	0.038879	0.582264
	N250	N	0.314804	0.967740	0.584118
	N251	N	0.315174	0.038596	0.407286
	N252	N	0.909324	0.466196	0.175465
	N253	N	0.081926	0.538457	0.174069
	N254	N	0.084355	0.466207	0.816143
	N255	N	0.908229	0.536273	0.813781
	N256	N	0.176083	0.916383	0.458746
	N257	N	0.177282	0.090684	0.530052
	N258	N	0.816598	0.090732	0.458898
	N259	N	0.817339	0.916984	0.531775
	N260	N	0.461256	0.182614	0.908892
	N261	N	0.531829	0.183172	0.084167
	N262	N	0.460599	0.821963	0.082756
	N263	N	0.531504	0.821947	0.906368
	N264	N	0.460684	0.915727	0.175417
	N265	N	0.533004	0.088535	0.175014
	N266	N	0.461391	0.090607	0.814985
	N267	N	0.532002	0.915437	0.814119
	N268	N	0.910253	0.181958	0.458404
	N269	N	0.085076	0.183769	0.529740
	N270	N	0.084322	0.821981	0.459780
	N271	N	0.908864	0.821942	0.531674
	N272	N	0.177645	0.466533	0.908525
	N273	N	0.179442	0.536194	0.085927
	N274	N	0.814394	0.466781	0.083667
	N275	N	0.816197	0.537747	0.907614
	O276	O	0.675202	0.330181	0.317386
	H277	H	0.622810	0.317084	0.304769
	H278	H	0.682596	0.340886	0.341471
	O279	O	0.402672	0.499824	0.700482
	H280	H	0.398033	0.486182	0.719446
	H281	H	0.436367	0.518736	0.704241
	O282	O	0.672936	0.673338	0.662716
	H283	H	0.626685	0.684728	0.672843
	H284	H	0.682978	0.623443	0.678253
	O285	O	0.947378	0.946777	0.047378
	H286	H	0.944062	0.960421	0.041630
	H287	H	0.967358	0.957424	0.045277
	O288	O	-0.082728	0.082895	0.044186
	H289	H	-0.089117	0.091568	0.048600
	H290	H	-0.075766	0.076212	0.049616
	O291	O	1.063835	-0.115212	0.942650
	H292	H	1.079330	-0.128265	0.947819
	H293	H	1.056694	-0.117272	0.958337
	O294	O	0.963191	0.900208	0.885998
	H295	H	0.960701	0.914292	0.892371
	H296	H	0.950913	0.905461	0.894621
	O297	O	0.700769	0.706071	0.502288
	H298	H	0.700749	0.727744	0.513104
	H299	H	0.700997	0.693462	0.541102
	O300	O	0.296497	0.517435	0.641263
	H301	H	0.293358	0.524687	0.634149
	H302	H	0.282959	0.518870	0.651766
	O303	O	0.294829	0.522344	0.294126
	H304	H	0.336888	0.502419	0.289214
	H305	H	0.267337	0.516052	0.269923
	O306	O	0.015567	-0.191194	1.111769
	H307	H	0.000008	-0.189703	1.127046
	H308	H	0.012586	-0.177566	1.121750
	O309	O	0.870792	-0.150895	0.198141
	H310	H	0.846172	-0.156947	0.219682
	H311	H	0.855930	-0.139411	0.191252
	O312	O	0.323644	0.322119	0.674140
	H313	H	0.308942	0.372520	0.685654
	H314	H	0.319585	0.312244	0.632431
	O315	O	0.363276	0.441867	0.454859
	H316	H	0.375448	0.459277	0.461125
	H317	H	0.349589	0.469751	0.468544
	O318	O	-0.064380	0.165611	-0.095173
	H319	H	-0.065084	0.169058	-0.094594
	H320	H	-0.047916	0.167445	-0.090145
	O321	O	0.515536	0.506269	0.625299
	H322	H	0.523371	0.490832	0.621286
	H323	H	0.526856	0.502066	0.638828
	O324	O	0.910771	-0.144130	1.064287
	H325	H	0.902007	-0.143393	1.077683
	H326	H	0.897743	-0.160850	1.070757
	O327	O	0.498950	0.707891	0.351193
	H328	H	0.493969	0.711043	0.350635
	H329	H	0.529951	0.686342	0.360921
	O330	O	-0.037710	1.163579	1.124213
	H331	H	-0.033499	1.173294	1.143572
	H332	H	-0.028437	1.161847	1.121813
	O333	O	0.094122	0.882300	-0.212914
	H334	H	0.092397	0.898532	-0.228240
	H335	H	0.088008	0.844830	-0.227719
	O336	O	1.098040	1.135755	0.018632
	H337	H	1.120342	1.151137	0.016029
	H338	H	1.108555	1.118520	0.004855
	O339	O	0.022019	1.040022	0.803345
	H340	H	0.022970	1.044514	0.804598
	H341	H	0.031428	1.026346	0.800588
	O342	O	0.276247	0.724384	0.476023
	H343	H	0.253380	0.744899	0.456024
	H344	H	0.279242	0.724404	0.438755
	O345	O	-0.126992	0.081921	0.809011
	H346	H	-0.128468	0.071432	0.817320
	H347	H	-0.117668	0.071710	0.797234
	O348	O	0.517082	0.293959	0.288625
	H349	H	0.493144	0.281869	0.332078
	H350	H	0.511474	0.267726	0.264094
	O351	O	0.511654	0.719848	0.408622
	H352	H	0.506030	0.727807	0.419652
	H353	H	0.517010	0.733887	0.411704
	O354	O	1.148175	1.078637	1.010262
	H355	H	1.146189	1.070629	0.992602
	H356	H	1.133527	1.069212	1.012578
	O357	O	-0.060126	-0.170319	-0.103523
	H358	H	-0.061804	-0.175936	-0.086305
	H359	H	-0.051019	-0.180895	-0.101090
	O360	O	0.556097	0.559532	0.292231
	H361	H	0.546198	0.538690	0.293408
	H362	H	0.553497	0.556604	0.301836
	O363	O	1.179291	-0.001713	0.149826
	H364	H	1.182716	-0.005817	0.159130
	H365	H	1.182698	0.000208	0.144817
	O366	O	0.079754	-0.011717	1.116775
	H367	H	0.072131	-0.003881	1.117457
	H368	H	0.068598	-0.021794	1.115098
	O369	O	1.436262	0.446683	0.271669
	H370	H	1.445625	0.421755	0.270605
	H371	H	1.443138	0.443967	0.297961
	O372	O	0.480917	0.281809	0.712849
	H373	H	0.459027	0.259939	0.732289
	H374	H	0.456496	0.276267	0.709921
	O375	O	-0.148512	0.172365	0.919396
	H376	H	-0.150004	0.159472	0.893522
	H377	H	-0.151125	0.190650	0.926291
	O378	O	0.711355	0.485522	0.278411
	H379	H	0.702886	0.476662	0.265698
	H380	H	0.727310	0.460878	0.261359
	O381	O	-0.199151	0.846658	0.164308
	H382	H	-0.210672	0.834149	0.183972
	H383	H	-0.210740	0.855146	0.134290
	O384	O	0.648164	0.457659	0.629346
	H385	H	0.663903	0.462124	0.621889
	H386	H	0.654480	0.453276	0.616325
	O387	O	0.284037	0.517436	0.500874
	H388	H	0.271317	0.537860	0.489942
	H389	H	0.296807	0.520986	0.492492
	O390	O	1.140461	1.030368	-0.030100
	H391	H	1.131490	1.020684	-0.026709
	H392	H	1.145635	1.020652	-0.056452
	O393	O	1.116888	0.180437	1.122038
	H394	H	1.122744	0.181354	1.102821
	H395	H	1.123896	0.168551	1.115325
	O396	O	0.711318	0.283191	0.474526
	H397	H	0.688013	0.284291	0.467334
	H398	H	0.742443	0.254308	0.474428
	O399	O	0.558793	0.300183	0.564744
	H400	H	0.564649	0.291688	0.565899
	H401	H	0.553089	0.319396	0.591540
	O402	O	0.843705	0.988050	0.120985
	H403	H	0.843857	0.983383	0.131848
	H404	H	0.839455	0.972777	0.129300
	O405	O	0.441597	0.280888	0.439850
	H406	H	0.453497	0.299040	0.464112
	H407	H	0.419891	0.270773	0.463424
	O408	O	0.285610	0.289162	0.515459
	H409	H	0.271899	0.307261	0.510663
	H410	H	0.268898	0.267927	0.509620
	O411	O	1.314883	0.683420	1.318919
	H412	H	1.317316	0.638098	1.310576
	H413	H	1.357956	0.685623	1.307887
	O414	O	0.668222	0.509745	0.710188
	H415	H	0.680969	0.491620	0.711128
	H416	H	0.696446	0.501668	0.705264
	O417	O	0.187218	0.810492	0.895269
	H418	H	0.187577	0.798928	0.930092
	H419	H	0.167837	0.793698	0.892205
	O420	O	0.178667	0.915065	0.804913
	H421	H	0.182034	0.891422	0.824071
	H422	H	0.169609	0.905658	0.796531
	O423	O	-0.022906	1.200920	-0.066258
	H424	H	-0.040712	1.195494	-0.061526
	H425	H	-0.015535	1.202679	-0.061947
	O426	O	0.459591	0.705149	0.632506
	H427	H	0.444634	0.717766	0.633841
	H428	H	0.437309	0.691199	0.620545
	O429	O	0.715039	0.489234	0.510235
	H430	H	0.724113	0.473287	0.480994
	H431	H	0.702813	0.503078	0.492393
	O432	O	0.479667	0.526059	0.487899
	H433	H	0.480018	0.542602	0.500709
	H434	H	0.498120	0.503508	0.494571
	O435	O	-0.198570	-0.031447	-0.035206
	H436	H	-0.184794	-0.040155	-0.050996
	H437	H	-0.189922	-0.035927	-0.045585
	O438	O	-0.525417	1.692687	1.670525
	H439	H	-0.531322	1.698962	1.675342
	H440	H	-0.548643	1.691328	1.655044
	O441	O	0.696064	0.635606	0.356298
	H442	H	0.686117	0.656850	0.386417
	H443	H	0.687054	0.609554	0.333909
