data_Molecule from HDF5

_cell_length_a		16.577659
_cell_length_b		16.217409
_cell_length_c		16.351135
_cell_angle_alpha	90.111026
_cell_angle_beta	90.023189
_cell_angle_gamma	89.913727
_symmetry_space_group_name_H-M	'P 1'
_symmetry_Int_Tables_number		1

loop_
	_symmetry_equiv_pos_as_xyz
	x,y,z

loop_
	_atom_site_label
	_atom_site_type_symbol
	_atom_site_fract_x
	_atom_site_fract_y
	_atom_site_fract_z
	H0	H	0.395013	0.837702	0.712892
	H1	H	0.600130	0.160820	0.709653
	H2	H	0.603375	0.836986	0.270744
	H3	H	0.396136	0.159037	0.273665
	H4	H	0.724732	0.385840	0.833495
	H5	H	0.723120	0.605097	0.148298
	H6	H	0.274527	0.608271	0.834407
	H7	H	0.276053	0.388335	0.148486
	H8	H	0.842223	0.716987	0.389034
	H9	H	0.159429	0.719803	0.594877
	H10	H	0.842053	0.278231	0.595497
	H11	H	0.156976	0.272923	0.383394
	H12	H	0.844384	0.391205	0.715161
	H13	H	0.157042	0.608187	0.715591
	H14	H	0.843588	0.602937	0.270576
	H15	H	0.158212	0.390809	0.267825
	H16	H	0.393512	0.719998	0.832689
	H17	H	0.602503	0.716775	0.151239
	H18	H	0.603868	0.275472	0.831355
	H19	H	0.398123	0.280546	0.151784
	H20	H	0.720151	0.837180	0.386128
	H21	H	0.718328	0.159623	0.598163
	H22	H	0.275181	0.839622	0.602413
	H23	H	0.276779	0.157455	0.384513
	H24	H	0.898789	0.338201	0.209819
	H25	H	0.103836	0.660610	0.209884
	H26	H	0.105396	0.338867	0.769387
	H27	H	0.899595	0.660464	0.775678
	H28	H	0.225167	0.887429	0.333979
	H29	H	0.223984	0.109083	0.647978
	H30	H	0.777897	0.102467	0.332332
	H31	H	0.781246	0.894456	0.652074
	H32	H	0.341559	0.218022	0.888791
	H33	H	0.656917	0.216995	0.095395
	H34	H	0.340407	0.777525	0.094942
	H35	H	0.656637	0.775983	0.887519
	H36	H	0.341861	0.890456	0.215501
	H37	H	0.656287	0.100342	0.212447
	H38	H	0.341887	0.102990	0.771097
	H39	H	0.657113	0.892506	0.770899
	H40	H	0.898124	0.214844	0.328891
	H41	H	0.101439	0.218392	0.650995
	H42	H	0.099093	0.784084	0.328863
	H43	H	0.902738	0.783364	0.652767
	H44	H	0.221772	0.338465	0.883667
	H45	H	0.222603	0.657851	0.097967
	H46	H	0.777617	0.339864	0.099822
	H47	H	0.778929	0.656873	0.886261
	H48	H	0.400284	0.115888	0.579630
	H49	H	0.590803	0.883621	0.578292
	H50	H	0.585988	0.111328	0.405323
	H51	H	0.414291	0.884456	0.405523
	H52	H	0.592668	0.410960	0.104038
	H53	H	0.593556	0.584532	0.875627
	H54	H	0.410086	0.588833	0.106371
	H55	H	0.410867	0.411279	0.878083
	H56	H	0.114736	0.586202	0.395465
	H57	H	0.890467	0.585814	0.580645
	H58	H	0.113812	0.405499	0.578706
	H59	H	0.888426	0.409543	0.396585
	H60	H	0.109703	0.413734	0.573574
	H61	H	0.887062	0.589483	0.585687
	H62	H	0.117002	0.594960	0.397435
	H63	H	0.888616	0.407951	0.400591
	H64	H	0.406299	0.581663	0.104891
	H65	H	0.587830	0.580975	0.878703
	H66	H	0.588819	0.411144	0.103296
	H67	H	0.410902	0.409147	0.876797
	H68	H	0.592298	0.112864	0.404825
	H69	H	0.593996	0.881627	0.583421
	H70	H	0.416683	0.112993	0.588212
	H71	H	0.409978	0.883480	0.407522
	H72	H	0.909355	0.614795	0.080717
	H73	H	0.088663	0.384888	0.075270
	H74	H	0.087723	0.613814	0.900395
	H75	H	0.906243	0.381045	0.904290
	H76	H	0.091917	0.909200	0.606240
	H77	H	0.080973	0.084870	0.380004
	H78	H	0.911927	0.093193	0.606476
	H79	H	0.908179	0.911430	0.377667
	H80	H	0.616411	0.092644	0.894300
	H81	H	0.385357	0.083060	0.089690
	H82	H	0.607411	0.909204	0.073608
	H83	H	0.388424	0.911801	0.904297
	H84	H	0.610330	0.915724	0.086007
	H85	H	0.382305	0.096549	0.083692
	H86	H	0.610462	0.089927	0.911383
	H87	H	0.386962	0.911245	0.899424
	H88	H	0.902119	0.089506	0.608127
	H89	H	0.092547	0.088916	0.374746
	H90	H	0.091337	0.914779	0.604796
	H91	H	0.908058	0.906391	0.375569
	H92	H	0.087369	0.611324	0.907666
	H93	H	0.090983	0.382888	0.078318
	H94	H	0.912279	0.613041	0.078265
	H95	H	0.915695	0.382164	0.897776
	H96	H	0.414336	0.107130	0.569962
	H97	H	0.587905	0.882519	0.583961
	H98	H	0.588168	0.113588	0.399407
	H99	H	0.410807	0.882836	0.402553
	H100	H	0.590489	0.407843	0.105432
	H101	H	0.587076	0.588499	0.877189
	H102	H	0.414536	0.582699	0.102962
	H103	H	0.409302	0.409974	0.877017
	H104	H	0.113545	0.589578	0.403824
	H105	H	0.888594	0.592036	0.579197
	H106	H	0.111444	0.414490	0.583580
	H107	H	0.889645	0.411606	0.400186
	H108	H	0.908166	0.613113	0.077128
	H109	H	0.087487	0.384844	0.079827
	H110	H	0.093648	0.614446	0.905117
	H111	H	0.915449	0.385541	0.908639
	H112	H	0.087729	0.910599	0.604431
	H113	H	0.091197	0.076106	0.379830
	H114	H	0.909160	0.083072	0.603314
	H115	H	0.903566	0.909620	0.375955
	H116	H	0.610065	0.076810	0.898997
	H117	H	0.388589	0.085770	0.075326
	H118	H	0.614082	0.902474	0.083842
	H119	H	0.385629	0.907214	0.902802
	C120	C	0.378303	0.006457	0.612769
	C121	C	0.621068	0.989767	0.613478
	C122	C	0.620414	0.006254	0.370735
	C123	C	0.379029	0.989432	0.372155
	C124	C	0.622722	0.375488	-0.000535
	C125	C	0.620993	0.618000	0.982275
	C126	C	0.377625	0.618641	0.000294
	C127	C	0.378498	0.377154	0.982505
	C128	C	0.010012	0.621268	0.368106
	C129	C	0.992708	0.621813	0.613772
	C130	C	0.008120	0.378024	0.611693
	C131	C	0.992544	0.376249	0.367337
	C132	C	0.879000	0.507481	0.111558
	C133	C	0.121271	0.490105	0.111074
	C134	C	0.121827	0.507488	0.870457
	C135	C	0.880103	0.489053	0.870953
	C136	C	0.122233	0.877813	0.499872
	C137	C	0.120254	0.118222	0.482625
	C138	C	0.877071	0.120309	0.500029
	C139	C	0.878061	0.877935	0.482958
	C140	C	0.508013	0.119222	0.870092
	C141	C	0.490055	0.119604	0.113990
	C142	C	0.507181	0.875884	0.113856
	C143	C	0.490654	0.876229	0.869598
	C144	C	0.376359	0.886124	0.673536
	C145	C	0.620357	0.111761	0.671443
	C146	C	0.622180	0.885161	0.310696
	C147	C	0.377012	0.110586	0.312087
	C148	C	0.683965	0.369627	0.880772
	C149	C	0.682148	0.622405	0.101339
	C150	C	0.315961	0.624221	0.881348
	C151	C	0.317502	0.372585	0.101339
	C152	C	0.890299	0.678855	0.368833
	C153	C	0.111464	0.681064	0.614294
	C154	C	0.889792	0.317892	0.613766
	C155	C	0.110216	0.314072	0.365042
	C156	C	0.890985	0.374309	0.673630
	C157	C	0.110478	0.625205	0.674554
	C158	C	0.890839	0.622008	0.309959
	C159	C	0.110980	0.372870	0.307320
	C160	C	0.375173	0.680020	0.880502
	C161	C	0.622024	0.677859	0.102734
	C162	C	0.623759	0.314438	0.879839
	C163	C	0.378389	0.318638	0.103117
	C164	C	0.680089	0.885302	0.368240
	C165	C	0.679177	0.111199	0.615676
	C166	C	0.316807	0.887127	0.617950
	C167	C	0.317803	0.109639	0.367635
	C168	C	0.878984	0.386471	0.170701
	C169	C	0.122743	0.611737	0.170585
	C170	C	0.123989	0.386875	0.809253
	C171	C	0.879677	0.611125	0.813434
	C172	C	0.183377	0.872471	0.380814
	C173	C	0.181901	0.124441	0.601402
	C174	C	0.817871	0.121286	0.379732
	C175	C	0.820976	0.876393	0.604040
	C176	C	0.389021	0.178716	0.869333
	C177	C	0.609435	0.177578	0.114146
	C178	C	0.388224	0.816279	0.115022
	C179	C	0.609275	0.815707	0.868305
	C180	C	0.388854	0.872552	0.174755
	C181	C	0.609065	0.119878	0.172634
	C182	C	0.389263	0.121532	0.810854
	C183	C	0.609490	0.873999	0.810436
	C184	C	0.877860	0.177095	0.378178
	C185	C	0.121201	0.179191	0.602762
	C186	C	0.120748	0.820635	0.378281
	C187	C	0.881103	0.820960	0.604338
	C188	C	0.181919	0.386745	0.866408
	C189	C	0.181910	0.610399	0.114855
	C190	C	0.818736	0.387316	0.116009
	C191	C	0.819509	0.609395	0.868165
	C192	C	0.403414	0.090343	0.586722
	C193	C	0.597604	0.904747	0.588770
	C194	C	0.595889	0.090496	0.395922
	C195	C	0.404523	0.905534	0.397750
	C196	C	0.597874	0.402295	0.082663
	C197	C	0.596382	0.592215	0.899040
	C198	C	0.403206	0.592096	0.082943
	C199	C	0.403291	0.402791	0.898971
	C200	C	0.093406	0.597096	0.391793
	C201	C	0.910165	0.596438	0.589133
	C202	C	0.090274	0.403774	0.585952
	C203	C	0.910281	0.402248	0.391999
	C204	C	0.903018	0.591754	0.086033
	C205	C	0.096247	0.406194	0.085227
	C206	C	0.096743	0.591285	0.896729
	C207	C	0.905299	0.404867	0.896361
	C208	C	0.097656	0.903922	0.583284
	C209	C	0.095343	0.091063	0.399820
	C210	C	0.900851	0.095878	0.584081
	C211	C	0.900219	0.901969	0.398359
	C212	C	0.590781	0.093836	0.894420
	C213	C	0.406941	0.095399	0.089884
	C214	C	0.589142	0.901681	0.088713
	C215	C	0.408555	0.902394	0.894845
	Zn216	Zn	0.499629	-0.001415	0.740542
	Zn217	Zn	0.498257	-0.002710	0.243443
	Zn218	Zn	0.750716	0.497157	-0.009463
	Zn219	Zn	0.250070	0.497583	-0.008628
	Zn220	Zn	0.001063	0.750242	0.490721
	Zn221	Zn	0.000080	0.247590	0.490341
	Zn222	Zn	0.000907	0.499143	0.742545
	Zn223	Zn	0.001241	0.499212	0.238821
	Zn224	Zn	0.498816	0.746595	-0.008090
	Zn225	Zn	0.499310	0.248702	-0.008541
	Zn226	Zn	0.748528	-0.001847	0.492448
	Zn227	Zn	0.249943	-0.002105	0.491292
	N228	N	0.414171	0.961454	0.670136
	N229	N	0.585095	0.035075	0.670291
	N230	N	0.585842	0.961275	0.312255
	N231	N	0.414529	0.034868	0.314906
	N232	N	0.683635	0.406699	0.956423
	N233	N	0.681726	0.585936	0.025461
	N234	N	0.317315	0.586987	0.956558
	N235	N	0.317570	0.408354	0.025187
	N236	N	0.965539	0.678764	0.404149
	N237	N	0.037220	0.678859	0.576818
	N238	N	0.963709	0.320235	0.575696
	N239	N	0.035789	0.316162	0.401622
	N240	N	0.965535	0.411154	0.672412
	N241	N	0.035612	0.588935	0.674205
	N242	N	0.966362	0.587081	0.309318
	N243	N	0.036707	0.410774	0.308604
	N244	N	0.412882	0.676849	0.955431
	N245	N	0.584643	0.675287	0.027677
	N246	N	0.586571	0.317885	0.954834
	N247	N	0.415632	0.321468	0.028139
	N248	N	0.679321	0.961792	0.404822
	N249	N	0.679850	0.034125	0.580419
	N250	N	0.317944	0.962994	0.580777
	N251	N	0.318858	0.033262	0.403899
	N252	N	0.915896	0.462224	0.167879
	N253	N	0.085671	0.536034	0.168154
	N254	N	0.087800	0.462963	0.811284
	N255	N	0.916451	0.535047	0.814925
	N256	N	0.184467	0.907055	0.457631
	N257	N	0.181254	0.087131	0.525858
	N258	N	0.816854	0.087004	0.456632
	N259	N	0.818796	0.910871	0.527397
	N260	N	0.463996	0.177610	0.905237
	N261	N	0.534352	0.177688	0.078571
	N262	N	0.462604	0.818181	0.077983
	N263	N	0.534326	0.816783	0.904317
	N264	N	0.463815	0.908639	0.174387
	N265	N	0.533797	0.084760	0.172666
	N266	N	0.464278	0.085512	0.811171
	N267	N	0.534670	0.910555	0.810871
	N268	N	0.913772	0.176586	0.453950
	N269	N	0.083528	0.175237	0.527991
	N270	N	0.083366	0.823780	0.453287
	N271	N	0.915525	0.821457	0.527933
	N272	N	0.180882	0.462861	0.903531
	N273	N	0.181104	0.533817	0.078738
	N274	N	0.818598	0.463705	0.079951
	N275	N	0.819653	0.532444	0.903083
	O276	O	0.291671	0.358606	0.612100
	H277	H	0.302305	0.367991	0.618839
	H278	H	0.274155	0.338512	0.630948
	O279	O	0.422160	0.532256	0.590629
	H280	H	0.443522	0.528011	0.575818
	H281	H	0.423255	0.541426	0.588119
	O282	O	0.710106	0.577349	0.702375
	H283	H	0.711037	0.601005	0.687518
	H284	H	0.719207	0.571639	0.717870
	O285	O	1.168455	0.832852	-0.035077
	H286	H	1.193635	0.827826	-0.043961
	H287	H	1.156661	0.846378	-0.022022
	O288	O	0.205347	0.000953	0.160491
	H289	H	0.211022	0.000534	0.173345
	H290	H	0.210096	0.005106	0.164322
	O291	O	0.988886	0.091465	0.904253
	H292	H	1.009676	0.096514	0.923203
	H293	H	0.985955	0.088790	0.908008
	O294	O	0.974493	0.853356	0.845344
	H295	H	0.970773	0.853361	0.847762
	H296	H	0.968369	0.838533	0.868998
	O297	O	0.702594	0.583314	0.447381
	H298	H	0.703665	0.584727	0.416685
	H299	H	0.705416	0.578712	0.445878
	O300	O	0.610655	0.363720	0.493646
	H301	H	0.610440	0.384298	0.487554
	H302	H	0.627812	0.358911	0.486990
	O303	O	0.307819	0.509325	0.624440
	H304	H	0.289037	0.503610	0.634367
	H305	H	0.298798	0.523410	0.597484
	O306	O	-0.066884	-0.139327	0.952080
	H307	H	-0.068221	-0.146818	0.954803
	H308	H	-0.083153	-0.147421	0.957080
	O309	O	1.038849	0.189693	0.188715
	H310	H	1.015589	0.211229	0.199890
	H311	H	1.023725	0.177319	0.190785
	O312	O	0.508673	0.490401	0.685557
	H313	H	0.509232	0.496963	0.671934
	H314	H	0.501607	0.473474	0.673700
	O315	O	0.637511	0.667725	0.500157
	H316	H	0.629510	0.661423	0.502170
	H317	H	0.650213	0.671388	0.510014
	O318	O	-0.085093	0.195153	-0.048398
	H319	H	-0.113391	0.207449	-0.046841
	H320	H	-0.067951	0.190021	-0.033889
	O321	O	-0.182999	0.938665	1.002419
	H322	H	-0.165233	0.930556	1.007718
	H323	H	-0.183840	0.938028	1.025818
	O324	O	1.179625	0.147836	1.172186
	H325	H	1.189750	0.128124	1.169672
	H326	H	1.131956	0.158503	1.180742
	O327	O	0.554860	0.365993	0.597683
	H328	H	0.551333	0.372594	0.599353
	H329	H	0.556919	0.379226	0.595910
	O330	O	0.023850	0.926579	0.969005
	H331	H	0.028793	0.944297	0.969328
	H332	H	0.027669	0.931649	0.961020
	O333	O	-0.017985	1.086753	0.111844
	H334	H	-0.019277	1.071203	0.109509
	H335	H	-0.030797	1.077866	0.089530
	O336	O	0.837942	0.805441	0.081503
	H337	H	0.825334	0.793807	0.085392
	H338	H	0.833588	0.821364	0.090808
	O339	O	0.032220	0.818413	1.157243
	H340	H	0.026509	0.799879	1.172226
	H341	H	0.040853	0.825999	1.142208
	O342	O	0.351255	0.314256	0.611385
	H343	H	0.353190	0.319864	0.611496
	H344	H	0.370260	0.326969	0.618566
	O345	O	0.204716	0.194998	1.009331
	H346	H	0.221179	0.205614	1.013591
	H347	H	0.198511	0.197626	1.028093
	O348	O	0.626350	0.291969	0.370878
	H349	H	0.631377	0.271165	0.369029
	H350	H	0.600443	0.300326	0.376157
	O351	O	0.673036	0.701524	0.614018
	H352	H	0.646445	0.701988	0.626101
	H353	H	0.678373	0.718987	0.610253
	O354	O	1.148574	1.047263	0.810570
	H355	H	1.165108	1.058692	0.803330
	H356	H	1.147089	1.012744	0.801888
	O357	O	0.117123	-0.133285	-0.000227
	H358	H	0.096037	-0.140078	-0.007309
	H359	H	0.117022	-0.140304	-0.001511
	O360	O	0.712910	0.482722	0.498599
	H361	H	0.710681	0.489903	0.504380
	H362	H	0.718288	0.493653	0.469538
	O363	O	0.952037	0.137044	-0.056217
	H364	H	0.946216	0.134730	-0.079036
	H365	H	0.953374	0.121383	-0.039334
	O366	O	0.072058	0.058472	1.044909
	H367	H	0.084282	0.077022	1.038423
	H368	H	0.060897	0.067924	1.022929
	O369	O	1.532830	0.626042	0.287403
	H370	H	1.528686	0.647426	0.291174
	H371	H	1.511413	0.611596	0.293869
	O372	O	0.376740	0.515872	0.527269
	H373	H	0.387368	0.522805	0.510218
	H374	H	0.383091	0.504917	0.513299
	O375	O	-0.443160	-0.349317	1.252492
	H376	H	-0.439263	-0.343224	1.258708
	H377	H	-0.450046	-0.357821	1.265642
	O378	O	0.400318	0.502349	0.355661
	H379	H	0.393889	0.505295	0.362660
	H380	H	0.410781	0.472348	0.357709
	O381	O	-0.162445	0.997594	0.182672
	H382	H	-0.146298	0.979028	0.168750
	H383	H	-0.174433	1.000411	0.188542
	O384	O	0.545435	0.394388	0.690957
	H385	H	0.556748	0.407370	0.691716
	H386	H	0.548535	0.395376	0.700427
	O387	O	0.689872	0.693724	0.263263
	H388	H	0.698761	0.682585	0.263189
	H389	H	0.684251	0.687673	0.263537
	O390	O	0.959305	1.064947	-0.157724
	H391	H	0.975151	1.084148	-0.153458
	H392	H	0.955776	1.057999	-0.167507
	O393	O	0.865096	0.153792	1.121703
	H394	H	0.850012	0.149570	1.103350
	H395	H	0.872962	0.163092	1.135397
	O396	O	0.698043	0.314162	0.290220
	H397	H	0.690468	0.317234	0.314816
	H398	H	0.690774	0.323806	0.282554
	O399	O	0.489160	0.491201	0.411573
	H400	H	0.482926	0.487816	0.417339
	H401	H	0.496318	0.492310	0.419920
	O402	O	1.027360	1.072219	-0.198055
	H403	H	1.040037	1.066557	-0.214712
	H404	H	1.036730	1.064777	-0.181518
	O405	O	0.397211	0.345404	0.485826
	H406	H	0.383093	0.348475	0.488905
	H407	H	0.392867	0.352417	0.506079
	O408	O	0.292954	0.625854	0.462091
	H409	H	0.309065	0.620982	0.472378
	H410	H	0.284287	0.641612	0.447048
	O411	O	1.391545	0.688720	1.295929
	H412	H	1.361679	0.677156	1.307294
	H413	H	1.405978	0.704024	1.280002
	O414	O	0.493920	0.466935	0.468309
	H415	H	0.523039	0.459335	0.468064
	H416	H	0.498454	0.469429	0.464082
	O417	O	-0.002874	0.926286	1.045035
	H418	H	0.004475	0.926689	1.037121
	H419	H	-0.002357	0.936360	1.046722
	O420	O	-0.101504	0.885962	0.831103
	H421	H	-0.113059	0.902790	0.845479
	H422	H	-0.097895	0.883230	0.815874
	O423	O	-0.089018	1.061567	-0.205435
	H424	H	-0.070072	1.072922	-0.205336
	H425	H	-0.089347	1.053190	-0.212751
	O426	O	0.526757	0.710667	0.701581
	H427	H	0.515280	0.689516	0.716202
	H428	H	0.528802	0.722899	0.731070
	O429	O	0.414353	0.415646	0.351194
	H430	H	0.407297	0.424677	0.373151
	H431	H	0.401033	0.421151	0.349001
	O432	O	0.489399	0.422558	0.470990
	H433	H	0.505676	0.423721	0.478834
	H434	H	0.497474	0.400077	0.472176
	O435	O	-0.110349	0.045141	-0.214277
	H436	H	-0.128666	0.040228	-0.228686
	H437	H	-0.112412	0.054345	-0.212285
	O438	O	-0.590357	1.704525	1.527978
	H439	H	-0.576008	1.714293	1.553504
	H440	H	-0.592949	1.704394	1.521067
	O441	O	0.600542	0.464613	0.319349
	H442	H	0.608348	0.452975	0.309165
	H443	H	0.589729	0.449815	0.322163
