data_Molecule from HDF5

_cell_length_a		16.235932
_cell_length_b		16.309118
_cell_length_c		16.004762
_cell_angle_alpha	89.923173
_cell_angle_beta	90.762519
_cell_angle_gamma	90.043625
_symmetry_space_group_name_H-M	'P 1'
_symmetry_Int_Tables_number		1

loop_
	_symmetry_equiv_pos_as_xyz
	x,y,z

loop_
	_atom_site_label
	_atom_site_type_symbol
	_atom_site_fract_x
	_atom_site_fract_y
	_atom_site_fract_z
	H0	H	0.403624	0.837345	0.707833
	H1	H	0.597870	0.165813	0.710357
	H2	H	0.592273	0.837513	0.283836
	H3	H	0.396727	0.165990	0.279448
	H4	H	0.707014	0.406544	0.828419
	H5	H	0.713539	0.600141	0.162849
	H6	H	0.281081	0.601921	0.831362
	H7	H	0.288894	0.402946	0.163071
	H8	H	0.834983	0.721029	0.391509
	H9	H	0.160958	0.719124	0.601670
	H10	H	0.834639	0.284334	0.597457
	H11	H	0.161085	0.285477	0.397735
	H12	H	0.831139	0.406548	0.704709
	H13	H	0.161817	0.598705	0.712595
	H14	H	0.832842	0.598083	0.281796
	H15	H	0.163231	0.406182	0.288628
	H16	H	0.397110	0.716029	0.830249
	H17	H	0.599378	0.715871	0.163594
	H18	H	0.596114	0.289534	0.829749
	H19	H	0.399821	0.286367	0.160421
	H20	H	0.712475	0.838492	0.396822
	H21	H	0.715698	0.164628	0.599290
	H22	H	0.283924	0.839137	0.594792
	H23	H	0.280962	0.165628	0.394127
	H24	H	0.902926	0.337065	0.207379
	H25	H	0.097061	0.666089	0.212319
	H26	H	0.091788	0.336636	0.786168
	H27	H	0.898709	0.666414	0.780961
	H28	H	0.207135	0.905614	0.329285
	H29	H	0.214852	0.102152	0.662177
	H30	H	0.781465	0.100880	0.330840
	H31	H	0.787587	0.903692	0.662971
	H32	H	0.335176	0.219301	0.890983
	H33	H	0.660930	0.219091	0.100663
	H34	H	0.335248	0.785088	0.096918
	H35	H	0.661371	0.786600	0.898006
	H36	H	0.331421	0.906593	0.203840
	H37	H	0.660659	0.100845	0.213736
	H38	H	0.334448	0.098113	0.780475
	H39	H	0.664561	0.907010	0.789123
	H40	H	0.895183	0.215932	0.330856
	H41	H	0.098287	0.214919	0.663706
	H42	H	0.097415	0.787285	0.331356
	H43	H	0.900207	0.788184	0.662533
	H44	H	0.213282	0.339416	0.897313
	H45	H	0.216140	0.665404	0.099693
	H46	H	0.782721	0.339480	0.095642
	H47	H	0.781521	0.666060	0.894473
	H48	H	0.406943	0.120429	0.593395
	H49	H	0.603002	0.881782	0.591712
	H50	H	0.587361	0.118303	0.403708
	H51	H	0.395742	0.886625	0.412577
	H52	H	0.583923	0.404565	0.114133
	H53	H	0.585110	0.591040	0.879974
	H54	H	0.419640	0.594028	0.111947
	H55	H	0.409807	0.409807	0.877494
	H56	H	0.118385	0.607368	0.405978
	H57	H	0.883507	0.592246	0.580573
	H58	H	0.110621	0.420077	0.589394
	H59	H	0.883732	0.415913	0.406518
	H60	H	0.118261	0.404726	0.602906
	H61	H	0.879102	0.594674	0.593107
	H62	H	0.110331	0.592533	0.417943
	H63	H	0.876476	0.406736	0.392278
	H64	H	0.405432	0.606145	0.119950
	H65	H	0.585423	0.603154	0.875602
	H66	H	0.600489	0.406370	0.119231
	H67	H	0.399797	0.408925	0.874497
	H68	H	0.589567	0.117051	0.407782
	H69	H	0.588844	0.883538	0.597980
	H70	H	0.410907	0.115756	0.583104
	H71	H	0.393200	0.880958	0.391703
	H72	H	0.901354	0.619516	0.082941
	H73	H	0.086441	0.382574	0.105330
	H74	H	0.091779	0.621390	0.897876
	H75	H	0.911624	0.386544	0.894428
	H76	H	0.094871	0.908319	0.616739
	H77	H	0.092545	0.095841	0.375897
	H78	H	0.904269	0.089634	0.614919
	H79	H	0.908175	0.915990	0.379599
	H80	H	0.612644	0.095617	0.913741
	H81	H	0.382447	0.096577	0.076051
	H82	H	0.615393	0.907554	0.089377
	H83	H	0.382456	0.914412	0.899632
	H84	H	0.614561	0.911132	0.089344
	H85	H	0.382037	0.090335	0.087450
	H86	H	0.617462	0.092924	0.897582
	H87	H	0.378241	0.904472	0.896599
	H88	H	0.913355	0.094171	0.614377
	H89	H	0.085166	0.091400	0.379541
	H90	H	0.092435	0.914069	0.614894
	H91	H	0.906853	0.904488	0.376217
	H92	H	0.081350	0.615850	0.907465
	H93	H	0.086319	0.391486	0.077999
	H94	H	0.902602	0.621596	0.093318
	H95	H	0.899662	0.388636	0.915038
	H96	H	0.399631	0.119382	0.584169
	H97	H	0.590496	0.887782	0.583700
	H98	H	0.592085	0.118529	0.403999
	H99	H	0.412573	0.888958	0.398624
	H100	H	0.591322	0.420097	0.111531
	H101	H	0.595588	0.595975	0.876313
	H102	H	0.400188	0.586576	0.115986
	H103	H	0.403573	0.418122	0.878904
	H104	H	0.115719	0.588876	0.398221
	H105	H	0.877860	0.604029	0.585034
	H106	H	0.114128	0.399415	0.581529
	H107	H	0.879147	0.399622	0.408761
	H108	H	0.911187	0.616916	0.087685
	H109	H	0.110124	0.381412	0.090083
	H110	H	0.096475	0.618193	0.911979
	H111	H	0.889477	0.379993	0.895061
	H112	H	0.088944	0.908385	0.615523
	H113	H	0.085830	0.100609	0.377125
	H114	H	0.904876	0.099612	0.618421
	H115	H	0.896928	0.912704	0.375723
	H116	H	0.618884	0.108024	0.904010
	H117	H	0.378124	0.102558	0.086741
	H118	H	0.615588	0.909254	0.092094
	H119	H	0.380955	0.905987	0.908555
	C120	C	0.377572	0.010404	0.616701
	C121	C	0.622254	0.992926	0.619833
	C122	C	0.617842	0.009984	0.375946
	C123	C	0.372597	0.993774	0.371807
	C124	C	0.618954	0.382255	0.004640
	C125	C	0.619305	0.624595	0.987443
	C126	C	0.377429	0.624394	0.005915
	C127	C	0.377332	0.382090	0.986839
	C128	C	0.006523	0.624704	0.375436
	C129	C	0.988756	0.625152	0.617824
	C130	C	0.005488	0.380076	0.618433
	C131	C	0.988997	0.379699	0.375419
	C132	C	0.876898	0.510725	0.117227
	C133	C	0.122321	0.493566	0.120596
	C134	C	0.118195	0.510322	0.876499
	C135	C	0.873096	0.493818	0.873073
	C136	C	0.119144	0.881779	0.505347
	C137	C	0.118569	0.123909	0.487655
	C138	C	0.876369	0.123642	0.506142
	C139	C	0.877228	0.882026	0.487581
	C140	C	0.507967	0.125892	0.873896
	C141	C	0.488750	0.125094	0.116485
	C142	C	0.506472	0.880671	0.117805
	C143	C	0.489673	0.880800	0.875185
	C144	C	0.382114	0.886663	0.670695
	C145	C	0.618653	0.116490	0.673790
	C146	C	0.613949	0.886767	0.320945
	C147	C	0.375940	0.116919	0.316931
	C148	C	0.671141	0.385777	0.878548
	C149	C	0.675742	0.621247	0.113085
	C150	C	0.319920	0.622115	0.880818
	C151	C	0.324651	0.382896	0.112685
	C152	C	0.883366	0.681184	0.373533
	C153	C	0.112267	0.680224	0.619489
	C154	C	0.882824	0.324163	0.615966
	C155	C	0.112315	0.324285	0.378477
	C156	C	0.880997	0.384705	0.669611
	C157	C	0.112482	0.620690	0.675072
	C158	C	0.882539	0.620585	0.318595
	C159	C	0.113454	0.384156	0.323935
	C160	C	0.377443	0.678983	0.880425
	C161	C	0.618844	0.678576	0.113293
	C162	C	0.615852	0.327534	0.879197
	C163	C	0.379684	0.324774	0.111189
	C164	C	0.673997	0.887221	0.377022
	C165	C	0.677261	0.115887	0.618036
	C166	C	0.322263	0.887675	0.614596
	C167	C	0.318116	0.116780	0.373961
	C168	C	0.880945	0.386865	0.171239
	C169	C	0.118477	0.616991	0.175236
	C170	C	0.113562	0.386415	0.822399
	C171	C	0.877158	0.617375	0.818233
	C172	C	0.171218	0.884801	0.379567
	C173	C	0.175814	0.121658	0.612880
	C174	C	0.819467	0.121357	0.380580
	C175	C	0.824225	0.883636	0.613171
	C176	C	0.384213	0.180704	0.872494
	C177	C	0.612012	0.180691	0.118559
	C178	C	0.383521	0.824396	0.115644
	C179	C	0.612944	0.825352	0.878291
	C180	C	0.381642	0.884671	0.169076
	C181	C	0.611879	0.121888	0.175039
	C182	C	0.383790	0.120561	0.817544
	C183	C	0.614490	0.885183	0.823939
	C184	C	0.876005	0.178630	0.380734
	C185	C	0.117856	0.177572	0.613686
	C186	C	0.116698	0.825765	0.380600
	C187	C	0.880304	0.826198	0.612649
	C188	C	0.174243	0.387635	0.877698
	C189	C	0.177727	0.616653	0.119073
	C190	C	0.821315	0.387907	0.115457
	C191	C	0.818717	0.617173	0.874441
	C192	C	0.399481	0.096477	0.593623
	C193	C	0.600518	0.906526	0.597595
	C194	C	0.596058	0.095666	0.398602
	C195	C	0.394151	0.907616	0.394183
	C196	C	0.598248	0.403839	0.092245
	C197	C	0.595901	0.603024	0.900129
	C198	C	0.401177	0.602118	0.093219
	C199	C	0.398268	0.405480	0.899606
	C200	C	0.092449	0.602720	0.400114
	C201	C	0.902590	0.603507	0.593273
	C202	C	0.092007	0.401682	0.597698
	C203	C	0.902422	0.401057	0.396361
	C204	C	0.898679	0.596961	0.094672
	C205	C	0.100623	0.407490	0.097998
	C206	C	0.096436	0.596040	0.899111
	C207	C	0.893846	0.407559	0.895070
	C208	C	0.098305	0.903665	0.592965
	C209	C	0.094787	0.102420	0.400220
	C210	C	0.900220	0.100933	0.593207
	C211	C	0.897937	0.904518	0.399905
	C212	C	0.594144	0.104991	0.897892
	C213	C	0.402990	0.103090	0.090815
	C214	C	0.592946	0.902986	0.096653
	C215	C	0.403064	0.901990	0.895519
	Zn216	Zn	0.499754	0.002013	0.746652
	Zn217	Zn	0.495740	0.002077	0.244925
	Zn218	Zn	0.746446	0.502767	-0.004027
	Zn219	Zn	0.249704	0.502348	-0.002316
	Zn220	Zn	-0.001855	0.754483	0.496691
	Zn221	Zn	-0.002523	0.250974	0.497185
	Zn222	Zn	-0.003907	0.502132	0.746091
	Zn223	Zn	-0.001507	0.501504	0.247541
	Zn224	Zn	0.498197	0.752544	-0.003047
	Zn225	Zn	0.498278	0.255060	-0.004785
	Zn226	Zn	0.749104	0.001947	0.497200
	Zn227	Zn	0.245996	0.002917	0.495623
	N228	N	0.415619	0.964291	0.672178
	N229	N	0.585269	0.038986	0.675094
	N230	N	0.579643	0.964032	0.320069
	N231	N	0.409198	0.039356	0.315610
	N232	N	0.673299	0.419127	0.957552
	N233	N	0.676044	0.588296	0.034058
	N234	N	0.319748	0.588996	0.959910
	N235	N	0.323035	0.417946	0.034400
	N236	N	0.961567	0.684190	0.407761
	N237	N	0.034205	0.683170	0.584686
	N238	N	0.961365	0.321158	0.584859
	N239	N	0.033676	0.321245	0.409558
	N240	N	0.958422	0.418921	0.671451
	N241	N	0.034685	0.587029	0.674137
	N242	N	0.960006	0.586140	0.319679
	N243	N	0.035844	0.417785	0.321851
	N244	N	0.412657	0.680434	0.959199
	N245	N	0.584360	0.680781	0.034252
	N246	N	0.584098	0.325300	0.958517
	N247	N	0.411657	0.323880	0.031855
	N248	N	0.676545	0.964841	0.410374
	N249	N	0.679780	0.037833	0.585388
	N250	N	0.319377	0.965817	0.581898
	N251	N	0.315673	0.038953	0.407207
	N252	N	0.914953	0.464245	0.172221
	N253	N	0.084813	0.539560	0.176205
	N254	N	0.079509	0.463761	0.821450
	N255	N	0.910203	0.539789	0.817183
	N256	N	0.172843	0.918817	0.458022
	N257	N	0.176277	0.089041	0.533596
	N258	N	0.819470	0.087809	0.459560
	N259	N	0.822035	0.917625	0.534353
	N260	N	0.462412	0.184091	0.906748
	N261	N	0.534357	0.182913	0.082905
	N262	N	0.462043	0.821906	0.084534
	N263	N	0.534350	0.822515	0.909588
	N264	N	0.459225	0.918921	0.170644
	N265	N	0.534288	0.088043	0.173946
	N266	N	0.461595	0.087139	0.818315
	N267	N	0.536917	0.918998	0.821856
	N268	N	0.910817	0.180151	0.459726
	N269	N	0.083035	0.179168	0.534852
	N270	N	0.084918	0.823820	0.459982
	N271	N	0.912563	0.825160	0.533451
	N272	N	0.177336	0.465645	0.910509
	N273	N	0.180381	0.538791	0.085789
	N274	N	0.818982	0.465858	0.082291
	N275	N	0.816062	0.539316	0.907874
	O276	O	0.004591	-0.095304	0.043615
	H277	H	0.001336	-0.090019	0.043828
	H278	H	0.010216	-0.094726	0.044247
	O279	O	0.520585	0.416143	0.558743
	H280	H	0.518971	0.410997	0.565321
	H281	H	0.516481	0.414752	0.554360
	O282	O	0.332132	0.503095	0.415911
	H283	H	0.338675	0.508996	0.417813
	H284	H	0.318520	0.522426	0.403733
	O285	O	0.026209	1.030185	0.895456
	H286	H	0.026661	1.030697	0.891459
	H287	H	0.022033	1.030790	0.899894
	O288	O	0.570280	0.511799	0.604077
	H289	H	0.572643	0.516522	0.606213
	H290	H	0.567331	0.499159	0.623047
	O291	O	1.047257	1.041406	0.960640
	H292	H	1.039545	1.049088	0.954810
	H293	H	1.059855	1.048042	0.960833
	O294	O	1.064251	1.030367	0.999887
	H295	H	1.066586	1.034643	0.995704
	H296	H	1.061267	1.020091	1.004211
	O297	O	0.994733	0.008791	0.973785
	H298	H	0.996410	0.012594	0.972900
	H299	H	1.003633	0.012378	0.972371
	O300	O	0.541563	0.532031	0.529313
	H301	H	0.545865	0.535278	0.519092
	H302	H	0.532547	0.539491	0.519330
	O303	O	0.968967	0.035336	-0.038237
	H304	H	0.959189	0.034795	-0.038965
	H305	H	0.975481	0.034116	-0.041988
	O306	O	-0.023083	0.987969	1.000436
	H307	H	-0.021156	0.985160	1.005220
	H308	H	-0.026743	0.985823	1.003591
	O309	O	0.480749	0.497799	0.427821
	H310	H	0.475059	0.505479	0.419547
	H311	H	0.473723	0.496349	0.418632
	O312	O	0.972483	-0.080315	1.050273
	H313	H	0.981157	-0.077613	1.051929
	H314	H	0.974093	-0.075981	1.047028
	O315	O	0.519319	0.439689	0.580524
	H316	H	0.512338	0.440292	0.577450
	H317	H	0.524064	0.444064	0.588780
	O318	O	0.487033	0.603635	0.543050
	H319	H	0.491694	0.600778	0.542283
	H320	H	0.489389	0.602888	0.554107
	O321	O	1.007270	1.005676	1.022066
	H322	H	0.999183	1.018349	1.019077
	H323	H	1.010317	1.005712	1.018590
	O324	O	0.461465	0.453724	0.466829
	H325	H	0.471485	0.443725	0.454012
	H326	H	0.454066	0.453923	0.452741
	O327	O	0.505099	0.526063	0.430116
	H328	H	0.498957	0.532568	0.435097
	H329	H	0.520402	0.530581	0.435330
	O330	O	1.000043	0.038786	1.024009
	H331	H	0.998883	0.034950	1.018737
	H332	H	1.007090	0.034016	1.029778
	O333	O	0.923676	0.937989	0.091302
	H334	H	0.923195	0.944548	0.087665
	H335	H	0.912890	0.929916	0.103882
	O336	O	0.594454	0.547075	0.518079
	H337	H	0.597527	0.541814	0.538548
	H338	H	0.592465	0.543989	0.515754
	O339	O	0.476556	0.461189	0.420859
	H340	H	0.475369	0.450035	0.421114
	H341	H	0.484515	0.459323	0.417039
	O342	O	0.012990	1.036053	0.003255
	H343	H	-0.005149	1.038738	0.000398
	H344	H	0.023014	1.032695	0.009052
	O345	O	-0.021738	0.009502	-0.034511
	H346	H	-0.029096	0.011419	-0.037223
	H347	H	-0.023126	0.000345	-0.042384
	O348	O	0.449021	0.463616	0.515684
	H349	H	0.454418	0.468901	0.501499
	H350	H	0.437028	0.467994	0.513131
	O351	O	0.416424	0.560247	0.403296
	H352	H	0.413693	0.551572	0.408010
	H353	H	0.422638	0.568090	0.405594
	O354	O	0.562057	0.469835	0.410224
	H355	H	0.566405	0.474679	0.421814
	H356	H	0.564487	0.470225	0.417297
	O357	O	0.566574	0.548304	0.549765
	H358	H	0.565363	0.559986	0.538223
	H359	H	0.567719	0.557008	0.566497
	O360	O	0.032759	-0.030764	-0.052676
	H361	H	0.036562	-0.033562	-0.044975
	H362	H	0.044882	-0.039904	-0.059093
	O363	O	0.427767	0.420833	0.621698
	H364	H	0.417526	0.406547	0.612771
	H365	H	0.415951	0.417094	0.632945
	O366	O	-0.017301	-0.013510	1.044566
	H367	H	-0.022562	-0.008687	1.036926
	H368	H	-0.014967	-0.010320	1.050285
	O369	O	0.406343	0.549951	0.437994
	H370	H	0.408987	0.548663	0.433993
	H371	H	0.401760	0.552170	0.424371
