data_Molecule from HDF5

_cell_length_a		16.545510
_cell_length_b		16.551222
_cell_length_c		16.634098
_cell_angle_alpha	89.928227
_cell_angle_beta	89.961861
_cell_angle_gamma	90.093875
_symmetry_space_group_name_H-M	'P 1'
_symmetry_Int_Tables_number		1

loop_
	_symmetry_equiv_pos_as_xyz
	x,y,z

loop_
	_atom_site_label
	_atom_site_type_symbol
	_atom_site_fract_x
	_atom_site_fract_y
	_atom_site_fract_z
	H0	H	0.387136	0.847256	0.742020
	H1	H	0.601772	0.158343	0.742050
	H2	H	0.599532	0.845204	0.299020
	H3	H	0.388589	0.157124	0.295413
	H4	H	0.717116	0.396920	0.864419
	H5	H	0.721706	0.613890	0.171451
	H6	H	0.272963	0.606922	0.863438
	H7	H	0.272618	0.396895	0.175440
	H8	H	0.836087	0.720313	0.418671
	H9	H	0.153054	0.721145	0.620600
	H10	H	0.837729	0.280229	0.625297
	H11	H	0.149758	0.281371	0.414236
	H12	H	0.838034	0.397195	0.740458
	H13	H	0.152861	0.604475	0.737850
	H14	H	0.837554	0.607452	0.299006
	H15	H	0.149606	0.398114	0.297652
	H16	H	0.388963	0.724515	0.864066
	H17	H	0.603084	0.727189	0.172709
	H18	H	0.599687	0.280961	0.864075
	H19	H	0.387852	0.278771	0.174150
	H20	H	0.712379	0.843793	0.418862
	H21	H	0.716873	0.159012	0.624480
	H22	H	0.272196	0.846890	0.624704
	H23	H	0.272424	0.157020	0.410588
	H24	H	0.885402	0.347679	0.244130
	H25	H	0.098616	0.660145	0.238956
	H26	H	0.101303	0.345899	0.797059
	H27	H	0.891128	0.658735	0.798982
	H28	H	0.217254	0.897316	0.362399
	H29	H	0.219950	0.110127	0.672180
	H30	H	0.775190	0.105466	0.362606
	H31	H	0.779247	0.902612	0.677337
	H32	H	0.337543	0.222510	0.915211
	H33	H	0.651608	0.224393	0.122985
	H34	H	0.337152	0.783499	0.122092
	H35	H	0.648336	0.778266	0.910983
	H36	H	0.338418	0.898401	0.240127
	H37	H	0.651615	0.108997	0.240746
	H38	H	0.338219	0.107900	0.797010
	H39	H	0.649510	0.896850	0.796890
	H40	H	0.889638	0.224288	0.363393
	H41	H	0.104302	0.226944	0.672803
	H42	H	0.101787	0.779108	0.363563
	H43	H	0.895346	0.785898	0.677178
	H44	H	0.214966	0.345048	0.914774
	H45	H	0.214346	0.659275	0.122634
	H46	H	0.770808	0.346897	0.126151
	H47	H	0.773880	0.658446	0.914824
	H48	H	0.410922	0.111861	0.605500
	H49	H	0.586917	0.889177	0.611646
	H50	H	0.584776	0.115084	0.428267
	H51	H	0.403293	0.889284	0.430422
	H52	H	0.576832	0.412886	0.129450
	H53	H	0.582686	0.594996	0.906481
	H54	H	0.399593	0.586039	0.130594
	H55	H	0.403202	0.413436	0.907715
	H56	H	0.108048	0.591898	0.426167
	H57	H	0.880935	0.599726	0.607710
	H58	H	0.106473	0.414269	0.607899
	H59	H	0.884785	0.416137	0.436343
	H60	H	0.106397	0.413427	0.608266
	H61	H	0.884201	0.588386	0.608004
	H62	H	0.108194	0.594642	0.430284
	H63	H	0.882236	0.418055	0.429407
	H64	H	0.411594	0.592723	0.129469
	H65	H	0.585652	0.584988	0.909049
	H66	H	0.586024	0.412027	0.132690
	H67	H	0.405857	0.413175	0.908652
	H68	H	0.584081	0.114287	0.429048
	H69	H	0.583438	0.890486	0.610528
	H70	H	0.406074	0.113515	0.604670
	H71	H	0.409771	0.889598	0.426788
	H72	H	0.903819	0.613604	0.103457
	H73	H	0.085483	0.389614	0.108628
	H74	H	0.090380	0.614826	0.933250
	H75	H	0.909861	0.391681	0.930210
	H76	H	0.084984	0.911877	0.630330
	H77	H	0.085170	0.082937	0.409859
	H78	H	0.900606	0.089569	0.631779
	H79	H	0.905593	0.906974	0.405527
	H80	H	0.608289	0.093989	0.925764
	H81	H	0.383822	0.086587	0.111488
	H82	H	0.608452	0.914649	0.111024
	H83	H	0.380418	0.912523	0.927533
	H84	H	0.608502	0.911149	0.106276
	H85	H	0.382073	0.094226	0.107803
	H86	H	0.605635	0.093113	0.934468
	H87	H	0.381641	0.911743	0.933735
	H88	H	0.909581	0.087198	0.628077
	H89	H	0.074737	0.091423	0.411603
	H90	H	0.084585	0.915562	0.628448
	H91	H	0.899207	0.909756	0.404140
	H92	H	0.084233	0.617053	0.921614
	H93	H	0.080362	0.389431	0.112603
	H94	H	0.905803	0.615390	0.112231
	H95	H	0.904841	0.390429	0.933235
	H96	H	0.407906	0.114628	0.609005
	H97	H	0.586202	0.890333	0.607535
	H98	H	0.585076	0.115074	0.429401
	H99	H	0.409487	0.892217	0.433807
	H100	H	0.583153	0.420258	0.128834
	H101	H	0.575990	0.588807	0.911778
	H102	H	0.400875	0.598901	0.134838
	H103	H	0.404637	0.411175	0.907201
	H104	H	0.105735	0.590542	0.429984
	H105	H	0.880172	0.593296	0.617513
	H106	H	0.106483	0.413584	0.607277
	H107	H	0.880993	0.410967	0.431909
	H108	H	0.912570	0.611533	0.107100
	H109	H	0.079976	0.392203	0.106890
	H110	H	0.077427	0.611491	0.931939
	H111	H	0.905252	0.389007	0.927597
	H112	H	0.081413	0.913082	0.628262
	H113	H	0.085583	0.095574	0.405148
	H114	H	0.907812	0.096335	0.631033
	H115	H	0.904257	0.913603	0.406388
	H116	H	0.604942	0.086496	0.929432
	H117	H	0.386224	0.087886	0.103285
	H118	H	0.605484	0.916731	0.106325
	H119	H	0.383087	0.917624	0.930606
	C120	C	0.374359	0.010673	0.639476
	C121	C	0.616860	0.993905	0.641572
	C122	C	0.616496	0.010732	0.398110
	C123	C	0.374866	0.993240	0.397520
	C124	C	0.615382	0.381848	0.027884
	C125	C	0.615970	0.624345	1.010321
	C126	C	0.372351	0.623934	0.028093
	C127	C	0.372518	0.380431	1.010887
	C128	C	0.003067	0.624078	0.398147
	C129	C	0.986570	0.623747	0.641066
	C130	C	0.003041	0.380944	0.640530
	C131	C	0.985656	0.382625	0.399262
	C132	C	0.873042	0.510902	0.141056
	C133	C	0.114636	0.494011	0.140677
	C134	C	0.116423	0.510653	0.897384
	C135	C	0.874364	0.493896	0.898589
	C136	C	0.116452	0.881168	0.526501
	C137	C	0.116398	0.123994	0.510334
	C138	C	0.873606	0.123399	0.527613
	C139	C	0.873535	0.880859	0.510146
	C140	C	0.502852	0.123850	0.897477
	C141	C	0.487353	0.123008	0.139859
	C142	C	0.503520	0.881490	0.140270
	C143	C	0.484917	0.881105	0.897673
	C144	C	0.369949	0.893681	0.700949
	C145	C	0.619776	0.111632	0.701630
	C146	C	0.617814	0.892080	0.339352
	C147	C	0.371076	0.110567	0.336030
	C148	C	0.676307	0.378903	0.910928
	C149	C	0.679623	0.630262	0.125638
	C150	C	0.312890	0.625551	0.910411
	C151	C	0.312601	0.378198	0.128497
	C152	C	0.883902	0.681868	0.398681
	C153	C	0.105715	0.681764	0.640498
	C154	C	0.884990	0.320519	0.643366
	C155	C	0.103123	0.322103	0.396042
	C156	C	0.885088	0.378638	0.700703
	C157	C	0.105715	0.623855	0.698573
	C158	C	0.884631	0.625833	0.339230
	C159	C	0.103047	0.379854	0.338148
	C160	C	0.370657	0.683807	0.910464
	C161	C	0.620687	0.686698	0.126293
	C162	C	0.618159	0.321146	0.910893
	C163	C	0.369649	0.319501	0.127735
	C164	C	0.673944	0.891515	0.398634
	C165	C	0.676860	0.112006	0.643064
	C166	C	0.312733	0.893590	0.642780
	C167	C	0.313367	0.110473	0.393440
	C168	C	0.868121	0.394329	0.203268
	C169	C	0.116994	0.612596	0.199700
	C170	C	0.119074	0.392955	0.837521
	C171	C	0.872084	0.611687	0.838730
	C172	C	0.177181	0.878750	0.409339
	C173	C	0.179126	0.128017	0.625976
	C174	C	0.814373	0.124789	0.409838
	C175	C	0.817746	0.882749	0.629874
	C176	C	0.384751	0.183010	0.896183
	C177	C	0.604831	0.183997	0.141881
	C178	C	0.384739	0.822585	0.141317
	C179	C	0.601949	0.819703	0.893876
	C180	C	0.385303	0.879464	0.199927
	C181	C	0.604897	0.126535	0.200151
	C182	C	0.385191	0.126240	0.837357
	C183	C	0.602462	0.878227	0.836896
	C184	C	0.871435	0.183569	0.409935
	C185	C	0.121353	0.186007	0.626357
	C186	C	0.119768	0.820143	0.409750
	C187	C	0.875418	0.824673	0.629636
	C188	C	0.175793	0.392434	0.896060
	C189	C	0.174515	0.612111	0.141713
	C190	C	0.811482	0.393783	0.144288
	C191	C	0.814076	0.611726	0.896282
	C192	C	0.400763	0.091957	0.613710
	C193	C	0.592236	0.911604	0.617039
	C194	C	0.591863	0.093201	0.422126
	C195	C	0.400239	0.911656	0.423041
	C196	C	0.589530	0.407630	0.109069
	C197	C	0.589057	0.597356	0.930078
	C198	C	0.397070	0.599571	0.110130
	C199	C	0.397495	0.405522	0.929209
	C200	C	0.085789	0.599456	0.422051
	C201	C	0.903353	0.600342	0.617839
	C202	C	0.084884	0.406435	0.615170
	C203	C	0.903987	0.407958	0.425005
	C204	C	0.899684	0.592377	0.115007
	C205	C	0.089052	0.411866	0.116438
	C206	C	0.091364	0.593066	0.922100
	C207	C	0.899461	0.411821	0.923446
	C208	C	0.090930	0.906463	0.607722
	C209	C	0.089445	0.097657	0.429777
	C210	C	0.898896	0.098426	0.609059
	C211	C	0.896213	0.903558	0.427059
	C212	C	0.584866	0.098454	0.922575
	C213	C	0.405445	0.097056	0.114792
	C214	C	0.585941	0.906894	0.115153
	C215	C	0.403072	0.906796	0.923243
	Zn216	Zn	0.494334	0.002344	0.769006
	Zn217	Zn	0.495988	0.002062	0.268973
	Zn218	Zn	0.744566	0.502855	0.019464
	Zn219	Zn	0.243722	0.501773	0.019871
	Zn220	Zn	-0.004771	0.752427	0.518986
	Zn221	Zn	-0.005544	0.252660	0.519605
	Zn222	Zn	-0.004651	0.501785	0.769139
	Zn223	Zn	-0.005912	0.503118	0.269630
	Zn224	Zn	0.494266	0.752950	0.019204
	Zn225	Zn	0.494333	0.252144	0.019310
	Zn226	Zn	0.744615	0.002061	0.519582
	Zn227	Zn	0.245872	0.002566	0.518042
	N228	N	0.407592	0.967527	0.699085
	N229	N	0.583214	0.037189	0.700996
	N230	N	0.582788	0.967327	0.338744
	N231	N	0.408984	0.036843	0.338501
	N232	N	0.674711	0.415915	0.984701
	N233	N	0.676806	0.592019	0.052642
	N234	N	0.313733	0.589211	0.984570
	N235	N	0.313933	0.415256	0.054764
	N236	N	0.958758	0.681022	0.434421
	N237	N	0.030512	0.682011	0.605729
	N238	N	0.959397	0.321562	0.606827
	N239	N	0.029011	0.323345	0.433082
	N240	N	0.959562	0.415379	0.699259
	N241	N	0.030384	0.588840	0.699170
	N242	N	0.959850	0.590913	0.338460
	N243	N	0.028973	0.416756	0.339993
	N244	N	0.406881	0.682996	0.984731
	N245	N	0.581523	0.683166	0.053641
	N246	N	0.580907	0.322819	0.984608
	N247	N	0.405958	0.320585	0.053585
	N248	N	0.673302	0.966278	0.434352
	N249	N	0.675276	0.037676	0.606478
	N250	N	0.315271	0.967304	0.605154
	N251	N	0.315699	0.036728	0.431197
	N252	N	0.905535	0.468401	0.201479
	N253	N	0.080633	0.537835	0.199431
	N254	N	0.082949	0.467682	0.838167
	N255	N	0.908774	0.537332	0.839691
	N256	N	0.175301	0.916064	0.482983
	N257	N	0.176182	0.090013	0.552957
	N258	N	0.815421	0.088319	0.483907
	N259	N	0.816109	0.916538	0.554433
	N260	N	0.459102	0.181892	0.932639
	N261	N	0.530528	0.182002	0.105239
	N262	N	0.459545	0.823416	0.105222
	N263	N	0.527862	0.821310	0.930904
	N264	N	0.460487	0.914779	0.199850
	N265	N	0.530700	0.089449	0.199104
	N266	N	0.459901	0.090307	0.837806
	N267	N	0.528652	0.915825	0.839192
	N268	N	0.907635	0.182926	0.484191
	N269	N	0.082795	0.183492	0.553451
	N270	N	0.082842	0.821454	0.483488
	N271	N	0.909411	0.823289	0.554246
	N272	N	0.174394	0.466873	0.932544
	N273	N	0.173569	0.537382	0.106066
	N274	N	0.814231	0.467500	0.106358
	N275	N	0.815135	0.537347	0.932560
	O276	O	-0.720128	0.534772	-0.695879
	H277	H	-0.719106	0.522990	-0.706912
	H278	H	-0.720273	0.535562	-0.711876
	O279	O	0.416542	0.445520	0.306836
	H280	H	0.424489	0.437029	0.292413
	H281	H	0.435593	0.439030	0.325890
	O282	O	0.776891	-0.030032	1.232941
	H283	H	0.774277	-0.032848	1.235638
	H284	H	0.772890	-0.021166	1.243333
	O285	O	0.223356	0.144131	-0.213830
	H286	H	0.219029	0.138018	-0.187271
	H287	H	0.231321	0.136808	-0.227240
	O288	O	0.667655	0.385756	0.622742
	H289	H	0.673551	0.388549	0.623143
	H290	H	0.655149	0.391650	0.610896
	O291	O	0.313684	0.687490	0.702598
	H292	H	0.336860	0.677007	0.688207
	H293	H	0.321128	0.677536	0.688672
	O294	O	1.212906	0.047949	1.116983
	H295	H	1.209000	0.063051	1.119570
	H296	H	1.221737	0.066257	1.118923
	O297	O	0.432417	0.428338	0.538457
	H298	H	0.445975	0.432285	0.534593
	H299	H	0.434190	0.430048	0.535970
	O300	O	-0.016244	0.111577	0.813801
	H301	H	-0.030040	0.096838	0.817325
	H302	H	-0.019321	0.123855	0.799515
	O303	O	0.499927	0.401572	0.727380
	H304	H	0.519411	0.405833	0.734496
	H305	H	0.491526	0.399436	0.727770
	O306	O	1.201038	0.213574	0.233739
	H307	H	1.229010	0.227890	0.259359
	H308	H	1.207172	0.201445	0.210044
	O309	O	0.626052	0.664417	0.716329
	H310	H	0.644692	0.695817	0.741704
	H311	H	0.612227	0.649049	0.716565
	O312	O	0.571803	0.441062	0.623050
	H313	H	0.561295	0.447227	0.628610
	H314	H	0.581886	0.449349	0.627231
	O315	O	0.912596	0.886064	1.067432
	H316	H	0.916891	0.880380	1.079349
	H317	H	0.917156	0.891942	1.070708
	O318	O	0.329360	0.537333	0.586359
	H319	H	0.323458	0.533777	0.583168
	H320	H	0.326435	0.537956	0.584206
	O321	O	0.208815	0.788700	-0.011200
	H322	H	0.208714	0.781412	-0.020392
	H323	H	0.216789	0.778082	-0.007746
	O324	O	0.766124	0.778306	-0.203711
	H325	H	0.793482	0.793905	-0.178492
	H326	H	0.778249	0.773889	-0.187388
	O327	O	-0.045166	0.055059	0.870879
	H328	H	-0.048942	0.059295	0.863674
	H329	H	-0.034037	0.031842	0.858991
	O330	O	0.441427	0.275052	0.462631
	H331	H	0.438830	0.271218	0.462717
	H332	H	0.429741	0.274716	0.461289
	O333	O	0.679035	0.673500	0.333710
	H334	H	0.664673	0.664407	0.363427
	H335	H	0.668368	0.645766	0.337551
	O336	O	1.598195	0.400266	-0.228340
	H337	H	1.591928	0.376707	-0.231280
	H338	H	1.599903	0.383182	-0.221722
	O339	O	1.305982	-0.687267	0.332045
	H340	H	1.328742	-0.673918	0.351547
	H341	H	1.317499	-0.673452	0.345598
	O342	O	0.072204	0.170668	0.062810
	H343	H	0.069413	0.183595	0.057734
	H344	H	0.088805	0.166310	0.078817
	O345	O	-0.213827	0.798546	1.229624
	H346	H	-0.212607	0.795184	1.245314
	H347	H	-0.233240	0.801832	1.238069
	O348	O	0.450598	-0.298535	0.565691
	H349	H	0.446290	-0.298287	0.576419
	H350	H	0.434523	-0.301100	0.558020
	O351	O	0.964125	0.885083	-0.103993
	H352	H	0.965164	0.889985	-0.093125
	H353	H	0.975692	0.894748	-0.098309
	O354	O	-0.013318	0.193349	1.013008
	H355	H	-0.012852	0.197074	1.013524
	H356	H	-0.007296	0.195578	0.997050
	O357	O	0.284222	0.291026	0.540271
	H358	H	0.259526	0.273669	0.557112
	H359	H	0.284330	0.298911	0.557660
	O360	O	0.461705	0.501801	0.627292
	H361	H	0.465026	0.511131	0.631985
	H362	H	0.456377	0.500361	0.635673
	O363	O	-0.226892	-0.148558	0.011389
	H364	H	-0.201052	-0.147912	0.019442
	H365	H	-0.241831	-0.178596	0.031189
	O366	O	1.165505	0.948179	0.057310
	H367	H	1.176693	0.967794	0.051883
	H368	H	1.162179	0.930813	0.046926
	O369	O	0.306897	0.685315	0.335589
	H370	H	0.331656	0.692129	0.327487
	H371	H	0.314908	0.656325	0.331251
	O372	O	1.071301	0.786945	0.088366
	H373	H	1.067223	0.785596	0.088889
	H374	H	1.083836	0.790878	0.089031
	O375	O	1.033795	0.059823	-0.214702
	H376	H	1.016352	0.048394	-0.219964
	H377	H	1.034365	0.053282	-0.216876
	O378	O	0.299687	0.713951	0.501721
	H379	H	0.279808	0.725865	0.496904
	H380	H	0.302437	0.707085	0.466696
	O381	O	-0.117848	1.213498	0.808292
	H382	H	-0.126408	1.228700	0.817501
	H383	H	-0.124051	1.178385	0.796720
	O384	O	0.859405	0.155587	0.996993
	H385	H	0.855709	0.160347	1.003968
	H386	H	0.860500	0.151548	1.001040
	O387	O	0.981973	1.014856	0.250744
	H388	H	0.996202	0.996685	0.254424
	H389	H	0.993780	1.034158	0.254120
	O390	O	0.463098	0.720223	0.299619
	H391	H	0.486642	0.704101	0.304837
	H392	H	0.467748	0.749017	0.277932
	O393	O	0.163317	-0.012457	-0.094692
	H394	H	0.170013	-0.006014	-0.109274
	H395	H	0.137655	-0.011898	-0.080272
	O396	O	-0.472855	1.667022	0.450539
	H397	H	-0.481891	1.662107	0.460934
	H398	H	-0.476522	1.676683	0.471382
	O399	O	0.706473	0.478053	0.296006
	H400	H	0.729819	0.465809	0.279188
	H401	H	0.708082	0.479742	0.313102
	O402	O	0.660155	0.366130	0.413953
	H403	H	0.666755	0.390408	0.409757
	H404	H	0.671705	0.346269	0.410597
	O405	O	1.180753	0.050140	0.930031
	H406	H	1.173575	0.043695	0.945473
	H407	H	1.176194	0.033665	0.935900
	O408	O	-0.135299	0.029736	-0.135276
	H409	H	-0.157496	0.027709	-0.130055
	H410	H	-0.123040	0.022371	-0.123395
	O411	O	-0.259607	1.249090	1.269884
	H412	H	-0.252743	1.253975	1.287590
	H413	H	-0.240945	1.223260	1.250691
	O414	O	0.287925	0.462960	0.701559
	H415	H	0.272096	0.461757	0.717633
	H416	H	0.304533	0.456899	0.701932
	O417	O	0.275506	0.477176	0.468348
	H418	H	0.286131	0.466936	0.477524
	H419	H	0.270161	0.489992	0.460274
	O420	O	0.653472	0.530104	0.723355
	H421	H	0.655644	0.517735	0.710747
	H422	H	0.660336	0.508026	0.736095
	O423	O	0.518696	-0.710318	0.299595
	H424	H	0.534799	-0.728884	0.292828
	H425	H	0.541543	-0.716335	0.304541
	O426	O	-0.010607	0.099563	0.064924
	H427	H	-0.008921	0.094105	0.083067
	H428	H	-0.008330	0.109837	0.066287
	O429	O	1.084623	1.153827	1.234144
	H430	H	1.093805	1.169403	1.251129
	H431	H	1.106171	1.144027	1.221160
	O432	O	1.030537	0.777094	-0.204190
	H433	H	1.047170	0.755396	-0.221680
	H434	H	1.062943	0.771071	-0.208671
	O435	O	-0.222984	1.131732	-0.115271
	H436	H	-0.222814	1.124716	-0.111036
	H437	H	-0.246387	1.137132	-0.131979
	O438	O	-0.196550	0.142349	0.169742
	H439	H	-0.191803	0.130621	0.150283
	H440	H	-0.176252	0.131036	0.176160
	O441	O	0.211286	0.217533	0.051262
	H442	H	0.217971	0.230875	0.051157
	H443	H	0.214842	0.224773	0.048847
	O444	O	0.459563	0.335415	0.688385
	H445	H	0.460993	0.305493	0.710390
	H446	H	0.478818	0.337077	0.669159
	O447	O	-0.113238	0.801880	1.004310
	H448	H	-0.098520	0.799403	0.998542
	H449	H	-0.107166	0.791952	1.018725
	O450	O	-0.284394	0.722733	1.555507
	H451	H	-0.282997	0.729698	1.586738
	H452	H	-0.266210	0.745270	1.575089
	O453	O	0.664983	0.608721	0.479641
	H454	H	0.649907	0.615008	0.494981
	H455	H	0.667256	0.633379	0.489258
	O456	O	-0.026187	-0.215164	1.204263
	H457	H	-0.045603	-0.223660	1.204512
	H458	H	-0.029174	-0.228563	1.205477
	O459	O	0.815764	0.927819	0.023519
	H460	H	0.819995	0.933923	0.040252
	H461	H	0.823161	0.913033	0.042353
	O462	O	0.694093	0.502819	0.602825
	H463	H	0.694882	0.524533	0.608400
	H464	H	0.691371	0.513946	0.619122
	O465	O	1.106426	-0.117809	0.239681
	H466	H	1.122675	-0.125148	0.250535
	H467	H	1.094631	-0.138167	0.236675
	O468	O	0.711881	0.282672	0.487789
	H469	H	0.714237	0.281956	0.484553
	H470	H	0.729857	0.271947	0.478733
	O471	O	0.328358	0.396285	0.622078
	H472	H	0.348170	0.388148	0.626051
	H473	H	0.327305	0.409890	0.626818
	O474	O	0.521894	0.715330	0.725100
	H475	H	0.536736	0.724932	0.733683
	H476	H	0.526594	0.720109	0.734939
	O477	O	0.544346	0.567414	1.286912
	H478	H	0.543135	0.554265	1.294591
	H479	H	0.555176	0.565835	1.287136
	O480	O	0.532138	0.282847	0.611278
	H481	H	0.527212	0.284062	0.608749
	H482	H	0.533513	0.281838	0.599043
	O483	O	0.853425	1.060947	1.061575
	H484	H	0.854967	1.067866	1.057171
	H485	H	0.849158	1.064497	1.068857
	O486	O	1.101033	-0.066659	1.193792
	H487	H	1.107852	-0.062584	1.199142
	H488	H	1.098080	-0.053947	1.192650
	O489	O	1.202775	0.792071	-0.186072
	H490	H	1.231542	0.770884	-0.202934
	H491	H	1.207470	0.823577	-0.171255
