data_Molecule from HDF5

_cell_length_a		16.259417
_cell_length_b		16.274552
_cell_length_c		16.221565
_cell_angle_alpha	90.000624
_cell_angle_beta	89.993468
_cell_angle_gamma	89.946086
_symmetry_space_group_name_H-M	'P 1'
_symmetry_Int_Tables_number		1

loop_
	_symmetry_equiv_pos_as_xyz
	x,y,z

loop_
	_atom_site_label
	_atom_site_type_symbol
	_atom_site_fract_x
	_atom_site_fract_y
	_atom_site_fract_z
	H0	H	0.401989	0.835622	0.714386
	H1	H	0.597926	0.163515	0.714167
	H2	H	0.597707	0.835544	0.286753
	H3	H	0.402325	0.164069	0.286827
	H4	H	0.714123	0.401150	0.836110
	H5	H	0.713506	0.597912	0.163727
	H6	H	0.286542	0.597389	0.835513
	H7	H	0.288105	0.403769	0.164664
	H8	H	0.835056	0.714194	0.402801
	H9	H	0.164375	0.713342	0.597227
	H10	H	0.835645	0.286455	0.598523
	H11	H	0.163601	0.284858	0.401087
	H12	H	0.835527	0.403238	0.712881
	H13	H	0.164322	0.596776	0.713146
	H14	H	0.835620	0.597733	0.286925
	H15	H	0.164593	0.402984	0.287344
	H16	H	0.402262	0.713618	0.834745
	H17	H	0.597987	0.714186	0.163781
	H18	H	0.597742	0.285964	0.836004
	H19	H	0.402288	0.287120	0.165085
	H20	H	0.715130	0.836660	0.401339
	H21	H	0.713717	0.163685	0.598552
	H22	H	0.286573	0.835650	0.597378
	H23	H	0.285652	0.163716	0.402120
	H24	H	0.902970	0.335168	0.213365
	H25	H	0.097208	0.664360	0.213321
	H26	H	0.099062	0.335694	0.785340
	H27	H	0.902819	0.663546	0.786722
	H28	H	0.213116	0.903465	0.335616
	H29	H	0.212968	0.097159	0.664640
	H30	H	0.784906	0.098910	0.335991
	H31	H	0.785806	0.903283	0.664286
	H32	H	0.336296	0.213980	0.902706
	H33	H	0.664380	0.214019	0.099161
	H34	H	0.335864	0.785878	0.097686
	H35	H	0.663650	0.784458	0.900103
	H36	H	0.335172	0.904520	0.211888
	H37	H	0.664250	0.096547	0.213093
	H38	H	0.335823	0.097684	0.786728
	H39	H	0.664784	0.902906	0.787386
	H40	H	0.901433	0.214461	0.335549
	H41	H	0.098348	0.213668	0.664570
	H42	H	0.098188	0.787138	0.335355
	H43	H	0.901558	0.786692	0.664783
	H44	H	0.212986	0.335311	0.903608
	H45	H	0.214367	0.663466	0.098317
	H46	H	0.785781	0.335883	0.098169
	H47	H	0.786304	0.663407	0.902074
	H48	H	0.404414	0.118941	0.601460
	H49	H	0.591484	0.880658	0.602800
	H50	H	0.585629	0.114416	0.408721
	H51	H	0.408235	0.881419	0.399790
	H52	H	0.586556	0.402691	0.116555
	H53	H	0.592609	0.592234	0.882366
	H54	H	0.400750	0.583629	0.115797
	H55	H	0.405532	0.401053	0.880524
	H56	H	0.117182	0.589107	0.398904
	H57	H	0.887084	0.592910	0.580782
	H58	H	0.116705	0.406746	0.591847
	H59	H	0.880211	0.399042	0.404004
	H60	H	0.116671	0.406584	0.593710
	H61	H	0.883274	0.583757	0.601175
	H62	H	0.119931	0.603407	0.405667
	H63	H	0.884462	0.407522	0.414186
	H64	H	0.418851	0.595448	0.114247
	H65	H	0.592545	0.593741	0.882601
	H66	H	0.600181	0.402631	0.121009
	H67	H	0.403314	0.409583	0.882771
	H68	H	0.598499	0.116994	0.411242
	H69	H	0.587280	0.887197	0.587286
	H70	H	0.415081	0.113750	0.591664
	H71	H	0.410441	0.885717	0.410136
	H72	H	0.907396	0.616642	0.094616
	H73	H	0.100524	0.383869	0.085909
	H74	H	0.100095	0.620368	0.899351
	H75	H	0.910587	0.383138	0.905490
	H76	H	0.092983	0.915403	0.614890
	H77	H	0.093209	0.097232	0.381746
	H78	H	0.911339	0.095964	0.616643
	H79	H	0.909324	0.896345	0.380334
	H80	H	0.615798	0.085660	0.903103
	H81	H	0.383949	0.088977	0.094086
	H82	H	0.615887	0.907012	0.089749
	H83	H	0.383079	0.908389	0.906255
	H84	H	0.617224	0.909250	0.096168
	H85	H	0.380298	0.097308	0.098236
	H86	H	0.621051	0.099417	0.902169
	H87	H	0.382747	0.906037	0.906683
	H88	H	0.902537	0.095332	0.618979
	H89	H	0.096620	0.090925	0.382060
	H90	H	0.085945	0.899520	0.617664
	H91	H	0.896619	0.909611	0.380309
	H92	H	0.084212	0.614681	0.903556
	H93	H	0.096887	0.379595	0.102872
	H94	H	0.905882	0.616032	0.092205
	H95	H	0.906416	0.383713	0.910617
	H96	H	0.401151	0.116003	0.587145
	H97	H	0.602498	0.880941	0.590644
	H98	H	0.593546	0.118772	0.399600
	H99	H	0.399947	0.880924	0.407416
	H100	H	0.593585	0.414787	0.115601
	H101	H	0.594122	0.593533	0.881679
	H102	H	0.400667	0.604152	0.121444
	H103	H	0.411309	0.406698	0.883833
	H104	H	0.113243	0.591599	0.414562
	H105	H	0.877709	0.605803	0.598058
	H106	H	0.117398	0.404842	0.592793
	H107	H	0.883237	0.412434	0.401391
	H108	H	0.904780	0.617021	0.094746
	H109	H	0.084544	0.385941	0.092350
	H110	H	0.096914	0.614019	0.915627
	H111	H	0.904040	0.380658	0.904562
	H112	H	0.103067	0.902866	0.621826
	H113	H	0.089272	0.091762	0.383982
	H114	H	0.907058	0.088440	0.615502
	H115	H	0.914067	0.912911	0.387001
	H116	H	0.615057	0.094401	0.915041
	H117	H	0.383432	0.097601	0.088681
	H118	H	0.618325	0.902510	0.094583
	H119	H	0.383528	0.907066	0.908932
	C120	C	0.378580	0.007922	0.621668
	C121	C	0.621977	0.991279	0.621672
	C122	C	0.621245	0.008413	0.378237
	C123	C	0.378025	0.991223	0.377795
	C124	C	0.621484	0.378329	0.008895
	C125	C	0.621351	0.621348	0.990915
	C126	C	0.378716	0.621881	0.007929
	C127	C	0.379059	0.378530	0.991623
	C128	C	0.008143	0.622610	0.378276
	C129	C	0.991323	0.621963	0.621300
	C130	C	0.008290	0.378282	0.621255
	C131	C	0.991399	0.378548	0.378645
	C132	C	0.878087	0.508103	0.121916
	C133	C	0.121888	0.491809	0.121888
	C134	C	0.122033	0.507951	0.878125
	C135	C	0.878596	0.490865	0.878460
	C136	C	0.121693	0.878558	0.508686
	C137	C	0.121383	0.121482	0.491481
	C138	C	0.878379	0.121757	0.508490
	C139	C	0.878363	0.878684	0.491439
	C140	C	0.508658	0.121754	0.878409
	C141	C	0.491421	0.121787	0.121817
	C142	C	0.508638	0.878748	0.121274
	C143	C	0.491848	0.878745	0.878410
	C144	C	0.381492	0.884522	0.676247
	C145	C	0.618959	0.114714	0.676443
	C146	C	0.618376	0.884697	0.324055
	C147	C	0.381505	0.115170	0.324185
	C148	C	0.675940	0.380598	0.884952
	C149	C	0.675952	0.618366	0.114888
	C150	C	0.323960	0.618237	0.884380
	C151	C	0.325005	0.382312	0.115605
	C152	C	0.884192	0.676843	0.381667
	C153	C	0.115244	0.675848	0.618318
	C154	C	0.884799	0.323770	0.618824
	C155	C	0.114998	0.323454	0.381100
	C156	C	0.884368	0.382261	0.675319
	C157	C	0.115398	0.617917	0.675784
	C158	C	0.884327	0.618912	0.324520
	C159	C	0.115430	0.382126	0.324649
	C160	C	0.381499	0.676057	0.883961
	C161	C	0.618597	0.676040	0.114815
	C162	C	0.618612	0.323231	0.885272
	C163	C	0.381982	0.324575	0.115795
	C164	C	0.676394	0.885160	0.381005
	C165	C	0.676492	0.114744	0.619099
	C166	C	0.323925	0.884551	0.618490
	C167	C	0.323636	0.114879	0.381297
	C168	C	0.881901	0.384407	0.176218
	C169	C	0.118246	0.615250	0.175897
	C170	C	0.119077	0.384493	0.823595
	C171	C	0.881645	0.614514	0.824014
	C172	C	0.175684	0.882417	0.384560
	C173	C	0.175653	0.118227	0.615585
	C174	C	0.823011	0.119248	0.384807
	C175	C	0.823643	0.882206	0.615369
	C176	C	0.385225	0.176348	0.881741
	C177	C	0.615401	0.175887	0.119395
	C178	C	0.384592	0.824163	0.118325
	C179	C	0.615124	0.823645	0.880774
	C180	C	0.384257	0.882510	0.175189
	C181	C	0.615075	0.117940	0.176355
	C182	C	0.385115	0.118591	0.824072
	C183	C	0.615668	0.881688	0.824256
	C184	C	0.880591	0.176694	0.384702
	C185	C	0.118382	0.175918	0.615412
	C186	C	0.118380	0.824799	0.384525
	C187	C	0.880853	0.824187	0.615524
	C188	C	0.176591	0.384541	0.881341
	C189	C	0.176352	0.614824	0.118559
	C190	C	0.823870	0.384625	0.118841
	C191	C	0.823613	0.614324	0.881170
	C192	C	0.400341	0.094034	0.599873
	C193	C	0.600247	0.905296	0.599849
	C194	C	0.599111	0.094392	0.400074
	C195	C	0.399724	0.905125	0.399299
	C196	C	0.599803	0.400304	0.095559
	C197	C	0.599641	0.599647	0.904492
	C198	C	0.400400	0.600621	0.094545
	C199	C	0.400547	0.399554	0.904569
	C200	C	0.094476	0.601221	0.400025
	C201	C	0.904987	0.600476	0.599678
	C202	C	0.094701	0.399866	0.599417
	C203	C	0.904980	0.399885	0.400320
	C204	C	0.899696	0.594315	0.100457
	C205	C	0.100317	0.405456	0.100171
	C206	C	0.100152	0.594203	0.899783
	C207	C	0.900474	0.404777	0.900435
	C208	C	0.100372	0.899664	0.595472
	C209	C	0.099635	0.099762	0.404889
	C210	C	0.900462	0.099855	0.594755
	C211	C	0.900184	0.900026	0.404920
	C212	C	0.595129	0.099810	0.900441
	C213	C	0.405017	0.100833	0.099900
	C214	C	0.594746	0.899935	0.100002
	C215	C	0.405382	0.900703	0.900664
	Zn216	Zn	0.500323	-0.000807	0.750135
	Zn217	Zn	0.499743	0.000031	0.249895
	Zn218	Zn	0.749560	0.499724	-0.000329
	Zn219	Zn	0.250489	0.499522	-0.000037
	Zn220	Zn	-0.000196	0.750840	0.499909
	Zn221	Zn	-0.000111	0.249973	0.500040
	Zn222	Zn	-0.000182	0.499530	0.749672
	Zn223	Zn	-0.000106	0.500377	0.250569
	Zn224	Zn	0.500152	0.750343	-0.000568
	Zn225	Zn	0.500357	0.250205	0.000834
	Zn226	Zn	0.749827	0.000190	0.499841
	Zn227	Zn	0.249999	-0.000078	0.500087
	N228	N	0.414605	0.962195	0.678395
	N229	N	0.585614	0.037109	0.678289
	N230	N	0.584616	0.962270	0.322313
	N231	N	0.414481	0.037471	0.321972
	N232	N	0.677876	0.414187	0.962816
	N233	N	0.677735	0.585108	0.036857
	N234	N	0.322372	0.585199	0.962509
	N235	N	0.323248	0.415143	0.037414
	N236	N	0.962120	0.679010	0.414691
	N237	N	0.037407	0.678434	0.585255
	N238	N	0.962804	0.321359	0.585985
	N239	N	0.037025	0.321163	0.413936
	N240	N	0.962225	0.415053	0.677275
	N241	N	0.037303	0.585093	0.677781
	N242	N	0.962331	0.586095	0.322121
	N243	N	0.037616	0.415656	0.322971
	N244	N	0.414849	0.678378	0.961807
	N245	N	0.585284	0.677938	0.036909
	N246	N	0.585487	0.321889	0.963306
	N247	N	0.414927	0.322203	0.037660
	N248	N	0.678295	0.962913	0.414124
	N249	N	0.678211	0.037096	0.585653
	N250	N	0.322100	0.962358	0.585257
	N251	N	0.321336	0.036803	0.414031
	N252	N	0.914843	0.462173	0.178130
	N253	N	0.085017	0.537684	0.178001
	N254	N	0.085901	0.462351	0.821366
	N255	N	0.915262	0.536884	0.822391
	N256	N	0.177870	0.915082	0.462742
	N257	N	0.177769	0.085078	0.537593
	N258	N	0.821768	0.085673	0.462659
	N259	N	0.822057	0.915265	0.537330
	N260	N	0.463070	0.178321	0.914780
	N261	N	0.537551	0.178496	0.086322
	N262	N	0.462668	0.821338	0.085797
	N263	N	0.537088	0.821722	0.913777
	N264	N	0.462015	0.915798	0.177187
	N265	N	0.537113	0.085161	0.177936
	N266	N	0.462930	0.085231	0.822072
	N267	N	0.537905	0.915103	0.822708
	N268	N	0.914535	0.178232	0.462410
	N269	N	0.085212	0.177871	0.537327
	N270	N	0.085394	0.822618	0.462538
	N271	N	0.914375	0.822197	0.537604
	N272	N	0.178410	0.462236	0.914643
	N273	N	0.178778	0.536848	0.085827
	N274	N	0.821424	0.462331	0.085580
	N275	N	0.821701	0.536497	0.914397
