data_Molecule from HDF5

_cell_length_a		16.270480
_cell_length_b		16.046301
_cell_length_c		16.278644
_cell_angle_alpha	89.675576
_cell_angle_beta	89.529549
_cell_angle_gamma	89.665607
_symmetry_space_group_name_H-M	'P 1'
_symmetry_Int_Tables_number		1

loop_
	_symmetry_equiv_pos_as_xyz
	x,y,z

loop_
	_atom_site_label
	_atom_site_type_symbol
	_atom_site_fract_x
	_atom_site_fract_y
	_atom_site_fract_z
	H0	H	0.395522	0.838355	0.715705
	H1	H	0.592677	0.168311	0.706010
	H2	H	0.599368	0.837761	0.282021
	H3	H	0.396506	0.167395	0.282309
	H4	H	0.719808	0.400838	0.837075
	H5	H	0.709621	0.600298	0.162588
	H6	H	0.281342	0.607101	0.834908
	H7	H	0.282957	0.401265	0.161242
	H8	H	0.833164	0.715035	0.401231
	H9	H	0.162217	0.715582	0.593887
	H10	H	0.832103	0.288476	0.598954
	H11	H	0.161422	0.286199	0.401343
	H12	H	0.835273	0.400141	0.719222
	H13	H	0.162288	0.600814	0.712493
	H14	H	0.835309	0.603826	0.283537
	H15	H	0.160797	0.398147	0.281125
	H16	H	0.402162	0.718044	0.832755
	H17	H	0.592719	0.715029	0.162529
	H18	H	0.598737	0.292941	0.832059
	H19	H	0.401090	0.287923	0.160967
	H20	H	0.712380	0.837180	0.396306
	H21	H	0.708906	0.166374	0.595265
	H22	H	0.284125	0.835226	0.598219
	H23	H	0.281050	0.166830	0.397256
	H24	H	0.900389	0.337199	0.215042
	H25	H	0.094881	0.668423	0.211233
	H26	H	0.102086	0.337039	0.785415
	H27	H	0.897574	0.666470	0.784144
	H28	H	0.216643	0.897898	0.335424
	H29	H	0.210485	0.100673	0.660374
	H30	H	0.781756	0.102669	0.333733
	H31	H	0.777306	0.898817	0.659646
	H32	H	0.334548	0.219625	0.900235
	H33	H	0.664579	0.211785	0.089598
	H34	H	0.332768	0.790935	0.095136
	H35	H	0.662307	0.789919	0.898368
	H36	H	0.333807	0.903902	0.213635
	H37	H	0.660901	0.102743	0.212276
	H38	H	0.334351	0.106461	0.782498
	H39	H	0.660039	0.901895	0.778283
	H40	H	0.898943	0.218169	0.333709
	H41	H	0.090254	0.210520	0.662874
	H42	H	0.095627	0.789468	0.333111
	H43	H	0.897874	0.787450	0.661350
	H44	H	0.216157	0.338570	0.898634
	H45	H	0.209685	0.668498	0.097748
	H46	H	0.785062	0.336866	0.101445
	H47	H	0.785604	0.667748	0.901158
	H48	H	0.386236	0.125616	0.590791
	H49	H	0.582934	0.881307	0.596436
	H50	H	0.591737	0.122788	0.400355
	H51	H	0.408380	0.888204	0.417673
	H52	H	0.596119	0.416300	0.115183
	H53	H	0.591426	0.593777	0.881388
	H54	H	0.403318	0.602900	0.116618
	H55	H	0.403162	0.414938	0.880323
	H56	H	0.117358	0.599921	0.398577
	H57	H	0.880470	0.588810	0.602739
	H58	H	0.110194	0.414030	0.583916
	H59	H	0.876838	0.404042	0.400574
	H60	H	0.116579	0.409783	0.604396
	H61	H	0.879900	0.601979	0.592884
	H62	H	0.113622	0.595705	0.410526
	H63	H	0.882538	0.410229	0.415234
	H64	H	0.396634	0.591798	0.115033
	H65	H	0.594943	0.598818	0.880117
	H66	H	0.582671	0.405748	0.113149
	H67	H	0.410132	0.415947	0.882166
	H68	H	0.583814	0.121290	0.402077
	H69	H	0.582053	0.886560	0.582444
	H70	H	0.412782	0.121713	0.602086
	H71	H	0.393895	0.878186	0.402804
	H72	H	0.890420	0.625091	0.091619
	H73	H	0.087919	0.385002	0.089908
	H74	H	0.089007	0.619501	0.910137
	H75	H	0.903886	0.381200	0.908415
	H76	H	0.095817	0.904502	0.618204
	H77	H	0.094904	0.091393	0.380172
	H78	H	0.909529	0.091119	0.610506
	H79	H	0.903234	0.905992	0.379452
	H80	H	0.611172	0.088915	0.907850
	H81	H	0.381512	0.098479	0.087970
	H82	H	0.618149	0.897871	0.090250
	H83	H	0.378245	0.911977	0.898794
	H84	H	0.610316	0.914052	0.081244
	H85	H	0.383073	0.092304	0.089327
	H86	H	0.617766	0.091393	0.885013
	H87	H	0.380790	0.906003	0.910189
	H88	H	0.897522	0.102157	0.617820
	H89	H	0.086853	0.091586	0.382092
	H90	H	0.090140	0.917208	0.611770
	H91	H	0.900780	0.910876	0.379592
	H92	H	0.094500	0.624187	0.903860
	H93	H	0.095415	0.384054	0.088893
	H94	H	0.907941	0.623624	0.104147
	H95	H	0.912572	0.383109	0.906155
	H96	H	0.406588	0.114478	0.573479
	H97	H	0.594925	0.881021	0.587818
	H98	H	0.589174	0.120676	0.408053
	H99	H	0.415939	0.883454	0.396464
	H100	H	0.597355	0.398951	0.119841
	H101	H	0.597703	0.595061	0.879275
	H102	H	0.409506	0.592612	0.111367
	H103	H	0.407244	0.409712	0.880069
	H104	H	0.114563	0.587153	0.400485
	H105	H	0.885629	0.588127	0.586550
	H106	H	0.116984	0.394235	0.588844
	H107	H	0.882412	0.419587	0.401761
	H108	H	0.909085	0.617905	0.082606
	H109	H	0.091888	0.382092	0.095573
	H110	H	0.085610	0.621202	0.901546
	H111	H	0.909364	0.385552	0.914586
	H112	H	0.081633	0.905016	0.613351
	H113	H	0.089847	0.098548	0.378934
	H114	H	0.892975	0.085152	0.614589
	H115	H	0.906432	0.911103	0.381040
	H116	H	0.618915	0.109765	0.899371
	H117	H	0.380717	0.096520	0.094794
	H118	H	0.616143	0.915339	0.100259
	H119	H	0.384004	0.919392	0.908036
	C120	C	0.373432	0.011375	0.619392
	C121	C	0.615613	0.992468	0.616642
	C122	C	0.617860	0.011613	0.375239
	C123	C	0.375922	0.992749	0.376154
	C124	C	0.621983	0.379746	0.007285
	C125	C	0.620530	0.623851	0.989273
	C126	C	0.375336	0.626076	0.006146
	C127	C	0.377694	0.382461	0.988625
	C128	C	0.006961	0.623840	0.375834
	C129	C	0.990178	0.622775	0.621059
	C130	C	0.006257	0.378118	0.622088
	C131	C	0.988802	0.380655	0.376891
	C132	C	0.875431	0.511923	0.122224
	C133	C	0.119184	0.493647	0.119717
	C134	C	0.120051	0.511878	0.877261
	C135	C	0.878520	0.492738	0.879492
	C136	C	0.118762	0.879583	0.506297
	C137	C	0.117534	0.121610	0.488958
	C138	C	0.872865	0.123468	0.506118
	C139	C	0.873786	0.879556	0.488333
	C140	C	0.507078	0.126183	0.872209
	C141	C	0.489902	0.123966	0.118038
	C142	C	0.506440	0.880743	0.119678
	C143	C	0.489011	0.882742	0.875784
	C144	C	0.375854	0.887171	0.676865
	C145	C	0.613184	0.118162	0.669747
	C146	C	0.617870	0.886988	0.320085
	C147	C	0.376887	0.117680	0.320476
	C148	C	0.680089	0.381678	0.884890
	C149	C	0.672620	0.620599	0.113428
	C150	C	0.319998	0.625873	0.883483
	C151	C	0.321034	0.381970	0.111939
	C152	C	0.882945	0.678541	0.380283
	C153	C	0.113378	0.677748	0.615615
	C154	C	0.881831	0.325307	0.619415
	C155	C	0.112241	0.323832	0.379727
	C156	C	0.883622	0.380577	0.679594
	C157	C	0.113384	0.620920	0.674877
	C158	C	0.883988	0.623145	0.321504
	C159	C	0.111865	0.379548	0.320021
	C160	C	0.379998	0.681247	0.882191
	C161	C	0.614710	0.677899	0.113259
	C162	C	0.619764	0.327886	0.882465
	C163	C	0.380124	0.325403	0.111804
	C164	C	0.674329	0.886770	0.376670
	C165	C	0.671022	0.117182	0.614579
	C166	C	0.320222	0.885666	0.618429
	C167	C	0.319715	0.117508	0.377712
	C168	C	0.879367	0.386794	0.177424
	C169	C	0.115652	0.618655	0.174141
	C170	C	0.120824	0.386906	0.822563
	C171	C	0.879184	0.617246	0.823037
	C172	C	0.176867	0.879745	0.383724
	C173	C	0.172048	0.119500	0.611832
	C174	C	0.819401	0.122581	0.382565
	C175	C	0.816439	0.879930	0.610988
	C176	C	0.383503	0.181806	0.878321
	C177	C	0.614404	0.176465	0.112266
	C178	C	0.382346	0.827221	0.116515
	C179	C	0.613071	0.827225	0.877783
	C180	C	0.383051	0.883084	0.175862
	C181	C	0.612662	0.121924	0.173281
	C182	C	0.383181	0.125248	0.819971
	C183	C	0.611732	0.882605	0.818044
	C184	C	0.877519	0.179849	0.382685
	C185	C	0.112554	0.174817	0.613078
	C186	C	0.116824	0.825528	0.382793
	C187	C	0.876641	0.824655	0.612051
	C188	C	0.177336	0.387616	0.879202
	C189	C	0.172855	0.618712	0.117560
	C190	C	0.822167	0.386548	0.120846
	C191	C	0.823246	0.617875	0.881436
	C192	C	0.395277	0.098205	0.595692
	C193	C	0.593186	0.905457	0.595401
	C194	C	0.594962	0.098925	0.397029
	C195	C	0.399267	0.905668	0.399078
	C196	C	0.598991	0.400958	0.093589
	C197	C	0.600588	0.602437	0.902650
	C198	C	0.396786	0.602872	0.092148
	C199	C	0.400272	0.406574	0.902898
	C200	C	0.093075	0.600921	0.396959
	C201	C	0.904138	0.599813	0.600167
	C202	C	0.092403	0.399703	0.599259
	C203	C	0.903050	0.404360	0.399218
	C204	C	0.896257	0.599471	0.099552
	C205	C	0.097855	0.406350	0.098003
	C206	C	0.096578	0.598896	0.898689
	C207	C	0.901786	0.405657	0.902815
	C208	C	0.095844	0.902359	0.592322
	C209	C	0.096694	0.100240	0.402716
	C210	C	0.893727	0.099801	0.592054
	C211	C	0.896719	0.902477	0.402243
	C212	C	0.593532	0.103489	0.891745
	C213	C	0.403795	0.102237	0.096941
	C214	C	0.592652	0.902589	0.097289
	C215	C	0.403214	0.905623	0.898868
	Zn216	Zn	0.496366	0.003027	0.744877
	Zn217	Zn	0.497933	0.002525	0.248525
	Zn218	Zn	0.749423	0.502029	0.000115
	Zn219	Zn	0.247029	0.503641	-0.001896
	Zn220	Zn	-0.002687	0.751820	0.497255
	Zn221	Zn	-0.003995	0.251144	0.498549
	Zn222	Zn	-0.000751	0.500766	0.751019
	Zn223	Zn	-0.001856	0.502595	0.247694
	Zn224	Zn	0.498347	0.752961	-0.003059
	Zn225	Zn	0.499664	0.253343	-0.004068
	Zn226	Zn	0.743908	0.001655	0.496423
	Zn227	Zn	0.247478	0.000623	0.497267
	N228	N	0.408166	0.966315	0.677558
	N229	N	0.579379	0.039770	0.671198
	N230	N	0.583506	0.965705	0.319103
	N231	N	0.410991	0.038935	0.319280
	N232	N	0.681666	0.413173	0.963474
	N233	N	0.676303	0.587717	0.035374
	N234	N	0.316643	0.592622	0.961820
	N235	N	0.319195	0.416737	0.034430
	N236	N	0.960530	0.679014	0.413483
	N237	N	0.035671	0.679119	0.583076
	N238	N	0.959139	0.323554	0.584338
	N239	N	0.034757	0.324294	0.414282
	N240	N	0.961967	0.412807	0.681283
	N241	N	0.035653	0.587385	0.678324
	N242	N	0.961982	0.589887	0.318631
	N243	N	0.034389	0.414461	0.318265
	N244	N	0.413579	0.681494	0.959399
	N245	N	0.582889	0.679977	0.035105
	N246	N	0.584344	0.326318	0.959597
	N247	N	0.414594	0.325679	0.034127
	N248	N	0.674558	0.965241	0.410169
	N249	N	0.672642	0.038148	0.582120
	N250	N	0.318818	0.963753	0.583143
	N251	N	0.319030	0.038655	0.411585
	N252	N	0.911922	0.465729	0.178481
	N253	N	0.082926	0.539635	0.175699
	N254	N	0.085923	0.465272	0.821083
	N255	N	0.912951	0.538362	0.821848
	N256	N	0.178441	0.912500	0.461738
	N257	N	0.175501	0.087395	0.533637
	N258	N	0.816392	0.088099	0.460149
	N259	N	0.814566	0.913406	0.532911
	N260	N	0.461596	0.182687	0.909766
	N261	N	0.537078	0.177863	0.078609
	N262	N	0.460052	0.825353	0.082337
	N263	N	0.535742	0.826948	0.912909
	N264	N	0.461237	0.915604	0.177898
	N265	N	0.534389	0.089818	0.176777
	N266	N	0.461018	0.091333	0.815763
	N267	N	0.533835	0.916498	0.816705
	N268	N	0.909884	0.180725	0.460575
	N269	N	0.079293	0.176443	0.535676
	N270	N	0.081141	0.825343	0.459893
	N271	N	0.911740	0.824336	0.534933
	N272	N	0.177068	0.466237	0.912367
	N273	N	0.174984	0.540076	0.084451
	N274	N	0.819723	0.465418	0.087267
	N275	N	0.822812	0.539290	0.915983
	O276	O	-0.008893	-0.017998	0.047203
	H277	H	-0.006148	-0.026531	0.050463
	H278	H	-0.011623	-0.007071	0.055459
	O279	O	0.424825	0.595633	0.499363
	H280	H	0.430586	0.603510	0.496095
	H281	H	0.435733	0.597759	0.481726
	O282	O	0.491687	0.424775	0.469223
	H283	H	0.481410	0.414540	0.467666
	H284	H	0.494103	0.429561	0.460659
	O285	O	0.027765	0.921899	1.017642
	H286	H	0.022344	0.920594	1.006639
	H287	H	0.038805	0.909720	1.012675
	O288	O	0.405295	0.583722	0.436672
	H289	H	0.414118	0.595943	0.447048
	H290	H	0.400014	0.593475	0.436438
	O291	O	1.082690	0.905824	0.988624
	H292	H	1.083441	0.909628	0.983306
	H293	H	1.095718	0.896941	0.992258
	O294	O	0.981035	1.111320	0.908566
	H295	H	0.973469	1.108130	0.907990
	H296	H	0.973202	1.110944	0.901453
	O297	O	1.068157	-0.018284	1.052701
	H298	H	1.065938	-0.023625	1.047242
	H299	H	1.075808	-0.015398	1.060060
	O300	O	0.424870	0.393605	0.534678
	H301	H	0.413674	0.389116	0.536892
	H302	H	0.419054	0.388276	0.540118
	O303	O	0.900204	-0.078843	-0.010243
	H304	H	0.890175	-0.075145	-0.009196
	H305	H	0.896607	-0.088873	-0.006601
	O306	O	-0.074249	1.088259	0.937199
	H307	H	-0.070688	1.073774	0.942835
	H308	H	-0.073750	1.085894	0.941269
	O309	O	0.528011	0.584914	0.467379
	H310	H	0.540686	0.580748	0.465579
	H311	H	0.546264	0.574845	0.472858
	O312	O	1.035165	0.051026	0.972936
	H313	H	1.036932	0.051482	0.984131
	H314	H	1.035775	0.058143	0.969680
	O315	O	0.497281	0.639925	0.520300
	H316	H	0.507608	0.641841	0.523814
	H317	H	0.491705	0.639890	0.518414
	O318	O	0.360636	0.409850	0.590847
	H319	H	0.362174	0.403431	0.591880
	H320	H	0.345954	0.410565	0.597928
	O321	O	1.105392	0.986255	0.982573
	H322	H	1.112227	0.987908	0.971233
	H323	H	1.109498	1.002437	0.988475
	O324	O	0.576607	0.453225	0.505034
	H325	H	0.589135	0.462181	0.498581
	H326	H	0.565261	0.452315	0.510516
	O327	O	0.520255	0.476778	0.468125
	H328	H	0.526091	0.478499	0.464890
	H329	H	0.522356	0.468036	0.465620
	O330	O	0.963040	0.049750	0.877806
	H331	H	0.960479	0.047224	0.874479
	H332	H	0.966049	0.052536	0.867378
	O333	O	0.952644	1.053279	0.072470
	H334	H	0.951807	1.058545	0.074976
	H335	H	0.950089	1.047724	0.070792
	O336	O	0.519927	0.429136	0.442926
	H337	H	0.516053	0.437984	0.436934
	H338	H	0.504452	0.434141	0.450153
	O339	O	0.508826	0.454954	0.541860
	H340	H	0.509304	0.454583	0.539130
	H341	H	0.514067	0.443519	0.538088
	O342	O	-0.063789	0.958918	0.017413
	H343	H	-0.047619	0.956056	0.016750
	H344	H	-0.072166	0.966241	0.018024
	O345	O	-0.073132	0.008095	-0.045226
	H346	H	-0.070929	0.004081	-0.039148
	H347	H	-0.072778	0.006580	-0.048487
	O348	O	0.611287	0.437720	0.411155
	H349	H	0.616177	0.431103	0.402373
	H350	H	0.611556	0.437055	0.413787
	O351	O	0.536821	0.593507	0.588511
	H352	H	0.537597	0.584359	0.596153
	H353	H	0.545524	0.596162	0.591272
	O354	O	0.465571	0.544640	0.457614
	H355	H	0.459479	0.538895	0.464935
	H356	H	0.468904	0.543168	0.469350
	O357	O	0.500082	0.538566	0.516521
	H358	H	0.498798	0.548099	0.522474
	H359	H	0.502956	0.540005	0.516444
	O360	O	0.052572	0.064486	-0.012243
	H361	H	0.053108	0.057314	0.000635
	H362	H	0.048114	0.068984	-0.017389
	O363	O	0.473414	0.432507	0.588594
	H364	H	0.465395	0.421491	0.590950
	H365	H	0.463486	0.430615	0.583840
	O366	O	0.078051	-0.093076	0.939235
	H367	H	0.082658	-0.093505	0.939984
	H368	H	0.068885	-0.094079	0.935859
	O369	O	0.475695	0.519485	0.418999
	H370	H	0.469955	0.516902	0.405814
	H371	H	0.475671	0.519089	0.427011
