data_Molecule from HDF5

_cell_length_a		16.216158
_cell_length_b		16.311291
_cell_length_c		16.213980
_cell_angle_alpha	89.996925
_cell_angle_beta	90.045121
_cell_angle_gamma	90.043637
_symmetry_space_group_name_H-M	'P 1'
_symmetry_Int_Tables_number		1

loop_
	_symmetry_equiv_pos_as_xyz
	x,y,z

loop_
	_atom_site_label
	_atom_site_type_symbol
	_atom_site_fract_x
	_atom_site_fract_y
	_atom_site_fract_z
	H0	H	0.413927	0.834496	0.724606
	H1	H	0.611412	0.161550	0.725356
	H2	H	0.609921	0.834126	0.296445
	H3	H	0.413637	0.161685	0.295873
	H4	H	0.725695	0.398973	0.845005
	H5	H	0.724755	0.593544	0.174570
	H6	H	0.299931	0.594503	0.844632
	H7	H	0.299294	0.400375	0.174074
	H8	H	0.847460	0.711684	0.409524
	H9	H	0.175627	0.713177	0.609083
	H10	H	0.847855	0.284102	0.607659
	H11	H	0.175912	0.282308	0.408483
	H12	H	0.848641	0.399110	0.723638
	H13	H	0.176604	0.595554	0.722229
	H14	H	0.847244	0.595289	0.295062
	H15	H	0.176715	0.400731	0.296497
	H16	H	0.412300	0.713333	0.845993
	H17	H	0.612388	0.712430	0.174024
	H18	H	0.611599	0.282426	0.846050
	H19	H	0.412393	0.283066	0.173474
	H20	H	0.726558	0.834658	0.411315
	H21	H	0.727447	0.161908	0.608860
	H22	H	0.295709	0.835296	0.610019
	H23	H	0.296272	0.161191	0.411245
	H24	H	0.914752	0.333688	0.222955
	H25	H	0.111231	0.660820	0.224205
	H26	H	0.110279	0.333977	0.795270
	H27	H	0.913976	0.661037	0.794983
	H28	H	0.225281	0.899902	0.345373
	H29	H	0.224138	0.095294	0.674092
	H30	H	0.798777	0.094987	0.344716
	H31	H	0.798694	0.901202	0.674732
	H32	H	0.347726	0.211508	0.910253
	H33	H	0.675679	0.212632	0.109614
	H34	H	0.348535	0.781796	0.110074
	H35	H	0.676137	0.783502	0.910991
	H36	H	0.347246	0.899766	0.224160
	H37	H	0.676129	0.095179	0.222767
	H38	H	0.347798	0.094633	0.797100
	H39	H	0.676195	0.899138	0.796006
	H40	H	0.911904	0.212285	0.344955
	H41	H	0.111971	0.213350	0.672593
	H42	H	0.109946	0.783463	0.345179
	H43	H	0.909676	0.780882	0.673056
	H44	H	0.226011	0.333186	0.912135
	H45	H	0.226196	0.660780	0.107268
	H46	H	0.797044	0.333920	0.108425
	H47	H	0.796698	0.660560	0.910558
	H48	H	0.411027	0.115729	0.599466
	H49	H	0.610217	0.881692	0.601331
	H50	H	0.602262	0.112070	0.423141
	H51	H	0.412904	0.882323	0.426088
	H52	H	0.602823	0.396269	0.128430
	H53	H	0.613375	0.586678	0.891214
	H54	H	0.420247	0.587023	0.125408
	H55	H	0.416123	0.395645	0.888742
	H56	H	0.128312	0.586279	0.415579
	H57	H	0.889363	0.603626	0.603447
	H58	H	0.130575	0.404888	0.607699
	H59	H	0.898931	0.407932	0.425932
	H60	H	0.130735	0.399532	0.599563
	H61	H	0.900027	0.585650	0.587649
	H62	H	0.130591	0.595573	0.414842
	H63	H	0.893541	0.409686	0.407907
	H64	H	0.422749	0.593128	0.126651
	H65	H	0.596512	0.584123	0.897169
	H66	H	0.613008	0.405904	0.128943
	H67	H	0.414350	0.410865	0.892116
	H68	H	0.613227	0.116991	0.416408
	H69	H	0.602490	0.882059	0.607435
	H70	H	0.418282	0.117171	0.611270
	H71	H	0.415081	0.877714	0.408281
	H72	H	0.910732	0.615139	0.098586
	H73	H	0.101830	0.380066	0.106701
	H74	H	0.097834	0.610744	0.917537
	H75	H	0.921847	0.383960	0.924425
	H76	H	0.097045	0.912359	0.622279
	H77	H	0.107773	0.096139	0.389285
	H78	H	0.912312	0.085564	0.627315
	H79	H	0.917647	0.907831	0.392901
	H80	H	0.624425	0.083172	0.924348
	H81	H	0.397858	0.082800	0.099675
	H82	H	0.629349	0.908153	0.107659
	H83	H	0.394303	0.906306	0.914744
	H84	H	0.631155	0.898962	0.103270
	H85	H	0.391008	0.091926	0.112148
	H86	H	0.631476	0.088361	0.907866
	H87	H	0.393888	0.901353	0.917645
	H88	H	0.929274	0.088971	0.622864
	H89	H	0.106544	0.085275	0.392254
	H90	H	0.098800	0.895209	0.628117
	H91	H	0.922321	0.901624	0.393033
	H92	H	0.113135	0.613951	0.922825
	H93	H	0.104020	0.382489	0.097777
	H94	H	0.921258	0.615284	0.110805
	H95	H	0.910362	0.378262	0.915387
	H96	H	0.424638	0.111194	0.599378
	H97	H	0.601939	0.885138	0.597915
	H98	H	0.601185	0.115157	0.409695
	H99	H	0.428559	0.885291	0.417386
	H100	H	0.599728	0.408690	0.124205
	H101	H	0.601830	0.599867	0.890274
	H102	H	0.416532	0.592428	0.128519
	H103	H	0.428550	0.403798	0.895019
	H104	H	0.126850	0.591275	0.422582
	H105	H	0.895290	0.580311	0.612401
	H106	H	0.127670	0.408673	0.598115
	H107	H	0.892630	0.393562	0.416413
	H108	H	0.925743	0.610261	0.096203
	H109	H	0.110803	0.378836	0.104054
	H110	H	0.108994	0.617235	0.907305
	H111	H	0.924140	0.380603	0.909843
	H112	H	0.112745	0.906567	0.628335
	H113	H	0.098224	0.092161	0.392959
	H114	H	0.918892	0.101302	0.629442
	H115	H	0.915065	0.901297	0.390836
	H116	H	0.630794	0.100534	0.922600
	H117	H	0.393841	0.098992	0.097760
	H118	H	0.626909	0.906323	0.097980
	H119	H	0.397377	0.906273	0.920606
	C120	C	0.389751	0.006621	0.631956
	C121	C	0.634206	0.990520	0.631484
	C122	C	0.633980	0.006288	0.388083
	C123	C	0.390240	0.989451	0.388579
	C124	C	0.633546	0.375253	0.018570
	C125	C	0.633311	0.618936	1.001544
	C126	C	0.390979	0.619184	0.018225
	C127	C	0.390992	0.375527	1.000544
	C128	C	0.019962	0.619318	0.387984
	C129	C	1.003397	0.618693	0.630063
	C130	C	0.021067	0.375796	0.630470
	C131	C	1.003825	0.375794	0.387988
	C132	C	0.890659	0.505694	0.130716
	C133	C	0.134155	0.488480	0.131198
	C134	C	0.134735	0.505568	0.887601
	C135	C	0.890014	0.488967	0.887420
	C136	C	0.132159	0.876115	0.518109
	C137	C	0.132886	0.119219	0.500466
	C138	C	0.890939	0.119801	0.517820
	C139	C	0.889679	0.875586	0.501059
	C140	C	0.520441	0.119253	0.889080
	C141	C	0.503153	0.119294	0.131323
	C142	C	0.520468	0.875950	0.131736
	C143	C	0.503799	0.876217	0.888725
	C144	C	0.392778	0.883382	0.687146
	C145	C	0.631480	0.112983	0.687134
	C146	C	0.630649	0.883283	0.333854
	C147	C	0.392793	0.112765	0.333442
	C148	C	0.688151	0.378632	0.894370
	C149	C	0.688127	0.615347	0.125248
	C150	C	0.336513	0.615949	0.894170
	C151	C	0.336207	0.378929	0.124835
	C152	C	0.896578	0.674126	0.389231
	C153	C	0.126825	0.674729	0.628573
	C154	C	0.897303	0.321198	0.628328
	C155	C	0.127188	0.320982	0.389450
	C156	C	0.897543	0.378662	0.685559
	C157	C	0.127384	0.616175	0.684603
	C158	C	0.896525	0.616160	0.332342
	C159	C	0.127493	0.379428	0.333432
	C160	C	0.392771	0.674685	0.894732
	C161	C	0.632073	0.674334	0.124862
	C162	C	0.631425	0.320515	0.894842
	C163	C	0.392420	0.320658	0.124465
	C164	C	0.688558	0.883408	0.391214
	C165	C	0.689231	0.113289	0.629364
	C166	C	0.333924	0.883700	0.630208
	C167	C	0.334870	0.112751	0.390920
	C168	C	0.893482	0.382532	0.185763
	C169	C	0.131232	0.611798	0.186206
	C170	C	0.131343	0.382739	0.832794
	C171	C	0.893060	0.611988	0.832367
	C172	C	0.187711	0.878669	0.394461
	C173	C	0.187212	0.116172	0.624655
	C174	C	0.836464	0.115683	0.393712
	C175	C	0.835335	0.879471	0.625234
	C176	C	0.396999	0.173844	0.890672
	C177	C	0.626782	0.174211	0.128944
	C178	C	0.397031	0.820330	0.129843
	C179	C	0.627209	0.820986	0.890608
	C180	C	0.396324	0.879296	0.186124
	C181	C	0.627140	0.116063	0.185370
	C182	C	0.396903	0.115966	0.834157
	C183	C	0.627219	0.878695	0.833667
	C184	C	0.892415	0.174180	0.393964
	C185	C	0.131600	0.175094	0.623767
	C186	C	0.130536	0.820832	0.394356
	C187	C	0.890671	0.819966	0.624606
	C188	C	0.188964	0.382258	0.890797
	C189	C	0.188627	0.611798	0.128281
	C190	C	0.835388	0.382533	0.128392
	C191	C	0.834926	0.611947	0.889894
	C192	C	0.411585	0.092353	0.609942
	C193	C	0.611645	0.904849	0.608815
	C194	C	0.612071	0.092478	0.409986
	C195	C	0.412258	0.904052	0.410827
	C196	C	0.611659	0.397132	0.104898
	C197	C	0.610675	0.596718	0.915060
	C198	C	0.413157	0.597292	0.104514
	C199	C	0.413073	0.397140	0.914435
	C200	C	0.106353	0.597478	0.410845
	C201	C	0.917343	0.596485	0.607640
	C202	C	0.107313	0.397842	0.608357
	C203	C	0.917293	0.397357	0.410234
	C204	C	0.912664	0.591506	0.108350
	C205	C	0.112141	0.402700	0.109291
	C206	C	0.112964	0.591697	0.909384
	C207	C	0.912078	0.403183	0.910106
	C208	C	0.109487	0.898067	0.604030
	C209	C	0.110769	0.097482	0.413784
	C210	C	0.913405	0.098159	0.604171
	C211	C	0.911823	0.897132	0.414828
	C212	C	0.606747	0.097158	0.911615
	C213	C	0.416500	0.097669	0.109676
	C214	C	0.606814	0.897955	0.109631
	C215	C	0.417540	0.898055	0.911211
	Zn216	Zn	0.512141	-0.001924	0.760396
	Zn217	Zn	0.512054	-0.002055	0.259554
	Zn218	Zn	0.761473	0.497249	0.009503
	Zn219	Zn	0.263076	0.497029	0.009669
	Zn220	Zn	0.011098	0.747706	0.509704
	Zn221	Zn	0.012245	0.247710	0.508801
	Zn222	Zn	0.012544	0.497395	0.758843
	Zn223	Zn	0.012041	0.497221	0.259954
	Zn224	Zn	0.512127	0.747844	0.009855
	Zn225	Zn	0.511925	0.247490	0.010053
	Zn226	Zn	0.762697	-0.001502	0.509829
	Zn227	Zn	0.260573	-0.002237	0.509797
	N228	N	0.426594	0.960766	0.688423
	N229	N	0.598114	0.035439	0.688665
	N230	N	0.597554	0.960869	0.331862
	N231	N	0.426457	0.035380	0.331804
	N232	N	0.689556	0.412046	0.972301
	N233	N	0.688835	0.581537	0.047524
	N234	N	0.335292	0.582190	0.971829
	N235	N	0.335237	0.412522	0.046989
	N236	N	0.974309	0.676159	0.423105
	N237	N	0.048669	0.676495	0.595264
	N238	N	0.975242	0.319257	0.594727
	N239	N	0.049269	0.318923	0.422740
	N240	N	0.975467	0.411838	0.687127
	N241	N	0.049781	0.582082	0.685809
	N242	N	0.974416	0.582541	0.331622
	N243	N	0.049619	0.412776	0.332418
	N244	N	0.425741	0.676961	0.972928
	N245	N	0.598641	0.676436	0.046770
	N246	N	0.598146	0.318496	0.972819
	N247	N	0.425740	0.318465	0.046465
	N248	N	0.690777	0.961071	0.424180
	N249	N	0.691106	0.036070	0.595784
	N250	N	0.331851	0.961139	0.596546
	N251	N	0.332760	0.035186	0.424286
	N252	N	0.927214	0.459989	0.187218
	N253	N	0.097962	0.534047	0.188192
	N254	N	0.098578	0.460451	0.830649
	N255	N	0.926597	0.534464	0.830657
	N256	N	0.188912	0.912042	0.472189
	N257	N	0.187905	0.082084	0.546939
	N258	N	0.835346	0.082535	0.471675
	N259	N	0.834332	0.913082	0.547470
	N260	N	0.474983	0.175986	0.923963
	N261	N	0.548586	0.176232	0.095956
	N262	N	0.475145	0.818198	0.096815
	N263	N	0.549377	0.819465	0.924322
	N264	N	0.474196	0.912971	0.187475
	N265	N	0.549416	0.082424	0.186748
	N266	N	0.474819	0.082674	0.832960
	N267	N	0.549503	0.912210	0.832248
	N268	N	0.925824	0.176615	0.471915
	N269	N	0.098421	0.176911	0.545666
	N270	N	0.096545	0.819171	0.472280
	N271	N	0.923528	0.817332	0.546437
	N272	N	0.191071	0.459835	0.924054
	N273	N	0.190720	0.534415	0.094881
	N274	N	0.833498	0.460086	0.095010
	N275	N	0.832759	0.534386	0.923127
	O276	O	0.512490	0.564073	0.536246
	H277	H	0.518375	0.568610	0.531167
	H278	H	0.517314	0.563471	0.545640
	O279	O	-0.450191	0.567245	-0.497856
	H280	H	-0.445821	0.571961	-0.496270
	H281	H	-0.442039	0.570843	-0.494813
	O282	O	0.533677	0.547693	0.547940
	H283	H	0.528793	0.543154	0.547877
	H284	H	0.539021	0.543889	0.555151
	O285	O	0.484013	0.531315	0.529187
	H286	H	0.474348	0.534281	0.519162
	H287	H	0.477310	0.531424	0.523626
	O288	O	0.991748	-0.027272	-0.051293
	H289	H	0.987289	-0.030832	-0.048733
	H290	H	0.987733	-0.022704	-0.060859
	O291	O	-1.005298	0.969590	-1.063891
	H292	H	-1.007750	0.968797	-1.056370
	H293	H	-1.001128	0.972675	-1.066446
	O294	O	0.510205	0.575159	0.577807
	H295	H	0.509520	0.587761	0.582311
	H296	H	0.502618	0.567176	0.576051
	O297	O	-0.006558	0.973509	-0.025427
	H298	H	-0.002957	0.968324	-0.029077
	H299	H	-0.007418	0.972451	-0.022041
	O300	O	0.993293	-0.050522	0.951436
	H301	H	0.997863	-0.051937	0.950913
	H302	H	0.996934	-0.044780	0.946497
	O303	O	0.509984	0.555570	0.566899
	H304	H	0.508158	0.559928	0.559165
	H305	H	0.514478	0.557653	0.574876
	O306	O	-0.000523	0.977703	0.943151
	H307	H	-0.002982	0.967828	0.939357
	H308	H	0.000553	0.980343	0.942771
	O309	O	0.472048	0.552734	0.482642
	H310	H	0.476742	0.555282	0.481327
	H311	H	0.473068	0.557227	0.483916
