data_Molecule from HDF5

_cell_length_a		16.629492
_cell_length_b		16.506601
_cell_length_c		16.568904
_cell_angle_alpha	89.975421
_cell_angle_beta	90.041312
_cell_angle_gamma	90.030593
_symmetry_space_group_name_H-M	'P 1'
_symmetry_Int_Tables_number		1

loop_
	_symmetry_equiv_pos_as_xyz
	x,y,z

loop_
	_atom_site_label
	_atom_site_type_symbol
	_atom_site_fract_x
	_atom_site_fract_y
	_atom_site_fract_z
	H0	H	0.399519	0.851237	0.730939
	H1	H	0.604444	0.166279	0.729497
	H2	H	0.606782	0.851758	0.290091
	H3	H	0.395562	0.164219	0.288938
	H4	H	0.719386	0.407718	0.853659
	H5	H	0.725527	0.616230	0.167467
	H6	H	0.282674	0.610358	0.854195
	H7	H	0.279123	0.399606	0.166426
	H8	H	0.846093	0.727307	0.409742
	H9	H	0.160908	0.725121	0.613635
	H10	H	0.846136	0.288267	0.614433
	H11	H	0.157401	0.284665	0.406347
	H12	H	0.845803	0.405071	0.731323
	H13	H	0.160012	0.608760	0.731175
	H14	H	0.846051	0.612529	0.291486
	H15	H	0.155729	0.399081	0.287195
	H16	H	0.401250	0.724810	0.853506
	H17	H	0.607104	0.730070	0.167677
	H18	H	0.603542	0.290110	0.853626
	H19	H	0.397317	0.285418	0.166882
	H20	H	0.721542	0.850526	0.407766
	H21	H	0.721209	0.165839	0.613539
	H22	H	0.280733	0.852412	0.617962
	H23	H	0.278318	0.162967	0.403557
	H24	H	0.894166	0.351488	0.234872
	H25	H	0.106028	0.664695	0.232027
	H26	H	0.104558	0.349928	0.793245
	H27	H	0.899182	0.665063	0.792161
	H28	H	0.227619	0.899780	0.358001
	H29	H	0.228644	0.117645	0.665430
	H30	H	0.781134	0.113932	0.355912
	H31	H	0.784069	0.906442	0.668990
	H32	H	0.346054	0.228223	0.907486
	H33	H	0.657743	0.231590	0.118667
	H34	H	0.346034	0.786525	0.117617
	H35	H	0.658302	0.787713	0.909423
	H36	H	0.348264	0.900539	0.236613
	H37	H	0.657720	0.116219	0.235934
	H38	H	0.346724	0.113693	0.790188
	H39	H	0.658282	0.904142	0.792325
	H40	H	0.897333	0.230618	0.356200
	H41	H	0.108585	0.231022	0.667179
	H42	H	0.108851	0.786240	0.356539
	H43	H	0.903435	0.792403	0.671292
	H44	H	0.224268	0.351666	0.906035
	H45	H	0.224150	0.663570	0.118212
	H46	H	0.779646	0.351798	0.117566
	H47	H	0.782928	0.665944	0.908443
	H48	H	0.412141	0.122900	0.604225
	H49	H	0.589679	0.895126	0.604513
	H50	H	0.584050	0.117436	0.422886
	H51	H	0.410429	0.895690	0.425962
	H52	H	0.599104	0.413454	0.128301
	H53	H	0.590564	0.608573	0.896553
	H54	H	0.406471	0.596011	0.125690
	H55	H	0.414929	0.424585	0.902036
	H56	H	0.117890	0.604001	0.419705
	H57	H	0.890858	0.598395	0.604447
	H58	H	0.115805	0.420631	0.606729
	H59	H	0.894870	0.424647	0.429239
	H60	H	0.116203	0.414203	0.602489
	H61	H	0.889914	0.600522	0.604494
	H62	H	0.112008	0.596057	0.430727
	H63	H	0.889918	0.422682	0.419464
	H64	H	0.414761	0.591636	0.121841
	H65	H	0.602580	0.593879	0.897785
	H66	H	0.592871	0.431970	0.121190
	H67	H	0.415232	0.415074	0.898987
	H68	H	0.595989	0.119641	0.430312
	H69	H	0.596237	0.894593	0.599068
	H70	H	0.419711	0.119175	0.599885
	H71	H	0.419656	0.896791	0.419897
	H72	H	0.909905	0.620109	0.097892
	H73	H	0.085927	0.398257	0.095735
	H74	H	0.095505	0.621066	0.926085
	H75	H	0.910592	0.395646	0.924553
	H76	H	0.094787	0.923663	0.623954
	H77	H	0.087843	0.094246	0.401036
	H78	H	0.915878	0.099009	0.623673
	H79	H	0.920182	0.914833	0.400109
	H80	H	0.615432	0.099154	0.919558
	H81	H	0.393903	0.094763	0.094300
	H82	H	0.613047	0.921707	0.101572
	H83	H	0.388459	0.912271	0.921001
	H84	H	0.613000	0.917396	0.100006
	H85	H	0.392195	0.091190	0.103953
	H86	H	0.614248	0.099245	0.923015
	H87	H	0.391139	0.919953	0.923559
	H88	H	0.908593	0.100656	0.626715
	H89	H	0.090034	0.094139	0.401259
	H90	H	0.087990	0.919323	0.622962
	H91	H	0.906074	0.909861	0.394988
	H92	H	0.092041	0.622105	0.918782
	H93	H	0.094183	0.395091	0.097539
	H94	H	0.913356	0.621134	0.104389
	H95	H	0.906840	0.393150	0.921100
	H96	H	0.411763	0.120984	0.595071
	H97	H	0.597136	0.891582	0.606784
	H98	H	0.595387	0.124427	0.416955
	H99	H	0.419542	0.900470	0.430833
	H100	H	0.580127	0.415921	0.121581
	H101	H	0.584832	0.592306	0.903719
	H102	H	0.415129	0.601162	0.125352
	H103	H	0.406578	0.420597	0.897925
	H104	H	0.113556	0.589917	0.417160
	H105	H	0.890229	0.599664	0.602105
	H106	H	0.113021	0.420371	0.599232
	H107	H	0.890572	0.415168	0.427055
	H108	H	0.917079	0.618480	0.098892
	H109	H	0.087765	0.394171	0.103671
	H110	H	0.088310	0.617995	0.924204
	H111	H	0.912148	0.394131	0.919147
	H112	H	0.094594	0.915901	0.626158
	H113	H	0.088920	0.092595	0.403136
	H114	H	0.910042	0.093772	0.623535
	H115	H	0.907926	0.924722	0.400099
	H116	H	0.613791	0.096325	0.921173
	H117	H	0.389729	0.100681	0.101829
	H118	H	0.611868	0.921023	0.097251
	H119	H	0.388289	0.919062	0.915480
	C120	C	0.382002	0.017468	0.632334
	C121	C	0.624417	0.998849	0.633441
	C122	C	0.623580	0.016868	0.391038
	C123	C	0.382091	0.999953	0.391103
	C124	C	0.622065	0.388846	0.019786
	C125	C	0.624403	0.630469	1.002796
	C126	C	0.381134	0.627852	0.020011
	C127	C	0.379883	0.386328	1.002603
	C128	C	0.011216	0.629095	0.390699
	C129	C	0.994354	0.629558	0.634394
	C130	C	0.011212	0.386649	0.633888
	C131	C	0.993913	0.386892	0.391340
	C132	C	0.879871	0.516701	0.133493
	C133	C	0.122710	0.498795	0.132515
	C134	C	0.123326	0.516118	0.891464
	C135	C	0.880185	0.499098	0.890470
	C136	C	0.124750	0.886780	0.521175
	C137	C	0.122802	0.128208	0.503808
	C138	C	0.880530	0.129779	0.520722
	C139	C	0.881630	0.886701	0.503338
	C140	C	0.510936	0.129517	0.890033
	C141	C	0.494506	0.129358	0.133298
	C142	C	0.510439	0.886679	0.133223
	C143	C	0.492834	0.885938	0.889305
	C144	C	0.380327	0.898698	0.691738
	C145	C	0.624302	0.118539	0.690696
	C146	C	0.625456	0.898618	0.330558
	C147	C	0.377720	0.117036	0.329147
	C148	C	0.680660	0.388122	0.900954
	C149	C	0.684682	0.633574	0.120695
	C150	C	0.322630	0.628945	0.901359
	C151	C	0.319411	0.382210	0.119580
	C152	C	0.893128	0.688009	0.390413
	C153	C	0.113393	0.686476	0.633816
	C154	C	0.893099	0.327905	0.634148
	C155	C	0.110781	0.325431	0.388073
	C156	C	0.892988	0.385673	0.692187
	C157	C	0.112906	0.628454	0.691889
	C158	C	0.893206	0.630836	0.331757
	C159	C	0.109764	0.381948	0.328750
	C160	C	0.381528	0.685780	0.900908
	C161	C	0.625855	0.690258	0.120982
	C162	C	0.622872	0.330075	0.900836
	C163	C	0.378365	0.325502	0.119757
	C164	C	0.682641	0.898260	0.388777
	C165	C	0.682078	0.118364	0.632964
	C166	C	0.321425	0.899317	0.635597
	C167	C	0.319748	0.116596	0.386518
	C168	C	0.876862	0.398770	0.194281
	C169	C	0.124968	0.617097	0.192479
	C170	C	0.124029	0.397144	0.832571
	C171	C	0.879930	0.618093	0.831872
	C172	C	0.186480	0.882576	0.404342
	C173	C	0.186295	0.134122	0.619582
	C174	C	0.820845	0.132387	0.402889
	C175	C	0.823796	0.887045	0.622210
	C176	C	0.393189	0.189137	0.888382
	C177	C	0.610936	0.191293	0.136819
	C178	C	0.393361	0.826255	0.136118
	C179	C	0.611095	0.827162	0.889564
	C180	C	0.394360	0.882758	0.195319
	C181	C	0.610948	0.133674	0.195054
	C182	C	0.393519	0.131857	0.830119
	C183	C	0.611160	0.884896	0.831396
	C184	C	0.878624	0.190268	0.403179
	C185	C	0.126935	0.190482	0.620626
	C186	C	0.127514	0.826055	0.403591
	C187	C	0.882902	0.830395	0.623181
	C188	C	0.183420	0.398084	0.888357
	C189	C	0.183704	0.616555	0.135839
	C190	C	0.819468	0.398883	0.136124
	C191	C	0.822149	0.618194	0.889484
	C192	C	0.407158	0.099563	0.606976
	C193	C	0.601066	0.915540	0.610184
	C194	C	0.598893	0.099179	0.416150
	C195	C	0.409060	0.918688	0.417831
	C196	C	0.597707	0.413207	0.102134
	C197	C	0.599860	0.605363	0.920785
	C198	C	0.405377	0.603368	0.102649
	C199	C	0.405023	0.412550	0.920797
	C200	C	0.093222	0.603822	0.415301
	C201	C	0.911871	0.606368	0.610507
	C202	C	0.093703	0.411209	0.609671
	C203	C	0.912883	0.413356	0.417722
	C204	C	0.905905	0.598504	0.107928
	C205	C	0.096733	0.417091	0.106615
	C206	C	0.098979	0.598756	0.915975
	C207	C	0.903323	0.415910	0.914504
	C208	C	0.099534	0.912441	0.602995
	C209	C	0.096159	0.101263	0.422915
	C210	C	0.904689	0.104826	0.603246
	C211	C	0.904784	0.909793	0.420250
	C212	C	0.593094	0.105149	0.914476
	C213	C	0.413177	0.102917	0.107322
	C214	C	0.591632	0.912628	0.107252
	C215	C	0.410686	0.910228	0.913039
	Zn216	Zn	0.502314	0.008546	0.760925
	Zn217	Zn	0.502523	0.008185	0.262184
	Zn218	Zn	0.751851	0.508703	0.011678
	Zn219	Zn	0.251369	0.507513	0.011644
	Zn220	Zn	0.003437	0.758458	0.512427
	Zn221	Zn	0.002615	0.257785	0.512059
	Zn222	Zn	0.002444	0.507499	0.763167
	Zn223	Zn	0.001605	0.507704	0.261541
	Zn224	Zn	0.501705	0.757654	0.012157
	Zn225	Zn	0.502362	0.258477	0.011337
	Zn226	Zn	0.752368	0.007523	0.511294
	Zn227	Zn	0.253117	0.008170	0.511946
	N228	N	0.417262	0.973196	0.689997
	N229	N	0.589310	0.043282	0.691212
	N230	N	0.589594	0.973579	0.331496
	N231	N	0.415952	0.043434	0.331977
	N232	N	0.680538	0.423512	0.975957
	N233	N	0.684133	0.597363	0.046161
	N234	N	0.322027	0.594038	0.976593
	N235	N	0.320302	0.419384	0.045484
	N236	N	0.967723	0.687461	0.426209
	N237	N	0.038466	0.687739	0.599120
	N238	N	0.967713	0.328326	0.598746
	N239	N	0.037527	0.328468	0.426199
	N240	N	0.967714	0.421108	0.692311
	N241	N	0.037773	0.594171	0.692789
	N242	N	0.967723	0.595083	0.331778
	N243	N	0.036214	0.419597	0.330736
	N244	N	0.417093	0.685449	0.975786
	N245	N	0.589023	0.688477	0.046771
	N246	N	0.587379	0.330110	0.975740
	N247	N	0.415245	0.327997	0.045924
	N248	N	0.681537	0.972708	0.425539
	N249	N	0.682471	0.042795	0.598192
	N250	N	0.322261	0.974076	0.599282
	N251	N	0.322137	0.042480	0.424121
	N252	N	0.913783	0.473107	0.192804
	N253	N	0.087738	0.542778	0.190742
	N254	N	0.087354	0.471527	0.834295
	N255	N	0.915292	0.542862	0.832267
	N256	N	0.184948	0.919599	0.478512
	N257	N	0.183772	0.096028	0.546116
	N258	N	0.821800	0.095393	0.477201
	N259	N	0.822404	0.920911	0.546455
	N260	N	0.467324	0.188137	0.924797
	N261	N	0.537388	0.188789	0.099106
	N262	N	0.466753	0.828444	0.098316
	N263	N	0.536361	0.827299	0.924602
	N264	N	0.468310	0.919669	0.193696
	N265	N	0.537353	0.095954	0.193008
	N266	N	0.467862	0.095732	0.830859
	N267	N	0.536549	0.920554	0.830872
	N268	N	0.915080	0.188600	0.477494
	N269	N	0.087927	0.186834	0.547610
	N270	N	0.089836	0.828481	0.477310
	N271	N	0.917775	0.829658	0.548105
	N272	N	0.183069	0.473108	0.924134
	N273	N	0.182810	0.541733	0.099676
	N274	N	0.821056	0.473310	0.099125
	N275	N	0.822200	0.543326	0.925342
	O276	O	-0.535039	0.702884	-0.694988
	H277	H	-0.550555	0.715775	-0.699339
	H278	H	-0.542723	0.710843	-0.694252
	O279	O	0.349828	0.300225	0.658811
	H280	H	0.348928	0.291760	0.636596
	H281	H	0.325410	0.284560	0.669550
	O282	O	1.006441	0.074690	0.934739
	H283	H	1.015224	0.066103	0.934171
	H284	H	1.017428	0.068519	0.938680
	O285	O	-0.076403	0.223898	0.066591
	H286	H	-0.066722	0.232014	0.043385
	H287	H	-0.070858	0.231380	0.060506
	O288	O	0.299829	0.476183	0.712011
	H289	H	0.308296	0.492725	0.722983
	H290	H	0.300795	0.471278	0.713733
	O291	O	0.717667	0.475383	0.293595
	H292	H	0.710408	0.477130	0.295958
	H293	H	0.743421	0.469954	0.272428
	O294	O	0.774083	-0.052974	0.954132
	H295	H	0.783071	-0.036214	0.966697
	H296	H	0.772756	-0.062691	0.952390
	O297	O	0.472883	0.380360	0.290574
	H298	H	0.491538	0.356809	0.281033
	H299	H	0.489941	0.395622	0.296900
	O300	O	-0.004345	-0.127650	0.814698
	H301	H	0.007906	-0.148751	0.806146
	H302	H	0.003267	-0.110794	0.814358
	O303	O	0.684412	0.323251	0.691488
	H304	H	0.665446	0.320108	0.682609
	H305	H	0.679566	0.336689	0.673206
	O306	O	1.058850	-0.061169	0.238714
	H307	H	1.056402	-0.062126	0.241079
	H308	H	1.052746	-0.057959	0.239913
	O309	O	0.707650	0.715225	0.719833
	H310	H	0.741416	0.745948	0.752703
	H311	H	0.715676	0.687840	0.701799
	O312	O	0.588339	0.566400	0.484032
	H313	H	0.593453	0.560685	0.467669
	H314	H	0.595143	0.575184	0.492649
	O315	O	1.157931	1.056252	1.002269
	H316	H	1.164117	1.047279	0.992895
	H317	H	1.150199	1.048865	1.002629
	O318	O	0.286827	0.411437	0.473608
	H319	H	0.298667	0.411966	0.480639
	H320	H	0.281565	0.414804	0.472897
	O321	O	0.221488	0.972761	0.121374
	H322	H	0.223209	0.984858	0.109808
	H323	H	0.225848	0.954630	0.124544
	O324	O	1.176628	0.971599	-0.022185
	H325	H	1.175088	0.966255	-0.022658
	H326	H	1.182521	0.961959	-0.022346
	O327	O	0.060899	0.193014	0.976104
	H328	H	0.064689	0.180521	0.969066
	H329	H	0.086234	0.187681	0.977118
	O330	O	0.488275	0.332667	0.630457
	H331	H	0.487207	0.336787	0.641293
	H332	H	0.475895	0.323692	0.636308
	O333	O	0.610932	0.295878	0.379002
	H334	H	0.621419	0.292868	0.363374
	H335	H	0.626656	0.276029	0.367212
	O336	O	0.718092	0.725451	0.260555
	H337	H	0.741625	0.725474	0.243905
	H338	H	0.708252	0.752064	0.266693
	O339	O	1.281782	-0.464754	0.295413
	H340	H	1.290542	-0.471607	0.280605
	H341	H	1.279389	-0.471006	0.277912
	O342	O	0.016523	0.032796	-0.081687
	H343	H	0.007502	0.031869	-0.074826
	H344	H	0.013912	0.025971	-0.076595
	O345	O	-0.057020	1.041578	1.218779
	H346	H	-0.056262	1.035793	1.222249
	H347	H	-0.053652	1.055136	1.214831
	O348	O	0.358744	-0.695459	0.716777
	H349	H	0.328148	-0.708458	0.713582
	H350	H	0.352654	-0.671139	0.733638
	O351	O	0.693229	0.647721	0.365099
	H352	H	0.687413	0.640189	0.345477
	H353	H	0.696929	0.648452	0.363649
	O354	O	0.218905	0.051655	1.158219
	H355	H	0.222962	0.055056	1.153724
	H356	H	0.228171	0.059522	1.172921
	O357	O	0.516384	0.559211	0.555347
	H358	H	0.531192	0.553751	0.560794
	H359	H	0.513373	0.580056	0.555753
	O360	O	0.210195	0.218227	0.220274
	H361	H	0.238158	0.237317	0.250612
	H362	H	0.193492	0.201582	0.211732
	O363	O	0.216108	-0.025685	-0.201165
	H364	H	0.226729	-0.029363	-0.206031
	H365	H	0.209943	-0.030799	-0.211155
	O366	O	0.519655	0.660380	0.385302
	H367	H	0.510654	0.668155	0.387785
	H368	H	0.519450	0.650292	0.382545
	O369	O	0.442427	0.729696	0.575388
	H370	H	0.456871	0.735036	0.581830
	H371	H	0.458608	0.728760	0.586968
	O372	O	0.797538	1.124804	0.141385
	H373	H	0.809258	1.126075	0.122455
	H374	H	0.808022	1.117175	0.134996
	O375	O	0.808792	-0.182750	-0.177875
	H376	H	0.828629	-0.164718	-0.156462
	H377	H	0.825589	-0.162978	-0.160868
	O378	O	0.456327	0.424395	0.448725
	H379	H	0.466889	0.424815	0.454108
	H380	H	0.454874	0.433052	0.450118
	O381	O	-0.207259	1.213434	0.804320
	H382	H	-0.221044	1.229236	0.787142
	H383	H	-0.179403	1.203030	0.805214
	O384	O	0.991795	0.072333	0.895372
	H385	H	0.994622	0.065501	0.891663
	H386	H	0.995009	0.067402	0.905615
	O387	O	1.190464	1.194587	-0.173034
	H388	H	1.177973	1.180334	-0.164748
	H389	H	1.175259	1.177083	-0.159627
	O390	O	0.658260	0.417833	0.403730
	H391	H	0.645717	0.422109	0.421770
	H392	H	0.676740	0.408222	0.380566
	O393	O	0.211452	-0.200134	-0.197560
	H394	H	0.210733	-0.215522	-0.201485
	H395	H	0.232027	-0.195493	-0.218202
	O396	O	-0.217326	1.039058	0.792550
	H397	H	-0.228750	1.061644	0.783469
	H398	H	-0.224889	1.032509	0.788445
	O399	O	0.277370	0.561684	0.569301
	H400	H	0.280828	0.556145	0.569155
	H401	H	0.274613	0.554407	0.556569
	O402	O	0.411414	0.503710	0.608763
	H403	H	0.429978	0.492157	0.617649
	H404	H	0.417761	0.508365	0.606095
	O405	O	1.027089	0.221219	1.227731
	H406	H	1.039387	0.227700	1.212207
	H407	H	1.032929	0.240088	1.241037
	O408	O	0.216536	0.225013	0.042072
	H409	H	0.236655	0.241182	0.055816
	H410	H	0.217126	0.223844	0.055554
	O411	O	-0.051146	0.783678	0.948831
	H412	H	-0.025835	0.774784	0.958641
	H413	H	-0.042749	0.789563	0.933614
	O414	O	0.551844	0.493512	0.710075
	H415	H	0.559189	0.488390	0.715441
	H416	H	0.562847	0.494738	0.714028
	O417	O	0.298465	0.718879	0.477725
	H418	H	0.297121	0.725563	0.491599
	H419	H	0.303356	0.728280	0.490271
	O420	O	0.330665	0.336616	0.323943
	H421	H	0.352177	0.362094	0.330645
	H422	H	0.339838	0.348964	0.348325
	O423	O	0.545317	-0.485434	0.368537
	H424	H	0.540187	-0.478903	0.371238
	H425	H	0.554702	-0.489728	0.375419
	O426	O	-0.222043	0.228073	-0.024516
	H427	H	-0.226813	0.245578	-0.035850
	H428	H	-0.228486	0.239927	-0.044037
	O429	O	1.226898	0.787138	0.973011
	H430	H	1.232298	0.783406	0.958235
	H431	H	1.244121	0.770531	0.963608
	O432	O	0.783240	0.973818	0.230583
	H433	H	0.772162	0.978799	0.238033
	H434	H	0.769553	0.989674	0.223992
	O435	O	-0.016068	0.868615	-0.204389
	H436	H	-0.005743	0.861092	-0.218277
	H437	H	-0.006448	0.879373	-0.196462
	O438	O	-0.078615	-0.070392	0.078545
	H439	H	-0.094181	-0.091875	0.077585
	H440	H	-0.048207	-0.076929	0.070941
	O441	O	-0.028151	0.220577	-0.181612
	H442	H	-0.026588	0.208164	-0.176015
	H443	H	-0.028808	0.237106	-0.195646
	O444	O	0.535928	0.726767	0.729409
	H445	H	0.548861	0.747121	0.752163
	H446	H	0.574976	0.728285	0.733421
	O447	O	-0.196240	0.808505	1.119580
	H448	H	-0.199472	0.822177	1.121653
	H449	H	-0.206543	0.813030	1.100294
	O450	O	-0.277378	0.730671	1.552393
	H451	H	-0.267479	0.740370	1.565753
	H452	H	-0.264508	0.737620	1.550489
	O453	O	0.705527	0.546513	0.719425
	H454	H	0.704143	0.549879	0.705017
	H455	H	0.722656	0.541600	0.729643
	O456	O	-0.126052	0.039685	1.071979
	H457	H	-0.121325	0.060251	1.076544
	H458	H	-0.119774	0.029671	1.071991
	O459	O	1.189542	0.819130	0.201748
	H460	H	1.200155	0.835570	0.203097
	H461	H	1.184538	0.816442	0.227065
	O462	O	0.673330	0.370088	0.540587
	H463	H	0.663788	0.366849	0.541388
	H464	H	0.674605	0.370986	0.532949
	O465	O	0.965191	-0.021535	-0.069111
	H466	H	0.947457	-0.013611	-0.071126
	H467	H	0.957647	-0.019135	-0.065261
	O468	O	0.570185	0.450530	0.518213
	H469	H	0.575519	0.461011	0.533267
	H470	H	0.560169	0.453191	0.525508
	O471	O	0.292040	0.716666	0.306795
	H472	H	0.295874	0.709060	0.342224
	H473	H	0.287408	0.697631	0.306606
	O474	O	0.314213	0.695137	0.697852
	H475	H	0.320028	0.664220	0.680549
	H476	H	0.344102	0.684500	0.681873
	O477	O	0.658807	0.521228	1.500483
	H478	H	0.658643	0.520921	1.481981
	H479	H	0.678378	0.533517	1.496967
	O480	O	0.438946	0.309529	0.535323
	H481	H	0.450458	0.316630	0.533250
	H482	H	0.439750	0.304317	0.524605
	O483	O	1.069284	0.786105	1.068160
	H484	H	1.077838	0.786586	1.091286
	H485	H	1.089503	0.780406	1.080918
	O486	O	0.754891	0.250561	1.259379
	H487	H	0.761608	0.231272	1.244790
	H488	H	0.770385	0.264157	1.244887
	O489	O	0.968525	0.790527	0.228202
	H490	H	0.939473	0.805934	0.211788
	H491	H	0.971811	0.770131	0.261217
