data_Molecule from HDF5

_cell_length_a		16.691246
_cell_length_b		16.686374
_cell_length_c		16.525897
_cell_angle_alpha	90.025613
_cell_angle_beta	89.781592
_cell_angle_gamma	90.095134
_symmetry_space_group_name_H-M	'P 1'
_symmetry_Int_Tables_number		1

loop_
	_symmetry_equiv_pos_as_xyz
	x,y,z

loop_
	_atom_site_label
	_atom_site_type_symbol
	_atom_site_fract_x
	_atom_site_fract_y
	_atom_site_fract_z
	H0	H	0.391921	0.852151	0.718109
	H1	H	0.599827	0.162688	0.720355
	H2	H	0.607124	0.857690	0.269693
	H3	H	0.387100	0.160909	0.273996
	H4	H	0.715212	0.402964	0.843305
	H5	H	0.718305	0.618447	0.152964
	H6	H	0.272072	0.614353	0.843824
	H7	H	0.268988	0.399105	0.152565
	H8	H	0.841828	0.731483	0.392631
	H9	H	0.149189	0.729672	0.604621
	H10	H	0.842930	0.281814	0.608911
	H11	H	0.146830	0.283751	0.389052
	H12	H	0.840535	0.401153	0.723595
	H13	H	0.149369	0.612164	0.719704
	H14	H	0.839279	0.611962	0.279260
	H15	H	0.147821	0.401506	0.274607
	H16	H	0.388245	0.730516	0.844612
	H17	H	0.603761	0.734407	0.152081
	H18	H	0.600198	0.287101	0.843239
	H19	H	0.383705	0.282666	0.152405
	H20	H	0.723622	0.858476	0.385119
	H21	H	0.721442	0.159549	0.610031
	H22	H	0.274250	0.853037	0.602545
	H23	H	0.268438	0.159157	0.388060
	H24	H	0.887018	0.352931	0.221611
	H25	H	0.098953	0.662163	0.220094
	H26	H	0.100398	0.354164	0.775035
	H27	H	0.890995	0.663899	0.778679
	H28	H	0.216035	0.903413	0.343570
	H29	H	0.216455	0.114694	0.655939
	H30	H	0.766899	0.121601	0.348654
	H31	H	0.772517	0.902081	0.655235
	H32	H	0.339943	0.230699	0.891283
	H33	H	0.647774	0.231826	0.105084
	H34	H	0.342504	0.782842	0.109086
	H35	H	0.648003	0.784529	0.890027
	H36	H	0.341932	0.900374	0.224156
	H37	H	0.648531	0.114971	0.220155
	H38	H	0.337413	0.109984	0.780249
	H39	H	0.648863	0.901787	0.774762
	H40	H	0.883279	0.236556	0.348145
	H41	H	0.103059	0.232350	0.654743
	H42	H	0.099186	0.788539	0.342559
	H43	H	0.889440	0.788581	0.656261
	H44	H	0.221642	0.356664	0.884570
	H45	H	0.217694	0.660317	0.105614
	H46	H	0.769686	0.354015	0.106460
	H47	H	0.771948	0.662711	0.892907
	H48	H	0.402263	0.120686	0.588071
	H49	H	0.587560	0.896754	0.582286
	H50	H	0.581437	0.116780	0.416868
	H51	H	0.406896	0.900030	0.417104
	H52	H	0.581105	0.418101	0.112219
	H53	H	0.582445	0.599136	0.886836
	H54	H	0.404892	0.599790	0.112584
	H55	H	0.409022	0.422429	0.888468
	H56	H	0.103247	0.593966	0.413082
	H57	H	0.885488	0.593514	0.585480
	H58	H	0.106876	0.420206	0.590652
	H59	H	0.884795	0.425713	0.409749
	H60	H	0.103870	0.417897	0.582614
	H61	H	0.880498	0.598946	0.595836
	H62	H	0.107648	0.595816	0.404287
	H63	H	0.883417	0.415584	0.414513
	H64	H	0.403438	0.588333	0.109323
	H65	H	0.585758	0.593333	0.887431
	H66	H	0.582428	0.420210	0.111765
	H67	H	0.408867	0.417760	0.887354
	H68	H	0.582334	0.117747	0.412734
	H69	H	0.582475	0.894710	0.591597
	H70	H	0.403260	0.121685	0.591757
	H71	H	0.403533	0.896242	0.410986
	H72	H	0.907127	0.617598	0.086305
	H73	H	0.077741	0.398449	0.083574
	H74	H	0.086806	0.621478	0.906548
	H75	H	0.905025	0.398536	0.912686
	H76	H	0.089030	0.913680	0.615923
	H77	H	0.082417	0.099121	0.387208
	H78	H	0.905089	0.094261	0.611048
	H79	H	0.906949	0.917221	0.385789
	H80	H	0.604447	0.100284	0.913172
	H81	H	0.385627	0.094519	0.083076
	H82	H	0.603986	0.924626	0.086362
	H83	H	0.382030	0.913840	0.909597
	H84	H	0.605795	0.917990	0.083500
	H85	H	0.384498	0.092656	0.087231
	H86	H	0.604383	0.093860	0.907282
	H87	H	0.385508	0.919396	0.913863
	H88	H	0.910973	0.087696	0.607402
	H89	H	0.085533	0.093408	0.388553
	H90	H	0.087096	0.923700	0.611681
	H91	H	0.905889	0.924346	0.388792
	H92	H	0.076406	0.617005	0.910503
	H93	H	0.084353	0.396739	0.082698
	H94	H	0.902428	0.618626	0.086629
	H95	H	0.902837	0.397107	0.912109
	H96	H	0.405802	0.119485	0.589016
	H97	H	0.578122	0.899601	0.583904
	H98	H	0.578457	0.116682	0.413985
	H99	H	0.411035	0.899155	0.410713
	H100	H	0.579959	0.420374	0.110950
	H101	H	0.579062	0.593672	0.889497
	H102	H	0.414009	0.594043	0.107535
	H103	H	0.405107	0.420497	0.886237
	H104	H	0.107093	0.602618	0.411024
	H105	H	0.881858	0.605514	0.585266
	H106	H	0.102464	0.426162	0.585363
	H107	H	0.888119	0.424139	0.420502
	H108	H	0.905441	0.619878	0.090071
	H109	H	0.081333	0.395863	0.089123
	H110	H	0.086015	0.616953	0.917622
	H111	H	0.905185	0.397228	0.910041
	H112	H	0.079136	0.915585	0.612020
	H113	H	0.079207	0.094544	0.391032
	H114	H	0.914727	0.096406	0.609483
	H115	H	0.912540	0.920820	0.389097
	H116	H	0.608080	0.101782	0.905145
	H117	H	0.383313	0.096778	0.086178
	H118	H	0.602716	0.923127	0.078941
	H119	H	0.383399	0.920933	0.906612
	C120	C	0.372365	0.017343	0.621093
	C121	C	0.615893	0.999059	0.620258
	C122	C	0.616428	0.017061	0.377878
	C123	C	0.373745	0.999478	0.378244
	C124	C	0.614050	0.387843	0.007976
	C125	C	0.615736	0.629392	0.990051
	C126	C	0.373812	0.628098	0.007491
	C127	C	0.372833	0.386130	0.989473
	C128	C	0.003383	0.629542	0.377589
	C129	C	0.985573	0.630412	0.620856
	C130	C	0.002724	0.387320	0.620515
	C131	C	0.985957	0.387478	0.379180
	C132	C	0.871525	0.516374	0.121035
	C133	C	0.114177	0.498828	0.118750
	C134	C	0.116081	0.516675	0.877092
	C135	C	0.872607	0.499857	0.878662
	C136	C	0.116264	0.886350	0.508900
	C137	C	0.116048	0.129167	0.491395
	C138	C	0.874478	0.128987	0.508497
	C139	C	0.874412	0.887647	0.490708
	C140	C	0.502760	0.129718	0.876955
	C141	C	0.485934	0.128742	0.119039
	C142	C	0.503566	0.886979	0.119543
	C143	C	0.485929	0.885712	0.876813
	C144	C	0.372329	0.899196	0.678911
	C145	C	0.618605	0.115571	0.681212
	C146	C	0.623366	0.903276	0.312201
	C147	C	0.369507	0.114674	0.315268
	C148	C	0.674936	0.385235	0.890448
	C149	C	0.677559	0.635111	0.106420
	C150	C	0.312687	0.632090	0.890695
	C151	C	0.309683	0.381268	0.105773
	C152	C	0.887461	0.690176	0.375145
	C153	C	0.102604	0.689636	0.622969
	C154	C	0.887958	0.324091	0.625857
	C155	C	0.101084	0.325103	0.372867
	C156	C	0.887009	0.383131	0.682707
	C157	C	0.102728	0.631151	0.679987
	C158	C	0.886425	0.631184	0.318477
	C159	C	0.101325	0.383449	0.315644
	C160	C	0.370247	0.689868	0.890935
	C161	C	0.620522	0.692752	0.105909
	C162	C	0.617750	0.327432	0.890200
	C163	C	0.366979	0.323666	0.105980
	C164	C	0.681214	0.903465	0.369672
	C165	C	0.678700	0.114298	0.625753
	C166	C	0.313981	0.899539	0.621703
	C167	C	0.310356	0.113843	0.371892
	C168	C	0.868661	0.399777	0.181658
	C169	C	0.117160	0.615381	0.179732
	C170	C	0.119066	0.400825	0.814929
	C171	C	0.871421	0.617014	0.818314
	C172	C	0.175647	0.884870	0.390432
	C173	C	0.176631	0.132696	0.608659
	C174	C	0.809458	0.136985	0.394121
	C175	C	0.813079	0.884578	0.608188
	C176	C	0.386077	0.189731	0.874136
	C177	C	0.601480	0.190992	0.122739
	C178	C	0.388475	0.823950	0.125891
	C179	C	0.601895	0.824945	0.872511
	C180	C	0.388213	0.882528	0.182883
	C181	C	0.602019	0.132669	0.179855
	C182	C	0.384918	0.130017	0.818478
	C183	C	0.602145	0.883238	0.815145
	C184	C	0.867347	0.194222	0.393861
	C185	C	0.120080	0.191168	0.608083
	C186	C	0.117807	0.827587	0.390237
	C187	C	0.871055	0.827770	0.608607
	C188	C	0.179228	0.402162	0.869897
	C189	C	0.176097	0.614503	0.122831
	C190	C	0.810275	0.400380	0.124508
	C191	C	0.812746	0.616609	0.875402
	C192	C	0.396622	0.099268	0.596581
	C193	C	0.589998	0.918099	0.593643
	C194	C	0.588774	0.096401	0.406422
	C195	C	0.399963	0.919232	0.405387
	C196	C	0.588290	0.412385	0.090060
	C197	C	0.589747	0.602747	0.909049
	C198	C	0.400080	0.601347	0.088572
	C199	C	0.400137	0.412699	0.908579
	C200	C	0.084655	0.604590	0.402454
	C201	C	0.904035	0.606240	0.595931
	C202	C	0.083481	0.413938	0.593553
	C203	C	0.906063	0.414242	0.406961
	C204	C	0.897477	0.597634	0.095074
	C205	C	0.088371	0.418119	0.092681
	C206	C	0.090367	0.597407	0.903969
	C207	C	0.897387	0.418781	0.904175
	C208	C	0.091975	0.910713	0.591385
	C209	C	0.089987	0.102934	0.409894
	C210	C	0.902408	0.100655	0.588463
	C211	C	0.900838	0.913588	0.409196
	C212	C	0.584306	0.105503	0.901458
	C213	C	0.405402	0.102213	0.093040
	C214	C	0.583376	0.914107	0.091050
	C215	C	0.404772	0.910826	0.902773
	Zn216	Zn	0.494196	0.007989	0.748741
	Zn217	Zn	0.495154	0.008221	0.249043
	Zn218	Zn	0.743216	0.508455	-0.000410
	Zn219	Zn	0.244511	0.507029	-0.001519
	Zn220	Zn	-0.005411	0.759015	0.499345
	Zn221	Zn	-0.004783	0.257635	0.500256
	Zn222	Zn	-0.005682	0.508643	0.749432
	Zn223	Zn	-0.006558	0.507443	0.248867
	Zn224	Zn	0.494995	0.757288	-0.001170
	Zn225	Zn	0.493555	0.258076	-0.001433
	Zn226	Zn	0.745587	0.008103	0.499204
	Zn227	Zn	0.243859	0.008503	0.499544
	N228	N	0.407922	0.973423	0.678558
	N229	N	0.580225	0.042853	0.677900
	N230	N	0.583506	0.974884	0.317424
	N231	N	0.408386	0.042595	0.319112
	N232	N	0.673108	0.421813	0.964800
	N233	N	0.674638	0.596163	0.033403
	N234	N	0.314664	0.594371	0.964430
	N235	N	0.312918	0.419260	0.032272
	N236	N	0.961348	0.689479	0.411062
	N237	N	0.028798	0.689194	0.586849
	N238	N	0.961136	0.326746	0.587994
	N239	N	0.028309	0.327326	0.411767
	N240	N	0.959484	0.421681	0.679493
	N241	N	0.028805	0.594947	0.678939
	N242	N	0.959687	0.594248	0.319667
	N243	N	0.028664	0.421554	0.319402
	N244	N	0.407731	0.687468	0.964598
	N245	N	0.582550	0.689416	0.032600
	N246	N	0.580453	0.328545	0.964442
	N247	N	0.405379	0.326138	0.032441
	N248	N	0.677380	0.975354	0.409842
	N249	N	0.677157	0.040660	0.588477
	N250	N	0.313612	0.974173	0.586847
	N251	N	0.313014	0.041177	0.410623
	N252	N	0.905850	0.473274	0.179875
	N253	N	0.079313	0.542425	0.177420
	N254	N	0.080251	0.473183	0.819173
	N255	N	0.907898	0.543415	0.819912
	N256	N	0.175167	0.920550	0.465336
	N257	N	0.174286	0.094902	0.534879
	N258	N	0.813901	0.096954	0.466343
	N259	N	0.814510	0.920851	0.533570
	N260	N	0.460426	0.189953	0.909547
	N261	N	0.528138	0.188901	0.085791
	N262	N	0.461287	0.826321	0.087189
	N263	N	0.528378	0.826079	0.909929
	N264	N	0.460953	0.920716	0.179302
	N265	N	0.529151	0.094580	0.177717
	N266	N	0.458496	0.093364	0.819839
	N267	N	0.528885	0.920275	0.817503
	N268	N	0.907451	0.189286	0.465992
	N269	N	0.082991	0.189156	0.534041
	N270	N	0.081918	0.828004	0.465020
	N271	N	0.908207	0.829188	0.534349
	N272	N	0.177494	0.475228	0.907824
	N273	N	0.174611	0.540940	0.085820
	N274	N	0.811633	0.474211	0.087935
	N275	N	0.813326	0.542886	0.912147
	O276	O	0.088035	1.103612	-0.191000
	H277	H	0.096753	1.128082	-0.195138
	H278	H	0.079178	1.115415	-0.178123
	O279	O	0.446952	0.582787	0.517414
	H280	H	0.464103	0.588589	0.512389
	H281	H	0.431144	0.588437	0.504494
	O282	O	0.936211	-0.024514	1.031069
	H283	H	0.933864	-0.032710	1.018134
	H284	H	0.934263	-0.020340	1.037747
	O285	O	0.505391	0.375512	0.445440
	H286	H	0.497551	0.385592	0.433028
	H287	H	0.497316	0.377852	0.452596
	O288	O	0.263865	0.450316	0.430774
	H289	H	0.267545	0.446738	0.419475
	H290	H	0.270110	0.451638	0.431157
	O291	O	0.457855	0.531318	0.728152
	H292	H	0.467512	0.533675	0.726221
	H293	H	0.470017	0.552290	0.723400
	O294	O	1.055421	-0.216151	1.059568
	H295	H	1.054357	-0.219028	1.041096
	H296	H	1.064564	-0.221231	1.050027
	O297	O	0.284951	0.712226	0.288268
	H298	H	0.262738	0.727886	0.282030
	H299	H	0.283863	0.693698	0.315571
	O300	O	0.460321	0.289552	0.717078
	H301	H	0.467507	0.281332	0.725075
	H302	H	0.452925	0.281417	0.723885
	O303	O	0.479714	0.731073	0.280055
	H304	H	0.441720	0.712701	0.286005
	H305	H	0.464533	0.758615	0.253012
	O306	O	0.686758	0.702524	0.310824
	H307	H	0.708510	0.718595	0.297159
	H308	H	0.665646	0.699906	0.313915
	O309	O	0.474273	0.291609	0.557324
	H310	H	0.470303	0.290803	0.550739
	H311	H	0.463958	0.284558	0.551167
	O312	O	0.484953	0.476681	0.600634
	H313	H	0.477828	0.471546	0.599123
	H314	H	0.502188	0.486072	0.594051
	O315	O	0.971633	0.995628	0.998149
	H316	H	0.979369	0.993507	1.001175
	H317	H	0.970612	0.991476	1.011437
	O318	O	0.304316	0.278604	0.503595
	H319	H	0.287340	0.284482	0.505417
	H320	H	0.293121	0.270384	0.519079
	O321	O	0.304042	0.696832	0.688551
	H322	H	0.312913	0.697396	0.675017
	H323	H	0.325686	0.680334	0.672308
	O324	O	1.320960	1.343857	-0.364720
	H325	H	1.320848	1.360503	-0.355808
	H326	H	1.327328	1.348518	-0.379887
	O327	O	-0.144568	0.009293	1.146319
	H328	H	-0.149483	0.018445	1.141332
	H329	H	-0.132804	0.007984	1.147910
	O330	O	1.205068	0.238356	0.789454
	H331	H	1.218980	0.243055	0.794068
	H332	H	1.211181	0.258601	0.797483
	O333	O	0.710422	0.319931	0.329127
	H334	H	0.709318	0.352705	0.339970
	H335	H	0.691569	0.327424	0.340200
	O336	O	0.614679	0.452094	0.553230
	H337	H	0.606162	0.448203	0.539543
	H338	H	0.610427	0.461253	0.540347
	O339	O	1.221968	0.019880	0.957544
	H340	H	1.223340	0.032517	0.948421
	H341	H	1.213980	0.019381	0.964720
	O342	O	0.206860	-0.203079	-0.207456
	H343	H	0.227211	-0.222307	-0.235277
	H344	H	0.205350	-0.170711	-0.199491
	O345	O	-0.054673	1.228414	1.074651
	H346	H	-0.065863	1.226429	1.076198
	H347	H	-0.068058	1.217561	1.082478
	O348	O	-0.140085	0.096561	-0.018132
	H349	H	-0.133798	0.105085	-0.010627
	H350	H	-0.140183	0.092156	-0.023814
	O351	O	0.923343	0.225115	0.782004
	H352	H	0.921566	0.244428	0.775083
	H353	H	0.921499	0.238831	0.793843
	O354	O	0.043604	-0.182969	0.810561
	H355	H	0.051688	-0.180936	0.804823
	H356	H	0.054424	-0.183507	0.791231
	O357	O	0.719771	0.739954	0.517873
	H358	H	0.737264	0.745746	0.528218
	H359	H	0.728067	0.751085	0.541960
	O360	O	0.349640	0.518805	0.293305
	H361	H	0.350565	0.521445	0.298580
	H362	H	0.334429	0.503520	0.297662
	O363	O	-0.027268	-0.008485	0.185593
	H364	H	-0.031470	-0.017029	0.187692
	H365	H	-0.041759	0.001102	0.175318
	O366	O	0.365400	0.508039	0.375526
	H367	H	0.362775	0.510525	0.374656
	H368	H	0.368791	0.523940	0.371430
	O369	O	1.174864	0.028623	0.094671
	H370	H	1.174164	0.030524	0.105382
	H371	H	1.172456	0.007490	0.088887
	O372	O	0.451467	0.585376	0.362023
	H373	H	0.449757	0.574039	0.374758
	H374	H	0.436990	0.594587	0.365703
	O375	O	1.025109	0.236670	-0.097866
	H376	H	1.043254	0.250549	-0.097069
	H377	H	0.999270	0.235512	-0.074997
	O378	O	0.789169	0.212563	0.205070
	H379	H	0.775787	0.210294	0.201643
	H380	H	0.771867	0.226375	0.238389
	O381	O	-0.218766	1.184096	0.845544
	H382	H	-0.197338	1.193101	0.856908
	H383	H	-0.238012	1.198098	0.824997
	O384	O	0.816759	-0.174118	0.820427
	H385	H	0.843366	-0.163729	0.828426
	H386	H	0.820995	-0.146765	0.841362
	O387	O	1.201962	1.226318	0.216477
	H388	H	1.162579	1.230546	0.201896
	H389	H	1.200009	1.183630	0.204096
	O390	O	0.674387	0.527300	0.309326
	H391	H	0.671895	0.533771	0.296694
	H392	H	0.662976	0.543157	0.301544
	O393	O	0.491928	0.542794	0.448011
	H394	H	0.497404	0.532520	0.453716
	H395	H	0.484649	0.544362	0.443879
	O396	O	0.161857	1.095915	1.049524
	H397	H	0.146243	1.084199	1.039564
	H398	H	0.162956	1.078810	1.050613
	O399	O	0.218699	-0.032496	0.778149
	H400	H	0.211224	-0.020708	0.785390
	H401	H	0.245745	-0.027786	0.753404
	O402	O	0.502155	0.332506	0.350753
	H403	H	0.484335	0.333144	0.342529
	H404	H	0.501763	0.332708	0.340644
	O405	O	0.836530	-0.059380	0.972713
	H406	H	0.832668	-0.038666	0.967430
	H407	H	0.851594	-0.050866	0.976924
	O408	O	-0.097535	-0.014897	-0.218286
	H409	H	-0.083022	0.009535	-0.218320
	H410	H	-0.102949	-0.021005	-0.229000
	O411	O	0.697464	0.710122	0.703943
	H412	H	0.710510	0.679595	0.710098
	H413	H	0.718772	0.717537	0.718235
	O414	O	0.481386	0.727431	0.654699
	H415	H	0.503755	0.733724	0.634552
	H416	H	0.494697	0.747512	0.665463
	O417	O	0.715682	0.511502	0.526000
	H418	H	0.717034	0.505802	0.509440
	H419	H	0.699425	0.529795	0.517303
	O420	O	0.307565	0.316990	0.313685
	H421	H	0.298572	0.316236	0.306304
	H422	H	0.282064	0.305095	0.307831
	O423	O	0.148165	0.042250	1.172550
	H424	H	0.155780	0.038786	1.185992
	H425	H	0.117331	0.028095	1.168871
	O426	O	0.709469	0.292657	0.487150
	H427	H	0.690935	0.285041	0.482796
	H428	H	0.723238	0.280409	0.475964
	O429	O	1.030948	0.797341	1.209477
	H430	H	1.037166	0.788724	1.185338
	H431	H	1.041928	0.767436	1.231449
	O432	O	0.259171	0.576550	0.552126
	H433	H	0.260411	0.560982	0.556377
	H434	H	0.261426	0.560361	0.552108
	O435	O	0.018860	1.193267	0.218818
	H436	H	0.011082	1.202808	0.226835
	H437	H	0.003315	1.182918	0.218425
	O438	O	-0.219622	0.007618	-0.179684
	H439	H	-0.224383	0.020802	-0.202863
	H440	H	-0.214851	0.023243	-0.180013
	O441	O	0.051150	-0.041618	-0.121107
	H442	H	0.060391	-0.052254	-0.120655
	H443	H	0.057000	-0.015127	-0.121839
	O444	O	0.639632	0.530600	0.278334
	H445	H	0.650592	0.552485	0.257347
	H446	H	0.617096	0.545523	0.282806
	O447	O	0.216061	0.786075	0.975142
	H448	H	0.236949	0.762771	0.964797
	H449	H	0.218417	0.797006	0.948532
	O450	O	-0.134758	0.931820	1.030600
	H451	H	-0.125882	0.935204	1.011555
	H452	H	-0.139221	0.934322	1.012756
	O453	O	0.716384	0.539009	0.719896
	H454	H	0.739666	0.532267	0.731692
	H455	H	0.719337	0.525686	0.705679
	O456	O	0.195555	-0.139266	1.158637
	H457	H	0.189710	-0.126803	1.139756
	H458	H	0.178802	-0.136921	1.155390
	O459	O	0.649864	0.343144	0.693695
	H460	H	0.636308	0.360237	0.679486
	H461	H	0.638391	0.352860	0.674673
	O462	O	0.279806	0.475946	0.709352
	H463	H	0.274457	0.487812	0.735591
	H464	H	0.299360	0.495434	0.716556
	O465	O	0.786776	-0.202015	0.206919
	H466	H	0.781061	-0.204252	0.177736
	H467	H	0.808336	-0.173256	0.207657
	O468	O	0.536038	0.521324	0.518313
	H469	H	0.529634	0.514013	0.525079
	H470	H	0.525694	0.531967	0.501873
	O471	O	0.545298	0.566842	0.649713
	H472	H	0.549050	0.573430	0.657548
	H473	H	0.568970	0.576557	0.647426
	O474	O	0.293474	0.729149	0.479895
	H475	H	0.293933	0.715574	0.490538
	H476	H	0.272371	0.745248	0.476572
	O477	O	0.525059	0.313507	1.297276
	H478	H	0.535262	0.291501	1.276137
	H479	H	0.513006	0.335389	1.296160
	O480	O	0.211430	0.235323	0.012402
	H481	H	0.207153	0.211795	0.034588
	H482	H	0.237573	0.266874	0.021176
	O483	O	0.523847	0.724088	0.485730
	H484	H	0.553951	0.731411	0.483396
	H485	H	0.526610	0.725858	0.455761
	O486	O	0.962659	-0.179694	0.879356
	H487	H	0.938811	-0.182434	0.879777
	H488	H	0.974664	-0.163568	0.858950
	O489	O	0.835672	0.782548	-0.010208
	H490	H	0.827556	0.774535	-0.003671
	H491	H	0.834551	0.793079	-0.015342
	O492	O	-0.225745	0.224915	-0.029476
	H493	H	-0.224547	0.226748	-0.035473
	H494	H	-0.240840	0.235779	-0.042116
	O495	O	-0.212798	1.042775	1.211550
	H496	H	-0.241354	1.043682	1.242063
	H497	H	-0.200962	1.026542	1.190818
	O498	O	1.009010	0.977925	1.195795
	H499	H	0.999673	0.973897	1.184909
	H500	H	0.985371	0.974777	1.198917
	O501	O	0.644717	0.595582	0.507880
	H502	H	0.642477	0.596351	0.508723
	H503	H	0.653612	0.595323	0.504552
