data_Molecule from HDF5

_cell_length_a		16.204836
_cell_length_b		16.144038
_cell_length_c		16.239764
_cell_angle_alpha	90.605407
_cell_angle_beta	90.477466
_cell_angle_gamma	90.177995
_symmetry_space_group_name_H-M	'P 1'
_symmetry_Int_Tables_number		1

loop_
	_symmetry_equiv_pos_as_xyz
	x,y,z

loop_
	_atom_site_label
	_atom_site_type_symbol
	_atom_site_fract_x
	_atom_site_fract_y
	_atom_site_fract_z
	H0	H	0.422215	0.830367	0.710649
	H1	H	0.622799	0.158994	0.716212
	H2	H	0.618857	0.831512	0.281984
	H3	H	0.418767	0.160534	0.285031
	H4	H	0.733180	0.396174	0.832830
	H5	H	0.739610	0.598561	0.161419
	H6	H	0.303510	0.595615	0.835253
	H7	H	0.307347	0.399329	0.162472
	H8	H	0.855211	0.705286	0.400502
	H9	H	0.185001	0.711583	0.600082
	H10	H	0.856422	0.282262	0.593961
	H11	H	0.186656	0.280478	0.400756
	H12	H	0.856777	0.397006	0.709231
	H13	H	0.185293	0.596124	0.715830
	H14	H	0.857468	0.593043	0.281993
	H15	H	0.186619	0.394332	0.284936
	H16	H	0.423378	0.706672	0.833631
	H17	H	0.621913	0.712644	0.161975
	H18	H	0.618103	0.279359	0.834184
	H19	H	0.422931	0.284598	0.163393
	H20	H	0.730832	0.829152	0.399437
	H21	H	0.737063	0.158433	0.601476
	H22	H	0.307046	0.830216	0.595360
	H23	H	0.305987	0.160277	0.401215
	H24	H	0.924438	0.329124	0.208407
	H25	H	0.124695	0.658999	0.217895
	H26	H	0.120460	0.330779	0.782467
	H27	H	0.921887	0.659507	0.784475
	H28	H	0.233028	0.893623	0.333161
	H29	H	0.237860	0.096000	0.661863
	H30	H	0.804502	0.090013	0.334928
	H31	H	0.806788	0.895660	0.662790
	H32	H	0.356187	0.207822	0.901278
	H33	H	0.684998	0.211884	0.100193
	H34	H	0.357167	0.782632	0.094529
	H35	H	0.685025	0.781216	0.899315
	H36	H	0.356452	0.897864	0.209274
	H37	H	0.684278	0.098447	0.217555
	H38	H	0.357404	0.095036	0.782887
	H39	H	0.684900	0.895615	0.784859
	H40	H	0.921554	0.206115	0.333664
	H41	H	0.121317	0.211341	0.662965
	H42	H	0.117316	0.778078	0.334154
	H43	H	0.923708	0.782716	0.663377
	H44	H	0.235253	0.331097	0.898275
	H45	H	0.235678	0.661399	0.100312
	H46	H	0.806224	0.331259	0.093493
	H47	H	0.809593	0.661640	0.900001
	H48	H	0.438861	0.108291	0.584118
	H49	H	0.619812	0.874239	0.589927
	H50	H	0.608470	0.110544	0.414935
	H51	H	0.435086	0.879696	0.403590
	H52	H	0.611859	0.407579	0.113042
	H53	H	0.607379	0.587449	0.883252
	H54	H	0.433695	0.594386	0.115156
	H55	H	0.432632	0.400360	0.881915
	H56	H	0.142386	0.595743	0.403489
	H57	H	0.905063	0.576217	0.600424
	H58	H	0.138322	0.406567	0.592326
	H59	H	0.902863	0.397620	0.402668
	H60	H	0.140116	0.402823	0.595747
	H61	H	0.897310	0.601450	0.596949
	H62	H	0.135149	0.587310	0.419018
	H63	H	0.904911	0.403298	0.404472
	H64	H	0.424913	0.594392	0.118965
	H65	H	0.617321	0.598846	0.876520
	H66	H	0.616538	0.402180	0.116746
	H67	H	0.422063	0.399437	0.878973
	H68	H	0.620561	0.114725	0.409748
	H69	H	0.610424	0.875044	0.598923
	H70	H	0.417333	0.115650	0.587343
	H71	H	0.422661	0.878967	0.409267
	H72	H	0.932240	0.610338	0.083886
	H73	H	0.120948	0.375311	0.092353
	H74	H	0.111745	0.614730	0.903574
	H75	H	0.928764	0.376995	0.901448
	H76	H	0.114260	0.908776	0.613467
	H77	H	0.123087	0.080437	0.379296
	H78	H	0.935297	0.088041	0.612977
	H79	H	0.930158	0.894594	0.381633
	H80	H	0.638159	0.088461	0.910913
	H81	H	0.407192	0.089695	0.076837
	H82	H	0.639210	0.902336	0.092680
	H83	H	0.402529	0.900300	0.903420
	H84	H	0.638510	0.906410	0.088621
	H85	H	0.402969	0.078215	0.102866
	H86	H	0.638351	0.085138	0.906363
	H87	H	0.404230	0.903166	0.904568
	H88	H	0.926984	0.095834	0.618797
	H89	H	0.102831	0.081654	0.385914
	H90	H	0.111070	0.902093	0.614543
	H91	H	0.918553	0.896684	0.379100
	H92	H	0.111188	0.611532	0.910239
	H93	H	0.108978	0.378694	0.094446
	H94	H	0.923151	0.616259	0.095210
	H95	H	0.927603	0.377298	0.904681
	H96	H	0.432187	0.115651	0.604800
	H97	H	0.608924	0.879056	0.586026
	H98	H	0.610330	0.114946	0.401930
	H99	H	0.423967	0.873657	0.396476
	H100	H	0.618968	0.409177	0.115429
	H101	H	0.622109	0.583673	0.879110
	H102	H	0.428203	0.586068	0.114310
	H103	H	0.427268	0.408819	0.883673
	H104	H	0.136823	0.577439	0.402952
	H105	H	0.907940	0.587289	0.577357
	H106	H	0.139434	0.400813	0.589738
	H107	H	0.903590	0.401190	0.399098
	H108	H	0.937903	0.612608	0.097823
	H109	H	0.114128	0.379948	0.083593
	H110	H	0.117109	0.614218	0.908221
	H111	H	0.924926	0.376760	0.901860
	H112	H	0.118937	0.903175	0.616881
	H113	H	0.113084	0.099000	0.377747
	H114	H	0.923849	0.084043	0.615932
	H115	H	0.925676	0.906245	0.382958
	H116	H	0.640093	0.090891	0.906308
	H117	H	0.396368	0.105175	0.097530
	H118	H	0.638876	0.907682	0.094398
	H119	H	0.402616	0.903296	0.901379
	C120	C	0.400033	0.004198	0.619686
	C121	C	0.642977	0.985191	0.621591
	C122	C	0.641020	0.004091	0.378258
	C123	C	0.397906	0.986371	0.375746
	C124	C	0.643113	0.375598	0.006560
	C125	C	0.644651	0.619561	0.988602
	C126	C	0.399695	0.618565	0.007506
	C127	C	0.399422	0.375338	0.990180
	C128	C	0.029459	0.615284	0.378488
	C129	C	1.012092	0.617719	0.621374
	C130	C	0.030056	0.374621	0.619068
	C131	C	1.013314	0.371998	0.375247
	C132	C	0.901378	0.504054	0.119038
	C133	C	0.143965	0.486859	0.120741
	C134	C	0.142013	0.504293	0.877776
	C135	C	0.899209	0.486665	0.875439
	C136	C	0.142232	0.873640	0.506253
	C137	C	0.142959	0.117132	0.489530
	C138	C	0.899100	0.116181	0.507168
	C139	C	0.897475	0.871734	0.489905
	C140	C	0.530061	0.116637	0.878342
	C141	C	0.511352	0.119924	0.122133
	C142	C	0.530101	0.876097	0.119148
	C143	C	0.511820	0.873619	0.875728
	C144	C	0.402062	0.879671	0.673303
	C145	C	0.642412	0.109649	0.678087
	C146	C	0.638784	0.880508	0.320677
	C147	C	0.399413	0.111049	0.322274
	C148	C	0.696559	0.375993	0.882398
	C149	C	0.701011	0.618377	0.112423
	C150	C	0.342895	0.615224	0.883834
	C151	C	0.345092	0.378807	0.113646
	C152	C	0.905056	0.668785	0.380036
	C153	C	0.135769	0.673765	0.620098
	C154	C	0.905605	0.319968	0.614660
	C155	C	0.137058	0.317417	0.379536
	C156	C	0.905853	0.376603	0.672403
	C157	C	0.136081	0.616115	0.677615
	C158	C	0.906045	0.612795	0.321235
	C159	C	0.137149	0.374123	0.321806
	C160	C	0.402242	0.670670	0.883153
	C161	C	0.642582	0.675222	0.112605
	C162	C	0.639413	0.317915	0.883151
	C163	C	0.402816	0.321842	0.114086
	C164	C	0.694304	0.879322	0.379394
	C165	C	0.699143	0.109299	0.620748
	C166	C	0.344820	0.879670	0.615965
	C167	C	0.343193	0.111027	0.380035
	C168	C	0.903478	0.379129	0.171704
	C169	C	0.143225	0.610270	0.178360
	C170	C	0.139984	0.380044	0.821293
	C171	C	0.901963	0.610754	0.821769
	C172	C	0.196144	0.873825	0.382543
	C173	C	0.199535	0.116139	0.613040
	C174	C	0.842637	0.111678	0.383843
	C175	C	0.843822	0.875005	0.613554
	C176	C	0.405786	0.171124	0.880188
	C177	C	0.635424	0.174814	0.120531
	C178	C	0.406282	0.820504	0.115206
	C179	C	0.635542	0.818570	0.878707
	C180	C	0.405769	0.877900	0.172127
	C181	C	0.634929	0.118285	0.178894
	C182	C	0.406465	0.114812	0.821457
	C183	C	0.635772	0.875570	0.821905
	C184	C	0.901046	0.169387	0.383233
	C185	C	0.141550	0.173303	0.613561
	C186	C	0.138302	0.816411	0.383095
	C187	C	0.902476	0.819203	0.614026
	C188	C	0.197299	0.380258	0.878635
	C189	C	0.198785	0.611353	0.119931
	C190	C	0.844947	0.380188	0.114657
	C191	C	0.845725	0.611547	0.879255
	C192	C	0.422694	0.090838	0.598341
	C193	C	0.619810	0.898490	0.598480
	C194	C	0.619467	0.091009	0.401917
	C195	C	0.420386	0.899923	0.396841
	C196	C	0.622020	0.399426	0.092712
	C197	C	0.622300	0.596825	0.902223
	C198	C	0.422291	0.597916	0.093728
	C199	C	0.421089	0.396426	0.903959
	C200	C	0.115741	0.593421	0.401784
	C201	C	0.925711	0.594912	0.598349
	C202	C	0.116970	0.396800	0.598614
	C203	C	0.926319	0.394222	0.396074
	C204	C	0.924240	0.590866	0.098529
	C205	C	0.121179	0.400251	0.097036
	C206	C	0.119844	0.591036	0.900633
	C207	C	0.920620	0.399486	0.896378
	C208	C	0.121193	0.897741	0.592584
	C209	C	0.119803	0.093821	0.403298
	C210	C	0.921832	0.095382	0.593646
	C211	C	0.918353	0.893078	0.403571
	C212	C	0.616559	0.094749	0.901323
	C213	C	0.424449	0.097585	0.099201
	C214	C	0.616557	0.898818	0.098071
	C215	C	0.425511	0.895755	0.896843
	Zn216	Zn	0.521032	-0.004907	0.748369
	Zn217	Zn	0.520159	-0.003474	0.248959
	Zn218	Zn	0.772361	0.496475	-0.003170
	Zn219	Zn	0.270868	0.496341	-0.001116
	Zn220	Zn	0.020341	0.745022	0.499287
	Zn221	Zn	0.021460	0.245597	0.498248
	Zn222	Zn	0.020827	0.495119	0.748634
	Zn223	Zn	0.022565	0.494477	0.248459
	Zn224	Zn	0.521311	0.747118	-0.002257
	Zn225	Zn	0.521164	0.246521	-0.000905
	Zn226	Zn	0.769335	-0.006350	0.499744
	Zn227	Zn	0.271459	-0.004907	0.497844
	N228	N	0.435768	0.958163	0.675668
	N229	N	0.608152	0.031456	0.678748
	N230	N	0.606068	0.959172	0.319912
	N231	N	0.432862	0.032658	0.319383
	N232	N	0.698865	0.411381	0.960048
	N233	N	0.702794	0.584757	0.034165
	N234	N	0.341030	0.583630	0.962157
	N235	N	0.342935	0.411481	0.035747
	N236	N	0.982764	0.670235	0.415128
	N237	N	0.057792	0.674903	0.586070
	N238	N	0.983855	0.318600	0.582272
	N239	N	0.058844	0.315897	0.411974
	N240	N	0.984165	0.409877	0.675215
	N241	N	0.058117	0.582080	0.678665
	N242	N	0.984415	0.580344	0.319695
	N243	N	0.058914	0.407192	0.318839
	N244	N	0.437152	0.672682	0.960785
	N245	N	0.608463	0.676228	0.034732
	N246	N	0.606900	0.317527	0.961264
	N247	N	0.435911	0.319389	0.036252
	N248	N	0.695675	0.957299	0.414602
	N249	N	0.699409	0.031026	0.586343
	N250	N	0.343563	0.957955	0.583227
	N251	N	0.342026	0.032619	0.412441
	N252	N	0.937691	0.457333	0.174621
	N253	N	0.109936	0.531723	0.179143
	N254	N	0.106252	0.458324	0.820509
	N255	N	0.934521	0.532031	0.819306
	N256	N	0.198779	0.908691	0.460276
	N257	N	0.200348	0.081869	0.535005
	N258	N	0.841086	0.079727	0.462013
	N259	N	0.840834	0.907256	0.535472
	N260	N	0.483478	0.172239	0.914943
	N261	N	0.557548	0.176019	0.086132
	N262	N	0.484564	0.819226	0.082939
	N263	N	0.557635	0.817231	0.911615
	N264	N	0.483805	0.911626	0.174782
	N265	N	0.556455	0.085156	0.180186
	N266	N	0.484685	0.081337	0.820247
	N267	N	0.557890	0.909215	0.819720
	N268	N	0.935501	0.172216	0.460961
	N269	N	0.106979	0.173870	0.535786
	N270	N	0.105682	0.816276	0.461267
	N271	N	0.934948	0.816976	0.536010
	N272	N	0.198519	0.458449	0.913109
	N273	N	0.199312	0.533456	0.084614
	N274	N	0.843623	0.458822	0.082752
	N275	N	0.844011	0.533352	0.912024
	O276	O	-0.428207	0.452817	-0.574229
	H277	H	-0.428884	0.457694	-0.578974
	H278	H	-0.423105	0.449418	-0.567751
	O279	O	-0.044556	0.921805	1.041045
	H280	H	-0.037608	0.913634	1.043124
	H281	H	-0.049290	0.905753	1.048915
	O282	O	0.524338	0.437992	0.474501
	H283	H	0.523813	0.437950	0.465178
	H284	H	0.516139	0.428110	0.479285
	O285	O	0.530355	-0.573131	1.517511
	H286	H	0.532183	-0.575875	1.513239
	H287	H	0.532505	-0.564412	1.519957
	O288	O	1.051291	0.022245	0.026185
	H289	H	1.057930	0.020735	0.026053
	H290	H	1.055530	0.018538	0.025443
	O291	O	0.527696	0.489758	0.506281
	H292	H	0.534745	0.500719	0.496757
	H293	H	0.526780	0.485848	0.505097
	O294	O	1.029378	-0.117888	0.996860
	H295	H	1.032893	-0.125082	0.992914
	H296	H	1.023010	-0.117693	0.988994
	O297	O	0.022278	0.019619	0.083150
	H298	H	0.035806	0.035797	0.092382
	H299	H	0.030727	0.014629	0.079892
	O300	O	0.471510	0.476809	0.486112
	H301	H	0.482773	0.488958	0.480109
	H302	H	0.463586	0.482623	0.474520
	O303	O	0.474975	0.428536	0.504124
	H304	H	0.481818	0.418279	0.496831
	H305	H	0.487304	0.424985	0.499433
	O306	O	1.053143	-0.092139	0.097400
	H307	H	1.062809	-0.092221	0.093144
	H308	H	1.055251	-0.093364	0.101712
	O309	O	-0.013299	-0.010764	0.962897
	H310	H	-0.012648	-0.028246	0.963656
	H311	H	-0.004333	-0.005161	0.960158
	O312	O	0.996383	0.960678	0.969031
	H313	H	1.002638	0.964023	0.975061
	H314	H	0.996653	0.957134	0.967002
	O315	O	0.587315	0.519151	0.459603
	H316	H	0.589993	0.512285	0.459402
	H317	H	0.605531	0.518512	0.454144
	O318	O	0.016107	1.005863	-0.062802
	H319	H	0.020739	1.021068	-0.069316
	H320	H	0.019107	1.010157	-0.069447
	O321	O	0.042960	1.052916	0.982788
	H322	H	0.037822	1.039347	0.981034
	H323	H	0.037288	1.056529	0.980609
	O324	O	0.520983	0.500490	0.525493
	H325	H	0.518775	0.500845	0.524023
	H326	H	0.525696	0.504090	0.535069
	O327	O	0.006889	1.082114	-0.016526
	H328	H	0.005990	1.081580	-0.011291
	H329	H	0.018168	1.079310	-0.025358
	O330	O	0.498468	0.422085	0.484184
	H331	H	0.503334	0.428115	0.483785
	H332	H	0.502133	0.414943	0.490691
	O333	O	0.587853	0.620758	0.464476
	H334	H	0.579080	0.631610	0.469404
	H335	H	0.591274	0.627463	0.475511
	O336	O	0.476326	0.611688	0.452510
	H337	H	0.472188	0.598598	0.448263
	H338	H	0.479258	0.604872	0.445051
	O339	O	0.582587	1.348670	0.350448
	H340	H	0.582123	1.360220	0.356622
	H341	H	0.572890	1.336348	0.325947
	O342	O	0.536671	0.541925	0.453129
	H343	H	0.528344	0.542638	0.447087
	H344	H	0.535531	0.533810	0.456890
	O345	O	0.531202	0.472235	0.532060
	H346	H	0.535918	0.462304	0.538853
	H347	H	0.527330	0.467541	0.538875
	O348	O	-0.075111	-0.058790	0.071860
	H349	H	-0.078986	-0.052708	0.088322
	H350	H	-0.087407	-0.066570	0.078115
	O351	O	0.080043	0.997050	1.001947
	H352	H	0.069971	0.990554	0.987861
	H353	H	0.085826	1.009021	1.009487
	O354	O	0.554282	0.397665	0.494356
	H355	H	0.559482	0.390019	0.497628
	H356	H	0.545903	0.404591	0.498632
	O357	O	0.017620	1.059525	0.901471
	H358	H	0.011600	1.072056	0.899348
	H359	H	0.000983	1.056761	0.908931
