data_Molecule from HDF5

_cell_length_a		16.249401
_cell_length_b		16.277261
_cell_length_c		16.094372
_cell_angle_alpha	90.676422
_cell_angle_beta	89.843651
_cell_angle_gamma	89.981840
_symmetry_space_group_name_H-M	'P 1'
_symmetry_Int_Tables_number		1

loop_
	_symmetry_equiv_pos_as_xyz
	x,y,z

loop_
	_atom_site_label
	_atom_site_type_symbol
	_atom_site_fract_x
	_atom_site_fract_y
	_atom_site_fract_z
	H0	H	0.406623	0.833128	0.703872
	H1	H	0.600142	0.161707	0.709723
	H2	H	0.601947	0.834835	0.276908
	H3	H	0.406084	0.162720	0.281676
	H4	H	0.715987	0.397420	0.826300
	H5	H	0.715473	0.597704	0.157912
	H6	H	0.291920	0.594271	0.827162
	H7	H	0.287779	0.400663	0.157067
	H8	H	0.838992	0.713677	0.394652
	H9	H	0.165545	0.717218	0.594532
	H10	H	0.839826	0.285739	0.591779
	H11	H	0.164791	0.280982	0.387730
	H12	H	0.838052	0.406499	0.702283
	H13	H	0.166184	0.599385	0.706282
	H14	H	0.837082	0.593723	0.282377
	H15	H	0.166143	0.400160	0.277303
	H16	H	0.404668	0.710040	0.827851
	H17	H	0.603213	0.714252	0.157376
	H18	H	0.604153	0.280204	0.828827
	H19	H	0.405379	0.287936	0.159039
	H20	H	0.717987	0.835091	0.391376
	H21	H	0.717375	0.162483	0.595085
	H22	H	0.285450	0.836284	0.593338
	H23	H	0.288119	0.161507	0.394696
	H24	H	0.904439	0.334295	0.204120
	H25	H	0.099719	0.662650	0.207610
	H26	H	0.100272	0.335807	0.774348
	H27	H	0.906024	0.664592	0.783196
	H28	H	0.218512	0.897313	0.328208
	H29	H	0.216512	0.101461	0.658051
	H30	H	0.789268	0.096447	0.327039
	H31	H	0.789084	0.903134	0.657864
	H32	H	0.340931	0.212626	0.894046
	H33	H	0.667481	0.215061	0.095971
	H34	H	0.341561	0.782857	0.095332
	H35	H	0.666664	0.780444	0.891142
	H36	H	0.339178	0.903111	0.203903
	H37	H	0.668124	0.096817	0.207563
	H38	H	0.339585	0.094147	0.782617
	H39	H	0.668059	0.898089	0.778965
	H40	H	0.904599	0.210131	0.326138
	H41	H	0.101414	0.217394	0.656920
	H42	H	0.102626	0.783715	0.328013
	H43	H	0.903227	0.788776	0.657572
	H44	H	0.219386	0.335619	0.888193
	H45	H	0.219717	0.661422	0.095180
	H46	H	0.787777	0.335105	0.090432
	H47	H	0.787861	0.661985	0.895191
	H48	H	0.406051	0.117407	0.594320
	H49	H	0.601864	0.880596	0.581055
	H50	H	0.596441	0.118740	0.390528
	H51	H	0.410527	0.881081	0.396797
	H52	H	0.604176	0.402520	0.114895
	H53	H	0.603799	0.586025	0.872513
	H54	H	0.403166	0.590518	0.113265
	H55	H	0.416377	0.404005	0.875830
	H56	H	0.121124	0.597026	0.401025
	H57	H	0.879198	0.604263	0.594850
	H58	H	0.123664	0.395502	0.581571
	H59	H	0.881661	0.404891	0.390081
	H60	H	0.114815	0.414080	0.571377
	H61	H	0.886819	0.599097	0.576408
	H62	H	0.118624	0.591222	0.403619
	H63	H	0.883593	0.395582	0.404120
	H64	H	0.415391	0.585972	0.108078
	H65	H	0.589872	0.584446	0.877389
	H66	H	0.597430	0.416235	0.108537
	H67	H	0.411069	0.398542	0.872485
	H68	H	0.588547	0.111173	0.406478
	H69	H	0.597311	0.880084	0.588645
	H70	H	0.416441	0.114018	0.589844
	H71	H	0.412855	0.882912	0.400512
	H72	H	0.905450	0.620256	0.097971
	H73	H	0.086781	0.386070	0.078084
	H74	H	0.097754	0.615339	0.902466
	H75	H	0.908442	0.380742	0.894514
	H76	H	0.089359	0.899169	0.612781
	H77	H	0.093883	0.095486	0.373381
	H78	H	0.895543	0.089930	0.613954
	H79	H	0.908576	0.912512	0.375230
	H80	H	0.618189	0.088989	0.911117
	H81	H	0.388369	0.097791	0.076890
	H82	H	0.618930	0.912126	0.081086
	H83	H	0.384534	0.895157	0.901772
	H84	H	0.624651	0.904707	0.092370
	H85	H	0.388418	0.083316	0.089305
	H86	H	0.620370	0.082015	0.896914
	H87	H	0.389039	0.908516	0.905859
	H88	H	0.919474	0.083961	0.604219
	H89	H	0.102666	0.088803	0.373469
	H90	H	0.106019	0.909859	0.614553
	H91	H	0.917119	0.902579	0.375195
	H92	H	0.100085	0.616231	0.899950
	H93	H	0.105678	0.380619	0.077188
	H94	H	0.919321	0.611716	0.085029
	H95	H	0.911828	0.381771	0.896616
	H96	H	0.406884	0.114410	0.582940
	H97	H	0.593213	0.882889	0.581557
	H98	H	0.606796	0.117136	0.407151
	H99	H	0.408227	0.881279	0.400585
	H100	H	0.588323	0.403498	0.110265
	H101	H	0.594557	0.597208	0.872275
	H102	H	0.413705	0.599571	0.112678
	H103	H	0.408745	0.406366	0.874123
	H104	H	0.120694	0.590888	0.396598
	H105	H	0.886453	0.585836	0.591052
	H106	H	0.121685	0.415612	0.592730
	H107	H	0.888356	0.412114	0.403353
	H108	H	0.900447	0.615642	0.078892
	H109	H	0.095644	0.378318	0.093723
	H110	H	0.096413	0.616528	0.899419
	H111	H	0.908896	0.381411	0.898594
	H112	H	0.089315	0.918891	0.606545
	H113	H	0.092792	0.084946	0.376763
	H114	H	0.914282	0.108839	0.613191
	H115	H	0.905503	0.900403	0.370917
	H116	H	0.624601	0.097577	0.898930
	H117	H	0.382541	0.100749	0.095218
	H118	H	0.622445	0.898253	0.079508
	H119	H	0.385314	0.904910	0.892796
	C120	C	0.380825	0.007174	0.616461
	C121	C	0.625572	0.989470	0.614628
	C122	C	0.625976	0.007467	0.370917
	C123	C	0.382097	0.990109	0.371617
	C124	C	0.625320	0.376996	0.001532
	C125	C	0.624276	0.619015	0.983727
	C126	C	0.382698	0.619601	0.001746
	C127	C	0.382680	0.376354	0.983515
	C128	C	0.011139	0.620654	0.371798
	C129	C	0.993144	0.624096	0.615364
	C130	C	0.011686	0.380076	0.611425
	C131	C	0.992928	0.375655	0.369211
	C132	C	0.880228	0.507258	0.114575
	C133	C	0.124371	0.489928	0.113227
	C134	C	0.125912	0.507900	0.869692
	C135	C	0.881538	0.490464	0.870442
	C136	C	0.124056	0.878778	0.501837
	C137	C	0.124363	0.120627	0.483757
	C138	C	0.881280	0.121350	0.501002
	C139	C	0.881454	0.878309	0.483227
	C140	C	0.512817	0.118127	0.873330
	C141	C	0.495142	0.121836	0.116090
	C142	C	0.513193	0.877113	0.113644
	C143	C	0.494859	0.874813	0.870930
	C144	C	0.384447	0.882897	0.668290
	C145	C	0.621533	0.112859	0.671575
	C146	C	0.622989	0.884071	0.314568
	C147	C	0.385137	0.113357	0.318250
	C148	C	0.679240	0.377765	0.876472
	C149	C	0.678602	0.617623	0.108329
	C150	C	0.328569	0.615420	0.876688
	C151	C	0.326360	0.380064	0.108031
	C152	C	0.887768	0.675536	0.374279
	C153	C	0.116457	0.679368	0.613839
	C154	C	0.888252	0.324557	0.610567
	C155	C	0.116004	0.319643	0.369057
	C156	C	0.887414	0.384471	0.665616
	C157	C	0.116978	0.620626	0.669259
	C158	C	0.886843	0.615783	0.318660
	C159	C	0.116862	0.379064	0.314233
	C160	C	0.384990	0.672904	0.877112
	C161	C	0.622620	0.675431	0.108170
	C162	C	0.623575	0.319462	0.877655
	C163	C	0.384583	0.323952	0.108785
	C164	C	0.680462	0.884249	0.371738
	C165	C	0.679806	0.113212	0.614566
	C166	C	0.324493	0.884360	0.613163
	C167	C	0.326483	0.112872	0.374670
	C168	C	0.883512	0.383516	0.167651
	C169	C	0.121243	0.613406	0.169825
	C170	C	0.122178	0.384813	0.812063
	C171	C	0.884988	0.614746	0.819076
	C172	C	0.180132	0.878484	0.377635
	C173	C	0.179280	0.121044	0.608260
	C174	C	0.826479	0.117232	0.376572
	C175	C	0.826712	0.882730	0.608286
	C176	C	0.389522	0.173641	0.874977
	C177	C	0.618412	0.177246	0.115242
	C178	C	0.389930	0.821994	0.113220
	C179	C	0.618087	0.819035	0.871966
	C180	C	0.388978	0.881692	0.167727
	C181	C	0.618929	0.117956	0.170374
	C182	C	0.388985	0.114715	0.819287
	C183	C	0.618556	0.877409	0.815816
	C184	C	0.883784	0.173915	0.376052
	C185	C	0.121987	0.178740	0.607659
	C186	C	0.122569	0.821874	0.377487
	C187	C	0.883282	0.825766	0.608223
	C188	C	0.181097	0.384539	0.868975
	C189	C	0.180757	0.612865	0.113803
	C190	C	0.825555	0.383916	0.110922
	C191	C	0.826024	0.613354	0.874567
	C192	C	0.403142	0.092876	0.595176
	C193	C	0.603854	0.903415	0.590790
	C194	C	0.603791	0.093476	0.394438
	C195	C	0.404162	0.903965	0.392806
	C196	C	0.603070	0.400516	0.088481
	C197	C	0.602424	0.595979	0.896490
	C198	C	0.404277	0.598396	0.088826
	C199	C	0.405217	0.396972	0.896652
	C200	C	0.097763	0.599307	0.393911
	C201	C	0.906490	0.602722	0.593764
	C202	C	0.097775	0.402031	0.588601
	C203	C	0.906715	0.397767	0.392281
	C204	C	0.901911	0.593590	0.093549
	C205	C	0.102783	0.404240	0.089633
	C206	C	0.104476	0.593778	0.893653
	C207	C	0.903368	0.403822	0.890404
	C208	C	0.101597	0.902417	0.588746
	C209	C	0.102753	0.096812	0.396996
	C210	C	0.903375	0.100427	0.587929
	C211	C	0.903825	0.899041	0.396195
	C212	C	0.598806	0.096103	0.895728
	C213	C	0.408955	0.100361	0.093815
	C214	C	0.599712	0.898574	0.090930
	C215	C	0.408650	0.896410	0.893477
	Zn216	Zn	0.503667	-0.003125	0.743934
	Zn217	Zn	0.504044	-0.001655	0.242232
	Zn218	Zn	0.752523	0.498327	-0.008367
	Zn219	Zn	0.254811	0.498360	-0.007880
	Zn220	Zn	0.002653	0.750960	0.492839
	Zn221	Zn	0.002624	0.249228	0.491253
	Zn222	Zn	0.002766	0.500885	0.741320
	Zn223	Zn	0.002243	0.498418	0.242762
	Zn224	Zn	0.503578	0.747520	-0.006967
	Zn225	Zn	0.504395	0.248946	-0.006100
	Zn226	Zn	0.753982	-0.000736	0.492235
	Zn227	Zn	0.252884	-0.001138	0.493388
	N228	N	0.418689	0.960089	0.670573
	N229	N	0.588461	0.034985	0.671569
	N230	N	0.589672	0.961761	0.313949
	N231	N	0.418971	0.035908	0.316198
	N232	N	0.680436	0.412846	0.954614
	N233	N	0.679668	0.582864	0.029924
	N234	N	0.327016	0.583025	0.955227
	N235	N	0.324934	0.412006	0.029282
	N236	N	0.966178	0.678674	0.406507
	N237	N	0.038415	0.681509	0.580977
	N238	N	0.966465	0.321653	0.577761
	N239	N	0.037999	0.317753	0.402662
	N240	N	0.965125	0.418392	0.666129
	N241	N	0.039329	0.586975	0.670569
	N242	N	0.964733	0.582704	0.316845
	N243	N	0.039272	0.412996	0.313940
	N244	N	0.417791	0.675752	0.955939
	N245	N	0.589428	0.676362	0.029618
	N246	N	0.590801	0.318811	0.956485
	N247	N	0.418754	0.321301	0.030442
	N248	N	0.682300	0.962058	0.406163
	N249	N	0.682549	0.035511	0.579842
	N250	N	0.321819	0.962757	0.581870
	N251	N	0.324494	0.035085	0.407093
	N252	N	0.916878	0.461258	0.170082
	N253	N	0.087073	0.536258	0.169666
	N254	N	0.088565	0.462428	0.812455
	N255	N	0.918876	0.537205	0.816282
	N256	N	0.180882	0.913265	0.456009
	N257	N	0.181044	0.085666	0.530290
	N258	N	0.824624	0.085249	0.455356
	N259	N	0.825397	0.914833	0.529490
	N260	N	0.467439	0.175935	0.908221
	N261	N	0.540381	0.179959	0.082227
	N262	N	0.468147	0.819031	0.080511
	N263	N	0.540159	0.817331	0.905756
	N264	N	0.466679	0.915492	0.167981
	N265	N	0.541275	0.084521	0.171384
	N266	N	0.466542	0.080801	0.818227
	N267	N	0.541081	0.911324	0.815153
	N268	N	0.917149	0.176755	0.454388
	N269	N	0.088818	0.178663	0.529103
	N270	N	0.088377	0.821930	0.455836
	N271	N	0.916845	0.822887	0.529650
	N272	N	0.183498	0.462057	0.904097
	N273	N	0.182904	0.535099	0.079144
	N274	N	0.823434	0.461750	0.078575
	N275	N	0.823776	0.534975	0.905833
	O276	O	1.001081	0.998693	-0.022795
	H277	H	1.004255	1.008955	-0.012143
	H278	H	1.006111	1.002944	-0.030064
	O279	O	0.045013	-0.046754	1.040083
	H280	H	0.046587	-0.051848	1.038921
	H281	H	0.044436	-0.042983	1.047469
	O282	O	-0.009504	-0.026838	-0.076873
	H283	H	-0.006908	-0.017337	-0.073929
	H284	H	-0.017261	-0.023751	-0.077807
	O285	O	0.501901	0.400659	0.431223
	H286	H	0.499280	0.389186	0.431593
	H287	H	0.492827	0.400091	0.429399
	O288	O	-0.038687	0.041188	-0.050197
	H289	H	-0.044543	0.040785	-0.050902
	H290	H	-0.050191	0.041854	-0.038425
	O291	O	0.056277	1.073776	0.017262
	H292	H	0.060269	1.068411	0.011513
	H293	H	0.053529	1.066442	0.007856
	O294	O	0.054071	0.986740	-0.025335
	H295	H	0.063419	0.988235	-0.019986
	H296	H	0.046097	0.987019	-0.015365
	O297	O	0.535091	0.415612	0.428551
	H298	H	0.534007	0.417081	0.423304
	H299	H	0.534305	0.405187	0.427949
	O300	O	0.495254	0.425972	0.464095
	H301	H	0.484163	0.437187	0.451358
	H302	H	0.492567	0.427287	0.474347
	O303	O	1.048859	0.025025	0.998151
	H304	H	1.045097	0.017529	0.998324
	H305	H	1.063909	0.020849	0.992693
	O306	O	0.023388	1.040579	1.052828
	H307	H	0.024405	1.046495	1.045512
	H308	H	0.026920	1.044099	1.046234
	O309	O	0.005809	0.980835	0.936738
	H310	H	0.015906	0.980259	0.932567
	H311	H	0.013296	0.984674	0.934363
	O312	O	0.108920	-0.002959	0.965773
	H313	H	0.099749	-0.016531	0.968614
	H314	H	0.107756	-0.004837	0.962678
	O315	O	0.457608	0.494664	0.499610
	H316	H	0.469397	0.501732	0.501768
	H317	H	0.452831	0.491927	0.502576
	O318	O	0.046114	-0.026652	0.977579
	H319	H	0.049137	-0.023839	0.974848
	H320	H	0.040118	-0.017039	0.985965
	O321	O	-0.037188	1.054530	1.009236
	H322	H	-0.034264	1.052352	1.007848
	H323	H	-0.023884	1.059775	1.007723
	O324	O	1.068184	-0.062693	0.945188
	H325	H	1.075378	-0.062860	0.945324
	H326	H	1.072364	-0.065843	0.946053
	O327	O	1.048766	0.954227	1.007326
	H328	H	1.051913	0.950673	1.010976
	H329	H	1.034594	0.946866	1.011565
	O330	O	0.661723	0.271351	0.677695
	H331	H	0.672970	0.273308	0.672785
	H332	H	0.661389	0.269321	0.680480
	O333	O	0.491249	0.420630	0.462409
	H334	H	0.483291	0.424714	0.459615
	H335	H	0.491403	0.420290	0.458604
	O336	O	0.505079	0.453428	0.421637
	H337	H	0.506741	0.454650	0.418142
	H338	H	0.504203	0.462111	0.422570
	O339	O	0.512643	0.489275	0.520079
	H340	H	0.524906	0.484325	0.521611
	H341	H	0.514333	0.494382	0.519444
	O342	O	0.462812	0.510475	0.565529
	H343	H	0.473120	0.512594	0.568552
	H344	H	0.454340	0.513749	0.569187
	O345	O	0.487237	0.464842	0.463367
	H346	H	0.494023	0.455314	0.472505
	H347	H	0.493452	0.458554	0.463155
