data_Molecule from HDF5

_cell_length_a		16.280245
_cell_length_b		16.241190
_cell_length_c		16.228158
_cell_angle_alpha	90.101965
_cell_angle_beta	89.900592
_cell_angle_gamma	90.304709
_symmetry_space_group_name_H-M	'P 1'
_symmetry_Int_Tables_number		1

loop_
	_symmetry_equiv_pos_as_xyz
	x,y,z

loop_
	_atom_site_label
	_atom_site_type_symbol
	_atom_site_fract_x
	_atom_site_fract_y
	_atom_site_fract_z
	H0	H	0.416861	0.830125	0.715796
	H1	H	0.615222	0.159058	0.718046
	H2	H	0.612967	0.830920	0.290017
	H3	H	0.420683	0.159418	0.289189
	H4	H	0.731978	0.394324	0.839690
	H5	H	0.731694	0.594900	0.167060
	H6	H	0.302915	0.592672	0.839539
	H7	H	0.300862	0.394687	0.167131
	H8	H	0.853372	0.708390	0.404579
	H9	H	0.180112	0.710853	0.601719
	H10	H	0.853021	0.279897	0.601443
	H11	H	0.180378	0.282033	0.403292
	H12	H	0.852815	0.395041	0.718400
	H13	H	0.179718	0.596289	0.718306
	H14	H	0.852814	0.593035	0.289720
	H15	H	0.180300	0.398533	0.287615
	H16	H	0.418791	0.706736	0.839332
	H17	H	0.615280	0.709648	0.167180
	H18	H	0.613907	0.280358	0.838937
	H19	H	0.417566	0.280311	0.168245
	H20	H	0.729761	0.832047	0.404223
	H21	H	0.730766	0.159849	0.601054
	H22	H	0.299766	0.831922	0.602047
	H23	H	0.304344	0.159976	0.404392
	H24	H	0.915301	0.331900	0.217847
	H25	H	0.114905	0.659984	0.215103
	H26	H	0.113657	0.331063	0.787257
	H27	H	0.920534	0.660075	0.790721
	H28	H	0.230643	0.898211	0.338805
	H29	H	0.232561	0.096993	0.666882
	H30	H	0.803528	0.094251	0.338828
	H31	H	0.800561	0.895900	0.666020
	H32	H	0.352184	0.206879	0.905172
	H33	H	0.680041	0.208789	0.100993
	H34	H	0.352614	0.779616	0.101209
	H35	H	0.680052	0.781189	0.904732
	H36	H	0.353061	0.894878	0.217972
	H37	H	0.680277	0.093876	0.216062
	H38	H	0.352072	0.090630	0.789626
	H39	H	0.679304	0.895303	0.787881
	H40	H	0.919377	0.209084	0.338843
	H41	H	0.116229	0.212006	0.667146
	H42	H	0.115758	0.781675	0.339089
	H43	H	0.917790	0.781438	0.666750
	H44	H	0.230718	0.330021	0.903049
	H45	H	0.232642	0.657815	0.101271
	H46	H	0.801232	0.331093	0.101032
	H47	H	0.801752	0.657906	0.903516
	H48	H	0.428072	0.110943	0.597729
	H49	H	0.595736	0.884625	0.587602
	H50	H	0.611236	0.115021	0.404124
	H51	H	0.426051	0.879681	0.409911
	H52	H	0.604381	0.402018	0.118700
	H53	H	0.599705	0.594802	0.886751
	H54	H	0.428037	0.587691	0.119727
	H55	H	0.414849	0.406789	0.885336
	H56	H	0.137968	0.599195	0.405781
	H57	H	0.895743	0.596887	0.601511
	H58	H	0.134210	0.403308	0.599509
	H59	H	0.905635	0.405892	0.424408
	H60	H	0.132650	0.400754	0.590166
	H61	H	0.902201	0.589228	0.586303
	H62	H	0.129688	0.587527	0.418808
	H63	H	0.899798	0.412506	0.399210
	H64	H	0.420514	0.589723	0.121857
	H65	H	0.621901	0.591386	0.881592
	H66	H	0.610421	0.397127	0.122238
	H67	H	0.432885	0.404282	0.890148
	H68	H	0.607332	0.111693	0.411035
	H69	H	0.623067	0.876418	0.585778
	H70	H	0.426080	0.110557	0.592562
	H71	H	0.420883	0.878942	0.413283
	H72	H	0.926125	0.611640	0.097007
	H73	H	0.114596	0.374109	0.101409
	H74	H	0.102322	0.609053	0.910422
	H75	H	0.925977	0.376577	0.903550
	H76	H	0.104993	0.904912	0.618104
	H77	H	0.117511	0.084329	0.385730
	H78	H	0.920777	0.089844	0.621002
	H79	H	0.931704	0.894479	0.385508
	H80	H	0.633589	0.087557	0.906979
	H81	H	0.399437	0.084174	0.096870
	H82	H	0.634638	0.892853	0.091419
	H83	H	0.396133	0.898030	0.900630
	H84	H	0.629134	0.909551	0.089975
	H85	H	0.399577	0.087652	0.098106
	H86	H	0.632885	0.090134	0.911348
	H87	H	0.398067	0.892175	0.914827
	H88	H	0.922856	0.085088	0.619238
	H89	H	0.104275	0.085037	0.389337
	H90	H	0.109173	0.899968	0.621478
	H91	H	0.913762	0.900050	0.382283
	H92	H	0.116445	0.610543	0.918054
	H93	H	0.099341	0.378900	0.099091
	H94	H	0.922863	0.612196	0.093151
	H95	H	0.927346	0.380749	0.915004
	H96	H	0.422584	0.112651	0.597197
	H97	H	0.609008	0.874586	0.610562
	H98	H	0.615402	0.113405	0.411485
	H99	H	0.421125	0.877092	0.407334
	H100	H	0.612490	0.404891	0.120153
	H101	H	0.609361	0.574457	0.890050
	H102	H	0.422611	0.582094	0.119988
	H103	H	0.422466	0.390143	0.883935
	H104	H	0.133445	0.581389	0.401506
	H105	H	0.900791	0.579603	0.601443
	H106	H	0.130291	0.410369	0.593480
	H107	H	0.895032	0.387215	0.407817
	H108	H	0.921133	0.613462	0.097979
	H109	H	0.110476	0.380407	0.087149
	H110	H	0.115451	0.615151	0.902802
	H111	H	0.916516	0.376559	0.910662
	H112	H	0.112463	0.906989	0.620036
	H113	H	0.110162	0.096146	0.383999
	H114	H	0.927023	0.089357	0.620528
	H115	H	0.925716	0.912922	0.389544
	H116	H	0.631968	0.085052	0.911007
	H117	H	0.399997	0.086987	0.094745
	H118	H	0.635477	0.903141	0.105861
	H119	H	0.402105	0.907657	0.911164
	C120	C	0.395174	0.003455	0.624450
	C121	C	0.638375	0.986701	0.624200
	C122	C	0.638502	0.004554	0.380955
	C123	C	0.395153	0.987067	0.381274
	C124	C	0.637777	0.373057	0.011728
	C125	C	0.638477	0.615979	0.994668
	C126	C	0.395570	0.615098	0.012034
	C127	C	0.394721	0.371987	0.995223
	C128	C	0.025217	0.617387	0.380895
	C129	C	1.007830	0.617959	0.625127
	C130	C	0.024790	0.374591	0.623827
	C131	C	1.008216	0.374017	0.381156
	C132	C	0.894333	0.504175	0.124466
	C133	C	0.137768	0.486272	0.124135
	C134	C	0.139072	0.503046	0.881141
	C135	C	0.895357	0.486505	0.881496
	C136	C	0.138058	0.875315	0.511566
	C137	C	0.139593	0.118083	0.494512
	C138	C	0.895921	0.116453	0.511573
	C139	C	0.894764	0.873573	0.494032
	C140	C	0.524404	0.115535	0.881599
	C141	C	0.507753	0.115695	0.124388
	C142	C	0.524614	0.872953	0.124062
	C143	C	0.507362	0.871456	0.880860
	C144	C	0.396961	0.879499	0.678290
	C145	C	0.635944	0.110121	0.680159
	C146	C	0.634110	0.880172	0.327036
	C147	C	0.399208	0.110473	0.326700
	C148	C	0.693532	0.374811	0.888496
	C149	C	0.693508	0.614557	0.118083
	C150	C	0.340953	0.612643	0.888344
	C151	C	0.339132	0.374797	0.118653
	C152	C	0.902414	0.671645	0.383629
	C153	C	0.131052	0.673206	0.622335
	C154	C	0.901825	0.317993	0.622138
	C155	C	0.131449	0.319486	0.382714
	C156	C	0.901630	0.375538	0.679872
	C157	C	0.130989	0.616037	0.679941
	C158	C	0.901981	0.613945	0.326600
	C159	C	0.131394	0.377332	0.325368
	C160	C	0.398398	0.669559	0.888299
	C161	C	0.635623	0.671464	0.118201
	C162	C	0.634775	0.318251	0.887985
	C163	C	0.396879	0.317760	0.119126
	C164	C	0.692584	0.881026	0.383463
	C165	C	0.692862	0.110767	0.621648
	C166	C	0.338472	0.880437	0.622105
	C167	C	0.341068	0.110559	0.383650
	C168	C	0.895911	0.380423	0.179340
	C169	C	0.135598	0.610342	0.178177
	C170	C	0.135227	0.379841	0.824991
	C171	C	0.899090	0.610629	0.827767
	C172	C	0.193009	0.877693	0.387781
	C173	C	0.194717	0.116924	0.617996
	C174	C	0.841197	0.114497	0.387812
	C175	C	0.839336	0.876014	0.617461
	C176	C	0.401152	0.169615	0.884516
	C177	C	0.631235	0.171005	0.121354
	C178	C	0.401617	0.817362	0.121723
	C179	C	0.630891	0.817906	0.883691
	C180	C	0.401874	0.874710	0.179756
	C181	C	0.631332	0.113897	0.178672
	C182	C	0.400849	0.111668	0.827240
	C183	C	0.630573	0.875028	0.825844
	C184	C	0.899018	0.171243	0.387770
	C185	C	0.136817	0.173929	0.618064
	C186	C	0.135931	0.819820	0.387901
	C187	C	0.897380	0.818773	0.617620
	C188	C	0.193284	0.379421	0.882698
	C189	C	0.193991	0.609322	0.121527
	C190	C	0.839095	0.380270	0.121730
	C191	C	0.840202	0.609526	0.883834
	C192	C	0.418811	0.089216	0.602293
	C193	C	0.615899	0.900881	0.601451
	C194	C	0.617539	0.090981	0.402454
	C195	C	0.416502	0.900812	0.403445
	C196	C	0.615738	0.395057	0.098130
	C197	C	0.616623	0.593489	0.908452
	C198	C	0.417359	0.593046	0.098125
	C199	C	0.417020	0.393832	0.908980
	C200	C	0.111548	0.595708	0.402331
	C201	C	0.921765	0.595157	0.602944
	C202	C	0.110213	0.397961	0.601064
	C203	C	0.922399	0.395542	0.403853
	C204	C	0.916498	0.590258	0.102532
	C205	C	0.114877	0.400095	0.102351
	C206	C	0.117831	0.589289	0.903718
	C207	C	0.916908	0.400247	0.903249
	C208	C	0.115532	0.897568	0.597710
	C209	C	0.117254	0.095242	0.408775
	C210	C	0.917367	0.094490	0.597915
	C211	C	0.916974	0.895953	0.407861
	C212	C	0.610428	0.093779	0.903267
	C213	C	0.421808	0.093017	0.102808
	C214	C	0.610921	0.895150	0.102005
	C215	C	0.420901	0.892738	0.902564
	Zn216	Zn	0.516305	-0.006023	0.752902
	Zn217	Zn	0.516846	-0.004917	0.252939
	Zn218	Zn	0.766315	0.494795	0.003309
	Zn219	Zn	0.267216	0.494012	0.003195
	Zn220	Zn	0.016881	0.745451	0.502664
	Zn221	Zn	0.016709	0.244981	0.502709
	Zn222	Zn	0.016574	0.495698	0.752936
	Zn223	Zn	0.015902	0.495417	0.252350
	Zn224	Zn	0.516360	0.743643	0.002739
	Zn225	Zn	0.516340	0.244112	0.003569
	Zn226	Zn	0.767206	-0.003765	0.502510
	Zn227	Zn	0.267061	-0.004107	0.503314
	N228	N	0.431523	0.956948	0.680089
	N229	N	0.602616	0.032017	0.681697
	N230	N	0.601171	0.957983	0.325318
	N231	N	0.431879	0.032650	0.324932
	N232	N	0.695467	0.408020	0.966565
	N233	N	0.695402	0.580836	0.040344
	N234	N	0.338942	0.579523	0.966323
	N235	N	0.337568	0.407623	0.040606
	N236	N	0.980109	0.673747	0.416810
	N237	N	0.053453	0.674215	0.588788
	N238	N	0.979177	0.317196	0.588043
	N239	N	0.054005	0.317200	0.416655
	N240	N	0.978913	0.410258	0.680863
	N241	N	0.053277	0.582280	0.681834
	N242	N	0.979518	0.580730	0.324893
	N243	N	0.053702	0.410187	0.324033
	N244	N	0.431870	0.671096	0.965966
	N245	N	0.601870	0.672379	0.040428
	N246	N	0.600751	0.317115	0.965614
	N247	N	0.430685	0.315873	0.041405
	N248	N	0.695194	0.959084	0.416413
	N249	N	0.694781	0.033162	0.587882
	N250	N	0.337337	0.958539	0.589414
	N251	N	0.338609	0.032729	0.417002
	N252	N	0.929683	0.458270	0.181178
	N253	N	0.101221	0.532764	0.179983
	N254	N	0.102117	0.457667	0.824092
	N255	N	0.932461	0.533135	0.826078
	N256	N	0.194362	0.911512	0.465548
	N257	N	0.196447	0.082949	0.540338
	N258	N	0.839150	0.081218	0.465636
	N259	N	0.837497	0.909265	0.539466
	N260	N	0.478917	0.172240	0.917528
	N261	N	0.553472	0.172107	0.088300
	N262	N	0.479098	0.816297	0.087956
	N263	N	0.553278	0.815570	0.917080
	N264	N	0.479486	0.908703	0.181218
	N265	N	0.553704	0.080098	0.180774
	N266	N	0.478554	0.078815	0.825302
	N267	N	0.552539	0.907497	0.823737
	N268	N	0.932160	0.172617	0.465724
	N269	N	0.103161	0.174821	0.540363
	N270	N	0.102169	0.818231	0.465704
	N271	N	0.931191	0.817412	0.539978
	N272	N	0.195519	0.456988	0.916883
	N273	N	0.195412	0.531170	0.088772
	N274	N	0.838057	0.458039	0.088285
	N275	N	0.837753	0.531346	0.916510
	O276	O	0.524228	0.486014	0.583631
	H277	H	0.525830	0.480527	0.579999
	H278	H	0.521544	0.477395	0.581221
	O279	O	-0.482618	0.463960	-0.415563
	H280	H	-0.481956	0.468370	-0.414241
	H281	H	-0.477730	0.471706	-0.410808
	O282	O	0.475301	0.462947	0.574059
	H283	H	0.478218	0.465947	0.578716
	H284	H	0.473416	0.468837	0.572897
	O285	O	-0.015001	1.040611	1.026302
	H286	H	-0.019368	1.040977	1.027430
	H287	H	-0.007261	1.041196	1.027061
	O288	O	0.999928	0.035134	0.011359
	H289	H	0.994250	0.034057	0.009960
	H290	H	0.990403	0.032058	0.013640
	O291	O	-1.058096	1.067858	-1.021116
	H292	H	-1.051849	1.071887	-1.017937
	H293	H	-1.053501	1.064303	-1.019541
	O294	O	0.482582	0.499805	0.603632
	H295	H	0.485247	0.500600	0.605261
	H296	H	0.482256	0.506847	0.609267
	O297	O	-0.003355	1.032694	0.009098
	H298	H	-0.000370	1.026407	0.003109
	H299	H	-0.000746	1.031240	0.008739
	O300	O	1.001204	0.055019	0.976905
	H301	H	1.008887	0.068543	0.973103
	H302	H	0.996513	0.055621	0.982950
	O303	O	0.487079	0.469372	0.559280
	H304	H	0.486172	0.470331	0.557423
	H305	H	0.482091	0.462359	0.569757
	O306	O	-0.067505	1.064043	1.022459
	H307	H	-0.069351	1.071778	1.022792
	H308	H	-0.070907	1.066654	1.018695
	O309	O	0.500230	0.453201	0.586317
	H310	H	0.500612	0.447266	0.582699
	H311	H	0.497120	0.451913	0.594027
