data_Molecule from HDF5

_cell_length_a		16.189253
_cell_length_b		16.177130
_cell_length_c		16.376548
_cell_angle_alpha	89.897284
_cell_angle_beta	89.906748
_cell_angle_gamma	89.996828
_symmetry_space_group_name_H-M	'P 1'
_symmetry_Int_Tables_number		1

loop_
	_symmetry_equiv_pos_as_xyz
	x,y,z

loop_
	_atom_site_label
	_atom_site_type_symbol
	_atom_site_fract_x
	_atom_site_fract_y
	_atom_site_fract_z
	H0	H	0.411759	0.836730	0.724019
	H1	H	0.614116	0.162603	0.724084
	H2	H	0.613239	0.835874	0.292701
	H3	H	0.411481	0.163213	0.291088
	H4	H	0.728212	0.401126	0.845176
	H5	H	0.726585	0.596105	0.171840
	H6	H	0.297684	0.598945	0.845020
	H7	H	0.297257	0.400797	0.171169
	H8	H	0.847940	0.712933	0.411478
	H9	H	0.177072	0.712297	0.604659
	H10	H	0.848378	0.286130	0.606520
	H11	H	0.177660	0.287440	0.410876
	H12	H	0.849133	0.398577	0.724425
	H13	H	0.176310	0.600941	0.723128
	H14	H	0.848824	0.600698	0.293210
	H15	H	0.176604	0.399711	0.292811
	H16	H	0.413581	0.714686	0.844924
	H17	H	0.611439	0.714623	0.171344
	H18	H	0.610918	0.286241	0.844659
	H19	H	0.414096	0.284503	0.170732
	H20	H	0.727224	0.835560	0.410244
	H21	H	0.723789	0.165805	0.603846
	H22	H	0.299154	0.835643	0.605979
	H23	H	0.301433	0.165373	0.411201
	H24	H	0.912029	0.335825	0.224795
	H25	H	0.113852	0.664006	0.223547
	H26	H	0.113609	0.336684	0.791911
	H27	H	0.912158	0.663614	0.791959
	H28	H	0.227738	0.902567	0.345366
	H29	H	0.227173	0.097931	0.670750
	H30	H	0.797230	0.099542	0.345296
	H31	H	0.797021	0.900855	0.670940
	H32	H	0.348480	0.212279	0.911348
	H33	H	0.678203	0.210223	0.103866
	H34	H	0.347345	0.787291	0.104379
	H35	H	0.677329	0.788245	0.911554
	H36	H	0.348997	0.899031	0.223383
	H37	H	0.675819	0.099899	0.223312
	H38	H	0.349605	0.100993	0.792377
	H39	H	0.676637	0.900105	0.792856
	H40	H	0.914523	0.215981	0.345288
	H41	H	0.110271	0.213960	0.671030
	H42	H	0.112627	0.784785	0.345221
	H43	H	0.913073	0.784904	0.670877
	H44	H	0.225579	0.334982	0.910714
	H45	H	0.226090	0.665079	0.104918
	H46	H	0.800011	0.334234	0.105629
	H47	H	0.800357	0.665436	0.911568
	H48	H	0.421893	0.117015	0.598570
	H49	H	0.588555	0.884087	0.611281
	H50	H	0.600834	0.116805	0.412473
	H51	H	0.424587	0.884087	0.415331
	H52	H	0.606336	0.395236	0.127156
	H53	H	0.600584	0.595963	0.893569
	H54	H	0.415148	0.590050	0.123909
	H55	H	0.417874	0.409131	0.892357
	H56	H	0.130120	0.593556	0.416283
	H57	H	0.897044	0.590136	0.598188
	H58	H	0.131479	0.403988	0.603533
	H59	H	0.896693	0.415490	0.413508
	H60	H	0.128337	0.407404	0.596235
	H61	H	0.894400	0.588690	0.605022
	H62	H	0.128902	0.589090	0.414797
	H63	H	0.893040	0.403488	0.410870
	H64	H	0.423230	0.590258	0.121573
	H65	H	0.611173	0.597127	0.890294
	H66	H	0.615291	0.409753	0.125467
	H67	H	0.422858	0.407533	0.893566
	H68	H	0.604735	0.116476	0.418131
	H69	H	0.604037	0.887549	0.583074
	H70	H	0.416453	0.119377	0.602249
	H71	H	0.418310	0.883107	0.417647
	H72	H	0.914230	0.619224	0.102014
	H73	H	0.103776	0.381584	0.109031
	H74	H	0.106866	0.617117	0.916628
	H75	H	0.914728	0.381283	0.916040
	H76	H	0.101799	0.900657	0.624830
	H77	H	0.098041	0.097627	0.393519
	H78	H	0.913391	0.091344	0.624873
	H79	H	0.920387	0.897898	0.389862
	H80	H	0.633037	0.084597	0.900225
	H81	H	0.397448	0.080631	0.104134
	H82	H	0.629085	0.917096	0.107881
	H83	H	0.394763	0.909989	0.911073
	H84	H	0.634458	0.897099	0.105079
	H85	H	0.390796	0.099500	0.106556
	H86	H	0.634774	0.106502	0.914602
	H87	H	0.394217	0.904375	0.914258
	H88	H	0.922350	0.090685	0.622147
	H89	H	0.114081	0.100196	0.387326
	H90	H	0.112790	0.906518	0.625416
	H91	H	0.912017	0.913184	0.391392
	H92	H	0.106437	0.618218	0.911614
	H93	H	0.098783	0.385472	0.098011
	H94	H	0.925218	0.617151	0.106128
	H95	H	0.924862	0.382181	0.909117
	H96	H	0.422677	0.118115	0.604935
	H97	H	0.620078	0.875565	0.608806
	H98	H	0.607125	0.118076	0.412560
	H99	H	0.419669	0.880067	0.411079
	H100	H	0.598530	0.409386	0.121099
	H101	H	0.607447	0.587684	0.894263
	H102	H	0.420136	0.597085	0.125386
	H103	H	0.419038	0.403657	0.891023
	H104	H	0.130821	0.592350	0.412264
	H105	H	0.893851	0.595180	0.601788
	H106	H	0.129919	0.412215	0.603928
	H107	H	0.897037	0.406386	0.422513
	H108	H	0.922846	0.614406	0.095069
	H109	H	0.110559	0.381937	0.098344
	H110	H	0.102049	0.617330	0.914190
	H111	H	0.924585	0.385032	0.921091
	H112	H	0.102802	0.912826	0.621159
	H113	H	0.109782	0.084838	0.393434
	H114	H	0.919299	0.099066	0.625597
	H115	H	0.928085	0.911640	0.395830
	H116	H	0.624578	0.084389	0.925379
	H117	H	0.398230	0.093369	0.089609
	H118	H	0.625976	0.908406	0.089601
	H119	H	0.395588	0.909552	0.917356
	C120	C	0.391572	0.009053	0.629724
	C121	C	0.633359	0.991183	0.629094
	C122	C	0.634044	0.008795	0.385917
	C123	C	0.391548	0.991200	0.386155
	C124	C	0.635016	0.377204	0.016332
	C125	C	0.634525	0.621377	1.000421
	C126	C	0.390772	0.621787	0.016063
	C127	C	0.390877	0.377708	0.999821
	C128	C	0.021464	0.621534	0.386024
	C129	C	1.003659	0.621140	0.629735
	C130	C	0.021290	0.378609	0.630159
	C131	C	1.004316	0.379375	0.387121
	C132	C	0.891652	0.507951	0.129751
	C133	C	0.133855	0.491527	0.129622
	C134	C	0.134351	0.508879	0.885909
	C135	C	0.891899	0.491472	0.886745
	C136	C	0.134973	0.877893	0.516305
	C137	C	0.135058	0.122322	0.499267
	C138	C	0.890409	0.122480	0.516519
	C139	C	0.890863	0.878475	0.500017
	C140	C	0.522182	0.120998	0.885706
	C141	C	0.503749	0.120423	0.128966
	C142	C	0.521476	0.878174	0.129369
	C143	C	0.503741	0.879052	0.886390
	C144	C	0.392694	0.885463	0.685098
	C145	C	0.632686	0.114496	0.684650
	C146	C	0.633128	0.885011	0.330625
	C147	C	0.392698	0.114626	0.330193
	C148	C	0.690598	0.380003	0.893900
	C149	C	0.689196	0.617928	0.122929
	C150	C	0.335147	0.619825	0.893810
	C151	C	0.335182	0.379957	0.122422
	C152	C	0.897444	0.676134	0.389838
	C153	C	0.127608	0.675681	0.626132
	C154	C	0.897668	0.323569	0.627148
	C155	C	0.128313	0.324788	0.390132
	C156	C	0.897949	0.379401	0.685826
	C157	C	0.127212	0.620015	0.684793
	C158	C	0.897976	0.620599	0.330945
	C159	C	0.127558	0.380524	0.331302
	C160	C	0.393211	0.677291	0.893717
	C161	C	0.631747	0.676529	0.122669
	C162	C	0.632315	0.322817	0.893592
	C163	C	0.393057	0.322226	0.122174
	C164	C	0.689697	0.884799	0.388945
	C165	C	0.687527	0.115818	0.625249
	C166	C	0.336880	0.884979	0.626473
	C167	C	0.337664	0.115622	0.389664
	C168	C	0.892689	0.384559	0.185886
	C169	C	0.132579	0.615336	0.184520
	C170	C	0.133351	0.385407	0.830509
	C171	C	0.892643	0.614951	0.830687
	C172	C	0.190197	0.881197	0.393895
	C173	C	0.189193	0.118798	0.622288
	C174	C	0.835310	0.120059	0.393801
	C175	C	0.834865	0.880217	0.622264
	C176	C	0.397987	0.175763	0.889443
	C177	C	0.628422	0.173877	0.125365
	C178	C	0.397006	0.823807	0.126155
	C179	C	0.627963	0.825044	0.890230
	C180	C	0.397866	0.879233	0.185303
	C181	C	0.627232	0.118860	0.184408
	C182	C	0.398627	0.120258	0.830453
	C183	C	0.627386	0.880479	0.831057
	C184	C	0.893450	0.177786	0.393792
	C185	C	0.131457	0.176661	0.622214
	C186	C	0.132854	0.822658	0.394069
	C187	C	0.892774	0.822584	0.622155
	C188	C	0.189054	0.384556	0.889253
	C189	C	0.188699	0.615731	0.125714
	C190	C	0.836850	0.383774	0.126867
	C191	C	0.836926	0.615850	0.889831
	C192	C	0.413772	0.095853	0.608138
	C193	C	0.610962	0.904799	0.607315
	C194	C	0.611102	0.094819	0.407922
	C195	C	0.414114	0.904799	0.408209
	C196	C	0.613005	0.398601	0.102255
	C197	C	0.612910	0.599886	0.914742
	C198	C	0.412969	0.599170	0.101472
	C199	C	0.413293	0.400137	0.914351
	C200	C	0.107620	0.598608	0.407959
	C201	C	0.917421	0.598178	0.608049
	C202	C	0.107561	0.401242	0.607925
	C203	C	0.917803	0.401782	0.409240
	C204	C	0.914086	0.594582	0.107429
	C205	C	0.111177	0.405288	0.108002
	C206	C	0.111793	0.595178	0.907658
	C207	C	0.914666	0.405228	0.908885
	C208	C	0.112534	0.900225	0.601895
	C209	C	0.113722	0.100587	0.413576
	C210	C	0.912035	0.100454	0.602030
	C211	C	0.913587	0.901034	0.414490
	C212	C	0.608658	0.098559	0.907217
	C213	C	0.417620	0.097888	0.106739
	C214	C	0.607600	0.900820	0.107325
	C215	C	0.417119	0.901442	0.907906
	Zn216	Zn	0.512772	0.000128	0.757689
	Zn217	Zn	0.512540	-0.000375	0.257730
	Zn218	Zn	0.763973	0.499499	0.008231
	Zn219	Zn	0.261765	0.499618	0.007809
	Zn220	Zn	0.012754	0.749046	0.508078
	Zn221	Zn	0.013268	0.251432	0.508221
	Zn222	Zn	0.012749	0.499734	0.758162
	Zn223	Zn	0.012486	0.500429	0.258285
	Zn224	Zn	0.512423	0.750722	0.007920
	Zn225	Zn	0.513075	0.248384	0.007893
	Zn226	Zn	0.761581	0.000290	0.508281
	Zn227	Zn	0.264144	0.000249	0.507833
	N228	N	0.425920	0.963668	0.687346
	N229	N	0.599903	0.036124	0.687243
	N230	N	0.599254	0.963037	0.328716
	N231	N	0.425616	0.036340	0.328128
	N232	N	0.692493	0.413006	0.971236
	N233	N	0.690781	0.584348	0.045950
	N234	N	0.333548	0.585991	0.970867
	N235	N	0.333781	0.413951	0.045337
	N236	N	0.975329	0.676814	0.423299
	N237	N	0.049896	0.676216	0.592361
	N238	N	0.975415	0.322964	0.593183
	N239	N	0.050662	0.324111	0.424275
	N240	N	0.975845	0.413026	0.687662
	N241	N	0.049130	0.586486	0.687162
	N242	N	0.975928	0.587058	0.328622
	N243	N	0.049310	0.413738	0.329315
	N244	N	0.426835	0.678717	0.970829
	N245	N	0.598584	0.678889	0.045222
	N246	N	0.598474	0.320988	0.970806
	N247	N	0.426904	0.320580	0.045022
	N248	N	0.690356	0.962545	0.422759
	N249	N	0.687929	0.038098	0.591129
	N250	N	0.336181	0.962882	0.592632
	N251	N	0.337001	0.037944	0.423983
	N252	N	0.925970	0.462867	0.187623
	N253	N	0.099146	0.537239	0.187069
	N254	N	0.100070	0.463669	0.828272
	N255	N	0.926324	0.536905	0.829038
	N256	N	0.191453	0.914815	0.470913
	N257	N	0.191738	0.085904	0.545038
	N258	N	0.833190	0.086573	0.471021
	N259	N	0.833532	0.914182	0.545206
	N260	N	0.475743	0.176321	0.923146
	N261	N	0.550615	0.175076	0.091588
	N262	N	0.474785	0.823026	0.092197
	N263	N	0.550048	0.823973	0.923854
	N264	N	0.476169	0.912308	0.187487
	N265	N	0.548742	0.086294	0.186769
	N266	N	0.476801	0.086892	0.828161
	N267	N	0.549039	0.913182	0.828477
	N268	N	0.926870	0.179541	0.471005
	N269	N	0.098422	0.178883	0.544772
	N270	N	0.099234	0.820592	0.471344
	N271	N	0.927057	0.821621	0.545170
	N272	N	0.189650	0.462161	0.923251
	N273	N	0.189613	0.537748	0.092377
	N274	N	0.836234	0.461460	0.092615
	N275	N	0.836374	0.538162	0.924148
	O276	O	0.471704	0.454713	0.545479
	H277	H	0.467447	0.448198	0.546336
	H278	H	0.477123	0.457961	0.547471
	O279	O	-0.497832	0.485405	-0.437946
	H280	H	-0.495988	0.484418	-0.444562
	H281	H	-0.487315	0.484012	-0.431044
	O282	O	0.520527	0.482843	0.488492
	H283	H	0.528873	0.485378	0.489800
	H284	H	0.523926	0.488667	0.484782
	O285	O	0.517950	0.523304	0.532618
	H286	H	0.510795	0.523947	0.532695
	H287	H	0.513606	0.521706	0.529383
	O288	O	1.003168	-0.006986	0.032150
	H289	H	1.008042	-0.007332	0.029859
	H290	H	1.005475	-0.000657	0.031955
	O291	O	-0.999238	0.991125	-0.999351
	H292	H	-1.001892	0.987159	-1.005331
	H293	H	-1.008402	0.988448	-1.007175
	O294	O	0.522983	0.522285	0.510888
	H295	H	0.516155	0.520531	0.506620
	H296	H	0.514279	0.522909	0.509287
	O297	O	-0.036116	0.957167	0.002639
	H298	H	-0.037662	0.951500	0.007911
	H299	H	-0.039936	0.950584	0.009839
	O300	O	0.987313	-0.012507	0.987829
	H301	H	0.977894	-0.011356	0.990671
	H302	H	0.992247	-0.013396	0.984111
	O303	O	0.472421	0.478622	0.483450
	H304	H	0.477678	0.479224	0.482058
	H305	H	0.459057	0.484941	0.488574
	O306	O	0.018389	0.991854	1.043626
	H307	H	0.025097	0.993408	1.047974
	H308	H	0.019952	1.000057	1.043011
	O309	O	0.445562	0.515365	0.555675
	H310	H	0.446998	0.509980	0.554397
	H311	H	0.446802	0.515190	0.561994
