data_Molecule from HDF5

_cell_length_a		16.384809
_cell_length_b		16.245808
_cell_length_c		16.118350
_cell_angle_alpha	89.990557
_cell_angle_beta	90.064815
_cell_angle_gamma	90.006268
_symmetry_space_group_name_H-M	'P 1'
_symmetry_Int_Tables_number		1

loop_
	_symmetry_equiv_pos_as_xyz
	x,y,z

loop_
	_atom_site_label
	_atom_site_type_symbol
	_atom_site_fract_x
	_atom_site_fract_y
	_atom_site_fract_z
	H0	H	0.405700	0.837076	0.710091
	H1	H	0.596295	0.167288	0.710526
	H2	H	0.597267	0.837050	0.287047
	H3	H	0.404836	0.167126	0.286895
	H4	H	0.716395	0.402050	0.833614
	H5	H	0.715985	0.601197	0.163154
	H6	H	0.285780	0.601737	0.835006
	H7	H	0.286377	0.400671	0.162803
	H8	H	0.838909	0.718815	0.398817
	H9	H	0.164534	0.718329	0.597277
	H10	H	0.838720	0.287423	0.598368
	H11	H	0.163843	0.287039	0.400380
	H12	H	0.837632	0.406583	0.711395
	H13	H	0.164522	0.600925	0.713980
	H14	H	0.838064	0.600033	0.284361
	H15	H	0.165252	0.405076	0.285824
	H16	H	0.403638	0.714523	0.833501
	H17	H	0.600159	0.715143	0.164203
	H18	H	0.598894	0.289192	0.833002
	H19	H	0.404502	0.289618	0.163712
	H20	H	0.717846	0.839353	0.398445
	H21	H	0.716739	0.165957	0.599478
	H22	H	0.284553	0.839458	0.599732
	H23	H	0.285275	0.165539	0.398147
	H24	H	0.906047	0.337662	0.211005
	H25	H	0.098478	0.667102	0.210862
	H26	H	0.097379	0.337145	0.786364
	H27	H	0.904906	0.666760	0.785695
	H28	H	0.216275	0.903119	0.334814
	H29	H	0.216295	0.102220	0.663396
	H30	H	0.785967	0.103154	0.334503
	H31	H	0.786935	0.902669	0.663775
	H32	H	0.338382	0.217282	0.899442
	H33	H	0.663919	0.217817	0.098544
	H34	H	0.339284	0.785055	0.098598
	H35	H	0.664068	0.787122	0.899325
	H36	H	0.337306	0.905174	0.211856
	H37	H	0.664535	0.099097	0.212874
	H38	H	0.337334	0.098330	0.785853
	H39	H	0.664633	0.905695	0.785553
	H40	H	0.903650	0.215387	0.333189
	H41	H	0.097775	0.214206	0.664844
	H42	H	0.098282	0.791351	0.332577
	H43	H	0.905035	0.790540	0.664374
	H44	H	0.217309	0.338894	0.898129
	H45	H	0.218438	0.665167	0.099929
	H46	H	0.784659	0.339510	0.100712
	H47	H	0.786739	0.665985	0.899592
	H48	H	0.405722	0.120157	0.590596
	H49	H	0.590961	0.888800	0.584206
	H50	H	0.594782	0.120892	0.402174
	H51	H	0.402958	0.884956	0.408699
	H52	H	0.601386	0.406520	0.119211
	H53	H	0.599821	0.588636	0.880534
	H54	H	0.410909	0.595236	0.117127
	H55	H	0.420455	0.404265	0.882445
	H56	H	0.120407	0.593679	0.392482
	H57	H	0.884048	0.595716	0.598233
	H58	H	0.115601	0.411506	0.587839
	H59	H	0.885642	0.405646	0.408601
	H60	H	0.118640	0.410725	0.598621
	H61	H	0.885480	0.603685	0.587904
	H62	H	0.119917	0.609642	0.409083
	H63	H	0.887400	0.413124	0.407099
	H64	H	0.407400	0.592691	0.117481
	H65	H	0.586777	0.592962	0.883882
	H66	H	0.594456	0.417724	0.113656
	H67	H	0.397270	0.402318	0.874974
	H68	H	0.591322	0.117025	0.408914
	H69	H	0.602907	0.883546	0.590210
	H70	H	0.407773	0.119847	0.592749
	H71	H	0.406343	0.883835	0.402559
	H72	H	0.907499	0.620091	0.094720
	H73	H	0.097239	0.383473	0.093610
	H74	H	0.101233	0.618460	0.913944
	H75	H	0.911798	0.386762	0.908663
	H76	H	0.098798	0.907781	0.618419
	H77	H	0.095193	0.086251	0.383373
	H78	H	0.914863	0.100439	0.616509
	H79	H	0.908755	0.898053	0.377786
	H80	H	0.615039	0.083049	0.899526
	H81	H	0.386484	0.092254	0.091637
	H82	H	0.619265	0.902978	0.094801
	H83	H	0.385830	0.904954	0.910059
	H84	H	0.614980	0.907951	0.085577
	H85	H	0.383660	0.098803	0.096118
	H86	H	0.622573	0.107839	0.898515
	H87	H	0.386124	0.912517	0.903841
	H88	H	0.900837	0.098785	0.619470
	H89	H	0.086275	0.099525	0.382130
	H90	H	0.094820	0.915363	0.615789
	H91	H	0.897226	0.918660	0.379979
	H92	H	0.098483	0.622372	0.897792
	H93	H	0.091816	0.387060	0.091672
	H94	H	0.910834	0.618382	0.088779
	H95	H	0.902511	0.384585	0.909584
	H96	H	0.408720	0.118347	0.590544
	H97	H	0.590765	0.884503	0.598300
	H98	H	0.599291	0.119868	0.409161
	H99	H	0.410447	0.886289	0.407276
	H100	H	0.587426	0.406015	0.115317
	H101	H	0.595949	0.601775	0.878402
	H102	H	0.410821	0.591250	0.115419
	H103	H	0.405300	0.423432	0.883836
	H104	H	0.112220	0.588051	0.413444
	H105	H	0.888742	0.591031	0.586713
	H106	H	0.118824	0.401471	0.591720
	H107	H	0.884624	0.408517	0.401351
	H108	H	0.903417	0.619377	0.088665
	H109	H	0.096766	0.385983	0.087507
	H110	H	0.086459	0.615924	0.907725
	H111	H	0.907505	0.383658	0.900849
	H112	H	0.089801	0.908206	0.616392
	H113	H	0.101610	0.099704	0.377119
	H114	H	0.908663	0.087055	0.614073
	H115	H	0.920431	0.917425	0.386205
	H116	H	0.613286	0.097646	0.920258
	H117	H	0.385876	0.099366	0.087877
	H118	H	0.616290	0.913919	0.095149
	H119	H	0.383318	0.903573	0.900918
	C120	C	0.379321	0.010807	0.620220
	C121	C	0.622844	0.994095	0.620113
	C122	C	0.622889	0.010627	0.377775
	C123	C	0.379067	0.993776	0.377535
	C124	C	0.622956	0.381680	0.006937
	C125	C	0.622880	0.623258	0.989925
	C126	C	0.380624	0.622311	0.007752
	C127	C	0.379687	0.380982	0.989549
	C128	C	0.009832	0.625086	0.376421
	C129	C	0.993554	0.625380	0.620546
	C130	C	0.009751	0.380175	0.620644
	C131	C	0.993152	0.380506	0.377018
	C132	C	0.879421	0.510904	0.119941
	C133	C	0.123876	0.493834	0.120245
	C134	C	0.122990	0.510380	0.877791
	C135	C	0.879409	0.493655	0.877505
	C136	C	0.122546	0.881912	0.507628
	C137	C	0.122359	0.123582	0.490296
	C138	C	0.879788	0.124020	0.507493
	C139	C	0.880237	0.882137	0.490520
	C140	C	0.509425	0.124310	0.877026
	C141	C	0.493152	0.124711	0.120482
	C142	C	0.509345	0.880007	0.120748
	C143	C	0.492934	0.879579	0.876507
	C144	C	0.383225	0.886803	0.674089
	C145	C	0.618360	0.117939	0.674164
	C146	C	0.618906	0.886570	0.323821
	C147	C	0.383207	0.117692	0.323414
	C148	C	0.678257	0.382792	0.882845
	C149	C	0.677933	0.621112	0.114156
	C150	C	0.324185	0.621542	0.884045
	C151	C	0.324401	0.381735	0.113741
	C152	C	0.887484	0.680588	0.378418
	C153	C	0.116041	0.680454	0.618000
	C154	C	0.887088	0.325535	0.618141
	C155	C	0.115645	0.325394	0.379745
	C156	C	0.886528	0.384699	0.674421
	C157	C	0.116109	0.621734	0.675504
	C158	C	0.887068	0.621377	0.321758
	C159	C	0.116144	0.383961	0.322746
	C160	C	0.382649	0.677679	0.883246
	C161	C	0.620224	0.677646	0.114563
	C162	C	0.619910	0.326639	0.882473
	C163	C	0.383301	0.326428	0.114228
	C164	C	0.678796	0.887778	0.379124
	C165	C	0.678381	0.117172	0.619248
	C166	C	0.323747	0.887763	0.618739
	C167	C	0.323903	0.116968	0.378997
	C168	C	0.884074	0.386955	0.174229
	C169	C	0.119743	0.617777	0.174071
	C170	C	0.118789	0.386398	0.823654
	C171	C	0.883586	0.617640	0.823061
	C172	C	0.177564	0.883716	0.383624
	C173	C	0.177749	0.121827	0.614495
	C174	C	0.824510	0.122211	0.383465
	C175	C	0.824932	0.883260	0.614429
	C176	C	0.386856	0.179309	0.879029
	C177	C	0.615421	0.179655	0.118379
	C178	C	0.387380	0.823841	0.118982
	C179	C	0.615616	0.825304	0.879306
	C180	C	0.386403	0.883787	0.174923
	C181	C	0.615753	0.120794	0.175373
	C182	C	0.386508	0.120459	0.822410
	C183	C	0.615781	0.883983	0.822414
	C184	C	0.882743	0.178446	0.382900
	C185	C	0.119148	0.177653	0.615191
	C186	C	0.119491	0.827668	0.382763
	C187	C	0.883367	0.827303	0.614839
	C188	C	0.178717	0.387469	0.878891
	C189	C	0.179606	0.616725	0.119130
	C190	C	0.823858	0.387863	0.119315
	C191	C	0.824297	0.617062	0.879103
	C192	C	0.400858	0.097013	0.597811
	C193	C	0.601244	0.907877	0.597520
	C194	C	0.601266	0.096976	0.400182
	C195	C	0.400234	0.907468	0.399674
	C196	C	0.600970	0.403646	0.093780
	C197	C	0.600712	0.600903	0.903346
	C198	C	0.403204	0.599778	0.094341
	C199	C	0.401350	0.403373	0.902844
	C200	C	0.095346	0.603630	0.398531
	C201	C	0.908157	0.603188	0.597822
	C202	C	0.095511	0.401468	0.599066
	C203	C	0.908068	0.402574	0.399146
	C204	C	0.901007	0.597010	0.097304
	C205	C	0.101827	0.407630	0.097656
	C206	C	0.101648	0.596679	0.899951
	C207	C	0.900907	0.407399	0.899718
	C208	C	0.100822	0.903820	0.594566
	C209	C	0.100740	0.101657	0.403286
	C210	C	0.901649	0.101865	0.594441
	C211	C	0.902353	0.904548	0.403666
	C212	C	0.594872	0.102770	0.899512
	C213	C	0.407476	0.103003	0.098485
	C214	C	0.594867	0.901688	0.098459
	C215	C	0.407206	0.900668	0.898531
	Zn216	Zn	0.501045	0.001902	0.747927
	Zn217	Zn	0.500901	0.002282	0.249674
	Zn218	Zn	0.750785	0.502057	-0.001511
	Zn219	Zn	0.252143	0.502052	-0.000540
	Zn220	Zn	0.001571	0.754500	0.498429
	Zn221	Zn	0.001222	0.251432	0.499016
	Zn222	Zn	0.001428	0.502315	0.748972
	Zn223	Zn	0.001613	0.502560	0.247757
	Zn224	Zn	0.501561	0.750565	-0.001228
	Zn225	Zn	0.501440	0.253947	-0.001763
	Zn226	Zn	0.752026	0.002425	0.499333
	Zn227	Zn	0.250578	0.002523	0.499086
	N228	N	0.417094	0.964179	0.674988
	N229	N	0.584882	0.040160	0.675057
	N230	N	0.585050	0.964127	0.322793
	N231	N	0.416823	0.040150	0.322448
	N232	N	0.680085	0.416248	0.961223
	N233	N	0.679754	0.588099	0.035652
	N234	N	0.323011	0.588070	0.962302
	N235	N	0.322409	0.415265	0.035344
	N236	N	0.964808	0.682937	0.411730
	N237	N	0.038788	0.682700	0.584422
	N238	N	0.964756	0.322679	0.585407
	N239	N	0.038349	0.322928	0.412771
	N240	N	0.963672	0.417993	0.675878
	N241	N	0.038917	0.588367	0.677250
	N242	N	0.964058	0.587616	0.320389
	N243	N	0.039032	0.417497	0.320764
	N244	N	0.417227	0.678307	0.961208
	N245	N	0.586649	0.679129	0.036259
	N246	N	0.586242	0.325605	0.960727
	N247	N	0.416987	0.325591	0.036079
	N248	N	0.681410	0.966052	0.411828
	N249	N	0.681074	0.039202	0.586193
	N250	N	0.321086	0.965986	0.586112
	N251	N	0.321165	0.038803	0.411958
	N252	N	0.917704	0.464410	0.174848
	N253	N	0.085795	0.540356	0.174754
	N254	N	0.084659	0.463820	0.822951
	N255	N	0.916985	0.539863	0.821756
	N256	N	0.179517	0.916713	0.462114
	N257	N	0.179917	0.088930	0.535825
	N258	N	0.822367	0.089218	0.462092
	N259	N	0.823065	0.916622	0.536047
	N260	N	0.464278	0.181919	0.912235
	N261	N	0.538131	0.182133	0.085101
	N262	N	0.464728	0.821317	0.085973
	N263	N	0.538178	0.822267	0.912244
	N264	N	0.463310	0.918128	0.175889
	N265	N	0.538627	0.087494	0.176967
	N266	N	0.463643	0.086962	0.820963
	N267	N	0.538501	0.916909	0.820614
	N268	N	0.916470	0.179466	0.461120
	N269	N	0.085426	0.178725	0.537028
	N270	N	0.085899	0.826515	0.461039
	N271	N	0.917103	0.826395	0.536644
	N272	N	0.181324	0.465566	0.911880
	N273	N	0.181973	0.538618	0.086263
	N274	N	0.820988	0.465994	0.086262
	N275	N	0.821808	0.539008	0.912119
	O276	O	-0.045227	-0.020779	1.017669
	H277	H	-0.043985	-0.023649	1.019905
	H278	H	-0.043087	-0.023017	1.018747
	O279	O	0.558745	0.535607	0.523081
	H280	H	0.549455	0.526430	0.529625
	H281	H	0.564679	0.543170	0.526017
	O282	O	0.502074	0.496134	0.483201
	H283	H	0.492788	0.498594	0.482215
	H284	H	0.502806	0.490380	0.479326
	O285	O	0.496325	0.496431	0.524103
	H286	H	0.493057	0.498783	0.522207
	H287	H	0.491182	0.490023	0.526642
	O288	O	0.520971	0.502316	0.453740
	H289	H	0.519731	0.515469	0.447139
	H290	H	0.531241	0.508842	0.454869
	O291	O	-0.029772	0.971524	1.014462
	H292	H	-0.027150	0.970245	1.015152
	H293	H	-0.040906	0.967902	1.008409
	O294	O	0.511279	0.490062	0.462247
	H295	H	0.519468	0.486308	0.467035
	H296	H	0.516512	0.488393	0.454153
	O297	O	0.947176	-0.021393	0.002788
	H298	H	0.944467	-0.024933	0.000113
	H299	H	0.944783	-0.017961	0.008257
