data_Molecule from HDF5

_cell_length_a		16.451796
_cell_length_b		16.228909
_cell_length_c		16.215575
_cell_angle_alpha	89.703963
_cell_angle_beta	90.104972
_cell_angle_gamma	90.499268
_symmetry_space_group_name_H-M	'P 1'
_symmetry_Int_Tables_number		1

loop_
	_symmetry_equiv_pos_as_xyz
	x,y,z

loop_
	_atom_site_label
	_atom_site_type_symbol
	_atom_site_fract_x
	_atom_site_fract_y
	_atom_site_fract_z
	H0	H	0.400632	0.827020	0.724623
	H1	H	0.601756	0.154484	0.724194
	H2	H	0.600954	0.829627	0.290540
	H3	H	0.401057	0.154260	0.292534
	H4	H	0.714599	0.385134	0.845348
	H5	H	0.721046	0.596039	0.167133
	H6	H	0.278170	0.594936	0.845354
	H7	H	0.275782	0.384355	0.168714
	H8	H	0.837186	0.708809	0.401606
	H9	H	0.158498	0.708160	0.607234
	H10	H	0.837821	0.268021	0.609631
	H11	H	0.158571	0.275460	0.406555
	H12	H	0.836905	0.384039	0.724485
	H13	H	0.157111	0.593044	0.724780
	H14	H	0.836535	0.590951	0.286950
	H15	H	0.158064	0.390776	0.289919
	H16	H	0.397228	0.709748	0.845449
	H17	H	0.601450	0.706398	0.171333
	H18	H	0.593617	0.275782	0.845095
	H19	H	0.396264	0.274337	0.171721
	H20	H	0.715539	0.829027	0.406819
	H21	H	0.722039	0.152097	0.614152
	H22	H	0.278500	0.828439	0.614807
	H23	H	0.281648	0.152583	0.404468
	H24	H	0.894687	0.326876	0.223424
	H25	H	0.097716	0.652583	0.221065
	H26	H	0.092686	0.325877	0.793744
	H27	H	0.898585	0.652694	0.789125
	H28	H	0.216091	0.889967	0.345803
	H29	H	0.217397	0.094028	0.671360
	H30	H	0.779340	0.095488	0.347575
	H31	H	0.781786	0.886523	0.671109
	H32	H	0.335212	0.203308	0.909236
	H33	H	0.657168	0.212159	0.110085
	H34	H	0.339242	0.770179	0.113678
	H35	H	0.658373	0.774036	0.906093
	H36	H	0.338636	0.888304	0.227659
	H37	H	0.659724	0.094144	0.223614
	H38	H	0.338845	0.092578	0.789443
	H39	H	0.659694	0.893131	0.793822
	H40	H	0.899320	0.205340	0.344651
	H41	H	0.097003	0.205120	0.671808
	H42	H	0.096336	0.778171	0.342969
	H43	H	0.898526	0.770978	0.669845
	H44	H	0.212653	0.327597	0.904400
	H45	H	0.217396	0.650771	0.110395
	H46	H	0.775405	0.328481	0.110158
	H47	H	0.778368	0.651168	0.899578
	H48	H	0.404818	0.106341	0.594369
	H49	H	0.591444	0.875814	0.598246
	H50	H	0.585941	0.106696	0.413194
	H51	H	0.407122	0.873701	0.415605
	H52	H	0.588122	0.399951	0.123913
	H53	H	0.597014	0.572398	0.892435
	H54	H	0.403923	0.581808	0.125145
	H55	H	0.406760	0.395863	0.891836
	H56	H	0.111045	0.582043	0.414256
	H57	H	0.882296	0.581943	0.596802
	H58	H	0.109075	0.405049	0.598181
	H59	H	0.884257	0.402348	0.415872
	H60	H	0.114970	0.396845	0.606803
	H61	H	0.885096	0.579480	0.592621
	H62	H	0.111963	0.583842	0.411810
	H63	H	0.880657	0.394143	0.411110
	H64	H	0.404063	0.574900	0.122263
	H65	H	0.574878	0.578255	0.897573
	H66	H	0.588850	0.405300	0.122521
	H67	H	0.398768	0.396317	0.888992
	H68	H	0.588962	0.103416	0.426202
	H69	H	0.592042	0.874780	0.602827
	H70	H	0.405840	0.108701	0.603783
	H71	H	0.411716	0.877563	0.421921
	H72	H	0.904764	0.607889	0.101756
	H73	H	0.091052	0.370979	0.101994
	H74	H	0.091142	0.605536	0.920405
	H75	H	0.902714	0.373655	0.917092
	H76	H	0.084109	0.901492	0.621431
	H77	H	0.092504	0.082685	0.391403
	H78	H	0.907782	0.070326	0.621227
	H79	H	0.900143	0.900287	0.391049
	H80	H	0.612490	0.083083	0.914965
	H81	H	0.382499	0.082546	0.102297
	H82	H	0.613684	0.900838	0.100789
	H83	H	0.384423	0.900368	0.917984
	H84	H	0.613803	0.898689	0.100079
	H85	H	0.383369	0.081284	0.098785
	H86	H	0.614387	0.088962	0.917111
	H87	H	0.384352	0.899686	0.918663
	H88	H	0.918683	0.080651	0.621799
	H89	H	0.092946	0.082040	0.392156
	H90	H	0.088131	0.895434	0.624405
	H91	H	0.906474	0.903401	0.392540
	H92	H	0.091823	0.607668	0.911778
	H93	H	0.080181	0.374880	0.098549
	H94	H	0.915463	0.601983	0.093525
	H95	H	0.902202	0.373573	0.916993
	H96	H	0.413044	0.104282	0.598511
	H97	H	0.587570	0.876070	0.601185
	H98	H	0.598096	0.110051	0.417910
	H99	H	0.403378	0.875274	0.423767
	H100	H	0.583725	0.403020	0.121890
	H101	H	0.589748	0.594628	0.887104
	H102	H	0.409984	0.579549	0.122304
	H103	H	0.402847	0.403698	0.892677
	H104	H	0.111389	0.585015	0.414740
	H105	H	0.884180	0.576032	0.597476
	H106	H	0.110946	0.393557	0.594550
	H107	H	0.883763	0.394228	0.420766
	H108	H	0.902136	0.604208	0.087146
	H109	H	0.089131	0.374767	0.090883
	H110	H	0.083945	0.604465	0.915302
	H111	H	0.903412	0.373257	0.916735
	H112	H	0.091712	0.902256	0.623571
	H113	H	0.091889	0.082587	0.392992
	H114	H	0.905301	0.083513	0.627518
	H115	H	0.906142	0.897055	0.390300
	H116	H	0.611543	0.085239	0.921040
	H117	H	0.383342	0.079212	0.102308
	H118	H	0.612595	0.901153	0.099240
	H119	H	0.384888	0.900722	0.918401
	C120	C	0.377269	-0.000897	0.630539
	C121	C	0.621763	0.982830	0.631101
	C122	C	0.620889	-0.000239	0.387871
	C123	C	0.378267	0.982737	0.388520
	C124	C	0.616446	0.371101	0.015858
	C125	C	0.619681	0.612624	0.998969
	C126	C	0.375879	0.611036	0.016193
	C127	C	0.373232	0.367879	0.998744
	C128	C	0.005819	0.613261	0.382611
	C129	C	0.989668	0.610538	0.626755
	C130	C	0.005889	0.366564	0.629761
	C131	C	0.989011	0.368128	0.385376
	C132	C	0.875793	0.498102	0.126320
	C133	C	0.118255	0.480758	0.127977
	C134	C	0.117831	0.498474	0.885924
	C135	C	0.874216	0.480755	0.884673
	C136	C	0.118561	0.870168	0.515709
	C137	C	0.121936	0.112873	0.499832
	C138	C	0.879488	0.109791	0.516727
	C139	C	0.875641	0.868550	0.498807
	C140	C	0.506380	0.113987	0.886906
	C141	C	0.489140	0.113003	0.130494
	C142	C	0.507586	0.869040	0.131172
	C143	C	0.490581	0.870705	0.888313
	C144	C	0.379109	0.876147	0.687419
	C145	C	0.621474	0.105478	0.686880
	C146	C	0.620384	0.878198	0.329412
	C147	C	0.380203	0.105238	0.330569
	C148	C	0.674313	0.368291	0.893898
	C149	C	0.680294	0.613984	0.119559
	C150	C	0.317642	0.613454	0.894167
	C151	C	0.315532	0.366644	0.120661
	C152	C	0.885217	0.670039	0.382420
	C153	C	0.110163	0.669068	0.626678
	C154	C	0.885697	0.307542	0.628884
	C155	C	0.110327	0.313464	0.386823
	C156	C	0.885222	0.365222	0.686506
	C157	C	0.109632	0.611718	0.685296
	C158	C	0.884818	0.611516	0.325096
	C159	C	0.110066	0.370765	0.328593
	C160	C	0.376643	0.670847	0.894354
	C161	C	0.620765	0.669156	0.121472
	C162	C	0.614367	0.313485	0.893728
	C163	C	0.375345	0.311473	0.122087
	C164	C	0.677394	0.877718	0.387534
	C165	C	0.681623	0.104089	0.632326
	C166	C	0.318500	0.877027	0.632476
	C167	C	0.321120	0.104476	0.386787
	C168	C	0.875135	0.375649	0.184564
	C169	C	0.117597	0.603539	0.183636
	C170	C	0.114307	0.375079	0.830589
	C171	C	0.877514	0.603491	0.827119
	C172	C	0.176246	0.871184	0.393759
	C173	C	0.178685	0.113009	0.622268
	C174	C	0.819768	0.112603	0.395334
	C175	C	0.820165	0.867600	0.622105
	C176	C	0.384444	0.167433	0.888205
	C177	C	0.609553	0.172644	0.129913
	C178	C	0.387139	0.809750	0.132322
	C179	C	0.610803	0.813318	0.887756
	C180	C	0.386922	0.868478	0.189188
	C181	C	0.610769	0.113722	0.186310
	C182	C	0.386199	0.112204	0.828694
	C183	C	0.611405	0.872657	0.831858
	C184	C	0.879469	0.167279	0.393731
	C185	C	0.119130	0.168778	0.622409
	C186	C	0.116605	0.815537	0.392192
	C187	C	0.878026	0.810134	0.621563
	C188	C	0.173669	0.375913	0.885944
	C189	C	0.177701	0.602251	0.128830
	C190	C	0.815785	0.376536	0.128452
	C191	C	0.817609	0.602813	0.882026
	C192	C	0.400993	0.084259	0.606036
	C193	C	0.597505	0.897771	0.607725
	C194	C	0.597804	0.084663	0.412063
	C195	C	0.400799	0.897592	0.413227
	C196	C	0.593565	0.395740	0.100776
	C197	C	0.594495	0.588624	0.914235
	C198	C	0.399249	0.586059	0.101139
	C199	C	0.396145	0.391697	0.913286
	C200	C	0.089760	0.590351	0.406480
	C201	C	0.905644	0.586124	0.602726
	C202	C	0.090022	0.391371	0.606681
	C203	C	0.904870	0.390540	0.408853
	C204	C	0.900370	0.582770	0.101416
	C205	C	0.093871	0.395577	0.104106
	C206	C	0.095455	0.583709	0.908986
	C207	C	0.896135	0.395565	0.909662
	C208	C	0.095045	0.893006	0.600970
	C209	C	0.099214	0.089305	0.414241
	C210	C	0.903458	0.085144	0.601672
	C211	C	0.897787	0.893008	0.413516
	C212	C	0.590976	0.092246	0.910664
	C213	C	0.404907	0.088192	0.107622
	C214	C	0.591540	0.893147	0.107118
	C215	C	0.406420	0.893467	0.911722
	Zn216	Zn	0.499371	-0.008219	0.758868
	Zn217	Zn	0.499372	-0.008453	0.259602
	Zn218	Zn	0.746206	0.490512	0.005801
	Zn219	Zn	0.245955	0.489328	0.006555
	Zn220	Zn	-0.002537	0.741150	0.505760
	Zn221	Zn	-0.001588	0.239266	0.507083
	Zn222	Zn	-0.003629	0.489261	0.757356
	Zn223	Zn	-0.003169	0.489527	0.255708
	Zn224	Zn	0.498702	0.740491	0.009005
	Zn225	Zn	0.496220	0.241853	0.008614
	Zn226	Zn	0.749104	-0.008925	0.509178
	Zn227	Zn	0.249132	-0.009995	0.509041
	N228	N	0.414806	0.953190	0.686553
	N229	N	0.584782	0.029022	0.686350
	N230	N	0.585863	0.955066	0.329637
	N231	N	0.415059	0.028563	0.331509
	N232	N	0.675818	0.403488	0.970867
	N233	N	0.679736	0.579647	0.042196
	N234	N	0.317083	0.576984	0.970858
	N235	N	0.314109	0.400819	0.042951
	N236	N	0.961400	0.671266	0.417318
	N237	N	0.034462	0.668351	0.590822
	N238	N	0.961937	0.308215	0.594564
	N239	N	0.034226	0.311683	0.421319
	N240	N	0.961067	0.401366	0.687123
	N241	N	0.033549	0.576036	0.685390
	N242	N	0.960864	0.577125	0.324981
	N243	N	0.033499	0.403932	0.327361
	N244	N	0.411867	0.669705	0.971390
	N245	N	0.583560	0.668295	0.045433
	N246	N	0.579123	0.315162	0.970564
	N247	N	0.410547	0.312130	0.045190
	N248	N	0.677873	0.954391	0.423123
	N249	N	0.681699	0.026836	0.598256
	N250	N	0.317163	0.954554	0.598118
	N251	N	0.320052	0.027340	0.422254
	N252	N	0.911705	0.452006	0.183262
	N253	N	0.081492	0.526785	0.183453
	N254	N	0.080578	0.452361	0.830060
	N255	N	0.911449	0.526412	0.828266
	N256	N	0.177581	0.904265	0.471630
	N257	N	0.180708	0.079161	0.544717
	N258	N	0.819682	0.077737	0.472687
	N259	N	0.818388	0.902787	0.544813
	N260	N	0.460426	0.168935	0.923564
	N261	N	0.533016	0.172539	0.096182
	N262	N	0.463188	0.809476	0.097568
	N263	N	0.534670	0.812180	0.922452
	N264	N	0.462846	0.904404	0.188837
	N265	N	0.534831	0.077527	0.186878
	N266	N	0.463147	0.079869	0.827627
	N267	N	0.535729	0.907767	0.832277
	N268	N	0.916041	0.165583	0.470090
	N269	N	0.084828	0.168998	0.545078
	N270	N	0.081319	0.814814	0.469082
	N271	N	0.911344	0.810193	0.543745
	N272	N	0.176115	0.453697	0.919310
	N273	N	0.177932	0.524792	0.094967
	N274	N	0.816090	0.453638	0.092802
	N275	N	0.815360	0.525416	0.917109
	O276	O	0.418185	0.547346	0.323681
	H277	H	0.411884	0.560662	0.315816
	H278	H	0.413122	0.575823	0.329818
	O279	O	0.710838	0.699667	0.546177
	H280	H	0.714793	0.700873	0.567816
	H281	H	0.724674	0.721197	0.556857
	O282	O	0.936471	-0.077844	1.098126
	H283	H	0.937316	-0.080063	1.111867
	H284	H	0.942080	-0.086910	1.103609
	O285	O	0.477181	0.657059	0.364499
	H286	H	0.487258	0.657718	0.361741
	H287	H	0.476261	0.672241	0.347820
	O288	O	1.147251	0.813916	0.928450
	H289	H	1.149187	0.822001	0.914867
	H290	H	1.158193	0.800614	0.933339
	O291	O	0.370092	1.481594	-0.596003
	H292	H	0.379738	1.492580	-0.592141
	H293	H	0.358597	1.474000	-0.587831
	O294	O	0.500860	0.437415	0.362950
	H295	H	0.514415	0.445836	0.373918
	H296	H	0.502430	0.427595	0.359840
	O297	O	0.524690	0.525699	0.678965
	H298	H	0.509801	0.515517	0.680353
	H299	H	0.529835	0.512822	0.676117
	O300	O	0.297806	0.601441	0.574784
	H301	H	0.291063	0.581977	0.573792
	H302	H	0.278324	0.596038	0.577690
	O303	O	0.698467	0.613941	0.709690
	H304	H	0.686724	0.610756	0.712734
	H305	H	0.692247	0.620071	0.725814
	O306	O	0.534367	0.342020	0.579456
	H307	H	0.524024	0.340155	0.565849
	H308	H	0.555727	0.344065	0.586785
	O309	O	0.392297	0.353391	0.689845
	H310	H	0.401939	0.333189	0.701017
	H311	H	0.398182	0.354178	0.678244
	O312	O	-0.024462	-0.179661	0.060807
	H313	H	-0.017069	-0.172812	0.068782
	H314	H	-0.011158	-0.182225	0.051316
	O315	O	0.516696	0.373009	0.466333
	H316	H	0.513478	0.369702	0.478118
	H317	H	0.511732	0.359656	0.476641
	O318	O	-0.151342	0.935769	0.898909
	H319	H	-0.157953	0.938282	0.906011
	H320	H	-0.155873	0.935411	0.892722
	O321	O	0.430916	0.315024	0.434182
	H322	H	0.438116	0.310306	0.449351
	H323	H	0.418508	0.306978	0.437873
	O324	O	-0.094162	1.170912	-0.043016
	H325	H	-0.090454	1.168299	-0.053765
	H326	H	-0.091905	1.173053	-0.027774
	O327	O	0.415970	0.457925	0.596563
	H328	H	0.417123	0.431082	0.591863
	H329	H	0.395955	0.451748	0.585015
	O330	O	0.008559	0.026952	1.062417
	H331	H	0.007132	0.017296	1.050792
	H332	H	0.001614	0.018468	1.073096
	O333	O	0.098303	0.113196	1.054958
	H334	H	0.096340	0.099833	1.061902
	H335	H	0.078937	0.107085	1.043400
	O336	O	0.684661	0.458423	0.477791
	H337	H	0.693293	0.465590	0.458307
	H338	H	0.691925	0.475934	0.482035
	O339	O	1.071914	-0.052298	-0.170627
	H340	H	1.071436	-0.049408	-0.174973
	H341	H	1.064796	-0.051443	-0.156619
	O342	O	0.093284	0.021871	0.046988
	H343	H	0.087866	0.030692	0.036151
	H344	H	0.084979	0.013727	0.045052
	O345	O	0.918255	0.042419	0.973299
	H346	H	0.918057	0.039550	0.970377
	H347	H	0.913929	0.053664	0.978956
	O348	O	0.887335	1.045399	-0.011971
	H349	H	0.888983	1.049141	-0.009748
	H350	H	0.906338	1.056864	-0.015061
	O351	O	0.604500	0.364045	0.349699
	H352	H	0.606605	0.349017	0.343268
	H353	H	0.615667	0.374679	0.338320
	O354	O	1.139155	-0.118497	0.890955
	H355	H	1.151022	-0.125901	0.883964
	H356	H	1.135617	-0.114461	0.882106
	O357	O	0.532568	0.383894	0.650496
	H358	H	0.521803	0.392738	0.633017
	H359	H	0.534976	0.385155	0.652672
	O360	O	0.633374	0.564060	0.388463
	H361	H	0.630896	0.553562	0.396236
	H362	H	0.637833	0.563627	0.382265
	O363	O	-0.145045	1.005497	1.176941
	H364	H	-0.144307	0.987504	1.179420
	H365	H	-0.157180	1.010069	1.185221
	O366	O	0.520950	0.674458	0.448583
	H367	H	0.530592	0.672683	0.451084
	H368	H	0.507393	0.682568	0.443157
	O369	O	0.181838	0.953448	0.057140
	H370	H	0.197432	0.954144	0.055718
	H371	H	0.167508	0.959679	0.051675
	O372	O	0.545441	0.635017	0.685301
	H373	H	0.529378	0.638002	0.679589
	H374	H	0.537748	0.627941	0.684828
	O375	O	0.532455	0.392080	0.638185
	H376	H	0.546902	0.392279	0.633489
	H377	H	0.527228	0.389921	0.637384
	O378	O	0.927291	0.932988	-0.039234
	H379	H	0.925840	0.936503	-0.028371
	H380	H	0.950734	0.933614	-0.047946
	O381	O	1.070660	-0.072395	0.025573
	H382	H	1.052759	-0.066232	0.032888
	H383	H	1.061093	-0.069982	0.035608
	O384	O	0.993505	0.944798	0.106908
	H385	H	0.982796	0.958995	0.107120
	H386	H	0.998057	0.941126	0.119530
	O387	O	0.153690	0.096029	0.021769
	H388	H	0.157741	0.119860	0.008030
	H389	H	0.147068	0.096776	0.023099
	O390	O	-0.091022	1.070425	-0.059749
	H391	H	-0.095798	1.068992	-0.058590
	H392	H	-0.088808	1.051610	-0.067397
	O393	O	0.545972	0.423095	0.501118
	H394	H	0.547653	0.426394	0.495715
	H395	H	0.545608	0.431316	0.508322
	O396	O	0.337416	0.463101	0.546385
	H397	H	0.343159	0.469570	0.530546
	H398	H	0.345644	0.461219	0.559370
	O399	O	-0.040770	0.917319	1.151971
	H400	H	-0.028886	0.912220	1.159257
	H401	H	-0.034434	0.917309	1.139990
	O402	O	0.437935	0.389512	0.381532
	H403	H	0.437759	0.388925	0.387724
	H404	H	0.431850	0.393321	0.379506
	O405	O	1.062659	1.019652	0.036181
	H406	H	1.067938	1.015499	0.033920
	H407	H	1.072927	1.024024	0.042161
	O408	O	0.901331	0.959715	-0.045629
	H409	H	0.903175	0.951014	-0.038954
	H410	H	0.916164	0.959577	-0.043645
	O411	O	1.026709	0.058314	0.997107
	H412	H	1.038169	0.065179	0.998455
	H413	H	1.028103	0.047447	1.004316
	O414	O	0.427861	0.560093	0.574317
	H415	H	0.426820	0.536207	0.572100
	H416	H	0.442669	0.559475	0.573002
	O417	O	0.323850	0.650850	0.364410
	H418	H	0.342160	0.648698	0.367444
	H419	H	0.323303	0.652975	0.376123
