data_Molecule from HDF5

_cell_length_a		16.314846
_cell_length_b		16.207777
_cell_length_c		16.228676
_cell_angle_alpha	90.143801
_cell_angle_beta	90.144740
_cell_angle_gamma	90.174882
_symmetry_space_group_name_H-M	'P 1'
_symmetry_Int_Tables_number		1

loop_
	_symmetry_equiv_pos_as_xyz
	x,y,z

loop_
	_atom_site_label
	_atom_site_type_symbol
	_atom_site_fract_x
	_atom_site_fract_y
	_atom_site_fract_z
	H0	H	0.401035	0.836709	0.707909
	H1	H	0.597650	0.165918	0.709373
	H2	H	0.595322	0.836248	0.281917
	H3	H	0.401881	0.166405	0.281816
	H4	H	0.713919	0.402947	0.831066
	H5	H	0.715771	0.602272	0.159727
	H6	H	0.283709	0.599867	0.831954
	H7	H	0.286395	0.403471	0.159934
	H8	H	0.835875	0.713454	0.397231
	H9	H	0.162490	0.716852	0.594738
	H10	H	0.836000	0.286411	0.592469
	H11	H	0.163841	0.287243	0.398783
	H12	H	0.836287	0.400298	0.710107
	H13	H	0.163281	0.600610	0.710893
	H14	H	0.836000	0.596555	0.282372
	H15	H	0.164205	0.402255	0.280974
	H16	H	0.403322	0.712277	0.829914
	H17	H	0.598594	0.716668	0.159650
	H18	H	0.595417	0.289229	0.830324
	H19	H	0.403157	0.288613	0.160328
	H20	H	0.713298	0.837234	0.394714
	H21	H	0.714018	0.165900	0.593963
	H22	H	0.284895	0.836606	0.592992
	H23	H	0.283694	0.164838	0.395368
	H24	H	0.903710	0.335772	0.207535
	H25	H	0.098785	0.664409	0.211208
	H26	H	0.095807	0.335632	0.783155
	H27	H	0.901992	0.664957	0.781014
	H28	H	0.212505	0.901240	0.331220
	H29	H	0.215160	0.101675	0.659314
	H30	H	0.785248	0.098697	0.330800
	H31	H	0.783207	0.902204	0.659296
	H32	H	0.334917	0.214669	0.896805
	H33	H	0.663719	0.215047	0.092587
	H34	H	0.335918	0.787515	0.091087
	H35	H	0.663097	0.786465	0.895551
	H36	H	0.335664	0.902872	0.207297
	H37	H	0.662301	0.101135	0.210885
	H38	H	0.335347	0.097584	0.781226
	H39	H	0.662991	0.903981	0.780314
	H40	H	0.902656	0.213301	0.330551
	H41	H	0.096642	0.215024	0.660336
	H42	H	0.094716	0.787814	0.331038
	H43	H	0.901278	0.787503	0.660613
	H44	H	0.213699	0.336765	0.896512
	H45	H	0.214319	0.665708	0.095343
	H46	H	0.785787	0.337340	0.094061
	H47	H	0.786120	0.665617	0.896146
	H48	H	0.409822	0.114590	0.578749
	H49	H	0.584654	0.886228	0.586992
	H50	H	0.585761	0.116700	0.400076
	H51	H	0.400797	0.884079	0.405910
	H52	H	0.595435	0.408735	0.113430
	H53	H	0.595829	0.600248	0.876711
	H54	H	0.401351	0.595845	0.115327
	H55	H	0.409625	0.412702	0.880886
	H56	H	0.112200	0.588827	0.411602
	H57	H	0.884113	0.594923	0.583462
	H58	H	0.116148	0.410261	0.591073
	H59	H	0.886481	0.407727	0.406798
	H60	H	0.116855	0.406173	0.590291
	H61	H	0.884636	0.587739	0.588929
	H62	H	0.117952	0.590547	0.393817
	H63	H	0.883311	0.412395	0.396183
	H64	H	0.408385	0.589939	0.110395
	H65	H	0.598173	0.587475	0.879097
	H66	H	0.593767	0.410555	0.112292
	H67	H	0.407573	0.402586	0.876952
	H68	H	0.596337	0.117543	0.409247
	H69	H	0.595502	0.885707	0.580590
	H70	H	0.397335	0.121449	0.587759
	H71	H	0.401224	0.881265	0.394571
	H72	H	0.898524	0.621246	0.088359
	H73	H	0.091844	0.383628	0.087897
	H74	H	0.104052	0.619517	0.910312
	H75	H	0.913629	0.386130	0.903550
	H76	H	0.090951	0.905411	0.613498
	H77	H	0.095087	0.107477	0.373853
	H78	H	0.903678	0.102297	0.615665
	H79	H	0.909650	0.898663	0.378318
	H80	H	0.615285	0.095717	0.902942
	H81	H	0.385322	0.086834	0.087035
	H82	H	0.617013	0.901899	0.084880
	H83	H	0.385652	0.913148	0.902574
	H84	H	0.612659	0.915070	0.084020
	H85	H	0.379401	0.097927	0.095142
	H86	H	0.615768	0.094889	0.900132
	H87	H	0.380574	0.905873	0.893559
	H88	H	0.899462	0.087003	0.612697
	H89	H	0.102103	0.082441	0.378975
	H90	H	0.097362	0.909536	0.613741
	H91	H	0.895948	0.907335	0.375326
	H92	H	0.092052	0.621932	0.891135
	H93	H	0.094965	0.383927	0.086124
	H94	H	0.912308	0.620283	0.097411
	H95	H	0.899994	0.384067	0.908880
	H96	H	0.412072	0.118890	0.595511
	H97	H	0.595028	0.881700	0.592581
	H98	H	0.598043	0.121307	0.396419
	H99	H	0.410814	0.885259	0.400546
	H100	H	0.592910	0.407844	0.112458
	H101	H	0.586719	0.592575	0.881475
	H102	H	0.410116	0.599841	0.112756
	H103	H	0.399847	0.409793	0.877464
	H104	H	0.118479	0.605099	0.405127
	H105	H	0.881490	0.596115	0.592846
	H106	H	0.114407	0.408742	0.587468
	H107	H	0.881407	0.400574	0.398916
	H108	H	0.912269	0.614457	0.081557
	H109	H	0.094542	0.382503	0.090040
	H110	H	0.082488	0.612706	0.909419
	H111	H	0.902725	0.380961	0.894973
	H112	H	0.090825	0.913018	0.610322
	H113	H	0.077545	0.089709	0.384643
	H114	H	0.914255	0.092173	0.609619
	H115	H	0.909652	0.914792	0.382449
	H116	H	0.615901	0.097228	0.900717
	H117	H	0.384373	0.100235	0.081211
	H118	H	0.618208	0.910092	0.095517
	H119	H	0.382720	0.901608	0.904832
	C120	C	0.377927	0.009343	0.615740
	C121	C	0.620763	0.993187	0.616179
	C122	C	0.620906	0.009714	0.373179
	C123	C	0.376716	0.992505	0.372344
	C124	C	0.621733	0.380345	0.003938
	C125	C	0.622173	0.623190	0.987238
	C126	C	0.378810	0.622366	0.003769
	C127	C	0.378071	0.379981	0.987209
	C128	C	0.008177	0.622551	0.374254
	C129	C	0.991045	0.622627	0.617493
	C130	C	0.007879	0.379294	0.617330
	C131	C	0.991932	0.378724	0.373086
	C132	C	0.879052	0.509935	0.116957
	C133	C	0.121870	0.491872	0.117133
	C134	C	0.120903	0.509176	0.874776
	C135	C	0.877627	0.492376	0.873995
	C136	C	0.120157	0.880036	0.503915
	C137	C	0.120820	0.122884	0.487263
	C138	C	0.877951	0.121915	0.503572
	C139	C	0.876742	0.878811	0.487169
	C140	C	0.507479	0.123482	0.872974
	C141	C	0.491255	0.123604	0.116734
	C142	C	0.507895	0.880330	0.115732
	C143	C	0.491216	0.879574	0.872594
	C144	C	0.380287	0.885797	0.670379
	C145	C	0.618323	0.116811	0.671460
	C146	C	0.616936	0.885706	0.318850
	C147	C	0.380535	0.116753	0.318538
	C148	C	0.676272	0.382732	0.880133
	C149	C	0.677574	0.621992	0.110752
	C150	C	0.322790	0.619795	0.880317
	C151	C	0.324003	0.382900	0.111005
	C152	C	0.884862	0.676306	0.376854
	C153	C	0.113866	0.678860	0.615478
	C154	C	0.884826	0.324187	0.613302
	C155	C	0.114899	0.324256	0.376873
	C156	C	0.884953	0.380613	0.671896
	C157	C	0.114175	0.621033	0.673200
	C158	C	0.885009	0.618296	0.319541
	C159	C	0.115171	0.381830	0.318954
	C160	C	0.382118	0.675735	0.879544
	C161	C	0.619355	0.678979	0.110689
	C162	C	0.617075	0.326486	0.879493
	C163	C	0.382254	0.326027	0.111231
	C164	C	0.675489	0.886243	0.374937
	C165	C	0.675790	0.116895	0.614139
	C166	C	0.322852	0.885803	0.612895
	C167	C	0.321779	0.116112	0.374909
	C168	C	0.882599	0.385351	0.170572
	C169	C	0.119486	0.615807	0.172847
	C170	C	0.117065	0.385064	0.820245
	C171	C	0.880968	0.616144	0.818935
	C172	C	0.174407	0.881788	0.379984
	C173	C	0.176868	0.121432	0.610387
	C174	C	0.823230	0.119114	0.379724
	C175	C	0.821538	0.881521	0.610695
	C176	C	0.383914	0.177319	0.875934
	C177	C	0.614577	0.178143	0.113800
	C178	C	0.384598	0.825199	0.112115
	C179	C	0.614497	0.824694	0.875430
	C180	C	0.384443	0.882484	0.169779
	C181	C	0.613949	0.121135	0.172288
	C182	C	0.384138	0.119150	0.818576
	C183	C	0.614480	0.882876	0.817901
	C184	C	0.881664	0.175951	0.379701
	C185	C	0.118174	0.178068	0.611009
	C186	C	0.115841	0.825512	0.379788
	C187	C	0.879789	0.824393	0.611107
	C188	C	0.175467	0.385544	0.876747
	C189	C	0.176918	0.616179	0.115635
	C190	C	0.823976	0.386104	0.114353
	C191	C	0.823551	0.616415	0.876314
	C192	C	0.399936	0.095994	0.593837
	C193	C	0.598256	0.906748	0.593425
	C194	C	0.599625	0.096186	0.395369
	C195	C	0.398161	0.905989	0.394000
	C196	C	0.600184	0.402392	0.090486
	C197	C	0.600042	0.600187	0.901127
	C198	C	0.400353	0.601355	0.090382
	C199	C	0.399517	0.401929	0.900685
	C200	C	0.094032	0.601201	0.396780
	C201	C	0.905674	0.599692	0.595091
	C202	C	0.093635	0.401841	0.596090
	C203	C	0.905842	0.400427	0.394381
	C204	C	0.901027	0.596229	0.095509
	C205	C	0.100225	0.405688	0.094571
	C206	C	0.099236	0.595842	0.896957
	C207	C	0.899113	0.405987	0.895823
	C208	C	0.099220	0.902568	0.590146
	C209	C	0.098148	0.099878	0.401243
	C210	C	0.899408	0.100248	0.590262
	C211	C	0.898492	0.900338	0.401123
	C212	C	0.593432	0.102281	0.894859
	C213	C	0.405199	0.101652	0.094278
	C214	C	0.593613	0.902617	0.094388
	C215	C	0.405286	0.900638	0.894006
	Zn216	Zn	0.499524	0.001467	0.743811
	Zn217	Zn	0.499043	0.000941	0.244888
	Zn218	Zn	0.750244	0.501712	-0.004331
	Zn219	Zn	0.249739	0.501389	-0.004037
	Zn220	Zn	-0.000809	0.751173	0.495970
	Zn221	Zn	-0.000488	0.250752	0.495363
	Zn222	Zn	-0.000454	0.500502	0.746272
	Zn223	Zn	0.000574	0.500653	0.245011
	Zn224	Zn	0.499982	0.751162	-0.005028
	Zn225	Zn	0.499337	0.252231	-0.004980
	Zn226	Zn	0.748861	0.001359	0.495134
	Zn227	Zn	0.249101	0.000995	0.494836
	N228	N	0.414015	0.963579	0.671988
	N229	N	0.584718	0.038932	0.672591
	N230	N	0.583504	0.963472	0.317675
	N231	N	0.414034	0.038880	0.316963
	N232	N	0.679024	0.415561	0.958437
	N233	N	0.679295	0.587998	0.032985
	N234	N	0.320652	0.587291	0.958568
	N235	N	0.321122	0.415540	0.032795
	N236	N	0.962422	0.678935	0.410306
	N237	N	0.036568	0.679841	0.581603
	N238	N	0.962137	0.323439	0.579887
	N239	N	0.037352	0.322481	0.409917
	N240	N	0.962385	0.414242	0.674621
	N241	N	0.036908	0.586649	0.674556
	N242	N	0.962715	0.585609	0.317731
	N243	N	0.037578	0.414882	0.316511
	N244	N	0.416059	0.677390	0.957122
	N245	N	0.585529	0.679728	0.032947
	N246	N	0.583817	0.325001	0.957324
	N247	N	0.415007	0.324303	0.033313
	N248	N	0.678067	0.964439	0.408062
	N249	N	0.677359	0.038945	0.580503
	N250	N	0.321464	0.963723	0.579565
	N251	N	0.319326	0.037994	0.407682
	N252	N	0.916414	0.463182	0.172153
	N253	N	0.085961	0.537871	0.173897
	N254	N	0.083626	0.462992	0.819143
	N255	N	0.913859	0.538102	0.817281
	N256	N	0.177212	0.915100	0.457947
	N257	N	0.178738	0.087962	0.532298
	N258	N	0.821160	0.085999	0.457773
	N259	N	0.819151	0.914360	0.532650
	N260	N	0.461554	0.180012	0.909330
	N261	N	0.537287	0.179486	0.079804
	N262	N	0.462217	0.823638	0.079282
	N263	N	0.537034	0.822472	0.908587
	N264	N	0.461827	0.916235	0.172130
	N265	N	0.536301	0.087959	0.174239
	N266	N	0.461779	0.086383	0.816764
	N267	N	0.537027	0.916279	0.816058
	N268	N	0.914711	0.177795	0.457824
	N269	N	0.084065	0.178868	0.533554
	N270	N	0.082780	0.824413	0.457698
	N271	N	0.913576	0.822840	0.533566
	N272	N	0.177974	0.463790	0.909741
	N273	N	0.178553	0.538275	0.081648
	N274	N	0.821541	0.464359	0.081782
	N275	N	0.821485	0.538551	0.909872
	O276	O	0.019372	-0.013966	1.075560
	H277	H	0.019120	-0.014515	1.080440
	H278	H	0.011814	-0.013689	1.073308
	O279	O	0.576801	0.545868	0.547743
	H280	H	0.580261	0.547182	0.566284
	H281	H	0.581015	0.555187	0.556158
	O282	O	0.542056	0.538298	0.604494
	H283	H	0.531716	0.533983	0.610035
	H284	H	0.532481	0.543078	0.611495
	O285	O	0.547456	0.537891	0.579901
	H286	H	0.543899	0.531166	0.564405
	H287	H	0.554166	0.530797	0.583965
	O288	O	0.508605	0.533438	0.521899
	H289	H	0.515630	0.534798	0.521428
	H290	H	0.517970	0.539421	0.512104
	O291	O	0.023204	0.995197	1.070524
	H292	H	0.020955	1.002967	1.072849
	H293	H	0.027123	0.997423	1.078070
	O294	O	0.512585	0.508694	0.571267
	H295	H	0.510989	0.508691	0.569167
	H296	H	0.515610	0.512521	0.571873
	O297	O	1.004982	-0.011386	0.049559
	H298	H	1.006622	-0.014980	0.051899
	H299	H	1.009020	-0.017001	0.050050
