data_Molecule from HDF5

_cell_length_a		16.316644
_cell_length_b		16.179743
_cell_length_c		16.067854
_cell_angle_alpha	90.146846
_cell_angle_beta	89.735335
_cell_angle_gamma	89.606706
_symmetry_space_group_name_H-M	'P 1'
_symmetry_Int_Tables_number		1

loop_
	_symmetry_equiv_pos_as_xyz
	x,y,z

loop_
	_atom_site_label
	_atom_site_type_symbol
	_atom_site_fract_x
	_atom_site_fract_y
	_atom_site_fract_z
	H0	H	0.407350	0.836225	0.714488
	H1	H	0.597282	0.166867	0.714698
	H2	H	0.603460	0.837448	0.287983
	H3	H	0.406528	0.167925	0.291165
	H4	H	0.719593	0.398614	0.836886
	H5	H	0.714892	0.601365	0.166766
	H6	H	0.288353	0.601265	0.836400
	H7	H	0.288005	0.403554	0.167749
	H8	H	0.839974	0.717465	0.402981
	H9	H	0.164664	0.717913	0.602556
	H10	H	0.839006	0.288938	0.601787
	H11	H	0.164384	0.281539	0.397141
	H12	H	0.839498	0.404272	0.716976
	H13	H	0.166852	0.599436	0.715532
	H14	H	0.838959	0.602243	0.290569
	H15	H	0.167032	0.403309	0.287636
	H16	H	0.404379	0.714485	0.835293
	H17	H	0.599372	0.714156	0.167010
	H18	H	0.601428	0.286617	0.836574
	H19	H	0.403831	0.290070	0.168799
	H20	H	0.720561	0.838372	0.398939
	H21	H	0.716392	0.165747	0.603559
	H22	H	0.285330	0.838393	0.605639
	H23	H	0.285536	0.166071	0.402984
	H24	H	0.908407	0.336564	0.214378
	H25	H	0.097612	0.668151	0.214143
	H26	H	0.103217	0.337089	0.787867
	H27	H	0.906016	0.666687	0.790644
	H28	H	0.221083	0.898547	0.338744
	H29	H	0.213875	0.102759	0.668054
	H30	H	0.786683	0.102847	0.336836
	H31	H	0.788989	0.903956	0.666842
	H32	H	0.339828	0.217366	0.903545
	H33	H	0.665583	0.216936	0.102654
	H34	H	0.338637	0.789059	0.101483
	H35	H	0.665244	0.784004	0.899018
	H36	H	0.338923	0.905936	0.217388
	H37	H	0.667358	0.098658	0.214946
	H38	H	0.339242	0.100346	0.789797
	H39	H	0.666078	0.902226	0.787150
	H40	H	0.905391	0.214833	0.335775
	H41	H	0.097939	0.215728	0.667493
	H42	H	0.102160	0.787712	0.336465
	H43	H	0.903805	0.790710	0.666634
	H44	H	0.221230	0.337914	0.899771
	H45	H	0.217114	0.666462	0.102975
	H46	H	0.787496	0.337636	0.103185
	H47	H	0.785988	0.664974	0.901329
	H48	H	0.406760	0.117281	0.586888
	H49	H	0.594820	0.883042	0.599559
	H50	H	0.593690	0.120788	0.405165
	H51	H	0.410181	0.885355	0.414018
	H52	H	0.597888	0.406736	0.122234
	H53	H	0.594201	0.588359	0.884056
	H54	H	0.402736	0.591731	0.121757
	H55	H	0.416807	0.406853	0.885427
	H56	H	0.120029	0.602312	0.415726
	H57	H	0.887567	0.593823	0.595307
	H58	H	0.115963	0.415289	0.589295
	H59	H	0.886294	0.411387	0.407515
	H60	H	0.121576	0.408321	0.600581
	H61	H	0.885573	0.597098	0.598575
	H62	H	0.117302	0.586328	0.409343
	H63	H	0.884863	0.405921	0.407704
	H64	H	0.413530	0.592326	0.118359
	H65	H	0.591807	0.594991	0.882279
	H66	H	0.596230	0.412282	0.120100
	H67	H	0.405858	0.406096	0.881489
	H68	H	0.592633	0.117506	0.414001
	H69	H	0.593207	0.886046	0.588465
	H70	H	0.397777	0.122702	0.600423
	H71	H	0.409152	0.883533	0.408835
	H72	H	0.909347	0.620684	0.101864
	H73	H	0.092093	0.384318	0.098995
	H74	H	0.090185	0.617271	0.912001
	H75	H	0.895931	0.378401	0.906361
	H76	H	0.085095	0.900319	0.621361
	H77	H	0.085852	0.084473	0.389012
	H78	H	0.905962	0.099993	0.622804
	H79	H	0.911448	0.900295	0.380619
	H80	H	0.616788	0.089848	0.913757
	H81	H	0.385021	0.102198	0.094332
	H82	H	0.616575	0.915826	0.096357
	H83	H	0.383703	0.900090	0.911113
	H84	H	0.623825	0.901266	0.103262
	H85	H	0.389183	0.091825	0.092078
	H86	H	0.621519	0.091755	0.902189
	H87	H	0.388435	0.913347	0.914886
	H88	H	0.904089	0.091252	0.619900
	H89	H	0.093232	0.103664	0.380014
	H90	H	0.105999	0.907668	0.625093
	H91	H	0.901591	0.912043	0.380524
	H92	H	0.100776	0.619626	0.914046
	H93	H	0.095832	0.386303	0.087254
	H94	H	0.908939	0.617641	0.090637
	H95	H	0.920970	0.382692	0.898391
	H96	H	0.413940	0.119467	0.602299
	H97	H	0.603607	0.881897	0.592250
	H98	H	0.600888	0.121185	0.411942
	H99	H	0.413988	0.885568	0.411116
	H100	H	0.592126	0.408516	0.120034
	H101	H	0.598767	0.593695	0.881337
	H102	H	0.408192	0.601100	0.122015
	H103	H	0.410389	0.414617	0.885333
	H104	H	0.123789	0.597949	0.399086
	H105	H	0.885902	0.598607	0.594217
	H106	H	0.119656	0.400950	0.588464
	H107	H	0.886623	0.408057	0.411268
	H108	H	0.900792	0.622636	0.094840
	H109	H	0.104206	0.382534	0.095439
	H110	H	0.096859	0.622463	0.903240
	H111	H	0.913291	0.388147	0.924054
	H112	H	0.090987	0.920986	0.616895
	H113	H	0.108032	0.085489	0.381913
	H114	H	0.913041	0.094709	0.618364
	H115	H	0.914980	0.915244	0.385484
	H116	H	0.620990	0.101337	0.910283
	H117	H	0.385214	0.094467	0.103973
	H118	H	0.618583	0.901584	0.085320
	H119	H	0.383568	0.910988	0.901478
	C120	C	0.379226	0.010870	0.625273
	C121	C	0.623860	0.992878	0.622887
	C122	C	0.625045	0.011091	0.380653
	C123	C	0.381702	0.993630	0.382123
	C124	C	0.624356	0.379461	0.011360
	C125	C	0.623009	0.621875	0.992205
	C126	C	0.380033	0.623864	0.010829
	C127	C	0.381636	0.380721	0.993881
	C128	C	0.011917	0.624161	0.380178
	C129	C	0.994298	0.624314	0.624511
	C130	C	0.011151	0.380064	0.622855
	C131	C	0.993916	0.379110	0.379076
	C132	C	0.879560	0.511127	0.124442
	C133	C	0.123993	0.493739	0.122699
	C134	C	0.125196	0.510571	0.880708
	C135	C	0.881516	0.492332	0.880840
	C136	C	0.123895	0.879908	0.511694
	C137	C	0.123018	0.121963	0.493018
	C138	C	0.879699	0.124218	0.510788
	C139	C	0.880857	0.880984	0.491906
	C140	C	0.511387	0.123298	0.880727
	C141	C	0.494554	0.123987	0.124904
	C142	C	0.511452	0.879025	0.124335
	C143	C	0.493530	0.878976	0.879882
	C144	C	0.384552	0.886028	0.678746
	C145	C	0.619207	0.117242	0.678011
	C146	C	0.623296	0.886858	0.325216
	C147	C	0.384811	0.118168	0.327760
	C148	C	0.680857	0.379486	0.886447
	C149	C	0.677279	0.620718	0.117121
	C150	C	0.325580	0.621469	0.886057
	C151	C	0.325859	0.383164	0.118275
	C152	C	0.888670	0.679634	0.383248
	C153	C	0.116366	0.679665	0.622302
	C154	C	0.888067	0.326153	0.621669
	C155	C	0.116272	0.321442	0.378857
	C156	C	0.888487	0.383364	0.679326
	C157	C	0.117585	0.620568	0.678786
	C158	C	0.888311	0.622034	0.327102
	C159	C	0.117375	0.381964	0.324111
	C160	C	0.383388	0.677711	0.885493
	C161	C	0.619986	0.677262	0.117185
	C162	C	0.622242	0.323856	0.886169
	C163	C	0.383880	0.327079	0.118802
	C164	C	0.681465	0.887258	0.380628
	C165	C	0.678255	0.116605	0.622396
	C166	C	0.324394	0.886998	0.624195
	C167	C	0.324893	0.117279	0.383445
	C168	C	0.885804	0.386331	0.178061
	C169	C	0.119592	0.618465	0.177306
	C170	C	0.123728	0.386390	0.824998
	C171	C	0.884699	0.616921	0.827023
	C172	C	0.181554	0.879957	0.387681
	C173	C	0.176937	0.122167	0.618106
	C174	C	0.824837	0.122399	0.386369
	C175	C	0.826546	0.883608	0.617175
	C176	C	0.388534	0.178981	0.883606
	C177	C	0.617218	0.178788	0.122489
	C178	C	0.387856	0.825960	0.121984
	C179	C	0.616491	0.822541	0.879943
	C180	C	0.387963	0.884024	0.179775
	C181	C	0.618079	0.119911	0.178285
	C182	C	0.388119	0.120971	0.826807
	C183	C	0.616844	0.881375	0.824251
	C184	C	0.883344	0.178511	0.385747
	C185	C	0.119145	0.178391	0.617786
	C186	C	0.122467	0.824677	0.386638
	C187	C	0.883747	0.827476	0.617052
	C188	C	0.182494	0.387016	0.880657
	C189	C	0.178832	0.617551	0.122019
	C190	C	0.825905	0.386641	0.122650
	C191	C	0.824762	0.616084	0.881984
	C192	C	0.399867	0.097578	0.602976
	C193	C	0.603182	0.906092	0.600099
	C194	C	0.602440	0.097698	0.403643
	C195	C	0.404427	0.907250	0.404606
	C196	C	0.601912	0.402398	0.098181
	C197	C	0.601341	0.598870	0.905188
	C198	C	0.401662	0.601745	0.098020
	C199	C	0.404420	0.402697	0.906682
	C200	C	0.098150	0.602099	0.401608
	C201	C	0.908512	0.602846	0.602463
	C202	C	0.096988	0.401670	0.599778
	C203	C	0.908055	0.401774	0.401921
	C204	C	0.899942	0.597737	0.102287
	C205	C	0.103511	0.406986	0.100384
	C206	C	0.102507	0.597222	0.903294
	C207	C	0.903469	0.405459	0.903029
	C208	C	0.100749	0.902951	0.598702
	C209	C	0.101873	0.098252	0.405984
	C210	C	0.901428	0.102137	0.597944
	C211	C	0.902773	0.902795	0.404638
	C212	C	0.597612	0.100748	0.902263
	C213	C	0.408637	0.102504	0.103074
	C214	C	0.597358	0.899927	0.101713
	C215	C	0.407531	0.901505	0.902463
	Zn216	Zn	0.502649	0.001176	0.751904
	Zn217	Zn	0.504169	0.002051	0.253204
	Zn218	Zn	0.751667	0.501041	0.001613
	Zn219	Zn	0.253227	0.502084	0.001905
	Zn220	Zn	0.001919	0.753230	0.501193
	Zn221	Zn	0.002248	0.250601	0.501583
	Zn222	Zn	0.003771	0.501329	0.752853
	Zn223	Zn	0.002753	0.503074	0.251904
	Zn224	Zn	0.502387	0.750059	0.001217
	Zn225	Zn	0.502780	0.252316	0.002523
	Zn226	Zn	0.752872	0.001601	0.501655
	Zn227	Zn	0.251380	0.001530	0.503473
	N228	N	0.417984	0.963870	0.679518
	N229	N	0.585929	0.039227	0.678522
	N230	N	0.588734	0.964860	0.325121
	N231	N	0.419555	0.040334	0.326908
	N232	N	0.682411	0.413378	0.965216
	N233	N	0.679543	0.587003	0.038252
	N234	N	0.323393	0.588544	0.964972
	N235	N	0.324321	0.415946	0.039382
	N236	N	0.966605	0.681359	0.415604
	N237	N	0.038652	0.682132	0.589256
	N238	N	0.965280	0.324117	0.586882
	N239	N	0.038471	0.319518	0.412388
	N240	N	0.966113	0.416238	0.680123
	N241	N	0.040593	0.586834	0.680161
	N242	N	0.965851	0.588266	0.325168
	N243	N	0.040381	0.417136	0.324209
	N244	N	0.416295	0.679470	0.964181
	N245	N	0.586938	0.678153	0.038562
	N246	N	0.587901	0.323592	0.964672
	N247	N	0.417831	0.325441	0.040193
	N248	N	0.682784	0.965455	0.414384
	N249	N	0.681364	0.038272	0.588959
	N250	N	0.320890	0.965687	0.591703
	N251	N	0.322852	0.038806	0.416513
	N252	N	0.918256	0.464626	0.179418
	N253	N	0.086485	0.540505	0.178108
	N254	N	0.088941	0.464292	0.824708
	N255	N	0.918992	0.538869	0.825879
	N256	N	0.182699	0.913452	0.466481
	N257	N	0.179418	0.087727	0.539700
	N258	N	0.822370	0.089519	0.465164
	N259	N	0.824508	0.916037	0.538160
	N260	N	0.466257	0.180491	0.916329
	N261	N	0.539220	0.181725	0.090188
	N262	N	0.465559	0.822691	0.088191
	N263	N	0.538946	0.821152	0.913978
	N264	N	0.465814	0.916085	0.181412
	N265	N	0.540765	0.086671	0.179977
	N266	N	0.465691	0.087038	0.824867
	N267	N	0.539385	0.915737	0.824085
	N268	N	0.916797	0.179663	0.464335
	N269	N	0.086329	0.178479	0.538853
	N270	N	0.087332	0.824582	0.464861
	N271	N	0.917066	0.825720	0.538153
	N272	N	0.183482	0.465233	0.914556
	N273	N	0.181903	0.538981	0.088934
	N274	N	0.821702	0.465242	0.090066
	N275	N	0.822552	0.537545	0.914663
	O276	O	0.024560	0.004574	0.020549
	H277	H	0.033860	0.000748	0.027444
	H278	H	0.026098	0.007020	0.020978
	O279	O	0.532667	0.547059	0.456095
	H280	H	0.542873	0.536281	0.452350
	H281	H	0.530777	0.546384	0.450231
	O282	O	0.411888	0.471774	0.481927
	H283	H	0.406956	0.471456	0.470299
	H284	H	0.423115	0.483137	0.478825
	O285	O	-0.049222	0.968398	1.044151
	H286	H	-0.053345	0.976934	1.042483
	H287	H	-0.048935	0.965276	1.035440
	O288	O	1.034316	-0.074687	-0.009800
	H289	H	1.038272	-0.073066	-0.014688
	H290	H	1.017322	-0.071667	-0.001903
	O291	O	1.016372	1.028919	1.041169
	H292	H	1.019475	1.027628	1.044205
	H293	H	1.017035	1.028081	1.035243
	O294	O	0.491149	1.495640	0.549667
	H295	H	0.489311	1.497511	0.540505
	H296	H	0.498513	1.497709	0.564112
	O297	O	0.999353	0.018397	1.058444
	H298	H	0.995443	0.021155	1.068878
	H299	H	1.000999	0.019676	1.061659
	O300	O	0.529051	0.553306	0.362859
	H301	H	0.541292	0.566615	0.357273
	H302	H	0.524744	0.558826	0.357785
	O303	O	0.965962	-0.064759	-0.045813
	H304	H	0.959556	-0.062491	-0.043834
	H305	H	0.969438	-0.057315	-0.041953
	O306	O	0.089957	1.018476	1.046135
	H307	H	0.097729	1.021637	1.037861
	H308	H	0.104487	1.022486	1.048527
	O309	O	0.649414	0.613170	0.539215
	H310	H	0.657968	0.611807	0.538390
	H311	H	0.646601	0.621027	0.541350
	O312	O	1.466923	0.427767	0.491737
	H313	H	1.476224	0.423555	0.489344
	H314	H	1.473820	0.424273	0.491982
	O315	O	0.442448	0.590520	0.404076
	H316	H	0.433387	0.592547	0.389455
	H317	H	0.432938	0.588374	0.417539
	O318	O	0.380239	0.481271	0.433764
	H319	H	0.374357	0.491846	0.418086
	H320	H	0.385600	0.472861	0.432581
	O321	O	1.034387	1.011386	1.004972
	H322	H	1.026797	1.008415	0.998443
	H323	H	1.036655	1.004206	1.008267
	O324	O	0.497094	0.436333	0.477103
	H325	H	0.503837	0.435604	0.476065
	H326	H	0.497532	0.437699	0.480720
	O327	O	0.538090	0.386926	0.447761
	H328	H	0.546030	0.389072	0.453814
	H329	H	0.537380	0.397153	0.453961
	O330	O	1.044298	-0.017408	0.947189
	H331	H	1.046030	-0.028162	0.948890
	H332	H	1.050711	-0.016336	0.947668
	O333	O	0.916192	1.014405	0.016835
	H334	H	0.912598	1.018726	0.022805
	H335	H	0.925669	1.012775	0.013858
	O336	O	0.520773	0.475599	0.487721
	H337	H	0.527383	0.477091	0.495944
	H338	H	0.515846	0.459901	0.492271
	O339	O	0.558262	0.490495	0.522290
	H340	H	0.550684	0.476285	0.528067
	H341	H	0.548474	0.496239	0.534486
	O342	O	0.027361	1.048216	0.046284
	H343	H	0.015148	1.036386	0.040826
	H344	H	0.026464	1.047192	0.052135
	O345	O	0.058664	0.081174	-0.028205
	H346	H	0.063470	0.089234	-0.027574
	H347	H	0.071024	0.083164	-0.023230
	O348	O	-0.408297	0.560133	0.596874
	H349	H	-0.402104	0.554700	0.595451
	H350	H	-0.427389	0.545830	0.604016
	O351	O	0.468040	0.442843	0.472733
	H352	H	0.472634	0.440135	0.463052
	H353	H	0.475348	0.433651	0.464982
	O354	O	0.446607	0.493416	0.580542
	H355	H	0.452342	0.496857	0.586119
	H356	H	0.431153	0.498791	0.570295
	O357	O	0.420538	0.588390	0.444576
	H358	H	0.426541	0.587991	0.449856
	H359	H	0.415996	0.590030	0.438146
	O360	O	-0.112526	-0.038887	-0.041202
	H361	H	-0.112564	-0.029801	-0.043277
	H362	H	-0.110552	-0.048756	-0.037753
	O363	O	0.642976	0.554475	0.551036
	H364	H	0.650131	0.546183	0.549661
	H365	H	0.639980	0.550931	0.555329
	O366	O	-0.508702	-0.527370	1.525990
	H367	H	-0.506752	-0.533571	1.531125
	H368	H	-0.507902	-0.528742	1.533459
	O369	O	0.455429	0.488573	0.626443
	H370	H	0.446214	0.499983	0.625084
	H371	H	0.446735	0.492958	0.619278
