data_Molecule from HDF5

_cell_length_a		16.120037
_cell_length_b		16.350754
_cell_length_c		16.410537
_cell_angle_alpha	90.221455
_cell_angle_beta	89.503272
_cell_angle_gamma	90.041384
_symmetry_space_group_name_H-M	'P 1'
_symmetry_Int_Tables_number		1

loop_
	_symmetry_equiv_pos_as_xyz
	x,y,z

loop_
	_atom_site_label
	_atom_site_type_symbol
	_atom_site_fract_x
	_atom_site_fract_y
	_atom_site_fract_z
	H0	H	0.388580	0.828290	0.734225
	H1	H	0.599851	0.148155	0.733259
	H2	H	0.606739	0.829204	0.288891
	H3	H	0.393129	0.147841	0.294496
	H4	H	0.716938	0.388313	0.851395
	H5	H	0.716541	0.593159	0.173342
	H6	H	0.286222	0.588225	0.849341
	H7	H	0.281413	0.392564	0.174200
	H8	H	0.835658	0.706955	0.409976
	H9	H	0.163553	0.706839	0.608680
	H10	H	0.836363	0.276788	0.611985
	H11	H	0.163893	0.272345	0.406792
	H12	H	0.839722	0.386563	0.732262
	H13	H	0.164580	0.593836	0.725298
	H14	H	0.837171	0.593901	0.294330
	H15	H	0.164075	0.390586	0.292581
	H16	H	0.394420	0.709787	0.852948
	H17	H	0.603050	0.711243	0.171946
	H18	H	0.603312	0.269042	0.853462
	H19	H	0.393950	0.272430	0.173982
	H20	H	0.719347	0.827965	0.408283
	H21	H	0.712573	0.150850	0.613245
	H22	H	0.279690	0.826897	0.613536
	H23	H	0.286466	0.152135	0.418382
	H24	H	0.895423	0.330716	0.231572
	H25	H	0.105982	0.651504	0.230695
	H26	H	0.104827	0.330124	0.791178
	H27	H	0.899132	0.652097	0.793606
	H28	H	0.218053	0.890236	0.351043
	H29	H	0.210593	0.088332	0.675637
	H30	H	0.782672	0.088861	0.351389
	H31	H	0.781234	0.889309	0.673842
	H32	H	0.334594	0.205563	0.913871
	H33	H	0.661823	0.206230	0.115012
	H34	H	0.334333	0.773999	0.112915
	H35	H	0.660739	0.771211	0.906329
	H36	H	0.335303	0.885588	0.231529
	H37	H	0.661822	0.089796	0.228806
	H38	H	0.334055	0.089508	0.799516
	H39	H	0.658212	0.882462	0.789373
	H40	H	0.898554	0.207158	0.351130
	H41	H	0.101838	0.210822	0.672314
	H42	H	0.104125	0.771498	0.351040
	H43	H	0.894419	0.770699	0.672107
	H44	H	0.214447	0.327259	0.912487
	H45	H	0.213020	0.654494	0.106736
	H46	H	0.783022	0.328546	0.112306
	H47	H	0.781991	0.652300	0.910136
	H48	H	0.406076	0.103959	0.611483
	H49	H	0.584392	0.876464	0.597036
	H50	H	0.586748	0.103245	0.417313
	H51	H	0.411766	0.877353	0.430466
	H52	H	0.591124	0.406688	0.125119
	H53	H	0.588663	0.580037	0.898198
	H54	H	0.415131	0.582468	0.124134
	H55	H	0.411315	0.396024	0.898863
	H56	H	0.115792	0.578101	0.418178
	H57	H	0.879708	0.588744	0.606952
	H58	H	0.111293	0.413604	0.593516
	H59	H	0.882927	0.402072	0.417651
	H60	H	0.122402	0.400155	0.615175
	H61	H	0.886527	0.578358	0.594014
	H62	H	0.116630	0.583784	0.418874
	H63	H	0.883589	0.394595	0.421555
	H64	H	0.404162	0.588598	0.129919
	H65	H	0.589545	0.579268	0.899219
	H66	H	0.580852	0.394817	0.125992
	H67	H	0.409716	0.392431	0.896318
	H68	H	0.585845	0.100887	0.424422
	H69	H	0.594510	0.870594	0.602916
	H70	H	0.409291	0.103299	0.607803
	H71	H	0.400336	0.870418	0.420851
	H72	H	0.907347	0.606616	0.103956
	H73	H	0.096382	0.372329	0.105935
	H74	H	0.094776	0.609249	0.912197
	H75	H	0.922028	0.380646	0.923097
	H76	H	0.084543	0.892380	0.627700
	H77	H	0.096435	0.074769	0.398921
	H78	H	0.903505	0.084329	0.627952
	H79	H	0.908841	0.889319	0.394960
	H80	H	0.617015	0.077013	0.912149
	H81	H	0.380323	0.080129	0.108948
	H82	H	0.615853	0.900408	0.104475
	H83	H	0.380170	0.898379	0.920795
	H84	H	0.614685	0.896580	0.098501
	H85	H	0.381511	0.082999	0.104515
	H86	H	0.615061	0.086758	0.928418
	H87	H	0.380629	0.895066	0.926477
	H88	H	0.908573	0.082063	0.626631
	H89	H	0.084248	0.083698	0.399339
	H90	H	0.093087	0.898286	0.627912
	H91	H	0.903412	0.904538	0.398058
	H92	H	0.088447	0.604698	0.917474
	H93	H	0.083475	0.376967	0.107775
	H94	H	0.912744	0.605030	0.106479
	H95	H	0.903378	0.376732	0.928436
	H96	H	0.404317	0.104744	0.607593
	H97	H	0.583431	0.872716	0.609457
	H98	H	0.592338	0.103543	0.422289
	H99	H	0.415426	0.873251	0.415433
	H100	H	0.595884	0.392854	0.131094
	H101	H	0.588833	0.579303	0.898796
	H102	H	0.403183	0.575692	0.126079
	H103	H	0.407178	0.395453	0.897003
	H104	H	0.114742	0.581137	0.423611
	H105	H	0.884087	0.571956	0.610697
	H106	H	0.119576	0.387398	0.591518
	H107	H	0.887108	0.402108	0.425287
	H108	H	0.911576	0.604292	0.100636
	H109	H	0.089907	0.377953	0.096568
	H110	H	0.096399	0.607185	0.921271
	H111	H	0.909111	0.371968	0.910282
	H112	H	0.084658	0.901873	0.624205
	H113	H	0.097934	0.088051	0.393505
	H114	H	0.907823	0.087450	0.628115
	H115	H	0.919469	0.900796	0.401241
	H116	H	0.609878	0.069135	0.927284
	H117	H	0.382006	0.077896	0.105306
	H118	H	0.612379	0.903779	0.099148
	H119	H	0.383122	0.901671	0.925929
	C120	C	0.374752	-0.002679	0.637496
	C121	C	0.618431	0.979639	0.634565
	C122	C	0.620551	-0.003078	0.389834
	C123	C	0.378444	0.980148	0.392799
	C124	C	0.621027	0.367205	0.021407
	C125	C	0.620691	0.611844	1.004088
	C126	C	0.377599	0.611465	0.020542
	C127	C	0.377210	0.366730	1.004093
	C128	C	0.008163	0.611438	0.390196
	C129	C	0.991832	0.611111	0.632128
	C130	C	0.009926	0.369875	0.631699
	C131	C	0.992224	0.369420	0.389960
	C132	C	0.878684	0.499037	0.134043
	C133	C	0.120652	0.482754	0.132360
	C134	C	0.123303	0.499645	0.887985
	C135	C	0.879773	0.482743	0.890115
	C136	C	0.119908	0.868025	0.520261
	C137	C	0.121514	0.112037	0.504093
	C138	C	0.877181	0.112955	0.520800
	C139	C	0.877892	0.867638	0.503720
	C140	C	0.506180	0.108318	0.893615
	C141	C	0.489511	0.110357	0.135483
	C142	C	0.506603	0.868885	0.132435
	C143	C	0.488640	0.866805	0.891169
	C144	C	0.371875	0.876404	0.694852
	C145	C	0.618588	0.100256	0.693356
	C146	C	0.623748	0.876880	0.329605
	C147	C	0.376216	0.100641	0.334768
	C148	C	0.678520	0.368251	0.900099
	C149	C	0.678428	0.612497	0.124851
	C150	C	0.322963	0.609014	0.898318
	C151	C	0.319498	0.370747	0.125641
	C152	C	0.884836	0.668843	0.390668
	C153	C	0.114700	0.668773	0.629604
	C154	C	0.886194	0.313859	0.631945
	C155	C	0.115232	0.311714	0.388314
	C156	C	0.887788	0.368762	0.691781
	C157	C	0.115314	0.612239	0.687461
	C158	C	0.885571	0.612244	0.333210
	C159	C	0.115245	0.370600	0.331737
	C160	C	0.377017	0.669442	0.900096
	C161	C	0.621719	0.671487	0.124151
	C162	C	0.622128	0.308726	0.901047
	C163	C	0.375560	0.311092	0.125611
	C164	C	0.680121	0.876231	0.388926
	C165	C	0.674670	0.101684	0.633568
	C166	C	0.317334	0.875722	0.634715
	C167	C	0.322909	0.102836	0.396180
	C168	C	0.877082	0.378435	0.192096
	C169	C	0.123042	0.603843	0.190386
	C170	C	0.123747	0.378005	0.830573
	C171	C	0.879442	0.603738	0.832586
	C172	C	0.179013	0.869858	0.399255
	C173	C	0.174938	0.109941	0.626488
	C174	C	0.820783	0.109894	0.399562
	C175	C	0.819571	0.868710	0.625329
	C176	C	0.383364	0.166234	0.894879
	C177	C	0.612873	0.167462	0.134452
	C178	C	0.383559	0.811691	0.133007
	C179	C	0.611274	0.808876	0.887984
	C180	C	0.384042	0.867320	0.191859
	C181	C	0.612731	0.109545	0.191265
	C182	C	0.382965	0.108351	0.837823
	C183	C	0.610119	0.864778	0.829947
	C184	C	0.878738	0.168438	0.399354
	C185	C	0.120777	0.170825	0.624676
	C186	C	0.122195	0.810737	0.399233
	C187	C	0.876020	0.809656	0.624294
	C188	C	0.178179	0.376706	0.891114
	C189	C	0.176315	0.605304	0.128682
	C190	C	0.820964	0.377523	0.133042
	C191	C	0.821333	0.603906	0.890774
	C192	C	0.399541	0.082160	0.615421
	C193	C	0.594470	0.895106	0.610228
	C194	C	0.595552	0.080730	0.414294
	C195	C	0.402410	0.895677	0.415678
	C196	C	0.596493	0.391193	0.105705
	C197	C	0.596146	0.586894	0.920540
	C198	C	0.400707	0.588764	0.104714
	C199	C	0.402061	0.388321	0.919421
	C200	C	0.093491	0.587862	0.413670
	C201	C	0.905849	0.586900	0.610204
	C202	C	0.095706	0.393581	0.606939
	C203	C	0.906904	0.392718	0.414552
	C204	C	0.903438	0.583514	0.110382
	C205	C	0.096614	0.397741	0.109920
	C206	C	0.099970	0.584805	0.910349
	C207	C	0.904347	0.398475	0.913819
	C208	C	0.094746	0.890838	0.604820
	C209	C	0.099353	0.089002	0.419333
	C210	C	0.899915	0.091112	0.605490
	C211	C	0.903252	0.891443	0.419778
	C212	C	0.591733	0.084489	0.916143
	C213	C	0.403668	0.087240	0.112971
	C214	C	0.592015	0.893075	0.107785
	C215	C	0.403473	0.891140	0.916950
	Zn216	Zn	0.496370	-0.012351	0.764455
	Zn217	Zn	0.497866	-0.011750	0.262150
	Zn218	Zn	0.749891	0.490241	0.012596
	Zn219	Zn	0.249606	0.490480	0.011234
	Zn220	Zn	-0.001347	0.738279	0.511274
	Zn221	Zn	0.000934	0.241442	0.511435
	Zn222	Zn	0.002022	0.490654	0.760067
	Zn223	Zn	0.000232	0.491759	0.262036
	Zn224	Zn	0.498420	0.740446	0.012260
	Zn225	Zn	0.498446	0.237754	0.013921
	Zn226	Zn	0.748513	-0.010915	0.513121
	Zn227	Zn	0.249258	-0.010771	0.514016
	N228	N	0.406909	0.953195	0.696703
	N229	N	0.584619	0.023065	0.694232
	N230	N	0.587566	0.952882	0.330090
	N231	N	0.409896	0.023500	0.332534
	N232	N	0.678175	0.403723	0.976121
	N233	N	0.677918	0.576128	0.049191
	N234	N	0.323364	0.573430	0.973980
	N235	N	0.320323	0.404486	0.049052
	N236	N	0.961986	0.668463	0.425583
	N237	N	0.037032	0.667880	0.595858
	N238	N	0.963141	0.314665	0.595181
	N239	N	0.037698	0.310615	0.423626
	N240	N	0.965858	0.402837	0.691754
	N241	N	0.037887	0.576988	0.689238
	N242	N	0.963038	0.577190	0.332926
	N243	N	0.037897	0.405636	0.332551
	N244	N	0.410536	0.671110	0.976968
	N245	N	0.586620	0.671218	0.048037
	N246	N	0.587203	0.307863	0.977553
	N247	N	0.410518	0.308326	0.048903
	N248	N	0.678498	0.951800	0.425860
	N249	N	0.674744	0.025657	0.597702
	N250	N	0.318912	0.952004	0.599895
	N251	N	0.323891	0.026867	0.431658
	N252	N	0.911974	0.455257	0.193002
	N253	N	0.089126	0.526679	0.192686
	N254	N	0.090634	0.455505	0.828313
	N255	N	0.915186	0.527423	0.832211
	N256	N	0.177446	0.904811	0.475471
	N257	N	0.175560	0.074194	0.550641
	N258	N	0.819481	0.076216	0.476222
	N259	N	0.820512	0.903925	0.549404
	N260	N	0.461176	0.166589	0.928729
	N261	N	0.535225	0.168361	0.100647
	N262	N	0.460934	0.812265	0.097060
	N263	N	0.534740	0.810053	0.925352
	N264	N	0.461671	0.902127	0.191509
	N265	N	0.534845	0.075171	0.192086
	N266	N	0.460351	0.073091	0.836759
	N267	N	0.532704	0.899771	0.831668
	N268	N	0.912761	0.170642	0.475883
	N269	N	0.088504	0.172293	0.547374
	N270	N	0.086148	0.809543	0.475542
	N271	N	0.911571	0.809061	0.547837
	N272	N	0.178146	0.453321	0.925745
	N273	N	0.175134	0.528920	0.093365
	N274	N	0.821732	0.453599	0.097652
	N275	N	0.821355	0.527576	0.925797
	O276	O	0.436131	0.624235	0.662189
	H277	H	0.435046	0.628188	0.663612
	H278	H	0.437396	0.623878	0.672431
	O279	O	0.472793	0.312502	0.559150
	H280	H	0.490288	0.311172	0.545293
	H281	H	0.477552	0.310345	0.560989
	O282	O	1.101115	-0.039047	1.063671
	H283	H	1.116551	-0.031377	1.068826
	H284	H	1.100556	-0.029556	1.055564
	O285	O	0.661288	0.335231	0.468785
	H286	H	0.667314	0.358370	0.466177
	H287	H	0.668207	0.330905	0.458503
	O288	O	0.984616	0.851197	1.160960
	H289	H	0.980730	0.861574	1.153539
	H290	H	0.996360	0.862005	1.150715
	O291	O	0.677895	1.364429	-0.553365
	H292	H	0.683932	1.367428	-0.565803
	H293	H	0.662831	1.360498	-0.542812
	O294	O	0.506699	0.395950	0.690200
	H295	H	0.511195	0.418075	0.696760
	H296	H	0.511863	0.395284	0.680895
	O297	O	0.567286	0.404818	0.422864
	H298	H	0.583250	0.396274	0.406248
	H299	H	0.583461	0.406301	0.412420
	O300	O	0.349888	0.301826	0.564610
	H301	H	0.353132	0.299017	0.571277
	H302	H	0.351229	0.293850	0.552924
	O303	O	0.531286	0.507135	0.557990
	H304	H	0.539647	0.518659	0.548741
	H305	H	0.536203	0.511100	0.576200
	O306	O	0.405198	0.325262	0.619253
	H307	H	0.396033	0.327278	0.617474
	H308	H	0.416835	0.325199	0.621989
	O309	O	0.547540	0.502614	0.703585
	H310	H	0.538090	0.519785	0.708425
	H311	H	0.560891	0.509947	0.713429
	O312	O	-0.144436	-0.080374	-0.099264
	H313	H	-0.150664	-0.070414	-0.088727
	H314	H	-0.146107	-0.073317	-0.099681
	O315	O	0.369428	0.630815	0.517629
	H316	H	0.360320	0.630287	0.526756
	H317	H	0.375303	0.628678	0.504474
	O318	O	-0.076262	0.877785	0.897563
	H319	H	-0.086788	0.870071	0.912894
	H320	H	-0.085891	0.890305	0.892676
	O321	O	0.401416	0.580334	0.557827
	H322	H	0.400744	0.583350	0.557171
	H323	H	0.396440	0.596204	0.580523
	O324	O	0.070718	0.976036	-0.117520
	H325	H	0.064812	0.967693	-0.117508
	H326	H	0.072741	0.969267	-0.111335
	O327	O	0.000833	-0.098142	0.048361
	H328	H	0.004529	-0.099652	0.048859
	H329	H	0.004938	-0.102108	0.050122
	O330	O	-0.007932	0.120904	1.004373
	H331	H	-0.005884	0.101114	0.991223
	H332	H	0.006162	0.128234	1.005443
	O333	O	-0.059213	0.078171	1.019278
	H334	H	-0.045259	0.075038	1.013629
	H335	H	-0.053074	0.071426	1.017296
	O336	O	0.656547	0.497944	0.546258
	H337	H	0.651902	0.512241	0.538408
	H338	H	0.661036	0.504909	0.530635
	O339	O	1.154606	-0.024363	0.125229
	H340	H	1.160628	-0.021247	0.132130
	H341	H	1.165068	-0.010543	0.110267
	O342	O	-0.081906	-0.012471	0.159715
	H343	H	-0.068707	-0.018031	0.145480
	H344	H	-0.096139	-0.033435	0.166947
	O345	O	1.011384	0.094886	0.903522
	H346	H	0.996650	0.095446	0.908353
	H347	H	1.021425	0.091773	0.898951
	O348	O	0.916874	1.166401	-0.139623
	H349	H	0.922315	1.174953	-0.119949
	H350	H	0.908040	1.173112	-0.159261
	O351	O	0.646062	0.626645	0.655811
	H352	H	0.631060	0.621832	0.661448
	H353	H	0.651186	0.623559	0.626312
	O354	O	1.118049	-0.034308	0.960442
	H355	H	1.104219	-0.047128	0.947303
	H356	H	1.121153	-0.034008	0.950010
	O357	O	0.529956	0.495482	0.540598
	H358	H	0.535568	0.493664	0.558790
	H359	H	0.543827	0.522631	0.544027
	O360	O	0.487782	0.563975	0.401945
	H361	H	0.488042	0.567249	0.398258
	H362	H	0.482136	0.560892	0.394499
	O363	O	-0.102981	0.817280	1.153757
	H364	H	-0.105209	0.812824	1.154694
	H365	H	-0.090645	0.817705	1.149960
	O366	O	0.389557	0.587412	0.379590
	H367	H	0.388659	0.565125	0.372920
	H368	H	0.373224	0.586752	0.387971
	O369	O	0.009713	1.128009	0.203072
	H370	H	0.013021	1.115080	0.200267
	H371	H	0.003340	1.135332	0.203532
	O372	O	0.347449	0.554440	0.428344
	H373	H	0.351210	0.555450	0.443036
	H374	H	0.336473	0.529570	0.426106
	O375	O	0.657075	0.377683	0.394074
	H376	H	0.666242	0.369950	0.390868
	H377	H	0.647801	0.389452	0.410219
	O378	O	1.052346	0.955811	-0.165640
	H379	H	1.050444	0.949605	-0.164298
	H380	H	1.048779	0.962139	-0.163313
	O381	O	0.861673	-0.005659	0.198652
	H382	H	0.856398	-0.007893	0.208805
	H383	H	0.858276	-0.021266	0.191598
	O384	O	1.324122	1.437747	-0.287311
	H385	H	1.329489	1.418518	-0.281845
	H386	H	1.305935	1.426092	-0.276526
	O387	O	-0.165225	-0.018215	0.090563
	H388	H	-0.166290	-0.028095	0.097869
	H389	H	-0.165184	-0.007004	0.095923
	O390	O	0.140992	1.144192	-0.012081
	H391	H	0.149203	1.135961	-0.013306
	H392	H	0.131108	1.151301	-0.000616
	O393	O	0.599403	0.644786	0.457307
	H394	H	0.589622	0.647742	0.441814
	H395	H	0.608358	0.633618	0.444924
	O396	O	0.574725	0.470589	0.405168
	H397	H	0.579485	0.473007	0.397516
	H398	H	0.558951	0.467146	0.397543
	O399	O	-0.149680	1.122029	0.978066
	H400	H	-0.148071	1.142491	0.979991
	H401	H	-0.154399	1.123999	0.972221
	O402	O	0.553207	0.588236	0.305052
	H403	H	0.549438	0.585225	0.293528
	H404	H	0.535310	0.586176	0.301376
	O405	O	0.929593	0.895599	-0.102232
	H406	H	0.922038	0.906761	-0.100404
	H407	H	0.925258	0.892709	-0.097904
	O408	O	1.141664	1.173719	0.094540
	H409	H	1.141729	1.180013	0.098461
	H410	H	1.128701	1.177423	0.088650
	O411	O	1.007532	-0.102783	1.003080
	H412	H	0.996532	-0.093902	1.010448
	H413	H	1.021455	-0.088602	0.992856
	O414	O	0.439841	0.618231	0.504082
	H415	H	0.438940	0.623474	0.506998
	H416	H	0.432731	0.611451	0.504913
	O417	O	0.437722	0.373740	0.344388
	H418	H	0.448920	0.360806	0.355976
	H419	H	0.450425	0.368681	0.335130
