data_Molecule from HDF5

_cell_length_a		16.176625
_cell_length_b		16.355495
_cell_length_c		16.167271
_cell_angle_alpha	89.871720
_cell_angle_beta	90.123577
_cell_angle_gamma	89.857788
_symmetry_space_group_name_H-M	'P 1'
_symmetry_Int_Tables_number		1

loop_
	_symmetry_equiv_pos_as_xyz
	x,y,z

loop_
	_atom_site_label
	_atom_site_type_symbol
	_atom_site_fract_x
	_atom_site_fract_y
	_atom_site_fract_z
	H0	H	0.404852	0.834069	0.714371
	H1	H	0.599158	0.161076	0.714882
	H2	H	0.600515	0.834079	0.286560
	H3	H	0.402045	0.160558	0.284306
	H4	H	0.712037	0.399501	0.834037
	H5	H	0.711363	0.592713	0.164719
	H6	H	0.287442	0.593189	0.833604
	H7	H	0.285969	0.399519	0.164838
	H8	H	0.837480	0.715908	0.397678
	H9	H	0.164308	0.711573	0.599735
	H10	H	0.837079	0.282656	0.600485
	H11	H	0.164885	0.282472	0.399527
	H12	H	0.834074	0.402001	0.709915
	H13	H	0.164531	0.595336	0.714337
	H14	H	0.834544	0.596489	0.287426
	H15	H	0.165227	0.401102	0.287264
	H16	H	0.398739	0.713575	0.835603
	H17	H	0.599321	0.711225	0.163927
	H18	H	0.598417	0.282841	0.835230
	H19	H	0.399673	0.280829	0.163674
	H20	H	0.716875	0.834394	0.402227
	H21	H	0.715478	0.160824	0.599371
	H22	H	0.287719	0.834356	0.600367
	H23	H	0.285677	0.160706	0.401093
	H24	H	0.901180	0.335048	0.215086
	H25	H	0.098865	0.661607	0.213535
	H26	H	0.096566	0.334270	0.786771
	H27	H	0.899461	0.660758	0.784174
	H28	H	0.214465	0.900696	0.335806
	H29	H	0.212655	0.094396	0.666551
	H30	H	0.786882	0.097515	0.335314
	H31	H	0.790304	0.902162	0.666273
	H32	H	0.336112	0.211820	0.898844
	H33	H	0.663787	0.213841	0.102467
	H34	H	0.335972	0.783866	0.099617
	H35	H	0.663837	0.780981	0.900183
	H36	H	0.336121	0.900113	0.213627
	H37	H	0.666740	0.092356	0.211813
	H38	H	0.336632	0.096112	0.785300
	H39	H	0.666558	0.902056	0.790241
	H40	H	0.900300	0.214862	0.336837
	H41	H	0.101521	0.213706	0.664469
	H42	H	0.101624	0.783152	0.336442
	H43	H	0.901767	0.781933	0.664139
	H44	H	0.212588	0.334220	0.901851
	H45	H	0.214441	0.660728	0.098123
	H46	H	0.786490	0.334198	0.097148
	H47	H	0.783976	0.660354	0.900920
	H48	H	0.410374	0.113944	0.595050
	H49	H	0.593622	0.884085	0.586958
	H50	H	0.595783	0.114412	0.406534
	H51	H	0.404670	0.881639	0.411922
	H52	H	0.594276	0.402337	0.117888
	H53	H	0.583828	0.593818	0.882668
	H54	H	0.396636	0.588133	0.119076
	H55	H	0.403559	0.393746	0.878781
	H56	H	0.121132	0.603482	0.408988
	H57	H	0.882307	0.592608	0.593741
	H58	H	0.120323	0.403814	0.600132
	H59	H	0.883465	0.408304	0.407535
	H60	H	0.118444	0.398511	0.587767
	H61	H	0.882004	0.593143	0.588841
	H62	H	0.112679	0.583703	0.416851
	H63	H	0.881684	0.403256	0.405531
	H64	H	0.413805	0.584649	0.113683
	H65	H	0.596739	0.595862	0.878380
	H66	H	0.591831	0.407201	0.115938
	H67	H	0.398155	0.410309	0.881821
	H68	H	0.592027	0.112801	0.405705
	H69	H	0.603169	0.879005	0.596093
	H70	H	0.406812	0.112796	0.589525
	H71	H	0.406184	0.880353	0.403135
	H72	H	0.909795	0.613136	0.093413
	H73	H	0.085260	0.384362	0.090636
	H74	H	0.093672	0.615966	0.900076
	H75	H	0.909849	0.382148	0.905805
	H76	H	0.090015	0.898840	0.618429
	H77	H	0.087134	0.077912	0.389130
	H78	H	0.909844	0.093631	0.618026
	H79	H	0.910852	0.914646	0.385384
	H80	H	0.623488	0.099427	0.901652
	H81	H	0.383139	0.097008	0.085878
	H82	H	0.619316	0.902609	0.095941
	H83	H	0.381021	0.907544	0.899799
	H84	H	0.618159	0.899945	0.090296
	H85	H	0.388557	0.081150	0.087510
	H86	H	0.615915	0.093361	0.919400
	H87	H	0.380668	0.896541	0.908852
	H88	H	0.905609	0.090487	0.618561
	H89	H	0.083319	0.103724	0.382379
	H90	H	0.099342	0.901899	0.620359
	H91	H	0.916067	0.901216	0.383888
	H92	H	0.085602	0.611311	0.907899
	H93	H	0.098967	0.381254	0.089272
	H94	H	0.902602	0.613791	0.088202
	H95	H	0.901847	0.380638	0.908023
	H96	H	0.403480	0.115653	0.594751
	H97	H	0.589369	0.881043	0.600076
	H98	H	0.593281	0.112811	0.408928
	H99	H	0.413346	0.883461	0.408291
	H100	H	0.587962	0.401744	0.116103
	H101	H	0.592579	0.583841	0.883519
	H102	H	0.409691	0.600706	0.118845
	H103	H	0.415229	0.406196	0.886103
	H104	H	0.119511	0.586162	0.394529
	H105	H	0.883470	0.589125	0.591096
	H106	H	0.115358	0.411173	0.589841
	H107	H	0.883866	0.403944	0.412022
	H108	H	0.902443	0.616143	0.096743
	H109	H	0.093028	0.379052	0.102245
	H110	H	0.097474	0.614221	0.911275
	H111	H	0.904821	0.379300	0.900752
	H112	H	0.092751	0.907602	0.616777
	H113	H	0.107426	0.092469	0.378361
	H114	H	0.909962	0.088893	0.616440
	H115	H	0.901683	0.903885	0.380502
	H116	H	0.617338	0.081022	0.903859
	H117	H	0.381000	0.088888	0.100145
	H118	H	0.617329	0.905692	0.091230
	H119	H	0.386273	0.909563	0.913274
	C120	C	0.379230	0.006287	0.622388
	C121	C	0.623273	0.989273	0.622700
	C122	C	0.623191	0.005882	0.378458
	C123	C	0.379032	0.989277	0.378810
	C124	C	0.620226	0.375358	0.007757
	C125	C	0.619706	0.618444	0.990721
	C126	C	0.377989	0.619120	0.008143
	C127	C	0.377391	0.374990	0.991062
	C128	C	0.008986	0.620036	0.377911
	C129	C	0.991243	0.619365	0.620785
	C130	C	0.009179	0.376570	0.620999
	C131	C	0.992048	0.376754	0.379044
	C132	C	0.877330	0.506383	0.121447
	C133	C	0.121414	0.489647	0.121924
	C134	C	0.120322	0.505799	0.878223
	C135	C	0.876803	0.488821	0.876761
	C136	C	0.122728	0.875728	0.509398
	C137	C	0.121702	0.119528	0.492275
	C138	C	0.879386	0.119987	0.508977
	C139	C	0.880300	0.877461	0.491999
	C140	C	0.509849	0.119454	0.878506
	C141	C	0.492326	0.118245	0.121398
	C142	C	0.509397	0.874927	0.121491
	C143	C	0.491847	0.876423	0.879299
	C144	C	0.383208	0.883223	0.677248
	C145	C	0.619975	0.112381	0.677218
	C146	C	0.620847	0.882823	0.324315
	C147	C	0.381582	0.111989	0.322593
	C148	C	0.674858	0.378855	0.883717
	C149	C	0.674520	0.614384	0.115082
	C150	C	0.323936	0.614939	0.883337
	C151	C	0.323237	0.378338	0.115476
	C152	C	0.885838	0.676617	0.378776
	C153	C	0.115324	0.673943	0.619627
	C154	C	0.885535	0.321059	0.619681
	C155	C	0.115525	0.320502	0.380026
	C156	C	0.884122	0.380584	0.673912
	C157	C	0.115322	0.615945	0.676424
	C158	C	0.884520	0.617277	0.323708
	C159	C	0.115872	0.379512	0.324000
	C160	C	0.379181	0.674709	0.884320
	C161	C	0.618779	0.673341	0.114573
	C162	C	0.618604	0.320618	0.884249
	C163	C	0.379683	0.319202	0.114763
	C164	C	0.679026	0.883286	0.381394
	C165	C	0.677901	0.112170	0.620165
	C166	C	0.324899	0.883307	0.620386
	C167	C	0.323714	0.112140	0.380667
	C168	C	0.880633	0.383602	0.176786
	C169	C	0.118720	0.612616	0.175673
	C170	C	0.117549	0.383035	0.823750
	C171	C	0.879087	0.611767	0.821941
	C172	C	0.177265	0.879763	0.385143
	C173	C	0.175913	0.115560	0.616774
	C174	C	0.824311	0.117658	0.384785
	C175	C	0.826447	0.880375	0.616492
	C176	C	0.385622	0.174010	0.879465
	C177	C	0.615364	0.174424	0.120908
	C178	C	0.385215	0.821158	0.119437
	C179	C	0.615427	0.820229	0.881393
	C180	C	0.385400	0.878869	0.176255
	C181	C	0.616608	0.114458	0.175783
	C182	C	0.385616	0.116226	0.823281
	C183	C	0.616779	0.880121	0.826298
	C184	C	0.880834	0.175908	0.385445
	C185	C	0.120617	0.174928	0.615850
	C186	C	0.121173	0.821345	0.385265
	C187	C	0.881902	0.820723	0.615319
	C188	C	0.175266	0.383032	0.881145
	C189	C	0.176472	0.612167	0.118496
	C190	C	0.823523	0.383010	0.118435
	C191	C	0.821602	0.611619	0.879800
	C192	C	0.400621	0.092093	0.599858
	C193	C	0.601761	0.903598	0.600912
	C194	C	0.600440	0.091319	0.400527
	C195	C	0.401366	0.903866	0.401133
	C196	C	0.597792	0.397167	0.094317
	C197	C	0.597535	0.597270	0.903927
	C198	C	0.400125	0.597492	0.094834
	C199	C	0.399266	0.396956	0.904625
	C200	C	0.095420	0.597730	0.400336
	C201	C	0.904808	0.598108	0.597777
	C202	C	0.095624	0.398009	0.599003
	C203	C	0.905482	0.398725	0.401728
	C204	C	0.898568	0.591977	0.099163
	C205	C	0.099136	0.403718	0.100385
	C206	C	0.098693	0.591758	0.899909
	C207	C	0.898870	0.402917	0.898581
	C208	C	0.100579	0.896625	0.596116
	C209	C	0.099158	0.097828	0.405567
	C210	C	0.901916	0.097703	0.595493
	C211	C	0.902831	0.899967	0.405537
	C212	C	0.596383	0.097858	0.901633
	C213	C	0.406274	0.095599	0.098015
	C214	C	0.595929	0.896477	0.099237
	C215	C	0.405229	0.898260	0.900913
	Zn216	Zn	0.501360	-0.001990	0.751101
	Zn217	Zn	0.501555	-0.003615	0.249392
	Zn218	Zn	0.748199	0.497446	-0.000758
	Zn219	Zn	0.249328	0.497554	-0.000256
	Zn220	Zn	0.000960	0.748016	0.499288
	Zn221	Zn	0.001173	0.248278	0.500736
	Zn222	Zn	-0.000766	0.497581	0.748525
	Zn223	Zn	-0.000433	0.498552	0.250400
	Zn224	Zn	0.499379	0.747624	-0.000101
	Zn225	Zn	0.499997	0.246475	-0.000221
	Zn226	Zn	0.751677	-0.001689	0.500869
	Zn227	Zn	0.249634	-0.002231	0.501138
	N228	N	0.416244	0.960597	0.678547
	N229	N	0.586898	0.035046	0.679198
	N230	N	0.586855	0.960038	0.322193
	N231	N	0.415153	0.034635	0.321042
	N232	N	0.676044	0.412344	0.961785
	N233	N	0.675269	0.581171	0.037049
	N234	N	0.322932	0.581002	0.961408
	N235	N	0.321677	0.412163	0.037558
	N236	N	0.964243	0.678480	0.411656
	N237	N	0.037339	0.675963	0.585507
	N238	N	0.964209	0.318408	0.587419
	N239	N	0.037372	0.318800	0.413562
	N240	N	0.961899	0.414570	0.674861
	N241	N	0.037223	0.582835	0.677353
	N242	N	0.962184	0.582812	0.323077
	N243	N	0.038074	0.413724	0.323347
	N244	N	0.411917	0.677510	0.962824
	N245	N	0.585184	0.675719	0.036308
	N246	N	0.585278	0.318443	0.962414
	N247	N	0.412589	0.316989	0.036469
	N248	N	0.680561	0.960768	0.414347
	N249	N	0.680102	0.034858	0.586952
	N250	N	0.322231	0.960882	0.587109
	N251	N	0.321985	0.035015	0.414832
	N252	N	0.913336	0.461188	0.178764
	N253	N	0.084972	0.535482	0.177767
	N254	N	0.084153	0.460349	0.821815
	N255	N	0.912715	0.534371	0.819919
	N256	N	0.178516	0.912733	0.463312
	N257	N	0.176760	0.081994	0.538831
	N258	N	0.823288	0.083753	0.462849
	N259	N	0.825405	0.914721	0.538834
	N260	N	0.463909	0.176171	0.913089
	N261	N	0.536948	0.176916	0.087875
	N262	N	0.463323	0.818627	0.086406
	N263	N	0.536738	0.817957	0.913553
	N264	N	0.463683	0.911771	0.177527
	N265	N	0.539127	0.080017	0.175934
	N266	N	0.463791	0.082996	0.822550
	N267	N	0.538940	0.914067	0.824737
	N268	N	0.914406	0.177476	0.463541
	N269	N	0.087437	0.177237	0.537435
	N270	N	0.087929	0.818759	0.463483
	N271	N	0.914880	0.818830	0.536717
	N272	N	0.177034	0.460421	0.914368
	N273	N	0.178105	0.534464	0.085632
	N274	N	0.821152	0.460336	0.084777
	N275	N	0.820052	0.534159	0.913110
	O276	O	1.067136	0.942731	0.012350
	H277	H	1.066836	0.935414	0.012290
	H278	H	1.075516	0.940129	0.011064
	O279	O	0.037690	-0.032253	0.076760
	H280	H	0.046632	-0.021203	0.073213
	H281	H	0.036542	-0.031512	0.075352
	O282	O	0.024331	-0.069669	1.077870
	H283	H	0.023546	-0.074013	1.076617
	H284	H	0.033280	-0.063203	1.085826
	O285	O	0.473764	0.478503	0.468609
	H286	H	0.479521	0.483405	0.465394
	H287	H	0.476698	0.479614	0.464993
	O288	O	0.541889	0.450760	0.489937
	H289	H	0.533392	0.454361	0.506726
	H290	H	0.551440	0.443240	0.494539
	O291	O	0.464722	0.460354	0.460057
	H292	H	0.460251	0.455696	0.455580
	H293	H	0.468722	0.453599	0.453260
	O294	O	-0.022531	0.045202	0.010769
	H295	H	-0.023217	0.039579	0.008636
	H296	H	-0.022305	0.041230	0.018407
	O297	O	0.490046	0.491512	0.462573
	H298	H	0.492742	0.490417	0.467721
	H299	H	0.495939	0.488140	0.458939
	O300	O	0.074687	1.061180	1.064529
	H301	H	0.071515	1.062164	1.058517
	H302	H	0.078194	1.066106	1.076030
	O303	O	0.529121	0.491528	0.461020
	H304	H	0.519284	0.496031	0.453983
	H305	H	0.523573	0.490462	0.456709
	O306	O	-0.018893	0.021861	1.030348
	H307	H	-0.029534	0.018133	1.035217
	H308	H	-0.016569	0.015242	1.030183
	O309	O	0.993561	1.064570	1.009132
	H310	H	0.997413	1.068283	1.008387
	H311	H	0.990037	1.070561	1.009136
	O312	O	0.540789	0.522294	0.435553
	H313	H	0.532352	0.520937	0.442829
	H314	H	0.550714	0.531213	0.429204
	O315	O	0.356597	0.651033	0.311424
	H316	H	0.355609	0.648113	0.314137
	H317	H	0.356912	0.647179	0.309387
	O318	O	0.028583	0.938269	0.048831
	H319	H	0.015704	0.939068	0.039168
	H320	H	0.035718	0.936718	0.048831
	O321	O	1.047871	0.982781	0.030854
	H322	H	1.043316	0.980121	0.032678
	H323	H	1.052867	0.978439	0.030487
