data_Molecule from HDF5

_cell_length_a		16.228323
_cell_length_b		16.305418
_cell_length_c		16.227599
_cell_angle_alpha	90.047056
_cell_angle_beta	89.907491
_cell_angle_gamma	90.020625
_symmetry_space_group_name_H-M	'P 1'
_symmetry_Int_Tables_number		1

loop_
	_symmetry_equiv_pos_as_xyz
	x,y,z

loop_
	_atom_site_label
	_atom_site_type_symbol
	_atom_site_fract_x
	_atom_site_fract_y
	_atom_site_fract_z
	H0	H	0.403122	0.837007	0.715071
	H1	H	0.599135	0.165271	0.715648
	H2	H	0.599981	0.838696	0.286231
	H3	H	0.402188	0.165102	0.286860
	H4	H	0.712918	0.404475	0.837141
	H5	H	0.713051	0.599749	0.165903
	H6	H	0.285767	0.599877	0.836211
	H7	H	0.286088	0.403828	0.166158
	H8	H	0.836982	0.716929	0.401792
	H9	H	0.164649	0.715405	0.600295
	H10	H	0.835970	0.286227	0.598826
	H11	H	0.164638	0.286631	0.400911
	H12	H	0.835661	0.402033	0.715767
	H13	H	0.164767	0.597669	0.714835
	H14	H	0.834706	0.598246	0.289173
	H15	H	0.164669	0.403279	0.286532
	H16	H	0.401614	0.715895	0.836713
	H17	H	0.598571	0.716032	0.164957
	H18	H	0.599586	0.286717	0.837453
	H19	H	0.399347	0.285843	0.165060
	H20	H	0.713456	0.837849	0.404423
	H21	H	0.715759	0.165234	0.599320
	H22	H	0.285695	0.837977	0.599305
	H23	H	0.288091	0.165642	0.404875
	H24	H	0.901704	0.336949	0.214448
	H25	H	0.097519	0.665270	0.215278
	H26	H	0.098726	0.336603	0.787495
	H27	H	0.900858	0.664059	0.786105
	H28	H	0.214946	0.904059	0.336018
	H29	H	0.214235	0.099763	0.665658
	H30	H	0.788557	0.098479	0.336645
	H31	H	0.787291	0.904435	0.665287
	H32	H	0.336554	0.214728	0.903704
	H33	H	0.664269	0.216063	0.100232
	H34	H	0.335297	0.787563	0.099383
	H35	H	0.664036	0.786255	0.901389
	H36	H	0.336358	0.902903	0.216817
	H37	H	0.665603	0.097839	0.213328
	H38	H	0.336840	0.099174	0.788102
	H39	H	0.665641	0.903055	0.788039
	H40	H	0.902109	0.215524	0.336119
	H41	H	0.098783	0.215497	0.665063
	H42	H	0.100433	0.786124	0.336957
	H43	H	0.901115	0.786718	0.664942
	H44	H	0.215783	0.338107	0.902031
	H45	H	0.214567	0.664899	0.099671
	H46	H	0.785178	0.337564	0.098864
	H47	H	0.785902	0.665271	0.903464
	H48	H	0.409520	0.117445	0.594032
	H49	H	0.589511	0.887841	0.591681
	H50	H	0.600846	0.119558	0.412056
	H51	H	0.407886	0.885156	0.408451
	H52	H	0.595086	0.399105	0.121935
	H53	H	0.591106	0.588838	0.886267
	H54	H	0.412436	0.594662	0.115637
	H55	H	0.413645	0.411760	0.887770
	H56	H	0.118968	0.601397	0.408405
	H57	H	0.883735	0.594495	0.593823
	H58	H	0.116158	0.402804	0.585975
	H59	H	0.881877	0.404786	0.405119
	H60	H	0.114240	0.416804	0.593502
	H61	H	0.883646	0.593820	0.593994
	H62	H	0.113866	0.590625	0.413841
	H63	H	0.884019	0.405476	0.412127
	H64	H	0.403803	0.600421	0.119991
	H65	H	0.588697	0.598406	0.883841
	H66	H	0.599062	0.414825	0.118862
	H67	H	0.408699	0.400435	0.883223
	H68	H	0.595850	0.120661	0.400518
	H69	H	0.600601	0.883938	0.591493
	H70	H	0.406007	0.117643	0.595198
	H71	H	0.409173	0.885396	0.408471
	H72	H	0.905331	0.615987	0.088846
	H73	H	0.083983	0.384963	0.102008
	H74	H	0.089054	0.614690	0.914786
	H75	H	0.915233	0.385871	0.904862
	H76	H	0.093688	0.906552	0.618535
	H77	H	0.097826	0.090273	0.384002
	H78	H	0.900462	0.091970	0.618638
	H79	H	0.913582	0.911875	0.386472
	H80	H	0.622582	0.108065	0.907740
	H81	H	0.384453	0.096413	0.090246
	H82	H	0.612950	0.916155	0.087680
	H83	H	0.382253	0.898653	0.915296
	H84	H	0.620160	0.909353	0.104224
	H85	H	0.384661	0.089481	0.094857
	H86	H	0.613657	0.089709	0.921017
	H87	H	0.388131	0.917545	0.913426
	H88	H	0.914945	0.089807	0.614819
	H89	H	0.089466	0.095080	0.385198
	H90	H	0.094260	0.910209	0.616799
	H91	H	0.908449	0.899959	0.381329
	H92	H	0.100249	0.618959	0.908363
	H93	H	0.092255	0.387914	0.083142
	H94	H	0.901187	0.620489	0.099016
	H95	H	0.905584	0.386718	0.917864
	H96	H	0.408814	0.117635	0.598008
	H97	H	0.593965	0.883463	0.601120
	H98	H	0.588022	0.116719	0.409924
	H99	H	0.408439	0.885932	0.409716
	H100	H	0.584122	0.409394	0.116516
	H101	H	0.598319	0.595214	0.882293
	H102	H	0.403279	0.589680	0.117284
	H103	H	0.400949	0.410804	0.883066
	H104	H	0.118483	0.590516	0.401289
	H105	H	0.883095	0.593840	0.594257
	H106	H	0.120268	0.404872	0.601658
	H107	H	0.884619	0.411574	0.407813
	H108	H	0.912383	0.616112	0.097890
	H109	H	0.104257	0.380913	0.098797
	H110	H	0.088943	0.617758	0.901486
	H111	H	0.899537	0.381729	0.903929
	H112	H	0.090447	0.908148	0.616602
	H113	H	0.096594	0.099356	0.381552
	H114	H	0.910552	0.102857	0.620341
	H115	H	0.900739	0.911125	0.381948
	H116	H	0.619012	0.086439	0.896816
	H117	H	0.381731	0.096502	0.097939
	H118	H	0.618674	0.897801	0.089246
	H119	H	0.380210	0.907895	0.897621
	C120	C	0.379087	0.009659	0.624125
	C121	C	0.623142	0.992984	0.623420
	C122	C	0.622776	0.010688	0.379493
	C123	C	0.379807	0.993417	0.380215
	C124	C	0.621276	0.379681	0.010271
	C125	C	0.621030	0.622389	0.992830
	C126	C	0.378247	0.623287	0.009066
	C127	C	0.378648	0.379458	0.993219
	C128	C	0.008320	0.622415	0.379781
	C129	C	0.991993	0.622522	0.622897
	C130	C	0.008398	0.379225	0.622342
	C131	C	0.992133	0.379071	0.379529
	C132	C	0.877541	0.509691	0.123340
	C133	C	0.121739	0.492930	0.123001
	C134	C	0.121749	0.509101	0.879575
	C135	C	0.878097	0.492828	0.879999
	C136	C	0.122251	0.879547	0.509119
	C137	C	0.122869	0.123394	0.492328
	C138	C	0.880053	0.122593	0.509197
	C139	C	0.879046	0.879761	0.492226
	C140	C	0.509581	0.123074	0.880343
	C141	C	0.492030	0.122460	0.122624
	C142	C	0.508700	0.879127	0.122960
	C143	C	0.492559	0.879876	0.880158
	C144	C	0.381831	0.886254	0.678116
	C145	C	0.619818	0.116493	0.677734
	C146	C	0.620276	0.887122	0.324594
	C147	C	0.381882	0.116410	0.324899
	C148	C	0.675684	0.383005	0.886236
	C149	C	0.675410	0.620069	0.116691
	C150	C	0.323712	0.620203	0.885281
	C151	C	0.323604	0.382983	0.116996
	C152	C	0.885311	0.678271	0.381871
	C153	C	0.115587	0.677710	0.620841
	C154	C	0.884873	0.323961	0.619844
	C155	C	0.115709	0.324237	0.381240
	C156	C	0.884729	0.381614	0.677685
	C157	C	0.115795	0.619134	0.677565
	C158	C	0.884086	0.619262	0.325861
	C159	C	0.115793	0.382492	0.324309
	C160	C	0.380912	0.677982	0.885667
	C161	C	0.618722	0.678032	0.116079
	C162	C	0.619222	0.324706	0.886438
	C163	C	0.379834	0.324168	0.116465
	C164	C	0.676931	0.887054	0.382925
	C165	C	0.677731	0.116463	0.619981
	C166	C	0.323698	0.886529	0.620375
	C167	C	0.325200	0.116770	0.383588
	C168	C	0.880540	0.385941	0.177238
	C169	C	0.118317	0.616393	0.177656
	C170	C	0.119215	0.385921	0.824840
	C171	C	0.880411	0.615475	0.824229
	C172	C	0.177700	0.882647	0.385381
	C173	C	0.176937	0.120450	0.616344
	C174	C	0.825573	0.119368	0.385555
	C175	C	0.824175	0.882979	0.615950
	C176	C	0.385917	0.177628	0.882794
	C177	C	0.615536	0.177583	0.120161
	C178	C	0.384811	0.824794	0.120138
	C179	C	0.615487	0.824723	0.881867
	C180	C	0.385155	0.882218	0.178226
	C181	C	0.616320	0.119098	0.176532
	C182	C	0.385982	0.119955	0.825604
	C183	C	0.616142	0.882783	0.825419
	C184	C	0.882304	0.177399	0.385317
	C185	C	0.120060	0.178257	0.615836
	C186	C	0.120488	0.824400	0.385599
	C187	C	0.881004	0.824520	0.615853
	C188	C	0.177254	0.386493	0.881812
	C189	C	0.176539	0.616227	0.120071
	C190	C	0.822874	0.386267	0.119933
	C191	C	0.823290	0.616093	0.882614
	C192	C	0.401469	0.095466	0.602170
	C193	C	0.601284	0.907236	0.601214
	C194	C	0.601279	0.096453	0.401058
	C195	C	0.401964	0.907645	0.402451
	C196	C	0.599296	0.401373	0.096698
	C197	C	0.599213	0.600593	0.906366
	C198	C	0.400209	0.601632	0.095525
	C199	C	0.401037	0.401226	0.906927
	C200	C	0.094672	0.600581	0.401509
	C201	C	0.905879	0.600610	0.600590
	C202	C	0.094644	0.401599	0.600086
	C203	C	0.905726	0.400909	0.401843
	C204	C	0.899771	0.595415	0.101613
	C205	C	0.100053	0.406860	0.101168
	C206	C	0.099310	0.595076	0.901724
	C207	C	0.900148	0.406879	0.902262
	C208	C	0.099545	0.901670	0.595142
	C209	C	0.101153	0.101280	0.405948
	C210	C	0.902086	0.101086	0.595666
	C211	C	0.901192	0.901274	0.405655
	C212	C	0.596103	0.101414	0.902198
	C213	C	0.405933	0.100409	0.100978
	C214	C	0.595016	0.901225	0.100433
	C215	C	0.405804	0.901763	0.902268
	Zn216	Zn	0.501454	0.001099	0.752601
	Zn217	Zn	0.500801	0.001297	0.251152
	Zn218	Zn	0.748923	0.501119	0.001820
	Zn219	Zn	0.250188	0.501103	0.000831
	Zn220	Zn	0.000827	0.750906	0.500819
	Zn221	Zn	0.000981	0.250647	0.500589
	Zn222	Zn	0.000235	0.500719	0.751210
	Zn223	Zn	-0.000381	0.500910	0.251296
	Zn224	Zn	0.500145	0.751109	0.000894
	Zn225	Zn	0.500474	0.251186	0.002123
	Zn226	Zn	0.751445	0.001817	0.500957
	Zn227	Zn	0.250533	0.001550	0.501396
	N228	N	0.415598	0.963756	0.680382
	N229	N	0.586440	0.038925	0.679964
	N230	N	0.587355	0.964666	0.322203
	N231	N	0.415018	0.038763	0.322775
	N232	N	0.676976	0.416429	0.964047
	N233	N	0.676846	0.586225	0.039079
	N234	N	0.321805	0.586875	0.963251
	N235	N	0.322826	0.416805	0.039283
	N236	N	0.963271	0.679875	0.414945
	N237	N	0.037645	0.679803	0.587417
	N238	N	0.962578	0.322441	0.586138
	N239	N	0.037717	0.321994	0.414577
	N240	N	0.962461	0.415405	0.679056
	N241	N	0.037988	0.585818	0.679134
	N242	N	0.961779	0.585319	0.324293
	N243	N	0.037842	0.415630	0.322876
	N244	N	0.414067	0.679994	0.963515
	N245	N	0.585441	0.679577	0.038055
	N246	N	0.585998	0.322655	0.964686
	N247	N	0.413376	0.322035	0.038674
	N248	N	0.678683	0.964710	0.416320
	N249	N	0.679843	0.038726	0.586993
	N250	N	0.321724	0.964239	0.587695
	N251	N	0.323730	0.039186	0.417103
	N252	N	0.914071	0.463419	0.179471
	N253	N	0.084893	0.538686	0.179543
	N254	N	0.085599	0.463429	0.823154
	N255	N	0.913817	0.537990	0.822599
	N256	N	0.179002	0.916202	0.463244
	N257	N	0.178853	0.086960	0.538475
	N258	N	0.824126	0.086034	0.463478
	N259	N	0.823221	0.916576	0.538215
	N260	N	0.463795	0.179471	0.916246
	N261	N	0.537399	0.179725	0.087464
	N262	N	0.462790	0.822695	0.086600
	N263	N	0.537386	0.822632	0.914999
	N264	N	0.463087	0.915223	0.179931
	N265	N	0.538577	0.085373	0.178192
	N266	N	0.463950	0.086640	0.823928
	N267	N	0.538391	0.916209	0.824414
	N268	N	0.915591	0.179333	0.463225
	N269	N	0.087162	0.180099	0.537780
	N270	N	0.086762	0.822487	0.463318
	N271	N	0.914618	0.822541	0.537922
	N272	N	0.178878	0.464070	0.915044
	N273	N	0.178796	0.538505	0.087107
	N274	N	0.820855	0.464166	0.087282
	N275	N	0.821767	0.538782	0.916657
	O276	O	0.064843	-0.039808	0.931913
	H277	H	0.056826	-0.042353	0.925927
	H278	H	0.062844	-0.044431	0.929713
	O279	O	0.509949	0.532219	0.504364
	H280	H	0.506560	0.528694	0.501752
	H281	H	0.516190	0.535896	0.508284
	O282	O	0.462993	0.576088	0.463959
	H283	H	0.452554	0.571486	0.461494
	H284	H	0.474309	0.577068	0.470917
	O285	O	0.497377	0.554941	0.462643
	H286	H	0.488539	0.564547	0.457610
	H287	H	0.491329	0.555451	0.451478
	O288	O	0.480653	0.552034	0.464610
	H289	H	0.485890	0.543226	0.471720
	H290	H	0.484719	0.558257	0.468251
	O291	O	0.078880	0.943282	0.911716
	H292	H	0.076319	0.947085	0.917672
	H293	H	0.084191	0.941497	0.910818
	O294	O	0.460855	0.549308	0.441346
	H295	H	0.460320	0.561687	0.434572
	H296	H	0.457786	0.543178	0.439668
	O297	O	1.040962	-0.036221	-0.075561
	H298	H	1.046605	-0.041210	-0.083732
	H299	H	1.047469	-0.035269	-0.078788
