data_Molecule from HDF5

_cell_length_a		16.282575
_cell_length_b		16.151524
_cell_length_c		16.116396
_cell_angle_alpha	90.454711
_cell_angle_beta	90.182410
_cell_angle_gamma	89.669674
_symmetry_space_group_name_H-M	'P 1'
_symmetry_Int_Tables_number		1

loop_
	_symmetry_equiv_pos_as_xyz
	x,y,z

loop_
	_atom_site_label
	_atom_site_type_symbol
	_atom_site_fract_x
	_atom_site_fract_y
	_atom_site_fract_z
	H0	H	0.412370	0.838962	0.707521
	H1	H	0.601725	0.170481	0.713733
	H2	H	0.602965	0.840885	0.284103
	H3	H	0.405050	0.171262	0.287961
	H4	H	0.719679	0.403524	0.832174
	H5	H	0.723576	0.607209	0.161056
	H6	H	0.290960	0.605447	0.833083
	H7	H	0.293794	0.408879	0.162229
	H8	H	0.841620	0.718645	0.399342
	H9	H	0.171049	0.718976	0.596392
	H10	H	0.841316	0.293119	0.592606
	H11	H	0.170137	0.288888	0.397960
	H12	H	0.841926	0.408770	0.709664
	H13	H	0.171087	0.603153	0.712034
	H14	H	0.842356	0.603047	0.281987
	H15	H	0.170818	0.404302	0.283237
	H16	H	0.407770	0.718027	0.832402
	H17	H	0.605935	0.720961	0.162324
	H18	H	0.603936	0.289488	0.833333
	H19	H	0.410573	0.297567	0.164595
	H20	H	0.721974	0.841420	0.396265
	H21	H	0.719785	0.170122	0.602032
	H22	H	0.293242	0.840550	0.597470
	H23	H	0.291007	0.169677	0.401781
	H24	H	0.911626	0.338905	0.206624
	H25	H	0.103628	0.670085	0.211222
	H26	H	0.104013	0.339913	0.784561
	H27	H	0.907172	0.671126	0.785217
	H28	H	0.220162	0.903138	0.333639
	H29	H	0.218763	0.104191	0.663862
	H30	H	0.786580	0.106116	0.334375
	H31	H	0.793455	0.907139	0.663462
	H32	H	0.341174	0.219625	0.901771
	H33	H	0.670159	0.220819	0.099652
	H34	H	0.343155	0.793012	0.096201
	H35	H	0.669630	0.789152	0.898004
	H36	H	0.340855	0.911867	0.209471
	H37	H	0.669157	0.106687	0.217517
	H38	H	0.340742	0.102912	0.786003
	H39	H	0.670496	0.906414	0.785357
	H40	H	0.907717	0.215016	0.330398
	H41	H	0.102846	0.219636	0.662543
	H42	H	0.103049	0.791750	0.332377
	H43	H	0.909455	0.793963	0.663183
	H44	H	0.222349	0.341046	0.896652
	H45	H	0.219016	0.670338	0.097772
	H46	H	0.793944	0.340760	0.094678
	H47	H	0.788789	0.669250	0.895391
	H48	H	0.417542	0.119332	0.584514
	H49	H	0.604400	0.885377	0.595527
	H50	H	0.595389	0.122730	0.410554
	H51	H	0.420116	0.890447	0.410093
	H52	H	0.593915	0.418611	0.112875
	H53	H	0.597724	0.602076	0.877132
	H54	H	0.413592	0.606166	0.118454
	H55	H	0.416149	0.407482	0.877834
	H56	H	0.122252	0.600686	0.410770
	H57	H	0.890685	0.595428	0.589688
	H58	H	0.121632	0.421659	0.594321
	H59	H	0.890373	0.415438	0.402902
	H60	H	0.126563	0.403544	0.596478
	H61	H	0.887389	0.603225	0.596113
	H62	H	0.122652	0.591444	0.402489
	H63	H	0.886848	0.410520	0.395243
	H64	H	0.407192	0.599031	0.117944
	H65	H	0.603866	0.594701	0.877879
	H66	H	0.601916	0.406419	0.119132
	H67	H	0.407822	0.412166	0.876859
	H68	H	0.598305	0.123260	0.410622
	H69	H	0.596266	0.887445	0.590746
	H70	H	0.400554	0.126913	0.590435
	H71	H	0.402696	0.884457	0.407021
	H72	H	0.914216	0.623807	0.088745
	H73	H	0.102675	0.388208	0.083730
	H74	H	0.114157	0.627170	0.909791
	H75	H	0.907965	0.388489	0.911301
	H76	H	0.092843	0.924949	0.611445
	H77	H	0.101424	0.097817	0.378789
	H78	H	0.906329	0.096541	0.617425
	H79	H	0.909887	0.916448	0.379352
	H80	H	0.622419	0.093430	0.903000
	H81	H	0.388917	0.106940	0.088322
	H82	H	0.623607	0.920401	0.098125
	H83	H	0.388740	0.912921	0.903042
	H84	H	0.626411	0.904877	0.092648
	H85	H	0.390397	0.097410	0.093014
	H86	H	0.625781	0.104654	0.902524
	H87	H	0.387994	0.910215	0.901417
	H88	H	0.919723	0.096173	0.612610
	H89	H	0.101415	0.096897	0.377094
	H90	H	0.093350	0.899303	0.619176
	H91	H	0.915685	0.912487	0.380773
	H92	H	0.097592	0.627435	0.891056
	H93	H	0.108929	0.384240	0.090560
	H94	H	0.912416	0.623450	0.089617
	H95	H	0.908386	0.382962	0.894191
	H96	H	0.414788	0.125767	0.603214
	H97	H	0.604433	0.887728	0.586431
	H98	H	0.596809	0.124514	0.407929
	H99	H	0.415069	0.884314	0.393973
	H100	H	0.609800	0.420071	0.116695
	H101	H	0.594837	0.594260	0.880835
	H102	H	0.416879	0.598175	0.115240
	H103	H	0.414771	0.416910	0.881075
	H104	H	0.126349	0.602730	0.399150
	H105	H	0.889406	0.604484	0.585915
	H106	H	0.121026	0.409587	0.579200
	H107	H	0.888255	0.407079	0.402850
	H108	H	0.913870	0.622849	0.090686
	H109	H	0.099547	0.386185	0.092809
	H110	H	0.090345	0.619057	0.914490
	H111	H	0.924000	0.389753	0.902516
	H112	H	0.115320	0.913786	0.620643
	H113	H	0.100688	0.096713	0.378505
	H114	H	0.915124	0.107968	0.618416
	H115	H	0.909984	0.909404	0.378460
	H116	H	0.621423	0.099897	0.912928
	H117	H	0.386167	0.106471	0.098508
	H118	H	0.619689	0.916334	0.082737
	H119	H	0.388424	0.910942	0.904221
	C120	C	0.384170	0.014287	0.620390
	C121	C	0.628606	0.996036	0.621054
	C122	C	0.626364	0.014560	0.378929
	C123	C	0.384030	0.996262	0.376939
	C124	C	0.629106	0.384281	0.007102
	C125	C	0.628350	0.626775	0.987871
	C126	C	0.384229	0.628090	0.007069
	C127	C	0.385968	0.385845	0.988826
	C128	C	0.015035	0.626930	0.375052
	C129	C	0.998000	0.628490	0.619257
	C130	C	0.014557	0.384322	0.617861
	C131	C	0.997387	0.382254	0.372902
	C132	C	0.885761	0.514099	0.117576
	C133	C	0.129700	0.496104	0.118383
	C134	C	0.128900	0.514749	0.876043
	C135	C	0.884736	0.496838	0.874928
	C136	C	0.128140	0.883490	0.507454
	C137	C	0.127982	0.126175	0.488273
	C138	C	0.883893	0.127673	0.506550
	C139	C	0.884431	0.884745	0.488861
	C140	C	0.514156	0.127237	0.877734
	C141	C	0.497035	0.130969	0.122849
	C142	C	0.514860	0.885930	0.119303
	C143	C	0.497090	0.882743	0.875152
	C144	C	0.389902	0.889033	0.672099
	C145	C	0.623579	0.121076	0.676364
	C146	C	0.623920	0.890215	0.322035
	C147	C	0.385463	0.121314	0.324313
	C148	C	0.682616	0.384207	0.882036
	C149	C	0.684953	0.626512	0.112124
	C150	C	0.329093	0.625047	0.882409
	C151	C	0.331524	0.388838	0.113326
	C152	C	0.891105	0.681590	0.378005
	C153	C	0.121725	0.682132	0.616828
	C154	C	0.890562	0.330574	0.613836
	C155	C	0.121077	0.326623	0.376757
	C156	C	0.890942	0.387970	0.672091
	C157	C	0.121680	0.624478	0.674480
	C158	C	0.891388	0.623813	0.319951
	C159	C	0.121452	0.384314	0.320027
	C160	C	0.387038	0.681135	0.882020
	C161	C	0.626323	0.682651	0.112784
	C162	C	0.625062	0.327456	0.882624
	C163	C	0.389621	0.333709	0.114416
	C164	C	0.682777	0.890428	0.377994
	C165	C	0.682180	0.120782	0.620829
	C166	C	0.330833	0.889863	0.617392
	C167	C	0.328582	0.120470	0.381029
	C168	C	0.890391	0.388808	0.170045
	C169	C	0.124492	0.620665	0.173705
	C170	C	0.125338	0.389907	0.820971
	C171	C	0.886969	0.621388	0.821764
	C172	C	0.182444	0.884046	0.382846
	C173	C	0.181736	0.124396	0.613729
	C174	C	0.826116	0.125368	0.382981
	C175	C	0.830696	0.887010	0.613833
	C176	C	0.390241	0.181968	0.880829
	C177	C	0.620978	0.184018	0.120553
	C178	C	0.391563	0.831064	0.116258
	C179	C	0.620569	0.827132	0.877565
	C180	C	0.390433	0.890388	0.172412
	C181	C	0.620268	0.127264	0.179068
	C182	C	0.390187	0.123836	0.823139
	C183	C	0.621087	0.885434	0.821553
	C184	C	0.886243	0.179494	0.380805
	C185	C	0.124246	0.182024	0.613041
	C186	C	0.124067	0.828754	0.382094
	C187	C	0.888542	0.830768	0.613660
	C188	C	0.183981	0.390162	0.876951
	C189	C	0.182097	0.620937	0.117283
	C190	C	0.831585	0.389743	0.114737
	C191	C	0.828049	0.620574	0.876591
	C192	C	0.404832	0.101444	0.599288
	C193	C	0.607837	0.909405	0.597891
	C194	C	0.603786	0.101071	0.402842
	C195	C	0.406046	0.908951	0.397506
	C196	C	0.608179	0.408113	0.093766
	C197	C	0.605598	0.603710	0.901078
	C198	C	0.406065	0.607234	0.094662
	C199	C	0.406720	0.406158	0.901396
	C200	C	0.101493	0.604770	0.397428
	C201	C	0.911544	0.607378	0.597095
	C202	C	0.100730	0.405348	0.596150
	C203	C	0.910894	0.404345	0.394076
	C204	C	0.907029	0.600849	0.096109
	C205	C	0.109713	0.408911	0.095697
	C206	C	0.107350	0.602029	0.898592
	C207	C	0.906858	0.409643	0.896483
	C208	C	0.106818	0.906021	0.594544
	C209	C	0.107015	0.103780	0.400810
	C210	C	0.906844	0.106421	0.593544
	C211	C	0.905589	0.906346	0.402088
	C212	C	0.600916	0.105660	0.899674
	C213	C	0.410806	0.109955	0.100027
	C214	C	0.601155	0.907460	0.097713
	C215	C	0.410700	0.904842	0.896592
	Zn216	Zn	0.506089	0.004954	0.748022
	Zn217	Zn	0.505406	0.007113	0.249829
	Zn218	Zn	0.757000	0.505378	-0.003395
	Zn219	Zn	0.257583	0.505899	-0.002400
	Zn220	Zn	0.006228	0.756784	0.496939
	Zn221	Zn	0.005686	0.254882	0.495199
	Zn222	Zn	0.006464	0.506190	0.747742
	Zn223	Zn	0.007255	0.504263	0.245422
	Zn224	Zn	0.506577	0.755182	-0.002375
	Zn225	Zn	0.506380	0.257747	-0.000773
	Zn226	Zn	0.756398	0.005885	0.499178
	Zn227	Zn	0.256349	0.004167	0.498432
	N228	N	0.422214	0.967541	0.674299
	N229	N	0.590910	0.042704	0.676726
	N230	N	0.589517	0.968433	0.322362
	N231	N	0.419548	0.043013	0.321824
	N232	N	0.685429	0.418591	0.960480
	N233	N	0.686321	0.592478	0.033498
	N234	N	0.327193	0.592733	0.961354
	N235	N	0.329221	0.420673	0.034195
	N236	N	0.969047	0.683689	0.411512
	N237	N	0.043789	0.684743	0.583232
	N238	N	0.968329	0.328302	0.580576
	N239	N	0.042852	0.325011	0.408816
	N240	N	0.969039	0.420429	0.674997
	N241	N	0.043652	0.592016	0.676286
	N242	N	0.969572	0.590682	0.318039
	N243	N	0.043704	0.418271	0.317506
	N244	N	0.420713	0.683242	0.960484
	N245	N	0.591891	0.682840	0.034600
	N246	N	0.592829	0.327002	0.961411
	N247	N	0.422751	0.331539	0.036058
	N248	N	0.684404	0.968749	0.412482
	N249	N	0.685481	0.042202	0.587076
	N250	N	0.326852	0.968850	0.586086
	N251	N	0.327470	0.041641	0.412993
	N252	N	0.923292	0.466940	0.171948
	N253	N	0.092538	0.542029	0.174519
	N254	N	0.091886	0.468494	0.820175
	N255	N	0.921494	0.543330	0.820662
	N256	N	0.185130	0.917339	0.461766
	N257	N	0.184304	0.090565	0.535189
	N258	N	0.824487	0.094027	0.462321
	N259	N	0.828070	0.920051	0.535348
	N260	N	0.468408	0.184331	0.914145
	N261	N	0.543292	0.186770	0.086535
	N262	N	0.469803	0.828169	0.083850
	N263	N	0.542515	0.825243	0.910086
	N264	N	0.468102	0.923911	0.174305
	N265	N	0.542266	0.095002	0.180635
	N266	N	0.468332	0.090547	0.821267
	N267	N	0.543255	0.919346	0.819698
	N268	N	0.921723	0.181042	0.458547
	N269	N	0.091731	0.183590	0.534058
	N270	N	0.091003	0.828235	0.460599
	N271	N	0.921282	0.829175	0.535020
	N272	N	0.186450	0.468891	0.910418
	N273	N	0.185633	0.542304	0.083784
	N274	N	0.828626	0.468562	0.082543
	N275	N	0.826801	0.542177	0.909322
	O276	O	-0.035262	-0.023721	-0.037574
	H277	H	-0.040016	-0.023888	-0.024867
	H278	H	-0.035083	-0.020460	-0.042852
	O279	O	0.495347	0.507044	0.463529
	H280	H	0.496395	0.497890	0.458574
	H281	H	0.488645	0.513619	0.459634
	O282	O	0.420535	0.490259	0.482122
	H283	H	0.429892	0.482123	0.477471
	H284	H	0.412198	0.492463	0.485609
	O285	O	1.004064	0.123458	0.984150
	H286	H	0.998900	0.124770	0.982294
	H287	H	0.988914	0.123142	0.983539
	O288	O	1.044905	-0.093361	-0.067476
	H289	H	1.046512	-0.094297	-0.070474
	H290	H	1.058439	-0.095701	-0.065762
	O291	O	0.514911	0.484322	0.482420
	H292	H	0.507654	0.486889	0.475967
	H293	H	0.513804	0.486480	0.481993
	O294	O	1.006157	-0.023069	0.984631
	H295	H	1.007033	-0.025030	0.986708
	H296	H	1.012439	-0.023197	0.987450
	O297	O	-0.017223	0.042604	-0.011145
	H298	H	-0.029531	0.047812	-0.010876
	H299	H	-0.017988	0.049258	-0.000416
	O300	O	0.568988	0.448417	0.446893
	H301	H	0.576735	0.440437	0.452649
	H302	H	0.583932	0.458333	0.446603
	O303	O	0.455349	0.451921	0.573723
	H304	H	0.451116	0.441285	0.579681
	H305	H	0.454165	0.441831	0.580979
	O306	O	1.008514	0.006111	-0.014577
	H307	H	1.008015	0.004380	-0.000861
	H308	H	1.008195	0.006004	-0.016217
	O309	O	-0.018070	0.048914	0.970793
	H310	H	-0.025265	0.051040	0.976681
	H311	H	-0.012792	0.054590	0.963593
	O312	O	0.973354	0.990793	0.972256
	H313	H	0.970361	0.989303	0.963366
	H314	H	0.975670	0.997491	0.970198
	O315	O	0.511354	0.413705	0.476221
	H316	H	0.511667	0.413275	0.474418
	H317	H	0.524605	0.407565	0.467963
	O318	O	0.500165	0.514755	0.466866
	H319	H	0.499793	0.515548	0.474326
	H320	H	0.504325	0.509215	0.464171
	O321	O	-0.069422	1.012733	0.988399
	H322	H	-0.067332	1.003468	0.984296
	H323	H	-0.072607	1.000169	0.980455
	O324	O	0.565073	0.564637	0.516408
	H325	H	0.558711	0.570816	0.518268
	H326	H	0.566741	0.563227	0.517084
	O327	O	0.552931	0.552443	0.533579
	H328	H	0.542758	0.554553	0.526318
	H329	H	0.555221	0.557144	0.544427
	O330	O	0.548124	0.501144	0.491549
	H331	H	0.544859	0.495924	0.489287
	H332	H	0.543007	0.508201	0.502778
	O333	O	0.453784	0.507813	0.478981
	H334	H	0.442613	0.498290	0.462483
	H335	H	0.454168	0.497119	0.479919
	O336	O	0.465887	0.539307	0.433398
	H337	H	0.467936	0.538937	0.435175
	H338	H	0.472089	0.535515	0.434983
	O339	O	0.994395	1.060882	-0.006241
	H340	H	0.992475	1.061240	-0.009662
	H341	H	0.988771	1.057771	-0.000660
	O342	O	0.522630	0.483594	0.525061
	H343	H	0.505344	0.479115	0.529770
	H344	H	0.528345	0.483631	0.533265
	O345	O	0.480620	0.504843	0.514684
	H346	H	0.485715	0.498612	0.510792
	H347	H	0.482092	0.503680	0.513466
	O348	O	0.019084	-0.048077	0.005282
	H349	H	0.026701	-0.058260	0.002779
	H350	H	0.024528	-0.053733	-0.002897
	O351	O	-0.059354	1.018605	1.028990
	H352	H	-0.056670	1.020371	1.029152
	H353	H	-0.056189	1.015379	1.028226
	O354	O	0.464205	0.433123	0.566293
	H355	H	0.460117	0.436239	0.568096
	H356	H	0.462248	0.453962	0.568660
	O357	O	0.025656	0.943242	1.048505
	H358	H	0.024749	0.942286	1.052827
	H359	H	0.027211	0.952064	1.047117
