data_Molecule from HDF5

_cell_length_a		16.220616
_cell_length_b		16.099411
_cell_length_c		16.322343
_cell_angle_alpha	90.432448
_cell_angle_beta	89.982243
_cell_angle_gamma	90.618822
_symmetry_space_group_name_H-M	'P 1'
_symmetry_Int_Tables_number		1

loop_
	_symmetry_equiv_pos_as_xyz
	x,y,z

loop_
	_atom_site_label
	_atom_site_type_symbol
	_atom_site_fract_x
	_atom_site_fract_y
	_atom_site_fract_z
	H0	H	0.403670	0.837372	0.704097
	H1	H	0.606145	0.168337	0.706325
	H2	H	0.603506	0.839169	0.273557
	H3	H	0.405377	0.167744	0.277558
	H4	H	0.722312	0.403966	0.828156
	H5	H	0.725177	0.607519	0.154116
	H6	H	0.294863	0.601628	0.827704
	H7	H	0.292413	0.404494	0.153719
	H8	H	0.840621	0.709563	0.396642
	H9	H	0.170941	0.720629	0.589893
	H10	H	0.841310	0.289303	0.586423
	H11	H	0.171231	0.291128	0.393185
	H12	H	0.843761	0.400734	0.707627
	H13	H	0.171318	0.605435	0.705823
	H14	H	0.844568	0.601016	0.273889
	H15	H	0.170791	0.401653	0.275167
	H16	H	0.415494	0.712298	0.825847
	H17	H	0.609061	0.722000	0.154076
	H18	H	0.603534	0.290234	0.827008
	H19	H	0.406900	0.289448	0.154221
	H20	H	0.716569	0.836990	0.392013
	H21	H	0.721471	0.168190	0.591512
	H22	H	0.289111	0.837458	0.588467
	H23	H	0.294308	0.168457	0.394802
	H24	H	0.907564	0.337575	0.202466
	H25	H	0.111074	0.666942	0.208234
	H26	H	0.107297	0.338892	0.773827
	H27	H	0.911469	0.668960	0.779282
	H28	H	0.219855	0.901679	0.328004
	H29	H	0.222557	0.105805	0.653291
	H30	H	0.790127	0.101191	0.328615
	H31	H	0.790063	0.904125	0.654696
	H32	H	0.341463	0.212571	0.896094
	H33	H	0.671711	0.218543	0.088302
	H34	H	0.343038	0.788350	0.085155
	H35	H	0.673511	0.793953	0.892180
	H36	H	0.342026	0.901361	0.203709
	H37	H	0.668412	0.109769	0.210702
	H38	H	0.342755	0.101109	0.776246
	H39	H	0.669335	0.903026	0.772046
	H40	H	0.908948	0.214007	0.326560
	H41	H	0.105216	0.220013	0.653537
	H42	H	0.100962	0.788869	0.327755
	H43	H	0.906144	0.789393	0.655710
	H44	H	0.218247	0.336533	0.893027
	H45	H	0.223362	0.668999	0.090108
	H46	H	0.790909	0.338638	0.089705
	H47	H	0.798281	0.669675	0.894437
	H48	H	0.424045	0.116820	0.580663
	H49	H	0.598922	0.885723	0.577829
	H50	H	0.596859	0.125974	0.383121
	H51	H	0.417135	0.883028	0.388656
	H52	H	0.599231	0.418477	0.104809
	H53	H	0.604386	0.607349	0.871352
	H54	H	0.412162	0.594532	0.108306
	H55	H	0.417406	0.409239	0.875462
	H56	H	0.120654	0.594052	0.408607
	H57	H	0.883850	0.601469	0.595593
	H58	H	0.127089	0.405771	0.584886
	H59	H	0.888741	0.408419	0.394771
	H60	H	0.120453	0.414925	0.576614
	H61	H	0.891350	0.598174	0.577819
	H62	H	0.124320	0.588998	0.392123
	H63	H	0.888654	0.408017	0.396222
	H64	H	0.419853	0.595220	0.106464
	H65	H	0.613579	0.593537	0.872800
	H66	H	0.597105	0.408603	0.108040
	H67	H	0.412049	0.404324	0.872485
	H68	H	0.583562	0.113713	0.410119
	H69	H	0.599357	0.883086	0.586146
	H70	H	0.406472	0.122026	0.580184
	H71	H	0.416266	0.888027	0.404244
	H72	H	0.922128	0.618832	0.080913
	H73	H	0.095237	0.384313	0.087444
	H74	H	0.108768	0.621444	0.904938
	H75	H	0.917977	0.386079	0.898752
	H76	H	0.105700	0.908595	0.611472
	H77	H	0.093393	0.084608	0.378651
	H78	H	0.908755	0.090382	0.607113
	H79	H	0.914173	0.898465	0.374408
	H80	H	0.625476	0.100637	0.898001
	H81	H	0.389787	0.098700	0.078161
	H82	H	0.621258	0.915474	0.076674
	H83	H	0.388087	0.906784	0.892146
	H84	H	0.623074	0.922700	0.088159
	H85	H	0.391320	0.087809	0.086814
	H86	H	0.622582	0.095279	0.901469
	H87	H	0.389103	0.902915	0.899444
	H88	H	0.920983	0.096633	0.605541
	H89	H	0.095075	0.108232	0.372305
	H90	H	0.098145	0.922854	0.605366
	H91	H	0.902325	0.907706	0.372250
	H92	H	0.105528	0.625725	0.891144
	H93	H	0.099437	0.386588	0.076683
	H94	H	0.914712	0.621917	0.083124
	H95	H	0.913963	0.385959	0.900473
	H96	H	0.415915	0.123336	0.594340
	H97	H	0.591294	0.886358	0.582757
	H98	H	0.615346	0.123520	0.409783
	H99	H	0.402007	0.881816	0.396977
	H100	H	0.605958	0.412204	0.109789
	H101	H	0.597360	0.592643	0.877085
	H102	H	0.415965	0.600578	0.107988
	H103	H	0.409999	0.411432	0.873906
	H104	H	0.127672	0.605823	0.397550
	H105	H	0.891709	0.583865	0.589996
	H106	H	0.123774	0.418196	0.588672
	H107	H	0.890115	0.409911	0.395853
	H108	H	0.921276	0.621658	0.088073
	H109	H	0.106109	0.382472	0.084302
	H110	H	0.095973	0.618765	0.899932
	H111	H	0.913359	0.384292	0.895265
	H112	H	0.089402	0.907864	0.606354
	H113	H	0.113753	0.093727	0.370841
	H114	H	0.910418	0.104288	0.609531
	H115	H	0.914644	0.914293	0.378468
	H116	H	0.624129	0.094737	0.894256
	H117	H	0.385546	0.100139	0.091235
	H118	H	0.627248	0.909332	0.087452
	H119	H	0.390617	0.911553	0.899010
	C120	C	0.384915	0.011282	0.612707
	C121	C	0.626932	0.994166	0.612673
	C122	C	0.626647	0.012061	0.370346
	C123	C	0.384018	0.994017	0.369507
	C124	C	0.629004	0.383202	-0.000332
	C125	C	0.632887	0.627460	0.982172
	C126	C	0.388356	0.624295	-0.000848
	C127	C	0.385151	0.380585	0.981911
	C128	C	0.015886	0.623532	0.370310
	C129	C	0.997888	0.625149	0.614929
	C130	C	0.015388	0.381992	0.612443
	C131	C	0.997955	0.380748	0.368038
	C132	C	0.888061	0.511663	0.112192
	C133	C	0.130347	0.493833	0.112598
	C134	C	0.130525	0.512227	0.869520
	C135	C	0.887994	0.494936	0.870655
	C136	C	0.126322	0.882765	0.499774
	C137	C	0.129330	0.125588	0.481664
	C138	C	0.884620	0.124489	0.499484
	C139	C	0.881830	0.879116	0.482975
	C140	C	0.515258	0.124056	0.869971
	C141	C	0.497358	0.126522	0.114240
	C142	C	0.515342	0.883801	0.111555
	C143	C	0.498572	0.880543	0.868284
	C144	C	0.384675	0.886773	0.666735
	C145	C	0.626296	0.118595	0.668707
	C146	C	0.623589	0.887885	0.313240
	C147	C	0.386364	0.118638	0.315641
	C148	C	0.684058	0.384201	0.876674
	C149	C	0.687351	0.626687	0.105386
	C150	C	0.333498	0.621192	0.876279
	C151	C	0.330235	0.383976	0.104957
	C152	C	0.890777	0.674757	0.374107
	C153	C	0.121828	0.682196	0.610949
	C154	C	0.891136	0.326385	0.608387
	C155	C	0.121994	0.327242	0.371589
	C156	C	0.892456	0.381843	0.668619
	C157	C	0.122037	0.625419	0.668875
	C158	C	0.892874	0.620725	0.313227
	C159	C	0.121630	0.382396	0.312903
	C160	C	0.393032	0.676566	0.875295
	C161	C	0.629867	0.684088	0.105245
	C162	C	0.625388	0.327181	0.876332
	C163	C	0.387219	0.326738	0.105305
	C164	C	0.679851	0.887031	0.371818
	C165	C	0.683500	0.118793	0.611592
	C166	C	0.327403	0.886912	0.609463
	C167	C	0.330846	0.118826	0.373683
	C168	C	0.888057	0.387158	0.165681
	C169	C	0.130112	0.617968	0.169466
	C170	C	0.127349	0.387900	0.812907
	C171	C	0.891054	0.619552	0.816512
	C172	C	0.181452	0.882843	0.376928
	C173	C	0.184374	0.125032	0.604593
	C174	C	0.828947	0.121190	0.376870
	C175	C	0.827601	0.883333	0.606049
	C176	C	0.390850	0.176522	0.874284
	C177	C	0.621676	0.182164	0.110575
	C178	C	0.392111	0.826057	0.107346
	C179	C	0.623387	0.829363	0.871215
	C180	C	0.391417	0.882696	0.165822
	C181	C	0.620167	0.127641	0.171201
	C182	C	0.391608	0.121297	0.814666
	C183	C	0.621212	0.883806	0.811579
	C184	C	0.888038	0.177222	0.375675
	C185	C	0.126255	0.182357	0.604499
	C186	C	0.122118	0.826812	0.376631
	C187	C	0.885150	0.825858	0.606371
	C188	C	0.182691	0.386891	0.872125
	C189	C	0.185549	0.619101	0.110466
	C190	C	0.829846	0.388019	0.109648
	C191	C	0.834798	0.619904	0.873997
	C192	C	0.408451	0.098243	0.591269
	C193	C	0.603339	0.907471	0.589255
	C194	C	0.605101	0.098556	0.394036
	C195	C	0.405371	0.906840	0.390447
	C196	C	0.607060	0.406177	0.085361
	C197	C	0.611502	0.604614	0.895955
	C198	C	0.409884	0.603106	0.085395
	C199	C	0.406884	0.401801	0.896234
	C200	C	0.101893	0.602524	0.392694
	C201	C	0.911363	0.601524	0.593885
	C202	C	0.101748	0.405914	0.590040
	C203	C	0.911618	0.402374	0.389407
	C204	C	0.912299	0.598336	0.090486
	C205	C	0.107059	0.406875	0.089801
	C206	C	0.109556	0.599472	0.891953
	C207	C	0.908907	0.408006	0.891826
	C208	C	0.104250	0.906291	0.585597
	C209	C	0.107198	0.102268	0.395738
	C210	C	0.906755	0.103150	0.585218
	C211	C	0.903730	0.900501	0.396999
	C212	C	0.601574	0.103152	0.891513
	C213	C	0.411187	0.102540	0.092117
	C214	C	0.601617	0.908749	0.090347
	C215	C	0.411641	0.900895	0.890320
	Zn216	Zn	0.505867	0.002525	0.741273
	Zn217	Zn	0.505011	0.003922	0.241742
	Zn218	Zn	0.759366	0.504480	-0.008893
	Zn219	Zn	0.258309	0.503198	-0.009062
	Zn220	Zn	0.005285	0.752160	0.492403
	Zn221	Zn	0.006523	0.253686	0.489534
	Zn222	Zn	0.008088	0.503401	0.742375
	Zn223	Zn	0.008598	0.502111	0.240782
	Zn224	Zn	0.509667	0.753653	-0.009611
	Zn225	Zn	0.506815	0.253442	-0.008823
	Zn226	Zn	0.755119	0.002441	0.491808
	Zn227	Zn	0.257169	0.002919	0.490861
	N228	N	0.419506	0.965104	0.668996
	N229	N	0.591840	0.040092	0.669397
	N230	N	0.591225	0.966526	0.312176
	N231	N	0.418713	0.040025	0.312806
	N232	N	0.686578	0.418114	0.954232
	N233	N	0.689460	0.592365	0.027848
	N234	N	0.330397	0.589603	0.954365
	N235	N	0.328725	0.416716	0.027486
	N236	N	0.968107	0.676722	0.408996
	N237	N	0.043558	0.682223	0.578027
	N238	N	0.968636	0.326605	0.573918
	N239	N	0.044128	0.325985	0.405220
	N240	N	0.970949	0.415438	0.671211
	N241	N	0.044176	0.590766	0.671308
	N242	N	0.971570	0.589650	0.310795
	N243	N	0.043513	0.414763	0.310445
	N244	N	0.426538	0.678551	0.952848
	N245	N	0.596851	0.684581	0.027603
	N246	N	0.591857	0.326355	0.953797
	N247	N	0.420867	0.324533	0.027843
	N248	N	0.681957	0.965218	0.406707
	N249	N	0.684267	0.040307	0.577523
	N250	N	0.327598	0.965394	0.576386
	N251	N	0.329284	0.040358	0.406642
	N252	N	0.923504	0.465054	0.167362
	N253	N	0.096214	0.539144	0.170811
	N254	N	0.095622	0.466819	0.811258
	N255	N	0.923416	0.540914	0.814305
	N256	N	0.183850	0.916999	0.454489
	N257	N	0.186502	0.090764	0.527239
	N258	N	0.826897	0.089094	0.454765
	N259	N	0.825376	0.915549	0.528342
	N260	N	0.468668	0.178495	0.908036
	N261	N	0.544322	0.181560	0.075980
	N262	N	0.470136	0.826790	0.074020
	N263	N	0.546117	0.827320	0.905910
	N264	N	0.469151	0.917833	0.168724
	N265	N	0.541781	0.093747	0.173603
	N266	N	0.469817	0.089259	0.812061
	N267	N	0.542431	0.914749	0.809706
	N268	N	0.921941	0.179665	0.453014
	N269	N	0.092602	0.182732	0.527024
	N270	N	0.088458	0.826512	0.454049
	N271	N	0.918259	0.823172	0.528715
	N272	N	0.184633	0.465295	0.906750
	N273	N	0.185840	0.540840	0.075881
	N274	N	0.829705	0.466695	0.077094
	N275	N	0.832586	0.541554	0.907184
	O276	O	1.012105	0.964788	-0.009131
	H277	H	1.013193	0.965754	-0.008343
	H278	H	1.009590	0.966906	-0.014489
	O279	O	-0.019950	-0.006809	1.006515
	H280	H	-0.018487	-0.009559	1.005932
	H281	H	-0.028960	-0.012880	1.005149
	O282	O	-0.044602	0.093589	-0.054241
	H283	H	-0.046704	0.096333	-0.058016
	H284	H	-0.051554	0.096565	-0.045169
	O285	O	0.462955	0.499506	0.516369
	H286	H	0.466567	0.498829	0.510685
	H287	H	0.459491	0.493192	0.520208
	O288	O	-0.010055	-0.016762	0.061603
	H289	H	-0.004419	-0.017250	0.054792
	H290	H	-0.011566	-0.006847	0.067626
	O291	O	0.026084	0.937126	-0.031741
	H292	H	0.031355	0.929929	-0.026293
	H293	H	0.024538	0.942777	-0.027950
	O294	O	0.000954	0.949078	0.043905
	H295	H	-0.007231	0.940325	0.046700
	H296	H	0.009015	0.953982	0.056722
	O297	O	0.510908	0.528377	0.537763
	H298	H	0.512505	0.533665	0.535966
	H299	H	0.504034	0.522419	0.531441
	O300	O	0.525694	0.447134	0.557405
	H301	H	0.529295	0.448397	0.557889
	H302	H	0.527073	0.447605	0.562210
	O303	O	1.018597	0.029703	0.950285
	H304	H	1.009715	0.034985	0.950213
	H305	H	1.009530	0.031258	0.948916
	O306	O	-0.035314	1.017980	1.015995
	H307	H	-0.032121	1.021287	1.019518
	H308	H	-0.026700	1.019782	1.021441
	O309	O	-0.068455	0.981996	1.013432
	H310	H	-0.065106	0.973816	1.011020
	H311	H	-0.074601	0.985616	1.014441
	O312	O	0.032967	0.111723	1.043483
	H313	H	0.035886	0.103950	1.034529
	H314	H	0.035086	0.113206	1.045060
	O315	O	0.452095	0.457373	0.536847
	H316	H	0.454366	0.455189	0.540676
	H317	H	0.456990	0.453639	0.535754
	O318	O	0.004939	-0.017933	0.990943
	H319	H	-0.005700	-0.027638	0.994051
	H320	H	0.006444	-0.020666	0.987468
	O321	O	-0.469844	0.482897	0.455845
	H322	H	-0.474684	0.482378	0.452200
	H323	H	-0.471396	0.485924	0.460940
	O324	O	0.967326	0.032163	0.893064
	H325	H	0.958756	0.029848	0.898522
	H326	H	0.958418	0.031697	0.895186
	O327	O	1.000481	0.992665	0.998290
	H328	H	1.000723	0.984344	0.991735
	H329	H	1.001399	1.000836	0.999378
	O330	O	1.041184	-0.001201	1.027984
	H331	H	1.052624	-0.005132	1.030449
	H332	H	1.051214	-0.000810	1.018668
	O333	O	0.516652	0.487268	0.514610
	H334	H	0.506290	0.482774	0.515750
	H335	H	0.515826	0.489535	0.514892
	O336	O	0.515378	0.478706	0.479093
	H337	H	0.508135	0.479255	0.476703
	H338	H	0.513555	0.483679	0.472897
	O339	O	0.524079	0.428204	0.426350
	H340	H	0.532183	0.423222	0.430507
	H341	H	0.512313	0.422527	0.422172
	O342	O	0.491254	0.435477	0.485366
	H343	H	0.496565	0.435187	0.488105
	H344	H	0.494991	0.435399	0.482883
	O345	O	0.500267	0.361745	0.480871
	H346	H	0.511965	0.349564	0.488232
	H347	H	0.504891	0.367813	0.487954
