data_Molecule from HDF5

_cell_length_a		16.380305
_cell_length_b		16.222801
_cell_length_c		16.177505
_cell_angle_alpha	90.255040
_cell_angle_beta	89.850616
_cell_angle_gamma	89.990407
_symmetry_space_group_name_H-M	'P 1'
_symmetry_Int_Tables_number		1

loop_
	_symmetry_equiv_pos_as_xyz
	x,y,z

loop_
	_atom_site_label
	_atom_site_type_symbol
	_atom_site_fract_x
	_atom_site_fract_y
	_atom_site_fract_z
	H0	H	0.401423	0.841726	0.713337
	H1	H	0.604393	0.166933	0.719364
	H2	H	0.599109	0.840938	0.285245
	H3	H	0.404189	0.169831	0.288666
	H4	H	0.718759	0.399859	0.839930
	H5	H	0.716987	0.607673	0.164851
	H6	H	0.281969	0.609708	0.840956
	H7	H	0.283751	0.405035	0.165020
	H8	H	0.839468	0.721191	0.402825
	H9	H	0.163112	0.723439	0.602543
	H10	H	0.841988	0.286490	0.604109
	H11	H	0.163225	0.289484	0.397542
	H12	H	0.840416	0.405230	0.717662
	H13	H	0.163151	0.608452	0.720178
	H14	H	0.839082	0.607162	0.285655
	H15	H	0.163527	0.407569	0.283871
	H16	H	0.399326	0.717833	0.837833
	H17	H	0.598611	0.721694	0.165374
	H18	H	0.601668	0.287801	0.839333
	H19	H	0.399960	0.291441	0.165649
	H20	H	0.719856	0.842001	0.394853
	H21	H	0.722444	0.165751	0.604639
	H22	H	0.281796	0.845514	0.604062
	H23	H	0.283386	0.167859	0.396410
	H24	H	0.902217	0.342058	0.215922
	H25	H	0.098140	0.670279	0.216068
	H26	H	0.102987	0.343195	0.783683
	H27	H	0.903203	0.669848	0.790384
	H28	H	0.217648	0.905024	0.336587
	H29	H	0.220353	0.111336	0.662290
	H30	H	0.787165	0.105803	0.336594
	H31	H	0.781983	0.899738	0.660432
	H32	H	0.338725	0.223197	0.900766
	H33	H	0.660604	0.224203	0.105076
	H34	H	0.337156	0.789890	0.102111
	H35	H	0.660118	0.785083	0.898550
	H36	H	0.337893	0.905539	0.217881
	H37	H	0.663550	0.104395	0.215545
	H38	H	0.339851	0.108576	0.781861
	H39	H	0.661460	0.900478	0.781638
	H40	H	0.903187	0.220093	0.336378
	H41	H	0.104378	0.224567	0.662960
	H42	H	0.101388	0.789898	0.337048
	H43	H	0.900506	0.792090	0.663885
	H44	H	0.220352	0.343527	0.897354
	H45	H	0.220179	0.666894	0.108263
	H46	H	0.783716	0.342787	0.105614
	H47	H	0.782644	0.666707	0.900107
	H48	H	0.420199	0.120516	0.595900
	H49	H	0.595851	0.888078	0.588760
	H50	H	0.596375	0.120353	0.415949
	H51	H	0.401034	0.887603	0.414329
	H52	H	0.589248	0.426546	0.115083
	H53	H	0.602054	0.599205	0.880813
	H54	H	0.408251	0.605892	0.122271
	H55	H	0.406999	0.408753	0.883829
	H56	H	0.116918	0.594500	0.403390
	H57	H	0.888538	0.596724	0.591824
	H58	H	0.114325	0.420611	0.590936
	H59	H	0.891161	0.419294	0.418511
	H60	H	0.119406	0.414705	0.596321
	H61	H	0.886117	0.596608	0.598982
	H62	H	0.118588	0.603151	0.407672
	H63	H	0.885377	0.419539	0.399644
	H64	H	0.402119	0.591692	0.119982
	H65	H	0.593039	0.583678	0.889162
	H66	H	0.583525	0.407379	0.119203
	H67	H	0.406957	0.420151	0.884867
	H68	H	0.602254	0.124066	0.406052
	H69	H	0.591404	0.888814	0.590377
	H70	H	0.410331	0.119758	0.580954
	H71	H	0.409917	0.886918	0.401209
	H72	H	0.898310	0.626738	0.099620
	H73	H	0.093439	0.391541	0.084234
	H74	H	0.092913	0.620779	0.915438
	H75	H	0.915042	0.391454	0.913554
	H76	H	0.092444	0.914009	0.618066
	H77	H	0.094685	0.087797	0.385309
	H78	H	0.903139	0.099906	0.619889
	H79	H	0.914240	0.909898	0.382869
	H80	H	0.615563	0.105314	0.917293
	H81	H	0.386104	0.096772	0.091236
	H82	H	0.615370	0.919727	0.101020
	H83	H	0.384403	0.909792	0.909752
	H84	H	0.618666	0.902359	0.092742
	H85	H	0.383845	0.096309	0.097860
	H86	H	0.609456	0.085639	0.916603
	H87	H	0.386197	0.915864	0.909965
	H88	H	0.911847	0.086502	0.613178
	H89	H	0.086163	0.100670	0.385154
	H90	H	0.095939	0.918492	0.617561
	H91	H	0.907156	0.913851	0.381393
	H92	H	0.094521	0.622647	0.912151
	H93	H	0.097709	0.386947	0.094290
	H94	H	0.918877	0.620456	0.098053
	H95	H	0.903739	0.387465	0.914504
	H96	H	0.404025	0.125924	0.596081
	H97	H	0.592485	0.889853	0.586656
	H98	H	0.590949	0.120927	0.404849
	H99	H	0.416093	0.892902	0.413857
	H100	H	0.602910	0.412707	0.122165
	H101	H	0.582957	0.599889	0.886101
	H102	H	0.415915	0.594699	0.115428
	H103	H	0.416312	0.413763	0.887540
	H104	H	0.115030	0.596126	0.413589
	H105	H	0.885136	0.603071	0.594463
	H106	H	0.116205	0.412873	0.587686
	H107	H	0.883266	0.402524	0.410058
	H108	H	0.905591	0.618867	0.080380
	H109	H	0.086532	0.390753	0.093924
	H110	H	0.091167	0.621590	0.911442
	H111	H	0.908683	0.386415	0.903665
	H112	H	0.091033	0.918401	0.616327
	H113	H	0.100177	0.101265	0.379768
	H114	H	0.920389	0.101497	0.615939
	H115	H	0.913558	0.917748	0.384888
	H116	H	0.617861	0.094441	0.899952
	H117	H	0.383520	0.102697	0.095315
	H118	H	0.609755	0.916732	0.082631
	H119	H	0.384168	0.912953	0.904497
	C120	C	0.380464	0.014779	0.621237
	C121	C	0.623998	0.995992	0.620900
	C122	C	0.624956	0.013921	0.378202
	C123	C	0.380432	0.997078	0.379826
	C124	C	0.622073	0.383650	0.011332
	C125	C	0.621689	0.625805	0.993359
	C126	C	0.378419	0.626970	0.011319
	C127	C	0.379464	0.384607	0.993392
	C128	C	0.009874	0.627738	0.379446
	C129	C	0.993188	0.628884	0.624654
	C130	C	0.010660	0.384648	0.622621
	C131	C	0.993369	0.384227	0.378648
	C132	C	0.878359	0.514314	0.123260
	C133	C	0.121932	0.497323	0.122324
	C134	C	0.123432	0.514438	0.880870
	C135	C	0.879471	0.496153	0.880989
	C136	C	0.123183	0.885678	0.509268
	C137	C	0.123895	0.127874	0.491442
	C138	C	0.881566	0.126099	0.508552
	C139	C	0.881035	0.883895	0.490669
	C140	C	0.508279	0.126347	0.880277
	C141	C	0.491732	0.127771	0.123982
	C142	C	0.507968	0.883388	0.122397
	C143	C	0.491348	0.882054	0.878060
	C144	C	0.381217	0.891373	0.676498
	C145	C	0.624371	0.118137	0.680283
	C146	C	0.621191	0.890421	0.321940
	C147	C	0.383173	0.120568	0.324786
	C148	C	0.679763	0.381715	0.888684
	C149	C	0.678152	0.626487	0.116042
	C150	C	0.320951	0.627628	0.889297
	C151	C	0.322481	0.385715	0.116211
	C152	C	0.888053	0.683655	0.381922
	C153	C	0.114949	0.685282	0.622943
	C154	C	0.889700	0.326465	0.622454
	C155	C	0.115133	0.328025	0.378363
	C156	C	0.889133	0.385047	0.679474
	C157	C	0.115149	0.627679	0.681167
	C158	C	0.887652	0.626528	0.323934
	C159	C	0.115145	0.386551	0.321539
	C160	C	0.379329	0.681910	0.887708
	C161	C	0.619222	0.683220	0.116331
	C162	C	0.621508	0.325921	0.888283
	C163	C	0.380388	0.329265	0.116612
	C164	C	0.681256	0.891006	0.376595
	C165	C	0.682870	0.117451	0.623172
	C166	C	0.321569	0.893269	0.622014
	C167	C	0.323142	0.119466	0.378745
	C168	C	0.881217	0.391314	0.178896
	C169	C	0.119315	0.620701	0.178813
	C170	C	0.122924	0.391923	0.822241
	C171	C	0.881860	0.619805	0.826320
	C172	C	0.179545	0.885358	0.385815
	C173	C	0.181713	0.129749	0.613416
	C174	C	0.825224	0.125376	0.385740
	C175	C	0.821927	0.882830	0.612674
	C176	C	0.387195	0.184240	0.880873
	C177	C	0.613005	0.184812	0.123598
	C178	C	0.385924	0.827816	0.121374
	C179	C	0.612361	0.824173	0.878885
	C180	C	0.386234	0.885263	0.179339
	C181	C	0.614252	0.124945	0.178668
	C182	C	0.387641	0.126686	0.821876
	C183	C	0.612927	0.881504	0.820423
	C184	C	0.882988	0.182527	0.385475
	C185	C	0.123859	0.186218	0.613864
	C186	C	0.121904	0.827930	0.386101
	C187	C	0.880913	0.828886	0.614325
	C188	C	0.181366	0.392093	0.878833
	C189	C	0.179928	0.619110	0.125018
	C190	C	0.822356	0.391594	0.123626
	C191	C	0.822069	0.618379	0.881202
	C192	C	0.404434	0.099924	0.597765
	C193	C	0.600118	0.911008	0.595923
	C194	C	0.603036	0.099585	0.402090
	C195	C	0.402660	0.911332	0.403014
	C196	C	0.598736	0.408372	0.096676
	C197	C	0.599168	0.601482	0.907630
	C198	C	0.401694	0.604012	0.097198
	C199	C	0.403161	0.407571	0.907717
	C200	C	0.094831	0.604693	0.401695
	C201	C	0.908552	0.605692	0.601773
	C202	C	0.094931	0.408830	0.598486
	C203	C	0.908613	0.406951	0.402541
	C204	C	0.900854	0.600050	0.099604
	C205	C	0.099348	0.411920	0.097932
	C206	C	0.099811	0.599439	0.905707
	C207	C	0.902469	0.410671	0.903820
	C208	C	0.099988	0.909917	0.594907
	C209	C	0.100477	0.103534	0.405692
	C210	C	0.904943	0.102653	0.594194
	C211	C	0.904900	0.907040	0.405207
	C212	C	0.592522	0.102205	0.904268
	C213	C	0.406493	0.105110	0.101269
	C214	C	0.592845	0.906248	0.099019
	C215	C	0.406843	0.905873	0.901451
	Zn216	Zn	0.500966	0.004720	0.749254
	Zn217	Zn	0.500654	0.005626	0.251839
	Zn218	Zn	0.750451	0.503824	0.002356
	Zn219	Zn	0.251675	0.506166	0.002336
	Zn220	Zn	0.001313	0.756850	0.501571
	Zn221	Zn	0.002271	0.255131	0.500006
	Zn222	Zn	0.001849	0.506231	0.753001
	Zn223	Zn	0.000726	0.505983	0.250161
	Zn224	Zn	0.498411	0.753644	0.000784
	Zn225	Zn	0.500583	0.256546	0.002552
	Zn226	Zn	0.753231	0.003942	0.499270
	Zn227	Zn	0.252028	0.006911	0.500253
	N228	N	0.417004	0.967880	0.676345
	N229	N	0.588532	0.041494	0.678999
	N230	N	0.586970	0.967759	0.322401
	N231	N	0.418172	0.043381	0.325426
	N232	N	0.680217	0.416908	0.966085
	N233	N	0.679772	0.591615	0.038414
	N234	N	0.320156	0.594257	0.967078
	N235	N	0.322146	0.419503	0.038440
	N236	N	0.964947	0.684622	0.415819
	N237	N	0.038314	0.685949	0.588438
	N238	N	0.966459	0.325978	0.587804
	N239	N	0.038438	0.326545	0.413127
	N240	N	0.965228	0.420585	0.679748
	N241	N	0.038423	0.593516	0.682288
	N242	N	0.964432	0.592623	0.322064
	N243	N	0.038524	0.421073	0.321875
	N244	N	0.414506	0.681583	0.964725
	N245	N	0.584936	0.683116	0.038860
	N246	N	0.586291	0.326904	0.965517
	N247	N	0.415107	0.328272	0.039107
	N248	N	0.683619	0.968768	0.410941
	N249	N	0.683096	0.040310	0.587433
	N250	N	0.320799	0.971154	0.588424
	N251	N	0.321387	0.041746	0.412273
	N252	N	0.915189	0.468726	0.179016
	N253	N	0.083989	0.543939	0.177329
	N254	N	0.087636	0.468860	0.823316
	N255	N	0.917103	0.542738	0.826072
	N256	N	0.180647	0.920409	0.463399
	N257	N	0.181736	0.094231	0.536130
	N258	N	0.824207	0.091104	0.463335
	N259	N	0.821981	0.916512	0.534847
	N260	N	0.463231	0.183868	0.916653
	N261	N	0.535848	0.186750	0.090417
	N262	N	0.462727	0.826535	0.086579
	N263	N	0.535786	0.824356	0.913840
	N264	N	0.463094	0.919085	0.180257
	N265	N	0.537663	0.090304	0.179074
	N266	N	0.463975	0.091490	0.821234
	N267	N	0.536710	0.916894	0.819999
	N268	N	0.917225	0.183215	0.463086
	N269	N	0.088674	0.185188	0.536828
	N270	N	0.087691	0.827853	0.463908
	N271	N	0.916837	0.829239	0.537610
	N272	N	0.181828	0.469103	0.914675
	N273	N	0.181610	0.541554	0.090404
	N274	N	0.820406	0.469421	0.089911
	N275	N	0.820202	0.540541	0.914369
	O276	O	0.029088	0.050649	-0.162954
	H277	H	0.024270	0.038889	-0.151180
	H278	H	0.037229	0.049485	-0.162784
	O279	O	0.615567	0.663354	0.595104
	H280	H	0.612659	0.675032	0.606204
	H281	H	0.608990	0.675356	0.602194
	O282	O	0.609426	-0.446387	-0.441879
	H283	H	0.611233	-0.434870	-0.440570
	H284	H	0.609939	-0.450032	-0.430688
	O285	O	0.035670	1.004763	0.077273
	H286	H	0.024472	1.003893	0.076911
	H287	H	0.034314	0.995456	0.077348
	O288	O	0.591726	0.413490	0.618510
	H289	H	0.608567	0.404982	0.621452
	H290	H	0.595336	0.409821	0.617812
	O291	O	0.980399	0.044186	1.024694
	H292	H	0.975901	0.058085	1.018847
	H293	H	0.976495	0.041761	1.032578
	O294	O	0.817795	0.888577	1.080683
	H295	H	0.820188	0.891686	1.080482
	H296	H	0.804430	0.873936	1.092816
	O297	O	0.012771	-0.006009	-0.028986
	H298	H	0.011053	-0.015474	-0.027565
	H299	H	0.020546	0.009819	-0.027208
	O300	O	0.428632	0.460591	0.472869
	H301	H	0.438655	0.454576	0.483908
	H302	H	0.419212	0.461185	0.481489
	O303	O	0.083857	1.078104	1.022166
	H304	H	0.081210	1.094111	1.017696
	H305	H	0.083555	1.082533	1.038486
	O306	O	0.482112	0.493978	0.426376
	H307	H	0.475380	0.512327	0.426635
	H308	H	0.484602	0.482698	0.423572
	O309	O	0.925748	-0.091579	0.054332
	H310	H	0.916206	-0.082640	0.051486
	H311	H	0.918581	-0.100175	0.058784
	O312	O	-0.041300	-0.001659	0.865047
	H313	H	-0.025312	-0.003228	0.858637
	H314	H	-0.055273	0.000678	0.852465
	O315	O	0.418216	0.644255	0.604012
	H316	H	0.414902	0.637519	0.585391
	H317	H	0.415794	0.639247	0.604955
	O318	O	0.686096	0.338945	0.524253
	H319	H	0.709849	0.317756	0.521838
	H320	H	0.678503	0.349631	0.494175
	O321	O	0.472679	0.531855	0.379500
	H322	H	0.459422	0.529509	0.389659
	H323	H	0.471815	0.527222	0.371271
	O324	O	0.545752	0.405225	0.497976
	H325	H	0.541741	0.404366	0.496219
	H326	H	0.537895	0.405684	0.491324
	O327	O	-0.031011	0.923751	0.915635
	H328	H	-0.022334	0.918374	0.903912
	H329	H	-0.040315	0.917631	0.919519
	O330	O	0.031657	-0.145236	0.009745
	H331	H	0.040278	-0.147723	0.003295
	H332	H	0.026136	-0.148557	0.016341
	O333	O	-0.143182	0.996481	1.092424
	H334	H	-0.136584	1.000397	1.104174
	H335	H	-0.146792	0.989591	1.101036
	O336	O	0.953504	0.942919	0.924033
	H337	H	0.958173	0.927378	0.935568
	H338	H	0.950226	0.927900	0.932095
	O339	O	0.568202	0.480553	0.627535
	H340	H	0.578507	0.489511	0.620391
	H341	H	0.562706	0.488693	0.623861
	O342	O	1.148673	-0.072111	-0.123713
	H343	H	1.151292	-0.086977	-0.123783
	H344	H	1.149593	-0.064278	-0.126892
	O345	O	0.591785	0.646574	0.490658
	H346	H	0.594614	0.660006	0.489786
	H347	H	0.589444	0.640917	0.507416
	O348	O	1.014657	1.125731	1.099688
	H349	H	1.016286	1.118552	1.104061
	H350	H	1.022990	1.140847	1.092941
	O351	O	1.128462	0.896732	0.009522
	H352	H	1.129576	0.899071	0.014261
	H353	H	1.125545	0.888240	0.019711
	O354	O	0.464426	0.469237	0.437257
	H355	H	0.468423	0.462373	0.441652
	H356	H	0.462962	0.467283	0.439249
	O357	O	0.458457	0.576277	0.447008
	H358	H	0.458640	0.572885	0.445834
	H359	H	0.448932	0.576011	0.443347
	O360	O	-0.030029	-0.012915	0.041892
	H361	H	-0.019659	-0.000492	0.038196
	H362	H	-0.030343	-0.003673	0.034035
	O363	O	0.421658	0.444003	0.454524
	H364	H	0.430988	0.432545	0.461415
	H365	H	0.428432	0.447028	0.449694
	O366	O	0.380997	0.404144	0.567914
	H367	H	0.387845	0.407839	0.577566
	H368	H	0.374699	0.401990	0.565368
	O369	O	0.455205	0.592809	0.325929
	H370	H	0.457403	0.592076	0.326737
	H371	H	0.450873	0.601918	0.326081
	O372	O	0.583069	0.560271	0.540302
	H373	H	0.572828	0.556057	0.542395
	H374	H	0.583418	0.554797	0.542639
	O375	O	0.359029	0.452920	0.594935
	H376	H	0.360044	0.444636	0.600305
	H377	H	0.357363	0.444165	0.586536
	O378	O	0.567728	0.479287	0.356775
	H379	H	0.573161	0.481403	0.350686
	H380	H	0.575394	0.489121	0.359928
	O381	O	0.568880	0.657535	0.448358
	H382	H	0.578840	0.661119	0.456056
	H383	H	0.565957	0.651503	0.444025
	O384	O	-0.204881	1.104510	-0.098978
	H385	H	-0.214331	1.111866	-0.129876
	H386	H	-0.209197	1.115602	-0.099493
	O387	O	1.110421	0.081558	1.017733
	H388	H	1.108274	0.078669	1.018657
	H389	H	1.105423	0.086297	1.024926
	O390	O	-0.027476	1.104745	-0.055073
	H391	H	-0.019604	1.101660	-0.054764
	H392	H	-0.021719	1.093375	-0.077456
	O393	O	1.080433	1.011387	0.068959
	H394	H	1.082195	0.997627	0.068982
	H395	H	1.071080	1.020905	0.068765
	O396	O	0.516470	0.530688	0.576275
	H397	H	0.507700	0.519780	0.574756
	H398	H	0.514923	0.524835	0.584569
	O399	O	-0.041938	0.992929	1.067208
	H400	H	-0.037532	0.993678	1.076740
	H401	H	-0.042123	0.993495	1.052753
	O402	O	1.020307	1.139518	0.888289
	H403	H	1.027070	1.153387	0.876726
	H404	H	1.028432	1.123952	0.878944
	O405	O	0.419752	0.374112	0.594459
	H406	H	0.425983	0.384401	0.599388
	H407	H	0.425233	0.369062	0.588007
