data_Molecule from HDF5

_cell_length_a		16.439667
_cell_length_b		16.092129
_cell_length_c		16.606255
_cell_angle_alpha	90.098743
_cell_angle_beta	90.000522
_cell_angle_gamma	90.025183
_symmetry_space_group_name_H-M	'P 1'
_symmetry_Int_Tables_number		1

loop_
	_symmetry_equiv_pos_as_xyz
	x,y,z

loop_
	_atom_site_label
	_atom_site_type_symbol
	_atom_site_fract_x
	_atom_site_fract_y
	_atom_site_fract_z
	H0	H	0.388371	0.841321	0.715744
	H1	H	0.609377	0.159021	0.719635
	H2	H	0.602218	0.841287	0.271881
	H3	H	0.387276	0.161297	0.270771
	H4	H	0.723479	0.392045	0.837521
	H5	H	0.721500	0.610847	0.149497
	H6	H	0.270353	0.613382	0.837648
	H7	H	0.274226	0.393386	0.149026
	H8	H	0.839077	0.720410	0.390239
	H9	H	0.157218	0.720691	0.597295
	H10	H	0.838307	0.281030	0.595813
	H11	H	0.158929	0.283718	0.393797
	H12	H	0.842106	0.388110	0.720207
	H13	H	0.152635	0.614448	0.721832
	H14	H	0.842821	0.611637	0.267174
	H15	H	0.154673	0.388911	0.268605
	H16	H	0.393204	0.724195	0.834692
	H17	H	0.598445	0.721745	0.151213
	H18	H	0.603182	0.279246	0.835243
	H19	H	0.395845	0.281837	0.151635
	H20	H	0.717391	0.840692	0.387686
	H21	H	0.721135	0.161015	0.602262
	H22	H	0.278121	0.839666	0.598083
	H23	H	0.276104	0.162065	0.387800
	H24	H	0.891546	0.339152	0.213357
	H25	H	0.102103	0.661686	0.212844
	H26	H	0.107358	0.341572	0.769500
	H27	H	0.890198	0.659971	0.771968
	H28	H	0.221916	0.892054	0.337680
	H29	H	0.222872	0.109806	0.649752
	H30	H	0.773287	0.111761	0.338206
	H31	H	0.771418	0.890794	0.648337
	H32	H	0.338517	0.219994	0.891665
	H33	H	0.658115	0.219015	0.095293
	H34	H	0.337630	0.782688	0.091813
	H35	H	0.658571	0.784038	0.891840
	H36	H	0.339943	0.892120	0.216215
	H37	H	0.652253	0.113566	0.220772
	H38	H	0.341319	0.112474	0.768082
	H39	H	0.653054	0.888639	0.766043
	H40	H	0.897695	0.219365	0.334766
	H41	H	0.102711	0.222494	0.651416
	H42	H	0.100066	0.780477	0.335535
	H43	H	0.896166	0.781349	0.652260
	H44	H	0.217317	0.339249	0.888096
	H45	H	0.216364	0.662878	0.095880
	H46	H	0.777537	0.339617	0.098770
	H47	H	0.781408	0.663237	0.891334
	H48	H	0.419002	0.112487	0.577900
	H49	H	0.591228	0.884319	0.577693
	H50	H	0.584627	0.119413	0.401038
	H51	H	0.412838	0.887008	0.405728
	H52	H	0.584698	0.410508	0.104007
	H53	H	0.589609	0.587578	0.881503
	H54	H	0.405316	0.592518	0.105357
	H55	H	0.407508	0.413394	0.880577
	H56	H	0.111735	0.588759	0.403432
	H57	H	0.885434	0.583004	0.584403
	H58	H	0.109389	0.420729	0.587075
	H59	H	0.884934	0.416892	0.398814
	H60	H	0.112926	0.409827	0.587102
	H61	H	0.883267	0.588717	0.588950
	H62	H	0.110927	0.586434	0.404112
	H63	H	0.881934	0.408675	0.399381
	H64	H	0.405867	0.585282	0.102634
	H65	H	0.588896	0.591350	0.881284
	H66	H	0.592140	0.409196	0.107379
	H67	H	0.409192	0.412460	0.881847
	H68	H	0.579346	0.114986	0.407381
	H69	H	0.579582	0.885283	0.588097
	H70	H	0.404005	0.117003	0.576401
	H71	H	0.407436	0.885385	0.404969
	H72	H	0.903422	0.616075	0.076690
	H73	H	0.085437	0.384549	0.081118
	H74	H	0.079349	0.616747	0.899543
	H75	H	0.906933	0.383998	0.908980
	H76	H	0.089033	0.910799	0.607010
	H77	H	0.087900	0.080998	0.385332
	H78	H	0.912284	0.087283	0.603799
	H79	H	0.910315	0.920578	0.385686
	H80	H	0.614592	0.088395	0.895210
	H81	H	0.386051	0.092469	0.074874
	H82	H	0.609748	0.916149	0.084748
	H83	H	0.384630	0.917911	0.900607
	H84	H	0.611769	0.913853	0.086745
	H85	H	0.386563	0.077799	0.085927
	H86	H	0.610501	0.092596	0.910154
	H87	H	0.383684	0.911261	0.901702
	H88	H	0.907201	0.092891	0.606861
	H89	H	0.083115	0.093894	0.382407
	H90	H	0.091149	0.913644	0.606434
	H91	H	0.913552	0.905662	0.380619
	H92	H	0.078666	0.611217	0.914331
	H93	H	0.088443	0.383630	0.082274
	H94	H	0.909037	0.620193	0.090919
	H95	H	0.911825	0.384060	0.902046
	H96	H	0.411315	0.119303	0.589946
	H97	H	0.578093	0.890987	0.573832
	H98	H	0.588448	0.117439	0.409408
	H99	H	0.411135	0.884769	0.400899
	H100	H	0.589873	0.417233	0.103417
	H101	H	0.592783	0.589584	0.880133
	H102	H	0.411329	0.589878	0.102482
	H103	H	0.407728	0.411167	0.881087
	H104	H	0.111269	0.587159	0.401528
	H105	H	0.885078	0.590331	0.581243
	H106	H	0.108585	0.414563	0.577923
	H107	H	0.885964	0.412225	0.405514
	H108	H	0.918083	0.613356	0.080311
	H109	H	0.085718	0.383545	0.084107
	H110	H	0.091592	0.617549	0.908412
	H111	H	0.914626	0.387170	0.909478
	H112	H	0.088209	0.914092	0.605303
	H113	H	0.096153	0.090645	0.378252
	H114	H	0.904502	0.085260	0.605735
	H115	H	0.899462	0.912344	0.378773
	H116	H	0.606612	0.077301	0.904228
	H117	H	0.379529	0.093973	0.090950
	H118	H	0.611223	0.913166	0.082622
	H119	H	0.386194	0.914739	0.906667
	C120	C	0.378126	0.009927	0.613732
	C121	C	0.618104	0.992144	0.614349
	C122	C	0.617411	0.011010	0.372817
	C123	C	0.376359	0.992107	0.371845
	C124	C	0.621429	0.378819	0.001563
	C125	C	0.621008	0.623036	0.984725
	C126	C	0.375302	0.623087	0.000001
	C127	C	0.376194	0.379198	0.984942
	C128	C	0.006973	0.621303	0.371175
	C129	C	0.988946	0.621775	0.616987
	C130	C	0.006138	0.380215	0.615760
	C131	C	0.989339	0.379250	0.370647
	C132	C	0.877493	0.509665	0.114524
	C133	C	0.118514	0.491052	0.114193
	C134	C	0.117567	0.509521	0.873222
	C135	C	0.878147	0.491524	0.874174
	C136	C	0.121091	0.879050	0.502547
	C137	C	0.121133	0.122441	0.485232
	C138	C	0.876032	0.122319	0.502025
	C139	C	0.875552	0.879430	0.485271
	C140	C	0.506604	0.121266	0.871072
	C141	C	0.488633	0.122166	0.115891
	C142	C	0.506237	0.880570	0.115300
	C143	C	0.489077	0.880134	0.870802
	C144	C	0.372386	0.889352	0.675084
	C145	C	0.624787	0.111557	0.677795
	C146	C	0.620494	0.889811	0.311880
	C147	C	0.370969	0.112975	0.311136
	C148	C	0.682927	0.374560	0.884432
	C149	C	0.680390	0.627145	0.103096
	C150	C	0.312590	0.629104	0.883655
	C151	C	0.315254	0.375959	0.102179
	C152	C	0.887300	0.681379	0.370915
	C153	C	0.108548	0.682257	0.617489
	C154	C	0.886640	0.319674	0.616024
	C155	C	0.110069	0.320837	0.372281
	C156	C	0.888443	0.373045	0.678078
	C157	C	0.106318	0.628855	0.679481
	C158	C	0.889381	0.627051	0.309604
	C159	C	0.107787	0.373594	0.310018
	C160	C	0.373754	0.684442	0.882283
	C161	C	0.619677	0.682625	0.103737
	C162	C	0.622570	0.318371	0.883152
	C163	C	0.375565	0.319824	0.103535
	C164	C	0.677836	0.889401	0.369400
	C165	C	0.680829	0.112497	0.619308
	C166	C	0.317164	0.888461	0.616564
	C167	C	0.315521	0.113290	0.369534
	C168	C	0.874269	0.387920	0.173780
	C169	C	0.120272	0.613329	0.173079
	C170	C	0.122939	0.389183	0.811027
	C171	C	0.873556	0.612024	0.812618
	C172	C	0.181304	0.874752	0.384612
	C173	C	0.181794	0.126631	0.603081
	C174	C	0.814776	0.127471	0.384669
	C175	C	0.813499	0.874424	0.602388
	C176	C	0.386648	0.181434	0.871238
	C177	C	0.609244	0.180951	0.115663
	C178	C	0.385800	0.821238	0.113470
	C179	C	0.609522	0.821251	0.871003
	C180	C	0.386804	0.876009	0.174827
	C181	C	0.606471	0.128395	0.177974
	C182	C	0.388222	0.127698	0.809815
	C183	C	0.606997	0.873970	0.808722
	C184	C	0.876533	0.181514	0.382976
	C185	C	0.121967	0.183115	0.603757
	C186	C	0.120807	0.818827	0.383691
	C187	C	0.875257	0.819608	0.604057
	C188	C	0.178301	0.388119	0.869668
	C189	C	0.176989	0.613840	0.114894
	C190	C	0.817193	0.388100	0.116746
	C191	C	0.819399	0.613908	0.872148
	C192	C	0.404048	0.094260	0.588579
	C193	C	0.590751	0.908669	0.587454
	C194	C	0.591627	0.095241	0.398729
	C195	C	0.402923	0.907753	0.396742
	C196	C	0.596281	0.404920	0.083640
	C197	C	0.597162	0.596895	0.902377
	C198	C	0.400432	0.596712	0.082203
	C199	C	0.401081	0.404920	0.902480
	C200	C	0.089762	0.594921	0.396087
	C201	C	0.906044	0.595054	0.591903
	C202	C	0.088725	0.407277	0.591104
	C203	C	0.906025	0.405051	0.394484
	C204	C	0.902898	0.594457	0.089764
	C205	C	0.093842	0.406131	0.089582
	C206	C	0.090889	0.593355	0.899712
	C207	C	0.903642	0.407012	0.899522
	C208	C	0.096502	0.905228	0.584838
	C209	C	0.096380	0.096009	0.403363
	C210	C	0.900735	0.096073	0.584206
	C211	C	0.900540	0.905388	0.403175
	C212	C	0.589058	0.093875	0.895705
	C213	C	0.405883	0.095874	0.091289
	C214	C	0.589196	0.906810	0.091675
	C215	C	0.406429	0.906869	0.895854
	Zn216	Zn	0.497094	0.000602	0.741511
	Zn217	Zn	0.496586	0.001844	0.244857
	Zn218	Zn	0.750355	0.501754	-0.006238
	Zn219	Zn	0.245693	0.500849	-0.007889
	Zn220	Zn	-0.001728	0.749443	0.493898
	Zn221	Zn	-0.001739	0.251554	0.493524
	Zn222	Zn	-0.002443	0.500153	0.746064
	Zn223	Zn	-0.001880	0.499884	0.242054
	Zn224	Zn	0.498485	0.751958	-0.007570
	Zn225	Zn	0.498694	0.249393	-0.006593
	Zn226	Zn	0.745810	0.001466	0.493594
	Zn227	Zn	0.251031	0.000868	0.493456
	N228	N	0.409533	0.965823	0.673472
	N229	N	0.586537	0.035713	0.674821
	N230	N	0.583742	0.966499	0.313761
	N231	N	0.407973	0.036393	0.312286
	N232	N	0.682048	0.411558	0.959016
	N233	N	0.681236	0.590772	0.028123
	N234	N	0.313624	0.591485	0.957888
	N235	N	0.315487	0.412110	0.027246
	N236	N	0.961559	0.677750	0.408845
	N237	N	0.034445	0.677984	0.579240
	N238	N	0.960878	0.323884	0.578067
	N239	N	0.035347	0.324036	0.409308
	N240	N	0.963726	0.410162	0.677927
	N241	N	0.030898	0.591888	0.679133
	N242	N	0.964735	0.590378	0.309751
	N243	N	0.031583	0.408966	0.308732
	N244	N	0.412047	0.680732	0.955694
	N245	N	0.583537	0.680127	0.029282
	N246	N	0.585077	0.320736	0.957093
	N247	N	0.412699	0.321603	0.029364
	N248	N	0.676226	0.965716	0.406442
	N249	N	0.676419	0.037273	0.580200
	N250	N	0.320589	0.964525	0.578948
	N251	N	0.318762	0.037010	0.406489
	N252	N	0.910923	0.464753	0.172645
	N253	N	0.085022	0.535939	0.172969
	N254	N	0.085856	0.465740	0.813225
	N255	N	0.909214	0.534740	0.813553
	N256	N	0.181641	0.911144	0.459482
	N257	N	0.181676	0.089856	0.528371
	N258	N	0.814075	0.091594	0.459865
	N259	N	0.813365	0.910630	0.527401
	N260	N	0.461191	0.177640	0.908588
	N261	N	0.535097	0.177137	0.077724
	N262	N	0.460852	0.823912	0.077237
	N263	N	0.535260	0.825151	0.909008
	N264	N	0.462702	0.911952	0.176252
	N265	N	0.530455	0.092721	0.178478
	N266	N	0.463984	0.091170	0.809237
	N267	N	0.531033	0.909763	0.808297
	N268	N	0.913861	0.178471	0.456934
	N269	N	0.084843	0.180657	0.529680
	N270	N	0.084315	0.821006	0.458189
	N271	N	0.913021	0.822337	0.530283
	N272	N	0.175307	0.464061	0.907506
	N273	N	0.175969	0.536856	0.078872
	N274	N	0.818733	0.464986	0.080781
	N275	N	0.821990	0.537937	0.909631
	O276	O	0.700302	0.425558	0.291702
	H277	H	0.723982	0.427305	0.281543
	H278	H	0.690986	0.420171	0.295372
	O279	O	0.318875	0.323362	0.673227
	H280	H	0.331118	0.313377	0.644392
	H281	H	0.311545	0.356652	0.669929
	O282	O	0.683542	0.688794	0.685348
	H283	H	0.692679	0.645782	0.691970
	H284	H	0.667147	0.691607	0.660745
	O285	O	1.008979	0.928022	0.132972
	H286	H	1.011291	0.929356	0.119497
	H287	H	0.989819	0.949508	0.135285
	O288	O	-0.023574	0.041641	-0.043220
	H289	H	-0.031496	0.052388	-0.052395
	H290	H	-0.002796	0.036777	-0.040917
	O291	O	0.815240	-0.176721	0.981224
	H292	H	0.807636	-0.183344	0.972108
	H293	H	0.805178	-0.153158	0.977663
	O294	O	1.098626	1.152465	1.042051
	H295	H	1.105791	1.163599	1.054772
	H296	H	1.104810	1.145887	1.052322
	O297	O	0.684364	0.705602	0.508543
	H298	H	0.698871	0.708348	0.493442
	H299	H	0.690345	0.706413	0.526334
	O300	O	0.649745	0.433967	0.498975
	H301	H	0.660469	0.452617	0.510218
	H302	H	0.635765	0.440198	0.488265
	O303	O	0.311267	0.692795	0.299659
	H304	H	0.304404	0.683411	0.289846
	H305	H	0.327193	0.692233	0.317054
	O306	O	-0.016682	0.068850	1.153545
	H307	H	-0.009806	0.077828	1.149495
	H308	H	-0.030221	0.060144	1.152743
	O309	O	1.098068	-0.009078	0.052127
	H310	H	1.103809	-0.017580	0.046635
	H311	H	1.105643	0.004788	0.068667
	O312	O	0.285973	0.484131	0.706655
	H313	H	0.272522	0.479332	0.720802
	H314	H	0.278219	0.491885	0.698154
	O315	O	0.374082	0.621351	0.579023
	H316	H	0.366817	0.609795	0.582300
	H317	H	0.366313	0.615310	0.567039
	O318	O	-0.108491	0.132404	0.007677
	H319	H	-0.114210	0.145131	0.000982
	H320	H	-0.096488	0.118203	-0.010051
	O321	O	0.407409	0.546706	0.761192
	H322	H	0.408308	0.549595	0.754894
	H323	H	0.375141	0.538425	0.782832
	O324	O	1.054880	-0.163541	0.803884
	H325	H	1.043639	-0.166155	0.800831
	H326	H	1.056192	-0.174017	0.804668
	O327	O	0.488329	0.619165	0.381967
	H328	H	0.494156	0.623740	0.370169
	H329	H	0.489278	0.626913	0.407732
	O330	O	-0.207596	0.909428	1.203329
	H331	H	-0.223219	0.922937	1.213273
	H332	H	-0.201952	0.887321	1.192320
	O333	O	0.175040	0.922286	-0.118790
	H334	H	0.181598	0.911122	-0.109742
	H335	H	0.176729	0.911354	-0.126283
	O336	O	0.903423	0.832109	0.170452
	H337	H	0.891595	0.820291	0.159690
	H338	H	0.920640	0.824140	0.153264
	O339	O	-0.200330	1.041967	0.797699
	H340	H	-0.221132	1.043734	0.800433
	H341	H	-0.200071	1.045657	0.801101
	O342	O	0.295527	0.478301	0.350808
	H343	H	0.288210	0.486677	0.349758
	H344	H	0.309563	0.470600	0.347387
	O345	O	0.198753	0.039428	1.196277
	H346	H	0.213547	0.058967	1.204652
	H347	H	0.198621	0.039524	1.198480
	O348	O	0.519452	0.298661	0.284279
	H349	H	0.540770	0.292340	0.278290
	H350	H	0.521437	0.287221	0.281922
	O351	O	0.493919	0.705993	0.506181
	H352	H	0.512173	0.712404	0.517169
	H353	H	0.490093	0.702035	0.525418
	O354	O	0.977013	1.081669	0.829768
	H355	H	0.980166	1.083979	0.821637
	H356	H	0.998675	1.075665	0.829338
	O357	O	-0.003602	-0.014417	-0.042549
	H358	H	0.004578	-0.017344	-0.050966
	H359	H	0.000972	-0.005496	-0.025166
	O360	O	0.554424	0.465366	0.402133
	H361	H	0.557619	0.469768	0.385953
	H362	H	0.540530	0.451075	0.397893
	O363	O	1.117960	0.100365	0.037678
	H364	H	1.116748	0.104525	0.013006
	H365	H	1.118189	0.096995	0.027465
	O366	O	-0.094089	0.202550	0.934999
	H367	H	-0.090562	0.207739	0.924720
	H368	H	-0.092069	0.208209	0.938190
	O369	O	1.420479	0.405305	0.365769
	H370	H	1.430383	0.422153	0.347027
	H371	H	1.438748	0.407052	0.373568
	O372	O	0.476202	0.288516	0.706300
	H373	H	0.459262	0.310659	0.701698
	H374	H	0.472729	0.261459	0.742735
	O375	O	0.136074	0.071013	0.853329
	H376	H	0.129767	0.066390	0.853287
	H377	H	0.139778	0.076322	0.860748
	O378	O	0.537423	0.481736	0.321980
	H379	H	0.540607	0.494529	0.316011
	H380	H	0.533794	0.495915	0.311971
	O381	O	-0.103545	0.956787	-0.016041
	H382	H	-0.128182	0.949661	-0.004076
	H383	H	-0.108293	0.987120	-0.016465
	O384	O	0.710484	0.521253	0.705003
	H385	H	0.711434	0.511784	0.708298
	H386	H	0.725818	0.510752	0.697932
	O387	O	0.400348	0.596972	0.340690
	H388	H	0.382318	0.598076	0.312893
	H389	H	0.394780	0.609471	0.360235
	O390	O	0.998551	1.073747	0.101590
	H391	H	0.982400	1.084907	0.089147
	H392	H	0.998647	1.075810	0.109246
	O393	O	1.084660	-0.140270	1.148806
	H394	H	1.093004	-0.124220	1.167072
	H395	H	1.072634	-0.135438	1.166738
	O396	O	0.691417	0.308675	0.368984
	H397	H	0.700918	0.293960	0.405281
	H398	H	0.665286	0.314198	0.371755
	O399	O	0.357481	0.525391	0.449803
	H400	H	0.366919	0.520855	0.443942
	H401	H	0.356710	0.537240	0.437018
	O402	O	0.954419	1.047292	0.154642
	H403	H	0.966971	1.061360	0.148733
	H404	H	0.954045	1.067906	0.153947
	O405	O	0.584062	0.660588	0.313966
	H406	H	0.578650	0.670990	0.301313
	H407	H	0.559328	0.660543	0.310360
	O408	O	0.286674	0.323318	0.514606
	H409	H	0.298640	0.320155	0.498378
	H410	H	0.278626	0.310028	0.508701
	O411	O	1.287311	0.708247	1.466068
	H412	H	1.270659	0.726518	1.469883
	H413	H	1.289175	0.704729	1.457875
	O414	O	0.465789	0.290779	0.469848
	H415	H	0.467214	0.301666	0.467775
	H416	H	0.468381	0.299097	0.481436
	O417	O	-0.045030	0.798848	1.030969
	H418	H	-0.050938	0.794227	1.043387
	H419	H	-0.063416	0.807612	1.007727
	O420	O	0.119955	0.933364	0.802663
	H421	H	0.123770	0.954606	0.795678
	H422	H	0.129119	0.929852	0.802061
	O423	O	-0.117508	1.171930	-0.162918
	H424	H	-0.121985	1.150462	-0.161640
	H425	H	-0.094605	1.173825	-0.172698
	O426	O	0.519505	0.699913	0.702449
	H427	H	0.532603	0.710917	0.709909
	H428	H	0.523061	0.706819	0.689381
	O429	O	0.647936	0.365319	0.507103
	H430	H	0.631085	0.370581	0.534560
	H431	H	0.667182	0.352146	0.511887
	O432	O	0.535053	0.455300	0.690378
	H433	H	0.526927	0.466356	0.689678
	H434	H	0.533000	0.459068	0.689257
	O435	O	0.011973	-0.054009	-0.136227
	H436	H	0.016227	-0.054980	-0.143334
	H437	H	0.010973	-0.062589	-0.121584
	O438	O	-0.535781	1.532252	1.607342
	H439	H	-0.532917	1.538887	1.604909
	H440	H	-0.530612	1.536829	1.620523
	O441	O	0.707890	0.516710	0.501520
	H442	H	0.704430	0.513648	0.488414
	H443	H	0.713159	0.514541	0.483457
