data_Molecule from HDF5

_cell_length_a		16.290722
_cell_length_b		16.275332
_cell_length_c		16.130210
_cell_angle_alpha	90.015776
_cell_angle_beta	89.698373
_cell_angle_gamma	90.206815
_symmetry_space_group_name_H-M	'P 1'
_symmetry_Int_Tables_number		1

loop_
	_symmetry_equiv_pos_as_xyz
	x,y,z

loop_
	_atom_site_label
	_atom_site_type_symbol
	_atom_site_fract_x
	_atom_site_fract_y
	_atom_site_fract_z
	H0	H	0.409893	0.832702	0.717342
	H1	H	0.606796	0.161227	0.718807
	H2	H	0.604862	0.832597	0.291115
	H3	H	0.412331	0.161752	0.291165
	H4	H	0.724608	0.397657	0.840324
	H5	H	0.720384	0.595576	0.169450
	H6	H	0.296942	0.593910	0.839346
	H7	H	0.292586	0.397398	0.169776
	H8	H	0.844602	0.712348	0.406988
	H9	H	0.171153	0.713727	0.605054
	H10	H	0.844654	0.281459	0.605430
	H11	H	0.172116	0.284517	0.405666
	H12	H	0.842843	0.399853	0.719853
	H13	H	0.171762	0.595126	0.716999
	H14	H	0.843531	0.593418	0.292717
	H15	H	0.171692	0.400630	0.290075
	H16	H	0.411962	0.709483	0.839941
	H17	H	0.606552	0.711330	0.169343
	H18	H	0.608729	0.283028	0.839122
	H19	H	0.408096	0.282616	0.169456
	H20	H	0.724386	0.833729	0.404223
	H21	H	0.723916	0.160818	0.603735
	H22	H	0.290928	0.834967	0.605961
	H23	H	0.293383	0.160733	0.404161
	H24	H	0.907982	0.333436	0.220025
	H25	H	0.104463	0.661204	0.217909
	H26	H	0.103974	0.333772	0.790356
	H27	H	0.911157	0.662501	0.793313
	H28	H	0.222568	0.898876	0.341245
	H29	H	0.222043	0.097297	0.670021
	H30	H	0.796026	0.096177	0.340388
	H31	H	0.792648	0.897673	0.669045
	H32	H	0.345442	0.212233	0.903131
	H33	H	0.671340	0.213991	0.103007
	H34	H	0.345349	0.780667	0.105677
	H35	H	0.671704	0.782620	0.904383
	H36	H	0.344042	0.899626	0.217815
	H37	H	0.672679	0.096378	0.217684
	H38	H	0.343633	0.093834	0.791249
	H39	H	0.671646	0.899407	0.789371
	H40	H	0.910494	0.211400	0.340046
	H41	H	0.105681	0.210901	0.670760
	H42	H	0.107556	0.784511	0.341651
	H43	H	0.908025	0.784133	0.669379
	H44	H	0.221217	0.333348	0.904371
	H45	H	0.223243	0.660290	0.104038
	H46	H	0.789745	0.334318	0.107166
	H47	H	0.794040	0.660885	0.906405
	H48	H	0.409624	0.118571	0.604234
	H49	H	0.597000	0.882890	0.592968
	H50	H	0.596045	0.113031	0.406565
	H51	H	0.415842	0.880925	0.415011
	H52	H	0.592356	0.393364	0.123153
	H53	H	0.612255	0.587274	0.884091
	H54	H	0.417974	0.585272	0.121031
	H55	H	0.414915	0.404935	0.887223
	H56	H	0.124354	0.593682	0.415577
	H57	H	0.888645	0.597990	0.599085
	H58	H	0.123405	0.401353	0.590850
	H59	H	0.886365	0.398996	0.401487
	H60	H	0.121743	0.411357	0.598823
	H61	H	0.893526	0.589028	0.594139
	H62	H	0.123266	0.587732	0.411339
	H63	H	0.892156	0.394228	0.425271
	H64	H	0.415653	0.595160	0.125132
	H65	H	0.595723	0.583254	0.890145
	H66	H	0.610886	0.406528	0.124500
	H67	H	0.415785	0.403376	0.886783
	H68	H	0.602758	0.111350	0.419777
	H69	H	0.606802	0.879203	0.594915
	H70	H	0.424332	0.112443	0.600235
	H71	H	0.410736	0.879632	0.412515
	H72	H	0.917486	0.613927	0.102356
	H73	H	0.096344	0.380454	0.099660
	H74	H	0.104743	0.615471	0.912105
	H75	H	0.915538	0.378729	0.905515
	H76	H	0.107600	0.913338	0.623681
	H77	H	0.106284	0.079237	0.389408
	H78	H	0.910373	0.097398	0.626636
	H79	H	0.908263	0.915542	0.386932
	H80	H	0.624556	0.090514	0.908819
	H81	H	0.392529	0.085691	0.101173
	H82	H	0.628115	0.907087	0.109817
	H83	H	0.386997	0.901699	0.898997
	H84	H	0.627627	0.890934	0.091553
	H85	H	0.389849	0.094388	0.098655
	H86	H	0.624670	0.092283	0.914044
	H87	H	0.389533	0.890170	0.919771
	H88	H	0.910446	0.082575	0.621999
	H89	H	0.090274	0.092780	0.389614
	H90	H	0.090928	0.908634	0.620898
	H91	H	0.930056	0.907260	0.392034
	H92	H	0.103224	0.614867	0.910326
	H93	H	0.098977	0.381661	0.092420
	H94	H	0.914396	0.612164	0.093659
	H95	H	0.921042	0.384126	0.916833
	H96	H	0.412452	0.112267	0.588585
	H97	H	0.599883	0.879002	0.602603
	H98	H	0.611065	0.117569	0.407942
	H99	H	0.415670	0.880283	0.409322
	H100	H	0.592477	0.415409	0.116582
	H101	H	0.598992	0.600258	0.884063
	H102	H	0.408031	0.587605	0.124193
	H103	H	0.413985	0.403647	0.886361
	H104	H	0.126415	0.593148	0.408209
	H105	H	0.890447	0.587838	0.604973
	H106	H	0.127521	0.400501	0.603856
	H107	H	0.895768	0.416486	0.416086
	H108	H	0.909437	0.616032	0.099676
	H109	H	0.103376	0.378727	0.098046
	H110	H	0.102574	0.613986	0.912836
	H111	H	0.907670	0.379501	0.916706
	H112	H	0.102383	0.897524	0.627542
	H113	H	0.108843	0.099596	0.383000
	H114	H	0.923355	0.092004	0.620992
	H115	H	0.913606	0.892598	0.381547
	H116	H	0.623211	0.087292	0.912908
	H117	H	0.393740	0.088591	0.092437
	H118	H	0.619537	0.913942	0.087396
	H119	H	0.396730	0.913762	0.918036
	C120	C	0.386301	0.006045	0.626658
	C121	C	0.629858	0.988596	0.625875
	C122	C	0.631166	0.005688	0.382352
	C123	C	0.386552	0.989125	0.383487
	C124	C	0.628819	0.376250	0.012753
	C125	C	0.629756	0.618658	0.995442
	C126	C	0.387187	0.617315	0.013758
	C127	C	0.385863	0.374907	0.995861
	C128	C	0.016243	0.619600	0.383634
	C129	C	0.999079	0.620169	0.627199
	C130	C	0.016111	0.375519	0.627455
	C131	C	0.999750	0.375587	0.384140
	C132	C	0.884838	0.505739	0.127655
	C133	C	0.128605	0.488350	0.125760
	C134	C	0.130496	0.506087	0.882871
	C135	C	0.886894	0.489279	0.884640
	C136	C	0.129706	0.876930	0.515047
	C137	C	0.129879	0.119404	0.496689
	C138	C	0.887065	0.118897	0.513848
	C139	C	0.887763	0.876848	0.496081
	C140	C	0.516373	0.118450	0.882847
	C141	C	0.499976	0.119087	0.126010
	C142	C	0.517012	0.875094	0.125846
	C143	C	0.499540	0.874201	0.882750
	C144	C	0.388945	0.882397	0.680828
	C145	C	0.627084	0.112297	0.680600
	C146	C	0.626652	0.881838	0.328250
	C147	C	0.390953	0.112701	0.328523
	C148	C	0.685928	0.377578	0.889024
	C149	C	0.683566	0.616179	0.120076
	C150	C	0.333912	0.614419	0.888928
	C151	C	0.329877	0.376525	0.119954
	C152	C	0.893390	0.674403	0.386469
	C153	C	0.122299	0.675573	0.625032
	C154	C	0.893064	0.319834	0.625672
	C155	C	0.122994	0.321618	0.385367
	C156	C	0.892257	0.378645	0.682503
	C157	C	0.122761	0.616437	0.680494
	C158	C	0.892778	0.615599	0.329443
	C159	C	0.122998	0.379743	0.328424
	C160	C	0.390936	0.672032	0.889225
	C161	C	0.627002	0.673767	0.119977
	C162	C	0.628122	0.320926	0.888443
	C163	C	0.387658	0.319839	0.120152
	C164	C	0.686252	0.882471	0.384111
	C165	C	0.685401	0.112108	0.623608
	C166	C	0.329921	0.883459	0.625276
	C167	C	0.332339	0.112438	0.385201
	C168	C	0.887325	0.382484	0.182591
	C169	C	0.125637	0.612199	0.180323
	C170	C	0.126025	0.382746	0.827636
	C171	C	0.890482	0.613021	0.830365
	C172	C	0.184893	0.878771	0.390612
	C173	C	0.184535	0.117559	0.620658
	C174	C	0.833324	0.116478	0.389534
	C175	C	0.830850	0.877925	0.619860
	C176	C	0.393922	0.173861	0.884046
	C177	C	0.622766	0.175323	0.123382
	C178	C	0.393937	0.819226	0.124951
	C179	C	0.622760	0.819957	0.884299
	C180	C	0.393318	0.878127	0.180886
	C181	C	0.623572	0.116671	0.180145
	C182	C	0.392820	0.114732	0.828543
	C183	C	0.622827	0.878481	0.827543
	C184	C	0.890644	0.173528	0.389381
	C185	C	0.126880	0.174110	0.620898
	C186	C	0.127720	0.821897	0.390787
	C187	C	0.888467	0.821645	0.620321
	C188	C	0.184294	0.382671	0.884418
	C189	C	0.184640	0.611577	0.123877
	C190	C	0.828863	0.382857	0.125821
	C191	C	0.832069	0.612333	0.886478
	C192	C	0.408854	0.092044	0.604258
	C193	C	0.607780	0.902722	0.603509
	C194	C	0.609818	0.091773	0.404964
	C195	C	0.407686	0.902774	0.405742
	C196	C	0.605526	0.398574	0.099062
	C197	C	0.608660	0.596651	0.908544
	C198	C	0.407787	0.595861	0.100970
	C199	C	0.408473	0.397277	0.909199
	C200	C	0.102456	0.597949	0.405402
	C201	C	0.913050	0.598186	0.605872
	C202	C	0.102009	0.397861	0.604566
	C203	C	0.913696	0.396921	0.407434
	C204	C	0.907223	0.591986	0.105209
	C205	C	0.106172	0.402585	0.103536
	C206	C	0.109557	0.592394	0.905135
	C207	C	0.908277	0.402918	0.906758
	C208	C	0.107047	0.899790	0.601596
	C209	C	0.108256	0.097116	0.409790
	C210	C	0.908304	0.097117	0.600736
	C211	C	0.910577	0.898761	0.409357
	C212	C	0.602181	0.096593	0.905265
	C213	C	0.414401	0.096275	0.104050
	C214	C	0.602833	0.897399	0.103113
	C215	C	0.413347	0.895408	0.905568
	Zn216	Zn	0.507754	-0.003082	0.754882
	Zn217	Zn	0.508445	-0.003146	0.254573
	Zn218	Zn	0.757340	0.497382	0.004737
	Zn219	Zn	0.258516	0.496831	0.004664
	Zn220	Zn	0.008184	0.749241	0.506088
	Zn221	Zn	0.008452	0.246715	0.505074
	Zn222	Zn	0.007325	0.498337	0.755674
	Zn223	Zn	0.007591	0.496821	0.255316
	Zn224	Zn	0.508244	0.745644	0.005020
	Zn225	Zn	0.507784	0.247641	0.003722
	Zn226	Zn	0.759600	-0.002951	0.504575
	Zn227	Zn	0.257289	-0.002152	0.505238
	N228	N	0.423380	0.959731	0.681722
	N229	N	0.593369	0.034700	0.682281
	N230	N	0.593225	0.959323	0.326970
	N231	N	0.423955	0.035037	0.327346
	N232	N	0.686480	0.411348	0.967015
	N233	N	0.685576	0.582725	0.041692
	N234	N	0.331451	0.581317	0.967312
	N235	N	0.328632	0.409995	0.041668
	N236	N	0.971261	0.676995	0.419107
	N237	N	0.044547	0.677935	0.592528
	N238	N	0.970892	0.317732	0.592221
	N239	N	0.045284	0.319013	0.419305
	N240	N	0.969832	0.412661	0.683470
	N241	N	0.045257	0.582522	0.681934
	N242	N	0.970284	0.582093	0.327694
	N243	N	0.045152	0.412355	0.327582
	N244	N	0.423320	0.673835	0.967769
	N245	N	0.594344	0.675442	0.041563
	N246	N	0.593233	0.319872	0.966401
	N247	N	0.421543	0.318536	0.041830
	N248	N	0.689175	0.960631	0.416942
	N249	N	0.687186	0.034276	0.590034
	N250	N	0.328269	0.961370	0.592124
	N251	N	0.329572	0.034593	0.418672
	N252	N	0.921547	0.459786	0.183528
	N253	N	0.091428	0.534698	0.181430
	N254	N	0.093348	0.460524	0.826413
	N255	N	0.923867	0.535394	0.829180
	N256	N	0.185958	0.912611	0.468835
	N257	N	0.186665	0.084318	0.542272
	N258	N	0.831201	0.083082	0.467808
	N259	N	0.830353	0.911666	0.541569
	N260	N	0.471733	0.176154	0.917199
	N261	N	0.545050	0.176938	0.090556
	N262	N	0.471658	0.817363	0.091312
	N263	N	0.544879	0.817231	0.918068
	N264	N	0.470747	0.912384	0.181443
	N265	N	0.546162	0.082196	0.181869
	N266	N	0.470158	0.081195	0.827537
	N267	N	0.545205	0.911385	0.826460
	N268	N	0.923412	0.175210	0.467862
	N269	N	0.093627	0.175336	0.542731
	N270	N	0.094012	0.820746	0.469092
	N271	N	0.923273	0.820966	0.542469
	N272	N	0.187125	0.460420	0.917965
	N273	N	0.186700	0.533635	0.090807
	N274	N	0.827276	0.460646	0.092389
	N275	N	0.829987	0.534431	0.919574
	O276	O	0.985349	1.050470	0.049201
	H277	H	0.974471	1.048782	0.038060
	H278	H	0.985494	1.056114	0.045919
	O279	O	-0.034856	0.058935	0.055610
	H280	H	-0.029889	0.061942	0.048385
	H281	H	-0.030988	0.064682	0.054313
	O282	O	0.026602	0.025481	1.010972
	H283	H	0.025433	0.020651	1.008219
	H284	H	0.026875	0.029264	1.011091
	O285	O	0.471822	0.434137	0.473860
	H286	H	0.476319	0.417036	0.475158
	H287	H	0.470005	0.435224	0.469072
	O288	O	0.485539	0.424165	0.504997
	H289	H	0.484504	0.414939	0.501135
	H290	H	0.477029	0.425892	0.506623
	O291	O	0.515353	0.432885	0.470683
	H292	H	0.518104	0.440301	0.472216
	H293	H	0.526871	0.441683	0.465618
	O294	O	0.023467	0.068280	0.105487
	H295	H	0.019352	0.059159	0.127101
	H296	H	0.037606	0.077772	0.104479
	O297	O	-0.004031	0.106034	-0.017051
	H298	H	-0.019377	0.110971	-0.007794
	H299	H	-0.003068	0.114450	-0.016040
	O300	O	0.016266	1.004508	1.029041
	H301	H	0.009534	1.001669	1.024782
	H302	H	0.012188	0.999607	1.038955
	O303	O	0.502546	0.450058	0.471821
	H304	H	0.500943	0.458118	0.473108
	H305	H	0.508411	0.443777	0.467238
	O306	O	-0.008181	-0.038038	0.968646
	H307	H	-0.008209	-0.022598	0.958692
	H308	H	-0.020563	-0.037120	0.959877
	O309	O	0.993579	0.912419	1.063899
	H310	H	0.984438	0.903487	1.059380
	H311	H	0.984840	0.899008	1.061825
	O312	O	0.502524	0.433037	0.508676
	H313	H	0.494807	0.426245	0.514959
	H314	H	0.492953	0.433310	0.512432
	O315	O	-0.002394	1.084394	-0.019356
	H316	H	0.007049	1.080022	-0.013624
	H317	H	-0.006870	1.082412	-0.008551
	O318	O	-0.024868	1.053707	0.042283
	H319	H	-0.022052	1.056208	0.042099
	H320	H	-0.021432	1.045184	0.050119
	O321	O	0.987645	1.051289	-0.013792
	H322	H	0.999137	1.058691	-0.012994
	H323	H	0.988162	1.048521	-0.013666
