data_Molecule from HDF5

_cell_length_a		16.181070
_cell_length_b		16.128920
_cell_length_c		16.383660
_cell_angle_alpha	90.112233
_cell_angle_beta	90.165111
_cell_angle_gamma	89.916511
_symmetry_space_group_name_H-M	'P 1'
_symmetry_Int_Tables_number		1

loop_
	_symmetry_equiv_pos_as_xyz
	x,y,z

loop_
	_atom_site_label
	_atom_site_type_symbol
	_atom_site_fract_x
	_atom_site_fract_y
	_atom_site_fract_z
	H0	H	0.405032	0.832336	0.715604
	H1	H	0.608491	0.159217	0.718672
	H2	H	0.606071	0.831717	0.285960
	H3	H	0.404442	0.159085	0.285694
	H4	H	0.719757	0.394308	0.838117
	H5	H	0.720480	0.592648	0.164139
	H6	H	0.287034	0.594704	0.839639
	H7	H	0.290969	0.396195	0.165058
	H8	H	0.840016	0.707161	0.405360
	H9	H	0.170961	0.707420	0.599266
	H10	H	0.840034	0.283496	0.597103
	H11	H	0.169953	0.283556	0.405118
	H12	H	0.841604	0.392658	0.717680
	H13	H	0.168252	0.596811	0.719224
	H14	H	0.842355	0.596561	0.284973
	H15	H	0.168550	0.393881	0.285732
	H16	H	0.404301	0.710841	0.839170
	H17	H	0.604270	0.710010	0.164810
	H18	H	0.601789	0.278862	0.838543
	H19	H	0.407318	0.281073	0.164976
	H20	H	0.717717	0.829908	0.404542
	H21	H	0.717886	0.161326	0.598645
	H22	H	0.292940	0.831424	0.598756
	H23	H	0.291901	0.160100	0.402459
	H24	H	0.904888	0.330972	0.216237
	H25	H	0.106199	0.658732	0.217222
	H26	H	0.105311	0.331117	0.785772
	H27	H	0.902326	0.659239	0.786947
	H28	H	0.220659	0.895510	0.338451
	H29	H	0.222210	0.095248	0.664011
	H30	H	0.788821	0.095207	0.339470
	H31	H	0.791368	0.897629	0.664976
	H32	H	0.339225	0.206463	0.905009
	H33	H	0.669457	0.207336	0.097940
	H34	H	0.339359	0.784034	0.096682
	H35	H	0.669794	0.780827	0.903872
	H36	H	0.342074	0.894039	0.217901
	H37	H	0.668823	0.096203	0.216688
	H38	H	0.342536	0.097293	0.783742
	H39	H	0.669204	0.893668	0.786111
	H40	H	0.907762	0.208586	0.338000
	H41	H	0.104637	0.211526	0.664048
	H42	H	0.104058	0.779411	0.338650
	H43	H	0.907541	0.781056	0.664720
	H44	H	0.215394	0.328640	0.906599
	H45	H	0.219052	0.659374	0.100860
	H46	H	0.793370	0.329056	0.098092
	H47	H	0.791321	0.659584	0.904057
	H48	H	0.414566	0.116007	0.599493
	H49	H	0.596111	0.875179	0.605198
	H50	H	0.599845	0.111264	0.420788
	H51	H	0.400549	0.872652	0.407004
	H52	H	0.597041	0.406277	0.115317
	H53	H	0.610643	0.581457	0.883719
	H54	H	0.413525	0.580858	0.114595
	H55	H	0.416727	0.392154	0.884883
	H56	H	0.120577	0.583625	0.412969
	H57	H	0.887333	0.585632	0.597541
	H58	H	0.120759	0.409601	0.594678
	H59	H	0.889284	0.409481	0.408319
	H60	H	0.123382	0.402826	0.599046
	H61	H	0.886586	0.590758	0.595713
	H62	H	0.123345	0.583483	0.404860
	H63	H	0.884801	0.401989	0.398588
	H64	H	0.418223	0.592592	0.116689
	H65	H	0.587502	0.580242	0.890701
	H66	H	0.596098	0.395416	0.117627
	H67	H	0.399355	0.400659	0.882827
	H68	H	0.606937	0.118739	0.400512
	H69	H	0.591082	0.881564	0.588058
	H70	H	0.419959	0.111102	0.591478
	H71	H	0.423242	0.876171	0.396817
	H72	H	0.904342	0.613235	0.087789
	H73	H	0.093680	0.374405	0.105558
	H74	H	0.091581	0.612660	0.905143
	H75	H	0.908514	0.375910	0.910643
	H76	H	0.099082	0.905110	0.615942
	H77	H	0.090267	0.095562	0.386690
	H78	H	0.908740	0.088255	0.617674
	H79	H	0.911064	0.905035	0.386616
	H80	H	0.619162	0.082916	0.915616
	H81	H	0.386812	0.083027	0.098130
	H82	H	0.625399	0.904816	0.107457
	H83	H	0.389995	0.907506	0.912725
	H84	H	0.624177	0.891508	0.089527
	H85	H	0.384969	0.091817	0.097483
	H86	H	0.623532	0.081969	0.902038
	H87	H	0.387164	0.907376	0.900690
	H88	H	0.915260	0.087012	0.616297
	H89	H	0.108989	0.092977	0.381216
	H90	H	0.098200	0.900679	0.617616
	H91	H	0.914105	0.900638	0.386269
	H92	H	0.093311	0.610706	0.915747
	H93	H	0.089641	0.380800	0.087457
	H94	H	0.911908	0.616083	0.105259
	H95	H	0.914064	0.375981	0.901728
	H96	H	0.409857	0.114509	0.590295
	H97	H	0.608676	0.875462	0.591355
	H98	H	0.585221	0.111945	0.403542
	H99	H	0.418786	0.882766	0.421375
	H100	H	0.605507	0.401049	0.119449
	H101	H	0.596596	0.601401	0.882500
	H102	H	0.405681	0.590060	0.120143
	H103	H	0.414868	0.410705	0.889813
	H104	H	0.124550	0.590647	0.408829
	H105	H	0.888828	0.586627	0.592252
	H106	H	0.121732	0.401937	0.591634
	H107	H	0.885872	0.397580	0.410665
	H108	H	0.923346	0.609241	0.090637
	H109	H	0.107766	0.373897	0.092474
	H110	H	0.101483	0.614339	0.909492
	H111	H	0.917658	0.378745	0.910323
	H112	H	0.102758	0.902771	0.617237
	H113	H	0.099330	0.077852	0.388260
	H114	H	0.913213	0.093274	0.618118
	H115	H	0.908772	0.900337	0.384064
	H116	H	0.625083	0.094514	0.908453
	H117	H	0.388139	0.087400	0.090443
	H118	H	0.618567	0.913588	0.087735
	H119	H	0.386532	0.897708	0.907329
	C120	C	0.385175	0.004934	0.622184
	C121	C	0.627213	0.986960	0.623094
	C122	C	0.626595	0.004556	0.379898
	C123	C	0.384671	0.986265	0.379722
	C124	C	0.627436	0.371765	0.009775
	C125	C	0.627237	0.616868	0.993129
	C126	C	0.382456	0.616933	0.010139
	C127	C	0.382498	0.372915	0.993455
	C128	C	0.014361	0.616071	0.380037
	C129	C	0.996531	0.616830	0.624006
	C130	C	0.013440	0.375071	0.623013
	C131	C	0.995960	0.374213	0.378955
	C132	C	0.884645	0.503583	0.122403
	C133	C	0.126366	0.485710	0.123550
	C134	C	0.124806	0.503309	0.881312
	C135	C	0.883481	0.485688	0.879545
	C136	C	0.128381	0.873340	0.509570
	C137	C	0.128600	0.118256	0.492831
	C138	C	0.883507	0.118024	0.510112
	C139	C	0.883198	0.873582	0.493454
	C140	C	0.513791	0.115762	0.880254
	C141	C	0.495774	0.116141	0.123003
	C142	C	0.513808	0.874539	0.122775
	C143	C	0.496686	0.874320	0.879249
	C144	C	0.386077	0.881148	0.677471
	C145	C	0.626634	0.110731	0.679288
	C146	C	0.625672	0.880494	0.324443
	C147	C	0.384928	0.110085	0.324074
	C148	C	0.681973	0.373913	0.886968
	C149	C	0.682668	0.614026	0.115629
	C150	C	0.325902	0.614766	0.888038
	C151	C	0.328435	0.375668	0.116247
	C152	C	0.889952	0.671090	0.383233
	C153	C	0.120909	0.671179	0.620927
	C154	C	0.889550	0.319986	0.618930
	C155	C	0.120548	0.320404	0.383475
	C156	C	0.890223	0.374783	0.678349
	C157	C	0.119633	0.615944	0.680510
	C158	C	0.890969	0.615606	0.324012
	C159	C	0.119774	0.375220	0.324313
	C160	C	0.384080	0.672376	0.887725
	C161	C	0.624695	0.672004	0.115967
	C162	C	0.623279	0.316643	0.887075
	C163	C	0.386209	0.318391	0.116286
	C164	C	0.680909	0.879780	0.383578
	C165	C	0.681188	0.111712	0.619639
	C166	C	0.330360	0.880746	0.619332
	C167	C	0.329123	0.110334	0.382074
	C168	C	0.885477	0.380066	0.178142
	C169	C	0.125461	0.609502	0.179346
	C170	C	0.124207	0.379775	0.824770
	C171	C	0.883719	0.610060	0.824822
	C172	C	0.183001	0.875190	0.387256
	C173	C	0.184213	0.116015	0.615273
	C174	C	0.827750	0.115404	0.387633
	C175	C	0.828804	0.876706	0.616074
	C176	C	0.389139	0.170227	0.883417
	C177	C	0.620392	0.169980	0.118884
	C178	C	0.389192	0.820491	0.118572
	C179	C	0.620561	0.818730	0.882848
	C180	C	0.390556	0.875099	0.178742
	C181	C	0.619601	0.115450	0.178615
	C182	C	0.390629	0.115812	0.823286
	C183	C	0.620168	0.874748	0.824111
	C184	C	0.886273	0.172212	0.387127
	C185	C	0.125715	0.173798	0.615411
	C186	C	0.125118	0.817545	0.387189
	C187	C	0.886753	0.818932	0.616064
	C188	C	0.179536	0.378743	0.884127
	C189	C	0.181384	0.610028	0.121297
	C190	C	0.830129	0.378964	0.119103
	C191	C	0.828273	0.610179	0.882809
	C192	C	0.408085	0.091418	0.600190
	C193	C	0.605091	0.900102	0.601330
	C194	C	0.603892	0.091527	0.401823
	C195	C	0.407598	0.899520	0.401753
	C196	C	0.606059	0.394287	0.095270
	C197	C	0.604722	0.594416	0.907779
	C198	C	0.405711	0.594404	0.095197
	C199	C	0.403984	0.394706	0.907904
	C200	C	0.100703	0.592971	0.402384
	C201	C	0.909933	0.594439	0.601794
	C202	C	0.099695	0.398049	0.601576
	C203	C	0.909204	0.396320	0.399921
	C204	C	0.906566	0.590456	0.100778
	C205	C	0.103776	0.398817	0.101438
	C206	C	0.102123	0.590012	0.903588
	C207	C	0.906545	0.399266	0.901400
	C208	C	0.106340	0.896020	0.594786
	C209	C	0.106101	0.095699	0.407429
	C210	C	0.905728	0.096163	0.595313
	C211	C	0.904938	0.895464	0.407879
	C212	C	0.600054	0.093196	0.902224
	C213	C	0.409166	0.093778	0.101752
	C214	C	0.600329	0.896837	0.101193
	C215	C	0.410291	0.897392	0.900692
	Zn216	Zn	0.506032	-0.004200	0.750449
	Zn217	Zn	0.505196	-0.004468	0.251494
	Zn218	Zn	0.756600	0.494634	0.000938
	Zn219	Zn	0.253486	0.494466	0.002331
	Zn220	Zn	0.005721	0.744085	0.501835
	Zn221	Zn	0.005368	0.247281	0.501080
	Zn222	Zn	0.004008	0.495459	0.752139
	Zn223	Zn	0.005450	0.494963	0.251266
	Zn224	Zn	0.504849	0.745993	0.001271
	Zn225	Zn	0.504004	0.243606	0.002083
	Zn226	Zn	0.754223	-0.003817	0.501569
	Zn227	Zn	0.257657	-0.004739	0.500907
	N228	N	0.419555	0.959596	0.679460
	N229	N	0.593875	0.032005	0.681671
	N230	N	0.592658	0.959085	0.321935
	N231	N	0.418712	0.031800	0.322387
	N232	N	0.684692	0.407458	0.964212
	N233	N	0.684343	0.580494	0.038335
	N234	N	0.324768	0.581033	0.965287
	N235	N	0.326251	0.408979	0.039101
	N236	N	0.967765	0.671511	0.417376
	N237	N	0.043158	0.671901	0.586523
	N238	N	0.967242	0.319865	0.584963
	N239	N	0.042689	0.319713	0.416895
	N240	N	0.968222	0.408255	0.680986
	N241	N	0.041294	0.582900	0.682160
	N242	N	0.969276	0.582166	0.321962
	N243	N	0.041200	0.407933	0.321424
	N244	N	0.418571	0.673869	0.964405
	N245	N	0.591173	0.673964	0.038657
	N246	N	0.590111	0.315167	0.964359
	N247	N	0.419414	0.316591	0.038889
	N248	N	0.681688	0.958124	0.417217
	N249	N	0.681516	0.033833	0.585533
	N250	N	0.329550	0.958672	0.585920
	N251	N	0.328968	0.032362	0.415919
	N252	N	0.918811	0.458445	0.180098
	N253	N	0.091796	0.531230	0.180581
	N254	N	0.091210	0.458411	0.822826
	N255	N	0.917375	0.531683	0.822709
	N256	N	0.185103	0.909157	0.464239
	N257	N	0.185977	0.082314	0.538029
	N258	N	0.825761	0.082596	0.464961
	N259	N	0.826370	0.909839	0.538723
	N260	N	0.466540	0.170263	0.918170
	N261	N	0.542406	0.170799	0.085411
	N262	N	0.466866	0.820054	0.084409
	N263	N	0.542755	0.818176	0.916448
	N264	N	0.468963	0.907889	0.181447
	N265	N	0.541176	0.082430	0.181081
	N266	N	0.468965	0.082454	0.821316
	N267	N	0.542076	0.908543	0.821844
	N268	N	0.920697	0.173784	0.464112
	N269	N	0.092047	0.175489	0.538186
	N270	N	0.091796	0.816072	0.464349
	N271	N	0.919914	0.816821	0.538826
	N272	N	0.180110	0.456647	0.918562
	N273	N	0.182181	0.531947	0.087436
	N274	N	0.829664	0.456802	0.084823
	N275	N	0.827820	0.531992	0.916044
	O276	O	1.013832	0.924239	-0.065780
	H277	H	1.013167	0.916415	-0.064748
	H278	H	1.022504	0.927693	-0.061402
	O279	O	0.031532	-0.020078	-0.009961
	H280	H	0.041449	-0.015207	-0.000687
	H281	H	0.021251	-0.014946	-0.009156
	O282	O	0.029253	-0.049116	0.979491
	H283	H	0.021124	-0.059082	0.978287
	H284	H	0.025488	-0.048228	0.982828
	O285	O	0.503664	0.507692	0.576228
	H286	H	0.490705	0.514303	0.573960
	H287	H	0.507810	0.498240	0.580349
	O288	O	0.478995	0.535908	0.539806
	H289	H	0.468901	0.534821	0.539797
	H290	H	0.486697	0.529782	0.540841
	O291	O	0.473394	0.505777	0.543890
	H292	H	0.481879	0.503452	0.542165
	H293	H	0.477589	0.506191	0.545473
	O294	O	0.038550	0.016733	0.040479
	H295	H	0.037993	0.020331	0.047947
	H296	H	0.039742	0.017252	0.032999
	O297	O	0.472779	0.494061	0.535546
	H298	H	0.468139	0.490638	0.540872
	H299	H	0.466178	0.486958	0.534057
	O300	O	-0.044811	1.011970	0.973502
	H301	H	-0.051128	1.009769	0.969397
	H302	H	-0.039705	1.012838	0.973054
	O303	O	0.463616	0.534692	0.568022
	H304	H	0.456119	0.534575	0.574607
	H305	H	0.466702	0.547296	0.571467
	O306	O	-0.002765	-0.013314	0.947662
	H307	H	-0.007314	-0.022820	0.940415
	H308	H	0.000133	-0.012998	0.945672
	O309	O	1.002335	0.964960	1.028687
	H310	H	0.992529	0.963753	1.025004
	H311	H	1.004704	0.963492	1.032819
	O312	O	0.479841	0.532199	0.564650
	H313	H	0.475441	0.537636	0.562637
	H314	H	0.487159	0.538878	0.566110
	O315	O	-0.048479	0.964779	0.020260
	H316	H	-0.058694	0.961653	0.014955
	H317	H	-0.032581	0.963532	0.023448
	O318	O	0.003796	0.993212	0.002089
	H319	H	0.009022	0.994057	0.001204
	H320	H	-0.002477	0.991896	-0.006583
	O321	O	0.972941	0.963611	-0.018023
	H322	H	0.972423	0.973027	-0.021218
	H323	H	0.972433	0.955944	-0.012440
