data_Molecule from HDF5

_cell_length_a		16.306284
_cell_length_b		16.307329
_cell_length_c		16.044552
_cell_angle_alpha	90.529909
_cell_angle_beta	89.812551
_cell_angle_gamma	89.259294
_symmetry_space_group_name_H-M	'P 1'
_symmetry_Int_Tables_number		1

loop_
	_symmetry_equiv_pos_as_xyz
	x,y,z

loop_
	_atom_site_label
	_atom_site_type_symbol
	_atom_site_fract_x
	_atom_site_fract_y
	_atom_site_fract_z
	H0	H	0.406333	0.830385	0.717954
	H1	H	0.592419	0.159782	0.718959
	H2	H	0.600817	0.831888	0.288787
	H3	H	0.402601	0.159799	0.297472
	H4	H	0.714961	0.393951	0.841301
	H5	H	0.709900	0.596237	0.171003
	H6	H	0.283650	0.596829	0.840671
	H7	H	0.286604	0.400923	0.170577
	H8	H	0.839028	0.714710	0.404522
	H9	H	0.162723	0.710368	0.608637
	H10	H	0.836222	0.281936	0.605001
	H11	H	0.161492	0.272339	0.400877
	H12	H	0.835488	0.401869	0.717151
	H13	H	0.163792	0.589865	0.718942
	H14	H	0.835071	0.591965	0.295655
	H15	H	0.164008	0.393299	0.289784
	H16	H	0.398087	0.710460	0.839914
	H17	H	0.596116	0.710619	0.170171
	H18	H	0.600155	0.280508	0.840597
	H19	H	0.400154	0.285739	0.170941
	H20	H	0.720553	0.832507	0.401404
	H21	H	0.713569	0.157730	0.607725
	H22	H	0.287158	0.830920	0.606226
	H23	H	0.280814	0.156170	0.406763
	H24	H	0.904140	0.329745	0.216807
	H25	H	0.094556	0.658408	0.223559
	H26	H	0.099409	0.331383	0.790135
	H27	H	0.899440	0.659544	0.793446
	H28	H	0.218236	0.887821	0.340983
	H29	H	0.212822	0.095150	0.670340
	H30	H	0.784371	0.095026	0.340686
	H31	H	0.786397	0.897448	0.670024
	H32	H	0.338146	0.215286	0.904129
	H33	H	0.661522	0.213537	0.108661
	H34	H	0.336906	0.783550	0.105459
	H35	H	0.661187	0.773510	0.899634
	H36	H	0.336124	0.903113	0.218322
	H37	H	0.663545	0.093831	0.221068
	H38	H	0.335449	0.094274	0.793448
	H39	H	0.664729	0.896847	0.792253
	H40	H	0.899839	0.207102	0.339551
	H41	H	0.097169	0.208154	0.670456
	H42	H	0.103450	0.774834	0.341885
	H43	H	0.901197	0.783687	0.671333
	H44	H	0.220983	0.334171	0.900564
	H45	H	0.213020	0.658896	0.109594
	H46	H	0.783339	0.332364	0.107421
	H47	H	0.780005	0.658311	0.907053
	H48	H	0.406965	0.109164	0.596431
	H49	H	0.588876	0.881171	0.594535
	H50	H	0.586475	0.111467	0.407232
	H51	H	0.414293	0.878281	0.408500
	H52	H	0.599342	0.409842	0.125732
	H53	H	0.590868	0.594875	0.883515
	H54	H	0.401011	0.597033	0.126922
	H55	H	0.407472	0.404123	0.885697
	H56	H	0.112821	0.580219	0.421744
	H57	H	0.884113	0.593901	0.595733
	H58	H	0.119138	0.391203	0.599332
	H59	H	0.882923	0.397717	0.411932
	H60	H	0.114292	0.398803	0.587815
	H61	H	0.883974	0.587435	0.598139
	H62	H	0.115775	0.579717	0.409009
	H63	H	0.884091	0.400918	0.414104
	H64	H	0.402276	0.583683	0.123242
	H65	H	0.600085	0.578416	0.885928
	H66	H	0.582499	0.408000	0.121217
	H67	H	0.409596	0.406746	0.887616
	H68	H	0.590853	0.108111	0.423993
	H69	H	0.602306	0.877241	0.592329
	H70	H	0.400118	0.111572	0.596721
	H71	H	0.409358	0.879237	0.417851
	H72	H	0.904126	0.610261	0.098103
	H73	H	0.094037	0.381926	0.088511
	H74	H	0.085781	0.612109	0.907797
	H75	H	0.902260	0.375696	0.904111
	H76	H	0.084573	0.903865	0.621394
	H77	H	0.081385	0.089268	0.388647
	H78	H	0.918051	0.090067	0.621105
	H79	H	0.909045	0.906452	0.387932
	H80	H	0.615656	0.086527	0.913147
	H81	H	0.386327	0.089144	0.092281
	H82	H	0.614078	0.901263	0.086609
	H83	H	0.380168	0.895657	0.910003
	H84	H	0.616240	0.908485	0.100207
	H85	H	0.383101	0.087574	0.106574
	H86	H	0.617469	0.089739	0.912454
	H87	H	0.385841	0.903441	0.920855
	H88	H	0.900549	0.099388	0.628406
	H89	H	0.101173	0.087947	0.381885
	H90	H	0.095850	0.894118	0.626528
	H91	H	0.915279	0.905388	0.389072
	H92	H	0.089294	0.608959	0.922210
	H93	H	0.100844	0.376544	0.096240
	H94	H	0.899638	0.612123	0.100233
	H95	H	0.915207	0.381507	0.911680
	H96	H	0.403681	0.112428	0.602564
	H97	H	0.596414	0.876397	0.605139
	H98	H	0.602406	0.114662	0.412482
	H99	H	0.405124	0.875927	0.409044
	H100	H	0.591744	0.394222	0.127784
	H101	H	0.582002	0.580903	0.890951
	H102	H	0.413318	0.592345	0.121359
	H103	H	0.411900	0.403079	0.886946
	H104	H	0.118427	0.590369	0.415896
	H105	H	0.881922	0.592629	0.601746
	H106	H	0.116279	0.405391	0.600705
	H107	H	0.882549	0.401706	0.410037
	H108	H	0.903701	0.612171	0.102826
	H109	H	0.090252	0.379724	0.099151
	H110	H	0.099417	0.614727	0.912516
	H111	H	0.902101	0.380038	0.920119
	H112	H	0.099163	0.909304	0.624325
	H113	H	0.092216	0.070800	0.391066
	H114	H	0.899851	0.078877	0.622788
	H115	H	0.911434	0.900435	0.386362
	H116	H	0.615626	0.088753	0.915417
	H117	H	0.381309	0.100472	0.100164
	H118	H	0.619133	0.893798	0.098495
	H119	H	0.383954	0.909707	0.908456
	C120	C	0.377394	0.002790	0.627549
	C121	C	0.622137	0.986436	0.627236
	C122	C	0.623594	0.003897	0.383471
	C123	C	0.378987	0.985748	0.384267
	C124	C	0.621195	0.373590	0.015548
	C125	C	0.618819	0.615041	0.996379
	C126	C	0.376744	0.619182	0.014393
	C127	C	0.380090	0.376628	0.996402
	C128	C	0.008459	0.614693	0.385651
	C129	C	0.991178	0.617969	0.628111
	C130	C	0.008580	0.372490	0.625834
	C131	C	0.990864	0.369711	0.381585
	C132	C	0.876154	0.503122	0.128152
	C133	C	0.121712	0.486860	0.126563
	C134	C	0.122013	0.504176	0.883389
	C135	C	0.876701	0.487319	0.884246
	C136	C	0.123026	0.871239	0.514729
	C137	C	0.119772	0.113129	0.496292
	C138	C	0.877301	0.117201	0.514595
	C139	C	0.881756	0.875438	0.496916
	C140	C	0.508499	0.118022	0.884463
	C141	C	0.491393	0.119533	0.128471
	C142	C	0.508665	0.874781	0.125073
	C143	C	0.491254	0.872864	0.882935
	C144	C	0.383881	0.879696	0.681541
	C145	C	0.615782	0.110284	0.682229
	C146	C	0.621898	0.880879	0.326497
	C147	C	0.380988	0.109814	0.332291
	C148	C	0.677279	0.374299	0.890847
	C149	C	0.672643	0.615160	0.121326
	C150	C	0.321500	0.616604	0.889945
	C151	C	0.324346	0.380229	0.121212
	C152	C	0.886858	0.674372	0.385819
	C153	C	0.114004	0.672327	0.627719
	C154	C	0.884846	0.319798	0.624359
	C155	C	0.113392	0.312185	0.382060
	C156	C	0.884529	0.379198	0.680242
	C157	C	0.114468	0.612789	0.682759
	C158	C	0.884737	0.613139	0.331771
	C159	C	0.114439	0.371954	0.326402
	C160	C	0.378730	0.673039	0.889601
	C161	C	0.616001	0.672216	0.120911
	C162	C	0.620538	0.317529	0.890679
	C163	C	0.380789	0.322813	0.121208
	C164	C	0.681319	0.881290	0.382576
	C165	C	0.675543	0.109131	0.626686
	C166	C	0.324190	0.880096	0.625976
	C167	C	0.320550	0.107954	0.386845
	C168	C	0.881845	0.379394	0.180798
	C169	C	0.116660	0.609730	0.185097
	C170	C	0.120054	0.380810	0.827795
	C171	C	0.878913	0.610298	0.830552
	C172	C	0.179948	0.869742	0.390564
	C173	C	0.174909	0.113600	0.620956
	C174	C	0.821842	0.114807	0.390216
	C175	C	0.824774	0.877423	0.620970
	C176	C	0.386184	0.175696	0.885111
	C177	C	0.613460	0.174692	0.127392
	C178	C	0.385630	0.821182	0.125114
	C179	C	0.613173	0.813685	0.881409
	C180	C	0.385272	0.880474	0.181405
	C181	C	0.614381	0.115295	0.183602
	C182	C	0.384915	0.115187	0.830382
	C183	C	0.614940	0.875110	0.828167
	C184	C	0.879566	0.170433	0.389311
	C185	C	0.117652	0.170373	0.620914
	C186	C	0.122848	0.813247	0.391072
	C187	C	0.881886	0.820601	0.621401
	C188	C	0.180755	0.382367	0.882432
	C189	C	0.175627	0.609829	0.128378
	C190	C	0.821585	0.380760	0.126171
	C191	C	0.819094	0.609515	0.886809
	C192	C	0.397530	0.088806	0.605059
	C193	C	0.601886	0.900505	0.604083
	C194	C	0.600116	0.089362	0.407392
	C195	C	0.402706	0.900071	0.405725
	C196	C	0.598097	0.397029	0.102419
	C197	C	0.597112	0.591713	0.909202
	C198	C	0.398993	0.597577	0.101470
	C199	C	0.402784	0.398247	0.909314
	C200	C	0.093622	0.590460	0.408561
	C201	C	0.905558	0.597380	0.605335
	C202	C	0.094274	0.392399	0.602856
	C203	C	0.905369	0.393168	0.404986
	C204	C	0.896641	0.589145	0.106856
	C205	C	0.101004	0.401566	0.101931
	C206	C	0.098462	0.589879	0.907177
	C207	C	0.899883	0.401243	0.905698
	C208	C	0.099964	0.895475	0.601661
	C209	C	0.098038	0.089561	0.409662
	C210	C	0.899675	0.095927	0.601664
	C211	C	0.905219	0.897582	0.410180
	C212	C	0.594223	0.095075	0.907076
	C213	C	0.405833	0.098669	0.106145
	C214	C	0.594194	0.895155	0.101802
	C215	C	0.405587	0.896245	0.906257
	Zn216	Zn	0.499959	-0.004456	0.756093
	Zn217	Zn	0.500882	-0.004344	0.255576
	Zn218	Zn	0.747150	0.495242	0.007162
	Zn219	Zn	0.251128	0.497016	0.005054
	Zn220	Zn	0.001371	0.745562	0.506395
	Zn221	Zn	-0.000580	0.242704	0.504982
	Zn222	Zn	-0.000485	0.494760	0.755011
	Zn223	Zn	-0.000854	0.494000	0.255360
	Zn224	Zn	0.499057	0.744578	0.004439
	Zn225	Zn	0.499680	0.247860	0.005967
	Zn226	Zn	0.752242	-0.005203	0.505845
	Zn227	Zn	0.248830	-0.007011	0.505565
	N228	N	0.416021	0.957228	0.682784
	N229	N	0.583365	0.033002	0.682756
	N230	N	0.586711	0.957996	0.326865
	N231	N	0.416649	0.032862	0.330505
	N232	N	0.678006	0.408307	0.969602
	N233	N	0.674562	0.580532	0.042882
	N234	N	0.320171	0.583759	0.968596
	N235	N	0.323921	0.413128	0.042528
	N236	N	0.964648	0.675261	0.418702
	N237	N	0.036343	0.675926	0.594734
	N238	N	0.962862	0.315320	0.591295
	N239	N	0.035594	0.310582	0.415544
	N240	N	0.962130	0.411289	0.681206
	N241	N	0.037273	0.579527	0.683203
	N242	N	0.961431	0.576606	0.331481
	N243	N	0.037394	0.407273	0.326237
	N244	N	0.412407	0.674576	0.967943
	N245	N	0.583313	0.672310	0.042051
	N246	N	0.586435	0.316787	0.969342
	N247	N	0.414628	0.320469	0.042581
	N248	N	0.682425	0.958745	0.417255
	N249	N	0.679808	0.030906	0.593319
	N250	N	0.320119	0.957738	0.593246
	N251	N	0.319042	0.029730	0.418303
	N252	N	0.915144	0.456399	0.182131
	N253	N	0.083841	0.532400	0.184277
	N254	N	0.084180	0.457650	0.828281
	N255	N	0.914093	0.533135	0.828671
	N256	N	0.180202	0.905232	0.468715
	N257	N	0.176350	0.078601	0.542645
	N258	N	0.820241	0.082500	0.469148
	N259	N	0.824443	0.910528	0.542496
	N260	N	0.463994	0.177464	0.917960
	N261	N	0.535930	0.177443	0.093853
	N262	N	0.463114	0.817538	0.090919
	N263	N	0.535228	0.812065	0.914725
	N264	N	0.462732	0.913197	0.181343
	N265	N	0.537546	0.081653	0.184307
	N266	N	0.461982	0.079879	0.829811
	N267	N	0.538147	0.911032	0.828711
	N268	N	0.913275	0.172403	0.467791
	N269	N	0.083914	0.170262	0.542518
	N270	N	0.088255	0.814217	0.469305
	N271	N	0.916819	0.819310	0.543089
	N272	N	0.182015	0.460277	0.916370
	N273	N	0.178832	0.532774	0.092677
	N274	N	0.818005	0.458801	0.094214
	N275	N	0.817717	0.531753	0.919367
	O276	O	1.053419	1.119353	-0.095527
	H277	H	1.048454	1.118243	-0.100566
	H278	H	1.052292	1.113406	-0.085120
	O279	O	0.557824	0.552938	0.552077
	H280	H	0.567127	0.542856	0.553326
	H281	H	0.568015	0.561694	0.556827
	O282	O	0.936546	1.031403	0.071680
	H283	H	0.937806	1.025698	0.065125
	H284	H	0.944466	1.028918	0.064233
	O285	O	0.862603	-0.011635	1.090833
	H286	H	0.865216	-0.008209	1.088526
	H287	H	0.863538	-0.000914	1.091486
	O288	O	0.445236	0.543590	0.487829
	H289	H	0.456009	0.545549	0.490017
	H290	H	0.451346	0.536055	0.471380
	O291	O	0.485925	0.426484	0.543186
	H292	H	0.481632	0.424109	0.539287
	H293	H	0.488035	0.423076	0.545439
	O294	O	0.599934	0.496886	0.508591
	H295	H	0.591677	0.480416	0.499930
	H296	H	0.602671	0.485200	0.508747
	O297	O	0.049999	0.017771	0.995694
	H298	H	0.046815	0.022443	0.987038
	H299	H	0.056819	0.024184	1.000377
	O300	O	0.448913	0.536715	0.550417
	H301	H	0.444532	0.533012	0.550373
	H302	H	0.462856	0.536158	0.542497
	O303	O	1.105485	0.874323	0.030350
	H304	H	1.113457	0.862916	0.028015
	H305	H	1.091593	0.872136	0.040183
	O306	O	0.007309	0.953126	1.057796
	H307	H	-0.007655	0.963925	1.059119
	H308	H	0.001339	0.951866	1.061825
	O309	O	0.600932	0.353208	0.463960
	H310	H	0.605743	0.349554	0.452436
	H311	H	0.597145	0.355597	0.450892
	O312	O	-0.038130	-0.001402	0.127628
	H313	H	-0.028936	0.000660	0.127008
	H314	H	-0.037430	0.003940	0.119648
	O315	O	0.986787	0.079076	0.037620
	H316	H	0.982040	0.087950	0.041912
	H317	H	0.998525	0.080736	0.033434
	O318	O	0.937029	1.150349	0.918109
	H319	H	0.940064	1.154371	0.909931
	H320	H	0.936104	1.145024	0.905514
	O321	O	0.090338	-0.047501	0.914896
	H322	H	0.092590	-0.058638	0.908731
	H323	H	0.095685	-0.055601	0.918570
	O324	O	0.413239	0.500312	0.488622
	H325	H	0.420738	0.499596	0.487497
	H326	H	0.418099	0.499324	0.494178
	O327	O	0.087832	-0.042825	-0.038337
	H328	H	0.098419	-0.043429	-0.034659
	H329	H	0.094195	-0.042454	-0.041777
	O330	O	0.478010	0.471746	0.402591
	H331	H	0.473395	0.477847	0.414454
	H332	H	0.472988	0.464982	0.398569
	O333	O	-0.079235	0.904790	1.045714
	H334	H	-0.082853	0.912235	1.040762
	H335	H	-0.082524	0.895375	1.057357
	O336	O	-0.083527	-0.027979	0.021903
	H337	H	-0.083688	-0.028449	0.013162
	H338	H	-0.080649	-0.036621	0.027413
	O339	O	0.511684	0.411888	0.564579
	H340	H	0.509215	0.412671	0.579732
	H341	H	0.503121	0.421639	0.566634
	O342	O	0.936994	0.933434	0.932593
	H343	H	0.935374	0.940069	0.931755
	H344	H	0.936399	0.929565	0.923084
	O345	O	0.883096	0.989319	-0.082027
	H346	H	0.875614	0.971935	-0.085746
	H347	H	0.876531	0.988495	-0.070062
	O348	O	0.556766	0.536091	0.433829
	H349	H	0.560423	0.541840	0.437071
	H350	H	0.564702	0.535072	0.431383
	O351	O	0.136688	1.093310	0.116695
	H352	H	0.137303	1.091401	0.123120
	H353	H	0.120322	1.102541	0.129904
	O354	O	0.447973	0.494226	0.492216
	H355	H	0.442267	0.501470	0.480910
	H356	H	0.454043	0.484820	0.484427
	O357	O	1.022231	-0.109156	1.051648
	H358	H	1.028635	-0.106597	1.046078
	H359	H	1.028353	-0.109951	1.049686
	O360	O	0.563960	0.544048	0.541102
	H361	H	0.552792	0.543549	0.547075
	H362	H	0.548037	0.545311	0.544866
	O363	O	0.436861	0.525677	0.461998
	H364	H	0.428533	0.529343	0.466213
	H365	H	0.444766	0.520346	0.465081
	O366	O	0.928673	0.893740	0.920292
	H367	H	0.921192	0.905814	0.936244
	H368	H	0.930582	0.887170	0.909194
	O369	O	1.170311	0.063877	1.029887
	H370	H	1.160006	0.060916	1.034388
	H371	H	1.165514	0.054236	1.032317
	O372	O	-0.035475	-0.047769	-0.069800
	H373	H	-0.035779	-0.052801	-0.070995
	H374	H	-0.025217	-0.041896	-0.082204
	O375	O	1.061391	0.028243	-0.053056
	H376	H	1.063097	0.035977	-0.049053
	H377	H	1.056917	0.026440	-0.042373
	O378	O	0.552668	0.525121	0.536867
	H379	H	0.548363	0.539734	0.547006
	H380	H	0.560139	0.522848	0.536658
	O381	O	0.509135	0.601889	0.520677
	H382	H	0.507177	0.604938	0.527717
	H383	H	0.494650	0.607426	0.522817
