data_Molecule from HDF5

_cell_length_a		16.207072
_cell_length_b		16.322664
_cell_length_c		16.248483
_cell_angle_alpha	89.993862
_cell_angle_beta	90.047370
_cell_angle_gamma	90.034451
_symmetry_space_group_name_H-M	'P 1'
_symmetry_Int_Tables_number		1

loop_
	_symmetry_equiv_pos_as_xyz
	x,y,z

loop_
	_atom_site_label
	_atom_site_type_symbol
	_atom_site_fract_x
	_atom_site_fract_y
	_atom_site_fract_z
	H0	H	0.402929	0.835773	0.713814
	H1	H	0.598281	0.163596	0.715622
	H2	H	0.596268	0.835883	0.287860
	H3	H	0.401960	0.163365	0.284689
	H4	H	0.712262	0.402539	0.834917
	H5	H	0.712961	0.596086	0.164310
	H6	H	0.287485	0.595402	0.835126
	H7	H	0.287360	0.402117	0.164780
	H8	H	0.835561	0.714104	0.401793
	H9	H	0.164522	0.714040	0.597873
	H10	H	0.835729	0.285827	0.598184
	H11	H	0.165035	0.286931	0.401701
	H12	H	0.835435	0.403288	0.712546
	H13	H	0.164366	0.598036	0.713183
	H14	H	0.834941	0.597540	0.287195
	H15	H	0.164897	0.402938	0.286707
	H16	H	0.401373	0.713208	0.835787
	H17	H	0.599170	0.713816	0.164364
	H18	H	0.598834	0.284345	0.836081
	H19	H	0.402102	0.285351	0.163951
	H20	H	0.713435	0.836385	0.403210
	H21	H	0.713600	0.164882	0.597266
	H22	H	0.285942	0.836075	0.597421
	H23	H	0.286648	0.164323	0.402854
	H24	H	0.902275	0.336650	0.214657
	H25	H	0.097472	0.664248	0.214028
	H26	H	0.098518	0.337162	0.784466
	H27	H	0.901555	0.663553	0.785193
	H28	H	0.212148	0.904884	0.335098
	H29	H	0.213259	0.097494	0.664694
	H30	H	0.787825	0.097547	0.334410
	H31	H	0.788289	0.904049	0.664625
	H32	H	0.335423	0.213709	0.901878
	H33	H	0.664408	0.213081	0.098315
	H34	H	0.335643	0.786201	0.097723
	H35	H	0.664165	0.786041	0.901878
	H36	H	0.335164	0.902036	0.213509
	H37	H	0.665490	0.096416	0.212455
	H38	H	0.335015	0.096417	0.787374
	H39	H	0.664916	0.902540	0.787388
	H40	H	0.902196	0.214377	0.335658
	H41	H	0.098583	0.213942	0.664287
	H42	H	0.098286	0.786762	0.335278
	H43	H	0.901981	0.785777	0.663712
	H44	H	0.213181	0.336179	0.902601
	H45	H	0.214617	0.664017	0.097845
	H46	H	0.786205	0.335384	0.097096
	H47	H	0.786628	0.663789	0.903051
	H48	H	0.416812	0.114601	0.599710
	H49	H	0.600141	0.881274	0.599531
	H50	H	0.595017	0.115884	0.410776
	H51	H	0.405743	0.883763	0.404597
	H52	H	0.593701	0.399520	0.118670
	H53	H	0.588219	0.592052	0.884698
	H54	H	0.405379	0.594516	0.117983
	H55	H	0.417847	0.412237	0.887845
	H56	H	0.118066	0.594940	0.404839
	H57	H	0.878125	0.606363	0.595174
	H58	H	0.115615	0.409613	0.590333
	H59	H	0.884466	0.410309	0.408260
	H60	H	0.118417	0.408152	0.597334
	H61	H	0.887124	0.590520	0.580450
	H62	H	0.117631	0.595515	0.408773
	H63	H	0.881213	0.405575	0.402897
	H64	H	0.406937	0.591735	0.116617
	H65	H	0.593403	0.598602	0.881591
	H66	H	0.597803	0.410299	0.117470
	H67	H	0.407321	0.392616	0.878978
	H68	H	0.597845	0.118906	0.401942
	H69	H	0.585691	0.885807	0.596452
	H70	H	0.405779	0.113464	0.583103
	H71	H	0.407409	0.883973	0.407046
	H72	H	0.909222	0.619699	0.109735
	H73	H	0.101310	0.383665	0.087936
	H74	H	0.097294	0.618406	0.903076
	H75	H	0.905461	0.384061	0.910128
	H76	H	0.099240	0.911001	0.616843
	H77	H	0.093126	0.086069	0.385447
	H78	H	0.895008	0.093041	0.620331
	H79	H	0.907166	0.897251	0.380608
	H80	H	0.617128	0.085640	0.897984
	H81	H	0.383452	0.088680	0.092500
	H82	H	0.615936	0.910234	0.093608
	H83	H	0.382714	0.899753	0.915796
	H84	H	0.619543	0.903478	0.098530
	H85	H	0.381181	0.095355	0.096563
	H86	H	0.621323	0.104640	0.906857
	H87	H	0.385395	0.915931	0.906693
	H88	H	0.912864	0.084860	0.612951
	H89	H	0.086161	0.098464	0.383661
	H90	H	0.085972	0.909291	0.613771
	H91	H	0.898804	0.910364	0.381149
	H92	H	0.089303	0.616695	0.904379
	H93	H	0.095046	0.381019	0.103773
	H94	H	0.916769	0.610052	0.084725
	H95	H	0.903911	0.381838	0.902906
	H96	H	0.397395	0.121412	0.600037
	H97	H	0.596379	0.885214	0.585170
	H98	H	0.588743	0.116084	0.403653
	H99	H	0.404643	0.883468	0.407512
	H100	H	0.586757	0.407756	0.114399
	H101	H	0.596377	0.590728	0.882275
	H102	H	0.408309	0.594407	0.117122
	H103	H	0.394627	0.412611	0.881699
	H104	H	0.116720	0.592056	0.406849
	H105	H	0.881933	0.584691	0.602297
	H106	H	0.118445	0.402703	0.592046
	H107	H	0.882548	0.403363	0.410051
	H108	H	0.890801	0.619006	0.088992
	H109	H	0.084319	0.387617	0.090901
	H110	H	0.094775	0.616266	0.910527
	H111	H	0.910255	0.384819	0.905068
	H112	H	0.093161	0.898761	0.619785
	H113	H	0.100323	0.097698	0.380194
	H114	H	0.912522	0.104876	0.618190
	H115	H	0.913649	0.910563	0.385888
	H116	H	0.613027	0.088409	0.918177
	H117	H	0.383243	0.095697	0.088645
	H118	H	0.618201	0.902615	0.090511
	H119	H	0.378844	0.901252	0.897438
	C120	C	0.378711	0.008065	0.621819
	C121	C	0.622356	0.992379	0.622384
	C122	C	0.621684	0.008643	0.378194
	C123	C	0.377977	0.991855	0.377955
	C124	C	0.620938	0.377916	0.008101
	C125	C	0.621171	0.621521	0.991855
	C126	C	0.378747	0.621134	0.008463
	C127	C	0.378666	0.377936	0.991698
	C128	C	0.008603	0.621785	0.378723
	C129	C	0.991222	0.621856	0.621051
	C130	C	0.008426	0.378830	0.621354
	C131	C	0.991728	0.378567	0.378869
	C132	C	0.877923	0.508271	0.122075
	C133	C	0.121651	0.492192	0.122029
	C134	C	0.121759	0.508816	0.877962
	C135	C	0.878145	0.491506	0.877920
	C136	C	0.121339	0.878580	0.508232
	C137	C	0.121679	0.122012	0.491817
	C138	C	0.878861	0.122009	0.508000
	C139	C	0.878412	0.878320	0.491279
	C140	C	0.508061	0.121021	0.879079
	C141	C	0.491811	0.121157	0.121100
	C142	C	0.508645	0.878089	0.121472
	C143	C	0.491535	0.878241	0.878857
	C144	C	0.381826	0.884690	0.676356
	C145	C	0.618930	0.115215	0.677304
	C146	C	0.617680	0.884795	0.324797
	C147	C	0.380839	0.114949	0.322666
	C148	C	0.675213	0.381357	0.884277
	C149	C	0.675529	0.617459	0.115491
	C150	C	0.324751	0.616931	0.884314
	C151	C	0.324615	0.381456	0.115653
	C152	C	0.884381	0.676146	0.381156
	C153	C	0.115402	0.676311	0.618539
	C154	C	0.884750	0.324025	0.618520
	C155	C	0.115581	0.324301	0.381156
	C156	C	0.884404	0.382243	0.675324
	C157	C	0.115281	0.618802	0.675897
	C158	C	0.884092	0.618164	0.324511
	C159	C	0.115811	0.382401	0.324436
	C160	C	0.381201	0.675472	0.884708
	C161	C	0.618909	0.675801	0.115292
	C162	C	0.619124	0.322519	0.884831
	C163	C	0.381652	0.323384	0.115226
	C164	C	0.675587	0.884964	0.382413
	C165	C	0.676167	0.115661	0.618399
	C166	C	0.323762	0.884898	0.618538
	C167	C	0.323827	0.115357	0.381317
	C168	C	0.881161	0.385083	0.176756
	C169	C	0.118635	0.615456	0.176625
	C170	C	0.118925	0.385667	0.823054
	C171	C	0.881225	0.614824	0.823416
	C172	C	0.175347	0.882808	0.384258
	C173	C	0.176106	0.118388	0.615498
	C174	C	0.824810	0.118499	0.384038
	C175	C	0.824914	0.882257	0.615256
	C176	C	0.384396	0.175793	0.881650
	C177	C	0.615676	0.175570	0.118661
	C178	C	0.384760	0.823518	0.118539
	C179	C	0.615361	0.823769	0.881546
	C180	C	0.384285	0.881479	0.175596
	C181	C	0.615940	0.117219	0.175266
	C182	C	0.384098	0.117653	0.824818
	C183	C	0.615805	0.881903	0.824816
	C184	C	0.881565	0.176753	0.384513
	C185	C	0.119109	0.176293	0.615246
	C186	C	0.118700	0.824234	0.384340
	C187	C	0.881287	0.823567	0.614764
	C188	C	0.175512	0.385123	0.881998
	C189	C	0.176775	0.615305	0.118983
	C190	C	0.823731	0.384404	0.118317
	C191	C	0.823870	0.614874	0.881640
	C192	C	0.400400	0.094135	0.600593
	C193	C	0.600428	0.906290	0.600406
	C194	C	0.600365	0.094863	0.399188
	C195	C	0.399530	0.905936	0.399870
	C196	C	0.599210	0.399499	0.094555
	C197	C	0.599218	0.600105	0.905235
	C198	C	0.400484	0.599865	0.094915
	C199	C	0.400297	0.399488	0.905150
	C200	C	0.095098	0.600384	0.400363
	C201	C	0.904761	0.600326	0.599054
	C202	C	0.095211	0.400375	0.599538
	C203	C	0.905004	0.400077	0.400701
	C204	C	0.899343	0.594133	0.100769
	C205	C	0.099968	0.406186	0.100507
	C206	C	0.100273	0.594990	0.899634
	C207	C	0.900038	0.405731	0.899633
	C208	C	0.099414	0.899891	0.594527
	C209	C	0.099581	0.100325	0.405385
	C210	C	0.900413	0.100619	0.594734
	C211	C	0.900043	0.899739	0.404748
	C212	C	0.594757	0.099429	0.901044
	C213	C	0.405092	0.099711	0.099098
	C214	C	0.595459	0.899305	0.100510
	C215	C	0.404749	0.899393	0.900160
	Zn216	Zn	0.499636	-0.000248	0.750922
	Zn217	Zn	0.499905	-0.000125	0.249224
	Zn218	Zn	0.749187	0.499422	-0.000348
	Zn219	Zn	0.250326	0.499706	0.000116
	Zn220	Zn	0.000011	0.750080	0.499545
	Zn221	Zn	0.000481	0.250378	0.500281
	Zn222	Zn	-0.000018	0.500492	0.749103
	Zn223	Zn	0.000218	0.500582	0.251346
	Zn224	Zn	0.499977	0.749750	-0.000049
	Zn225	Zn	0.500101	0.249549	-0.000106
	Zn226	Zn	0.750376	0.000485	0.499529
	Zn227	Zn	0.249505	0.000193	0.500275
	N228	N	0.414954	0.962293	0.678572
	N229	N	0.586193	0.037420	0.679780
	N230	N	0.584916	0.962570	0.322125
	N231	N	0.413764	0.037278	0.320564
	N232	N	0.676770	0.414969	0.962016
	N233	N	0.677058	0.584319	0.037612
	N234	N	0.323334	0.583542	0.962077
	N235	N	0.322614	0.414660	0.037775
	N236	N	0.962645	0.678484	0.414216
	N237	N	0.037500	0.678315	0.585066
	N238	N	0.963028	0.321818	0.585828
	N239	N	0.037386	0.321811	0.414178
	N240	N	0.962314	0.415650	0.677131
	N241	N	0.037214	0.585461	0.677276
	N242	N	0.962297	0.585231	0.322836
	N243	N	0.037643	0.415373	0.322836
	N244	N	0.413822	0.678294	0.962874
	N245	N	0.586284	0.678518	0.037180
	N246	N	0.586093	0.320469	0.962784
	N247	N	0.414565	0.321309	0.037211
	N248	N	0.678048	0.962862	0.414865
	N249	N	0.678298	0.038222	0.584979
	N250	N	0.321629	0.962573	0.585567
	N251	N	0.321876	0.037956	0.415015
	N252	N	0.914165	0.462757	0.179075
	N253	N	0.085165	0.537966	0.178487
	N254	N	0.086257	0.463488	0.820435
	N255	N	0.914287	0.537338	0.821067
	N256	N	0.176986	0.915833	0.462113
	N257	N	0.177607	0.085151	0.537623
	N258	N	0.823147	0.085010	0.461789
	N259	N	0.823275	0.915713	0.537529
	N260	N	0.462628	0.177878	0.914525
	N261	N	0.537499	0.178218	0.085722
	N262	N	0.462913	0.821345	0.085566
	N263	N	0.537339	0.821605	0.914401
	N264	N	0.462432	0.914511	0.177814
	N265	N	0.537979	0.084034	0.176561
	N266	N	0.462035	0.084291	0.823278
	N267	N	0.537589	0.914999	0.822843
	N268	N	0.914411	0.179044	0.462728
	N269	N	0.086015	0.178508	0.537461
	N270	N	0.085552	0.821630	0.462486
	N271	N	0.913930	0.821127	0.536572
	N272	N	0.177412	0.462612	0.915388
	N273	N	0.178721	0.537713	0.085690
	N274	N	0.821427	0.461953	0.085126
	N275	N	0.821961	0.537284	0.914915
