data_Molecule from HDF5

_cell_length_a		16.052764
_cell_length_b		16.143661
_cell_length_c		16.500538
_cell_angle_alpha	90.498442
_cell_angle_beta	90.217689
_cell_angle_gamma	90.037210
_symmetry_space_group_name_H-M	'P 1'
_symmetry_Int_Tables_number		1

loop_
	_symmetry_equiv_pos_as_xyz
	x,y,z

loop_
	_atom_site_label
	_atom_site_type_symbol
	_atom_site_fract_x
	_atom_site_fract_y
	_atom_site_fract_z
	H0	H	0.379650	0.833691	0.714782
	H1	H	0.593829	0.157072	0.721411
	H2	H	0.588187	0.833666	0.279213
	H3	H	0.384327	0.160746	0.282888
	H4	H	0.704850	0.392963	0.839182
	H5	H	0.703067	0.598791	0.161343
	H6	H	0.268117	0.594739	0.838867
	H7	H	0.270954	0.399926	0.162347
	H8	H	0.820807	0.707150	0.402199
	H9	H	0.150753	0.711057	0.600060
	H10	H	0.820996	0.283306	0.596821
	H11	H	0.151857	0.283736	0.402791
	H12	H	0.823300	0.393241	0.717639
	H13	H	0.148455	0.603576	0.720071
	H14	H	0.823782	0.600448	0.281718
	H15	H	0.149530	0.391205	0.282977
	H16	H	0.385109	0.710599	0.837795
	H17	H	0.587965	0.717160	0.159711
	H18	H	0.587527	0.275416	0.839025
	H19	H	0.385558	0.280398	0.161100
	H20	H	0.696507	0.829749	0.401962
	H21	H	0.699551	0.161291	0.597246
	H22	H	0.274264	0.830755	0.591131
	H23	H	0.273261	0.162541	0.402329
	H24	H	0.880666	0.333282	0.217203
	H25	H	0.093353	0.657699	0.223138
	H26	H	0.091790	0.335715	0.779617
	H27	H	0.878977	0.659203	0.782227
	H28	H	0.200780	0.896063	0.335854
	H29	H	0.203935	0.096736	0.660737
	H30	H	0.770358	0.092980	0.337377
	H31	H	0.767237	0.895238	0.659566
	H32	H	0.320257	0.209735	0.899094
	H33	H	0.650289	0.211085	0.099087
	H34	H	0.319396	0.786483	0.093538
	H35	H	0.650437	0.780872	0.900537
	H36	H	0.321694	0.894770	0.213358
	H37	H	0.648607	0.103064	0.218238
	H38	H	0.322748	0.098879	0.780212
	H39	H	0.649155	0.888796	0.780052
	H40	H	0.886740	0.209770	0.337389
	H41	H	0.090271	0.216927	0.659506
	H42	H	0.087438	0.774182	0.338629
	H43	H	0.884527	0.779967	0.660288
	H44	H	0.196884	0.331588	0.903489
	H45	H	0.198765	0.661869	0.099384
	H46	H	0.770691	0.332451	0.097308
	H47	H	0.771442	0.661560	0.903981
	H48	H	0.400165	0.113017	0.594247
	H49	H	0.576126	0.879950	0.585359
	H50	H	0.573498	0.115035	0.401753
	H51	H	0.390274	0.879080	0.405024
	H52	H	0.576139	0.398485	0.115034
	H53	H	0.588568	0.589578	0.881625
	H54	H	0.395193	0.595089	0.115072
	H55	H	0.394276	0.403250	0.886743
	H56	H	0.106024	0.587355	0.408078
	H57	H	0.869356	0.581391	0.592460
	H58	H	0.103649	0.412783	0.594735
	H59	H	0.868572	0.403039	0.411216
	H60	H	0.105589	0.404095	0.593041
	H61	H	0.866026	0.587907	0.597582
	H62	H	0.103463	0.584677	0.412830
	H63	H	0.869250	0.410507	0.403081
	H64	H	0.390519	0.591755	0.115895
	H65	H	0.574313	0.576512	0.889853
	H66	H	0.583288	0.408776	0.114182
	H67	H	0.391635	0.399580	0.885177
	H68	H	0.575175	0.111527	0.410737
	H69	H	0.579735	0.876490	0.592836
	H70	H	0.398872	0.112779	0.589587
	H71	H	0.394931	0.878350	0.396802
	H72	H	0.898981	0.612929	0.093533
	H73	H	0.075152	0.379541	0.092533
	H74	H	0.072908	0.615158	0.908493
	H75	H	0.897060	0.379258	0.902967
	H76	H	0.076229	0.908638	0.610063
	H77	H	0.073695	0.087244	0.386292
	H78	H	0.891215	0.092598	0.615412
	H79	H	0.895893	0.904598	0.386296
	H80	H	0.603218	0.079114	0.903186
	H81	H	0.365435	0.087961	0.094635
	H82	H	0.604458	0.901758	0.085196
	H83	H	0.368171	0.903811	0.905713
	H84	H	0.601424	0.914599	0.089229
	H85	H	0.366491	0.089867	0.090500
	H86	H	0.604609	0.090195	0.908276
	H87	H	0.367424	0.906733	0.902997
	H88	H	0.894782	0.085494	0.612837
	H89	H	0.079532	0.094007	0.382758
	H90	H	0.077503	0.897955	0.613933
	H91	H	0.895450	0.897476	0.383297
	H92	H	0.076886	0.614539	0.911697
	H93	H	0.078450	0.379223	0.091470
	H94	H	0.895643	0.613236	0.093675
	H95	H	0.902815	0.382063	0.908044
	H96	H	0.395077	0.113731	0.592919
	H97	H	0.571026	0.879146	0.592636
	H98	H	0.583308	0.115702	0.405716
	H99	H	0.399614	0.881417	0.404766
	H100	H	0.572002	0.408948	0.110503
	H101	H	0.569022	0.595782	0.885122
	H102	H	0.394872	0.589753	0.113588
	H103	H	0.389083	0.404179	0.884597
	H104	H	0.104501	0.581299	0.408109
	H105	H	0.867554	0.589695	0.587801
	H106	H	0.102182	0.409940	0.586944
	H107	H	0.863926	0.399565	0.401261
	H108	H	0.897709	0.613294	0.096032
	H109	H	0.077758	0.378202	0.095276
	H110	H	0.077070	0.615677	0.906448
	H111	H	0.895617	0.380944	0.911013
	H112	H	0.086551	0.905812	0.614338
	H113	H	0.083339	0.085999	0.384164
	H114	H	0.898687	0.092786	0.613308
	H115	H	0.888883	0.902542	0.383904
	H116	H	0.599622	0.081807	0.914713
	H117	H	0.368798	0.084606	0.090249
	H118	H	0.606386	0.905910	0.096705
	H119	H	0.366747	0.903294	0.902348
	C120	C	0.366536	0.004669	0.619129
	C121	C	0.607227	0.986869	0.620790
	C122	C	0.606287	0.005013	0.376931
	C123	C	0.365024	0.988256	0.375213
	C124	C	0.607901	0.373945	0.007197
	C125	C	0.607770	0.618687	0.991523
	C126	C	0.363184	0.619830	0.008308
	C127	C	0.363274	0.374215	0.992292
	C128	C	-0.004282	0.614965	0.379649
	C129	C	0.976332	0.618239	0.622893
	C130	C	-0.004913	0.377466	0.620592
	C131	C	0.976445	0.374486	0.377435
	C132	C	0.866205	0.504894	0.122512
	C133	C	0.107603	0.487253	0.122983
	C134	C	0.106493	0.506745	0.878606
	C135	C	0.865746	0.488430	0.878395
	C136	C	0.108855	0.873541	0.506597
	C137	C	0.109327	0.119451	0.490528
	C138	C	0.864688	0.118499	0.507248
	C139	C	0.863498	0.872807	0.490767
	C140	C	0.494144	0.115066	0.878386
	C141	C	0.475968	0.118188	0.121239
	C142	C	0.494560	0.877714	0.118344
	C143	C	0.476594	0.873865	0.875528
	C144	C	0.363744	0.881983	0.674935
	C145	C	0.610249	0.109107	0.680204
	C146	C	0.606524	0.881936	0.318955
	C147	C	0.365276	0.111773	0.320997
	C148	C	0.665549	0.373886	0.886890
	C149	C	0.665122	0.618867	0.112514
	C150	C	0.306490	0.615631	0.886969
	C151	C	0.308211	0.378222	0.113741
	C152	C	0.870738	0.670352	0.381639
	C153	C	0.100680	0.674402	0.620826
	C154	C	0.870559	0.321242	0.617640
	C155	C	0.101700	0.319655	0.381185
	C156	C	0.871877	0.375697	0.677883
	C157	C	0.099501	0.621103	0.680849
	C158	C	0.872312	0.617002	0.321630
	C159	C	0.100545	0.373183	0.321667
	C160	C	0.364390	0.673481	0.886508
	C161	C	0.607499	0.677473	0.111936
	C162	C	0.606868	0.315468	0.886799
	C163	C	0.365288	0.318858	0.113097
	C164	C	0.660479	0.879963	0.379940
	C165	C	0.663018	0.111185	0.618541
	C166	C	0.310659	0.880502	0.613616
	C167	C	0.310303	0.112917	0.380643
	C168	C	0.863640	0.382152	0.178321
	C169	C	0.110069	0.609573	0.182301
	C170	C	0.108643	0.383879	0.820139
	C171	C	0.862007	0.610651	0.821340
	C172	C	0.163440	0.875335	0.384606
	C173	C	0.165989	0.117770	0.612165
	C174	C	0.808746	0.114369	0.385703
	C175	C	0.806243	0.875070	0.611566
	C176	C	0.370053	0.171994	0.879057
	C177	C	0.600663	0.174311	0.119448
	C178	C	0.369260	0.823079	0.114589
	C179	C	0.600852	0.817722	0.878853
	C180	C	0.370518	0.877062	0.174146
	C181	C	0.599569	0.120434	0.178945
	C182	C	0.371332	0.116987	0.819719
	C183	C	0.600100	0.871633	0.819037
	C184	C	0.866590	0.172604	0.385827
	C185	C	0.109522	0.177587	0.611527
	C186	C	0.107110	0.814638	0.386020
	C187	C	0.864773	0.817492	0.611979
	C188	C	0.161052	0.381908	0.881891
	C189	C	0.162566	0.611811	0.120718
	C190	C	0.808517	0.381765	0.118825
	C191	C	0.808227	0.611968	0.881847
	C192	C	0.390893	0.090904	0.598208
	C193	C	0.582758	0.900944	0.597324
	C194	C	0.583991	0.091512	0.399526
	C195	C	0.388207	0.901870	0.396027
	C196	C	0.584226	0.398326	0.091304
	C197	C	0.584147	0.594220	0.907287
	C198	C	0.386556	0.598712	0.092954
	C199	C	0.385309	0.395872	0.907466
	C200	C	0.082194	0.591419	0.402853
	C201	C	0.889948	0.593533	0.599483
	C202	C	0.081459	0.401717	0.598144
	C203	C	0.889839	0.397645	0.398912
	C204	C	0.890482	0.591009	0.100789
	C205	C	0.083829	0.401307	0.099891
	C206	C	0.082527	0.592685	0.901861
	C207	C	0.891060	0.402885	0.900751
	C208	C	0.086567	0.897286	0.591016
	C209	C	0.085726	0.096036	0.406274
	C210	C	0.888021	0.096622	0.591887
	C211	C	0.886659	0.895067	0.406460
	C212	C	0.580128	0.090797	0.901946
	C213	C	0.389326	0.094382	0.098435
	C214	C	0.581351	0.900811	0.096652
	C215	C	0.389912	0.897728	0.897285
	Zn216	Zn	0.486289	-0.004926	0.749134
	Zn217	Zn	0.485899	-0.003014	0.247249
	Zn218	Zn	0.738379	0.496931	0.000287
	Zn219	Zn	0.233702	0.497128	0.000616
	Zn220	Zn	-0.013898	0.743037	0.499675
	Zn221	Zn	-0.013884	0.249130	0.498998
	Zn222	Zn	-0.013916	0.497889	0.749947
	Zn223	Zn	-0.013404	0.495552	0.251359
	Zn224	Zn	0.485454	0.749147	-0.001046
	Zn225	Zn	0.484996	0.243222	-0.000543
	Zn226	Zn	0.734596	-0.004111	0.498775
	Zn227	Zn	0.238622	-0.003287	0.497886
	N228	N	0.397884	0.960245	0.678560
	N229	N	0.576472	0.030649	0.681861
	N230	N	0.573819	0.960644	0.316861
	N231	N	0.398215	0.033217	0.317292
	N232	N	0.666150	0.409524	0.962748
	N233	N	0.665115	0.582867	0.036701
	N234	N	0.305436	0.583151	0.963811
	N235	N	0.306938	0.411950	0.037475
	N236	N	0.948525	0.669411	0.416907
	N237	N	0.022879	0.672864	0.585457
	N238	N	0.948236	0.322105	0.582915
	N239	N	0.023532	0.320101	0.414996
	N240	N	0.950341	0.410123	0.679597
	N241	N	0.021161	0.586787	0.681950
	N242	N	0.951099	0.583552	0.320054
	N243	N	0.021697	0.406434	0.318982
	N244	N	0.398810	0.676252	0.962933
	N245	N	0.572619	0.677579	0.035580
	N246	N	0.572045	0.315239	0.962896
	N247	N	0.398729	0.316115	0.036444
	N248	N	0.660626	0.957526	0.415311
	N249	N	0.661296	0.034133	0.582339
	N250	N	0.312319	0.957973	0.579791
	N251	N	0.309978	0.035012	0.413664
	N252	N	0.898558	0.459989	0.180939
	N253	N	0.076296	0.531212	0.183724
	N254	N	0.075678	0.462432	0.817911
	N255	N	0.896973	0.532821	0.819042
	N256	N	0.164658	0.911016	0.460603
	N257	N	0.166113	0.082540	0.535984
	N258	N	0.807153	0.081636	0.462295
	N259	N	0.805280	0.908723	0.535278
	N260	N	0.447610	0.170956	0.914744
	N261	N	0.522851	0.172848	0.084060
	N262	N	0.447461	0.823297	0.080524
	N263	N	0.523063	0.819039	0.913207
	N264	N	0.449382	0.910066	0.176820
	N265	N	0.521156	0.086190	0.180011
	N266	N	0.449659	0.082532	0.818888
	N267	N	0.521584	0.905743	0.816653
	N268	N	0.900462	0.175471	0.462686
	N269	N	0.074875	0.178749	0.534995
	N270	N	0.074153	0.813183	0.462883
	N271	N	0.899704	0.815865	0.535904
	N272	N	0.159999	0.459336	0.917745
	N273	N	0.161203	0.534845	0.084466
	N274	N	0.810033	0.459118	0.084794
	N275	N	0.810458	0.534886	0.916801
	O276	O	0.942027	0.018268	1.090023
	H277	H	0.944207	0.016979	1.083270
	H278	H	0.939605	0.024231	1.095608
	O279	O	0.567792	0.599080	0.564990
	H280	H	0.558232	0.598869	0.563234
	H281	H	0.576138	0.585327	0.557224
	O282	O	0.529390	0.491159	0.616428
	H283	H	0.532826	0.475114	0.618621
	H284	H	0.537694	0.504901	0.630501
	O285	O	0.545087	0.480830	0.518364
	H286	H	0.548934	0.487723	0.523738
	H287	H	0.546340	0.485420	0.524312
	O288	O	0.542355	0.497531	0.365004
	H289	H	0.530085	0.497515	0.363583
	H290	H	0.553447	0.499237	0.364767
	O291	O	-0.059230	0.135960	1.120064
	H292	H	-0.048522	0.146612	1.125925
	H293	H	-0.067312	0.128837	1.122645
	O294	O	1.081579	1.033827	-0.063449
	H295	H	1.089421	1.028065	-0.070376
	H296	H	1.080116	1.031954	-0.049552
	O297	O	1.060715	0.882321	-0.052656
	H298	H	1.049297	0.890359	-0.047962
	H299	H	1.064114	0.894896	-0.051593
	O300	O	0.381581	0.543284	0.415830
	H301	H	0.377813	0.538431	0.404394
	H302	H	0.374115	0.559374	0.418812
	O303	O	0.450049	0.439091	0.600371
	H304	H	0.456696	0.437170	0.607778
	H305	H	0.447213	0.446541	0.609042
	O306	O	1.040220	1.081652	0.871267
	H307	H	1.029168	1.091337	0.864649
	H308	H	1.051241	1.068710	0.877208
	O309	O	0.494457	0.448070	0.633019
	H310	H	0.490317	0.447556	0.626366
	H311	H	0.496360	0.449347	0.633486
	O312	O	0.818853	1.046339	1.048708
	H313	H	0.820718	1.035352	1.037081
	H314	H	0.799056	1.062696	1.042748
	O315	O	0.986074	1.139771	0.053811
	H316	H	0.976740	1.127090	0.055679
	H317	H	0.992291	1.148800	0.057828
	O318	O	0.547462	0.461956	0.485326
	H319	H	0.553573	0.454642	0.484830
	H320	H	0.552653	0.447365	0.491072
	O321	O	0.381012	0.473967	0.480803
	H322	H	0.390005	0.483084	0.496537
	H323	H	0.389650	0.478523	0.477482
	O324	O	0.098971	0.949359	0.940692
	H325	H	0.108278	0.939056	0.931766
	H326	H	0.114887	0.938479	0.942113
	O327	O	-0.014320	0.864929	1.114069
	H328	H	-0.014786	0.858966	1.113000
	H329	H	-0.022102	0.847545	1.109486
	O330	O	-0.205279	0.071432	-0.141262
	H331	H	-0.205601	0.075553	-0.154214
	H332	H	-0.206263	0.074756	-0.146030
	O333	O	0.434048	0.596689	0.511567
	H334	H	0.423317	0.603431	0.505914
	H335	H	0.430392	0.594760	0.507614
	O336	O	-0.141944	0.010628	-0.057791
	H337	H	-0.146527	0.009505	-0.067533
	H338	H	-0.143358	0.009635	-0.047087
	O339	O	0.023984	0.014244	-0.077955
	H340	H	0.027329	0.018928	-0.086018
	H341	H	0.022949	0.020373	-0.075729
	O342	O	0.489455	0.585139	0.418891
	H343	H	0.495128	0.586908	0.409502
	H344	H	0.487119	0.586102	0.421671
	O345	O	-0.104658	0.927061	1.066237
	H346	H	-0.111440	0.932771	1.070110
	H347	H	-0.096600	0.934937	1.063072
	O348	O	0.465610	0.516558	0.591512
	H349	H	0.466890	0.505879	0.588078
	H350	H	0.463921	0.509261	0.592475
	O351	O	0.404819	0.499085	0.594109
	H352	H	0.405479	0.486450	0.605425
	H353	H	0.407386	0.504031	0.592659
	O354	O	0.472206	0.471628	0.492586
	H355	H	0.471876	0.476933	0.488528
	H356	H	0.466303	0.488578	0.494630
	O357	O	0.899864	1.024975	0.026045
	H358	H	0.903271	1.032772	0.017629
	H359	H	0.899397	1.028666	0.039339
	O360	O	0.999005	-0.088026	1.170722
	H361	H	0.998690	-0.098689	1.168384
	H362	H	0.998996	-0.087907	1.176886
	O363	O	0.537139	0.579345	0.536977
	H364	H	0.533745	0.588183	0.535718
	H365	H	0.546660	0.583786	0.537705
	O366	O	0.814769	1.040223	-0.105199
	H367	H	0.829932	1.039251	-0.107102
	H368	H	0.809850	1.048416	-0.091018
	O369	O	1.062960	-0.002164	0.115115
	H370	H	1.063573	-0.001210	0.104253
	H371	H	1.058840	0.001596	0.126632
	O372	O	0.540819	0.443500	0.404596
	H373	H	0.548063	0.456004	0.406572
	H374	H	0.545886	0.430830	0.411415
	O375	O	1.094756	0.058063	1.007477
	H376	H	1.104116	0.053597	1.007769
	H377	H	1.091806	0.055864	1.006854
	O378	O	0.057392	0.891987	-0.108139
	H379	H	0.064281	0.891449	-0.115872
	H380	H	0.052254	0.885255	-0.111608
	O381	O	0.458521	0.411104	0.493712
	H382	H	0.452994	0.405995	0.497701
	H383	H	0.464928	0.409873	0.480496
	O384	O	1.000191	0.994979	-0.034081
	H385	H	0.988907	0.983276	-0.038508
	H386	H	0.991943	0.995496	-0.027467
	O387	O	1.128145	-0.008618	1.044995
	H388	H	1.125650	-0.001038	1.050860
	H389	H	1.146057	-0.002469	1.044937
	O390	O	0.953015	0.879995	-0.121848
	H391	H	0.959932	0.877923	-0.105962
	H392	H	0.947988	0.879456	-0.121604
	O393	O	0.499403	0.437129	0.513873
	H394	H	0.500251	0.432171	0.530752
	H395	H	0.491732	0.429615	0.511700
