data_Molecule from HDF5

_cell_length_a		16.259274
_cell_length_b		16.296589
_cell_length_c		16.374586
_cell_angle_alpha	90.023768
_cell_angle_beta	89.958971
_cell_angle_gamma	90.039968
_symmetry_space_group_name_H-M	'P 1'
_symmetry_Int_Tables_number		1

loop_
	_symmetry_equiv_pos_as_xyz
	x,y,z

loop_
	_atom_site_label
	_atom_site_type_symbol
	_atom_site_fract_x
	_atom_site_fract_y
	_atom_site_fract_z
	H0	H	0.401660	0.838866	0.715596
	H1	H	0.600228	0.165178	0.715268
	H2	H	0.601107	0.838466	0.284259
	H3	H	0.401887	0.164755	0.285156
	H4	H	0.716215	0.402423	0.836596
	H5	H	0.715709	0.600897	0.162501
	H6	H	0.286904	0.599675	0.836295
	H7	H	0.286831	0.404979	0.163008
	H8	H	0.836696	0.713911	0.404257
	H9	H	0.165405	0.714985	0.597352
	H10	H	0.836543	0.289545	0.596555
	H11	H	0.165484	0.288977	0.402079
	H12	H	0.837000	0.402387	0.715287
	H13	H	0.164890	0.600352	0.713809
	H14	H	0.837106	0.600460	0.285917
	H15	H	0.164564	0.402913	0.284315
	H16	H	0.402354	0.716508	0.837042
	H17	H	0.600547	0.717294	0.162115
	H18	H	0.599466	0.285890	0.837395
	H19	H	0.401949	0.287449	0.163220
	H20	H	0.714150	0.836867	0.403649
	H21	H	0.716386	0.164832	0.599201
	H22	H	0.287096	0.837786	0.597612
	H23	H	0.286495	0.165369	0.402738
	H24	H	0.900869	0.338607	0.215444
	H25	H	0.099906	0.665229	0.214716
	H26	H	0.100069	0.339297	0.783771
	H27	H	0.901640	0.664978	0.784999
	H28	H	0.215784	0.903200	0.337663
	H29	H	0.214802	0.100131	0.663384
	H30	H	0.787110	0.098688	0.337222
	H31	H	0.788209	0.903880	0.663877
	H32	H	0.336377	0.213931	0.903600
	H33	H	0.665159	0.215340	0.097494
	H34	H	0.337372	0.787457	0.098084
	H35	H	0.664834	0.788138	0.901671
	H36	H	0.337852	0.902410	0.215150
	H37	H	0.665277	0.101351	0.215801
	H38	H	0.336781	0.100479	0.786702
	H39	H	0.663829	0.903013	0.785183
	H40	H	0.901639	0.216639	0.337296
	H41	H	0.099993	0.217878	0.662406
	H42	H	0.099219	0.787485	0.336827
	H43	H	0.903837	0.787023	0.663075
	H44	H	0.212942	0.337423	0.903699
	H45	H	0.214745	0.666243	0.096799
	H46	H	0.787145	0.337628	0.096492
	H47	H	0.786430	0.665065	0.901131
	H48	H	0.406078	0.120659	0.602158
	H49	H	0.597275	0.886229	0.587453
	H50	H	0.598197	0.118453	0.408897
	H51	H	0.408379	0.885545	0.405396
	H52	H	0.592979	0.412903	0.113273
	H53	H	0.594523	0.585474	0.886782
	H54	H	0.400060	0.591920	0.116879
	H55	H	0.404942	0.408450	0.884348
	H56	H	0.118868	0.598541	0.407836
	H57	H	0.880387	0.606287	0.593374
	H58	H	0.116413	0.411117	0.592883
	H59	H	0.887357	0.412038	0.412257
	H60	H	0.117851	0.409598	0.593657
	H61	H	0.890013	0.588963	0.582803
	H62	H	0.115490	0.590573	0.409652
	H63	H	0.884315	0.412393	0.402242
	H64	H	0.413845	0.589871	0.112061
	H65	H	0.585924	0.600299	0.884887
	H66	H	0.591058	0.406592	0.114460
	H67	H	0.409103	0.407151	0.884272
	H68	H	0.592732	0.118214	0.402836
	H69	H	0.598863	0.881733	0.600084
	H70	H	0.416731	0.115583	0.592200
	H71	H	0.410187	0.885760	0.407838
	H72	H	0.915532	0.613958	0.086975
	H73	H	0.093683	0.386639	0.092089
	H74	H	0.101370	0.621725	0.903851
	H75	H	0.907191	0.384144	0.903182
	H76	H	0.091237	0.908783	0.615260
	H77	H	0.089350	0.100078	0.384679
	H78	H	0.911375	0.094579	0.614363
	H79	H	0.907436	0.907414	0.384939
	H80	H	0.619845	0.097065	0.902486
	H81	H	0.384875	0.093920	0.094798
	H82	H	0.617020	0.917811	0.099725
	H83	H	0.385522	0.907967	0.912922
	H84	H	0.621550	0.899600	0.095387
	H85	H	0.384449	0.094988	0.094764
	H86	H	0.616420	0.096751	0.913482
	H87	H	0.384210	0.913289	0.904448
	H88	H	0.908137	0.099361	0.617089
	H89	H	0.100154	0.094544	0.382929
	H90	H	0.093971	0.904964	0.617206
	H91	H	0.907551	0.907254	0.384482
	H92	H	0.087958	0.617746	0.900273
	H93	H	0.094549	0.385413	0.093752
	H94	H	0.897510	0.619647	0.090006
	H95	H	0.914059	0.386868	0.906518
	H96	H	0.401511	0.117552	0.586998
	H97	H	0.586807	0.887493	0.596095
	H98	H	0.590501	0.115483	0.410566
	H99	H	0.407298	0.885577	0.408221
	H100	H	0.597138	0.408301	0.116248
	H101	H	0.601660	0.599687	0.880529
	H102	H	0.409898	0.602892	0.116701
	H103	H	0.406177	0.404526	0.883268
	H104	H	0.118530	0.592715	0.401607
	H105	H	0.883404	0.586785	0.604369
	H106	H	0.116626	0.409501	0.591315
	H107	H	0.882550	0.404251	0.407318
	H108	H	0.910140	0.620661	0.104643
	H109	H	0.092182	0.386115	0.093584
	H110	H	0.092625	0.615836	0.914083
	H111	H	0.906983	0.386582	0.911232
	H112	H	0.096121	0.909087	0.616099
	H113	H	0.091155	0.088140	0.387314
	H114	H	0.904814	0.094022	0.616016
	H115	H	0.907254	0.907151	0.383789
	H116	H	0.615035	0.087330	0.907000
	H117	H	0.385014	0.094747	0.093946
	H118	H	0.614243	0.911707	0.082934
	H119	H	0.382181	0.903620	0.904464
	C120	C	0.379491	0.009719	0.621888
	C121	C	0.622869	0.993199	0.622717
	C122	C	0.622633	0.009430	0.378896
	C123	C	0.379737	0.993385	0.378834
	C124	C	0.622772	0.380035	0.007724
	C125	C	0.622703	0.623616	0.991579
	C126	C	0.379465	0.623120	0.007588
	C127	C	0.378507	0.379344	0.991871
	C128	C	0.009312	0.622531	0.378464
	C129	C	0.992951	0.623076	0.621560
	C130	C	0.008873	0.380998	0.621408
	C131	C	0.992689	0.380545	0.378218
	C132	C	0.879098	0.510016	0.121742
	C133	C	0.122270	0.494211	0.121231
	C134	C	0.122647	0.510607	0.877885
	C135	C	0.880097	0.493513	0.878678
	C136	C	0.122562	0.879289	0.508518
	C137	C	0.122281	0.122930	0.492220
	C138	C	0.878956	0.124075	0.508526
	C139	C	0.879623	0.879529	0.492205
	C140	C	0.508856	0.122366	0.879308
	C141	C	0.493070	0.123123	0.122351
	C142	C	0.509845	0.880427	0.121345
	C143	C	0.492217	0.879905	0.878538
	C144	C	0.381899	0.887235	0.677017
	C145	C	0.620712	0.116192	0.677587
	C146	C	0.620670	0.886802	0.323204
	C147	C	0.381472	0.116104	0.323439
	C148	C	0.678458	0.381892	0.885464
	C149	C	0.677675	0.620811	0.113955
	C150	C	0.324649	0.620250	0.884975
	C151	C	0.324080	0.383335	0.114304
	C152	C	0.885825	0.676997	0.382446
	C153	C	0.116060	0.677679	0.618137
	C154	C	0.885740	0.326179	0.618160
	C155	C	0.116285	0.326113	0.381071
	C156	C	0.885931	0.382659	0.676999
	C157	C	0.115954	0.620673	0.675977
	C158	C	0.886134	0.620398	0.323767
	C159	C	0.115853	0.382577	0.322627
	C160	C	0.382117	0.678135	0.885348
	C161	C	0.620475	0.679112	0.113618
	C162	C	0.620438	0.324075	0.885688
	C163	C	0.381555	0.324968	0.114453
	C164	C	0.677053	0.886036	0.382264
	C165	C	0.678049	0.116184	0.619478
	C166	C	0.324814	0.886658	0.618715
	C167	C	0.323994	0.116185	0.381738
	C168	C	0.881034	0.387056	0.176946
	C169	C	0.120330	0.616785	0.176484
	C170	C	0.120780	0.387719	0.821972
	C171	C	0.881586	0.616407	0.823128
	C172	C	0.177697	0.882495	0.386081
	C173	C	0.177252	0.120836	0.614678
	C174	C	0.824245	0.120315	0.385953
	C175	C	0.825454	0.882990	0.614955
	C176	C	0.385436	0.176769	0.882678
	C177	C	0.616347	0.178167	0.119385
	C178	C	0.386504	0.825011	0.118882
	C179	C	0.615729	0.825733	0.881159
	C180	C	0.386572	0.881995	0.176989
	C181	C	0.616315	0.121217	0.177601
	C182	C	0.385829	0.120476	0.824251
	C183	C	0.615379	0.882797	0.823375
	C184	C	0.881587	0.178598	0.385809
	C185	C	0.120405	0.179413	0.614126
	C186	C	0.119872	0.824866	0.385805
	C187	C	0.882930	0.824992	0.614721
	C188	C	0.176612	0.386853	0.881523
	C189	C	0.177335	0.617248	0.117945
	C190	C	0.824239	0.386663	0.118206
	C191	C	0.824823	0.616477	0.881270
	C192	C	0.401531	0.095817	0.600067
	C193	C	0.600669	0.907289	0.601090
	C194	C	0.600362	0.095254	0.400898
	C195	C	0.402104	0.907722	0.400807
	C196	C	0.600333	0.402517	0.092625
	C197	C	0.600574	0.601521	0.906140
	C198	C	0.401313	0.601073	0.093150
	C199	C	0.400359	0.400330	0.906024
	C200	C	0.095523	0.600404	0.400133
	C201	C	0.906669	0.600661	0.599760
	C202	C	0.094925	0.403612	0.599259
	C203	C	0.907001	0.402794	0.400570
	C204	C	0.901193	0.595869	0.100166
	C205	C	0.099993	0.408292	0.099479
	C206	C	0.100456	0.596123	0.899625
	C207	C	0.902719	0.407842	0.900599
	C208	C	0.100304	0.901216	0.594130
	C209	C	0.100192	0.100796	0.407058
	C210	C	0.901470	0.102393	0.593786
	C211	C	0.901239	0.900955	0.406408
	C212	C	0.594848	0.100164	0.901165
	C213	C	0.407156	0.100971	0.100900
	C214	C	0.595490	0.903103	0.099306
	C215	C	0.406092	0.901827	0.900706
	Zn216	Zn	0.500802	0.001969	0.750784
	Zn217	Zn	0.501340	0.001068	0.250263
	Zn218	Zn	0.751656	0.502104	-0.000955
	Zn219	Zn	0.250647	0.502174	-0.000622
	Zn220	Zn	0.001272	0.750254	0.500018
	Zn221	Zn	0.001491	0.252583	0.499529
	Zn222	Zn	0.000596	0.502114	0.749864
	Zn223	Zn	0.000869	0.501843	0.250248
	Zn224	Zn	0.500969	0.752154	-0.000350
	Zn225	Zn	0.500835	0.250921	0.000079
	Zn226	Zn	0.751173	0.001142	0.500664
	Zn227	Zn	0.250805	0.001207	0.500810
	N228	N	0.415299	0.964865	0.678912
	N229	N	0.587277	0.038676	0.679757
	N230	N	0.587476	0.964318	0.321203
	N231	N	0.415153	0.038910	0.321415
	N232	N	0.679830	0.416044	0.962218
	N233	N	0.679203	0.587107	0.036897
	N234	N	0.322938	0.586875	0.962106
	N235	N	0.321972	0.416077	0.037144
	N236	N	0.963430	0.678399	0.415743
	N237	N	0.038441	0.678939	0.585068
	N238	N	0.963279	0.325019	0.584341
	N239	N	0.038778	0.324615	0.414874
	N240	N	0.963653	0.416008	0.678959
	N241	N	0.038183	0.587226	0.678167
	N242	N	0.963928	0.587304	0.321351
	N243	N	0.037950	0.415429	0.320555
	N244	N	0.415479	0.680071	0.962631
	N245	N	0.586982	0.680846	0.036590
	N246	N	0.586218	0.322969	0.962545
	N247	N	0.414852	0.322491	0.037132
	N248	N	0.678410	0.963297	0.416235
	N249	N	0.679552	0.038753	0.585925
	N250	N	0.323440	0.963918	0.585155
	N251	N	0.322912	0.038821	0.415566
	N252	N	0.914333	0.464658	0.179360
	N253	N	0.086887	0.539257	0.178588
	N254	N	0.088058	0.465520	0.819328
	N255	N	0.915436	0.539004	0.821436
	N256	N	0.179398	0.915516	0.463352
	N257	N	0.178461	0.086316	0.538077
	N258	N	0.822482	0.087249	0.463025
	N259	N	0.823442	0.916341	0.537801
	N260	N	0.462989	0.178032	0.916374
	N261	N	0.538779	0.179761	0.085875
	N262	N	0.463977	0.823817	0.085015
	N263	N	0.538141	0.824019	0.914834
	N264	N	0.464117	0.915666	0.178764
	N265	N	0.538640	0.087711	0.179632
	N266	N	0.463487	0.087265	0.822182
	N267	N	0.537623	0.915838	0.821712
	N268	N	0.914887	0.181286	0.463104
	N269	N	0.087110	0.181088	0.536854
	N270	N	0.086257	0.822842	0.462989
	N271	N	0.915794	0.822573	0.537423
	N272	N	0.177942	0.464033	0.915451
	N273	N	0.178549	0.539883	0.084244
	N274	N	0.822929	0.464045	0.084668
	N275	N	0.823926	0.539203	0.914973
	O276	O	0.531304	0.479684	0.487786
	H277	H	0.516382	0.488393	0.491462
	H278	H	0.525292	0.478265	0.492953
	O279	O	0.050103	0.072893	0.059908
	H280	H	0.044934	0.070844	0.056168
	H281	H	0.049577	0.078838	0.066551
	O282	O	0.561486	0.497427	0.432912
	H283	H	0.560684	0.503463	0.430326
	H284	H	0.559172	0.500437	0.431196
	O285	O	0.564626	0.437527	0.451947
	H286	H	0.567613	0.435222	0.447208
	H287	H	0.572600	0.430482	0.452976
	O288	O	1.038714	0.085608	0.059608
	H289	H	1.053511	0.087396	0.062169
	H290	H	1.032380	0.084318	0.047603
	O291	O	-0.589482	0.506459	-0.510492
	H292	H	-0.594866	0.509819	-0.518817
	H293	H	-0.584566	0.516903	-0.511650
	O294	O	0.469127	0.469125	0.516565
	H295	H	0.476774	0.471018	0.515366
	H296	H	0.469436	0.471056	0.511653
	O297	O	0.041366	1.128590	0.069221
	H298	H	0.045196	1.126025	0.070281
	H299	H	0.047464	1.135447	0.083707
	O300	O	1.031124	0.102897	1.072975
	H301	H	1.025027	0.110116	1.076342
	H302	H	1.030710	0.106807	1.070932
	O303	O	0.513154	0.449187	0.419950
	H304	H	0.512999	0.449479	0.421862
	H305	H	0.517308	0.447917	0.414886
	O306	O	0.529352	1.457145	1.433409
	H307	H	0.531123	1.446637	1.425355
	H308	H	0.537102	1.455221	1.431392
	O309	O	0.466372	0.437884	0.448767
	H310	H	0.461678	0.426323	0.445255
	H311	H	0.467063	0.436819	0.460268
