data_Molecule from HDF5

_cell_length_a		16.317051
_cell_length_b		16.314926
_cell_length_c		16.248625
_cell_angle_alpha	90.122659
_cell_angle_beta	89.706524
_cell_angle_gamma	89.721776
_symmetry_space_group_name_H-M	'P 1'
_symmetry_Int_Tables_number		1

loop_
	_symmetry_equiv_pos_as_xyz
	x,y,z

loop_
	_atom_site_label
	_atom_site_type_symbol
	_atom_site_fract_x
	_atom_site_fract_y
	_atom_site_fract_z
	H0	H	0.398699	0.842098	0.706132
	H1	H	0.597826	0.166385	0.703665
	H2	H	0.601892	0.840460	0.270840
	H3	H	0.400409	0.165660	0.274088
	H4	H	0.718576	0.400864	0.824339
	H5	H	0.716939	0.603808	0.150038
	H6	H	0.284998	0.603519	0.824113
	H7	H	0.283599	0.402899	0.149257
	H8	H	0.838289	0.722253	0.387202
	H9	H	0.162411	0.717641	0.588024
	H10	H	0.836197	0.290122	0.589041
	H11	H	0.160495	0.283268	0.384757
	H12	H	0.837665	0.405108	0.704804
	H13	H	0.163399	0.601151	0.701460
	H14	H	0.837421	0.603925	0.272101
	H15	H	0.162344	0.401988	0.271374
	H16	H	0.398331	0.720713	0.825024
	H17	H	0.601618	0.720685	0.149796
	H18	H	0.603145	0.285363	0.824675
	H19	H	0.402134	0.289870	0.151437
	H20	H	0.718413	0.841156	0.386306
	H21	H	0.713633	0.165503	0.589769
	H22	H	0.283383	0.840812	0.589201
	H23	H	0.281891	0.164394	0.387705
	H24	H	0.900324	0.340369	0.204196
	H25	H	0.101771	0.664524	0.205466
	H26	H	0.104028	0.340474	0.769940
	H27	H	0.902344	0.665661	0.773866
	H28	H	0.218214	0.899648	0.326453
	H29	H	0.213538	0.103942	0.651040
	H30	H	0.781845	0.104868	0.325545
	H31	H	0.781419	0.902621	0.652103
	H32	H	0.339567	0.222186	0.888500
	H33	H	0.663722	0.219113	0.088598
	H34	H	0.339351	0.785673	0.091806
	H35	H	0.660614	0.782450	0.882039
	H36	H	0.337906	0.902784	0.205350
	H37	H	0.663369	0.103330	0.203284
	H38	H	0.337020	0.106325	0.774428
	H39	H	0.661176	0.900885	0.768918
	H40	H	0.896924	0.221294	0.325888
	H41	H	0.097455	0.219079	0.651007
	H42	H	0.102855	0.784508	0.326890
	H43	H	0.898119	0.787190	0.652260
	H44	H	0.220853	0.341930	0.883228
	H45	H	0.217134	0.664921	0.088007
	H46	H	0.785579	0.340172	0.088357
	H47	H	0.781910	0.663614	0.883709
	H48	H	0.410351	0.119114	0.585584
	H49	H	0.584429	0.893536	0.566555
	H50	H	0.577786	0.114694	0.394745
	H51	H	0.409550	0.889860	0.405226
	H52	H	0.594087	0.402260	0.107209
	H53	H	0.586719	0.599423	0.871310
	H54	H	0.408362	0.595129	0.103527
	H55	H	0.412971	0.419953	0.875038
	H56	H	0.118916	0.598544	0.389101
	H57	H	0.882436	0.594451	0.586258
	H58	H	0.114875	0.406868	0.572435
	H59	H	0.880770	0.404248	0.393968
	H60	H	0.113156	0.416607	0.578185
	H61	H	0.884008	0.600811	0.577918
	H62	H	0.113931	0.597181	0.403632
	H63	H	0.886929	0.414076	0.403947
	H64	H	0.408559	0.591746	0.102180
	H65	H	0.599358	0.592682	0.869335
	H66	H	0.600493	0.416375	0.104598
	H67	H	0.417279	0.403718	0.871098
	H68	H	0.597125	0.116402	0.408345
	H69	H	0.604413	0.883389	0.578197
	H70	H	0.405887	0.116961	0.574430
	H71	H	0.401751	0.883995	0.394079
	H72	H	0.908194	0.615610	0.066400
	H73	H	0.090585	0.389441	0.075341
	H74	H	0.096660	0.620553	0.891457
	H75	H	0.916301	0.391375	0.904968
	H76	H	0.103571	0.911112	0.609257
	H77	H	0.087918	0.085467	0.376055
	H78	H	0.913950	0.092151	0.600214
	H79	H	0.913735	0.915964	0.376406
	H80	H	0.621390	0.101262	0.886336
	H81	H	0.384788	0.096392	0.082477
	H82	H	0.613229	0.911214	0.071895
	H83	H	0.387734	0.915665	0.903181
	H84	H	0.614230	0.917416	0.079830
	H85	H	0.385133	0.098365	0.081923
	H86	H	0.614555	0.098418	0.906462
	H87	H	0.383814	0.916861	0.892293
	H88	H	0.905599	0.105556	0.607869
	H89	H	0.084789	0.099468	0.371239
	H90	H	0.086512	0.922125	0.599437
	H91	H	0.910392	0.907225	0.373551
	H92	H	0.087235	0.617173	0.894044
	H93	H	0.098341	0.385500	0.076894
	H94	H	0.899450	0.622604	0.084705
	H95	H	0.899055	0.383838	0.897418
	H96	H	0.399027	0.121897	0.583199
	H97	H	0.582659	0.886634	0.590852
	H98	H	0.597301	0.124213	0.386268
	H99	H	0.415751	0.887750	0.391717
	H100	H	0.585834	0.413888	0.099971
	H101	H	0.588194	0.585350	0.875603
	H102	H	0.411996	0.594346	0.102338
	H103	H	0.402025	0.409292	0.867001
	H104	H	0.112887	0.585044	0.394938
	H105	H	0.886851	0.590866	0.577541
	H106	H	0.118034	0.407427	0.583841
	H107	H	0.883632	0.418575	0.389879
	H108	H	0.919688	0.615567	0.084920
	H109	H	0.092124	0.386606	0.083245
	H110	H	0.095735	0.618001	0.900889
	H111	H	0.915859	0.385098	0.885367
	H112	H	0.083830	0.900402	0.606336
	H113	H	0.098699	0.093912	0.369725
	H114	H	0.897677	0.090787	0.604483
	H115	H	0.904221	0.914513	0.373085
	H116	H	0.613225	0.082453	0.892107
	H117	H	0.384302	0.097931	0.080240
	H118	H	0.617964	0.907530	0.080151
	H119	H	0.382456	0.906058	0.897984
	C120	C	0.376408	0.012095	0.610396
	C121	C	0.619596	0.995015	0.609173
	C122	C	0.622320	0.012066	0.365603
	C123	C	0.378979	0.994319	0.367180
	C124	C	0.623569	0.380857	-0.004041
	C125	C	0.621796	0.623741	0.979039
	C126	C	0.379336	0.624265	-0.004371
	C127	C	0.380650	0.382024	0.978599
	C128	C	0.008484	0.624950	0.366292
	C129	C	0.991992	0.624100	0.609687
	C130	C	0.007983	0.381690	0.609143
	C131	C	0.991047	0.381270	0.365842
	C132	C	0.879304	0.510784	0.108928
	C133	C	0.122864	0.494450	0.108607
	C134	C	0.123754	0.511391	0.864777
	C135	C	0.879729	0.494039	0.865976
	C136	C	0.121903	0.880804	0.497457
	C137	C	0.119343	0.123621	0.479868
	C138	C	0.876231	0.125852	0.496912
	C139	C	0.878498	0.882279	0.481281
	C140	C	0.509032	0.124809	0.866756
	C141	C	0.492424	0.125827	0.110442
	C142	C	0.508310	0.881599	0.109043
	C143	C	0.491415	0.881646	0.866188
	C144	C	0.378640	0.890094	0.667006
	C145	C	0.617840	0.117472	0.665867
	C146	C	0.621971	0.889320	0.309044
	C147	C	0.379948	0.116762	0.311430
	C148	C	0.679877	0.381613	0.873074
	C149	C	0.678247	0.623385	0.101405
	C150	C	0.323007	0.623397	0.872842
	C151	C	0.322930	0.383343	0.101099
	C152	C	0.886618	0.683184	0.367362
	C153	C	0.114000	0.679726	0.608214
	C154	C	0.885314	0.327205	0.608492
	C155	C	0.112437	0.322895	0.365668
	C156	C	0.886018	0.384228	0.666507
	C157	C	0.114427	0.621757	0.664633
	C158	C	0.886298	0.624599	0.310003
	C159	C	0.113553	0.381934	0.309564
	C160	C	0.379513	0.681651	0.873372
	C161	C	0.621008	0.681626	0.101319
	C162	C	0.622621	0.323962	0.873424
	C163	C	0.381746	0.327196	0.102158
	C164	C	0.679680	0.889748	0.366399
	C165	C	0.675635	0.117070	0.609049
	C166	C	0.320843	0.889733	0.609433
	C167	C	0.321088	0.116126	0.367981
	C168	C	0.880153	0.389122	0.166040
	C169	C	0.121214	0.616309	0.166073
	C170	C	0.123197	0.389534	0.808041
	C171	C	0.881240	0.616678	0.810732
	C172	C	0.179481	0.880537	0.375233
	C173	C	0.175417	0.123474	0.602252
	C174	C	0.820077	0.124617	0.374172
	C175	C	0.820349	0.882992	0.603375
	C176	C	0.387204	0.182749	0.868966
	C177	C	0.614890	0.181130	0.108319
	C178	C	0.387264	0.824388	0.110266
	C179	C	0.612451	0.822375	0.864045
	C180	C	0.386894	0.882593	0.167309
	C181	C	0.614581	0.123539	0.165805
	C182	C	0.386182	0.125171	0.812097
	C183	C	0.612733	0.881419	0.807501
	C184	C	0.877230	0.182531	0.374403
	C185	C	0.117515	0.180730	0.602174
	C186	C	0.122110	0.823209	0.375390
	C187	C	0.878679	0.825623	0.603545
	C188	C	0.181547	0.390052	0.864488
	C189	C	0.178832	0.616326	0.107885
	C190	C	0.823098	0.389055	0.108146
	C191	C	0.821382	0.615459	0.865393
	C192	C	0.398509	0.097432	0.587555
	C193	C	0.597160	0.910065	0.585453
	C194	C	0.597995	0.096486	0.389407
	C195	C	0.402343	0.909161	0.390205
	C196	C	0.600327	0.404145	0.081623
	C197	C	0.598162	0.599603	0.894260
	C198	C	0.402847	0.600706	0.080431
	C199	C	0.404099	0.404325	0.893141
	C200	C	0.093169	0.600970	0.389277
	C201	C	0.906553	0.601955	0.587071
	C202	C	0.093293	0.403767	0.585316
	C203	C	0.905890	0.405414	0.389129
	C204	C	0.902514	0.595911	0.085670
	C205	C	0.100305	0.409175	0.085360
	C206	C	0.100061	0.596533	0.888497
	C207	C	0.903361	0.409008	0.889254
	C208	C	0.098093	0.904440	0.582896
	C209	C	0.097009	0.099830	0.394448
	C210	C	0.899060	0.102827	0.582049
	C211	C	0.902602	0.905696	0.396198
	C212	C	0.594097	0.101109	0.888654
	C213	C	0.407001	0.103822	0.088108
	C214	C	0.593089	0.905088	0.084374
	C215	C	0.406458	0.905769	0.890854
	Zn216	Zn	0.499123	0.004498	0.738166
	Zn217	Zn	0.500586	0.003212	0.238127
	Zn218	Zn	0.751134	0.502650	-0.012988
	Zn219	Zn	0.251612	0.502991	-0.013391
	Zn220	Zn	0.000336	0.753146	0.489469
	Zn221	Zn	-0.001259	0.253294	0.487956
	Zn222	Zn	0.001028	0.503044	0.737793
	Zn223	Zn	0.000312	0.502797	0.237230
	Zn224	Zn	0.499907	0.752640	-0.012447
	Zn225	Zn	0.501528	0.253136	-0.011886
	Zn226	Zn	0.749244	0.003699	0.488996
	Zn227	Zn	0.248764	0.002596	0.487993
	N228	N	0.412174	0.967267	0.668080
	N229	N	0.583748	0.040626	0.666035
	N230	N	0.587093	0.966172	0.308288
	N231	N	0.415203	0.040039	0.310833
	N232	N	0.680624	0.416225	0.950356
	N233	N	0.679066	0.588263	0.024373
	N234	N	0.322778	0.588422	0.949742
	N235	N	0.321736	0.416308	0.023271
	N236	N	0.963606	0.683497	0.401599
	N237	N	0.036824	0.681266	0.574741
	N238	N	0.962343	0.325416	0.573622
	N239	N	0.035159	0.322415	0.399912
	N240	N	0.963236	0.417515	0.666777
	N241	N	0.037372	0.587962	0.665570
	N242	N	0.962954	0.589144	0.309059
	N243	N	0.036951	0.417405	0.309569
	N244	N	0.413561	0.682515	0.950622
	N245	N	0.586493	0.681746	0.024288
	N246	N	0.588336	0.323294	0.950877
	N247	N	0.416961	0.326202	0.025133
	N248	N	0.680215	0.966912	0.400848
	N249	N	0.677083	0.040080	0.574491
	N250	N	0.319511	0.966624	0.575027
	N251	N	0.320278	0.038894	0.401765
	N252	N	0.914419	0.466008	0.166493
	N253	N	0.087113	0.539448	0.166503
	N254	N	0.088058	0.466280	0.807995
	N255	N	0.916842	0.540251	0.810939
	N256	N	0.179501	0.915679	0.452254
	N257	N	0.176496	0.088422	0.525098
	N258	N	0.819359	0.090114	0.451394
	N259	N	0.820169	0.917572	0.526233
	N260	N	0.464525	0.182870	0.902233
	N261	N	0.537792	0.182532	0.074578
	N262	N	0.463751	0.823916	0.074645
	N263	N	0.536144	0.822830	0.900098
	N264	N	0.463439	0.917801	0.166324
	N265	N	0.537542	0.089604	0.167079
	N266	N	0.462873	0.089848	0.810650
	N267	N	0.536257	0.917443	0.808603
	N268	N	0.911292	0.183571	0.451608
	N269	N	0.083339	0.180874	0.524991
	N270	N	0.086818	0.823548	0.452273
	N271	N	0.914136	0.825033	0.526523
	N272	N	0.181944	0.466916	0.899244
	N273	N	0.179957	0.539426	0.072977
	N274	N	0.822318	0.465952	0.073479
	N275	N	0.820491	0.538080	0.899095
	O276	O	0.851377	-0.023150	0.900743
	H277	H	0.856915	-0.023910	0.900433
	H278	H	0.847629	-0.029599	0.888185
	O279	O	0.558338	0.564918	0.559879
	H280	H	0.556773	0.551655	0.567553
	H281	H	0.568625	0.564185	0.561982
	O282	O	0.061715	-0.052733	-0.043232
	H283	H	0.052329	-0.065472	-0.037335
	H284	H	0.051646	-0.055118	-0.042486
	O285	O	0.598760	0.430419	0.414453
	H286	H	0.593095	0.429913	0.415392
	H287	H	0.598582	0.431148	0.429464
	O288	O	0.458988	0.373534	0.479605
	H289	H	0.454877	0.357666	0.476140
	H290	H	0.451575	0.378372	0.477001
	O291	O	-0.143048	-0.014724	1.100571
	H292	H	-0.141133	-0.006689	1.110879
	H293	H	-0.133751	-0.002441	1.105340
	O294	O	1.009122	0.986277	0.121559
	H295	H	1.007041	0.984380	0.129429
	H296	H	1.024865	0.986246	0.130489
	O297	O	1.051460	1.044520	-0.035492
	H298	H	1.055252	1.041163	-0.042118
	H299	H	1.066628	1.050599	-0.035830
	O300	O	0.565614	0.575738	0.383006
	H301	H	0.562032	0.557097	0.373766
	H302	H	0.565069	0.588668	0.380252
	O303	O	0.518685	0.507202	0.499579
	H304	H	0.515918	0.514323	0.503100
	H305	H	0.523163	0.507255	0.506076
	O306	O	-0.083356	0.973100	0.876122
	H307	H	-0.089473	0.969675	0.886847
	H308	H	-0.087239	0.980196	0.876915
	O309	O	0.430168	0.524870	0.590648
	H310	H	0.428824	0.526211	0.594721
	H311	H	0.436191	0.512183	0.603110
	O312	O	0.984782	0.965297	1.172246
	H313	H	0.985983	0.975430	1.167518
	H314	H	0.979985	0.949143	1.176546
	O315	O	0.993024	1.063258	-0.090592
	H316	H	0.991156	1.071633	-0.082509
	H317	H	0.987362	1.049515	-0.086828
	O318	O	1.136490	-0.050466	0.949746
	H319	H	1.140250	-0.050919	0.945312
	H320	H	1.151164	-0.058030	0.951032
	O321	O	0.582565	0.392062	0.447587
	H322	H	0.586928	0.380885	0.440944
	H323	H	0.567518	0.388708	0.452618
	O324	O	0.099914	1.040686	1.017178
	H325	H	0.097251	1.043191	0.996731
	H326	H	0.101719	1.038046	1.025860
	O327	O	0.112643	0.988182	1.039753
	H328	H	0.101661	0.985734	1.042872
	H329	H	0.107351	0.983576	1.040141
	O330	O	-0.549868	-0.466310	-0.498904
	H331	H	-0.549021	-0.452478	-0.508699
	H332	H	-0.547073	-0.467915	-0.497495
	O333	O	0.448953	0.573118	0.444342
	H334	H	0.442325	0.581012	0.439748
	H335	H	0.448525	0.559365	0.453591
	O336	O	0.075272	-0.039169	-0.046939
	H337	H	0.074460	-0.047847	-0.035518
	H338	H	0.070573	-0.048225	-0.048366
	O339	O	0.141917	-0.120698	-0.079038
	H340	H	0.139786	-0.115014	-0.063605
	H341	H	0.126901	-0.129454	-0.076063
	O342	O	0.885076	0.043395	0.970682
	H343	H	0.887971	0.040488	0.975278
	H344	H	0.870097	0.042527	0.953967
	O345	O	0.237000	0.748771	1.220032
	H346	H	0.234759	0.747025	1.216613
	H347	H	0.256618	0.751773	1.222771
	O348	O	0.448932	0.472745	0.433523
	H349	H	0.450841	0.473618	0.431457
	H350	H	0.448974	0.472325	0.432259
	O351	O	0.379628	0.533226	0.407733
	H352	H	0.384404	0.546437	0.424831
	H353	H	0.381797	0.527762	0.404623
	O354	O	-0.477667	1.428840	0.563249
	H355	H	-0.480509	1.447769	0.564889
	H356	H	-0.493800	1.422710	0.574276
	O357	O	0.563688	0.628756	0.499014
	H358	H	0.562832	0.632414	0.494750
	H359	H	0.567089	0.624067	0.487647
	O360	O	0.894871	-0.024981	1.107843
	H361	H	0.894693	-0.015639	1.108312
	H362	H	0.879364	-0.019477	1.113688
	O363	O	0.579023	0.389022	0.492013
	H364	H	0.571311	0.379879	0.481450
	H365	H	0.583902	0.393012	0.494044
	O366	O	0.860660	0.951622	-0.044777
	H367	H	0.857970	0.930491	-0.044013
	H368	H	0.860742	0.966989	-0.021960
	O369	O	0.907227	0.026061	-0.034459
	H370	H	0.897244	0.022265	-0.056148
	H371	H	0.913428	0.032341	-0.035402
	O372	O	0.496250	0.623817	0.504222
	H373	H	0.501445	0.621938	0.502467
	H374	H	0.508425	0.628171	0.496223
	O375	O	0.976523	0.056258	0.993677
	H376	H	0.968270	0.048013	0.974265
	H377	H	0.995220	0.048824	0.996273
	O378	O	0.053760	0.998193	0.048854
	H379	H	0.044418	0.992807	0.041259
	H380	H	0.071185	0.995947	0.055314
	O381	O	-0.587921	1.564148	1.515228
	H382	H	-0.581878	1.574089	1.515194
	H383	H	-0.584199	1.562763	1.523255
	O384	O	1.028068	1.055623	0.018266
	H385	H	1.040867	1.074833	0.011394
	H386	H	1.006512	1.066868	0.022079
	O387	O	1.042002	0.076898	0.924627
	H388	H	1.041543	0.066022	0.932337
	H389	H	1.056429	0.068412	0.924245
	O390	O	1.516907	0.564344	0.576576
	H391	H	1.518213	0.554368	0.581558
	H392	H	1.522469	0.565866	0.577559
	O393	O	0.428971	0.556278	0.481001
	H394	H	0.418012	0.550468	0.489466
	H395	H	0.431113	0.565199	0.457280
