data_Molecule from HDF5

_cell_length_a		16.248846
_cell_length_b		16.273677
_cell_length_c		16.366381
_cell_angle_alpha	89.982915
_cell_angle_beta	89.956919
_cell_angle_gamma	90.105873
_symmetry_space_group_name_H-M	'P 1'
_symmetry_Int_Tables_number		1

loop_
	_symmetry_equiv_pos_as_xyz
	x,y,z

loop_
	_atom_site_label
	_atom_site_type_symbol
	_atom_site_fract_x
	_atom_site_fract_y
	_atom_site_fract_z
	H0	H	0.399451	0.836403	0.716230
	H1	H	0.602171	0.162182	0.717451
	H2	H	0.599850	0.836185	0.285549
	H3	H	0.400732	0.162650	0.284452
	H4	H	0.715837	0.400460	0.839890
	H5	H	0.714043	0.599117	0.165345
	H6	H	0.284847	0.597743	0.838445
	H7	H	0.285756	0.401492	0.164762
	H8	H	0.836316	0.713115	0.405083
	H9	H	0.164037	0.714542	0.600802
	H10	H	0.836610	0.284786	0.602397
	H11	H	0.164537	0.286653	0.404345
	H12	H	0.836787	0.400184	0.718641
	H13	H	0.163310	0.600428	0.718676
	H14	H	0.836826	0.599335	0.287072
	H15	H	0.163097	0.399668	0.285931
	H16	H	0.401434	0.714867	0.838743
	H17	H	0.597944	0.714832	0.164901
	H18	H	0.597970	0.286077	0.838399
	H19	H	0.400763	0.284121	0.164099
	H20	H	0.715070	0.836389	0.401883
	H21	H	0.714331	0.163710	0.598738
	H22	H	0.285400	0.836143	0.599080
	H23	H	0.286189	0.164230	0.402365
	H24	H	0.899895	0.337015	0.218103
	H25	H	0.099474	0.663307	0.217288
	H26	H	0.099509	0.336585	0.786127
	H27	H	0.900744	0.663390	0.787102
	H28	H	0.214385	0.901953	0.338141
	H29	H	0.216274	0.100281	0.664019
	H30	H	0.786154	0.098371	0.338292
	H31	H	0.784216	0.901447	0.663699
	H32	H	0.336749	0.214042	0.902034
	H33	H	0.664224	0.214043	0.098639
	H34	H	0.335931	0.785444	0.098652
	H35	H	0.664604	0.784720	0.903268
	H36	H	0.336724	0.898709	0.217004
	H37	H	0.663753	0.099203	0.215673
	H38	H	0.336586	0.098691	0.785831
	H39	H	0.664026	0.899206	0.784654
	H40	H	0.900387	0.216956	0.339692
	H41	H	0.100664	0.216154	0.664225
	H42	H	0.097388	0.786198	0.339141
	H43	H	0.900791	0.786000	0.664751
	H44	H	0.214536	0.336289	0.902875
	H45	H	0.213711	0.663299	0.099789
	H46	H	0.786373	0.335572	0.099690
	H47	H	0.783916	0.663001	0.903164
	H48	H	0.411463	0.117420	0.600536
	H49	H	0.585957	0.886791	0.589817
	H50	H	0.595264	0.117090	0.406145
	H51	H	0.403779	0.882577	0.406857
	H52	H	0.603127	0.416678	0.117194
	H53	H	0.585577	0.583078	0.892115
	H54	H	0.413872	0.600041	0.116951
	H55	H	0.399952	0.400021	0.882054
	H56	H	0.116382	0.587145	0.403661
	H57	H	0.886894	0.583733	0.593322
	H58	H	0.118328	0.406974	0.598847
	H59	H	0.886892	0.417274	0.410129
	H60	H	0.115371	0.406490	0.591075
	H61	H	0.880798	0.593931	0.604643
	H62	H	0.119539	0.599842	0.406058
	H63	H	0.880660	0.404675	0.402745
	H64	H	0.397975	0.597028	0.120813
	H65	H	0.587287	0.602571	0.885016
	H66	H	0.578181	0.410197	0.112685
	H67	H	0.403688	0.415967	0.887945
	H68	H	0.589865	0.115389	0.405732
	H69	H	0.597954	0.883363	0.589544
	H70	H	0.411957	0.113443	0.589155
	H71	H	0.409883	0.883352	0.405771
	H72	H	0.909328	0.616537	0.100206
	H73	H	0.095171	0.381729	0.096698
	H74	H	0.090335	0.617654	0.899945
	H75	H	0.907126	0.382763	0.906389
	H76	H	0.091505	0.902636	0.618110
	H77	H	0.095332	0.091432	0.385695
	H78	H	0.909645	0.088997	0.615366
	H79	H	0.910779	0.907849	0.387026
	H80	H	0.615131	0.089970	0.913426
	H81	H	0.382330	0.101459	0.088061
	H82	H	0.614926	0.914935	0.096957
	H83	H	0.387044	0.911529	0.910402
	H84	H	0.619279	0.902106	0.097059
	H85	H	0.387320	0.081806	0.088466
	H86	H	0.616500	0.088154	0.902923
	H87	H	0.382677	0.908133	0.902733
	H88	H	0.909625	0.096728	0.618002
	H89	H	0.089921	0.091170	0.388096
	H90	H	0.098382	0.908849	0.618726
	H91	H	0.907202	0.902580	0.385041
	H92	H	0.084478	0.612456	0.915215
	H93	H	0.089555	0.383917	0.098384
	H94	H	0.909287	0.614921	0.091493
	H95	H	0.910609	0.385392	0.911020
	H96	H	0.401633	0.118292	0.592895
	H97	H	0.590866	0.881635	0.599804
	H98	H	0.592673	0.115014	0.410360
	H99	H	0.407528	0.885172	0.410832
	H100	H	0.594759	0.393232	0.122585
	H101	H	0.603340	0.589590	0.883970
	H102	H	0.406978	0.584122	0.114975
	H103	H	0.416037	0.403233	0.887596
	H104	H	0.115209	0.592349	0.416120
	H105	H	0.883538	0.599186	0.588960
	H106	H	0.114151	0.413285	0.595358
	H107	H	0.884682	0.403748	0.417449
	H108	H	0.902124	0.618196	0.095719
	H109	H	0.091267	0.384008	0.092273
	H110	H	0.101086	0.617842	0.913717
	H111	H	0.904354	0.384139	0.911765
	H112	H	0.090248	0.911669	0.615170
	H113	H	0.092546	0.096218	0.386375
	H114	H	0.903326	0.092198	0.617888
	H115	H	0.904318	0.908506	0.385351
	H116	H	0.618832	0.097983	0.907496
	H117	H	0.381082	0.091069	0.104686
	H118	H	0.614494	0.907453	0.086535
	H119	H	0.383601	0.902584	0.910436
	C120	C	0.378899	0.007997	0.622619
	C121	C	0.621489	0.991668	0.622165
	C122	C	0.621791	0.007934	0.378576
	C123	C	0.378653	0.991770	0.379285
	C124	C	0.621179	0.377868	0.010333
	C125	C	0.621391	0.621024	0.994285
	C126	C	0.377694	0.621979	0.009795
	C127	C	0.378183	0.377966	0.993405
	C128	C	0.008760	0.621452	0.380759
	C129	C	0.991879	0.621663	0.624522
	C130	C	0.008190	0.379103	0.624272
	C131	C	0.991884	0.379294	0.381284
	C132	C	0.878170	0.508360	0.124364
	C133	C	0.120911	0.491476	0.124016
	C134	C	0.120838	0.508015	0.880720
	C135	C	0.878500	0.491813	0.881188
	C136	C	0.121829	0.879056	0.509751
	C137	C	0.121931	0.122126	0.493841
	C138	C	0.878854	0.121671	0.509637
	C139	C	0.877997	0.877776	0.493076
	C140	C	0.508756	0.121003	0.879007
	C141	C	0.491907	0.120865	0.122123
	C142	C	0.508172	0.878700	0.122067
	C143	C	0.492509	0.877998	0.879199
	C144	C	0.379989	0.885179	0.678087
	C145	C	0.620929	0.113915	0.678616
	C146	C	0.620174	0.885130	0.323180
	C147	C	0.380215	0.114267	0.322900
	C148	C	0.677414	0.380238	0.888100
	C149	C	0.676346	0.619413	0.116591
	C150	C	0.322847	0.618622	0.887216
	C151	C	0.323103	0.380576	0.115934
	C152	C	0.885432	0.675962	0.384157
	C153	C	0.114903	0.677133	0.621962
	C154	C	0.885432	0.322908	0.622397
	C155	C	0.115551	0.324228	0.383612
	C156	C	0.885324	0.380354	0.680201
	C157	C	0.114794	0.620018	0.680080
	C158	C	0.885749	0.619582	0.325386
	C159	C	0.114826	0.380296	0.324796
	C160	C	0.380575	0.676909	0.887182
	C161	C	0.618682	0.677131	0.116208
	C162	C	0.619190	0.323362	0.887311
	C163	C	0.380571	0.322439	0.115666
	C164	C	0.677278	0.885056	0.381187
	C165	C	0.677220	0.114565	0.619891
	C166	C	0.323202	0.885185	0.619826
	C167	C	0.324118	0.115313	0.382158
	C168	C	0.879897	0.385603	0.179692
	C169	C	0.119397	0.614421	0.179168
	C170	C	0.119363	0.385217	0.824724
	C171	C	0.880019	0.614593	0.825031
	C172	C	0.176555	0.881749	0.387008
	C173	C	0.178228	0.120588	0.615568
	C174	C	0.823913	0.118990	0.387002
	C175	C	0.822340	0.880699	0.615332
	C176	C	0.385621	0.176263	0.881771
	C177	C	0.615272	0.176409	0.119487
	C178	C	0.384822	0.822990	0.119681
	C179	C	0.615650	0.822259	0.881898
	C180	C	0.385301	0.879324	0.178284
	C181	C	0.614828	0.119523	0.177818
	C182	C	0.385642	0.118872	0.823847
	C183	C	0.615477	0.879343	0.823263
	C184	C	0.881001	0.177684	0.387630
	C185	C	0.120485	0.178117	0.615694
	C186	C	0.118942	0.823741	0.387503
	C187	C	0.880246	0.823437	0.615847
	C188	C	0.176403	0.385047	0.882732
	C189	C	0.176056	0.614443	0.120678
	C190	C	0.823400	0.385016	0.120944
	C191	C	0.822351	0.614506	0.882910
	C192	C	0.401755	0.094150	0.600674
	C193	C	0.598337	0.905913	0.599585
	C194	C	0.599304	0.093680	0.400981
	C195	C	0.400472	0.905955	0.401457
	C196	C	0.598651	0.399913	0.095530
	C197	C	0.598941	0.598311	0.908871
	C198	C	0.399650	0.600109	0.095466
	C199	C	0.399983	0.399986	0.907849
	C200	C	0.095000	0.599516	0.402420
	C201	C	0.905856	0.598940	0.602180
	C202	C	0.093796	0.402166	0.601550
	C203	C	0.906359	0.401989	0.403596
	C204	C	0.900374	0.594284	0.102347
	C205	C	0.098443	0.405411	0.102313
	C206	C	0.098612	0.593717	0.903153
	C207	C	0.900730	0.406268	0.903327
	C208	C	0.099945	0.901228	0.595110
	C209	C	0.099149	0.099469	0.408834
	C210	C	0.900976	0.099040	0.594954
	C211	C	0.900531	0.899815	0.407896
	C212	C	0.594565	0.098608	0.901256
	C213	C	0.405780	0.098164	0.100018
	C214	C	0.593963	0.901320	0.099874
	C215	C	0.406796	0.900748	0.901330
	Zn216	Zn	0.500517	-0.000595	0.750653
	Zn217	Zn	0.500107	-0.000741	0.250637
	Zn218	Zn	0.749525	0.499815	0.002682
	Zn219	Zn	0.248976	0.499502	0.001924
	Zn220	Zn	0.000214	0.749882	0.502397
	Zn221	Zn	0.000431	0.251006	0.502373
	Zn222	Zn	0.000192	0.500013	0.752612
	Zn223	Zn	-0.000006	0.499875	0.252505
	Zn224	Zn	0.500277	0.750255	0.001397
	Zn225	Zn	0.500009	0.248867	0.001156
	Zn226	Zn	0.749559	0.000066	0.501052
	Zn227	Zn	0.250653	0.000625	0.501229
	N228	N	0.413953	0.962738	0.679939
	N229	N	0.586973	0.036425	0.679990
	N230	N	0.586300	0.962528	0.321665
	N231	N	0.413374	0.036682	0.321028
	N232	N	0.678729	0.413516	0.965399
	N233	N	0.678036	0.585351	0.039744
	N234	N	0.320795	0.585501	0.964462
	N235	N	0.321492	0.414431	0.038951
	N236	N	0.962941	0.677122	0.418097
	N237	N	0.037438	0.678143	0.588089
	N238	N	0.962803	0.321957	0.588400
	N239	N	0.038214	0.323400	0.418005
	N240	N	0.962801	0.414287	0.681575
	N241	N	0.037076	0.586201	0.681778
	N242	N	0.963410	0.586308	0.323295
	N243	N	0.037086	0.413802	0.323025
	N244	N	0.414132	0.678870	0.964318
	N245	N	0.585196	0.678152	0.038971
	N246	N	0.584786	0.321845	0.964071
	N247	N	0.413780	0.320345	0.038382
	N248	N	0.678437	0.962490	0.415121
	N249	N	0.677540	0.037502	0.585370
	N250	N	0.322656	0.962586	0.585982
	N251	N	0.323059	0.038061	0.416450
	N252	N	0.913358	0.463166	0.181847
	N253	N	0.085631	0.536829	0.180937
	N254	N	0.085459	0.462558	0.823693
	N255	N	0.914083	0.537349	0.823735
	N256	N	0.178438	0.915428	0.464105
	N257	N	0.179185	0.086318	0.538830
	N258	N	0.822478	0.084940	0.463913
	N259	N	0.821034	0.914025	0.538192
	N260	N	0.463187	0.177608	0.915414
	N261	N	0.537962	0.177097	0.085376
	N262	N	0.461955	0.822720	0.085227
	N263	N	0.538210	0.821445	0.916016
	N264	N	0.462844	0.913397	0.179812
	N265	N	0.537049	0.085688	0.179592
	N266	N	0.463216	0.085153	0.822196
	N267	N	0.537922	0.912867	0.821352
	N268	N	0.914407	0.179598	0.464777
	N269	N	0.086145	0.179142	0.539060
	N270	N	0.085481	0.822240	0.464632
	N271	N	0.914280	0.821421	0.538839
	N272	N	0.177511	0.462321	0.916852
	N273	N	0.177015	0.537044	0.086937
	N274	N	0.822537	0.462335	0.086978
	N275	N	0.821505	0.537359	0.917233
	O276	O	0.528928	0.478483	-0.520900
	H277	H	0.520397	0.476330	-0.515997
	H278	H	0.531188	0.479706	-0.523126
	O279	O	0.016461	-0.009035	-0.030611
	H280	H	0.020777	-0.006264	-0.042028
	H281	H	0.021053	-0.016079	-0.025402
	O282	O	0.032273	-0.006302	1.000868
	H283	H	0.039243	-0.002140	0.991867
	H284	H	0.039361	-0.004558	0.998586
	O285	O	0.523421	0.532856	0.537155
	H286	H	0.521692	0.540321	0.540530
	H287	H	0.534074	0.532843	0.533887
	O288	O	0.560748	0.488180	0.529856
	H289	H	0.548352	0.487049	0.537047
	H290	H	0.560182	0.478137	0.523071
	O291	O	0.528037	0.503674	0.535171
	H292	H	0.543001	0.508416	0.538088
	H293	H	0.534810	0.514257	0.537977
	O294	O	-0.001676	-0.033972	-0.034368
	H295	H	0.004309	-0.036691	-0.035495
	H296	H	0.009896	-0.028460	-0.039571
	O297	O	0.575405	0.485133	0.512892
	H298	H	0.577355	0.476843	0.515045
	H299	H	0.568880	0.479854	0.518554
	O300	O	0.032493	1.033287	1.064254
	H301	H	0.030084	1.020082	1.059904
	H302	H	0.028443	1.029617	1.071608
	O303	O	0.506116	0.524404	0.552507
	H304	H	0.504783	0.535032	0.555491
	H305	H	0.507108	0.520853	0.562069
	O306	O	0.023067	0.021382	0.948350
	H307	H	0.020839	0.017208	0.953647
	H308	H	0.033991	0.012678	0.944171
	O309	O	1.084857	1.027786	1.008469
	H310	H	1.083715	1.030860	1.007944
	H311	H	1.079631	1.021460	1.015970
	O312	O	0.553291	0.557329	0.598891
	H313	H	0.546404	0.558858	0.590424
	H314	H	0.554911	0.561277	0.596811
	O315	O	0.564046	0.507622	0.471133
	H316	H	0.574226	0.504966	0.470366
	H317	H	0.560782	0.496096	0.465033
	O318	O	0.078536	1.029997	0.046947
	H319	H	0.072508	1.031199	0.058720
	H320	H	0.079487	1.043522	0.044234
	O321	O	1.048518	1.017182	-0.021946
	H322	H	1.042752	1.015325	-0.014483
	H323	H	1.050443	1.019096	-0.022772
