data_Molecule from HDF5

_cell_length_a		16.375965
_cell_length_b		16.341510
_cell_length_c		16.263199
_cell_angle_alpha	90.294514
_cell_angle_beta	90.186509
_cell_angle_gamma	89.936853
_symmetry_space_group_name_H-M	'P 1'
_symmetry_Int_Tables_number		1

loop_
	_symmetry_equiv_pos_as_xyz
	x,y,z

loop_
	_atom_site_label
	_atom_site_type_symbol
	_atom_site_fract_x
	_atom_site_fract_y
	_atom_site_fract_z
	H0	H	0.412968	0.832135	0.724359
	H1	H	0.614520	0.156079	0.728863
	H2	H	0.616558	0.834214	0.289661
	H3	H	0.411101	0.156277	0.292519
	H4	H	0.725654	0.388768	0.845622
	H5	H	0.728432	0.595838	0.167539
	H6	H	0.292513	0.593975	0.845049
	H7	H	0.291432	0.392600	0.170059
	H8	H	0.851655	0.714954	0.401192
	H9	H	0.172908	0.712713	0.608856
	H10	H	0.851289	0.275628	0.605521
	H11	H	0.173789	0.277902	0.402711
	H12	H	0.849243	0.392933	0.720829
	H13	H	0.171519	0.596192	0.725982
	H14	H	0.847903	0.593610	0.290967
	H15	H	0.172019	0.394697	0.287839
	H16	H	0.405596	0.711746	0.845994
	H17	H	0.612121	0.710442	0.169167
	H18	H	0.607683	0.275902	0.845671
	H19	H	0.406760	0.277933	0.170660
	H20	H	0.730661	0.834059	0.406482
	H21	H	0.731883	0.156043	0.613785
	H22	H	0.293119	0.834862	0.612112
	H23	H	0.294784	0.155327	0.405665
	H24	H	0.909324	0.332351	0.220900
	H25	H	0.107431	0.657366	0.221664
	H26	H	0.110629	0.332419	0.787617
	H27	H	0.909540	0.656780	0.790015
	H28	H	0.232575	0.891651	0.345115
	H29	H	0.228369	0.096073	0.669970
	H30	H	0.792518	0.096592	0.346316
	H31	H	0.797200	0.893022	0.669386
	H32	H	0.347553	0.207810	0.910131
	H33	H	0.670653	0.216530	0.115148
	H34	H	0.348547	0.778555	0.108795
	H35	H	0.670979	0.773586	0.906600
	H36	H	0.349379	0.895879	0.224965
	H37	H	0.673711	0.095410	0.226138
	H38	H	0.350261	0.093732	0.791325
	H39	H	0.673827	0.891897	0.793528
	H40	H	0.912654	0.206853	0.342030
	H41	H	0.114926	0.213660	0.667525
	H42	H	0.114598	0.777670	0.343034
	H43	H	0.913543	0.778559	0.668330
	H44	H	0.227341	0.332167	0.904316
	H45	H	0.227924	0.655525	0.110274
	H46	H	0.794244	0.331685	0.105494
	H47	H	0.790480	0.655050	0.904053
	H48	H	0.419910	0.108294	0.594287
	H49	H	0.605852	0.880482	0.597838
	H50	H	0.600504	0.109669	0.417397
	H51	H	0.422562	0.880481	0.421588
	H52	H	0.597884	0.410529	0.119600
	H53	H	0.602638	0.580177	0.891273
	H54	H	0.426562	0.573725	0.116797
	H55	H	0.420506	0.403547	0.893745
	H56	H	0.126493	0.581154	0.407850
	H57	H	0.901401	0.577502	0.591280
	H58	H	0.123610	0.405645	0.592130
	H59	H	0.893373	0.400429	0.404824
	H60	H	0.125907	0.406547	0.599623
	H61	H	0.893508	0.587173	0.604039
	H62	H	0.128705	0.591982	0.412576
	H63	H	0.894115	0.392451	0.416102
	H64	H	0.425584	0.599583	0.125869
	H65	H	0.594452	0.583155	0.892510
	H66	H	0.599151	0.398552	0.125262
	H67	H	0.418214	0.397390	0.891578
	H68	H	0.603293	0.109248	0.422880
	H69	H	0.608297	0.878582	0.601042
	H70	H	0.419079	0.112303	0.605058
	H71	H	0.420088	0.878086	0.415755
	H72	H	0.917146	0.610445	0.099215
	H73	H	0.100062	0.379574	0.097644
	H74	H	0.098235	0.607806	0.914656
	H75	H	0.908982	0.376463	0.913006
	H76	H	0.103628	0.902652	0.621563
	H77	H	0.106891	0.088200	0.389270
	H78	H	0.929241	0.083818	0.620125
	H79	H	0.920945	0.905067	0.390302
	H80	H	0.625205	0.088145	0.922396
	H81	H	0.395209	0.081796	0.109187
	H82	H	0.625766	0.904392	0.101067
	H83	H	0.395899	0.898583	0.918314
	H84	H	0.627820	0.898762	0.100718
	H85	H	0.394822	0.095434	0.098381
	H86	H	0.625962	0.083215	0.919248
	H87	H	0.398618	0.906702	0.918901
	H88	H	0.923679	0.092409	0.623780
	H89	H	0.108037	0.083366	0.390324
	H90	H	0.104898	0.904260	0.621843
	H91	H	0.921372	0.906741	0.392002
	H92	H	0.101242	0.607703	0.919453
	H93	H	0.101300	0.380166	0.094239
	H94	H	0.919827	0.608271	0.096066
	H95	H	0.922242	0.378367	0.905507
	H96	H	0.428251	0.107789	0.601151
	H97	H	0.604066	0.879548	0.601787
	H98	H	0.606662	0.111721	0.418573
	H99	H	0.426289	0.880213	0.416052
	H100	H	0.608735	0.406073	0.124991
	H101	H	0.600724	0.587761	0.888944
	H102	H	0.403720	0.583926	0.127313
	H103	H	0.413961	0.402611	0.892077
	H104	H	0.123621	0.583496	0.419111
	H105	H	0.897017	0.594954	0.587767
	H106	H	0.126953	0.399839	0.596338
	H107	H	0.898234	0.405349	0.416568
	H108	H	0.915414	0.609227	0.094973
	H109	H	0.103219	0.379201	0.096805
	H110	H	0.103450	0.610184	0.915201
	H111	H	0.921278	0.382293	0.919982
	H112	H	0.103836	0.904863	0.621065
	H113	H	0.103286	0.084901	0.390617
	H114	H	0.919068	0.082707	0.622464
	H115	H	0.922671	0.905411	0.391950
	H116	H	0.626735	0.088314	0.917271
	H117	H	0.400957	0.080431	0.092673
	H118	H	0.624430	0.900487	0.096084
	H119	H	0.394837	0.903704	0.911247
	C120	C	0.392186	0.002953	0.630001
	C121	C	0.636093	0.986305	0.631641
	C122	C	0.633848	0.003602	0.388151
	C123	C	0.392235	0.985992	0.387486
	C124	C	0.630784	0.372570	0.016392
	C125	C	0.630520	0.614458	0.997894
	C126	C	0.388054	0.615317	0.016098
	C127	C	0.388016	0.372331	0.999860
	C128	C	0.019683	0.616025	0.383585
	C129	C	1.003120	0.616750	0.626782
	C130	C	0.019707	0.373046	0.626121
	C131	C	1.002554	0.371124	0.382432
	C132	C	0.888197	0.502316	0.126308
	C133	C	0.131112	0.486101	0.127532
	C134	C	0.131384	0.502022	0.885116
	C135	C	0.887503	0.485886	0.883332
	C136	C	0.134908	0.873421	0.514438
	C137	C	0.135381	0.116561	0.497454
	C138	C	0.892565	0.115567	0.514813
	C139	C	0.891966	0.874419	0.498316
	C140	C	0.519217	0.115478	0.888769
	C141	C	0.503236	0.116949	0.131343
	C142	C	0.519420	0.872374	0.129936
	C143	C	0.502740	0.872014	0.886431
	C144	C	0.392743	0.881046	0.686525
	C145	C	0.634892	0.107554	0.689929
	C146	C	0.634680	0.882421	0.329221
	C147	C	0.391913	0.107574	0.330564
	C148	C	0.687033	0.370263	0.894023
	C149	C	0.689386	0.614958	0.119372
	C150	C	0.330769	0.614301	0.893750
	C151	C	0.330453	0.373392	0.121578
	C152	C	0.899027	0.674802	0.383078
	C153	C	0.124357	0.674067	0.628092
	C154	C	0.899026	0.314544	0.625419
	C155	C	0.124937	0.316101	0.383489
	C156	C	0.898302	0.372743	0.683099
	C157	C	0.123569	0.616298	0.686304
	C158	C	0.897229	0.614400	0.328172
	C159	C	0.123911	0.373847	0.325856
	C160	C	0.387470	0.672497	0.894155
	C161	C	0.631395	0.672053	0.120219
	C162	C	0.628584	0.314164	0.894301
	C163	C	0.388129	0.316283	0.121984
	C164	C	0.691697	0.882251	0.387408
	C165	C	0.693365	0.107530	0.632846
	C166	C	0.333222	0.882374	0.630454
	C167	C	0.333989	0.107154	0.386905
	C168	C	0.889771	0.380677	0.182637
	C169	C	0.128545	0.608496	0.183824
	C170	C	0.130601	0.380641	0.826689
	C171	C	0.888806	0.607839	0.827545
	C172	C	0.193104	0.872699	0.393004
	C173	C	0.190900	0.115960	0.620625
	C174	C	0.832813	0.115510	0.393887
	C175	C	0.835823	0.874236	0.620542
	C176	C	0.396609	0.170234	0.889850
	C177	C	0.623264	0.175925	0.132743
	C178	C	0.397440	0.816339	0.129009
	C179	C	0.623530	0.813446	0.887303
	C180	C	0.397871	0.874858	0.186701
	C181	C	0.624946	0.115801	0.188123
	C182	C	0.398045	0.113473	0.830939
	C183	C	0.624697	0.872164	0.830859
	C184	C	0.892472	0.170501	0.391877
	C185	C	0.134342	0.174599	0.619368
	C186	C	0.134322	0.816006	0.392095
	C187	C	0.893161	0.816753	0.619800
	C188	C	0.188510	0.380540	0.884927
	C189	C	0.188566	0.607488	0.128673
	C190	C	0.832239	0.380277	0.125242
	C191	C	0.829856	0.606925	0.884513
	C192	C	0.415591	0.087449	0.606918
	C193	C	0.612963	0.901602	0.607311
	C194	C	0.610434	0.088030	0.412441
	C195	C	0.416113	0.901529	0.411000
	C196	C	0.608539	0.397826	0.101073
	C197	C	0.606143	0.590751	0.913002
	C198	C	0.411722	0.592419	0.101259
	C199	C	0.410912	0.394808	0.914499
	C200	C	0.104290	0.592406	0.406529
	C201	C	0.919258	0.593213	0.601679
	C202	C	0.103704	0.397143	0.602844
	C203	C	0.917396	0.392945	0.405685
	C204	C	0.910731	0.587229	0.103315
	C205	C	0.108241	0.401543	0.103275
	C206	C	0.107777	0.586585	0.909380
	C207	C	0.910870	0.400969	0.906146
	C208	C	0.111263	0.897342	0.599407
	C209	C	0.112750	0.092556	0.412134
	C210	C	0.917071	0.092828	0.600126
	C211	C	0.915015	0.898665	0.413594
	C212	C	0.603970	0.093099	0.912722
	C213	C	0.418794	0.092718	0.107052
	C214	C	0.604119	0.894636	0.106325
	C215	C	0.418413	0.895968	0.909405
	Zn216	Zn	0.513299	-0.005549	0.759395
	Zn217	Zn	0.512534	-0.005048	0.259406
	Zn218	Zn	0.758924	0.492929	0.005959
	Zn219	Zn	0.260522	0.494061	0.007507
	Zn220	Zn	0.012740	0.745409	0.504954
	Zn221	Zn	0.012774	0.243595	0.504546
	Zn222	Zn	0.010121	0.494533	0.755359
	Zn223	Zn	0.009369	0.494182	0.255543
	Zn224	Zn	0.509711	0.742945	0.007398
	Zn225	Zn	0.509730	0.245243	0.009282
	Zn226	Zn	0.763453	-0.004553	0.508249
	Zn227	Zn	0.263488	-0.005447	0.507473
	N228	N	0.428651	0.957000	0.686456
	N229	N	0.600004	0.031215	0.689243
	N230	N	0.599480	0.958766	0.329506
	N231	N	0.427367	0.031322	0.330745
	N232	N	0.688397	0.406016	0.970739
	N233	N	0.688945	0.579824	0.042425
	N234	N	0.331043	0.579546	0.970534
	N235	N	0.330265	0.407523	0.044505
	N236	N	0.976227	0.676121	0.416760
	N237	N	0.048550	0.674437	0.591556
	N238	N	0.975510	0.314452	0.590876
	N239	N	0.048348	0.314298	0.418056
	N240	N	0.974257	0.408340	0.683639
	N241	N	0.047342	0.581394	0.685417
	N242	N	0.973094	0.578390	0.328487
	N243	N	0.046724	0.407059	0.324748
	N244	N	0.422281	0.673347	0.971358
	N245	N	0.595193	0.671770	0.043729
	N246	N	0.594423	0.315337	0.971315
	N247	N	0.423128	0.315549	0.045281
	N248	N	0.691309	0.958555	0.423429
	N249	N	0.694558	0.030875	0.597595
	N250	N	0.332505	0.959120	0.596143
	N251	N	0.333888	0.030563	0.421623
	N252	N	0.923992	0.457555	0.183569
	N253	N	0.093757	0.531912	0.183598
	N254	N	0.095634	0.457185	0.826940
	N255	N	0.923803	0.531429	0.826716
	N256	N	0.193826	0.907477	0.470225
	N257	N	0.191659	0.080370	0.543690
	N258	N	0.832707	0.082323	0.471377
	N259	N	0.834760	0.909329	0.543846
	N260	N	0.473074	0.171583	0.925099
	N261	N	0.546413	0.176702	0.098143
	N262	N	0.474075	0.814568	0.094428
	N263	N	0.546625	0.812974	0.921114
	N264	N	0.474596	0.908887	0.187545
	N265	N	0.549102	0.079963	0.187251
	N266	N	0.475296	0.080273	0.830130
	N267	N	0.548718	0.907871	0.830386
	N268	N	0.929097	0.170520	0.468251
	N269	N	0.100976	0.175230	0.541913
	N270	N	0.099170	0.816279	0.468729
	N271	N	0.927512	0.816954	0.542844
	N272	N	0.189187	0.457055	0.920530
	N273	N	0.189903	0.530470	0.094110
	N274	N	0.831243	0.456814	0.090917
	N275	N	0.828675	0.529880	0.918230
	O276	O	-0.095816	0.016269	-0.063443
	H277	H	-0.097732	0.014087	-0.073797
	H278	H	-0.096432	0.016488	-0.058711
	O279	O	0.405169	0.633921	0.533821
	H280	H	0.408263	0.639234	0.522861
	H281	H	0.401193	0.653054	0.535349
	O282	O	1.046820	0.076042	0.071313
	H283	H	1.032648	0.078338	0.070190
	H284	H	1.039538	0.079193	0.057888
	O285	O	-0.480409	1.479313	-0.578893
	H286	H	-0.471724	1.487186	-0.578114
	H287	H	-0.467827	1.467151	-0.579516
	O288	O	0.625237	0.584989	0.632878
	H289	H	0.626890	0.603787	0.633558
	H290	H	0.624478	0.581692	0.624673
	O291	O	0.461077	0.394007	0.498691
	H292	H	0.469037	0.401245	0.514133
	H293	H	0.446508	0.406095	0.502235
	O294	O	1.005540	1.025019	0.978053
	H295	H	1.001398	1.035589	0.991015
	H296	H	1.000339	1.020301	0.983491
	O297	O	0.007492	0.089676	0.009222
	H298	H	0.011344	0.093965	0.015656
	H299	H	0.011152	0.091916	0.012120
	O300	O	0.620037	0.625510	0.553472
	H301	H	0.631239	0.634967	0.547338
	H302	H	0.599844	0.624440	0.553831
	O303	O	0.074861	0.863510	0.954953
	H304	H	0.066731	0.867602	0.953298
	H305	H	0.073409	0.875042	0.951774
	O306	O	0.517568	0.638176	0.654527
	H307	H	0.518755	0.634616	0.645132
	H308	H	0.502256	0.647285	0.657386
	O309	O	0.925585	0.110921	-0.015343
	H310	H	0.937650	0.116698	-0.025993
	H311	H	0.923221	0.126098	-0.006897
	O312	O	-0.597205	0.533313	0.388693
	H313	H	-0.591813	0.509188	0.391254
	H314	H	-0.603492	0.535890	0.384665
	O315	O	0.574835	0.424391	0.470667
	H316	H	0.581437	0.421019	0.467080
	H317	H	0.572425	0.423846	0.478795
	O318	O	0.643384	0.421571	0.556116
	H319	H	0.651511	0.427160	0.579869
	H320	H	0.634080	0.439972	0.551796
	O321	O	0.511672	0.549128	0.496111
	H322	H	0.515898	0.553109	0.495071
	H323	H	0.506677	0.544220	0.509523
	O324	O	0.499518	0.490965	0.511384
	H325	H	0.483994	0.490835	0.493985
	H326	H	0.497744	0.499372	0.516150
	O327	O	-0.030581	0.942196	0.954168
	H328	H	-0.028792	0.941780	0.965500
	H329	H	-0.031456	0.939581	0.927614
	O330	O	0.592713	0.623822	0.618884
	H331	H	0.592778	0.633080	0.598820
	H332	H	0.574459	0.637359	0.621190
	O333	O	0.149254	0.866585	0.900377
	H334	H	0.153629	0.865041	0.905113
	H335	H	0.148366	0.865995	0.915975
	O336	O	1.002316	0.998444	1.020842
	H337	H	0.999246	1.003150	1.022471
	H338	H	0.998638	1.009712	1.029110
	O339	O	0.606048	0.472792	0.475010
	H340	H	0.611210	0.473432	0.478900
	H341	H	0.607274	0.479952	0.470038
	O342	O	0.929925	0.000013	-0.009456
	H343	H	0.932916	-0.000663	-0.005512
	H344	H	0.929714	0.000419	0.002091
	O345	O	0.544674	0.335490	0.389540
	H346	H	0.538560	0.323081	0.415963
	H347	H	0.550272	0.344544	0.383486
	O348	O	0.933051	1.014493	1.072931
	H349	H	0.926715	1.001893	1.072341
	H350	H	0.928041	1.018764	1.084453
	O351	O	1.073729	0.958044	0.066779
	H352	H	1.081429	0.956233	0.077031
	H353	H	1.072313	0.962233	0.067106
	O354	O	0.407987	0.457508	0.402148
	H355	H	0.383575	0.443732	0.409786
	H356	H	0.408466	0.470547	0.403736
	O357	O	0.496805	0.632401	0.527962
	H358	H	0.488889	0.628056	0.529851
	H359	H	0.506222	0.628500	0.539931
	O360	O	0.141059	-0.096570	-0.160911
	H361	H	0.137136	-0.085343	-0.157837
	H362	H	0.150056	-0.092936	-0.168965
	O363	O	0.382369	0.530020	0.599260
	H364	H	0.388611	0.530275	0.592409
	H365	H	0.379499	0.519114	0.601377
	O366	O	0.468577	0.549446	0.534105
	H367	H	0.465423	0.552640	0.534357
	H368	H	0.470224	0.547782	0.515615
	O369	O	0.007856	-0.022997	0.118419
	H370	H	0.018332	-0.023326	0.121822
	H371	H	0.009884	-0.020195	0.113238
	O372	O	0.454583	0.539262	0.347517
	H373	H	0.457591	0.528595	0.355372
	H374	H	0.460604	0.518161	0.343269
	O375	O	0.497183	0.411030	0.572810
	H376	H	0.505306	0.419599	0.575900
	H377	H	0.488763	0.419089	0.581264
	O378	O	0.471079	0.397533	0.576619
	H379	H	0.469664	0.389847	0.578025
	H380	H	0.466454	0.397974	0.578700
	O381	O	0.088580	1.009269	1.025682
	H382	H	0.094135	1.023400	1.025900
	H383	H	0.081572	0.999973	1.018517
	O384	O	0.032790	1.060047	-0.047605
	H385	H	0.035996	1.063829	-0.057067
	H386	H	0.025158	1.054664	-0.051241
	O387	O	0.964341	0.035881	0.969437
	H388	H	0.974606	0.046721	0.973660
	H389	H	0.966778	0.018257	0.962506
	O390	O	-0.031855	0.898462	0.050957
	H391	H	-0.046640	0.900069	0.044796
	H392	H	-0.028237	0.903763	0.049106
	O393	O	0.912753	1.100938	-0.039816
	H394	H	0.907116	1.094965	-0.026711
	H395	H	0.905140	1.103473	-0.043824
	O396	O	0.585291	0.321976	0.470553
	H397	H	0.584887	0.322341	0.480049
	H398	H	0.583195	0.318633	0.476755
	O399	O	0.120236	1.070115	0.986841
	H400	H	0.118133	1.070663	0.992193
	H401	H	0.121400	1.058601	0.994926
	O402	O	0.402697	0.496738	0.425840
	H403	H	0.396450	0.490072	0.427139
	H404	H	0.401805	0.494264	0.427510
	O405	O	0.586334	0.364499	0.509463
	H406	H	0.598026	0.371044	0.510524
	H407	H	0.581795	0.363562	0.514782
