data_Molecule from HDF5

_cell_length_a		16.392668
_cell_length_b		16.222956
_cell_length_c		16.275460
_cell_angle_alpha	89.944204
_cell_angle_beta	90.013696
_cell_angle_gamma	90.028229
_symmetry_space_group_name_H-M	'P 1'
_symmetry_Int_Tables_number		1

loop_
	_symmetry_equiv_pos_as_xyz
	x,y,z

loop_
	_atom_site_label
	_atom_site_type_symbol
	_atom_site_fract_x
	_atom_site_fract_y
	_atom_site_fract_z
	H0	H	0.409346	0.838678	0.717427
	H1	H	0.604116	0.167763	0.716091
	H2	H	0.603697	0.839170	0.290074
	H3	H	0.409584	0.168197	0.290624
	H4	H	0.722011	0.403489	0.840366
	H5	H	0.724132	0.604278	0.166289
	H6	H	0.291608	0.603375	0.840728
	H7	H	0.291420	0.401265	0.166176
	H8	H	0.843221	0.716192	0.405963
	H9	H	0.169684	0.716869	0.602194
	H10	H	0.843125	0.288052	0.600934
	H11	H	0.169648	0.288181	0.405910
	H12	H	0.843748	0.402974	0.719516
	H13	H	0.168796	0.601148	0.719069
	H14	H	0.843769	0.600562	0.287590
	H15	H	0.168982	0.402140	0.287931
	H16	H	0.409061	0.717125	0.839799
	H17	H	0.605137	0.717561	0.167398
	H18	H	0.603458	0.290537	0.839728
	H19	H	0.410178	0.290267	0.168082
	H20	H	0.720585	0.838632	0.404055
	H21	H	0.722532	0.165931	0.602189
	H22	H	0.291815	0.838949	0.603165
	H23	H	0.291108	0.166910	0.403335
	H24	H	0.910486	0.337370	0.215307
	H25	H	0.106524	0.666547	0.219598
	H26	H	0.105263	0.337559	0.790250
	H27	H	0.909703	0.666503	0.790619
	H28	H	0.222085	0.903590	0.339193
	H29	H	0.221390	0.102370	0.666519
	H30	H	0.790801	0.102044	0.340147
	H31	H	0.791404	0.901178	0.666741
	H32	H	0.343446	0.217061	0.907646
	H33	H	0.670122	0.216142	0.099733
	H34	H	0.344186	0.788267	0.102971
	H35	H	0.669271	0.789313	0.905410
	H36	H	0.344344	0.904756	0.219854
	H37	H	0.669903	0.102289	0.218362
	H38	H	0.344212	0.103870	0.787748
	H39	H	0.669269	0.905967	0.789684
	H40	H	0.910159	0.215184	0.338969
	H41	H	0.102593	0.215367	0.667334
	H42	H	0.104886	0.788373	0.338684
	H43	H	0.909344	0.788672	0.667532
	H44	H	0.222210	0.338919	0.905182
	H45	H	0.222283	0.667322	0.103018
	H46	H	0.790801	0.339317	0.103563
	H47	H	0.791829	0.665863	0.902052
	H48	H	0.405367	0.123566	0.599509
	H49	H	0.605317	0.884204	0.595965
	H50	H	0.600279	0.118025	0.417297
	H51	H	0.407303	0.885659	0.414139
	H52	H	0.603909	0.404548	0.122669
	H53	H	0.599139	0.593593	0.888462
	H54	H	0.420630	0.601145	0.119744
	H55	H	0.404777	0.415506	0.885540
	H56	H	0.123205	0.597322	0.408832
	H57	H	0.889634	0.607318	0.589123
	H58	H	0.123053	0.400857	0.595143
	H59	H	0.887134	0.400329	0.404116
	H60	H	0.117793	0.414709	0.590900
	H61	H	0.896583	0.583523	0.591555
	H62	H	0.120280	0.594841	0.414814
	H63	H	0.892434	0.408146	0.417497
	H64	H	0.406277	0.597629	0.123470
	H65	H	0.598135	0.598281	0.887393
	H66	H	0.605379	0.416850	0.120297
	H67	H	0.421888	0.416174	0.891277
	H68	H	0.606310	0.122274	0.409019
	H69	H	0.597674	0.885579	0.602434
	H70	H	0.421151	0.118355	0.600561
	H71	H	0.416019	0.885212	0.404060
	H72	H	0.915127	0.619506	0.097137
	H73	H	0.101466	0.388313	0.089519
	H74	H	0.098139	0.619948	0.907422
	H75	H	0.918136	0.388246	0.915549
	H76	H	0.097355	0.907719	0.618523
	H77	H	0.098164	0.092578	0.388021
	H78	H	0.911491	0.095595	0.621009
	H79	H	0.909502	0.910917	0.386642
	H80	H	0.624685	0.098689	0.903379
	H81	H	0.391561	0.096988	0.094974
	H82	H	0.620613	0.912334	0.092416
	H83	H	0.389217	0.905854	0.912009
	H84	H	0.621859	0.914103	0.101369
	H85	H	0.391757	0.094011	0.099988
	H86	H	0.622126	0.100883	0.913591
	H87	H	0.393408	0.914365	0.914271
	H88	H	0.913345	0.092627	0.619152
	H89	H	0.099288	0.099162	0.385904
	H90	H	0.103798	0.908041	0.620965
	H91	H	0.915465	0.913199	0.389009
	H92	H	0.097217	0.616538	0.915164
	H93	H	0.106011	0.384247	0.098471
	H94	H	0.917255	0.617827	0.093902
	H95	H	0.907652	0.383990	0.914951
	H96	H	0.413185	0.117082	0.586274
	H97	H	0.596309	0.887695	0.592448
	H98	H	0.595251	0.119753	0.407457
	H99	H	0.419155	0.889707	0.416504
	H100	H	0.593807	0.410451	0.117751
	H101	H	0.603140	0.596264	0.886978
	H102	H	0.414884	0.586836	0.116876
	H103	H	0.415752	0.400974	0.885171
	H104	H	0.120693	0.590802	0.409355
	H105	H	0.886738	0.595181	0.610920
	H106	H	0.122840	0.412681	0.604816
	H107	H	0.891372	0.415767	0.403336
	H108	H	0.913286	0.618970	0.093531
	H109	H	0.095858	0.386830	0.098773
	H110	H	0.104623	0.619632	0.912063
	H111	H	0.914212	0.384013	0.905450
	H112	H	0.100338	0.913208	0.617497
	H113	H	0.104088	0.093837	0.385706
	H114	H	0.915585	0.095525	0.619193
	H115	H	0.915127	0.906834	0.386070
	H116	H	0.620799	0.091165	0.909738
	H117	H	0.389656	0.099921	0.100223
	H118	H	0.623981	0.906462	0.098189
	H119	H	0.390155	0.912770	0.904841
	C120	C	0.384980	0.011452	0.624551
	C121	C	0.628151	0.994222	0.624966
	C122	C	0.628329	0.011542	0.382877
	C123	C	0.385538	0.995171	0.382314
	C124	C	0.628975	0.382008	0.012114
	C125	C	0.628656	0.624924	0.995197
	C126	C	0.385445	0.624564	0.012191
	C127	C	0.385660	0.381664	0.995466
	C128	C	0.014341	0.623707	0.381689
	C129	C	0.998402	0.624042	0.625614
	C130	C	0.014135	0.380417	0.625824
	C131	C	0.998205	0.380028	0.380976
	C132	C	0.886377	0.510420	0.123893
	C133	C	0.129606	0.494514	0.125251
	C134	C	0.128792	0.510595	0.882681
	C135	C	0.885234	0.493660	0.882633
	C136	C	0.128965	0.880715	0.510812
	C137	C	0.128194	0.124105	0.494867
	C138	C	0.885140	0.123374	0.511652
	C139	C	0.885074	0.881307	0.495433
	C140	C	0.514877	0.125297	0.881382
	C141	C	0.498835	0.125183	0.125916
	C142	C	0.514942	0.881800	0.126225
	C143	C	0.498339	0.882669	0.882469
	C144	C	0.388224	0.887783	0.679915
	C145	C	0.624997	0.118450	0.678700
	C146	C	0.624836	0.887859	0.327865
	C147	C	0.388231	0.119002	0.327806
	C148	C	0.683735	0.383834	0.889024
	C149	C	0.684921	0.623588	0.117979
	C150	C	0.330033	0.623267	0.889280
	C151	C	0.330302	0.382730	0.118034
	C152	C	0.891825	0.678593	0.384388
	C153	C	0.120981	0.678995	0.622511
	C154	C	0.891771	0.325451	0.622572
	C155	C	0.120681	0.325374	0.384731
	C156	C	0.892119	0.382373	0.681510
	C157	C	0.120697	0.621516	0.680876
	C158	C	0.892302	0.621475	0.325546
	C159	C	0.120638	0.382287	0.326266
	C160	C	0.388408	0.679822	0.888916
	C161	C	0.625989	0.680075	0.118465
	C162	C	0.625145	0.327264	0.888825
	C163	C	0.389229	0.327177	0.118784
	C164	C	0.682934	0.887855	0.384551
	C165	C	0.684034	0.117382	0.622588
	C166	C	0.330047	0.887925	0.622950
	C167	C	0.329651	0.118195	0.383964
	C168	C	0.889400	0.386788	0.178247
	C169	C	0.126618	0.617787	0.180882
	C170	C	0.125917	0.386861	0.827745
	C171	C	0.888849	0.617450	0.827639
	C172	C	0.183959	0.882750	0.388012
	C173	C	0.183444	0.122507	0.617810
	C174	C	0.829671	0.121796	0.388645
	C175	C	0.829878	0.882332	0.618023
	C176	C	0.392326	0.180043	0.885643
	C177	C	0.621510	0.179252	0.121685
	C178	C	0.392841	0.826081	0.123854
	C179	C	0.620755	0.827382	0.884875
	C180	C	0.392858	0.883875	0.181783
	C181	C	0.621287	0.122690	0.180572
	C182	C	0.392709	0.123988	0.825989
	C183	C	0.620729	0.885157	0.827149
	C184	C	0.888450	0.178208	0.388174
	C185	C	0.124239	0.178536	0.618173
	C186	C	0.125888	0.825423	0.387926
	C187	C	0.888894	0.826425	0.618636
	C188	C	0.184383	0.387591	0.884644
	C189	C	0.184718	0.617952	0.123531
	C190	C	0.830019	0.387760	0.122636
	C191	C	0.829953	0.616969	0.883035
	C192	C	0.406704	0.097460	0.602043
	C193	C	0.606254	0.908192	0.603494
	C194	C	0.606881	0.097838	0.404939
	C195	C	0.407647	0.909079	0.404855
	C196	C	0.607346	0.404179	0.098025
	C197	C	0.606529	0.602588	0.909756
	C198	C	0.407553	0.601813	0.097975
	C199	C	0.407561	0.404351	0.909449
	C200	C	0.099383	0.601001	0.404255
	C201	C	0.913072	0.601855	0.603865
	C202	C	0.099274	0.402890	0.603646
	C203	C	0.912559	0.401743	0.402117
	C204	C	0.908846	0.596621	0.101374
	C205	C	0.107608	0.408470	0.102331
	C206	C	0.106513	0.596490	0.904868
	C207	C	0.907018	0.407720	0.905136
	C208	C	0.107075	0.903194	0.596883
	C209	C	0.106805	0.101818	0.408815
	C210	C	0.906986	0.101035	0.597426
	C211	C	0.907045	0.903942	0.409354
	C212	C	0.600312	0.103237	0.902566
	C213	C	0.413095	0.103331	0.104660
	C214	C	0.600297	0.904256	0.103807
	C215	C	0.413065	0.904620	0.904178
	Zn216	Zn	0.506299	0.003548	0.752775
	Zn217	Zn	0.506954	0.004081	0.254766
	Zn218	Zn	0.757383	0.503339	0.003644
	Zn219	Zn	0.257835	0.502915	0.003543
	Zn220	Zn	0.006325	0.752939	0.503251
	Zn221	Zn	0.006099	0.252084	0.503188
	Zn222	Zn	0.006322	0.502059	0.755135
	Zn223	Zn	0.006889	0.502012	0.252505
	Zn224	Zn	0.506835	0.753339	0.003896
	Zn225	Zn	0.506944	0.253833	0.003897
	Zn226	Zn	0.756585	0.002099	0.503742
	Zn227	Zn	0.257202	0.002776	0.503331
	N228	N	0.421788	0.965558	0.680913
	N229	N	0.590853	0.040914	0.680467
	N230	N	0.591556	0.965758	0.326475
	N231	N	0.422309	0.041717	0.326815
	N232	N	0.686153	0.417097	0.966652
	N233	N	0.686773	0.589941	0.040493
	N234	N	0.327916	0.589749	0.966891
	N235	N	0.328028	0.415974	0.040308
	N236	N	0.968720	0.680218	0.418385
	N237	N	0.043889	0.680825	0.589065
	N238	N	0.968505	0.324153	0.588648
	N239	N	0.043493	0.323887	0.418027
	N240	N	0.969202	0.416037	0.683554
	N241	N	0.043588	0.588098	0.683013
	N242	N	0.969477	0.588124	0.323817
	N243	N	0.043622	0.415648	0.323864
	N244	N	0.422038	0.680765	0.966316
	N245	N	0.591884	0.681044	0.041326
	N246	N	0.591572	0.326080	0.966316
	N247	N	0.423027	0.326492	0.041454
	N248	N	0.685113	0.965668	0.418040
	N249	N	0.685924	0.039372	0.589858
	N250	N	0.327786	0.965761	0.589467
	N251	N	0.327922	0.040095	0.417406
	N252	N	0.923731	0.464151	0.178998
	N253	N	0.093265	0.540016	0.182113
	N254	N	0.092046	0.464411	0.826365
	N255	N	0.922627	0.539875	0.827283
	N256	N	0.186117	0.916305	0.465558
	N257	N	0.185882	0.089093	0.540125
	N258	N	0.827512	0.088476	0.466197
	N259	N	0.827725	0.915685	0.540399
	N260	N	0.469367	0.181230	0.919140
	N261	N	0.544396	0.181083	0.088509
	N262	N	0.469703	0.825058	0.089786
	N263	N	0.543786	0.825644	0.918538
	N264	N	0.469931	0.917514	0.183604
	N265	N	0.543927	0.089789	0.183193
	N266	N	0.469908	0.090829	0.823062
	N267	N	0.543765	0.918804	0.825467
	N268	N	0.922514	0.179123	0.465511
	N269	N	0.090831	0.179661	0.540684
	N270	N	0.092428	0.823914	0.465545
	N271	N	0.922398	0.825512	0.541062
	N272	N	0.186033	0.465337	0.918159
	N273	N	0.186691	0.540244	0.089655
	N274	N	0.828091	0.465955	0.089678
	N275	N	0.827851	0.539259	0.916714
	O276	O	0.463068	0.521840	-0.483943
	H277	H	0.467229	0.513253	-0.481085
	H278	H	0.463970	0.530832	-0.498243
	O279	O	0.004268	-0.021850	-0.050435
	H280	H	-0.002814	-0.019197	-0.042164
	H281	H	0.001106	-0.025100	-0.046650
	O282	O	0.030641	-0.041469	0.973716
	H283	H	0.025846	-0.049040	0.966547
	H284	H	0.032354	-0.052840	0.971572
	O285	O	0.464591	0.501368	0.504019
	H286	H	0.456130	0.503907	0.510456
	H287	H	0.462782	0.501139	0.504477
	O288	O	0.455378	0.549569	0.525717
	H289	H	0.456559	0.544340	0.523892
	H290	H	0.450344	0.550024	0.528379
	O291	O	0.466449	0.518317	0.502833
	H292	H	0.463125	0.515273	0.510256
	H293	H	0.465482	0.518610	0.496580
	O294	O	-0.023806	-0.049041	-0.075375
	H295	H	-0.025726	-0.046938	-0.073388
	H296	H	-0.031299	-0.046800	-0.066757
	O297	O	0.468504	0.493071	0.505362
	H298	H	0.466353	0.491058	0.503720
	H299	H	0.468782	0.486271	0.510930
	O300	O	0.000874	0.956209	0.978492
	H301	H	0.012807	0.952594	0.965217
	H302	H	-0.005394	0.965040	0.975562
	O303	O	0.444312	0.544939	0.490998
	H304	H	0.449603	0.555152	0.490859
	H305	H	0.433649	0.539012	0.496706
	O306	O	0.039072	-0.072994	1.031640
	H307	H	0.045432	-0.073250	1.029993
	H308	H	0.046567	-0.071516	1.019651
	O309	O	1.004228	0.973903	0.999231
	H310	H	1.004854	0.964107	1.001137
	H311	H	1.008604	0.971299	0.994358
	O312	O	0.451244	0.535013	0.458703
	H313	H	0.447609	0.538113	0.461867
	H314	H	0.452158	0.540220	0.453083
	O315	O	0.445880	0.493579	0.500824
	H316	H	0.447821	0.496784	0.499670
	H317	H	0.447474	0.499765	0.505007
	O318	O	-0.037935	0.912412	0.023951
	H319	H	-0.026674	0.918015	0.020231
	H320	H	-0.036236	0.919672	0.029045
	O321	O	0.944595	0.898994	0.018192
	H322	H	0.932972	0.885320	0.023252
	H323	H	0.940975	0.909509	0.027100
