data_Molecule from HDF5

_cell_length_a		16.284673
_cell_length_b		16.409003
_cell_length_c		16.348195
_cell_angle_alpha	90.022955
_cell_angle_beta	90.214527
_cell_angle_gamma	89.932239
_symmetry_space_group_name_H-M	'P 1'
_symmetry_Int_Tables_number		1

loop_
	_symmetry_equiv_pos_as_xyz
	x,y,z

loop_
	_atom_site_label
	_atom_site_type_symbol
	_atom_site_fract_x
	_atom_site_fract_y
	_atom_site_fract_z
	H0	H	0.394048	0.832140	0.724036
	H1	H	0.603574	0.150690	0.723377
	H2	H	0.603141	0.831983	0.282251
	H3	H	0.397595	0.153209	0.286284
	H4	H	0.715957	0.389837	0.841880
	H5	H	0.719327	0.593595	0.163465
	H6	H	0.280032	0.591969	0.843125
	H7	H	0.283471	0.389208	0.165316
	H8	H	0.837941	0.710184	0.398563
	H9	H	0.160767	0.708998	0.607471
	H10	H	0.837317	0.272966	0.603784
	H11	H	0.160718	0.271373	0.401600
	H12	H	0.836308	0.390738	0.718642
	H13	H	0.160899	0.592031	0.722504
	H14	H	0.837418	0.592264	0.284340
	H15	H	0.161777	0.388659	0.286915
	H16	H	0.392482	0.711323	0.844559
	H17	H	0.603770	0.709933	0.164661
	H18	H	0.603572	0.271026	0.843412
	H19	H	0.397191	0.272618	0.164656
	H20	H	0.717344	0.830073	0.399879
	H21	H	0.717537	0.151268	0.604838
	H22	H	0.281529	0.830105	0.604686
	H23	H	0.280157	0.151690	0.401016
	H24	H	0.897330	0.328754	0.221075
	H25	H	0.102653	0.649839	0.223757
	H26	H	0.100384	0.330113	0.786267
	H27	H	0.893615	0.650823	0.783171
	H28	H	0.215783	0.889721	0.341192
	H29	H	0.218348	0.093382	0.663515
	H30	H	0.780203	0.093058	0.341903
	H31	H	0.781421	0.887115	0.664043
	H32	H	0.337655	0.209805	0.901553
	H33	H	0.661555	0.211084	0.108133
	H34	H	0.338938	0.772237	0.108955
	H35	H	0.658897	0.769125	0.898975
	H36	H	0.337394	0.892974	0.218677
	H37	H	0.660584	0.096660	0.224094
	H38	H	0.337760	0.094928	0.783764
	H39	H	0.659072	0.885210	0.783270
	H40	H	0.894879	0.209048	0.342153
	H41	H	0.103383	0.208705	0.663659
	H42	H	0.102726	0.770460	0.342778
	H43	H	0.894683	0.768249	0.662031
	H44	H	0.215556	0.329172	0.903598
	H45	H	0.218715	0.649937	0.108724
	H46	H	0.780891	0.329062	0.104186
	H47	H	0.780201	0.651275	0.900469
	H48	H	0.413848	0.104206	0.594920
	H49	H	0.599046	0.875002	0.588572
	H50	H	0.592585	0.105043	0.415110
	H51	H	0.411065	0.876654	0.407345
	H52	H	0.592671	0.401384	0.118956
	H53	H	0.588011	0.579549	0.890022
	H54	H	0.416548	0.580532	0.116324
	H55	H	0.403487	0.393127	0.885758
	H56	H	0.116903	0.584317	0.406353
	H57	H	0.881806	0.582772	0.597091
	H58	H	0.114252	0.399968	0.596267
	H59	H	0.881693	0.401525	0.401864
	H60	H	0.115257	0.397411	0.594810
	H61	H	0.885647	0.583518	0.584936
	H62	H	0.112733	0.585747	0.421056
	H63	H	0.882232	0.390201	0.415490
	H64	H	0.407710	0.588001	0.121762
	H65	H	0.585923	0.582412	0.889689
	H66	H	0.587843	0.402805	0.116922
	H67	H	0.403678	0.407172	0.889414
	H68	H	0.589352	0.106415	0.409932
	H69	H	0.587618	0.873762	0.604583
	H70	H	0.407701	0.104143	0.588687
	H71	H	0.408033	0.878875	0.413320
	H72	H	0.920149	0.601637	0.097692
	H73	H	0.082804	0.377308	0.097591
	H74	H	0.084443	0.600780	0.920862
	H75	H	0.905131	0.375527	0.912077
	H76	H	0.098047	0.897683	0.619999
	H77	H	0.086757	0.083623	0.387665
	H78	H	0.909383	0.083846	0.618162
	H79	H	0.912431	0.905799	0.391481
	H80	H	0.613057	0.075372	0.910900
	H81	H	0.387727	0.078674	0.091925
	H82	H	0.615524	0.901725	0.095613
	H83	H	0.386026	0.907825	0.911321
	H84	H	0.615006	0.898878	0.092628
	H85	H	0.383476	0.084383	0.098870
	H86	H	0.616211	0.086691	0.911344
	H87	H	0.381157	0.896374	0.910395
	H88	H	0.907662	0.081186	0.617931
	H89	H	0.091680	0.081076	0.387097
	H90	H	0.088028	0.906941	0.614049
	H91	H	0.912475	0.894649	0.388020
	H92	H	0.098153	0.607655	0.914406
	H93	H	0.093823	0.377774	0.087482
	H94	H	0.907286	0.600712	0.082109
	H95	H	0.909350	0.375649	0.908737
	H96	H	0.406392	0.106024	0.596662
	H97	H	0.580440	0.881520	0.588294
	H98	H	0.586592	0.103710	0.415600
	H99	H	0.403952	0.875095	0.408419
	H100	H	0.588552	0.398168	0.118428
	H101	H	0.588896	0.582404	0.888695
	H102	H	0.405054	0.576288	0.118307
	H103	H	0.415560	0.398921	0.890851
	H104	H	0.111162	0.571920	0.413795
	H105	H	0.888191	0.572508	0.591681
	H106	H	0.113657	0.399491	0.593850
	H107	H	0.888637	0.406560	0.418342
	H108	H	0.901163	0.607629	0.099966
	H109	H	0.095861	0.371947	0.100959
	H110	H	0.084492	0.606119	0.905523
	H111	H	0.909588	0.378216	0.913804
	H112	H	0.084375	0.893275	0.617661
	H113	H	0.087327	0.078353	0.389287
	H114	H	0.910826	0.081040	0.616967
	H115	H	0.902383	0.900965	0.386595
	H116	H	0.611297	0.081728	0.920706
	H117	H	0.384101	0.087460	0.089435
	H118	H	0.613184	0.902563	0.092203
	H119	H	0.386729	0.899627	0.921276
	C120	C	0.377750	-0.000743	0.624504
	C121	C	0.620861	0.982221	0.625407
	C122	C	0.620465	-0.000612	0.381798
	C123	C	0.377294	0.983304	0.380312
	C124	C	0.620400	0.369904	0.011762
	C125	C	0.620076	0.612779	0.994898
	C126	C	0.377259	0.612372	0.012886
	C127	C	0.378003	0.369407	0.995447
	C128	C	0.007299	0.611810	0.381672
	C129	C	0.991315	0.611421	0.623886
	C130	C	0.007307	0.368922	0.624752
	C131	C	0.991028	0.368729	0.381824
	C132	C	0.878034	0.497619	0.124339
	C133	C	0.121892	0.481211	0.126693
	C134	C	0.120004	0.498714	0.883174
	C135	C	0.876563	0.482280	0.880604
	C136	C	0.120849	0.868682	0.511325
	C137	C	0.120673	0.112295	0.494122
	C138	C	0.877655	0.112353	0.511375
	C139	C	0.878142	0.869022	0.494764
	C140	C	0.507365	0.112871	0.882457
	C141	C	0.491542	0.114334	0.125228
	C142	C	0.507937	0.870652	0.124429
	C143	C	0.490502	0.869322	0.882470
	C144	C	0.375972	0.879460	0.683885
	C145	C	0.621971	0.102724	0.683976
	C146	C	0.621178	0.879159	0.322571
	C147	C	0.377548	0.104428	0.323784
	C148	C	0.677670	0.369904	0.890359
	C149	C	0.679511	0.612647	0.115699
	C150	C	0.318561	0.612051	0.891713
	C151	C	0.321717	0.369862	0.116969
	C152	C	0.886238	0.670478	0.380025
	C153	C	0.112432	0.669622	0.625837
	C154	C	0.885571	0.311860	0.623897
	C155	C	0.112682	0.310832	0.382194
	C156	C	0.885394	0.370091	0.681329
	C157	C	0.112384	0.611577	0.683333
	C158	C	0.885980	0.612138	0.322904
	C159	C	0.113141	0.369057	0.325299
	C160	C	0.374711	0.671398	0.892466
	C161	C	0.622323	0.671006	0.116082
	C162	C	0.621927	0.310791	0.891219
	C163	C	0.378840	0.312102	0.116639
	C164	C	0.678123	0.878215	0.381050
	C165	C	0.678851	0.103027	0.625140
	C166	C	0.319865	0.878558	0.624534
	C167	C	0.319444	0.103989	0.381300
	C168	C	0.877725	0.377001	0.182275
	C169	C	0.122149	0.601630	0.185094
	C170	C	0.119939	0.378071	0.825483
	C171	C	0.875505	0.602875	0.822393
	C172	C	0.177704	0.869458	0.389949
	C173	C	0.179086	0.112299	0.615215
	C174	C	0.819178	0.112217	0.390324
	C175	C	0.820170	0.868034	0.615578
	C176	C	0.385867	0.170749	0.882135
	C177	C	0.612752	0.172577	0.126797
	C178	C	0.386989	0.812082	0.126422
	C179	C	0.610872	0.809275	0.880645
	C180	C	0.386254	0.872106	0.181307
	C181	C	0.612440	0.115467	0.184675
	C182	C	0.385951	0.113489	0.823716
	C183	C	0.611063	0.867378	0.823304
	C184	C	0.876537	0.170100	0.390441
	C185	C	0.121793	0.169956	0.615325
	C186	C	0.121753	0.809921	0.390599
	C187	C	0.876415	0.808827	0.614647
	C188	C	0.177307	0.377750	0.883924
	C189	C	0.180180	0.601524	0.127888
	C190	C	0.819633	0.377227	0.124185
	C191	C	0.818676	0.603019	0.880770
	C192	C	0.402281	0.082862	0.600261
	C193	C	0.596297	0.898611	0.600888
	C194	C	0.596542	0.083173	0.406536
	C195	C	0.400744	0.898796	0.403132
	C196	C	0.596581	0.393866	0.096102
	C197	C	0.594725	0.588616	0.911187
	C198	C	0.402432	0.588571	0.097045
	C199	C	0.400907	0.392864	0.910739
	C200	C	0.091740	0.587550	0.406510
	C201	C	0.907065	0.586992	0.598504
	C202	C	0.092142	0.392116	0.601580
	C203	C	0.906355	0.392343	0.405138
	C204	C	0.902436	0.581466	0.100121
	C205	C	0.097804	0.397452	0.102536
	C206	C	0.096060	0.582874	0.906713
	C207	C	0.900941	0.398248	0.904624
	C208	C	0.096977	0.892264	0.595478
	C209	C	0.095824	0.088256	0.409901
	C210	C	0.902103	0.088678	0.595726
	C211	C	0.902201	0.893507	0.410808
	C212	C	0.591788	0.088310	0.907130
	C213	C	0.407120	0.090442	0.100555
	C214	C	0.592715	0.894165	0.100346
	C215	C	0.406460	0.894196	0.907124
	Zn216	Zn	0.498975	-0.008872	0.753673
	Zn217	Zn	0.499865	-0.007866	0.252528
	Zn218	Zn	0.748749	0.490463	0.002494
	Zn219	Zn	0.249532	0.490184	0.004232
	Zn220	Zn	-0.000379	0.740529	0.502768
	Zn221	Zn	-0.000890	0.240208	0.503041
	Zn222	Zn	-0.001582	0.490948	0.753334
	Zn223	Zn	-0.000831	0.489966	0.253816
	Zn224	Zn	0.498592	0.741259	0.004744
	Zn225	Zn	0.499575	0.241831	0.003445
	Zn226	Zn	0.749143	-0.009577	0.503220
	Zn227	Zn	0.248737	-0.008902	0.502478
	N228	N	0.411094	0.955452	0.683998
	N229	N	0.586917	0.026538	0.684405
	N230	N	0.586535	0.955498	0.322681
	N231	N	0.412823	0.028488	0.323249
	N232	N	0.677063	0.405608	0.966384
	N233	N	0.678502	0.577188	0.039485
	N234	N	0.320098	0.576068	0.967681
	N235	N	0.321256	0.404919	0.040678
	N236	N	0.962735	0.670530	0.415673
	N237	N	0.036061	0.669677	0.589507
	N238	N	0.962401	0.311024	0.589400
	N239	N	0.035691	0.310398	0.416488
	N240	N	0.962149	0.404877	0.681955
	N241	N	0.035912	0.576319	0.682318
	N242	N	0.962470	0.576427	0.323781
	N243	N	0.036563	0.404314	0.324860
	N244	N	0.410271	0.671820	0.968877
	N245	N	0.586132	0.671113	0.040077
	N246	N	0.587150	0.310547	0.967685
	N247	N	0.413210	0.311783	0.039949
	N248	N	0.677848	0.953966	0.417252
	N249	N	0.678679	0.027041	0.589841
	N250	N	0.320462	0.954207	0.588377
	N251	N	0.319000	0.027582	0.415740
	N252	N	0.912824	0.453117	0.182723
	N253	N	0.086954	0.525660	0.184743
	N254	N	0.084963	0.454254	0.824815
	N255	N	0.910619	0.526640	0.822121
	N256	N	0.177320	0.905147	0.466080
	N257	N	0.178435	0.076930	0.538948
	N258	N	0.819713	0.076839	0.466620
	N259	N	0.821203	0.904894	0.540042
	N260	N	0.462418	0.170674	0.917609
	N261	N	0.536504	0.172059	0.090477
	N262	N	0.463850	0.810967	0.091922
	N263	N	0.534839	0.810298	0.916811
	N264	N	0.462510	0.907967	0.180062
	N265	N	0.536160	0.079828	0.183708
	N266	N	0.462557	0.078134	0.823822
	N267	N	0.535078	0.904099	0.824303
	N268	N	0.912038	0.170334	0.466791
	N269	N	0.086094	0.169848	0.539082
	N270	N	0.087051	0.809439	0.466986
	N271	N	0.911773	0.809468	0.538562
	N272	N	0.177577	0.454054	0.918923
	N273	N	0.180288	0.525745	0.092344
	N274	N	0.819695	0.453320	0.088826
	N275	N	0.819000	0.526996	0.916011
	O276	O	0.451203	0.491771	0.651162
	H277	H	0.461756	0.499727	0.648290
	H278	H	0.458037	0.497083	0.645380
	O279	O	0.468415	0.504920	0.616858
	H280	H	0.475651	0.517402	0.611253
	H281	H	0.491123	0.506972	0.619586
	O282	O	0.992763	0.107537	0.869260
	H283	H	0.995349	0.109252	0.891987
	H284	H	1.003454	0.111065	0.874315
	O285	O	0.513743	0.467984	0.588689
	H286	H	0.489272	0.468550	0.574476
	H287	H	0.502322	0.464670	0.602415
	O288	O	0.855747	0.784903	1.073303
	H289	H	0.859306	0.779356	1.077264
	H290	H	0.856081	0.777199	1.094770
	O291	O	0.017855	0.847444	-0.006433
	H292	H	0.033628	0.840245	-0.024275
	H293	H	-0.001779	0.854770	-0.030843
	O294	O	0.602543	0.477083	0.425801
	H295	H	0.605758	0.483932	0.421080
	H296	H	0.596970	0.476372	0.430350
	O297	O	0.577845	0.456774	0.452938
	H298	H	0.575831	0.450380	0.451270
	H299	H	0.575249	0.454970	0.468415
	O300	O	0.474576	0.446164	0.454781
	H301	H	0.470585	0.444264	0.460950
	H302	H	0.458084	0.455739	0.455283
	O303	O	0.576878	0.422056	0.456730
	H304	H	0.573932	0.421662	0.455249
	H305	H	0.569057	0.410192	0.463004
	O306	O	0.423606	0.625725	0.337173
	H307	H	0.428850	0.623157	0.334924
	H308	H	0.414808	0.625215	0.329255
	O309	O	0.635599	0.559418	0.344223
	H310	H	0.627068	0.541290	0.347561
	H311	H	0.637384	0.552164	0.337306
	O312	O	-0.091414	0.090666	0.158207
	H313	H	-0.099702	0.097931	0.173948
	H314	H	-0.097795	0.095749	0.136269
	O315	O	0.329014	0.509851	0.533081
	H316	H	0.318989	0.514721	0.525771
	H317	H	0.323952	0.524271	0.532684
	O318	O	-0.088141	0.822927	1.163437
	H319	H	-0.071630	0.812843	1.145177
	H320	H	-0.088856	0.807949	1.180205
	O321	O	0.331178	0.597139	0.477919
	H322	H	0.343778	0.587731	0.464403
	H323	H	0.312520	0.603838	0.466931
	O324	O	0.048129	1.188158	0.048142
	H325	H	0.042702	1.173676	0.056814
	H326	H	0.048745	1.197758	0.059159
	O327	O	0.518691	0.455824	0.322589
	H328	H	0.511170	0.445237	0.322367
	H329	H	0.522376	0.461981	0.308436
	O330	O	0.090041	0.002887	0.967922
	H331	H	0.089325	0.000960	0.980756
	H332	H	0.082005	0.004665	0.976785
	O333	O	-0.005919	0.084913	0.819152
	H334	H	-0.003056	0.090310	0.819147
	H335	H	0.011419	0.083525	0.826851
	O336	O	0.518432	0.616355	0.613134
	H337	H	0.520737	0.614919	0.612160
	H338	H	0.526552	0.624559	0.608629
	O339	O	0.875708	-0.004320	-0.011465
	H340	H	0.876381	-0.005460	-0.018046
	H341	H	0.870668	0.003588	0.000743
	O342	O	0.181897	-0.167328	0.036249
	H343	H	0.172347	-0.146811	0.010910
	H344	H	0.209431	-0.187781	0.023782
	O345	O	0.873948	-0.028291	1.091502
	H346	H	0.887722	-0.026543	1.111745
	H347	H	0.874515	-0.048537	1.085686
	O348	O	1.177733	0.827068	-0.112978
	H349	H	1.166742	0.833928	-0.117931
	H350	H	1.167507	0.853465	-0.129342
	O351	O	0.456976	0.399569	0.412654
	H352	H	0.457184	0.408059	0.428176
	H353	H	0.453834	0.391680	0.416858
	O354	O	0.841675	0.049017	0.812871
	H355	H	0.839753	0.064987	0.792308
	H356	H	0.846148	0.058628	0.806410
	O357	O	0.474493	0.483428	0.595056
	H358	H	0.480034	0.474695	0.605659
	H359	H	0.471179	0.487496	0.589950
	O360	O	0.522732	0.394413	0.447782
	H361	H	0.512378	0.387829	0.449776
	H362	H	0.524030	0.395287	0.466043
	O363	O	-0.115255	1.133520	1.093339
	H364	H	-0.123589	1.148756	1.097257
	H365	H	-0.111720	1.113310	1.105709
	O366	O	0.386579	0.521629	0.349247
	H367	H	0.401349	0.510608	0.347583
	H368	H	0.392438	0.515691	0.340945
	O369	O	0.154000	0.989627	0.135071
	H370	H	0.167949	0.982754	0.143268
	H371	H	0.139267	0.992957	0.117275
	O372	O	0.556005	0.467915	0.588241
	H373	H	0.555152	0.473027	0.584943
	H374	H	0.542718	0.462972	0.598376
	O375	O	0.487611	0.477673	0.621405
	H376	H	0.498217	0.482252	0.620581
	H377	H	0.491707	0.478418	0.619262
	O378	O	0.893069	0.857612	-0.060166
	H379	H	0.869845	0.848028	-0.047037
	H380	H	0.893612	0.869216	-0.074782
	O381	O	0.851747	-0.068103	0.097815
	H382	H	0.873028	-0.081129	0.110898
	H383	H	0.855089	-0.049465	0.100239
	O384	O	0.955317	1.021762	0.112353
	H385	H	0.961777	1.032513	0.114661
	H386	H	0.981157	1.022152	0.107472
	O387	O	0.147325	0.081859	0.090488
	H388	H	0.156202	0.066966	0.081809
	H389	H	0.139310	0.071417	0.084128
	O390	O	0.106467	1.041674	-0.059009
	H391	H	0.097675	1.054287	-0.055241
	H392	H	0.109267	1.049988	-0.073064
	O393	O	1.059334	0.936409	1.045234
	H394	H	1.045044	0.935560	1.030632
	H395	H	1.056851	0.921698	1.049589
	O396	O	0.583320	0.433387	0.476021
	H397	H	0.586980	0.441035	0.468856
	H398	H	0.588368	0.435745	0.467917
	O399	O	0.056000	1.154602	1.029666
	H400	H	0.045223	1.159454	1.022196
	H401	H	0.040158	1.166470	1.042251
	O402	O	0.524976	0.429515	0.687607
	H403	H	0.514706	0.451137	0.682923
	H404	H	0.530615	0.424322	0.691091
	O405	O	1.101483	1.030381	-0.142883
	H406	H	1.102814	1.037692	-0.125445
	H407	H	1.103812	1.023027	-0.140874
	O408	O	0.942161	0.868672	-0.186409
	H409	H	0.929906	0.887834	-0.190398
	H410	H	0.934349	0.870603	-0.200118
	O411	O	0.926522	-0.060619	0.937278
	H412	H	0.918723	-0.064112	0.929958
	H413	H	0.912648	-0.056659	0.929151
	O414	O	0.505313	0.570195	0.576293
	H415	H	0.513616	0.585951	0.565997
	H416	H	0.503124	0.577646	0.572169
	O417	O	0.527227	0.536765	0.594224
	H418	H	0.523029	0.546595	0.589116
	H419	H	0.528211	0.540898	0.591542
