data_Molecule from HDF5

_cell_length_a		16.155725
_cell_length_b		16.319718
_cell_length_c		16.392366
_cell_angle_alpha	89.925764
_cell_angle_beta	89.932890
_cell_angle_gamma	90.183455
_symmetry_space_group_name_H-M	'P 1'
_symmetry_Int_Tables_number		1

loop_
	_symmetry_equiv_pos_as_xyz
	x,y,z

loop_
	_atom_site_label
	_atom_site_type_symbol
	_atom_site_fract_x
	_atom_site_fract_y
	_atom_site_fract_z
	H0	H	0.391106	0.837255	0.721719
	H1	H	0.595228	0.162531	0.719966
	H2	H	0.594675	0.837649	0.287206
	H3	H	0.393311	0.161943	0.286915
	H4	H	0.707290	0.403595	0.840273
	H5	H	0.708367	0.596999	0.167451
	H6	H	0.279582	0.596988	0.840118
	H7	H	0.279731	0.401832	0.166736
	H8	H	0.829409	0.713808	0.404459
	H9	H	0.157566	0.715098	0.602836
	H10	H	0.828761	0.286058	0.602547
	H11	H	0.159202	0.288125	0.405644
	H12	H	0.829590	0.398762	0.719665
	H13	H	0.158350	0.599754	0.718907
	H14	H	0.829749	0.600040	0.288847
	H15	H	0.157876	0.401150	0.288509
	H16	H	0.393273	0.717347	0.841322
	H17	H	0.593870	0.714932	0.167050
	H18	H	0.593846	0.283703	0.841941
	H19	H	0.392275	0.282809	0.166124
	H20	H	0.708342	0.836685	0.405053
	H21	H	0.709256	0.163118	0.602096
	H22	H	0.278039	0.836308	0.601997
	H23	H	0.282463	0.164050	0.407004
	H24	H	0.893062	0.337114	0.220150
	H25	H	0.095998	0.662621	0.220736
	H26	H	0.095289	0.337003	0.787592
	H27	H	0.893180	0.661707	0.787389
	H28	H	0.208174	0.902931	0.339867
	H29	H	0.208315	0.097663	0.666973
	H30	H	0.779316	0.098951	0.341220
	H31	H	0.778612	0.901443	0.666590
	H32	H	0.327727	0.211713	0.907402
	H33	H	0.657640	0.214360	0.103036
	H34	H	0.329047	0.785111	0.103115
	H35	H	0.658402	0.787447	0.906797
	H36	H	0.329350	0.900194	0.219276
	H37	H	0.657560	0.099533	0.218527
	H38	H	0.330047	0.101251	0.787965
	H39	H	0.657715	0.899832	0.789063
	H40	H	0.895157	0.216590	0.341667
	H41	H	0.094318	0.216687	0.665982
	H42	H	0.094984	0.782693	0.341555
	H43	H	0.890676	0.781476	0.664945
	H44	H	0.207410	0.335243	0.907121
	H45	H	0.208594	0.663668	0.100989
	H46	H	0.779791	0.336279	0.101570
	H47	H	0.781947	0.663506	0.907883
	H48	H	0.401752	0.113748	0.592915
	H49	H	0.579932	0.885824	0.596682
	H50	H	0.588356	0.116336	0.411400
	H51	H	0.396598	0.882273	0.412111
	H52	H	0.592893	0.403187	0.121996
	H53	H	0.586281	0.592146	0.889238
	H54	H	0.400165	0.590742	0.117747
	H55	H	0.392977	0.404164	0.885184
	H56	H	0.111979	0.595286	0.411670
	H57	H	0.874490	0.595072	0.600047
	H58	H	0.110819	0.401637	0.587606
	H59	H	0.875934	0.409212	0.407804
	H60	H	0.107414	0.419083	0.595464
	H61	H	0.877667	0.592445	0.591793
	H62	H	0.108551	0.589786	0.415812
	H63	H	0.875968	0.404239	0.412656
	H64	H	0.404588	0.592409	0.117709
	H65	H	0.585465	0.596736	0.889094
	H66	H	0.584852	0.413772	0.116142
	H67	H	0.403671	0.413067	0.891260
	H68	H	0.585935	0.116640	0.407651
	H69	H	0.588707	0.883987	0.593677
	H70	H	0.399101	0.117729	0.599609
	H71	H	0.402742	0.883214	0.405578
	H72	H	0.911132	0.615369	0.106553
	H73	H	0.090785	0.383426	0.093882
	H74	H	0.081495	0.613117	0.913471
	H75	H	0.899347	0.382481	0.910739
	H76	H	0.077770	0.911695	0.614390
	H77	H	0.081688	0.090675	0.391432
	H78	H	0.899366	0.103000	0.622517
	H79	H	0.893346	0.906606	0.386090
	H80	H	0.611753	0.096632	0.912192
	H81	H	0.375823	0.094192	0.093971
	H82	H	0.608249	0.905587	0.086636
	H83	H	0.374980	0.908140	0.907043
	H84	H	0.609518	0.917521	0.102167
	H85	H	0.376981	0.086691	0.096660
	H86	H	0.608645	0.090657	0.916017
	H87	H	0.376570	0.904028	0.915137
	H88	H	0.895139	0.086023	0.619104
	H89	H	0.085601	0.104252	0.386269
	H90	H	0.084008	0.900609	0.619900
	H91	H	0.904863	0.914102	0.391804
	H92	H	0.090640	0.615770	0.913345
	H93	H	0.084786	0.383103	0.103807
	H94	H	0.903725	0.611917	0.086314
	H95	H	0.901941	0.382408	0.909256
	H96	H	0.406201	0.114407	0.599432
	H97	H	0.586128	0.882062	0.601857
	H98	H	0.583850	0.115006	0.411241
	H99	H	0.405269	0.885728	0.414119
	H100	H	0.579045	0.400649	0.119053
	H101	H	0.589756	0.595224	0.888152
	H102	H	0.400898	0.594730	0.119556
	H103	H	0.407397	0.399085	0.888066
	H104	H	0.110489	0.588420	0.409366
	H105	H	0.877174	0.586121	0.598867
	H106	H	0.114644	0.404519	0.606715
	H107	H	0.877910	0.409884	0.414238
	H108	H	0.890686	0.620876	0.101593
	H109	H	0.079613	0.386845	0.094664
	H110	H	0.085577	0.616103	0.906123
	H111	H	0.901916	0.383847	0.911977
	H112	H	0.090805	0.912554	0.618405
	H113	H	0.096007	0.093017	0.385817
	H114	H	0.911354	0.091571	0.615885
	H115	H	0.906693	0.899883	0.387745
	H116	H	0.611455	0.090162	0.908427
	H117	H	0.374544	0.092702	0.101417
	H118	H	0.615611	0.898596	0.103731
	H119	H	0.377906	0.912629	0.914831
	C120	C	0.371546	0.007869	0.626190
	C121	C	0.614766	0.991910	0.625603
	C122	C	0.615325	0.008124	0.381816
	C123	C	0.373163	0.991543	0.382288
	C124	C	0.615054	0.377757	0.012121
	C125	C	0.616080	0.622101	0.996175
	C126	C	0.372191	0.621664	0.011223
	C127	C	0.372101	0.377287	0.995685
	C128	C	0.001997	0.620415	0.382900
	C129	C	0.985127	0.621128	0.625974
	C130	C	0.002094	0.378890	0.625698
	C131	C	0.985359	0.379463	0.382885
	C132	C	0.872250	0.508149	0.126539
	C133	C	0.115526	0.492052	0.126279
	C134	C	0.115232	0.507270	0.882284
	C135	C	0.872564	0.490943	0.882520
	C136	C	0.114592	0.878621	0.510973
	C137	C	0.116557	0.123972	0.495396
	C138	C	0.872755	0.122347	0.511972
	C139	C	0.871434	0.877565	0.495312
	C140	C	0.501935	0.121658	0.883184
	C141	C	0.484629	0.120576	0.125596
	C142	C	0.502448	0.878322	0.126170
	C143	C	0.485288	0.879558	0.883646
	C144	C	0.371561	0.885896	0.682999
	C145	C	0.614840	0.113777	0.681847
	C146	C	0.614156	0.886187	0.325656
	C147	C	0.374166	0.113707	0.325979
	C148	C	0.670532	0.381464	0.889396
	C149	C	0.671157	0.618532	0.118671
	C150	C	0.317411	0.618357	0.888674
	C151	C	0.317230	0.380899	0.118257
	C152	C	0.878380	0.675774	0.384427
	C153	C	0.108516	0.677309	0.623679
	C154	C	0.878304	0.323448	0.623252
	C155	C	0.109734	0.325203	0.385360
	C156	C	0.878511	0.379794	0.681117
	C157	C	0.108880	0.619776	0.681158
	C158	C	0.878641	0.619068	0.327054
	C159	C	0.108976	0.381432	0.327122
	C160	C	0.373733	0.678235	0.889392
	C161	C	0.613800	0.676954	0.118454
	C162	C	0.613986	0.322088	0.890242
	C163	C	0.372992	0.321512	0.117857
	C164	C	0.670533	0.885460	0.384498
	C165	C	0.671215	0.114196	0.622760
	C166	C	0.315552	0.885227	0.623243
	C167	C	0.319317	0.114863	0.385863
	C168	C	0.873906	0.385589	0.181554
	C169	C	0.115009	0.614113	0.181835
	C170	C	0.114182	0.385134	0.826517
	C171	C	0.873789	0.613347	0.826072
	C172	C	0.170584	0.881411	0.388588
	C173	C	0.171420	0.119514	0.617915
	C174	C	0.817322	0.119701	0.389646
	C175	C	0.815813	0.880194	0.617662
	C176	C	0.377645	0.175575	0.886217
	C177	C	0.608748	0.176017	0.122962
	C178	C	0.378279	0.822799	0.123793
	C179	C	0.609116	0.824379	0.885624
	C180	C	0.378380	0.880140	0.181261
	C181	C	0.608633	0.119461	0.180803
	C182	C	0.378743	0.120597	0.826773
	C183	C	0.608740	0.880785	0.827499
	C184	C	0.874877	0.178074	0.389953
	C185	C	0.114230	0.178470	0.617700
	C186	C	0.114405	0.821652	0.389648
	C187	C	0.872065	0.820911	0.617011
	C188	C	0.169651	0.384182	0.886140
	C189	C	0.171473	0.614533	0.122681
	C190	C	0.817261	0.385129	0.122924
	C191	C	0.818505	0.614444	0.885987
	C192	C	0.395254	0.093213	0.603892
	C193	C	0.591499	0.906101	0.603833
	C194	C	0.592701	0.093962	0.403802
	C195	C	0.395022	0.905989	0.404162
	C196	C	0.592408	0.399423	0.096975
	C197	C	0.593766	0.600810	0.910878
	C198	C	0.395033	0.599199	0.096340
	C199	C	0.394653	0.399104	0.910349
	C200	C	0.088014	0.597944	0.405541
	C201	C	0.898710	0.598033	0.603643
	C202	C	0.088494	0.401844	0.603232
	C203	C	0.898917	0.401327	0.405204
	C204	C	0.895152	0.593985	0.104585
	C205	C	0.092001	0.406393	0.103877
	C206	C	0.092407	0.592876	0.904447
	C207	C	0.894685	0.405069	0.904199
	C208	C	0.091189	0.901568	0.595706
	C209	C	0.094492	0.102252	0.409872
	C210	C	0.895288	0.100123	0.597173
	C211	C	0.894770	0.900295	0.410437
	C212	C	0.588408	0.099098	0.905578
	C213	C	0.398202	0.097909	0.103766
	C214	C	0.588928	0.900663	0.104090
	C215	C	0.398865	0.901689	0.905944
	Zn216	Zn	0.493435	-0.000166	0.755267
	Zn217	Zn	0.493922	0.000025	0.253368
	Zn218	Zn	0.744528	0.499987	0.004266
	Zn219	Zn	0.243514	0.499271	0.003509
	Zn220	Zn	-0.006991	0.748457	0.503191
	Zn221	Zn	-0.005945	0.252494	0.504141
	Zn222	Zn	-0.006399	0.499315	0.753759
	Zn223	Zn	-0.006219	0.500264	0.254886
	Zn224	Zn	0.493940	0.751226	0.004032
	Zn225	Zn	0.493196	0.248499	0.004464
	Zn226	Zn	0.743726	-0.000037	0.503567
	Zn227	Zn	0.243976	0.000211	0.502872
	N228	N	0.405888	0.963070	0.684791
	N229	N	0.580365	0.036609	0.683614
	N230	N	0.580564	0.963610	0.324012
	N231	N	0.406983	0.036014	0.323627
	N232	N	0.671385	0.415590	0.966115
	N233	N	0.672543	0.585057	0.041728
	N234	N	0.316286	0.584076	0.965467
	N235	N	0.316622	0.415125	0.041432
	N236	N	0.955986	0.676524	0.418754
	N237	N	0.030452	0.678273	0.590141
	N238	N	0.956231	0.323063	0.589365
	N239	N	0.031765	0.323864	0.419441
	N240	N	0.956642	0.413480	0.682995
	N241	N	0.030974	0.585470	0.682633
	N242	N	0.956604	0.585383	0.325853
	N243	N	0.030827	0.414471	0.325516
	N244	N	0.406955	0.680311	0.966695
	N245	N	0.580424	0.679483	0.041319
	N246	N	0.580069	0.319779	0.967099
	N247	N	0.406371	0.319172	0.040691
	N248	N	0.671281	0.962422	0.418592
	N249	N	0.671319	0.037213	0.588578
	N250	N	0.315346	0.962186	0.588750
	N251	N	0.318409	0.037938	0.420070
	N252	N	0.907227	0.463306	0.183928
	N253	N	0.081083	0.536842	0.184021
	N254	N	0.081078	0.462767	0.824121
	N255	N	0.906651	0.535707	0.823995
	N256	N	0.170792	0.916285	0.464918
	N257	N	0.172855	0.086299	0.540812
	N258	N	0.816015	0.085651	0.466494
	N259	N	0.815457	0.914703	0.541098
	N260	N	0.455473	0.176432	0.920261
	N261	N	0.530581	0.177022	0.089442
	N262	N	0.456403	0.821407	0.090301
	N263	N	0.531548	0.823793	0.920005
	N264	N	0.456575	0.913818	0.182810
	N265	N	0.530832	0.085384	0.182266
	N266	N	0.456989	0.087532	0.824811
	N267	N	0.530490	0.914186	0.826027
	N268	N	0.908657	0.179696	0.466887
	N269	N	0.081131	0.181375	0.540458
	N270	N	0.080416	0.819882	0.466681
	N271	N	0.905839	0.818949	0.539878
	N272	N	0.170522	0.461329	0.919909
	N273	N	0.171771	0.537419	0.088760
	N274	N	0.816136	0.462385	0.089472
	N275	N	0.817486	0.537330	0.920290
	O276	O	0.485837	0.505785	0.484867
	H277	H	0.484035	0.494125	0.485187
	H278	H	0.489515	0.496289	0.488915
	O279	O	0.562913	0.546952	0.497072
	H280	H	0.557023	0.565735	0.493799
	H281	H	0.569330	0.540957	0.491821
	O282	O	0.493145	0.519561	0.479832
	H283	H	0.493541	0.522069	0.473883
	H284	H	0.484023	0.526278	0.468428
	O285	O	-0.056807	0.934239	0.991773
	H286	H	-0.062054	0.932822	0.987557
	H287	H	-0.049423	0.939543	0.984333
	O288	O	0.509150	0.543339	0.520152
	H289	H	0.519251	0.551278	0.520163
	H290	H	0.503638	0.549597	0.515812
	O291	O	-0.041057	0.017923	0.991515
	H292	H	-0.047456	0.016098	1.006456
	H293	H	-0.046153	0.021046	0.984419
	O294	O	0.509103	0.478062	0.545565
	H295	H	0.517847	0.478095	0.537887
	H296	H	0.509079	0.472238	0.546838
	O297	O	0.487671	0.559503	0.491780
	H298	H	0.494124	0.555811	0.496868
	H299	H	0.485817	0.562986	0.496329
	O300	O	0.497480	0.553278	0.470941
	H301	H	0.494183	0.564360	0.471000
	H302	H	0.494679	0.549777	0.477151
	O303	O	0.502338	0.512267	0.498660
	H304	H	0.501439	0.507295	0.506221
	H305	H	0.508923	0.512798	0.501346
	O306	O	1.115056	-0.087507	0.908686
	H307	H	1.112771	-0.075747	0.913680
	H308	H	1.124359	-0.083197	0.908508
	O309	O	0.420982	0.492115	0.476869
	H310	H	0.419279	0.494604	0.474720
	H311	H	0.424653	0.497450	0.472316
	O312	O	0.519477	0.474981	0.469811
	H313	H	0.518541	0.479247	0.474089
	H314	H	0.518151	0.475684	0.466287
	O315	O	0.997884	-0.051729	0.946119
	H316	H	1.004475	-0.058350	0.943344
	H317	H	0.996114	-0.048818	0.942569
	O318	O	0.029715	-0.022058	0.006639
	H319	H	0.035225	-0.025272	0.009642
	H320	H	0.027276	-0.024749	-0.000956
	O321	O	0.415399	0.503772	0.548341
	H322	H	0.420642	0.493293	0.547425
	H323	H	0.410696	0.495202	0.556595
	O324	O	0.990846	-0.059376	-0.071877
	H325	H	1.000061	-0.066070	-0.081033
	H326	H	0.997038	-0.071979	-0.075301
	O327	O	0.993731	1.024286	-0.056989
	H328	H	0.977655	1.022542	-0.051994
	H329	H	0.992066	1.015622	-0.052236
	O330	O	1.021716	0.972975	-0.070200
	H331	H	1.030083	0.978242	-0.067708
	H332	H	1.022264	0.974555	-0.074550
	O333	O	0.550019	0.463948	0.515002
	H334	H	0.557262	0.462496	0.509829
	H335	H	0.534559	0.462230	0.520461
