data_Molecule from HDF5

_cell_length_a		16.484583
_cell_length_b		16.597233
_cell_length_c		16.589226
_cell_angle_alpha	90.035660
_cell_angle_beta	90.057762
_cell_angle_gamma	90.053853
_symmetry_space_group_name_H-M	'P 1'
_symmetry_Int_Tables_number		1

loop_
	_symmetry_equiv_pos_as_xyz
	x,y,z

loop_
	_atom_site_label
	_atom_site_type_symbol
	_atom_site_fract_x
	_atom_site_fract_y
	_atom_site_fract_z
	H0	H	0.394674	0.843994	0.720987
	H1	H	0.608076	0.155034	0.723277
	H2	H	0.609614	0.844942	0.273968
	H3	H	0.392941	0.154726	0.276285
	H4	H	0.721499	0.394583	0.843054
	H5	H	0.722650	0.605623	0.155902
	H6	H	0.280980	0.602705	0.843152
	H7	H	0.280772	0.397404	0.156655
	H8	H	0.842453	0.721637	0.391862
	H9	H	0.155150	0.720779	0.604574
	H10	H	0.841614	0.277963	0.605131
	H11	H	0.155837	0.279066	0.395465
	H12	H	0.842295	0.392710	0.722294
	H13	H	0.156449	0.603030	0.719805
	H14	H	0.842883	0.606468	0.275646
	H15	H	0.156405	0.395340	0.279875
	H16	H	0.395363	0.720830	0.844075
	H17	H	0.607010	0.721584	0.155881
	H18	H	0.607552	0.275721	0.844486
	H19	H	0.394984	0.279531	0.155595
	H20	H	0.723727	0.843801	0.392120
	H21	H	0.721888	0.155394	0.604774
	H22	H	0.278242	0.843970	0.604588
	H23	H	0.277329	0.155229	0.393870
	H24	H	0.891295	0.344982	0.222706
	H25	H	0.104072	0.655769	0.220939
	H26	H	0.104782	0.342305	0.778801
	H27	H	0.893134	0.655795	0.776029
	H28	H	0.221239	0.894693	0.344257
	H29	H	0.219920	0.103154	0.657356
	H30	H	0.778194	0.102458	0.343442
	H31	H	0.778225	0.893975	0.656986
	H32	H	0.342563	0.220808	0.893971
	H33	H	0.656506	0.222841	0.106242
	H34	H	0.342005	0.778695	0.104614
	H35	H	0.656761	0.776752	0.892802
	H36	H	0.342313	0.895595	0.219821
	H37	H	0.656081	0.105928	0.222050
	H38	H	0.342496	0.104418	0.778938
	H39	H	0.656653	0.892725	0.776811
	H40	H	0.894178	0.219984	0.343443
	H41	H	0.104637	0.220854	0.656989
	H42	H	0.106131	0.777448	0.343980
	H43	H	0.891731	0.775530	0.655580
	H44	H	0.220499	0.342705	0.895266
	H45	H	0.216825	0.657609	0.100844
	H46	H	0.776085	0.344187	0.104485
	H47	H	0.777778	0.656540	0.892629
	H48	H	0.412707	0.111012	0.587354
	H49	H	0.588467	0.887899	0.587731
	H50	H	0.589455	0.110628	0.410512
	H51	H	0.416168	0.889707	0.409573
	H52	H	0.594527	0.413084	0.112701
	H53	H	0.586565	0.591841	0.887433
	H54	H	0.413398	0.594099	0.112903
	H55	H	0.409563	0.416084	0.889048
	H56	H	0.110088	0.582324	0.407635
	H57	H	0.884615	0.590239	0.589527
	H58	H	0.113312	0.406564	0.590323
	H59	H	0.885720	0.412009	0.407014
	H60	H	0.110205	0.409954	0.585032
	H61	H	0.888007	0.587105	0.582444
	H62	H	0.114911	0.593298	0.407724
	H63	H	0.885500	0.407425	0.411890
	H64	H	0.404520	0.591805	0.115324
	H65	H	0.590223	0.588427	0.888070
	H66	H	0.583998	0.418347	0.107298
	H67	H	0.415694	0.405911	0.887420
	H68	H	0.585453	0.109992	0.409833
	H69	H	0.588366	0.887210	0.590027
	H70	H	0.408110	0.113263	0.589091
	H71	H	0.409629	0.889207	0.415008
	H72	H	0.910595	0.612676	0.089669
	H73	H	0.087700	0.385583	0.094665
	H74	H	0.092492	0.612332	0.910049
	H75	H	0.909927	0.387927	0.909006
	H76	H	0.091336	0.911672	0.612479
	H77	H	0.091542	0.088822	0.386878
	H78	H	0.906285	0.089372	0.613370
	H79	H	0.911408	0.919542	0.392684
	H80	H	0.611582	0.087464	0.913755
	H81	H	0.388601	0.091132	0.084441
	H82	H	0.610699	0.910681	0.081254
	H83	H	0.386160	0.903805	0.911642
	H84	H	0.610718	0.916704	0.090219
	H85	H	0.389398	0.084599	0.086806
	H86	H	0.612060	0.086699	0.909604
	H87	H	0.391317	0.913698	0.917067
	H88	H	0.912908	0.085434	0.610244
	H89	H	0.086825	0.086110	0.390626
	H90	H	0.084446	0.913034	0.609283
	H91	H	0.920199	0.903466	0.388643
	H92	H	0.089571	0.612256	0.904445
	H93	H	0.086851	0.388749	0.086043
	H94	H	0.916114	0.609438	0.088134
	H95	H	0.914338	0.389948	0.910054
	H96	H	0.412148	0.112489	0.592502
	H97	H	0.586226	0.889172	0.588854
	H98	H	0.587370	0.109280	0.413735
	H99	H	0.408170	0.885589	0.407683
	H100	H	0.583254	0.405521	0.110369
	H101	H	0.585632	0.587424	0.889439
	H102	H	0.410195	0.585529	0.111283
	H103	H	0.404547	0.407001	0.883127
	H104	H	0.109169	0.588950	0.417372
	H105	H	0.887268	0.582613	0.589069
	H106	H	0.111109	0.412923	0.591092
	H107	H	0.888034	0.413492	0.413470
	H108	H	0.911296	0.610304	0.083856
	H109	H	0.095210	0.386609	0.089303
	H110	H	0.086011	0.610718	0.909597
	H111	H	0.910588	0.389753	0.913649
	H112	H	0.085894	0.906196	0.611886
	H113	H	0.085460	0.092312	0.388822
	H114	H	0.913263	0.093398	0.612312
	H115	H	0.902111	0.905562	0.384343
	H116	H	0.612956	0.090583	0.911375
	H117	H	0.385832	0.089976	0.090573
	H118	H	0.614342	0.906299	0.091238
	H119	H	0.387912	0.914887	0.905170
	C120	C	0.378396	0.008779	0.621551
	C121	C	0.621145	0.991088	0.621729
	C122	C	0.621149	0.007546	0.378137
	C123	C	0.378363	0.991044	0.378251
	C124	C	0.620812	0.378890	0.007544
	C125	C	0.621005	0.621471	0.991404
	C126	C	0.378224	0.621668	0.009424
	C127	C	0.378300	0.378453	0.990572
	C128	C	0.007686	0.620679	0.377677
	C129	C	0.990498	0.619213	0.619466
	C130	C	0.007564	0.377584	0.621305
	C131	C	0.990386	0.379004	0.379038
	C132	C	0.878392	0.508253	0.120619
	C133	C	0.121129	0.491030	0.121212
	C134	C	0.121206	0.507842	0.877064
	C135	C	0.878422	0.491957	0.877814
	C136	C	0.120124	0.878404	0.508158
	C137	C	0.120856	0.121516	0.491904
	C138	C	0.878578	0.120526	0.508150
	C139	C	0.877926	0.877058	0.491624
	C140	C	0.508184	0.120456	0.879154
	C141	C	0.491482	0.121343	0.120667
	C142	C	0.508140	0.878793	0.120441
	C143	C	0.492161	0.878204	0.878905
	C144	C	0.375864	0.891052	0.681351
	C145	C	0.625167	0.108180	0.682535
	C146	C	0.626209	0.891443	0.315282
	C147	C	0.375033	0.108088	0.317007
	C148	C	0.681482	0.376182	0.890056
	C149	C	0.682408	0.623817	0.108768
	C150	C	0.319924	0.622102	0.890519
	C151	C	0.319696	0.377994	0.109035
	C152	C	0.889743	0.681523	0.374085
	C153	C	0.108626	0.679970	0.622418
	C154	C	0.889016	0.317592	0.623919
	C155	C	0.108627	0.319095	0.377107
	C156	C	0.889467	0.374634	0.682070
	C157	C	0.109190	0.621627	0.679540
	C158	C	0.889984	0.624049	0.316144
	C159	C	0.108938	0.376786	0.319377
	C160	C	0.376482	0.681017	0.891220
	C161	C	0.624697	0.681491	0.109053
	C162	C	0.624686	0.317311	0.890695
	C163	C	0.376820	0.319650	0.108649
	C164	C	0.682939	0.890618	0.374383
	C165	C	0.682270	0.108421	0.623982
	C166	C	0.318241	0.891049	0.623371
	C167	C	0.317698	0.108423	0.375624
	C168	C	0.874015	0.391183	0.181834
	C169	C	0.122028	0.608979	0.180432
	C170	C	0.122880	0.389618	0.818454
	C171	C	0.875425	0.609148	0.816627
	C172	C	0.180859	0.876534	0.390910
	C173	C	0.180092	0.122353	0.610182
	C174	C	0.818628	0.121290	0.390265
	C175	C	0.817866	0.875091	0.609532
	C176	C	0.389804	0.180464	0.876191
	C177	C	0.609290	0.182444	0.124364
	C178	C	0.389603	0.818634	0.122977
	C179	C	0.609852	0.817233	0.875370
	C180	C	0.389519	0.876752	0.180187
	C181	C	0.609209	0.124482	0.181924
	C182	C	0.389772	0.122619	0.818749
	C183	C	0.609830	0.875078	0.817720
	C184	C	0.876136	0.179695	0.390290
	C185	C	0.122904	0.180919	0.609888
	C186	C	0.123510	0.818153	0.390813
	C187	C	0.874309	0.816000	0.608890
	C188	C	0.180601	0.389860	0.876558
	C189	C	0.178163	0.610064	0.120899
	C190	C	0.816818	0.390979	0.123051
	C191	C	0.818026	0.609441	0.874905
	C192	C	0.403836	0.090880	0.596780
	C193	C	0.595051	0.909430	0.596286
	C194	C	0.594773	0.088778	0.404214
	C195	C	0.404037	0.909510	0.403460
	C196	C	0.594778	0.404799	0.088770
	C197	C	0.594853	0.596401	0.909789
	C198	C	0.402488	0.597561	0.091646
	C199	C	0.402768	0.402609	0.908066
	C200	C	0.090012	0.595298	0.403484
	C201	C	0.908092	0.593722	0.594208
	C202	C	0.089918	0.402513	0.596055
	C203	C	0.907897	0.403835	0.403655
	C204	C	0.904994	0.589436	0.094591
	C205	C	0.096832	0.408405	0.096976
	C206	C	0.096543	0.590269	0.901164
	C207	C	0.904469	0.410558	0.903589
	C208	C	0.094458	0.903309	0.589948
	C209	C	0.095260	0.096348	0.410154
	C210	C	0.903632	0.096423	0.590657
	C211	C	0.903718	0.902248	0.409894
	C212	C	0.590571	0.095505	0.904518
	C213	C	0.409396	0.095787	0.094797
	C214	C	0.590429	0.904098	0.094975
	C215	C	0.409888	0.903561	0.904122
	Zn216	Zn	0.500096	-0.000313	0.750377
	Zn217	Zn	0.499599	-0.000274	0.248894
	Zn218	Zn	0.749647	0.500447	-0.000992
	Zn219	Zn	0.249658	0.499975	-0.000423
	Zn220	Zn	-0.001183	0.748582	0.499448
	Zn221	Zn	-0.001343	0.249853	0.500080
	Zn222	Zn	-0.000947	0.499359	0.748695
	Zn223	Zn	-0.000607	0.499513	0.249424
	Zn224	Zn	0.500395	0.750049	0.000078
	Zn225	Zn	0.499848	0.249649	-0.000669
	Zn226	Zn	0.749648	-0.001026	0.500051
	Zn227	Zn	0.249506	-0.000413	0.499985
	N228	N	0.412494	0.965350	0.680580
	N229	N	0.588078	0.034061	0.681298
	N230	N	0.588285	0.965184	0.317636
	N231	N	0.412072	0.034093	0.318497
	N232	N	0.679434	0.413679	0.963783
	N233	N	0.680459	0.587380	0.034391
	N234	N	0.320554	0.586220	0.965086
	N235	N	0.320316	0.413761	0.034473
	N236	N	0.964018	0.679714	0.411615
	N237	N	0.033755	0.678931	0.586101
	N238	N	0.963637	0.319003	0.587053
	N239	N	0.033953	0.320157	0.413489
	N240	N	0.964147	0.411191	0.680628
	N241	N	0.034699	0.584669	0.677877
	N242	N	0.964457	0.586988	0.318179
	N243	N	0.034321	0.413290	0.320333
	N244	N	0.411906	0.681240	0.966119
	N245	N	0.587367	0.680272	0.035084
	N246	N	0.587846	0.318746	0.964740
	N247	N	0.412231	0.319499	0.033794
	N248	N	0.679932	0.963747	0.412880
	N249	N	0.680035	0.034425	0.586836
	N250	N	0.319489	0.965383	0.587226
	N251	N	0.319523	0.034676	0.413000
	N252	N	0.911432	0.465111	0.180428
	N253	N	0.087401	0.533777	0.180682
	N254	N	0.086645	0.464080	0.818570
	N255	N	0.912319	0.534971	0.818308
	N256	N	0.178684	0.913628	0.464847
	N257	N	0.179240	0.086383	0.535738
	N258	N	0.819950	0.085283	0.464673
	N259	N	0.819656	0.912154	0.535538
	N260	N	0.464522	0.179375	0.912892
	N261	N	0.534921	0.180733	0.087047
	N262	N	0.464677	0.819422	0.086821
	N263	N	0.535618	0.819126	0.912847
	N264	N	0.464259	0.913231	0.178830
	N265	N	0.534876	0.087188	0.179735
	N266	N	0.464489	0.085914	0.820503
	N267	N	0.535553	0.912376	0.819825
	N268	N	0.912525	0.179340	0.464740
	N269	N	0.086946	0.180847	0.535134
	N270	N	0.086338	0.819094	0.464763
	N271	N	0.910749	0.816945	0.534417
	N272	N	0.179774	0.464504	0.912417
	N273	N	0.177913	0.535454	0.084876
	N274	N	0.819329	0.464807	0.085700
	N275	N	0.819701	0.535657	0.912268
	O276	O	0.911302	1.124574	0.172263
	H277	H	0.908837	1.127336	0.160216
	H278	H	0.913199	1.132456	0.169823
	O279	O	-0.195597	0.192882	0.806596
	H280	H	-0.145672	0.197531	0.799645
	H281	H	-0.198920	0.152292	0.810896
	O282	O	0.673987	0.486431	0.669183
	H283	H	0.676939	0.468307	0.675804
	H284	H	0.671056	0.474069	0.665533
	O285	O	0.452418	0.710559	0.555859
	H286	H	0.440227	0.716455	0.535702
	H287	H	0.455373	0.710119	0.542794
	O288	O	1.204999	-0.206868	0.788753
	H289	H	1.236772	-0.239935	0.768033
	H290	H	1.213946	-0.217552	0.835988
	O291	O	0.701180	0.524518	0.588708
	H292	H	0.711734	0.517520	0.611995
	H293	H	0.691303	0.547078	0.594425
	O294	O	0.205752	0.205202	0.200755
	H295	H	0.199895	0.205535	0.185790
	H296	H	0.186314	0.186798	0.193044
	O297	O	1.200586	0.024658	0.130334
	H298	H	1.209846	0.032831	0.140469
	H299	H	1.193690	0.034480	0.123165
	O300	O	0.283805	0.282520	0.521491
	H301	H	0.289677	0.283465	0.522966
	H302	H	0.264267	0.261195	0.531859
	O303	O	-0.309092	-0.310485	-0.307590
	H304	H	-0.322556	-0.305557	-0.325571
	H305	H	-0.326961	-0.336180	-0.307323
	O306	O	0.970434	0.213260	-0.212791
	H307	H	0.994761	0.214930	-0.220661
	H308	H	0.983064	0.212190	-0.228019
	O309	O	0.666648	0.482205	0.503926
	H310	H	0.654304	0.492539	0.518861
	H311	H	0.677105	0.475833	0.497260
	O312	O	0.433084	0.477748	0.320870
	H313	H	0.435062	0.477843	0.344068
	H314	H	0.425476	0.474997	0.311295
	O315	O	0.557414	0.728642	0.469541
	H316	H	0.562027	0.733240	0.445470
	H317	H	0.564972	0.727483	0.465371
	O318	O	0.781909	1.213544	-0.027535
	H319	H	0.769807	1.236612	-0.038105
	H320	H	0.778926	1.209490	-0.052552
	O321	O	0.121974	1.142540	1.062828
	H322	H	0.123913	1.153523	1.068737
	H323	H	0.111685	1.137088	1.038242
	O324	O	1.026195	0.004060	0.920829
	H325	H	1.011421	0.003145	0.915162
	H326	H	1.033414	-0.011580	0.921347
	O327	O	0.540403	0.375076	0.555667
	H328	H	0.547761	0.355082	0.553871
	H329	H	0.537563	0.372621	0.562706
	O330	O	1.213087	1.214989	0.024047
	H331	H	1.211237	1.209849	0.029178
	H332	H	1.222505	1.229744	0.020403
	O333	O	0.480045	0.706941	0.283175
	H334	H	0.492006	0.698597	0.267442
	H335	H	0.466134	0.720629	0.268753
	O336	O	-0.063038	0.988565	0.165307
	H337	H	-0.066937	0.976594	0.168302
	H338	H	-0.062043	0.995347	0.156340
	O339	O	0.282571	0.558688	0.551376
	H340	H	0.274819	0.576733	0.542006
	H341	H	0.280631	0.548558	0.544940
	O342	O	-0.115730	0.837928	-0.109339
	H343	H	-0.111918	0.836005	-0.097027
	H344	H	-0.113241	0.843377	-0.116495
	O345	O	0.318492	0.697453	0.308127
	H346	H	0.343460	0.681176	0.298644
	H347	H	0.302368	0.687075	0.282751
	O348	O	0.289150	0.473330	0.710322
	H349	H	0.281550	0.466731	0.713686
	H350	H	0.283764	0.475790	0.716114
	O351	O	0.058091	-0.162333	0.839351
	H352	H	0.062199	-0.175979	0.840310
	H353	H	0.072720	-0.169104	0.838860
	O354	O	1.060608	0.037410	1.101990
	H355	H	1.072180	0.042364	1.119667
	H356	H	1.049258	0.034245	1.101748
	O357	O	0.712471	0.482109	0.316756
	H358	H	0.719392	0.489063	0.334084
	H359	H	0.736018	0.492610	0.314952
	O360	O	0.276501	0.437979	0.450266
	H361	H	0.284494	0.435676	0.455512
	H362	H	0.277773	0.416820	0.460046
	O363	O	0.564697	0.324912	0.297629
	H364	H	0.551244	0.331718	0.296464
	H365	H	0.557587	0.327317	0.291148
	O366	O	0.817322	-0.026100	1.152465
	H367	H	0.823164	-0.023697	1.138499
	H368	H	0.806470	-0.012585	1.146765
	O369	O	0.001074	-0.051590	0.788354
	H370	H	0.005695	-0.072198	0.785790
	H371	H	0.013788	-0.060004	0.789855
	O372	O	0.080878	0.955959	0.909001
	H373	H	0.072749	0.956046	0.915644
	H374	H	0.082250	0.947558	0.913110
	O375	O	0.801582	-0.135012	0.201132
	H376	H	0.790288	-0.119838	0.188087
	H377	H	0.796837	-0.121766	0.185512
	O378	O	0.701546	0.289455	0.466293
	H379	H	0.709516	0.292904	0.444456
	H380	H	0.710679	0.280565	0.451037
	O381	O	0.295097	0.713419	0.469516
	H382	H	0.278718	0.725116	0.453920
	H383	H	0.294007	0.720642	0.432399
	O384	O	0.444048	0.536098	0.707262
	H385	H	0.443040	0.523980	0.711305
	H386	H	0.445728	0.533561	0.703528
	O387	O	-0.118069	0.916348	0.999389
	H388	H	-0.118839	0.913912	1.002123
	H389	H	-0.111855	0.911240	0.990018
	O390	O	-0.099593	1.134600	1.009712
	H391	H	-0.102003	1.137532	1.015573
	H392	H	-0.101080	1.122651	1.002881
	O393	O	1.013505	0.223807	0.060363
	H394	H	1.020490	0.217742	0.058029
	H395	H	1.003111	0.229391	0.063606
	O396	O	0.664790	0.663436	0.345817
	H397	H	0.655190	0.671918	0.354326
	H398	H	0.692572	0.652955	0.354623
	O399	O	0.519062	0.693564	0.709590
	H400	H	0.516604	0.703939	0.701513
	H401	H	0.510334	0.689433	0.710487
	O402	O	1.009719	0.000203	1.058806
	H403	H	0.999128	-0.001349	1.047946
	H404	H	1.010503	-0.000752	1.073437
	O405	O	0.582554	0.434876	0.691978
	H406	H	0.586213	0.433077	0.690513
	H407	H	0.583495	0.431474	0.696589
	O408	O	0.790759	1.026997	0.787840
	H409	H	0.797303	1.015805	0.765767
	H410	H	0.782405	1.017135	0.792792
	O411	O	0.891448	0.985935	-0.086087
	H412	H	0.886041	0.999708	-0.070163
	H413	H	0.897843	0.970145	-0.108661
	O414	O	0.208499	-0.206828	-0.044216
	H415	H	0.210984	-0.188669	-0.028235
	H416	H	0.229353	-0.211441	-0.025359
	O417	O	0.300925	0.304028	0.695735
	H418	H	0.283913	0.304676	0.687597
	H419	H	0.322275	0.303613	0.702975
	O420	O	1.146219	-0.125055	1.029130
	H421	H	1.145381	-0.104687	1.029033
	H422	H	1.147011	-0.120961	1.033875
	O423	O	1.160664	0.836761	0.128800
	H424	H	1.152164	0.865765	0.118178
	H425	H	1.153964	0.838207	0.140229
	O426	O	0.718413	0.718730	0.526305
	H427	H	0.741096	0.744124	0.522774
	H428	H	0.709346	0.715748	0.539106
	O429	O	0.987781	0.789986	0.181487
	H430	H	0.983665	0.768710	0.192697
	H431	H	0.981696	0.800170	0.165903
	O432	O	0.729746	0.265280	1.282999
	H433	H	0.720879	0.283210	1.268960
	H434	H	0.707895	0.273144	1.290998
	O435	O	0.329298	0.312913	0.322693
	H436	H	0.327630	0.304742	0.328018
	H437	H	0.334018	0.313510	0.319559
	O438	O	0.293700	0.531686	0.287995
	H439	H	0.304243	0.511801	0.295882
	H440	H	0.270998	0.512341	0.282190
	O441	O	0.311757	0.688507	0.691622
	H442	H	0.323062	0.663367	0.671477
	H443	H	0.338706	0.680045	0.672618
	O444	O	0.474261	0.422967	0.386682
	H445	H	0.478054	0.438777	0.399844
	H446	H	0.479876	0.423629	0.387833
	O447	O	0.485152	0.280831	0.412976
	H448	H	0.475069	0.292930	0.399607
	H449	H	0.486218	0.277366	0.419016
	O450	O	1.037202	-0.037919	0.217211
	H451	H	1.031907	-0.020992	0.223090
	H452	H	1.019543	-0.050420	0.219298
	O453	O	0.515416	0.345255	0.572592
	H454	H	0.526853	0.346638	0.561512
	H455	H	0.513584	0.347512	0.584989
	O456	O	0.004200	1.116686	1.124425
	H457	H	-0.003306	1.122380	1.117847
	H458	H	-0.007661	1.122668	1.120063
	O459	O	0.524360	0.548971	0.423568
	H460	H	0.513457	0.551802	0.431288
	H461	H	0.526084	0.566388	0.422094
	O462	O	0.610286	0.637553	0.311293
	H463	H	0.602783	0.616848	0.315534
	H464	H	0.627583	0.638611	0.313881
	O465	O	0.654766	0.397187	0.579770
	H466	H	0.641233	0.400082	0.566520
	H467	H	0.665835	0.385731	0.581176
	O468	O	-0.215174	0.784793	0.030701
	H469	H	-0.212766	0.768020	0.023627
	H470	H	-0.222942	0.782596	0.034221
	O471	O	0.474095	0.283014	0.718654
	H472	H	0.466183	0.273419	0.728242
	H473	H	0.481125	0.269776	0.720325
	O474	O	1.214070	0.968728	-0.216697
	H475	H	1.243375	0.949475	-0.244994
	H476	H	1.199151	0.932913	-0.215012
	O477	O	0.060068	0.090907	0.816163
	H478	H	0.059323	0.075224	0.825615
	H479	H	0.072308	0.078574	0.818974
