data_Molecule from HDF5

_cell_length_a		16.345946
_cell_length_b		16.247975
_cell_length_c		16.246566
_cell_angle_alpha	89.654731
_cell_angle_beta	89.900852
_cell_angle_gamma	89.974031
_symmetry_space_group_name_H-M	'P 1'
_symmetry_Int_Tables_number		1

loop_
	_symmetry_equiv_pos_as_xyz
	x,y,z

loop_
	_atom_site_label
	_atom_site_type_symbol
	_atom_site_fract_x
	_atom_site_fract_y
	_atom_site_fract_z
	H0	H	0.402793	0.838160	0.703996
	H1	H	0.601213	0.164433	0.701535
	H2	H	0.599951	0.837565	0.273136
	H3	H	0.399665	0.163709	0.268904
	H4	H	0.721623	0.399929	0.828833
	H5	H	0.715018	0.599542	0.154732
	H6	H	0.283882	0.602793	0.827336
	H7	H	0.286057	0.398569	0.153210
	H8	H	0.838503	0.717575	0.391902
	H9	H	0.164547	0.718693	0.591943
	H10	H	0.839624	0.284370	0.593698
	H11	H	0.165035	0.287752	0.392714
	H12	H	0.839936	0.400136	0.709376
	H13	H	0.165076	0.600906	0.707660
	H14	H	0.839437	0.603529	0.275164
	H15	H	0.164446	0.402787	0.275369
	H16	H	0.403924	0.713987	0.824292
	H17	H	0.599944	0.716524	0.152613
	H18	H	0.601317	0.289604	0.824782
	H19	H	0.399995	0.280662	0.150872
	H20	H	0.719785	0.839531	0.385576
	H21	H	0.715578	0.165889	0.586198
	H22	H	0.286344	0.837795	0.589220
	H23	H	0.284178	0.163678	0.384048
	H24	H	0.901342	0.338956	0.210368
	H25	H	0.099561	0.666153	0.204572
	H26	H	0.102012	0.337819	0.777665
	H27	H	0.900469	0.663351	0.774393
	H28	H	0.218332	0.898941	0.326024
	H29	H	0.219481	0.101609	0.651646
	H30	H	0.785470	0.106491	0.325727
	H31	H	0.784097	0.901864	0.651742
	H32	H	0.340563	0.221141	0.882842
	H33	H	0.663532	0.216102	0.086781
	H34	H	0.337900	0.784856	0.087570
	H35	H	0.664395	0.784260	0.886878
	H36	H	0.339338	0.897955	0.205646
	H37	H	0.661732	0.103147	0.204262
	H38	H	0.339549	0.101234	0.770462
	H39	H	0.665672	0.904046	0.773248
	H40	H	0.902166	0.221859	0.328022
	H41	H	0.100132	0.212836	0.654561
	H42	H	0.101168	0.785324	0.326823
	H43	H	0.902162	0.788011	0.653646
	H44	H	0.219377	0.339071	0.889572
	H45	H	0.218791	0.664317	0.091537
	H46	H	0.784570	0.338616	0.097017
	H47	H	0.786326	0.663988	0.891337
	H48	H	0.406259	0.120108	0.584957
	H49	H	0.595753	0.884402	0.579295
	H50	H	0.592395	0.115515	0.401369
	H51	H	0.401351	0.880207	0.389563
	H52	H	0.593029	0.408126	0.106630
	H53	H	0.586621	0.593987	0.875682
	H54	H	0.417774	0.592732	0.103361
	H55	H	0.409079	0.418522	0.875226
	H56	H	0.118476	0.590227	0.392131
	H57	H	0.888187	0.590672	0.582387
	H58	H	0.115064	0.409001	0.576714
	H59	H	0.887276	0.417129	0.397647
	H60	H	0.117352	0.414209	0.590631
	H61	H	0.886180	0.594388	0.588295
	H62	H	0.119119	0.602034	0.399437
	H63	H	0.884625	0.405759	0.398615
	H64	H	0.406244	0.599939	0.109498
	H65	H	0.602451	0.600385	0.869297
	H66	H	0.591714	0.407727	0.106150
	H67	H	0.415859	0.410116	0.874872
	H68	H	0.599408	0.120216	0.392215
	H69	H	0.593037	0.884422	0.580475
	H70	H	0.416490	0.115045	0.577428
	H71	H	0.418663	0.888152	0.393590
	H72	H	0.904166	0.616859	0.079386
	H73	H	0.086135	0.389453	0.081181
	H74	H	0.095597	0.618030	0.900333
	H75	H	0.913269	0.385321	0.899804
	H76	H	0.092459	0.912536	0.603766
	H77	H	0.094856	0.091529	0.374307
	H78	H	0.908807	0.098297	0.607465
	H79	H	0.915982	0.902836	0.372645
	H80	H	0.617362	0.095642	0.895065
	H81	H	0.385039	0.092285	0.078329
	H82	H	0.615987	0.909345	0.077946
	H83	H	0.387282	0.905423	0.899530
	H84	H	0.616443	0.909088	0.079578
	H85	H	0.386333	0.091645	0.074219
	H86	H	0.617867	0.093261	0.891768
	H87	H	0.388506	0.914514	0.894489
	H88	H	0.900883	0.088691	0.606875
	H89	H	0.089487	0.095823	0.374472
	H90	H	0.094052	0.907622	0.605529
	H91	H	0.900959	0.909360	0.369479
	H92	H	0.091334	0.618042	0.897897
	H93	H	0.100710	0.385034	0.078116
	H94	H	0.906549	0.619433	0.087799
	H95	H	0.911033	0.385524	0.905542
	H96	H	0.404316	0.117220	0.572316
	H97	H	0.593630	0.886353	0.577768
	H98	H	0.587920	0.117434	0.390016
	H99	H	0.405173	0.887456	0.407883
	H100	H	0.592866	0.406452	0.106294
	H101	H	0.600861	0.583185	0.875520
	H102	H	0.404514	0.585640	0.105150
	H103	H	0.404947	0.409757	0.871500
	H104	H	0.113847	0.590414	0.405551
	H105	H	0.886148	0.596818	0.581965
	H106	H	0.120437	0.399415	0.587485
	H107	H	0.889223	0.411587	0.408023
	H108	H	0.912790	0.616290	0.082619
	H109	H	0.095111	0.382004	0.092976
	H110	H	0.092198	0.616081	0.902910
	H111	H	0.907480	0.383303	0.901159
	H112	H	0.097070	0.911312	0.606165
	H113	H	0.095484	0.098122	0.371658
	H114	H	0.912605	0.087616	0.602810
	H115	H	0.912607	0.919013	0.376608
	H116	H	0.618849	0.097206	0.891518
	H117	H	0.387518	0.088949	0.077140
	H118	H	0.616285	0.907532	0.079205
	H119	H	0.384105	0.906006	0.889807
	C120	C	0.380041	0.009834	0.608833
	C121	C	0.622867	0.993194	0.608080
	C122	C	0.623199	0.010021	0.365054
	C123	C	0.378957	0.992650	0.365757
	C124	C	0.623140	0.379375	-0.001501
	C125	C	0.624259	0.622218	0.981547
	C126	C	0.380312	0.622239	-0.002305
	C127	C	0.379971	0.380137	0.981031
	C128	C	0.009939	0.623944	0.369802
	C129	C	0.994027	0.623422	0.613565
	C130	C	0.010414	0.378088	0.614890
	C131	C	0.994315	0.381542	0.370873
	C132	C	0.878701	0.509960	0.114480
	C133	C	0.123246	0.493106	0.112873
	C134	C	0.122819	0.509832	0.870759
	C135	C	0.880835	0.492258	0.871452
	C136	C	0.123190	0.880565	0.497588
	C137	C	0.123287	0.123302	0.481216
	C138	C	0.879422	0.123077	0.497516
	C139	C	0.879725	0.880859	0.480793
	C140	C	0.510520	0.124502	0.863562
	C141	C	0.492914	0.121251	0.107115
	C142	C	0.509211	0.878612	0.109218
	C143	C	0.493780	0.879217	0.865145
	C144	C	0.382159	0.886892	0.665700
	C145	C	0.620867	0.116051	0.663357
	C146	C	0.620977	0.886801	0.310331
	C147	C	0.380275	0.115093	0.307773
	C148	C	0.681682	0.380981	0.876617
	C149	C	0.677942	0.620335	0.105249
	C150	C	0.323539	0.621476	0.875335
	C151	C	0.324134	0.379396	0.103826
	C152	C	0.887432	0.679984	0.371483
	C153	C	0.116043	0.679977	0.611804
	C154	C	0.888334	0.322395	0.613491
	C155	C	0.116227	0.325545	0.372523
	C156	C	0.888412	0.380137	0.671197
	C157	C	0.116400	0.621329	0.669587
	C158	C	0.887838	0.622931	0.313603
	C159	C	0.116144	0.383080	0.314177
	C160	C	0.383127	0.676722	0.873884
	C161	C	0.620631	0.678343	0.104229
	C162	C	0.622149	0.325914	0.874524
	C163	C	0.380739	0.320383	0.102525
	C164	C	0.680671	0.888102	0.366015
	C165	C	0.678104	0.116530	0.605999
	C166	C	0.324231	0.886864	0.608599
	C167	C	0.322848	0.115034	0.365208
	C168	C	0.881228	0.387558	0.171859
	C169	C	0.120756	0.616883	0.167496
	C170	C	0.121897	0.386867	0.815163
	C171	C	0.881211	0.614792	0.813469
	C172	C	0.179553	0.880405	0.374806
	C173	C	0.180309	0.120852	0.603460
	C174	C	0.824058	0.124794	0.374774
	C175	C	0.822919	0.882042	0.603328
	C176	C	0.388865	0.181749	0.863996
	C177	C	0.614733	0.177966	0.106326
	C178	C	0.386923	0.822410	0.107865
	C179	C	0.615877	0.822798	0.866892
	C180	C	0.387553	0.878818	0.166547
	C181	C	0.614043	0.121218	0.164669
	C182	C	0.388360	0.122176	0.807879
	C183	C	0.616770	0.882460	0.810521
	C184	C	0.881918	0.182271	0.375922
	C185	C	0.121438	0.176625	0.605032
	C186	C	0.121240	0.823848	0.375159
	C187	C	0.881726	0.825644	0.604327
	C188	C	0.180245	0.387466	0.870920
	C189	C	0.180105	0.615919	0.111511
	C190	C	0.822640	0.387680	0.115641
	C191	C	0.824379	0.614905	0.871818
	C192	C	0.402474	0.095393	0.585194
	C193	C	0.600613	0.907265	0.585702
	C194	C	0.599891	0.095561	0.387591
	C195	C	0.401660	0.907309	0.389918
	C196	C	0.599531	0.401009	0.084031
	C197	C	0.602954	0.599380	0.895888
	C198	C	0.402854	0.599390	0.083672
	C199	C	0.403141	0.405383	0.895903
	C200	C	0.095089	0.600943	0.392466
	C201	C	0.908831	0.600650	0.590824
	C202	C	0.095736	0.400995	0.591908
	C203	C	0.908936	0.404658	0.394467
	C204	C	0.901068	0.595449	0.090205
	C205	C	0.100651	0.407791	0.090653
	C206	C	0.099817	0.595154	0.893679
	C207	C	0.903886	0.406923	0.895276
	C208	C	0.101082	0.903794	0.582900
	C209	C	0.100160	0.101615	0.395668
	C210	C	0.901110	0.098555	0.583433
	C211	C	0.902971	0.903601	0.395050
	C212	C	0.595819	0.101952	0.886248
	C213	C	0.408283	0.097680	0.083377
	C214	C	0.594195	0.901884	0.085759
	C215	C	0.408721	0.901900	0.887906
	Zn216	Zn	0.502213	0.000913	0.736428
	Zn217	Zn	0.500610	0.000750	0.237265
	Zn218	Zn	0.751783	0.499882	-0.008134
	Zn219	Zn	0.251194	0.501749	-0.009285
	Zn220	Zn	0.001383	0.752407	0.490418
	Zn221	Zn	0.001882	0.250943	0.491929
	Zn222	Zn	0.002475	0.500861	0.742800
	Zn223	Zn	0.002017	0.502617	0.241140
	Zn224	Zn	0.501408	0.750337	-0.011824
	Zn225	Zn	0.501584	0.251298	-0.012869
	Zn226	Zn	0.751139	0.002153	0.487804
	Zn227	Zn	0.251361	0.001763	0.487878
	N228	N	0.415959	0.964282	0.666122
	N229	N	0.587075	0.038397	0.664582
	N230	N	0.585946	0.963823	0.309506
	N231	N	0.414501	0.037826	0.307977
	N232	N	0.682584	0.413230	0.954727
	N233	N	0.680315	0.586219	0.028104
	N234	N	0.321534	0.588509	0.953589
	N235	N	0.323459	0.415886	0.027184
	N236	N	0.964411	0.680912	0.405519
	N237	N	0.038987	0.681288	0.577834
	N238	N	0.965244	0.321110	0.579190
	N239	N	0.039185	0.324573	0.407018
	N240	N	0.965493	0.414004	0.672232
	N241	N	0.039369	0.587000	0.670963
	N242	N	0.965020	0.588964	0.312330
	N243	N	0.039157	0.417305	0.313305
	N244	N	0.417710	0.677122	0.950868
	N245	N	0.588034	0.679745	0.026154
	N246	N	0.586315	0.324815	0.951269
	N247	N	0.414799	0.321091	0.025028
	N248	N	0.682011	0.965688	0.399199
	N249	N	0.679341	0.039065	0.572381
	N250	N	0.322925	0.964268	0.573793
	N251	N	0.321881	0.038029	0.400447
	N252	N	0.915445	0.464689	0.171368
	N253	N	0.085895	0.539838	0.168358
	N254	N	0.086742	0.463916	0.814803
	N255	N	0.915594	0.537545	0.812954
	N256	N	0.180984	0.914955	0.451795
	N257	N	0.181582	0.088583	0.525310
	N258	N	0.822754	0.088723	0.451418
	N259	N	0.821556	0.915601	0.525489
	N260	N	0.465837	0.183271	0.897826
	N261	N	0.538338	0.177935	0.071085
	N262	N	0.463634	0.822080	0.072834
	N263	N	0.538544	0.820713	0.900297
	N264	N	0.464530	0.913123	0.167562
	N265	N	0.537157	0.086838	0.165581
	N266	N	0.465178	0.087397	0.807423
	N267	N	0.539772	0.916491	0.809090
	N268	N	0.916021	0.180952	0.453351
	N269	N	0.086596	0.178294	0.528164
	N270	N	0.086688	0.823990	0.452321
	N271	N	0.916480	0.824896	0.527134
	N272	N	0.180950	0.464836	0.904752
	N273	N	0.181800	0.538275	0.078233
	N274	N	0.820902	0.464909	0.080699
	N275	N	0.824208	0.537742	0.907199
	O276	O	1.079403	-0.029929	1.094283
	H277	H	1.085671	-0.031321	1.083450
	H278	H	1.076670	-0.035099	1.101233
	O279	O	0.657639	0.484732	0.414342
	H280	H	0.664961	0.477496	0.419094
	H281	H	0.655300	0.486953	0.418697
	O282	O	0.448396	0.545022	0.394334
	H283	H	0.443157	0.537999	0.393360
	H284	H	0.450372	0.547723	0.391754
	O285	O	0.455101	0.538465	0.550017
	H286	H	0.458532	0.541372	0.551811
	H287	H	0.461485	0.547178	0.544256
	O288	O	0.467082	0.354961	0.519041
	H289	H	0.466772	0.350852	0.535889
	H290	H	0.469656	0.358992	0.529121
	O291	O	0.002186	-0.010752	0.963760
	H292	H	0.006559	-0.012957	0.954036
	H293	H	0.001501	-0.006447	0.954886
	O294	O	1.065207	0.940505	-0.127655
	H295	H	1.068525	0.934554	-0.122967
	H296	H	1.069840	0.930533	-0.133284
	O297	O	0.967630	0.895042	0.050373
	H298	H	0.987858	0.891578	0.048623
	H299	H	0.969601	0.889570	0.060289
	O300	O	0.479411	0.543743	0.461220
	H301	H	0.482725	0.542228	0.460137
	H302	H	0.478075	0.546742	0.465619
	O303	O	0.402331	0.417039	0.511932
	H304	H	0.396121	0.417632	0.510301
	H305	H	0.404909	0.420154	0.515730
	O306	O	0.120310	1.097509	1.120516
	H307	H	0.119783	1.106307	1.125152
	H308	H	0.112749	1.095178	1.125318
	O309	O	0.465776	0.495468	0.468396
	H310	H	0.455691	0.488981	0.462774
	H311	H	0.469149	0.494917	0.485587
	O312	O	1.063964	0.980849	0.908350
	H313	H	1.067514	0.979856	0.915261
	H314	H	1.064326	0.983086	0.909304
	O315	O	0.873099	0.949143	-0.043426
	H316	H	0.885997	0.961954	-0.047185
	H317	H	0.874605	0.959000	-0.044219
	O318	O	1.062002	-0.050956	1.151100
	H319	H	1.036755	-0.042952	1.136414
	H320	H	1.069508	-0.061401	1.169561
	O321	O	0.473996	0.482788	0.389035
	H322	H	0.467351	0.479196	0.391990
	H323	H	0.471984	0.480903	0.391896
	O324	O	0.129262	0.951710	0.992470
	H325	H	0.127460	0.959190	0.978825
	H326	H	0.126522	0.950353	0.988663
	O327	O	0.112425	1.062179	1.048410
	H328	H	0.108321	1.052251	1.058686
	H329	H	0.119760	1.073707	1.058697
	O330	O	-0.476491	-0.535145	-0.396467
	H331	H	-0.475049	-0.538865	-0.394538
	H332	H	-0.482363	-0.537804	-0.403493
	O333	O	0.565516	0.545162	0.484114
	H334	H	0.561628	0.548171	0.487142
	H335	H	0.569148	0.544884	0.472391
	O336	O	-0.018913	0.032061	0.073800
	H337	H	-0.028400	0.030921	0.063687
	H338	H	-0.026625	0.030399	0.078408
	O339	O	-0.024439	0.108937	-0.064753
	H340	H	-0.033228	0.129806	-0.054440
	H341	H	-0.016682	0.095887	-0.054461
	O342	O	0.757083	0.066951	0.806237
	H343	H	0.760538	0.063096	0.818058
	H344	H	0.759158	0.066606	0.817900
	O345	O	-0.049114	1.001299	0.929997
	H346	H	-0.044769	0.987757	0.934544
	H347	H	-0.049200	0.987687	0.925451
	O348	O	0.454593	0.550650	0.464971
	H349	H	0.449070	0.544681	0.466457
	H350	H	0.443274	0.562702	0.456320
	O351	O	0.441920	0.579360	0.434089
	H352	H	0.457031	0.570262	0.432117
	H353	H	0.427646	0.583778	0.427458
	O354	O	-0.449695	1.574972	0.481032
	H355	H	-0.457025	1.574523	0.476128
	H356	H	-0.444705	1.577418	0.474347
	O357	O	0.612512	0.605000	0.551424
	H358	H	0.627760	0.607172	0.551718
	H359	H	0.607170	0.600584	0.560101
	O360	O	1.019882	0.029926	0.945385
	H361	H	1.016466	0.031502	0.935978
	H362	H	1.014172	0.043208	0.954021
	O363	O	0.516814	0.371103	0.500950
	H364	H	0.524328	0.379475	0.501674
	H365	H	0.519995	0.361399	0.489631
	O366	O	0.472542	0.597108	0.511034
	H367	H	0.483231	0.597529	0.512490
	H368	H	0.468138	0.601599	0.500172
	O369	O	0.984658	0.103089	0.044102
	H370	H	0.976414	0.096057	0.042527
	H371	H	0.968814	0.094173	0.042724
	O372	O	0.526214	0.462418	0.486089
	H373	H	0.515552	0.455465	0.480997
	H374	H	0.527910	0.476634	0.488739
	O375	O	0.954228	-0.024949	1.065374
	H376	H	0.968426	-0.028856	1.055316
	H377	H	0.951072	-0.028880	1.065225
	O378	O	-0.061375	0.943732	0.012133
	H379	H	-0.053795	0.941551	0.018827
	H380	H	-0.050437	0.933990	0.013747
	O381	O	-0.102186	1.099907	0.948276
	H382	H	-0.119380	1.092723	0.949404
	H383	H	-0.087544	1.109024	0.955936
	O384	O	1.035377	0.943625	-0.041378
	H385	H	1.033522	0.939356	-0.029305
	H386	H	1.039654	0.961455	-0.045289
	O387	O	0.891329	0.141755	0.925709
	H388	H	0.892405	0.140496	0.926164
	H389	H	0.883805	0.132530	0.918634
	O390	O	1.010683	0.849950	-0.020177
	H391	H	1.005393	0.851239	-0.020063
	H392	H	0.994157	0.846357	-0.021512
	O393	O	0.529671	0.490460	0.628554
	H394	H	0.535306	0.500290	0.632581
	H395	H	0.535029	0.483119	0.629467
