data_Molecule from HDF5

_cell_length_a		16.246577
_cell_length_b		16.360330
_cell_length_c		16.316784
_cell_angle_alpha	89.931660
_cell_angle_beta	89.922521
_cell_angle_gamma	90.088018
_symmetry_space_group_name_H-M	'P 1'
_symmetry_Int_Tables_number		1

loop_
	_symmetry_equiv_pos_as_xyz
	x,y,z

loop_
	_atom_site_label
	_atom_site_type_symbol
	_atom_site_fract_x
	_atom_site_fract_y
	_atom_site_fract_z
	H0	H	0.415009	0.859268	0.716406
	H1	H	0.615533	0.185030	0.714808
	H2	H	0.614810	0.858430	0.286192
	H3	H	0.416823	0.183899	0.284230
	H4	H	0.730104	0.423838	0.837383
	H5	H	0.729278	0.618316	0.164297
	H6	H	0.301286	0.619135	0.837174
	H7	H	0.300428	0.422904	0.164172
	H8	H	0.853059	0.736843	0.400451
	H9	H	0.179511	0.737493	0.601332
	H10	H	0.853118	0.305341	0.600039
	H11	H	0.180909	0.308447	0.402651
	H12	H	0.851810	0.422770	0.714416
	H13	H	0.179910	0.619894	0.715418
	H14	H	0.851744	0.619296	0.287447
	H15	H	0.179795	0.423147	0.285544
	H16	H	0.416190	0.736540	0.837762
	H17	H	0.615091	0.736694	0.163571
	H18	H	0.615732	0.306187	0.837429
	H19	H	0.414998	0.303870	0.163072
	H20	H	0.730137	0.858425	0.402811
	H21	H	0.731358	0.184934	0.597772
	H22	H	0.300909	0.858979	0.598648
	H23	H	0.303150	0.185602	0.403327
	H24	H	0.916269	0.358541	0.216942
	H25	H	0.113920	0.684319	0.215325
	H26	H	0.114349	0.358111	0.786609
	H27	H	0.916939	0.683165	0.784782
	H28	H	0.229834	0.924840	0.336690
	H29	H	0.229583	0.118445	0.664376
	H30	H	0.803784	0.118723	0.336504
	H31	H	0.801235	0.924350	0.664112
	H32	H	0.351796	0.236054	0.901313
	H33	H	0.679689	0.235904	0.098289
	H34	H	0.351303	0.806703	0.099202
	H35	H	0.679733	0.806845	0.901825
	H36	H	0.352407	0.922088	0.215414
	H37	H	0.680525	0.118085	0.212595
	H38	H	0.351407	0.118226	0.786771
	H39	H	0.680068	0.923633	0.785713
	H40	H	0.917276	0.238179	0.337989
	H41	H	0.115363	0.236707	0.664238
	H42	H	0.116145	0.805315	0.338202
	H43	H	0.915863	0.805661	0.663987
	H44	H	0.229759	0.358006	0.903345
	H45	H	0.230005	0.684309	0.098749
	H46	H	0.801163	0.357896	0.098859
	H47	H	0.801968	0.684182	0.902839
	H48	H	0.424064	0.136144	0.590438
	H49	H	0.603193	0.906768	0.596217
	H50	H	0.611678	0.137021	0.408717
	H51	H	0.413215	0.901372	0.401616
	H52	H	0.606551	0.423472	0.117485
	H53	H	0.605976	0.606650	0.887938
	H54	H	0.418386	0.612047	0.117437
	H55	H	0.419753	0.431429	0.884695
	H56	H	0.131027	0.609608	0.409588
	H57	H	0.900574	0.609839	0.593404
	H58	H	0.134708	0.425517	0.597582
	H59	H	0.896304	0.414119	0.410374
	H60	H	0.132346	0.426647	0.589877
	H61	H	0.899115	0.615845	0.594851
	H62	H	0.133706	0.615074	0.404115
	H63	H	0.905490	0.434917	0.421194
	H64	H	0.426688	0.611387	0.114805
	H65	H	0.602243	0.621407	0.884073
	H66	H	0.612259	0.427572	0.118078
	H67	H	0.427311	0.429577	0.886488
	H68	H	0.610525	0.137857	0.403193
	H69	H	0.608039	0.908562	0.587962
	H70	H	0.419336	0.139457	0.593632
	H71	H	0.434598	0.908408	0.401851
	H72	H	0.924903	0.635125	0.091352
	H73	H	0.099767	0.406052	0.099714
	H74	H	0.106545	0.635755	0.908205
	H75	H	0.913403	0.402507	0.908079
	H76	H	0.105635	0.928398	0.616223
	H77	H	0.111488	0.123633	0.382103
	H78	H	0.921821	0.106583	0.615262
	H79	H	0.926362	0.929505	0.386438
	H80	H	0.632451	0.114077	0.906568
	H81	H	0.403382	0.109841	0.085703
	H82	H	0.634419	0.924776	0.097409
	H83	H	0.400598	0.935045	0.905007
	H84	H	0.631625	0.925569	0.088405
	H85	H	0.397938	0.109475	0.100880
	H86	H	0.632226	0.115187	0.907732
	H87	H	0.396133	0.922821	0.902451
	H88	H	0.930139	0.117160	0.614594
	H89	H	0.114736	0.110771	0.384036
	H90	H	0.109446	0.925701	0.617289
	H91	H	0.924593	0.924125	0.384105
	H92	H	0.110852	0.636909	0.908518
	H93	H	0.108307	0.407941	0.085050
	H94	H	0.917786	0.638921	0.094106
	H95	H	0.927761	0.404029	0.898991
	H96	H	0.425631	0.137778	0.596673
	H97	H	0.612719	0.905222	0.595800
	H98	H	0.606203	0.136609	0.406946
	H99	H	0.421798	0.908983	0.420460
	H100	H	0.605796	0.430229	0.115237
	H101	H	0.616403	0.616004	0.881777
	H102	H	0.423307	0.619413	0.117235
	H103	H	0.422070	0.424322	0.883057
	H104	H	0.132436	0.617567	0.411334
	H105	H	0.901143	0.613870	0.589611
	H106	H	0.132085	0.433185	0.594716
	H107	H	0.898084	0.435427	0.396819
	H108	H	0.924746	0.637110	0.099167
	H109	H	0.115981	0.401618	0.098982
	H110	H	0.108656	0.638182	0.904704
	H111	H	0.927544	0.408426	0.915424
	H112	H	0.110213	0.930094	0.616052
	H113	H	0.102484	0.114988	0.387026
	H114	H	0.917747	0.118667	0.619165
	H115	H	0.920436	0.928469	0.383627
	H116	H	0.632284	0.114307	0.907786
	H117	H	0.397174	0.122849	0.092272
	H118	H	0.630748	0.933108	0.093660
	H119	H	0.401232	0.926226	0.914415
	C120	C	0.394015	0.030068	0.622162
	C121	C	0.637214	1.014349	0.621724
	C122	C	0.637904	0.029490	0.378297
	C123	C	0.394538	1.013597	0.379026
	C124	C	0.637410	0.398977	0.009003
	C125	C	0.636955	0.642908	0.992482
	C126	C	0.394040	0.642503	0.008824
	C127	C	0.394064	0.399476	0.992436
	C128	C	0.024213	0.642669	0.379813
	C129	C	1.008318	0.642389	0.621916
	C130	C	0.024644	0.399816	0.622426
	C131	C	1.008149	0.400364	0.380419
	C132	C	0.893697	0.529484	0.123259
	C133	C	0.137104	0.512945	0.122740
	C134	C	0.137246	0.529225	0.878837
	C135	C	0.894236	0.512433	0.878641
	C136	C	0.137438	0.899939	0.508837
	C137	C	0.138003	0.143846	0.492509
	C138	C	0.894874	0.143009	0.508581
	C139	C	0.894563	0.899219	0.492547
	C140	C	0.523877	0.142728	0.879024
	C141	C	0.507692	0.142325	0.121208
	C142	C	0.524112	0.899391	0.121707
	C143	C	0.507658	0.899540	0.878666
	C144	C	0.395714	0.907765	0.677868
	C145	C	0.635770	0.136451	0.676711
	C146	C	0.635581	0.907277	0.323503
	C147	C	0.396797	0.135733	0.323039
	C148	C	0.692901	0.402270	0.886241
	C149	C	0.691412	0.639213	0.115452
	C150	C	0.338900	0.639975	0.886030
	C151	C	0.338696	0.402303	0.115494
	C152	C	0.901545	0.698118	0.381386
	C153	C	0.131004	0.698460	0.620464
	C154	C	0.901682	0.343957	0.620380
	C155	C	0.131831	0.345886	0.382208
	C156	C	0.901159	0.401920	0.677405
	C157	C	0.131067	0.640426	0.677548
	C158	C	0.900945	0.639685	0.325094
	C159	C	0.131366	0.403153	0.324509
	C160	C	0.396068	0.698293	0.886242
	C161	C	0.634819	0.698255	0.114980
	C162	C	0.635699	0.344040	0.886277
	C163	C	0.395627	0.343423	0.115071
	C164	C	0.693144	0.907260	0.381386
	C165	C	0.693174	0.136430	0.618300
	C166	C	0.338615	0.907588	0.619628
	C167	C	0.340133	0.136562	0.381804
	C168	C	0.895590	0.407027	0.178968
	C169	C	0.134891	0.635561	0.177707
	C170	C	0.134884	0.406776	0.824124
	C171	C	0.896443	0.634867	0.823054
	C172	C	0.192703	0.903265	0.385739
	C173	C	0.192214	0.139740	0.615648
	C174	C	0.840712	0.140048	0.385569
	C175	C	0.839078	0.902773	0.615403
	C176	C	0.400508	0.197630	0.881240
	C177	C	0.631126	0.197334	0.118698
	C178	C	0.400413	0.844591	0.119145
	C179	C	0.630867	0.844580	0.880978
	C180	C	0.400919	0.901571	0.177133
	C181	C	0.631244	0.139278	0.175701
	C182	C	0.400311	0.139457	0.824236
	C183	C	0.631140	0.902939	0.823645
	C184	C	0.897608	0.198893	0.386176
	C185	C	0.135739	0.198396	0.615613
	C186	C	0.136163	0.844139	0.386315
	C187	C	0.896208	0.844034	0.615342
	C188	C	0.192130	0.406630	0.882295
	C189	C	0.191965	0.635658	0.119255
	C190	C	0.838611	0.406636	0.120320
	C191	C	0.839999	0.635427	0.882126
	C192	C	0.416337	0.115543	0.600127
	C193	C	0.614406	0.928766	0.599861
	C194	C	0.615741	0.115145	0.399904
	C195	C	0.416661	0.928433	0.401434
	C196	C	0.614715	0.420643	0.094800
	C197	C	0.614761	0.621012	0.906724
	C198	C	0.416116	0.620685	0.094441
	C199	C	0.416393	0.421789	0.907016
	C200	C	0.110397	0.620537	0.401956
	C201	C	0.922258	0.619783	0.599334
	C202	C	0.110767	0.422149	0.600585
	C203	C	0.922196	0.421898	0.402841
	C204	C	0.915813	0.614918	0.101290
	C205	C	0.114670	0.427281	0.101046
	C206	C	0.115091	0.614870	0.900518
	C207	C	0.916454	0.427113	0.900852
	C208	C	0.115204	0.921657	0.594406
	C209	C	0.115952	0.122776	0.406581
	C210	C	0.916905	0.120821	0.594250
	C211	C	0.917102	0.920906	0.406730
	C212	C	0.610084	0.121033	0.901036
	C213	C	0.421699	0.120400	0.099224
	C214	C	0.610095	0.921324	0.099556
	C215	C	0.421556	0.921586	0.900730
	Zn216	Zn	0.515801	0.021980	0.750422
	Zn217	Zn	0.516041	0.020967	0.249709
	Zn218	Zn	0.765326	0.521022	0.000819
	Zn219	Zn	0.265138	0.521128	0.000848
	Zn220	Zn	0.016540	0.770885	0.500712
	Zn221	Zn	0.016819	0.271629	0.501204
	Zn222	Zn	0.016113	0.521023	0.750017
	Zn223	Zn	0.015865	0.521296	0.251725
	Zn224	Zn	0.515399	0.771319	0.000518
	Zn225	Zn	0.515366	0.270882	0.000178
	Zn226	Zn	0.766326	0.021523	0.499814
	Zn227	Zn	0.265772	0.022117	0.500501
	N228	N	0.429482	0.985052	0.679558
	N229	N	0.601901	0.059510	0.678810
	N230	N	0.601839	0.984292	0.321664
	N231	N	0.430151	0.058393	0.321183
	N232	N	0.693809	0.435879	0.963453
	N233	N	0.693032	0.605692	0.038138
	N234	N	0.337558	0.605976	0.963209
	N235	N	0.337719	0.436505	0.038369
	N236	N	0.979053	0.699730	0.415106
	N237	N	0.053620	0.699636	0.586539
	N238	N	0.979386	0.342389	0.587128
	N239	N	0.054436	0.344136	0.416555
	N240	N	0.978576	0.436143	0.678596
	N241	N	0.053582	0.606077	0.678284
	N242	N	0.978385	0.605749	0.324082
	N243	N	0.053502	0.436058	0.323089
	N244	N	0.429674	0.699951	0.963636
	N245	N	0.601418	0.700359	0.037503
	N246	N	0.601679	0.342057	0.963678
	N247	N	0.429241	0.341495	0.037747
	N248	N	0.694674	0.984344	0.414743
	N249	N	0.694081	0.059270	0.584733
	N250	N	0.337685	0.984437	0.585470
	N251	N	0.338668	0.059750	0.416028
	N252	N	0.929228	0.484322	0.180921
	N253	N	0.101320	0.558226	0.179761
	N254	N	0.101534	0.484041	0.821889
	N255	N	0.929433	0.557486	0.820750
	N256	N	0.193711	0.937087	0.462941
	N257	N	0.193400	0.106301	0.538320
	N258	N	0.839298	0.105851	0.462556
	N259	N	0.837962	0.936384	0.538162
	N260	N	0.478373	0.199762	0.914346
	N261	N	0.553398	0.199583	0.085607
	N262	N	0.478167	0.842998	0.085603
	N263	N	0.553189	0.842554	0.914452
	N264	N	0.478462	0.935112	0.178708
	N265	N	0.553432	0.105815	0.177478
	N266	N	0.478079	0.106244	0.822541
	N267	N	0.553371	0.936174	0.821757
	N268	N	0.930382	0.201105	0.463823
	N269	N	0.102708	0.201100	0.538072
	N270	N	0.102422	0.842134	0.463610
	N271	N	0.929896	0.841849	0.537900
	N272	N	0.193581	0.483805	0.915663
	N273	N	0.193415	0.558441	0.085912
	N274	N	0.837335	0.483681	0.086396
	N275	N	0.838339	0.558300	0.915866
	O276	O	-0.425356	-0.439217	0.526746
	H277	H	-0.428292	-0.433891	0.523745
	H278	H	-0.430865	-0.434721	0.524244
	O279	O	0.521330	-0.453522	0.537344
	H280	H	0.533093	-0.450390	0.549100
	H281	H	0.520018	-0.464771	0.542357
	O282	O	0.513778	0.591542	0.553230
	H283	H	0.515984	0.601639	0.563769
	H284	H	0.522161	0.590454	0.555527
	O285	O	-0.474113	-0.399323	0.464957
	H286	H	-0.477150	-0.400858	0.466714
	H287	H	-0.476583	-0.399805	0.461380
	O288	O	0.565136	0.578844	0.529056
	H289	H	0.572935	0.574949	0.526021
	H290	H	0.568908	0.576489	0.528406
	O291	O	-0.450710	0.581724	0.532342
	H292	H	-0.459160	0.578815	0.527901
	H293	H	-0.448362	0.582684	0.528257
	O294	O	0.476360	0.581917	0.524139
	H295	H	0.481115	0.585503	0.526907
	H296	H	0.478752	0.592175	0.526989
	O297	O	0.526437	-0.458966	0.535549
	H298	H	0.524441	-0.465481	0.528589
	H299	H	0.511653	-0.454816	0.528411
