data_Molecule from HDF5

_cell_length_a		16.300880
_cell_length_b		16.315271
_cell_length_c		16.341734
_cell_angle_alpha	90.036151
_cell_angle_beta	89.993891
_cell_angle_gamma	89.938763
_symmetry_space_group_name_H-M	'P 1'
_symmetry_Int_Tables_number		1

loop_
	_symmetry_equiv_pos_as_xyz
	x,y,z

loop_
	_atom_site_label
	_atom_site_type_symbol
	_atom_site_fract_x
	_atom_site_fract_y
	_atom_site_fract_z
	H0	H	0.403289	0.831826	0.711209
	H1	H	0.599768	0.159502	0.711199
	H2	H	0.599930	0.832660	0.281148
	H3	H	0.404848	0.159560	0.283213
	H4	H	0.714601	0.398707	0.833503
	H5	H	0.714260	0.593465	0.160908
	H6	H	0.285231	0.593916	0.833663
	H7	H	0.287442	0.398406	0.160889
	H8	H	0.837445	0.708377	0.400143
	H9	H	0.165594	0.709442	0.595424
	H10	H	0.837250	0.282230	0.594432
	H11	H	0.165246	0.281611	0.400347
	H12	H	0.837586	0.397396	0.711227
	H13	H	0.165276	0.593052	0.712156
	H14	H	0.838409	0.592502	0.282806
	H15	H	0.164824	0.395952	0.282323
	H16	H	0.401834	0.711070	0.833772
	H17	H	0.597269	0.709297	0.160642
	H18	H	0.599149	0.281550	0.833335
	H19	H	0.403532	0.281832	0.160223
	H20	H	0.714664	0.831356	0.399825
	H21	H	0.716360	0.159415	0.594156
	H22	H	0.288431	0.830965	0.593695
	H23	H	0.288976	0.159613	0.400751
	H24	H	0.903164	0.331758	0.210975
	H25	H	0.098864	0.658380	0.211504
	H26	H	0.099964	0.331445	0.781320
	H27	H	0.901994	0.658498	0.782000
	H28	H	0.216900	0.896985	0.333307
	H29	H	0.216616	0.094256	0.659794
	H30	H	0.788093	0.092190	0.332912
	H31	H	0.786538	0.897972	0.659666
	H32	H	0.337393	0.209958	0.899134
	H33	H	0.665145	0.208821	0.092911
	H34	H	0.336994	0.782413	0.095484
	H35	H	0.664926	0.780684	0.898948
	H36	H	0.337865	0.899076	0.211447
	H37	H	0.665228	0.093722	0.210073
	H38	H	0.338144	0.094603	0.781791
	H39	H	0.665622	0.896729	0.782703
	H40	H	0.903347	0.209213	0.332749
	H41	H	0.098080	0.208224	0.660590
	H42	H	0.100452	0.780467	0.333308
	H43	H	0.903813	0.781910	0.660419
	H44	H	0.216445	0.331367	0.898094
	H45	H	0.213501	0.658889	0.094918
	H46	H	0.786254	0.332050	0.094617
	H47	H	0.787607	0.659332	0.900382
	H48	H	0.415611	0.111541	0.598767
	H49	H	0.592198	0.880641	0.589479
	H50	H	0.590861	0.111111	0.401625
	H51	H	0.396482	0.875842	0.402214
	H52	H	0.597717	0.405562	0.112516
	H53	H	0.596104	0.593568	0.879268
	H54	H	0.400653	0.585846	0.113080
	H55	H	0.399336	0.404067	0.879133
	H56	H	0.117074	0.589384	0.407947
	H57	H	0.886086	0.584302	0.594154
	H58	H	0.119172	0.399557	0.594548
	H59	H	0.884453	0.393463	0.410016
	H60	H	0.116538	0.399152	0.585707
	H61	H	0.883449	0.594551	0.592862
	H62	H	0.117300	0.583354	0.402645
	H63	H	0.889075	0.411026	0.407516
	H64	H	0.413687	0.586394	0.109398
	H65	H	0.597392	0.585351	0.881427
	H66	H	0.590082	0.403912	0.111439
	H67	H	0.412603	0.408407	0.883674
	H68	H	0.596382	0.111304	0.406203
	H69	H	0.595913	0.879213	0.588462
	H70	H	0.411463	0.107261	0.580442
	H71	H	0.416215	0.878134	0.392297
	H72	H	0.895502	0.614856	0.089378
	H73	H	0.082874	0.385036	0.081509
	H74	H	0.092474	0.611336	0.898973
	H75	H	0.901159	0.376486	0.900803
	H76	H	0.098314	0.905033	0.612393
	H77	H	0.101284	0.090461	0.378859
	H78	H	0.907209	0.077956	0.609619
	H79	H	0.908307	0.897016	0.379083
	H80	H	0.617851	0.084765	0.898488
	H81	H	0.384172	0.092075	0.089018
	H82	H	0.617223	0.906117	0.090428
	H83	H	0.382009	0.901787	0.892585
	H84	H	0.618294	0.899508	0.091738
	H85	H	0.386989	0.087228	0.087295
	H86	H	0.619569	0.095094	0.902580
	H87	H	0.385230	0.895609	0.910601
	H88	H	0.917760	0.095146	0.611510
	H89	H	0.094321	0.082439	0.383040
	H90	H	0.091024	0.904726	0.610122
	H91	H	0.903760	0.902358	0.379090
	H92	H	0.088400	0.607825	0.906981
	H93	H	0.109043	0.376285	0.083797
	H94	H	0.913315	0.613238	0.102089
	H95	H	0.913246	0.379446	0.899494
	H96	H	0.397470	0.115304	0.592137
	H97	H	0.594434	0.880096	0.592024
	H98	H	0.597406	0.113922	0.399794
	H99	H	0.413385	0.884036	0.414197
	H100	H	0.594789	0.398132	0.114769
	H101	H	0.589779	0.588806	0.881774
	H102	H	0.407976	0.597032	0.115020
	H103	H	0.410422	0.394584	0.879620
	H104	H	0.119167	0.590961	0.400382
	H105	H	0.886938	0.589060	0.584712
	H106	H	0.115858	0.406896	0.589724
	H107	H	0.882169	0.401693	0.393788
	H108	H	0.914085	0.607014	0.081121
	H109	H	0.092002	0.374872	0.104843
	H110	H	0.097975	0.610830	0.907315
	H111	H	0.907356	0.380943	0.910463
	H112	H	0.095049	0.898247	0.612724
	H113	H	0.090127	0.093378	0.380696
	H114	H	0.898152	0.094783	0.617036
	H115	H	0.910385	0.903672	0.382338
	H116	H	0.614943	0.087020	0.908854
	H117	H	0.384124	0.088122	0.093050
	H118	H	0.616368	0.901300	0.085862
	H119	H	0.389867	0.913404	0.906041
	C120	C	0.379966	0.002973	0.618464
	C121	C	0.622843	0.988030	0.617946
	C122	C	0.622995	0.004031	0.374543
	C123	C	0.380545	0.987480	0.375210
	C124	C	0.622527	0.374284	0.005047
	C125	C	0.622442	0.617514	0.988906
	C126	C	0.378885	0.617826	0.005090
	C127	C	0.379731	0.374327	0.988985
	C128	C	0.010188	0.616567	0.375226
	C129	C	0.993528	0.617464	0.619116
	C130	C	0.009205	0.373453	0.618713
	C131	C	0.993403	0.373549	0.375321
	C132	C	0.879414	0.503482	0.118686
	C133	C	0.122683	0.486769	0.118547
	C134	C	0.122135	0.502449	0.875380
	C135	C	0.879294	0.487081	0.875482
	C136	C	0.122965	0.874270	0.504056
	C137	C	0.123264	0.117070	0.488662
	C138	C	0.879710	0.117040	0.504606
	C139	C	0.879463	0.873346	0.488304
	C140	C	0.509398	0.117542	0.874926
	C141	C	0.493036	0.117371	0.117732
	C142	C	0.509285	0.874542	0.117916
	C143	C	0.493977	0.874822	0.875420
	C144	C	0.383031	0.880534	0.673174
	C145	C	0.620335	0.110821	0.672915
	C146	C	0.620593	0.880982	0.319471
	C147	C	0.383624	0.110627	0.320627
	C148	C	0.677156	0.377291	0.882291
	C149	C	0.676685	0.614166	0.112043
	C150	C	0.323379	0.614763	0.882258
	C151	C	0.325132	0.377777	0.111957
	C152	C	0.886799	0.671141	0.378864
	C153	C	0.116824	0.671764	0.616236
	C154	C	0.886354	0.318892	0.615740
	C155	C	0.116370	0.318923	0.378823
	C156	C	0.886255	0.376673	0.673376
	C157	C	0.116632	0.614033	0.674105
	C158	C	0.886899	0.613682	0.320772
	C159	C	0.115959	0.375691	0.320215
	C160	C	0.381358	0.672708	0.882140
	C161	C	0.618739	0.671994	0.111794
	C162	C	0.619532	0.319485	0.882213
	C163	C	0.382412	0.319663	0.111681
	C164	C	0.677315	0.880394	0.378125
	C165	C	0.677899	0.110806	0.614612
	C166	C	0.325791	0.880003	0.614804
	C167	C	0.326303	0.110808	0.379019
	C168	C	0.882053	0.380495	0.173330
	C169	C	0.119710	0.609526	0.173816
	C170	C	0.120273	0.379921	0.819678
	C171	C	0.881723	0.609868	0.820210
	C172	C	0.178929	0.876290	0.381833
	C173	C	0.178409	0.114417	0.611334
	C174	C	0.825560	0.113463	0.381533
	C175	C	0.824407	0.876837	0.611123
	C176	C	0.386357	0.172408	0.878290
	C177	C	0.616245	0.172055	0.114730
	C178	C	0.385921	0.819751	0.115691
	C179	C	0.616586	0.819108	0.878339
	C180	C	0.386214	0.877771	0.173148
	C181	C	0.616164	0.114956	0.172772
	C182	C	0.386647	0.115252	0.819934
	C183	C	0.616846	0.876839	0.820590
	C184	C	0.882776	0.171659	0.381692
	C185	C	0.119878	0.171430	0.611643
	C186	C	0.121008	0.818608	0.381884
	C187	C	0.882940	0.819494	0.611567
	C188	C	0.178051	0.380009	0.877793
	C189	C	0.176269	0.610019	0.115541
	C190	C	0.824123	0.380750	0.115564
	C191	C	0.824809	0.610423	0.878894
	C192	C	0.401755	0.089202	0.596708
	C193	C	0.600754	0.902157	0.596244
	C194	C	0.601196	0.089770	0.396081
	C195	C	0.402433	0.901635	0.396509
	C196	C	0.600656	0.396069	0.090940
	C197	C	0.600794	0.595632	0.902941
	C198	C	0.400932	0.596255	0.090444
	C199	C	0.401168	0.395831	0.902985
	C200	C	0.095761	0.594341	0.397128
	C201	C	0.907812	0.595778	0.597240
	C202	C	0.095192	0.395589	0.596652
	C203	C	0.907352	0.395683	0.397226
	C204	C	0.901282	0.589531	0.097230
	C205	C	0.100945	0.400931	0.096577
	C206	C	0.099469	0.587909	0.897744
	C207	C	0.901107	0.401223	0.897176
	C208	C	0.101184	0.896332	0.589762
	C209	C	0.101662	0.095134	0.402991
	C210	C	0.901250	0.095479	0.590512
	C211	C	0.901020	0.894869	0.402417
	C212	C	0.595353	0.095599	0.896958
	C213	C	0.407248	0.095603	0.096125
	C214	C	0.594984	0.896066	0.095887
	C215	C	0.408091	0.897125	0.896844
	Zn216	Zn	0.501881	-0.004515	0.746778
	Zn217	Zn	0.501646	-0.004293	0.246018
	Zn218	Zn	0.751162	0.495797	-0.003044
	Zn219	Zn	0.250732	0.495319	-0.002589
	Zn220	Zn	0.002023	0.745203	0.496741
	Zn221	Zn	0.001154	0.245326	0.496709
	Zn222	Zn	0.000955	0.494977	0.746736
	Zn223	Zn	0.001299	0.494684	0.246691
	Zn224	Zn	0.500734	0.746696	-0.003338
	Zn225	Zn	0.501264	0.245984	-0.002912
	Zn226	Zn	0.751058	-0.004352	0.496171
	Zn227	Zn	0.251984	-0.004779	0.496537
	N228	N	0.415661	0.958201	0.675861
	N229	N	0.586827	0.033391	0.674902
	N230	N	0.587875	0.958800	0.316899
	N231	N	0.416873	0.033040	0.318419
	N232	N	0.678923	0.410916	0.959427
	N233	N	0.679008	0.580960	0.034489
	N234	N	0.321360	0.581782	0.959672
	N235	N	0.323459	0.411225	0.034536
	N236	N	0.964199	0.672827	0.412264
	N237	N	0.039291	0.674226	0.583016
	N238	N	0.963903	0.317084	0.582346
	N239	N	0.039065	0.317579	0.412290
	N240	N	0.963786	0.409829	0.675183
	N241	N	0.039127	0.580669	0.675830
	N242	N	0.964393	0.580138	0.318599
	N243	N	0.038302	0.409045	0.318029
	N244	N	0.415082	0.674844	0.959377
	N245	N	0.585520	0.673920	0.034409
	N246	N	0.586260	0.317636	0.959652
	N247	N	0.415455	0.317415	0.034249
	N248	N	0.678751	0.957679	0.411984
	N249	N	0.679593	0.033302	0.581319
	N250	N	0.323945	0.957412	0.581403
	N251	N	0.324403	0.033337	0.412323
	N252	N	0.915751	0.457740	0.175281
	N253	N	0.086951	0.531661	0.175916
	N254	N	0.086003	0.456959	0.818311
	N255	N	0.914905	0.532228	0.817948
	N256	N	0.180157	0.910206	0.458927
	N257	N	0.180790	0.081336	0.533901
	N258	N	0.823721	0.080068	0.458858
	N259	N	0.822142	0.909584	0.533499
	N260	N	0.463890	0.173882	0.911720
	N261	N	0.538926	0.173539	0.081262
	N262	N	0.463463	0.817580	0.082035
	N263	N	0.539138	0.817714	0.911572
	N264	N	0.463602	0.910940	0.174592
	N265	N	0.538651	0.081377	0.174648
	N266	N	0.463884	0.081425	0.818024
	N267	N	0.539515	0.910916	0.818974
	N268	N	0.915974	0.173856	0.459286
	N269	N	0.086393	0.173244	0.534486
	N270	N	0.087018	0.817230	0.458940
	N271	N	0.916304	0.817095	0.534198
	N272	N	0.179453	0.457260	0.911420
	N273	N	0.178012	0.532877	0.081799
	N274	N	0.822384	0.458341	0.082562
	N275	N	0.823300	0.533123	0.912547
	O276	O	1.070909	-0.090129	0.876181
	H277	H	1.077834	-0.090635	0.870128
	H278	H	1.062297	-0.083953	0.882011
	O279	O	0.088620	0.886528	0.900764
	H280	H	0.090730	0.882251	0.893519
	H281	H	0.083914	0.892832	0.890980
	O282	O	1.084478	0.902624	-0.054281
	H283	H	1.093658	0.893922	-0.057461
	H284	H	1.081818	0.895889	-0.055195
	O285	O	0.070239	0.929817	0.913658
	H286	H	0.071072	0.926452	0.922137
	H287	H	0.079603	0.924948	0.915531
