data_Molecule from HDF5

_cell_length_a		16.264745
_cell_length_b		16.325705
_cell_length_c		16.298136
_cell_angle_alpha	90.117548
_cell_angle_beta	90.039918
_cell_angle_gamma	89.977603
_symmetry_space_group_name_H-M	'P 1'
_symmetry_Int_Tables_number		1

loop_
	_symmetry_equiv_pos_as_xyz
	x,y,z

loop_
	_atom_site_label
	_atom_site_type_symbol
	_atom_site_fract_x
	_atom_site_fract_y
	_atom_site_fract_z
	H0	H	0.400687	0.835473	0.717632
	H1	H	0.597495	0.161756	0.721513
	H2	H	0.596695	0.835671	0.290666
	H3	H	0.400984	0.162673	0.290422
	H4	H	0.714275	0.398287	0.841998
	H5	H	0.713748	0.598465	0.168430
	H6	H	0.285057	0.596057	0.840660
	H7	H	0.282987	0.401100	0.167853
	H8	H	0.835743	0.714110	0.404901
	H9	H	0.161936	0.714143	0.603631
	H10	H	0.835478	0.284031	0.603485
	H11	H	0.162476	0.284631	0.404282
	H12	H	0.835354	0.400464	0.719274
	H13	H	0.162202	0.599183	0.719648
	H14	H	0.835363	0.598748	0.290323
	H15	H	0.162961	0.402254	0.290189
	H16	H	0.399396	0.712872	0.841487
	H17	H	0.597224	0.713908	0.168462
	H18	H	0.597616	0.281983	0.842213
	H19	H	0.399041	0.285192	0.168796
	H20	H	0.712838	0.835918	0.406508
	H21	H	0.713745	0.162590	0.604372
	H22	H	0.284878	0.836027	0.601445
	H23	H	0.285053	0.163008	0.406821
	H24	H	0.899893	0.337456	0.220315
	H25	H	0.098376	0.662542	0.219247
	H26	H	0.097582	0.337224	0.788499
	H27	H	0.897395	0.663273	0.788922
	H28	H	0.213476	0.900984	0.340872
	H29	H	0.213754	0.098859	0.667019
	H30	H	0.784507	0.096054	0.340420
	H31	H	0.784895	0.900703	0.667519
	H32	H	0.334040	0.213048	0.906493
	H33	H	0.661280	0.214617	0.106396
	H34	H	0.334554	0.785280	0.102265
	H35	H	0.661685	0.783692	0.906447
	H36	H	0.334793	0.901552	0.218204
	H37	H	0.662253	0.097543	0.219540
	H38	H	0.334439	0.097919	0.789778
	H39	H	0.662165	0.900498	0.791446
	H40	H	0.898919	0.213806	0.339910
	H41	H	0.097949	0.214795	0.666647
	H42	H	0.096807	0.785227	0.340650
	H43	H	0.899886	0.784217	0.667069
	H44	H	0.213343	0.336200	0.904968
	H45	H	0.213734	0.662582	0.102483
	H46	H	0.784353	0.335910	0.103615
	H47	H	0.781208	0.661677	0.905247
	H48	H	0.410501	0.116472	0.604807
	H49	H	0.584762	0.884713	0.599229
	H50	H	0.595734	0.117967	0.407256
	H51	H	0.407244	0.881030	0.402326
	H52	H	0.593600	0.402882	0.123260
	H53	H	0.583773	0.596104	0.889569
	H54	H	0.397014	0.589253	0.122855
	H55	H	0.407937	0.405376	0.889545
	H56	H	0.116890	0.597970	0.413314
	H57	H	0.886849	0.586864	0.587657
	H58	H	0.116554	0.409165	0.603279
	H59	H	0.882653	0.402652	0.416445
	H60	H	0.116209	0.399814	0.595211
	H61	H	0.881258	0.586295	0.605069
	H62	H	0.114345	0.589282	0.413560
	H63	H	0.885288	0.412694	0.412820
	H64	H	0.411795	0.586515	0.117856
	H65	H	0.597961	0.593157	0.886441
	H66	H	0.593399	0.410529	0.120660
	H67	H	0.405865	0.404207	0.888727
	H68	H	0.586366	0.113466	0.410757
	H69	H	0.596215	0.883958	0.590974
	H70	H	0.411164	0.111937	0.591135
	H71	H	0.411324	0.885848	0.415564
	H72	H	0.910425	0.614661	0.098100
	H73	H	0.094120	0.382683	0.097055
	H74	H	0.095540	0.616941	0.911961
	H75	H	0.906160	0.386778	0.918755
	H76	H	0.098979	0.899628	0.624741
	H77	H	0.086581	0.084957	0.390687
	H78	H	0.909342	0.088661	0.618290
	H79	H	0.911494	0.907320	0.390115
	H80	H	0.616590	0.096898	0.910189
	H81	H	0.381782	0.094932	0.096204
	H82	H	0.615305	0.906532	0.097398
	H83	H	0.380153	0.905978	0.906856
	H84	H	0.616090	0.905149	0.099618
	H85	H	0.382547	0.088291	0.096600
	H86	H	0.611581	0.090585	0.921113
	H87	H	0.380932	0.900706	0.912029
	H88	H	0.910013	0.097117	0.620598
	H89	H	0.087779	0.101057	0.385784
	H90	H	0.094600	0.915846	0.618824
	H91	H	0.904423	0.898493	0.385342
	H92	H	0.089833	0.616528	0.908059
	H93	H	0.090282	0.383218	0.100254
	H94	H	0.904242	0.613804	0.092946
	H95	H	0.901401	0.381262	0.906703
	H96	H	0.399311	0.116999	0.597038
	H97	H	0.596892	0.879790	0.604262
	H98	H	0.594721	0.114588	0.417114
	H99	H	0.397687	0.881849	0.413271
	H100	H	0.586804	0.405685	0.119700
	H101	H	0.589014	0.582003	0.892573
	H102	H	0.407109	0.601238	0.122735
	H103	H	0.405229	0.406444	0.888809
	H104	H	0.117816	0.593048	0.405818
	H105	H	0.879476	0.602073	0.595319
	H106	H	0.111788	0.410952	0.591461
	H107	H	0.879547	0.405097	0.405361
	H108	H	0.902788	0.618114	0.100922
	H109	H	0.089986	0.384820	0.095555
	H110	H	0.089509	0.613630	0.914121
	H111	H	0.914800	0.385608	0.908312
	H112	H	0.082628	0.902905	0.619201
	H113	H	0.101634	0.091086	0.384697
	H114	H	0.902328	0.092561	0.621266
	H115	H	0.899538	0.909951	0.387410
	H116	H	0.613152	0.084090	0.909774
	H117	H	0.380837	0.091652	0.101721
	H118	H	0.615342	0.903587	0.097073
	H119	H	0.382117	0.907613	0.914039
	C120	C	0.377637	0.007256	0.625873
	C121	C	0.620967	0.990580	0.627148
	C122	C	0.620245	0.007621	0.383258
	C123	C	0.377312	0.991146	0.382354
	C124	C	0.620333	0.376586	0.013563
	C125	C	0.619675	0.619966	0.996915
	C126	C	0.376684	0.620349	0.013078
	C127	C	0.376762	0.377259	0.996718
	C128	C	0.007929	0.621346	0.382798
	C129	C	0.990360	0.621058	0.625536
	C130	C	0.007087	0.377717	0.625550
	C131	C	0.990524	0.378602	0.382585
	C132	C	0.877360	0.507866	0.126159
	C133	C	0.119947	0.491473	0.125832
	C134	C	0.120329	0.507933	0.882532
	C135	C	0.877301	0.491960	0.882226
	C136	C	0.120191	0.877935	0.512749
	C137	C	0.120702	0.121454	0.495031
	C138	C	0.877766	0.120952	0.511738
	C139	C	0.877003	0.877164	0.495476
	C140	C	0.505998	0.120007	0.884410
	C141	C	0.490051	0.120634	0.127127
	C142	C	0.507083	0.877530	0.126169
	C143	C	0.489441	0.876515	0.882944
	C144	C	0.379725	0.884558	0.680366
	C145	C	0.618430	0.113232	0.683295
	C146	C	0.617385	0.884565	0.328287
	C147	C	0.380329	0.114056	0.328235
	C148	C	0.676080	0.377962	0.890808
	C149	C	0.675386	0.618397	0.119811
	C150	C	0.322256	0.617071	0.889858
	C151	C	0.320717	0.380055	0.119199
	C152	C	0.884666	0.676389	0.384948
	C153	C	0.113158	0.676004	0.623459
	C154	C	0.884139	0.322399	0.623342
	C155	C	0.113802	0.323042	0.384234
	C156	C	0.884156	0.380000	0.681261
	C157	C	0.113408	0.618767	0.681125
	C158	C	0.884396	0.618820	0.327819
	C159	C	0.113977	0.381350	0.327592
	C160	C	0.378932	0.675206	0.890240
	C161	C	0.617697	0.675995	0.119666
	C162	C	0.618403	0.319935	0.891142
	C163	C	0.378388	0.322471	0.119693
	C164	C	0.675010	0.884685	0.385925
	C165	C	0.675811	0.113697	0.624823
	C166	C	0.322338	0.884811	0.622471
	C167	C	0.322550	0.114080	0.385774
	C168	C	0.879105	0.385580	0.182030
	C169	C	0.118185	0.614229	0.181166
	C170	C	0.118377	0.385760	0.826403
	C171	C	0.877659	0.614218	0.826702
	C172	C	0.175207	0.880501	0.389511
	C173	C	0.175780	0.119152	0.618203
	C174	C	0.822147	0.117476	0.389227
	C175	C	0.822593	0.880272	0.618623
	C176	C	0.383089	0.175602	0.885896
	C177	C	0.612431	0.176617	0.125902
	C178	C	0.383343	0.823444	0.122974
	C179	C	0.612968	0.821701	0.885902
	C180	C	0.383599	0.880992	0.180692
	C181	C	0.613214	0.117987	0.181882
	C182	C	0.383202	0.118022	0.828147
	C183	C	0.613017	0.879326	0.828339
	C184	C	0.879035	0.175826	0.388939
	C185	C	0.117903	0.176572	0.618112
	C186	C	0.117317	0.823024	0.389480
	C187	C	0.879430	0.822114	0.618314
	C188	C	0.175712	0.385228	0.884366
	C189	C	0.175429	0.614180	0.122836
	C190	C	0.821723	0.385116	0.123961
	C191	C	0.820227	0.613642	0.885033
	C192	C	0.400206	0.093007	0.604108
	C193	C	0.599064	0.905153	0.604804
	C194	C	0.598478	0.093164	0.405203
	C195	C	0.399067	0.905094	0.403944
	C196	C	0.597754	0.399626	0.099080
	C197	C	0.596840	0.597108	0.911563
	C198	C	0.398835	0.598501	0.098965
	C199	C	0.399674	0.398969	0.911091
	C200	C	0.094050	0.599810	0.404532
	C201	C	0.904640	0.598402	0.602718
	C202	C	0.092823	0.399995	0.603265
	C203	C	0.904774	0.400546	0.404976
	C204	C	0.899504	0.593394	0.103865
	C205	C	0.097877	0.405809	0.104208
	C206	C	0.098092	0.593768	0.904714
	C207	C	0.900607	0.406448	0.904691
	C208	C	0.098512	0.899580	0.598520
	C209	C	0.098440	0.099053	0.409221
	C210	C	0.900619	0.099182	0.597836
	C211	C	0.898866	0.898884	0.409706
	C212	C	0.591721	0.097340	0.907149
	C213	C	0.403757	0.098294	0.104617
	C214	C	0.593271	0.898847	0.104501
	C215	C	0.403446	0.898393	0.904666
	Zn216	Zn	0.498044	-0.001246	0.755415
	Zn217	Zn	0.499155	-0.000822	0.254520
	Zn218	Zn	0.748712	0.498933	0.005269
	Zn219	Zn	0.248653	0.499332	0.004351
	Zn220	Zn	-0.001312	0.749031	0.503872
	Zn221	Zn	-0.001184	0.249664	0.503137
	Zn222	Zn	-0.001286	0.500300	0.753873
	Zn223	Zn	-0.000947	0.499983	0.254893
	Zn224	Zn	0.498120	0.748655	0.004818
	Zn225	Zn	0.497682	0.248564	0.005485
	Zn226	Zn	0.749388	-0.000427	0.504512
	Zn227	Zn	0.248959	-0.000402	0.504443
	N228	N	0.413494	0.961772	0.682479
	N229	N	0.585169	0.035786	0.685106
	N230	N	0.583905	0.961952	0.326729
	N231	N	0.413524	0.036524	0.326028
	N232	N	0.677520	0.412188	0.967950
	N233	N	0.676690	0.584193	0.042600
	N234	N	0.320591	0.583904	0.967344
	N235	N	0.319527	0.413391	0.041745
	N236	N	0.962177	0.677922	0.418585
	N237	N	0.035585	0.677633	0.589855
	N238	N	0.961440	0.321064	0.589259
	N239	N	0.036226	0.321138	0.417674
	N240	N	0.961551	0.414055	0.682528
	N241	N	0.035857	0.585119	0.682314
	N242	N	0.962015	0.585221	0.326352
	N243	N	0.036410	0.415192	0.326546
	N244	N	0.412230	0.677273	0.967785
	N245	N	0.583511	0.676920	0.042370
	N246	N	0.584507	0.318922	0.968590
	N247	N	0.412507	0.320728	0.042460
	N248	N	0.676825	0.961977	0.419631
	N249	N	0.677678	0.036495	0.590901
	N250	N	0.321128	0.962223	0.589274
	N251	N	0.320875	0.036679	0.418991
	N252	N	0.912704	0.462841	0.183656
	N253	N	0.084481	0.537011	0.183048
	N254	N	0.084648	0.463063	0.825221
	N255	N	0.912221	0.537305	0.825025
	N256	N	0.176965	0.914130	0.466909
	N257	N	0.177422	0.085451	0.540826
	N258	N	0.821208	0.084299	0.466770
	N259	N	0.820723	0.913679	0.541211
	N260	N	0.460355	0.176674	0.920217
	N261	N	0.534737	0.178236	0.092422
	N262	N	0.460974	0.821105	0.089872
	N263	N	0.535210	0.819793	0.919061
	N264	N	0.461526	0.914053	0.182585
	N265	N	0.535877	0.083822	0.182709
	N266	N	0.460741	0.084209	0.827025
	N267	N	0.535291	0.912484	0.826268
	N268	N	0.912962	0.178026	0.466471
	N269	N	0.084580	0.178335	0.540409
	N270	N	0.083718	0.821278	0.466902
	N271	N	0.912467	0.820017	0.540822
	N272	N	0.177173	0.462350	0.918350
	N273	N	0.176581	0.536919	0.089169
	N274	N	0.820714	0.462081	0.089889
	N275	N	0.819689	0.536291	0.918597
	O276	O	0.464313	0.545493	0.470912
	H277	H	0.463502	0.549490	0.467744
	H278	H	0.469263	0.541464	0.467345
	O279	O	0.503841	0.401710	0.508553
	H280	H	0.505194	0.396801	0.504951
	H281	H	0.509952	0.403822	0.512185
	O282	O	0.509192	0.515476	0.505263
	H283	H	0.502698	0.510438	0.498552
	H284	H	0.508988	0.510344	0.515971
	O285	O	-0.065169	1.066294	0.927762
	H286	H	-0.064069	1.058605	0.927019
	H287	H	-0.069079	1.070836	0.920909
	O288	O	0.535236	0.539287	0.560403
	H289	H	0.528209	0.541233	0.551755
	H290	H	0.529986	0.539322	0.557590
	O291	O	-0.019917	0.042131	1.000189
	H292	H	-0.019585	0.044018	1.006391
	H293	H	-0.018966	0.045631	1.007636
	O294	O	0.500558	0.534437	0.486087
	H295	H	0.501220	0.529868	0.481969
	H296	H	0.492135	0.533586	0.485944
	O297	O	0.476178	0.528529	0.539629
	H298	H	0.475333	0.529177	0.528259
	H299	H	0.474215	0.535144	0.546976
	O300	O	0.581168	0.456877	0.472016
	H301	H	0.582373	0.463091	0.472685
	H302	H	0.585952	0.454780	0.465928
	O303	O	0.514207	0.500643	0.527630
	H304	H	0.526393	0.501646	0.526873
	H305	H	0.505418	0.500014	0.530392
	O306	O	0.965189	0.065735	0.919813
	H307	H	0.964070	0.069038	0.910898
	H308	H	0.963857	0.079504	0.926722
	O309	O	0.490184	0.479446	0.585491
	H310	H	0.487861	0.471753	0.596553
	H311	H	0.478071	0.484557	0.581718
	O312	O	-0.079606	0.049811	-0.035092
	H313	H	-0.079053	0.046126	-0.040885
	H314	H	-0.084973	0.050829	-0.037907
	O315	O	0.972527	0.009468	0.984897
	H316	H	0.972569	0.011037	0.982687
	H317	H	0.967193	0.001649	0.981865
	O318	O	-0.041823	0.064269	-0.019566
	H319	H	-0.045941	0.068191	-0.021993
	H320	H	-0.039045	0.053014	-0.015647
	O321	O	0.543609	0.525345	0.579318
	H322	H	0.550479	0.524193	0.586739
	H323	H	0.541954	0.532800	0.575121
	O324	O	1.011007	0.048750	0.039928
	H325	H	1.000276	0.047289	0.028087
	H326	H	1.014664	0.062115	0.043577
	O327	O	0.994479	0.995223	0.009311
	H328	H	0.996285	0.987482	0.004980
	H329	H	0.993408	0.995899	0.018582
	O330	O	0.920134	1.042963	-0.070208
	H331	H	0.915669	1.049472	-0.074386
	H332	H	0.922815	1.041775	-0.077100
	O333	O	0.490907	0.577840	0.578304
	H334	H	0.494262	0.588586	0.589207
	H335	H	0.501902	0.572987	0.574350
