data_Molecule from HDF5

_cell_length_a		16.256975
_cell_length_b		16.276905
_cell_length_c		16.306924
_cell_angle_alpha	90.044608
_cell_angle_beta	89.789891
_cell_angle_gamma	90.246132
_symmetry_space_group_name_H-M	'P 1'
_symmetry_Int_Tables_number		1

loop_
	_symmetry_equiv_pos_as_xyz
	x,y,z

loop_
	_atom_site_label
	_atom_site_type_symbol
	_atom_site_fract_x
	_atom_site_fract_y
	_atom_site_fract_z
	H0	H	0.401819	0.842079	0.712274
	H1	H	0.604178	0.168459	0.711448
	H2	H	0.603852	0.841563	0.279649
	H3	H	0.405664	0.167868	0.280582
	H4	H	0.719204	0.406083	0.832136
	H5	H	0.719835	0.603634	0.159003
	H6	H	0.291098	0.603373	0.832621
	H7	H	0.288003	0.405801	0.158547
	H8	H	0.840198	0.718317	0.396881
	H9	H	0.167795	0.721506	0.593394
	H10	H	0.840601	0.288869	0.594668
	H11	H	0.168930	0.290665	0.394571
	H12	H	0.842059	0.403459	0.711881
	H13	H	0.168599	0.604825	0.708296
	H14	H	0.840080	0.602130	0.282039
	H15	H	0.167685	0.404920	0.277586
	H16	H	0.404978	0.720090	0.833336
	H17	H	0.602910	0.718528	0.159671
	H18	H	0.606037	0.288162	0.833720
	H19	H	0.404301	0.290238	0.159540
	H20	H	0.716982	0.839819	0.397793
	H21	H	0.719848	0.167358	0.594788
	H22	H	0.288506	0.841292	0.593919
	H23	H	0.290070	0.167958	0.396463
	H24	H	0.903065	0.341406	0.211821
	H25	H	0.103938	0.668708	0.210110
	H26	H	0.104815	0.341166	0.779743
	H27	H	0.905963	0.667850	0.780910
	H28	H	0.220827	0.905365	0.332513
	H29	H	0.220636	0.106036	0.658833
	H30	H	0.790281	0.101401	0.331989
	H31	H	0.788469	0.903908	0.659693
	H32	H	0.340837	0.219315	0.898799
	H33	H	0.668345	0.221172	0.095532
	H34	H	0.340841	0.789398	0.096428
	H35	H	0.668208	0.790352	0.896932
	H36	H	0.341510	0.905486	0.211990
	H37	H	0.668387	0.105701	0.211287
	H38	H	0.339873	0.103859	0.782569
	H39	H	0.667582	0.905914	0.780576
	H40	H	0.906402	0.218762	0.331856
	H41	H	0.105336	0.221782	0.658367
	H42	H	0.103581	0.790137	0.332153
	H43	H	0.903985	0.788278	0.658579
	H44	H	0.219058	0.341456	0.896685
	H45	H	0.218158	0.668852	0.093167
	H46	H	0.789254	0.340481	0.093958
	H47	H	0.791404	0.667611	0.897599
	H48	H	0.416072	0.120612	0.589464
	H49	H	0.591027	0.887213	0.595370
	H50	H	0.601564	0.123001	0.399028
	H51	H	0.411224	0.891488	0.412770
	H52	H	0.593202	0.406886	0.112373
	H53	H	0.593802	0.591662	0.882696
	H54	H	0.406640	0.593213	0.112543
	H55	H	0.413547	0.404250	0.878861
	H56	H	0.121112	0.595578	0.398150
	H57	H	0.889226	0.590802	0.589564
	H58	H	0.119924	0.413850	0.584207
	H59	H	0.887825	0.408660	0.402651
	H60	H	0.120460	0.414855	0.588053
	H61	H	0.886330	0.598554	0.593087
	H62	H	0.121960	0.601715	0.402824
	H63	H	0.888853	0.411399	0.403874
	H64	H	0.416231	0.596578	0.110741
	H65	H	0.595326	0.605915	0.878344
	H66	H	0.602934	0.413057	0.114003
	H67	H	0.406214	0.415494	0.879064
	H68	H	0.592346	0.119004	0.403008
	H69	H	0.592113	0.891228	0.583351
	H70	H	0.409361	0.120435	0.586341
	H71	H	0.403556	0.884334	0.399055
	H72	H	0.908912	0.621300	0.089725
	H73	H	0.088964	0.389278	0.092750
	H74	H	0.091353	0.619774	0.901067
	H75	H	0.910005	0.387747	0.903656
	H76	H	0.094211	0.916899	0.609920
	H77	H	0.096261	0.096573	0.380180
	H78	H	0.907648	0.093549	0.611068
	H79	H	0.915419	0.911223	0.381479
	H80	H	0.618828	0.098201	0.910967
	H81	H	0.387014	0.095942	0.092613
	H82	H	0.624146	0.904048	0.090015
	H83	H	0.388804	0.909377	0.908378
	H84	H	0.617755	0.914751	0.081502
	H85	H	0.388130	0.099576	0.088495
	H86	H	0.618791	0.089023	0.899801
	H87	H	0.389107	0.915726	0.904148
	H88	H	0.917144	0.095543	0.609996
	H89	H	0.097952	0.098374	0.379621
	H90	H	0.093465	0.909007	0.611135
	H91	H	0.908863	0.906524	0.377999
	H92	H	0.101997	0.620430	0.906928
	H93	H	0.095809	0.391231	0.079488
	H94	H	0.914565	0.621095	0.090855
	H95	H	0.912756	0.387256	0.900415
	H96	H	0.410475	0.123076	0.592845
	H97	H	0.601712	0.886456	0.588906
	H98	H	0.600290	0.120071	0.409416
	H99	H	0.419985	0.889384	0.397872
	H100	H	0.593566	0.418158	0.109434
	H101	H	0.606804	0.597142	0.877176
	H102	H	0.409349	0.603737	0.114628
	H103	H	0.419147	0.416080	0.882510
	H104	H	0.118544	0.595496	0.405144
	H105	H	0.888122	0.598603	0.584533
	H106	H	0.121045	0.411244	0.587109
	H107	H	0.888248	0.411812	0.400868
	H108	H	0.913217	0.619213	0.086154
	H109	H	0.103329	0.385384	0.091373
	H110	H	0.101472	0.624058	0.894895
	H111	H	0.913959	0.388544	0.904376
	H112	H	0.100423	0.912508	0.613071
	H113	H	0.098308	0.096822	0.380225
	H114	H	0.910993	0.102051	0.612611
	H115	H	0.907527	0.914585	0.379849
	H116	H	0.623070	0.102811	0.898709
	H117	H	0.390247	0.094322	0.088273
	H118	H	0.622495	0.917699	0.095514
	H119	H	0.386196	0.909242	0.901474
	C120	C	0.381927	0.013509	0.618118
	C121	C	0.624935	0.996082	0.618040
	C122	C	0.626161	0.012489	0.374728
	C123	C	0.383105	0.996399	0.374590
	C124	C	0.626387	0.383118	0.004579
	C125	C	0.627209	0.626657	0.987409
	C126	C	0.382966	0.626181	0.004528
	C127	C	0.382841	0.383024	0.987857
	C128	C	0.012348	0.625671	0.373949
	C129	C	0.996196	0.625737	0.617064
	C130	C	0.012870	0.383291	0.616160
	C131	C	0.996304	0.382193	0.372779
	C132	C	0.882679	0.512369	0.117292
	C133	C	0.125519	0.496525	0.116812
	C134	C	0.126840	0.513136	0.872775
	C135	C	0.883622	0.495878	0.874131
	C136	C	0.125196	0.883665	0.503694
	C137	C	0.126911	0.127078	0.487541
	C138	C	0.883286	0.125650	0.503575
	C139	C	0.881671	0.881753	0.487649
	C140	C	0.512164	0.125947	0.874926
	C141	C	0.496455	0.126482	0.118289
	C142	C	0.513461	0.882875	0.118420
	C143	C	0.495780	0.882790	0.874931
	C144	C	0.382393	0.890653	0.673691
	C145	C	0.623655	0.119425	0.673111
	C146	C	0.623636	0.889858	0.318564
	C147	C	0.385629	0.119387	0.319083
	C148	C	0.681653	0.385471	0.881251
	C149	C	0.682256	0.624315	0.110103
	C150	C	0.328449	0.623690	0.881516
	C151	C	0.326345	0.385426	0.110123
	C152	C	0.889022	0.680274	0.376743
	C153	C	0.119086	0.682785	0.613822
	C154	C	0.889598	0.327160	0.614640
	C155	C	0.119607	0.327787	0.374684
	C156	C	0.890364	0.383835	0.673060
	C157	C	0.119543	0.625131	0.671227
	C158	C	0.889201	0.623039	0.319072
	C159	C	0.119225	0.384813	0.316573
	C160	C	0.385108	0.681819	0.881946
	C161	C	0.624012	0.681254	0.110568
	C162	C	0.625589	0.326785	0.882072
	C163	C	0.384333	0.327938	0.110544
	C164	C	0.680078	0.889070	0.377120
	C165	C	0.681452	0.118946	0.615284
	C166	C	0.326089	0.890311	0.614874
	C167	C	0.327978	0.119423	0.376519
	C168	C	0.883714	0.389832	0.173109
	C169	C	0.123887	0.619658	0.172346
	C170	C	0.125292	0.390155	0.817313
	C171	C	0.886021	0.618858	0.818893
	C172	C	0.181705	0.885795	0.381038
	C173	C	0.182245	0.125449	0.610027
	C174	C	0.827943	0.122515	0.380893
	C175	C	0.826053	0.883704	0.610540
	C176	C	0.389311	0.181410	0.878027
	C177	C	0.619616	0.182483	0.115630
	C178	C	0.390023	0.827429	0.116436
	C179	C	0.619186	0.828108	0.876658
	C180	C	0.390325	0.885049	0.174020
	C181	C	0.619490	0.125312	0.173433
	C182	C	0.388943	0.123808	0.820240
	C183	C	0.618899	0.885476	0.818769
	C184	C	0.885793	0.180754	0.380707
	C185	C	0.125114	0.183246	0.609813
	C186	C	0.123288	0.828616	0.380740
	C187	C	0.883464	0.826134	0.610029
	C188	C	0.181656	0.390105	0.876000
	C189	C	0.180562	0.619892	0.113971
	C190	C	0.826718	0.389539	0.114857
	C191	C	0.829150	0.619018	0.877036
	C192	C	0.405124	0.099121	0.596097
	C193	C	0.601622	0.910539	0.595795
	C194	C	0.604436	0.098399	0.397214
	C195	C	0.405039	0.910626	0.396597
	C196	C	0.603339	0.406021	0.089756
	C197	C	0.605159	0.604735	0.901694
	C198	C	0.404510	0.604310	0.090443
	C199	C	0.406096	0.405387	0.902148
	C200	C	0.098422	0.603908	0.395561
	C201	C	0.910330	0.602779	0.595451
	C202	C	0.098261	0.406442	0.593091
	C203	C	0.910335	0.404210	0.395665
	C204	C	0.905549	0.598402	0.095266
	C205	C	0.102682	0.410784	0.094396
	C206	C	0.104818	0.599130	0.894600
	C207	C	0.905601	0.409975	0.896306
	C208	C	0.102529	0.906101	0.589345
	C209	C	0.104275	0.103985	0.402024
	C210	C	0.905539	0.103637	0.589265
	C211	C	0.904020	0.904226	0.401916
	C212	C	0.597904	0.103539	0.896729
	C213	C	0.410657	0.103491	0.096117
	C214	C	0.599399	0.905440	0.095672
	C215	C	0.410253	0.904813	0.897941
	Zn216	Zn	0.503380	0.004685	0.746514
	Zn217	Zn	0.504811	0.004847	0.246498
	Zn218	Zn	0.754886	0.504259	-0.004678
	Zn219	Zn	0.254255	0.505139	-0.004722
	Zn220	Zn	0.003943	0.754026	0.495273
	Zn221	Zn	0.005047	0.255221	0.495390
	Zn222	Zn	0.005313	0.504232	0.745431
	Zn223	Zn	0.004252	0.504922	0.245449
	Zn224	Zn	0.504553	0.754365	-0.003451
	Zn225	Zn	0.505098	0.254449	-0.003536
	Zn226	Zn	0.753888	0.003572	0.496481
	Zn227	Zn	0.254553	0.005294	0.495848
	N228	N	0.416394	0.968041	0.675793
	N229	N	0.589208	0.042041	0.674882
	N230	N	0.590980	0.967741	0.316871
	N231	N	0.419271	0.042033	0.317863
	N232	N	0.682290	0.419844	0.958364
	N233	N	0.684446	0.591234	0.032448
	N234	N	0.326660	0.590208	0.958825
	N235	N	0.325514	0.419076	0.032842
	N236	N	0.966506	0.682004	0.410154
	N237	N	0.041247	0.683500	0.581061
	N238	N	0.966930	0.326723	0.580078
	N239	N	0.042109	0.326351	0.409047
	N240	N	0.967795	0.418092	0.674071
	N241	N	0.042333	0.590178	0.673291
	N242	N	0.966847	0.589687	0.317419
	N243	N	0.041520	0.417919	0.315305
	N244	N	0.418536	0.683431	0.959401
	N245	N	0.590515	0.683085	0.033278
	N246	N	0.591939	0.325078	0.959682
	N247	N	0.418799	0.326205	0.033326
	N248	N	0.681881	0.966341	0.411140
	N249	N	0.682116	0.041520	0.581658
	N250	N	0.325665	0.967890	0.581289
	N251	N	0.326237	0.042026	0.410260
	N252	N	0.917811	0.467303	0.174682
	N253	N	0.090466	0.541807	0.174436
	N254	N	0.091948	0.467520	0.815452
	N255	N	0.919257	0.541039	0.816873
	N256	N	0.182852	0.919504	0.458472
	N257	N	0.183272	0.091053	0.532795
	N258	N	0.826017	0.089127	0.458511
	N259	N	0.824975	0.917717	0.533341
	N260	N	0.466896	0.182557	0.911527
	N261	N	0.542122	0.183390	0.082109
	N262	N	0.467700	0.825868	0.082541
	N263	N	0.541704	0.826247	0.910797
	N264	N	0.467950	0.918780	0.175188
	N265	N	0.541948	0.091142	0.175157
	N266	N	0.466468	0.090099	0.818280
	N267	N	0.541212	0.918646	0.817366
	N268	N	0.919597	0.182565	0.457858
	N269	N	0.091464	0.184552	0.532558
	N270	N	0.088503	0.827494	0.457789
	N271	N	0.917487	0.824898	0.532668
	N272	N	0.182974	0.467739	0.909575
	N273	N	0.181815	0.542427	0.080222
	N274	N	0.825924	0.467033	0.081175
	N275	N	0.827445	0.541637	0.910492
	O276	O	0.023922	-0.095963	-0.057872
	H277	H	0.013983	-0.098050	-0.057772
	H278	H	0.025608	-0.097713	-0.061371
	O279	O	0.556253	0.557475	0.564640
	H280	H	0.557138	0.559232	0.546551
	H281	H	0.549439	0.549900	0.564686
	O282	O	0.442671	0.573782	0.441034
	H283	H	0.449847	0.579032	0.447287
	H284	H	0.436814	0.577708	0.448591
	O285	O	1.065379	0.051176	1.046143
	H286	H	1.072285	0.044292	1.045732
	H287	H	1.063133	0.048241	1.040910
	O288	O	0.954803	-0.030886	0.010681
	H289	H	0.954200	-0.029069	0.013474
	H290	H	0.942146	-0.033361	0.010665
	O291	O	0.558664	0.487640	0.541165
	H292	H	0.552329	0.488643	0.540948
	H293	H	0.547673	0.488552	0.543746
	O294	O	1.052715	-0.068581	0.990821
	H295	H	1.038220	-0.073686	0.993497
	H296	H	1.051664	-0.064608	0.993145
	O297	O	-0.008946	0.054506	-0.076457
	H298	H	-0.008773	0.045879	-0.083181
	H299	H	0.000547	0.057685	-0.075064
	O300	O	0.440540	0.504528	0.500145
	H301	H	0.432681	0.507232	0.496614
	H302	H	0.449272	0.508440	0.509584
	O303	O	0.501791	0.540054	0.516622
	H304	H	0.508057	0.539804	0.517979
	H305	H	0.495760	0.540036	0.521186
	O306	O	1.035277	0.047622	-0.095071
	H307	H	1.052547	0.048914	-0.106183
	H308	H	1.028067	0.053996	-0.081515
	O309	O	-0.033453	-0.012618	0.946935
	H310	H	-0.036406	-0.016215	0.946909
	H311	H	-0.038683	-0.017720	0.951662
	O312	O	0.948514	0.978939	1.015118
	H313	H	0.943821	0.983737	1.018504
	H314	H	0.959309	0.982954	1.007742
	O315	O	0.439930	0.433257	0.557385
	H316	H	0.454474	0.429350	0.558065
	H317	H	0.448360	0.440486	0.560131
	O318	O	0.467089	0.466855	0.554878
	H319	H	0.471533	0.461046	0.558581
	H320	H	0.461677	0.452241	0.551276
	O321	O	-0.002256	0.990797	1.054613
	H322	H	0.000155	0.995609	1.062898
	H323	H	-0.004391	0.981627	1.054280
	O324	O	0.497309	0.435246	0.537795
	H325	H	0.500064	0.435876	0.553105
	H326	H	0.491349	0.432252	0.529421
	O327	O	0.462648	0.472170	0.540816
	H328	H	0.451900	0.474535	0.543077
	H329	H	0.472798	0.465836	0.529544
	O330	O	0.457810	0.567893	0.466716
	H331	H	0.453144	0.561962	0.464546
	H332	H	0.451898	0.566683	0.475775
	O333	O	0.557858	0.492476	0.383931
	H334	H	0.556007	0.487930	0.386120
	H335	H	0.544952	0.496744	0.389577
	O336	O	0.495640	0.630490	0.486050
	H337	H	0.493997	0.626870	0.492004
	H338	H	0.492099	0.633942	0.480648
	O339	O	1.025496	1.084119	0.036750
	H340	H	1.029047	1.068231	0.031558
	H341	H	1.022116	1.087005	0.037429
	O342	O	0.568823	0.454297	0.533542
	H343	H	0.578619	0.458372	0.530766
	H344	H	0.583699	0.454540	0.534384
	O345	O	0.612181	0.484440	0.455568
	H346	H	0.597688	0.488192	0.449923
	H347	H	0.624037	0.486821	0.452880
	O348	O	-0.039005	0.008461	0.050152
	H349	H	-0.051607	0.011063	0.043200
	H350	H	-0.039898	0.024798	0.044494
	O351	O	0.053061	1.043569	1.041779
	H352	H	0.056563	1.054413	1.054759
	H353	H	0.055952	1.038453	1.045393
	O354	O	0.527525	0.480175	0.457558
	H355	H	0.530998	0.479497	0.450934
	H356	H	0.526423	0.473189	0.447471
	O357	O	0.020258	0.994729	1.086911
	H358	H	0.020977	0.995500	1.080596
	H359	H	0.024751	0.995542	1.087323
