data_Molecule from HDF5

_cell_length_a		16.428152
_cell_length_b		16.406366
_cell_length_c		16.375940
_cell_angle_alpha	90.010491
_cell_angle_beta	90.056320
_cell_angle_gamma	89.893053
_symmetry_space_group_name_H-M	'P 1'
_symmetry_Int_Tables_number		1

loop_
	_symmetry_equiv_pos_as_xyz
	x,y,z

loop_
	_atom_site_label
	_atom_site_type_symbol
	_atom_site_fract_x
	_atom_site_fract_y
	_atom_site_fract_z
	H0	H	0.398042	0.824918	0.713269
	H1	H	0.601600	0.145460	0.718945
	H2	H	0.600223	0.825150	0.280169
	H3	H	0.392738	0.145360	0.277166
	H4	H	0.719118	0.379469	0.839766
	H5	H	0.715473	0.588240	0.158358
	H6	H	0.279042	0.585155	0.838715
	H7	H	0.279311	0.381968	0.159844
	H8	H	0.838670	0.707270	0.394824
	H9	H	0.157551	0.703651	0.602253
	H10	H	0.837548	0.266707	0.602330
	H11	H	0.157117	0.266184	0.395206
	H12	H	0.835907	0.385387	0.716804
	H13	H	0.156674	0.587249	0.717676
	H14	H	0.837104	0.588237	0.281267
	H15	H	0.156245	0.380281	0.278156
	H16	H	0.397297	0.700241	0.836486
	H17	H	0.599197	0.703700	0.157602
	H18	H	0.599931	0.266783	0.837738
	H19	H	0.395048	0.265559	0.158642
	H20	H	0.717582	0.826672	0.395020
	H21	H	0.718611	0.145370	0.604090
	H22	H	0.280120	0.826412	0.600238
	H23	H	0.277356	0.146066	0.394116
	H24	H	0.890462	0.327695	0.221912
	H25	H	0.099912	0.644463	0.218706
	H26	H	0.102734	0.327261	0.776851
	H27	H	0.891159	0.645644	0.779381
	H28	H	0.217550	0.882312	0.339482
	H29	H	0.218141	0.090756	0.658976
	H30	H	0.771030	0.096865	0.340686
	H31	H	0.774662	0.880001	0.657271
	H32	H	0.338879	0.207593	0.890519
	H33	H	0.655611	0.207583	0.105679
	H34	H	0.338847	0.765319	0.100426
	H35	H	0.656798	0.763344	0.892110
	H36	H	0.338832	0.879574	0.218981
	H37	H	0.654912	0.091065	0.220790
	H38	H	0.337655	0.088215	0.777867
	H39	H	0.657736	0.881335	0.777347
	H40	H	0.888691	0.211917	0.340906
	H41	H	0.102216	0.206863	0.658932
	H42	H	0.104653	0.763747	0.341251
	H43	H	0.891170	0.765601	0.658608
	H44	H	0.216456	0.325768	0.894461
	H45	H	0.217495	0.643389	0.103757
	H46	H	0.774693	0.326987	0.106783
	H47	H	0.775229	0.644268	0.894621
	H48	H	0.408796	0.100917	0.589586
	H49	H	0.591482	0.871701	0.586254
	H50	H	0.581818	0.095340	0.417557
	H51	H	0.410493	0.870763	0.399858
	H52	H	0.587896	0.401310	0.110791
	H53	H	0.593041	0.574303	0.881441
	H54	H	0.403969	0.579283	0.115234
	H55	H	0.401316	0.400364	0.884853
	H56	H	0.109209	0.575016	0.412836
	H57	H	0.883569	0.579701	0.585609
	H58	H	0.110761	0.399735	0.593772
	H59	H	0.882044	0.392076	0.409664
	H60	H	0.112607	0.391560	0.589717
	H61	H	0.883541	0.573908	0.590129
	H62	H	0.111227	0.573113	0.407500
	H63	H	0.887439	0.399376	0.418048
	H64	H	0.406737	0.571399	0.112324
	H65	H	0.586082	0.568566	0.886435
	H66	H	0.581001	0.395832	0.110077
	H67	H	0.412411	0.396829	0.887568
	H68	H	0.593265	0.101491	0.409532
	H69	H	0.585876	0.871804	0.590863
	H70	H	0.407609	0.099275	0.586356
	H71	H	0.411622	0.875496	0.413840
	H72	H	0.902385	0.598712	0.085833
	H73	H	0.083537	0.372068	0.088783
	H74	H	0.082945	0.596306	0.914682
	H75	H	0.905401	0.372844	0.912047
	H76	H	0.089410	0.901158	0.611792
	H77	H	0.086949	0.073911	0.386243
	H78	H	0.910608	0.074568	0.610511
	H79	H	0.911266	0.903431	0.389023
	H80	H	0.607123	0.068315	0.912005
	H81	H	0.383082	0.075080	0.090078
	H82	H	0.611238	0.890468	0.083059
	H83	H	0.384781	0.892178	0.910898
	H84	H	0.609493	0.900108	0.086336
	H85	H	0.385321	0.077691	0.082246
	H86	H	0.612334	0.074764	0.899300
	H87	H	0.385185	0.898494	0.903902
	H88	H	0.908417	0.074672	0.610630
	H89	H	0.085747	0.077822	0.385891
	H90	H	0.084171	0.894252	0.612869
	H91	H	0.913358	0.892964	0.386266
	H92	H	0.093660	0.601021	0.911757
	H93	H	0.088614	0.371527	0.085847
	H94	H	0.906116	0.601132	0.093979
	H95	H	0.909961	0.371517	0.906733
	H96	H	0.405781	0.101737	0.588212
	H97	H	0.584986	0.874490	0.584529
	H98	H	0.579848	0.098816	0.402648
	H99	H	0.398510	0.869673	0.408956
	H100	H	0.588499	0.392642	0.114088
	H101	H	0.583823	0.578239	0.883590
	H102	H	0.412164	0.578104	0.111885
	H103	H	0.405496	0.389249	0.882013
	H104	H	0.112656	0.578460	0.409255
	H105	H	0.880707	0.580397	0.592249
	H106	H	0.108136	0.398290	0.584873
	H107	H	0.884874	0.403486	0.406137
	H108	H	0.910975	0.597606	0.087460
	H109	H	0.088024	0.369868	0.091593
	H110	H	0.085302	0.599900	0.903437
	H111	H	0.911747	0.375162	0.912582
	H112	H	0.092300	0.893333	0.615544
	H113	H	0.089079	0.076325	0.384531
	H114	H	0.909418	0.072870	0.609586
	H115	H	0.903668	0.897351	0.383918
	H116	H	0.611308	0.082440	0.912575
	H117	H	0.386583	0.069403	0.084169
	H118	H	0.613318	0.892846	0.092980
	H119	H	0.381226	0.889552	0.902268
	C120	C	0.376997	-0.005393	0.618514
	C121	C	0.619702	0.977653	0.619891
	C122	C	0.617753	-0.006272	0.377834
	C123	C	0.375063	0.977488	0.375643
	C124	C	0.618618	0.363835	0.006822
	C125	C	0.618567	0.605968	0.989187
	C126	C	0.376192	0.606521	0.007216
	C127	C	0.375922	0.363715	0.990484
	C128	C	0.005850	0.607410	0.378169
	C129	C	0.988036	0.608344	0.620700
	C130	C	0.004905	0.365567	0.620783
	C131	C	0.989241	0.364783	0.377871
	C132	C	0.874641	0.494184	0.121392
	C133	C	0.117992	0.476384	0.120298
	C134	C	0.118638	0.494090	0.877474
	C135	C	0.876250	0.478125	0.878650
	C136	C	0.119448	0.864666	0.507649
	C137	C	0.119049	0.107719	0.491101
	C138	C	0.875774	0.108023	0.506124
	C139	C	0.876833	0.865685	0.491265
	C140	C	0.505447	0.106762	0.875879
	C141	C	0.489151	0.106262	0.118684
	C142	C	0.506027	0.863439	0.118864
	C143	C	0.489526	0.862812	0.875095
	C144	C	0.377929	0.873348	0.675294
	C145	C	0.621006	0.097760	0.679598
	C146	C	0.619195	0.873458	0.319172
	C147	C	0.373947	0.097522	0.316786
	C148	C	0.678755	0.361542	0.887307
	C149	C	0.676494	0.607201	0.110082
	C150	C	0.317853	0.605618	0.886480
	C151	C	0.318092	0.362620	0.111377
	C152	C	0.886215	0.667300	0.376233
	C153	C	0.109135	0.665079	0.621224
	C154	C	0.884954	0.306863	0.621076
	C155	C	0.108982	0.305148	0.376036
	C156	C	0.884341	0.365562	0.678354
	C157	C	0.108883	0.607188	0.678662
	C158	C	0.885501	0.607933	0.319801
	C159	C	0.108496	0.362313	0.317948
	C160	C	0.376907	0.662355	0.885368
	C161	C	0.618982	0.664856	0.109565
	C162	C	0.619252	0.305454	0.886200
	C163	C	0.375867	0.304928	0.110806
	C164	C	0.677614	0.874123	0.376347
	C165	C	0.679030	0.097466	0.622234
	C166	C	0.319346	0.874181	0.618915
	C167	C	0.316144	0.097659	0.374627
	C168	C	0.872337	0.375141	0.182103
	C169	C	0.119011	0.596542	0.179286
	C170	C	0.120553	0.374717	0.817120
	C171	C	0.873509	0.597929	0.819147
	C172	C	0.178165	0.863410	0.387709
	C173	C	0.178487	0.109229	0.610942
	C174	C	0.812634	0.113476	0.387938
	C175	C	0.815595	0.862794	0.610025
	C176	C	0.386202	0.166847	0.873266
	C177	C	0.608379	0.166769	0.122218
	C178	C	0.386169	0.804475	0.119756
	C179	C	0.609113	0.803184	0.873579
	C180	C	0.386609	0.861582	0.178510
	C181	C	0.607888	0.109135	0.180152
	C182	C	0.385497	0.107604	0.816879
	C183	C	0.609652	0.861943	0.816461
	C184	C	0.871263	0.170852	0.387854
	C185	C	0.120750	0.167244	0.611075
	C186	C	0.121705	0.804380	0.388531
	C187	C	0.873622	0.805488	0.610620
	C188	C	0.177434	0.373961	0.875607
	C189	C	0.177649	0.595951	0.122448
	C190	C	0.814544	0.375060	0.124603
	C191	C	0.815530	0.597245	0.876334
	C192	C	0.400627	0.078814	0.594867
	C193	C	0.594640	0.894494	0.594719
	C194	C	0.592396	0.076898	0.402681
	C195	C	0.399742	0.893797	0.400449
	C196	C	0.593229	0.389127	0.090035
	C197	C	0.594568	0.580879	0.905478
	C198	C	0.400507	0.583079	0.091219
	C199	C	0.399399	0.388383	0.906622
	C200	C	0.089260	0.582639	0.402700
	C201	C	0.904481	0.584841	0.596472
	C202	C	0.088820	0.389644	0.596621
	C203	C	0.906355	0.390572	0.403931
	C204	C	0.899513	0.577354	0.096328
	C205	C	0.093535	0.392775	0.095758
	C206	C	0.094312	0.577405	0.902794
	C207	C	0.901730	0.394840	0.903224
	C208	C	0.095517	0.889252	0.591696
	C209	C	0.094201	0.083218	0.407302
	C210	C	0.902005	0.081657	0.588445
	C211	C	0.902272	0.890789	0.407971
	C212	C	0.588747	0.082138	0.900862
	C213	C	0.406566	0.081230	0.092915
	C214	C	0.589583	0.887629	0.094479
	C215	C	0.405594	0.886657	0.898936
	Zn216	Zn	0.497705	-0.014512	0.747435
	Zn217	Zn	0.497234	-0.014902	0.247852
	Zn218	Zn	0.747062	0.485256	-0.001111
	Zn219	Zn	0.247023	0.484632	-0.000454
	Zn220	Zn	-0.002529	0.736382	0.499940
	Zn221	Zn	-0.002006	0.236751	0.499086
	Zn222	Zn	-0.003745	0.487008	0.749627
	Zn223	Zn	-0.002824	0.485740	0.249242
	Zn224	Zn	0.498128	0.734595	-0.002758
	Zn225	Zn	0.497101	0.235165	-0.002248
	Zn226	Zn	0.747230	-0.013627	0.498360
	Zn227	Zn	0.247886	-0.013643	0.498786
	N228	N	0.412932	0.949508	0.675482
	N229	N	0.584902	0.022182	0.678405
	N230	N	0.583091	0.949116	0.319488
	N231	N	0.409393	0.021613	0.316835
	N232	N	0.678732	0.396738	0.963523
	N233	N	0.676428	0.571384	0.034141
	N234	N	0.316989	0.571881	0.963250
	N235	N	0.317838	0.398368	0.035380
	N236	N	0.962066	0.667171	0.411699
	N237	N	0.033110	0.666138	0.586201
	N238	N	0.961229	0.306266	0.586584
	N239	N	0.033644	0.306543	0.412402
	N240	N	0.960092	0.401317	0.678117
	N241	N	0.032660	0.572774	0.678664
	N242	N	0.960944	0.571606	0.320727
	N243	N	0.032785	0.398440	0.318910
	N244	N	0.412106	0.663329	0.961526
	N245	N	0.583788	0.664149	0.033386
	N246	N	0.582728	0.306514	0.961640
	N247	N	0.410696	0.305277	0.034668
	N248	N	0.676971	0.949981	0.411837
	N249	N	0.678538	0.021756	0.586254
	N250	N	0.318904	0.950470	0.584487
	N251	N	0.316501	0.021803	0.410239
	N252	N	0.909194	0.450140	0.180205
	N253	N	0.082849	0.521142	0.178163
	N254	N	0.084657	0.450394	0.818121
	N255	N	0.910684	0.522788	0.820483
	N256	N	0.176861	0.900311	0.462844
	N257	N	0.177666	0.073135	0.535167
	N258	N	0.815599	0.074912	0.462347
	N259	N	0.817536	0.899811	0.534744
	N260	N	0.461738	0.166342	0.909199
	N261	N	0.533627	0.165042	0.084487
	N262	N	0.461535	0.805401	0.083261
	N263	N	0.533411	0.803616	0.909221
	N264	N	0.462102	0.897355	0.178133
	N265	N	0.533082	0.071908	0.177963
	N266	N	0.460733	0.070864	0.818315
	N267	N	0.534279	0.898341	0.817308
	N268	N	0.910104	0.167511	0.462141
	N269	N	0.084386	0.166363	0.535423
	N270	N	0.085760	0.805160	0.464293
	N271	N	0.911210	0.807260	0.535665
	N272	N	0.176688	0.449275	0.912513
	N273	N	0.177101	0.520336	0.086453
	N274	N	0.815924	0.450012	0.087383
	N275	N	0.817304	0.521811	0.912622
	O276	O	0.579712	0.435834	0.480018
	H277	H	0.581252	0.437144	0.475773
	H278	H	0.578908	0.434722	0.482150
	O279	O	0.662135	0.432421	0.433959
	H280	H	0.664547	0.433055	0.421778
	H281	H	0.653484	0.439132	0.426095
	O282	O	0.376657	0.434014	0.662931
	H283	H	0.376486	0.447454	0.670913
	H284	H	0.388533	0.445635	0.662614
	O285	O	1.010123	0.015968	0.209701
	H286	H	1.015390	0.033501	0.214436
	H287	H	0.983111	0.008598	0.205758
	O288	O	0.501607	0.481549	0.422947
	H289	H	0.506855	0.480945	0.428947
	H290	H	0.514064	0.491421	0.439330
	O291	O	0.332986	0.481912	0.349805
	H292	H	0.324583	0.491279	0.356393
	H293	H	0.344176	0.486796	0.343607
	O294	O	0.529400	0.280978	0.587308
	H295	H	0.529220	0.266267	0.597128
	H296	H	0.528590	0.279600	0.574530
	O297	O	1.043192	0.804795	0.856622
	H298	H	1.055384	0.785675	0.852073
	H299	H	1.059961	0.814331	0.860357
	O300	O	-0.432183	0.638316	-0.475756
	H301	H	-0.424528	0.638404	-0.463469
	H302	H	-0.441075	0.640878	-0.469058
	O303	O	0.464260	0.407135	0.468794
	H304	H	0.457907	0.405545	0.470636
	H305	H	0.461642	0.408888	0.466998
	O306	O	0.802215	0.043013	-0.199908
	H307	H	0.810280	0.017182	-0.210828
	H308	H	0.803648	0.036551	-0.218245
	O309	O	0.348891	0.517600	0.622255
	H310	H	0.348872	0.523710	0.620687
	H311	H	0.324686	0.524341	0.643419
	O312	O	1.020155	1.195559	0.207459
	H313	H	1.015457	1.220408	0.208718
	H314	H	1.027384	1.199570	0.208948
	O315	O	1.258224	1.210335	0.207404
	H316	H	1.255465	1.182222	0.202976
	H317	H	1.243905	1.208859	0.221077
	O318	O	0.459594	0.446775	0.394221
	H319	H	0.461651	0.454328	0.383790
	H320	H	0.454703	0.446584	0.391913
	O321	O	0.973844	-0.224400	1.077441
	H322	H	0.984886	-0.207846	1.064540
	H323	H	0.958446	-0.241914	1.089590
	O324	O	0.026861	-0.132486	1.209320
	H325	H	0.038697	-0.106429	1.223743
	H326	H	0.018426	-0.124815	1.195216
	O327	O	0.398611	0.616342	0.393670
	H328	H	0.413484	0.600027	0.392319
	H329	H	0.383023	0.632734	0.385059
	O330	O	0.593982	0.498461	0.406899
	H331	H	0.585482	0.518256	0.392686
	H332	H	0.569552	0.495365	0.415502
	O333	O	0.997071	0.985463	0.807608
	H334	H	1.001002	0.995439	0.807033
	H335	H	0.997343	0.990864	0.803174
	O336	O	0.513427	0.390102	0.491544
	H337	H	0.516811	0.384990	0.493584
	H338	H	0.502757	0.388035	0.489863
	O339	O	1.087053	-0.149553	1.031464
	H340	H	1.072046	-0.146168	1.032250
	H341	H	1.074571	-0.154454	1.016847
	O342	O	-0.090491	0.780469	0.901047
	H343	H	-0.090004	0.761862	0.906981
	H344	H	-0.086401	0.782889	0.918614
	O345	O	-0.082331	0.787401	1.106863
	H346	H	-0.069750	0.788320	1.115495
	H347	H	-0.084414	0.792046	1.130945
	O348	O	0.527828	0.548993	0.596245
	H349	H	0.534164	0.534986	0.599176
	H350	H	0.519547	0.545077	0.596086
	O351	O	-0.183075	0.022228	0.011929
	H352	H	-0.185345	0.024210	0.023289
	H353	H	-0.196443	0.028929	0.000050
	O354	O	0.796745	0.852743	0.190022
	H355	H	0.803819	0.848111	0.205039
	H356	H	0.800089	0.851255	0.170090
	O357	O	0.200262	0.784095	-0.200304
	H358	H	0.204486	0.809565	-0.184310
	H359	H	0.200756	0.792332	-0.169427
	O360	O	0.462033	0.503529	0.452721
	H361	H	0.458790	0.507125	0.474211
	H362	H	0.456053	0.498187	0.459925
	O363	O	0.475771	0.509117	0.547559
	H364	H	0.481079	0.515255	0.546993
	H365	H	0.491860	0.495899	0.543317
	O366	O	0.510476	0.450810	0.461815
	H367	H	0.501671	0.449465	0.464290
	H368	H	0.496645	0.450500	0.457924
	O369	O	0.149060	1.028661	0.146667
	H370	H	0.145226	1.020744	0.159984
	H371	H	0.162539	1.011867	0.137582
	O372	O	0.416168	0.669360	0.493743
	H373	H	0.417248	0.655933	0.466218
	H374	H	0.405853	0.692353	0.495430
	O375	O	0.558260	0.645220	0.367981
	H376	H	0.557397	0.640167	0.371142
	H377	H	0.561600	0.649640	0.367524
	O378	O	-0.051896	1.200082	0.002346
	H379	H	-0.042144	1.204632	-0.010461
	H380	H	-0.046973	1.182097	-0.002502
	O381	O	0.906136	0.237743	0.756455
	H382	H	0.905844	0.265537	0.724825
	H383	H	0.866527	0.231984	0.765535
	O384	O	0.382137	0.438604	0.551958
	H385	H	0.381990	0.449256	0.547753
	H386	H	0.383265	0.436521	0.552589
	O387	O	1.024671	1.087341	-0.082648
	H388	H	1.029254	1.089446	-0.082605
	H389	H	1.019851	1.094689	-0.101203
	O390	O	0.513259	0.434162	0.557486
	H391	H	0.509038	0.424432	0.554263
	H392	H	0.516153	0.436271	0.554498
	O393	O	1.187271	0.129655	0.919146
	H394	H	1.176985	0.136891	0.931211
	H395	H	1.188111	0.144763	0.937240
	O396	O	-0.188243	1.162019	1.037571
	H397	H	-0.177761	1.176667	1.053321
	H398	H	-0.194428	1.181505	1.040746
	O399	O	-0.195780	1.143208	0.805367
	H400	H	-0.209913	1.148676	0.835653
	H401	H	-0.202460	1.103561	0.801713
	O402	O	0.854751	-0.022260	1.219743
	H403	H	0.824544	-0.019613	1.246702
	H404	H	0.865888	-0.036937	1.197655
	O405	O	-0.175134	-0.142949	-0.065821
	H406	H	-0.174500	-0.150672	-0.066907
	H407	H	-0.173241	-0.136388	-0.068825
	O408	O	1.582851	1.589889	1.649029
	H409	H	1.578930	1.574500	1.646208
	H410	H	1.567631	1.592464	1.647703
	O411	O	0.944241	0.996796	0.012699
	H412	H	0.931820	1.010850	0.004785
	H413	H	0.939831	0.985834	0.029275
	O414	O	0.188957	-0.129581	1.110597
	H415	H	0.180268	-0.128871	1.082949
	H416	H	0.170261	-0.114039	1.109359
	O417	O	0.129758	-0.010501	1.005510
	H418	H	0.135500	-0.009404	0.993557
	H419	H	0.120505	-0.016860	1.006458
	O420	O	0.193740	1.186202	0.058986
	H421	H	0.196945	1.168805	0.077825
	H422	H	0.181070	1.196955	0.075213
	O423	O	0.813683	0.021426	-0.029548
	H424	H	0.827875	0.026185	-0.040526
	H425	H	0.810486	0.027258	-0.041030
	O426	O	0.183445	-0.000737	0.842276
	H427	H	0.197920	0.027682	0.846292
	H428	H	0.162928	0.010357	0.833861
	O429	O	1.197536	0.840679	0.885950
	H430	H	1.172121	0.841462	0.897126
	H431	H	1.216680	0.833922	0.884622
