data_Molecule from HDF5

_cell_length_a		16.215233
_cell_length_b		16.409240
_cell_length_c		16.320734
_cell_angle_alpha	90.624532
_cell_angle_beta	90.314394
_cell_angle_gamma	90.030590
_symmetry_space_group_name_H-M	'P 1'
_symmetry_Int_Tables_number		1

loop_
	_symmetry_equiv_pos_as_xyz
	x,y,z

loop_
	_atom_site_label
	_atom_site_type_symbol
	_atom_site_fract_x
	_atom_site_fract_y
	_atom_site_fract_z
	H0	H	0.403079	0.831943	0.711104
	H1	H	0.605639	0.155339	0.718219
	H2	H	0.606577	0.835725	0.275904
	H3	H	0.398700	0.155713	0.279254
	H4	H	0.713723	0.394071	0.829973
	H5	H	0.720056	0.595904	0.156088
	H6	H	0.284613	0.595071	0.831826
	H7	H	0.285452	0.399239	0.156585
	H8	H	0.837782	0.710950	0.391780
	H9	H	0.162749	0.713366	0.597884
	H10	H	0.837285	0.279312	0.589325
	H11	H	0.165036	0.276555	0.390798
	H12	H	0.836118	0.395710	0.704577
	H13	H	0.161904	0.598532	0.712968
	H14	H	0.836392	0.590569	0.279235
	H15	H	0.164832	0.393111	0.276728
	H16	H	0.397444	0.714206	0.834569
	H17	H	0.607741	0.714712	0.155918
	H18	H	0.602764	0.272620	0.834105
	H19	H	0.399452	0.281243	0.157628
	H20	H	0.715259	0.832673	0.398382
	H21	H	0.717740	0.157576	0.598119
	H22	H	0.283524	0.833496	0.596014
	H23	H	0.284260	0.156351	0.396856
	H24	H	0.898991	0.332832	0.207921
	H25	H	0.103038	0.655468	0.215006
	H26	H	0.100571	0.334524	0.773040
	H27	H	0.895168	0.656999	0.775476
	H28	H	0.218643	0.892172	0.334031
	H29	H	0.219036	0.098122	0.657499
	H30	H	0.784151	0.091276	0.333132
	H31	H	0.789598	0.898024	0.659425
	H32	H	0.338532	0.209659	0.895182
	H33	H	0.664563	0.214062	0.100320
	H34	H	0.340478	0.777074	0.099028
	H35	H	0.664522	0.776627	0.894786
	H36	H	0.340365	0.894403	0.213122
	H37	H	0.665893	0.097417	0.214770
	H38	H	0.339757	0.094382	0.778815
	H39	H	0.666154	0.892781	0.782385
	H40	H	0.899262	0.206965	0.331082
	H41	H	0.106760	0.217720	0.654204
	H42	H	0.103558	0.775790	0.333631
	H43	H	0.898750	0.777316	0.655685
	H44	H	0.217302	0.334306	0.890367
	H45	H	0.217080	0.657883	0.096076
	H46	H	0.787072	0.331781	0.088271
	H47	H	0.781380	0.656623	0.892886
	H48	H	0.407594	0.110755	0.590060
	H49	H	0.599065	0.878146	0.591157
	H50	H	0.591201	0.109283	0.410299
	H51	H	0.415015	0.883031	0.404770
	H52	H	0.595142	0.405920	0.109844
	H53	H	0.597899	0.584425	0.877759
	H54	H	0.410738	0.588709	0.110269
	H55	H	0.409184	0.393759	0.876731
	H56	H	0.117833	0.591873	0.404741
	H57	H	0.882777	0.583813	0.589008
	H58	H	0.115854	0.399576	0.577785
	H59	H	0.883940	0.395307	0.397961
	H60	H	0.112626	0.412812	0.580129
	H61	H	0.881769	0.594634	0.582868
	H62	H	0.114709	0.582086	0.409900
	H63	H	0.885637	0.400026	0.402550
	H64	H	0.410189	0.586719	0.108813
	H65	H	0.585213	0.579437	0.882900
	H66	H	0.592564	0.404897	0.109166
	H67	H	0.404364	0.405089	0.878781
	H68	H	0.597997	0.111339	0.407622
	H69	H	0.593321	0.879639	0.591261
	H70	H	0.416020	0.108397	0.593235
	H71	H	0.410281	0.880995	0.406291
	H72	H	0.910089	0.611644	0.093939
	H73	H	0.096634	0.378537	0.086172
	H74	H	0.089983	0.610125	0.900421
	H75	H	0.913539	0.380446	0.890118
	H76	H	0.097257	0.913412	0.609062
	H77	H	0.090724	0.088688	0.378837
	H78	H	0.912419	0.089004	0.609672
	H79	H	0.903891	0.900712	0.377913
	H80	H	0.618262	0.088610	0.909706
	H81	H	0.385661	0.087809	0.090346
	H82	H	0.618869	0.908798	0.092104
	H83	H	0.389239	0.905343	0.910585
	H84	H	0.620159	0.898629	0.086289
	H85	H	0.386239	0.089412	0.086831
	H86	H	0.615831	0.083168	0.910451
	H87	H	0.386566	0.908475	0.899172
	H88	H	0.912522	0.090563	0.610965
	H89	H	0.097387	0.083384	0.378916
	H90	H	0.082393	0.904542	0.607379
	H91	H	0.910261	0.906090	0.381584
	H92	H	0.089307	0.607885	0.905171
	H93	H	0.088709	0.381834	0.085224
	H94	H	0.917401	0.605820	0.083040
	H95	H	0.912104	0.384541	0.905625
	H96	H	0.413455	0.106197	0.584189
	H97	H	0.596429	0.880575	0.586583
	H98	H	0.592175	0.110601	0.402671
	H99	H	0.411968	0.880258	0.401423
	H100	H	0.594846	0.402865	0.110169
	H101	H	0.586618	0.593331	0.878223
	H102	H	0.412182	0.587522	0.109369
	H103	H	0.416179	0.402751	0.882349
	H104	H	0.117255	0.582019	0.398585
	H105	H	0.887108	0.584939	0.577971
	H106	H	0.118150	0.405226	0.589758
	H107	H	0.885157	0.401929	0.396135
	H108	H	0.903580	0.610115	0.081188
	H109	H	0.093740	0.382147	0.079207
	H110	H	0.093564	0.610439	0.903815
	H111	H	0.899185	0.378293	0.896751
	H112	H	0.096344	0.896570	0.614406
	H113	H	0.089025	0.081067	0.382246
	H114	H	0.910504	0.089733	0.611023
	H115	H	0.912192	0.897538	0.379740
	H116	H	0.618714	0.084507	0.905154
	H117	H	0.386750	0.085702	0.087395
	H118	H	0.615770	0.908060	0.080938
	H119	H	0.383769	0.897529	0.903270
	C120	C	0.381486	0.002108	0.618201
	C121	C	0.626019	0.986246	0.620163
	C122	C	0.623746	0.003853	0.375644
	C123	C	0.380730	0.986998	0.374218
	C124	C	0.623240	0.372910	0.002888
	C125	C	0.622183	0.616296	0.986280
	C126	C	0.379928	0.617375	0.003222
	C127	C	0.379760	0.373033	0.986375
	C128	C	0.008538	0.614357	0.373628
	C129	C	0.991060	0.618037	0.615193
	C130	C	0.008355	0.375208	0.611868
	C131	C	0.992865	0.370449	0.369574
	C132	C	0.880460	0.502421	0.113811
	C133	C	0.123194	0.487250	0.115517
	C134	C	0.121509	0.503591	0.871266
	C135	C	0.877458	0.487457	0.869416
	C136	C	0.122888	0.873335	0.503680
	C137	C	0.123819	0.116780	0.486092
	C138	C	0.880979	0.116512	0.502993
	C139	C	0.879721	0.873020	0.486981
	C140	C	0.510357	0.115151	0.876784
	C141	C	0.493747	0.117862	0.119106
	C142	C	0.511076	0.874493	0.117440
	C143	C	0.494016	0.873059	0.874953
	C144	C	0.382529	0.880698	0.673536
	C145	C	0.624895	0.107475	0.678585
	C146	C	0.624542	0.883363	0.316198
	C147	C	0.379906	0.107611	0.317727
	C148	C	0.677482	0.373194	0.879655
	C149	C	0.681210	0.615817	0.107761
	C150	C	0.322646	0.615518	0.880877
	C151	C	0.323474	0.377539	0.108342
	C152	C	0.886438	0.671518	0.373103
	C153	C	0.113861	0.674869	0.616422
	C154	C	0.886112	0.317755	0.609991
	C155	C	0.115920	0.314762	0.371205
	C156	C	0.885275	0.376210	0.666780
	C157	C	0.113412	0.617827	0.673795
	C158	C	0.885569	0.611821	0.317085
	C159	C	0.115890	0.373101	0.314558
	C160	C	0.378835	0.674853	0.882265
	C161	C	0.625236	0.674919	0.107551
	C162	C	0.621824	0.313308	0.881544
	C163	C	0.380010	0.318631	0.108534
	C164	C	0.678900	0.881770	0.376997
	C165	C	0.680961	0.108568	0.618951
	C166	C	0.323184	0.881269	0.616469
	C167	C	0.323088	0.108079	0.376478
	C168	C	0.880851	0.380883	0.168976
	C169	C	0.122711	0.607698	0.175216
	C170	C	0.120697	0.382739	0.812391
	C171	C	0.876774	0.608647	0.813937
	C172	C	0.180190	0.873142	0.382209
	C173	C	0.181111	0.117701	0.608355
	C174	C	0.822764	0.112611	0.381309
	C175	C	0.825234	0.876415	0.609691
	C176	C	0.387647	0.171816	0.875684
	C177	C	0.616134	0.175348	0.119563
	C178	C	0.389103	0.816484	0.117893
	C179	C	0.615968	0.815433	0.875923
	C180	C	0.389037	0.874953	0.174707
	C181	C	0.616769	0.116911	0.176206
	C182	C	0.388192	0.114349	0.818009
	C183	C	0.616735	0.873245	0.819646
	C184	C	0.880406	0.169842	0.380205
	C185	C	0.124908	0.176859	0.606828
	C186	C	0.122781	0.815102	0.382202
	C187	C	0.880102	0.816397	0.608101
	C188	C	0.178837	0.382622	0.870765
	C189	C	0.179308	0.608990	0.115740
	C190	C	0.824328	0.380676	0.110037
	C191	C	0.819666	0.608474	0.872166
	C192	C	0.405246	0.086493	0.595844
	C193	C	0.602990	0.901435	0.596549
	C194	C	0.600524	0.088560	0.399782
	C195	C	0.405152	0.903170	0.397355
	C196	C	0.600859	0.397459	0.087698
	C197	C	0.597169	0.592430	0.901755
	C198	C	0.404017	0.594217	0.087632
	C199	C	0.402990	0.394275	0.901237
	C200	C	0.094398	0.591795	0.397588
	C201	C	0.905954	0.594677	0.590603
	C202	C	0.093523	0.398924	0.589129
	C203	C	0.907027	0.392552	0.392113
	C204	C	0.903688	0.587138	0.092384
	C205	C	0.099988	0.402753	0.090655
	C206	C	0.097729	0.587855	0.895975
	C207	C	0.901186	0.402985	0.891018
	C208	C	0.098971	0.897649	0.588318
	C209	C	0.099701	0.091582	0.401839
	C210	C	0.904934	0.095887	0.588186
	C211	C	0.902239	0.895172	0.401833
	C212	C	0.595472	0.092179	0.901278
	C213	C	0.408385	0.094418	0.095060
	C214	C	0.596118	0.898207	0.093504
	C215	C	0.408718	0.896814	0.897808
	Zn216	Zn	0.503145	-0.005928	0.748035
	Zn217	Zn	0.502837	-0.004152	0.246131
	Zn218	Zn	0.750851	0.494873	-0.007235
	Zn219	Zn	0.251697	0.495789	-0.006580
	Zn220	Zn	0.000896	0.745059	0.494253
	Zn221	Zn	0.001923	0.244781	0.492552
	Zn222	Zn	-0.000943	0.496338	0.741099
	Zn223	Zn	0.000994	0.493745	0.243770
	Zn224	Zn	0.502008	0.745631	-0.004099
	Zn225	Zn	0.501477	0.244597	-0.003106
	Zn226	Zn	0.752491	-0.004594	0.496899
	Zn227	Zn	0.251858	-0.005354	0.496018
	N228	N	0.417997	0.956869	0.674648
	N229	N	0.591559	0.030367	0.679447
	N230	N	0.590910	0.960264	0.315449
	N231	N	0.414951	0.031398	0.316248
	N232	N	0.678554	0.409455	0.955989
	N233	N	0.679469	0.579793	0.031318
	N234	N	0.323058	0.580630	0.957181
	N235	N	0.323075	0.410479	0.031295
	N236	N	0.964134	0.673377	0.407354
	N237	N	0.036934	0.675116	0.580683
	N238	N	0.963612	0.317168	0.576522
	N239	N	0.038325	0.312923	0.404625
	N240	N	0.962200	0.411487	0.668023
	N241	N	0.036133	0.583298	0.673240
	N242	N	0.962717	0.576907	0.317530
	N243	N	0.038187	0.406676	0.313181
	N244	N	0.413738	0.676076	0.959230
	N245	N	0.589290	0.675222	0.031131
	N246	N	0.588907	0.313028	0.958941
	N247	N	0.414192	0.315690	0.031587
	N248	N	0.678564	0.957758	0.413274
	N249	N	0.681600	0.032212	0.583287
	N250	N	0.322485	0.957673	0.582768
	N251	N	0.323198	0.031899	0.410896
	N252	N	0.914990	0.457557	0.171485
	N253	N	0.088651	0.530926	0.175125
	N254	N	0.085818	0.459221	0.812327
	N255	N	0.911969	0.532402	0.812002
	N256	N	0.180327	0.908697	0.458837
	N257	N	0.180349	0.080833	0.532465
	N258	N	0.822825	0.080239	0.458572
	N259	N	0.824891	0.910932	0.533331
	N260	N	0.464603	0.172305	0.911596
	N261	N	0.538498	0.176485	0.085191
	N262	N	0.465934	0.816100	0.083040
	N263	N	0.538366	0.815184	0.909632
	N264	N	0.465985	0.910326	0.174477
	N265	N	0.539640	0.082131	0.176191
	N266	N	0.465463	0.080005	0.818399
	N267	N	0.539844	0.908245	0.818743
	N268	N	0.916065	0.172394	0.456893
	N269	N	0.090242	0.176712	0.529785
	N270	N	0.087695	0.815349	0.458717
	N271	N	0.913347	0.814338	0.530885
	N272	N	0.179313	0.458756	0.906621
	N273	N	0.179727	0.532996	0.079345
	N274	N	0.824161	0.456993	0.076084
	N275	N	0.819930	0.532067	0.905810
	O276	O	0.044682	-0.096986	-0.176399
	H277	H	0.032781	-0.093951	-0.178543
	H278	H	0.044702	-0.090787	-0.182763
	O279	O	0.489299	0.568227	0.531222
	H280	H	0.474876	0.571470	0.531469
	H281	H	0.483748	0.550072	0.526273
	O282	O	1.017882	-0.057379	-0.019398
	H283	H	1.018688	-0.062722	-0.007731
	H284	H	1.020022	-0.055902	-0.010212
	O285	O	-0.126246	1.140220	-0.139099
	H286	H	-0.129847	1.132538	-0.136264
	H287	H	-0.116192	1.140388	-0.139224
	O288	O	0.546437	0.481256	0.485243
	H289	H	0.541491	0.487451	0.485082
	H290	H	0.553572	0.491200	0.493234
	O291	O	0.463675	0.537678	0.374834
	H292	H	0.456233	0.546482	0.381378
	H293	H	0.453080	0.532208	0.371570
	O294	O	1.102697	0.963079	1.007203
	H295	H	1.102724	0.960095	1.002336
	H296	H	1.118581	0.971553	1.011454
	O297	O	0.094334	0.170307	0.129049
	H298	H	0.094363	0.169594	0.117061
	H299	H	0.099813	0.179466	0.139987
	O300	O	0.324841	0.418688	0.437150
	H301	H	0.328146	0.416577	0.443536
	H302	H	0.317859	0.401371	0.445232
	O303	O	-0.015533	1.039457	1.042830
	H304	H	-0.030462	1.037609	1.032520
	H305	H	-0.022223	1.035141	1.041496
	O306	O	0.523293	0.462923	0.429113
	H307	H	0.527071	0.463303	0.435863
	H308	H	0.519091	0.457252	0.427384
	O309	O	0.966484	0.019175	0.034101
	H310	H	0.966648	0.017582	0.038986
	H311	H	0.962762	0.016179	0.019157
	O312	O	-0.021135	0.076116	0.864208
	H313	H	-0.024475	0.068230	0.869441
	H314	H	-0.018289	0.077660	0.848066
	O315	O	0.509110	0.601529	0.603108
	H316	H	0.511864	0.595621	0.605324
	H317	H	0.514224	0.592500	0.592259
	O318	O	0.505669	0.654209	0.541287
	H319	H	0.491951	0.664568	0.544877
	H320	H	0.486876	0.648040	0.537907
	O321	O	0.488138	0.490790	0.594156
	H322	H	0.504285	0.497497	0.588839
	H323	H	0.495672	0.497851	0.594971
	O324	O	0.463049	0.560987	0.500462
	H325	H	0.473594	0.560879	0.496654
	H326	H	0.460142	0.564017	0.504250
	O327	O	0.024733	1.082697	0.917319
	H328	H	0.012882	1.077465	0.934603
	H329	H	0.023246	1.078262	0.907367
	O330	O	0.348608	0.375137	0.636531
	H331	H	0.343936	0.380324	0.646250
	H332	H	0.370845	0.371603	0.633060
	O333	O	0.093868	1.011977	1.126217
	H334	H	0.095956	1.014427	1.132373
	H335	H	0.098129	1.022581	1.132483
	O336	O	0.983778	0.826824	1.042839
	H337	H	0.987549	0.838819	1.027411
	H338	H	1.001111	0.822128	1.032363
	O339	O	0.534063	0.477018	0.499334
	H340	H	0.527608	0.482320	0.498025
	H341	H	0.528060	0.481971	0.501474
	O342	O	0.978949	-0.158227	-0.034420
	H343	H	0.982780	-0.142354	-0.028247
	H344	H	0.985187	-0.165843	-0.033407
	O345	O	0.366149	0.586538	0.457407
	H346	H	0.371295	0.584719	0.473483
	H347	H	0.363595	0.594089	0.460649
	O348	O	1.044828	1.084366	0.925357
	H349	H	1.034057	1.073235	0.910454
	H350	H	1.054620	1.086948	0.917064
	O351	O	1.018147	0.979933	-0.092715
	H352	H	1.007063	0.980685	-0.113981
	H353	H	1.026619	0.976571	-0.103145
	O354	O	0.596944	0.441821	0.498824
	H355	H	0.599912	0.445421	0.487071
	H356	H	0.598437	0.447335	0.493148
	O357	O	0.509268	0.493825	0.396082
	H358	H	0.516588	0.482718	0.396520
	H359	H	0.491537	0.506068	0.398817
	O360	O	-0.033111	0.083048	0.057018
	H361	H	-0.029383	0.101253	0.068509
	H362	H	-0.013734	0.090399	0.057577
	O363	O	0.615522	0.635016	0.555390
	H364	H	0.612751	0.656362	0.539154
	H365	H	0.608380	0.635260	0.549173
	O366	O	0.544250	0.441205	0.472666
	H367	H	0.543922	0.457047	0.466719
	H368	H	0.543934	0.442849	0.475398
	O369	O	0.544051	0.426123	0.451654
	H370	H	0.543494	0.420683	0.459183
	H371	H	0.553887	0.423373	0.435328
	O372	O	0.443335	0.460937	0.550648
	H373	H	0.453078	0.450867	0.555656
	H374	H	0.440436	0.467396	0.545641
	O375	O	0.524779	0.349667	0.514569
	H376	H	0.525198	0.345615	0.529062
	H377	H	0.529000	0.349444	0.514044
	O378	O	0.585345	0.509631	0.433858
	H379	H	0.566161	0.524278	0.420472
	H380	H	0.596437	0.504326	0.426297
	O381	O	0.175578	1.110491	1.089600
	H382	H	0.176949	1.104467	1.082265
	H383	H	0.182256	1.110437	1.082103
	O384	O	0.037536	0.843062	0.106078
	H385	H	0.037003	0.843943	0.097737
	H386	H	0.037102	0.834531	0.110307
	O387	O	1.021298	0.116131	1.056947
	H388	H	1.019491	0.114944	1.062290
	H389	H	1.019425	0.119075	1.065097
	O390	O	-0.114012	0.874250	0.118760
	H391	H	-0.116152	0.864669	0.124253
	H392	H	-0.122611	0.879042	0.123848
	O393	O	1.105231	0.965641	-0.036153
	H394	H	1.117393	0.967312	-0.031779
	H395	H	1.096787	0.977440	-0.023135
	O396	O	0.500834	0.373943	0.409438
	H397	H	0.519746	0.371441	0.412802
	H398	H	0.497258	0.361703	0.399729
	O399	O	-0.122782	0.883691	1.016757
	H400	H	-0.121601	0.881172	1.021618
	H401	H	-0.128105	0.895967	1.012690
	O402	O	0.906165	0.964215	0.977418
	H403	H	0.912252	0.970438	0.984311
	H404	H	0.900708	0.967810	0.973776
	O405	O	0.409303	0.555815	0.502071
	H406	H	0.414546	0.553641	0.504801
	H407	H	0.408750	0.549209	0.490723
