data_Molecule from HDF5

_cell_length_a		16.507590
_cell_length_b		16.566749
_cell_length_c		16.721620
_cell_angle_alpha	89.990244
_cell_angle_beta	89.795071
_cell_angle_gamma	89.961691
_symmetry_space_group_name_H-M	'P 1'
_symmetry_Int_Tables_number		1

loop_
	_symmetry_equiv_pos_as_xyz
	x,y,z

loop_
	_atom_site_label
	_atom_site_type_symbol
	_atom_site_fract_x
	_atom_site_fract_y
	_atom_site_fract_z
	H0	H	0.397583	0.879811	0.720117
	H1	H	0.608044	0.191841	0.718190
	H2	H	0.609312	0.878576	0.277110
	H3	H	0.396186	0.188637	0.274137
	H4	H	0.720893	0.432536	0.838377
	H5	H	0.727705	0.642023	0.148757
	H6	H	0.279231	0.643743	0.842891
	H7	H	0.281271	0.432411	0.151746
	H8	H	0.845930	0.755139	0.393606
	H9	H	0.160820	0.754202	0.598602
	H10	H	0.847172	0.314331	0.600701
	H11	H	0.159056	0.313643	0.390284
	H12	H	0.847759	0.428735	0.717975
	H13	H	0.159353	0.640894	0.716954
	H14	H	0.846357	0.641863	0.275044
	H15	H	0.157815	0.428798	0.272865
	H16	H	0.396925	0.759946	0.843333
	H17	H	0.613502	0.760464	0.148110
	H18	H	0.604604	0.315151	0.839925
	H19	H	0.398211	0.314879	0.152771
	H20	H	0.720715	0.876187	0.397087
	H21	H	0.725413	0.190878	0.602743
	H22	H	0.283870	0.878134	0.601544
	H23	H	0.281052	0.189621	0.391291
	H24	H	0.894452	0.379193	0.219320
	H25	H	0.109375	0.689581	0.218851
	H26	H	0.111340	0.379257	0.772819
	H27	H	0.897480	0.689941	0.773703
	H28	H	0.226581	0.930364	0.342162
	H29	H	0.225904	0.142507	0.651392
	H30	H	0.781509	0.139449	0.341939
	H31	H	0.786849	0.933725	0.655075
	H32	H	0.343984	0.251500	0.897476
	H33	H	0.661966	0.252984	0.098787
	H34	H	0.346996	0.814993	0.101398
	H35	H	0.660210	0.814984	0.894021
	H36	H	0.348383	0.928724	0.220254
	H37	H	0.661239	0.137993	0.216560
	H38	H	0.345391	0.139399	0.778252
	H39	H	0.659472	0.928735	0.774957
	H40	H	0.896407	0.257654	0.341551
	H41	H	0.110511	0.258917	0.650970
	H42	H	0.108935	0.815090	0.340449
	H43	H	0.903459	0.817010	0.653472
	H44	H	0.224978	0.378727	0.890762
	H45	H	0.222773	0.691300	0.099515
	H46	H	0.784440	0.376178	0.098204
	H47	H	0.783540	0.690865	0.893338
	H48	H	0.405949	0.148966	0.583443
	H49	H	0.596642	0.920819	0.589336
	H50	H	0.594247	0.146934	0.408455
	H51	H	0.421383	0.923739	0.406828
	H52	H	0.596026	0.443070	0.107757
	H53	H	0.587386	0.620962	0.888526
	H54	H	0.410811	0.620027	0.107002
	H55	H	0.417033	0.440510	0.884801
	H56	H	0.113141	0.615595	0.407423
	H57	H	0.890938	0.622106	0.587313
	H58	H	0.118260	0.441566	0.584066
	H59	H	0.889415	0.443950	0.406238
	H60	H	0.113460	0.449471	0.579172
	H61	H	0.890831	0.625229	0.585159
	H62	H	0.119057	0.624810	0.395293
	H63	H	0.891705	0.447100	0.411461
	H64	H	0.418790	0.619728	0.103520
	H65	H	0.590805	0.626720	0.885269
	H66	H	0.593322	0.442982	0.108540
	H67	H	0.409797	0.442185	0.883587
	H68	H	0.592602	0.147524	0.405786
	H69	H	0.590533	0.921783	0.591716
	H70	H	0.415797	0.149541	0.597048
	H71	H	0.416548	0.924960	0.414188
	H72	H	0.921710	0.642462	0.083672
	H73	H	0.092524	0.422470	0.084307
	H74	H	0.086520	0.643666	0.907948
	H75	H	0.909811	0.418452	0.902342
	H76	H	0.092012	0.944502	0.607410
	H77	H	0.086292	0.125718	0.387697
	H78	H	0.915136	0.128566	0.608309
	H79	H	0.916392	0.943902	0.386562
	H80	H	0.616694	0.121811	0.902160
	H81	H	0.390639	0.125569	0.085261
	H82	H	0.617959	0.945071	0.088946
	H83	H	0.392669	0.949883	0.911836
	H84	H	0.615656	0.945362	0.082579
	H85	H	0.392508	0.119958	0.087910
	H86	H	0.617382	0.129231	0.907320
	H87	H	0.390815	0.949822	0.907068
	H88	H	0.910571	0.122787	0.608299
	H89	H	0.096307	0.124136	0.384862
	H90	H	0.092976	0.942711	0.608556
	H91	H	0.909825	0.939822	0.381978
	H92	H	0.095013	0.647146	0.908210
	H93	H	0.089069	0.422788	0.086544
	H94	H	0.910159	0.646142	0.079763
	H95	H	0.919714	0.422591	0.901763
	H96	H	0.422024	0.142708	0.582944
	H97	H	0.592349	0.924098	0.586070
	H98	H	0.591380	0.146629	0.408547
	H99	H	0.412353	0.921082	0.407337
	H100	H	0.595203	0.440913	0.109020
	H101	H	0.594394	0.620368	0.885497
	H102	H	0.416171	0.626211	0.107957
	H103	H	0.414505	0.446743	0.886750
	H104	H	0.116503	0.631946	0.410574
	H105	H	0.891922	0.622110	0.583366
	H106	H	0.116734	0.450730	0.588724
	H107	H	0.890523	0.450136	0.406224
	H108	H	0.913814	0.648591	0.091571
	H109	H	0.089581	0.425375	0.082741
	H110	H	0.089821	0.647492	0.900874
	H111	H	0.913537	0.423486	0.910942
	H112	H	0.093840	0.945014	0.607889
	H113	H	0.091190	0.116804	0.389877
	H114	H	0.917228	0.122651	0.604500
	H115	H	0.908301	0.948171	0.385172
	H116	H	0.613911	0.121663	0.910736
	H117	H	0.390091	0.124773	0.091406
	H118	H	0.614882	0.950570	0.086253
	H119	H	0.391097	0.945771	0.909712
	C120	C	0.382236	0.043709	0.619343
	C121	C	0.624481	1.026440	0.619520
	C122	C	0.624454	0.043007	0.376939
	C123	C	0.382911	1.025693	0.376552
	C124	C	0.625334	0.411986	0.004520
	C125	C	0.624787	0.655873	0.987524
	C126	C	0.381891	0.656358	0.004718
	C127	C	0.381470	0.412653	0.988108
	C128	C	0.012000	0.656282	0.373701
	C129	C	0.995260	0.655061	0.616395
	C130	C	0.012635	0.413995	0.616807
	C131	C	0.994163	0.414240	0.375377
	C132	C	0.881685	0.542738	0.117169
	C133	C	0.122792	0.526787	0.116555
	C134	C	0.124461	0.543185	0.873858
	C135	C	0.882608	0.525342	0.873929
	C136	C	0.125580	0.912823	0.505189
	C137	C	0.124962	0.156353	0.488631
	C138	C	0.881527	0.156660	0.504670
	C139	C	0.882403	0.913792	0.488646
	C140	C	0.511510	0.155734	0.876115
	C141	C	0.495161	0.155399	0.119294
	C142	C	0.512972	0.913671	0.119039
	C143	C	0.495098	0.914958	0.876711
	C144	C	0.379609	0.926278	0.679384
	C145	C	0.626637	0.144567	0.678567
	C146	C	0.627184	0.925207	0.317578
	C147	C	0.378876	0.142322	0.315025
	C148	C	0.682438	0.412495	0.885976
	C149	C	0.686842	0.659665	0.102682
	C150	C	0.320489	0.660890	0.889011
	C151	C	0.321349	0.412472	0.105273
	C152	C	0.893406	0.715760	0.373916
	C153	C	0.113529	0.714917	0.617689
	C154	C	0.894197	0.354249	0.618964
	C155	C	0.111955	0.353820	0.372061
	C156	C	0.894636	0.411054	0.677250
	C157	C	0.112871	0.658234	0.676230
	C158	C	0.893560	0.659355	0.314981
	C159	C	0.111441	0.411082	0.313990
	C160	C	0.378657	0.718851	0.889333
	C161	C	0.629975	0.718555	0.102597
	C162	C	0.624598	0.354248	0.886528
	C163	C	0.379370	0.354194	0.105721
	C164	C	0.682415	0.923978	0.377324
	C165	C	0.684861	0.144144	0.621092
	C166	C	0.323214	0.925489	0.620572
	C167	C	0.321748	0.142862	0.373409
	C168	C	0.877950	0.425409	0.177884
	C169	C	0.126273	0.643563	0.177394
	C170	C	0.128581	0.426098	0.813424
	C171	C	0.879550	0.643287	0.814359
	C172	C	0.186560	0.911294	0.388724
	C173	C	0.185973	0.160394	0.604715
	C174	C	0.821225	0.158538	0.388498
	C175	C	0.825615	0.914197	0.607384
	C176	C	0.391963	0.213190	0.877280
	C177	C	0.614354	0.213784	0.118686
	C178	C	0.394459	0.854184	0.120876
	C179	C	0.613334	0.854945	0.875020
	C180	C	0.395128	0.910913	0.179567
	C181	C	0.613960	0.156847	0.177255
	C182	C	0.392662	0.157373	0.817991
	C183	C	0.612825	0.911226	0.815981
	C184	C	0.878638	0.217140	0.388271
	C185	C	0.128415	0.218491	0.604250
	C186	C	0.127719	0.854175	0.387848
	C187	C	0.883551	0.856122	0.606688
	C188	C	0.185268	0.425752	0.871975
	C189	C	0.182919	0.644321	0.118369
	C190	C	0.822840	0.424198	0.117902
	C191	C	0.822964	0.643697	0.873463
	C192	C	0.407352	0.125801	0.594704
	C193	C	0.600150	0.943897	0.595813
	C194	C	0.599837	0.125542	0.400852
	C195	C	0.409276	0.944427	0.402311
	C196	C	0.601733	0.435621	0.087070
	C197	C	0.598275	0.630175	0.907193
	C198	C	0.407993	0.629683	0.085064
	C199	C	0.406444	0.436277	0.906384
	C200	C	0.094701	0.631307	0.397628
	C201	C	0.912782	0.630123	0.592251
	C202	C	0.094657	0.439792	0.591329
	C203	C	0.911987	0.439616	0.400858
	C204	C	0.907681	0.624472	0.092181
	C205	C	0.097459	0.444827	0.091456
	C206	C	0.098107	0.624908	0.898782
	C207	C	0.907433	0.443054	0.898151
	C208	C	0.100258	0.937122	0.586671
	C209	C	0.098710	0.129812	0.408352
	C210	C	0.907053	0.131758	0.585943
	C211	C	0.905012	0.937199	0.406281
	C212	C	0.594420	0.131238	0.899740
	C213	C	0.412649	0.130550	0.095518
	C214	C	0.594823	0.939566	0.093313
	C215	C	0.412990	0.940974	0.902138
	Zn216	Zn	0.503127	0.035258	0.748009
	Zn217	Zn	0.504543	0.034424	0.247834
	Zn218	Zn	0.753881	0.533708	-0.004758
	Zn219	Zn	0.252406	0.534730	-0.004112
	Zn220	Zn	0.003741	0.783677	0.495730
	Zn221	Zn	0.003390	0.285627	0.495998
	Zn222	Zn	0.003643	0.534537	0.745080
	Zn223	Zn	0.001952	0.534584	0.246154
	Zn224	Zn	0.503355	0.786079	-0.002913
	Zn225	Zn	0.503228	0.283325	-0.002622
	Zn226	Zn	0.752656	0.034695	0.497695
	Zn227	Zn	0.254175	0.034747	0.497763
	N228	N	0.415377	1.000985	0.679087
	N229	N	0.589883	0.070282	0.677875
	N230	N	0.592099	1.000301	0.317009
	N231	N	0.416314	0.068433	0.316645
	N232	N	0.683096	0.447356	0.960561
	N233	N	0.683743	0.621000	0.030234
	N234	N	0.322412	0.622594	0.961772
	N235	N	0.322426	0.447908	0.031036
	N236	N	0.968144	0.714073	0.409732
	N237	N	0.039307	0.713075	0.581104
	N238	N	0.968598	0.355891	0.582084
	N239	N	0.037938	0.355665	0.409452
	N240	N	0.969258	0.447457	0.676033
	N241	N	0.038333	0.621690	0.675595
	N242	N	0.968371	0.623101	0.314744
	N243	N	0.037087	0.448021	0.316018
	N244	N	0.416330	0.716039	0.962241
	N245	N	0.591531	0.715976	0.030117
	N246	N	0.590117	0.353444	0.961454
	N247	N	0.415967	0.354075	0.031878
	N248	N	0.681244	0.998435	0.413419
	N249	N	0.683809	0.069653	0.585259
	N250	N	0.324662	0.999578	0.583934
	N251	N	0.324076	0.069343	0.410990
	N252	N	0.913569	0.500377	0.177869
	N253	N	0.089675	0.569298	0.176456
	N254	N	0.091635	0.500343	0.814166
	N255	N	0.915697	0.568629	0.814434
	N256	N	0.185464	0.946924	0.462782
	N257	N	0.184152	0.122340	0.531746
	N258	N	0.822782	0.121652	0.462046
	N259	N	0.824224	0.948876	0.532849
	N260	N	0.466862	0.212235	0.912726
	N261	N	0.539255	0.213294	0.083394
	N262	N	0.468734	0.855851	0.083844
	N263	N	0.539077	0.857374	0.912199
	N264	N	0.470050	0.946745	0.178790
	N265	N	0.538703	0.121702	0.177932
	N266	N	0.468148	0.122383	0.816968
	N267	N	0.538261	0.947930	0.816945
	N268	N	0.915488	0.216102	0.461718
	N269	N	0.091269	0.216271	0.531017
	N270	N	0.090768	0.854617	0.461490
	N271	N	0.917696	0.855278	0.531721
	N272	N	0.183123	0.499726	0.908691
	N273	N	0.180796	0.570595	0.080995
	N274	N	0.824831	0.498212	0.080827
	N275	N	0.824608	0.569270	0.909662
	O276	O	0.059321	0.981354	0.231027
	H277	H	0.046959	0.972419	0.234201
	H278	H	0.065432	0.996758	0.231622
	O279	O	-0.014666	0.183045	0.049264
	H280	H	-0.003509	0.191775	0.048899
	H281	H	-0.023621	0.202462	0.063598
	O282	O	0.906463	0.253550	0.976584
	H283	H	0.903699	0.254783	0.963744
	H284	H	0.877763	0.265898	0.981393
	O285	O	0.194846	0.049803	0.802434
	H286	H	0.190487	0.058565	0.798074
	H287	H	0.197876	0.059325	0.802984
	O288	O	0.538404	0.738377	0.710937
	H289	H	0.524100	0.752740	0.712772
	H290	H	0.516457	0.726657	0.688197
	O291	O	-0.283916	0.314507	0.470656
	H292	H	-0.256519	0.298911	0.464223
	H293	H	-0.282212	0.331822	0.470052
	O294	O	1.210291	-0.176590	0.967658
	H295	H	1.220410	-0.198314	0.969082
	H296	H	1.205595	-0.177128	0.945824
	O297	O	0.314053	0.346048	0.309502
	H298	H	0.322284	0.361679	0.323878
	H299	H	0.333371	0.357808	0.330687
	O300	O	-0.463224	-0.688950	0.275042
	H301	H	-0.445615	-0.677583	0.293337
	H302	H	-0.462287	-0.718147	0.241152
	O303	O	0.699148	0.337050	0.297382
	H304	H	0.693166	0.349316	0.315574
	H305	H	0.691485	0.366030	0.302438
	O306	O	0.168972	0.249329	1.077975
	H307	H	0.175819	0.244908	1.099309
	H308	H	0.184135	0.261216	1.101837
	O309	O	0.647523	0.529741	0.534051
	H310	H	0.650787	0.532333	0.528801
	H311	H	0.659775	0.554880	0.540918
	O312	O	0.441788	0.589312	0.737170
	H313	H	0.430608	0.587597	0.736454
	H314	H	0.440945	0.580182	0.740164
	O315	O	1.713881	0.504403	1.534743
	H316	H	1.715350	0.526001	1.553975
	H317	H	1.716622	0.513881	1.532264
	O318	O	0.688309	0.721444	0.305338
	H319	H	0.701147	0.738591	0.278386
	H320	H	0.681374	0.704019	0.298901
	O321	O	-0.007209	0.988853	0.832959
	H322	H	0.006355	0.995147	0.832526
	H323	H	-0.016084	0.995791	0.826804
	O324	O	1.207904	1.068821	0.208989
	H325	H	1.221993	1.056196	0.207341
	H326	H	1.200689	1.053632	0.196678
	O327	O	0.208115	0.240534	1.204491
	H328	H	0.236491	0.263612	1.232071
	H329	H	0.210623	0.191424	1.208890
	O330	O	0.311662	0.548612	0.282979
	H331	H	0.312133	0.567257	0.294926
	H332	H	0.291681	0.545132	0.274239
	O333	O	0.312732	0.407404	0.639482
	H334	H	0.350583	0.399382	0.648883
	H335	H	0.299381	0.391590	0.617110
	O336	O	0.451291	0.640722	0.462590
	H337	H	0.439726	0.637382	0.456910
	H338	H	0.474743	0.642303	0.452921
	O339	O	0.869854	0.215484	0.978087
	H340	H	0.866787	0.220276	0.977983
	H341	H	0.845059	0.221698	0.969155
	O342	O	-0.134153	0.146842	0.191610
	H343	H	-0.140787	0.157008	0.200758
	H344	H	-0.129087	0.150409	0.188374
	O345	O	-0.183651	0.848697	0.811680
	H346	H	-0.156263	0.861938	0.821535
	H347	H	-0.173939	0.876089	0.830473
	O348	O	0.808211	-0.017058	0.914856
	H349	H	0.818442	-0.003931	0.933322
	H350	H	0.789425	0.007383	0.906967
	O351	O	0.655006	0.334840	0.651295
	H352	H	0.636670	0.346148	0.641652
	H353	H	0.647439	0.355638	0.637478
	O354	O	-0.341860	-0.275719	0.471380
	H355	H	-0.332878	-0.266833	0.455926
	H356	H	-0.315008	-0.259846	0.485654
	O357	O	0.285072	0.615739	0.528868
	H358	H	0.274851	0.617295	0.534385
	H359	H	0.292506	0.617127	0.530922
	O360	O	0.602788	-0.625187	1.515396
	H361	H	0.609921	-0.624912	1.509654
	H362	H	0.620331	-0.618124	1.500856
	O363	O	0.026885	-0.180264	-0.214976
	H364	H	0.042793	-0.186002	-0.232519
	H365	H	0.048961	-0.177321	-0.221945
	O366	O	0.467070	0.749521	0.270568
	H367	H	0.471968	0.770861	0.250257
	H368	H	0.447900	0.748047	0.268684
	O369	O	0.715539	0.495427	0.296622
	H370	H	0.702529	0.519415	0.308018
	H371	H	0.732214	0.503305	0.273595
	O372	O	0.795864	0.825854	0.201087
	H373	H	0.793667	0.821953	0.152987
	H374	H	0.838790	0.833602	0.209289
	O375	O	1.208817	-0.016313	-0.074776
	H376	H	1.210964	-0.025209	-0.071551
	H377	H	1.221217	-0.003689	-0.100388
	O378	O	0.460505	0.522731	0.502993
	H379	H	0.460619	0.535648	0.503287
	H380	H	0.463495	0.524320	0.502246
	O381	O	1.113373	0.195227	0.960753
	H382	H	1.092286	0.205081	0.966727
	H383	H	1.128965	0.201429	0.980148
	O384	O	0.513700	0.450548	1.489214
	H385	H	0.511775	0.467932	1.490183
	H386	H	0.520365	0.459105	1.481665
	O387	O	0.893360	0.809879	-0.027594
	H388	H	0.894316	0.808185	-0.040536
	H389	H	0.901795	0.808524	-0.041377
	O390	O	0.287976	0.516086	0.712688
	H391	H	0.278921	0.500599	0.725634
	H392	H	0.280396	0.486955	0.714829
	O393	O	0.796835	0.237037	0.793476
	H394	H	0.778060	0.256681	0.786113
	H395	H	0.828335	0.226877	0.783402
	O396	O	-0.022600	0.821034	1.211771
	H397	H	-0.016492	0.820744	1.222333
	H398	H	-0.017272	0.804354	1.202610
	O399	O	-0.211173	0.009474	1.213434
	H400	H	-0.206671	-0.017163	1.205084
	H401	H	-0.232895	-0.001395	1.240643
	O402	O	0.299935	0.720261	0.302875
	H403	H	0.308276	0.729353	0.310175
	H404	H	0.280217	0.726271	0.282860
	O405	O	1.320726	-0.278641	1.455434
	H406	H	1.316372	-0.280268	1.439030
	H407	H	1.311850	-0.268975	1.451005
	O408	O	-0.413041	-0.415630	-0.738097
	H409	H	-0.416705	-0.411787	-0.738350
	H410	H	-0.428220	-0.418833	-0.738033
	O411	O	-0.211810	0.066001	0.779654
	H412	H	-0.222478	0.075213	0.764576
	H413	H	-0.218778	0.074492	0.780494
	O414	O	0.477490	0.324966	0.703872
	H415	H	0.499323	0.328379	0.680110
	H416	H	0.481714	0.311715	0.719396
	O417	O	-0.043541	0.037534	-0.027567
	H418	H	-0.047323	0.040833	-0.016577
	H419	H	-0.036035	0.042569	-0.035818
	O420	O	0.483819	0.520130	0.300103
	H421	H	0.465822	0.526054	0.307271
	H422	H	0.475724	0.507591	0.292271
	O423	O	0.205636	-0.166876	1.197611
	H424	H	0.192124	-0.148692	1.188030
	H425	H	0.191628	-0.162483	1.175631
	O426	O	0.446942	0.361488	0.373514
	H427	H	0.456035	0.356643	0.368637
	H428	H	0.468410	0.367824	0.383197
	O429	O	0.711979	0.744674	0.709663
	H430	H	0.733067	0.776001	0.742408
	H431	H	0.663477	0.750510	0.719784
	O432	O	0.279095	0.441597	0.443815
	H433	H	0.278035	0.445602	0.449896
	H434	H	0.271010	0.442697	0.459809
	O435	O	-0.208289	1.067580	0.027761
	H436	H	-0.197856	1.079561	0.022718
	H437	H	-0.212209	1.080007	0.048319
	O438	O	0.062070	-0.183802	0.065638
	H439	H	0.063711	-0.176990	0.064723
	H440	H	0.054100	-0.179118	0.055576
	O441	O	0.051510	-0.995983	0.062257
	H442	H	0.066950	-0.982140	0.042410
	H443	H	0.047712	-0.982608	0.082088
	O444	O	0.598770	0.489866	-0.287405
	H445	H	0.597447	0.500507	-0.283551
	H446	H	0.610102	0.505814	-0.282469
	O447	O	0.714989	0.653921	0.563075
	H448	H	0.733414	0.675203	0.573726
	H449	H	0.722994	0.654337	0.584833
	O450	O	0.314691	0.724634	0.688525
	H451	H	0.344295	0.715936	0.670244
	H452	H	0.323241	0.695148	0.672860
	O453	O	0.300087	0.343859	0.532684
	H454	H	0.297368	0.333172	0.530644
	H455	H	0.307734	0.334491	0.532275
	O456	O	0.695521	0.561329	0.680950
	H457	H	0.708811	0.573661	0.704004
	H458	H	0.689900	0.596836	0.680139
	O459	O	1.043611	1.083677	-0.234626
	H460	H	1.041700	1.086619	-0.240793
	H461	H	1.049081	1.088695	-0.226430
	O462	O	1.105428	0.130404	-0.119060
	H463	H	1.117308	0.142436	-0.119869
	H464	H	1.096501	0.128048	-0.113718
	O465	O	0.846220	-0.097555	0.033624
	H466	H	0.838750	-0.074955	0.026987
	H467	H	0.865527	-0.091623	0.020693
	O468	O	0.206211	1.028872	0.009345
	H469	H	0.204781	1.027542	-0.006905
	H470	H	0.197378	1.043314	-0.006235
	O471	O	0.948006	0.040704	1.153482
	H472	H	0.925886	0.032282	1.151176
	H473	H	0.951523	0.047789	1.157455
	O474	O	0.245063	1.224214	-0.205480
	H475	H	0.238421	1.228617	-0.204074
	H476	H	0.247541	1.227317	-0.195742
	O477	O	1.203392	0.825098	1.788581
	H478	H	1.227777	0.814908	1.773064
	H479	H	1.212731	0.836813	1.779988
	O480	O	0.508218	0.752485	0.513396
	H481	H	0.517297	0.751202	0.486524
	H482	H	0.527672	0.751947	0.502332
	O483	O	0.479018	0.650981	0.535462
	H484	H	0.464880	0.646095	0.521991
	H485	H	0.483485	0.659018	0.523857
	O486	O	0.964699	0.250404	0.777063
	H487	H	0.972314	0.279518	0.756867
	H488	H	0.963789	0.232795	0.786561
	O489	O	0.984165	1.228065	0.179404
	H490	H	1.002707	1.237527	0.183049
	H491	H	1.002479	1.240711	0.198232
