data_Molecule from HDF5

_cell_length_a		16.232805
_cell_length_b		16.368620
_cell_length_c		16.293537
_cell_angle_alpha	89.827998
_cell_angle_beta	90.023448
_cell_angle_gamma	90.030153
_symmetry_space_group_name_H-M	'P 1'
_symmetry_Int_Tables_number		1

loop_
	_symmetry_equiv_pos_as_xyz
	x,y,z

loop_
	_atom_site_label
	_atom_site_type_symbol
	_atom_site_fract_x
	_atom_site_fract_y
	_atom_site_fract_z
	H0	H	0.409484	0.838201	0.716770
	H1	H	0.607865	0.164267	0.716953
	H2	H	0.606147	0.838755	0.287779
	H3	H	0.410114	0.164917	0.286551
	H4	H	0.721335	0.405440	0.838319
	H5	H	0.719365	0.599473	0.166111
	H6	H	0.294230	0.599334	0.838072
	H7	H	0.292346	0.402820	0.166447
	H8	H	0.843770	0.718336	0.404392
	H9	H	0.170880	0.716798	0.602279
	H10	H	0.842455	0.286895	0.602297
	H11	H	0.170251	0.288613	0.403649
	H12	H	0.841962	0.404525	0.716687
	H13	H	0.171175	0.599952	0.715996
	H14	H	0.842840	0.601487	0.288803
	H15	H	0.170790	0.405546	0.289875
	H16	H	0.407554	0.717638	0.838590
	H17	H	0.606299	0.717306	0.164747
	H18	H	0.606964	0.287253	0.839002
	H19	H	0.408046	0.286767	0.165744
	H20	H	0.722247	0.838555	0.404623
	H21	H	0.720734	0.165647	0.597705
	H22	H	0.293457	0.838299	0.599887
	H23	H	0.292777	0.165369	0.402522
	H24	H	0.906771	0.340658	0.219074
	H25	H	0.106959	0.665398	0.217303
	H26	H	0.105489	0.339602	0.787109
	H27	H	0.907566	0.665135	0.785903
	H28	H	0.219455	0.906559	0.338548
	H29	H	0.221064	0.098955	0.667016
	H30	H	0.794764	0.099888	0.338572
	H31	H	0.794446	0.904631	0.665546
	H32	H	0.342614	0.215907	0.902956
	H33	H	0.670992	0.216416	0.100448
	H34	H	0.343056	0.788061	0.100429
	H35	H	0.671691	0.789520	0.904383
	H36	H	0.343210	0.903783	0.215963
	H37	H	0.672121	0.099353	0.214036
	H38	H	0.343112	0.099832	0.787099
	H39	H	0.672087	0.905840	0.789506
	H40	H	0.907674	0.217832	0.338994
	H41	H	0.106736	0.217838	0.665690
	H42	H	0.107663	0.787545	0.340260
	H43	H	0.908416	0.787325	0.665285
	H44	H	0.220836	0.338896	0.905471
	H45	H	0.221138	0.665453	0.099190
	H46	H	0.791946	0.340468	0.101526
	H47	H	0.793294	0.666940	0.904380
	H48	H	0.420687	0.115309	0.594865
	H49	H	0.596462	0.887023	0.598233
	H50	H	0.596216	0.114980	0.409662
	H51	H	0.414237	0.883414	0.402702
	H52	H	0.604556	0.408749	0.119954
	H53	H	0.600615	0.596268	0.885079
	H54	H	0.419385	0.600493	0.118257
	H55	H	0.411951	0.412456	0.886856
	H56	H	0.129900	0.603433	0.397472
	H57	H	0.889441	0.604462	0.588308
	H58	H	0.120246	0.412166	0.590124
	H59	H	0.888592	0.400902	0.416133
	H60	H	0.122682	0.412815	0.598964
	H61	H	0.893200	0.587345	0.591925
	H62	H	0.122297	0.603314	0.424976
	H63	H	0.893688	0.418659	0.415096
	H64	H	0.408126	0.597385	0.120184
	H65	H	0.599129	0.597422	0.885037
	H66	H	0.597328	0.412876	0.116709
	H67	H	0.417798	0.410903	0.887953
	H68	H	0.607617	0.118925	0.410348
	H69	H	0.601740	0.886788	0.589175
	H70	H	0.413208	0.116125	0.588656
	H71	H	0.418691	0.888136	0.410688
	H72	H	0.913402	0.619347	0.097399
	H73	H	0.097168	0.388290	0.093618
	H74	H	0.098967	0.617894	0.907803
	H75	H	0.912056	0.387356	0.909601
	H76	H	0.096657	0.918985	0.615342
	H77	H	0.092877	0.094810	0.388730
	H78	H	0.913894	0.097902	0.619619
	H79	H	0.914817	0.910578	0.386025
	H80	H	0.622026	0.090772	0.911380
	H81	H	0.388888	0.095824	0.100885
	H82	H	0.623184	0.910493	0.093171
	H83	H	0.391155	0.913584	0.907513
	H84	H	0.625141	0.909233	0.097034
	H85	H	0.390188	0.099977	0.089393
	H86	H	0.625914	0.095944	0.903109
	H87	H	0.389465	0.907080	0.906980
	H88	H	0.913449	0.093045	0.619155
	H89	H	0.101257	0.104073	0.384740
	H90	H	0.093715	0.898699	0.620015
	H91	H	0.916645	0.909131	0.385253
	H92	H	0.101019	0.617916	0.909712
	H93	H	0.103380	0.385867	0.095851
	H94	H	0.916013	0.618417	0.096091
	H95	H	0.914811	0.388102	0.908182
	H96	H	0.412625	0.118609	0.598325
	H97	H	0.605711	0.883638	0.598223
	H98	H	0.602043	0.120035	0.399863
	H99	H	0.408739	0.886172	0.411437
	H100	H	0.596924	0.404135	0.117977
	H101	H	0.600821	0.597454	0.884831
	H102	H	0.416451	0.589484	0.116604
	H103	H	0.414298	0.406966	0.885916
	H104	H	0.118740	0.579614	0.408453
	H105	H	0.887093	0.597869	0.604416
	H106	H	0.124497	0.405285	0.594410
	H107	H	0.886792	0.409801	0.400648
	H108	H	0.913001	0.617824	0.094466
	H109	H	0.097442	0.386760	0.100527
	H110	H	0.101183	0.618989	0.907243
	H111	H	0.914620	0.387455	0.911355
	H112	H	0.112801	0.907799	0.623659
	H113	H	0.105581	0.090977	0.385820
	H114	H	0.917452	0.095668	0.617341
	H115	H	0.914454	0.908632	0.384802
	H116	H	0.624606	0.101137	0.912303
	H117	H	0.392793	0.088138	0.092415
	H118	H	0.624607	0.906266	0.093323
	H119	H	0.391354	0.909180	0.913075
	C120	C	0.386300	0.009413	0.623153
	C121	C	0.629905	0.993359	0.623386
	C122	C	0.630136	0.010050	0.379359
	C123	C	0.385566	0.993765	0.379672
	C124	C	0.628926	0.380475	0.010349
	C125	C	0.628248	0.624413	0.993473
	C126	C	0.386111	0.623861	0.010287
	C127	C	0.385660	0.380862	0.994620
	C128	C	0.015577	0.624671	0.381409
	C129	C	0.998401	0.624408	0.623872
	C130	C	0.014482	0.381011	0.623878
	C131	C	0.998219	0.381452	0.381711
	C132	C	0.885081	0.511305	0.124658
	C133	C	0.128573	0.494402	0.124482
	C134	C	0.128878	0.510881	0.880114
	C135	C	0.885100	0.495130	0.880853
	C136	C	0.129291	0.880767	0.511428
	C137	C	0.129084	0.124597	0.494289
	C138	C	0.886158	0.123852	0.510573
	C139	C	0.886924	0.881190	0.493758
	C140	C	0.515652	0.124305	0.879993
	C141	C	0.498877	0.123364	0.123009
	C142	C	0.515690	0.880495	0.123338
	C143	C	0.498775	0.881508	0.880609
	C144	C	0.388883	0.886804	0.678746
	C145	C	0.627484	0.115984	0.678280
	C146	C	0.626749	0.887193	0.325647
	C147	C	0.388770	0.116246	0.324274
	C148	C	0.683889	0.384165	0.887327
	C149	C	0.682376	0.620711	0.116965
	C150	C	0.331310	0.620403	0.887007
	C151	C	0.330144	0.382604	0.117568
	C152	C	0.892627	0.680525	0.383480
	C153	C	0.121907	0.679059	0.621953
	C154	C	0.891306	0.325385	0.622254
	C155	C	0.121327	0.326536	0.383926
	C156	C	0.890910	0.383967	0.678869
	C157	C	0.122055	0.620979	0.678597
	C158	C	0.891946	0.622262	0.326467
	C159	C	0.121516	0.384584	0.327147
	C160	C	0.387590	0.679477	0.887324
	C161	C	0.626237	0.679155	0.116386
	C162	C	0.626950	0.325510	0.887679
	C163	C	0.387172	0.324472	0.117036
	C164	C	0.684741	0.887368	0.383363
	C165	C	0.684261	0.116364	0.619581
	C166	C	0.331205	0.886835	0.620736
	C167	C	0.330839	0.116545	0.382138
	C168	C	0.886508	0.389102	0.180695
	C169	C	0.126548	0.616892	0.178983
	C170	C	0.126073	0.387972	0.825326
	C171	C	0.887248	0.617044	0.824451
	C172	C	0.182755	0.885110	0.387593
	C173	C	0.183753	0.120439	0.617733
	C174	C	0.832050	0.120698	0.387256
	C175	C	0.831989	0.883942	0.616734
	C176	C	0.392084	0.178963	0.882120
	C177	C	0.622165	0.178654	0.120922
	C178	C	0.392089	0.825711	0.120684
	C179	C	0.622576	0.826660	0.883123
	C180	C	0.392218	0.883205	0.178313
	C181	C	0.622719	0.120550	0.177460
	C182	C	0.392214	0.121073	0.824544
	C183	C	0.622941	0.884780	0.826606
	C184	C	0.888136	0.179419	0.387733
	C185	C	0.126817	0.179425	0.617176
	C186	C	0.127359	0.825872	0.388563
	C187	C	0.888706	0.825880	0.616694
	C188	C	0.183441	0.387781	0.884004
	C189	C	0.183459	0.616926	0.120602
	C190	C	0.830069	0.388817	0.121650
	C191	C	0.830094	0.617758	0.883062
	C192	C	0.408847	0.094585	0.600504
	C193	C	0.607858	0.907874	0.601669
	C194	C	0.608403	0.095828	0.400365
	C195	C	0.407360	0.908221	0.401857
	C196	C	0.606308	0.402163	0.096074
	C197	C	0.606537	0.603175	0.907159
	C198	C	0.408240	0.602094	0.096220
	C199	C	0.408009	0.403439	0.909102
	C200	C	0.101453	0.602142	0.403546
	C201	C	0.912188	0.602720	0.601406
	C202	C	0.100444	0.403671	0.601339
	C203	C	0.911935	0.403380	0.403991
	C204	C	0.907534	0.596700	0.102280
	C205	C	0.106000	0.409010	0.102886
	C206	C	0.106767	0.596235	0.901792
	C207	C	0.907237	0.409640	0.903163
	C208	C	0.107556	0.902267	0.597383
	C209	C	0.106760	0.102961	0.408596
	C210	C	0.908525	0.101976	0.596461
	C211	C	0.909005	0.902964	0.407677
	C212	C	0.601859	0.102508	0.902281
	C213	C	0.412767	0.101201	0.100661
	C214	C	0.602108	0.902267	0.101212
	C215	C	0.412920	0.903443	0.902641
	Zn216	Zn	0.507708	0.001712	0.752054
	Zn217	Zn	0.507904	0.001718	0.250870
	Zn218	Zn	0.756369	0.503437	0.002377
	Zn219	Zn	0.257290	0.502530	0.002788
	Zn220	Zn	0.007945	0.753190	0.502883
	Zn221	Zn	0.006335	0.252959	0.502610
	Zn222	Zn	0.006636	0.502592	0.751366
	Zn223	Zn	0.007007	0.502990	0.253313
	Zn224	Zn	0.507324	0.752843	0.001659
	Zn225	Zn	0.506886	0.251838	0.002211
	Zn226	Zn	0.758494	0.002162	0.501959
	Zn227	Zn	0.257014	0.001696	0.502167
	N228	N	0.422461	0.964036	0.680263
	N229	N	0.594392	0.038561	0.680845
	N230	N	0.593897	0.964576	0.322743
	N231	N	0.422110	0.038937	0.322666
	N232	N	0.685247	0.417703	0.964620
	N233	N	0.683817	0.587470	0.039522
	N234	N	0.330234	0.586719	0.964548
	N235	N	0.329129	0.417081	0.040466
	N236	N	0.970442	0.682007	0.416904
	N237	N	0.044062	0.681081	0.588449
	N238	N	0.969122	0.323314	0.588978
	N239	N	0.043595	0.324685	0.417263
	N240	N	0.968650	0.417764	0.679855
	N241	N	0.044364	0.587484	0.679693
	N242	N	0.969447	0.588137	0.325067
	N243	N	0.043779	0.418141	0.325694
	N244	N	0.420942	0.681726	0.964855
	N245	N	0.593437	0.681621	0.038524
	N246	N	0.593538	0.323149	0.965282
	N247	N	0.420975	0.323159	0.039584
	N248	N	0.686841	0.964701	0.416205
	N249	N	0.685570	0.039262	0.585942
	N250	N	0.329258	0.964101	0.587304
	N251	N	0.328359	0.039325	0.415688
	N252	N	0.920392	0.466131	0.182357
	N253	N	0.093336	0.539518	0.181835
	N254	N	0.092996	0.465445	0.822522
	N255	N	0.920738	0.539789	0.822886
	N256	N	0.183884	0.918644	0.464928
	N257	N	0.185414	0.087173	0.540234
	N258	N	0.830777	0.086920	0.464555
	N259	N	0.831030	0.917862	0.539268
	N260	N	0.469786	0.181091	0.915671
	N261	N	0.544213	0.180485	0.087815
	N262	N	0.469873	0.824182	0.086985
	N263	N	0.544645	0.824663	0.916296
	N264	N	0.469889	0.916640	0.179775
	N265	N	0.545218	0.086463	0.178614
	N266	N	0.470205	0.087949	0.822976
	N267	N	0.545132	0.918132	0.824828
	N268	N	0.921122	0.181385	0.465619
	N269	N	0.093675	0.182146	0.539506
	N270	N	0.094679	0.823427	0.466459
	N271	N	0.922008	0.824116	0.539175
	N272	N	0.185325	0.464877	0.917294
	N273	N	0.184582	0.539897	0.087178
	N274	N	0.828720	0.465899	0.087849
	N275	N	0.828874	0.540908	0.917419
	O276	O	0.432725	0.482700	-0.449717
	H277	H	0.434749	0.479324	-0.449757
	H278	H	0.437344	0.477999	-0.448790
	O279	O	0.031686	0.049667	0.006186
	H280	H	0.030931	0.052389	0.005586
	H281	H	0.035690	0.053574	0.009401
	O282	O	-0.002194	0.014273	0.999510
	H283	H	-0.000533	0.005748	0.999246
	H284	H	-0.002043	0.012134	0.988400
	O285	O	0.463844	0.403666	0.533604
	H286	H	0.456229	0.403970	0.531270
	H287	H	0.456483	0.395556	0.534473
	O288	O	0.449437	0.364119	0.552614
	H289	H	0.448717	0.367009	0.547843
	H290	H	0.445963	0.361150	0.563447
	O291	O	0.378102	0.399533	0.516195
	H292	H	0.364520	0.387931	0.522580
	H293	H	0.379848	0.389441	0.515138
	O294	O	0.002350	0.036758	-0.037647
	H295	H	0.001453	0.049065	-0.029989
	H296	H	-0.000194	0.036352	-0.041608
	O297	O	0.420681	0.424776	0.545266
	H298	H	0.429388	0.425342	0.554139
	H299	H	0.422043	0.425625	0.554897
	O300	O	0.001255	1.025636	0.986891
	H301	H	-0.001119	1.027664	0.983245
	H302	H	-0.002367	1.029296	0.992310
	O303	O	0.444547	0.453120	0.503871
	H304	H	0.444584	0.450926	0.517434
	H305	H	0.434501	0.444527	0.503625
	O306	O	0.025861	0.049871	0.970955
	H307	H	0.024583	0.055435	0.973864
	H308	H	0.026467	0.051506	0.979401
	O309	O	1.009355	1.071932	1.022529
	H310	H	1.002521	1.066318	1.032875
	H311	H	1.011210	1.076568	1.021197
	O312	O	0.425227	0.476844	0.501842
	H313	H	0.422945	0.489747	0.490572
	H314	H	0.417668	0.482305	0.509929
	O315	O	0.477443	0.415844	0.528491
	H316	H	0.473383	0.411767	0.526513
	H317	H	0.480454	0.407766	0.525712
	O318	O	-0.021442	1.083773	-0.048700
	H319	H	-0.020214	1.079609	-0.049005
	H320	H	-0.020046	1.093242	-0.049841
	O321	O	1.022710	1.020292	-0.012408
	H322	H	1.022873	1.008962	-0.007322
	H323	H	1.025238	1.014387	-0.017549
