data_Molecule from HDF5

_cell_length_a		16.260408
_cell_length_b		16.437814
_cell_length_c		16.329833
_cell_angle_alpha	90.157345
_cell_angle_beta	89.873964
_cell_angle_gamma	90.173520
_symmetry_space_group_name_H-M	'P 1'
_symmetry_Int_Tables_number		1

loop_
	_symmetry_equiv_pos_as_xyz
	x,y,z

loop_
	_atom_site_label
	_atom_site_type_symbol
	_atom_site_fract_x
	_atom_site_fract_y
	_atom_site_fract_z
	H0	H	0.407723	0.842557	0.734290
	H1	H	0.615077	0.162290	0.736257
	H2	H	0.615876	0.842529	0.294986
	H3	H	0.407711	0.161490	0.296525
	H4	H	0.728855	0.401059	0.853127
	H5	H	0.730612	0.605424	0.176168
	H6	H	0.297050	0.602967	0.852452
	H7	H	0.292875	0.402084	0.175961
	H8	H	0.851978	0.722873	0.408325
	H9	H	0.172696	0.722557	0.618566
	H10	H	0.850769	0.283167	0.616041
	H11	H	0.173256	0.282596	0.407351
	H12	H	0.850326	0.400072	0.730687
	H13	H	0.174343	0.605058	0.731012
	H14	H	0.851080	0.604679	0.295372
	H15	H	0.173701	0.399723	0.294858
	H16	H	0.409091	0.722216	0.855086
	H17	H	0.615418	0.721447	0.177678
	H18	H	0.618973	0.279874	0.856646
	H19	H	0.405867	0.283952	0.176701
	H20	H	0.729485	0.841080	0.413391
	H21	H	0.732412	0.161795	0.619962
	H22	H	0.291156	0.842491	0.619059
	H23	H	0.294287	0.162088	0.414725
	H24	H	0.906415	0.342868	0.233893
	H25	H	0.117321	0.661852	0.235024
	H26	H	0.115533	0.341625	0.793570
	H27	H	0.911396	0.662653	0.794680
	H28	H	0.230251	0.900860	0.354275
	H29	H	0.225367	0.102234	0.677430
	H30	H	0.793108	0.101517	0.353914
	H31	H	0.794850	0.899520	0.677414
	H32	H	0.350654	0.221841	0.913967
	H33	H	0.672299	0.225652	0.123393
	H34	H	0.350255	0.782747	0.121395
	H35	H	0.672848	0.784544	0.911205
	H36	H	0.349265	0.900778	0.234443
	H37	H	0.673481	0.106848	0.235894
	H38	H	0.348261	0.102674	0.801086
	H39	H	0.671756	0.900171	0.796814
	H40	H	0.905811	0.221514	0.353807
	H41	H	0.115620	0.222972	0.674187
	H42	H	0.118269	0.781563	0.355163
	H43	H	0.908593	0.782297	0.675953
	H44	H	0.231780	0.342299	0.910611
	H45	H	0.228652	0.664174	0.114648
	H46	H	0.791217	0.343223	0.116428
	H47	H	0.794872	0.663161	0.911011
	H48	H	0.418056	0.116811	0.604911
	H49	H	0.606396	0.886770	0.605191
	H50	H	0.599582	0.115578	0.422819
	H51	H	0.424698	0.889482	0.425591
	H52	H	0.599580	0.411197	0.130092
	H53	H	0.597536	0.602962	0.899884
	H54	H	0.417179	0.591207	0.130729
	H55	H	0.423314	0.408457	0.900556
	H56	H	0.123791	0.585857	0.427111
	H57	H	0.897688	0.591941	0.601991
	H58	H	0.123149	0.420064	0.596484
	H59	H	0.897128	0.409253	0.424370
	H60	H	0.131073	0.413889	0.613056
	H61	H	0.898246	0.589566	0.604330
	H62	H	0.129876	0.592315	0.418588
	H63	H	0.897782	0.412471	0.426380
	H64	H	0.424250	0.593076	0.128449
	H65	H	0.610091	0.596162	0.897757
	H66	H	0.604366	0.416148	0.129482
	H67	H	0.421218	0.413813	0.901448
	H68	H	0.599372	0.113047	0.429982
	H69	H	0.601140	0.886383	0.612218
	H70	H	0.417105	0.119034	0.612318
	H71	H	0.419920	0.888136	0.428591
	H72	H	0.925674	0.615350	0.104493
	H73	H	0.106672	0.387102	0.104766
	H74	H	0.101548	0.612310	0.931224
	H75	H	0.922449	0.390261	0.926068
	H76	H	0.104621	0.916040	0.629719
	H77	H	0.097851	0.085516	0.403351
	H78	H	0.921361	0.103456	0.632516
	H79	H	0.926927	0.910198	0.402122
	H80	H	0.627347	0.090334	0.921899
	H81	H	0.396205	0.099817	0.101985
	H82	H	0.623128	0.919598	0.102089
	H83	H	0.394247	0.906547	0.927137
	H84	H	0.628453	0.912755	0.113862
	H85	H	0.401051	0.087075	0.102513
	H86	H	0.626790	0.097414	0.930843
	H87	H	0.397084	0.912270	0.929875
	H88	H	0.915959	0.085306	0.628400
	H89	H	0.098892	0.101987	0.397690
	H90	H	0.094521	0.911686	0.627771
	H91	H	0.920032	0.907205	0.398623
	H92	H	0.113322	0.620191	0.919045
	H93	H	0.097819	0.388982	0.107719
	H94	H	0.921150	0.615952	0.102660
	H95	H	0.914767	0.386671	0.921613
	H96	H	0.423913	0.116011	0.609862
	H97	H	0.598570	0.890930	0.605270
	H98	H	0.605959	0.116350	0.427489
	H99	H	0.420261	0.887974	0.422666
	H100	H	0.598208	0.416768	0.127556
	H101	H	0.599556	0.589020	0.902922
	H102	H	0.419594	0.598101	0.131399
	H103	H	0.427074	0.412568	0.902575
	H104	H	0.126923	0.597419	0.429304
	H105	H	0.896446	0.593456	0.605145
	H106	H	0.128836	0.402187	0.597656
	H107	H	0.896999	0.412560	0.422825
	H108	H	0.922368	0.617080	0.107598
	H109	H	0.100516	0.391698	0.098884
	H110	H	0.095882	0.616718	0.914119
	H111	H	0.923770	0.387671	0.916561
	H112	H	0.102445	0.905254	0.632532
	H113	H	0.112913	0.091364	0.396194
	H114	H	0.933462	0.091163	0.623918
	H115	H	0.920450	0.914904	0.401757
	H116	H	0.622576	0.086962	0.931403
	H117	H	0.395096	0.093048	0.113877
	H118	H	0.627622	0.906136	0.101196
	H119	H	0.395080	0.912214	0.923488
	C120	C	0.388723	0.011174	0.638747
	C121	C	0.633447	0.993797	0.638318
	C122	C	0.632920	0.009756	0.394972
	C123	C	0.390258	0.993645	0.394763
	C124	C	0.632793	0.382328	0.023424
	C125	C	0.633688	0.625963	1.006718
	C126	C	0.390352	0.624331	0.023643
	C127	C	0.390850	0.381179	1.007170
	C128	C	0.020920	0.623707	0.392965
	C129	C	1.003813	0.623295	0.635104
	C130	C	0.020793	0.381031	0.633758
	C131	C	1.003661	0.380335	0.391953
	C132	C	0.890529	0.510780	0.135761
	C133	C	0.133091	0.494695	0.135099
	C134	C	0.134638	0.510676	0.890808
	C135	C	0.890166	0.494074	0.890903
	C136	C	0.132648	0.880537	0.523888
	C137	C	0.133267	0.123877	0.505772
	C138	C	0.891056	0.123550	0.522415
	C139	C	0.890885	0.879748	0.507163
	C140	C	0.519431	0.123085	0.896435
	C141	C	0.503781	0.125041	0.138256
	C142	C	0.519713	0.881707	0.137244
	C143	C	0.502412	0.880720	0.895296
	C144	C	0.388431	0.890478	0.695766
	C145	C	0.634314	0.114247	0.696995
	C146	C	0.634153	0.889972	0.335161
	C147	C	0.389176	0.113815	0.336243
	C148	C	0.690841	0.381302	0.902031
	C149	C	0.691813	0.625299	0.128022
	C150	C	0.334539	0.623161	0.901549
	C151	C	0.331672	0.382068	0.127971
	C152	C	0.899957	0.682877	0.390871
	C153	C	0.124860	0.682409	0.636673
	C154	C	0.898972	0.322814	0.634518
	C155	C	0.124784	0.322223	0.389674
	C156	C	0.898862	0.380595	0.691815
	C157	C	0.125704	0.623684	0.692466
	C158	C	0.899556	0.624245	0.334388
	C159	C	0.125019	0.380629	0.333586
	C160	C	0.390280	0.682671	0.902830
	C161	C	0.634290	0.683110	0.128690
	C162	C	0.635986	0.321170	0.903816
	C163	C	0.388123	0.323321	0.128244
	C164	C	0.690897	0.889262	0.393895
	C165	C	0.692886	0.113895	0.639039
	C166	C	0.330525	0.890596	0.638204
	C167	C	0.332717	0.114133	0.395257
	C168	C	0.888041	0.390983	0.194602
	C169	C	0.134880	0.614649	0.194334
	C170	C	0.134882	0.389730	0.832881
	C171	C	0.891264	0.614652	0.833454
	C172	C	0.191617	0.880594	0.402645
	C173	C	0.188257	0.122862	0.628392
	C174	C	0.832101	0.122150	0.401766
	C175	C	0.833042	0.879811	0.628686
	C176	C	0.398525	0.182244	0.894980
	C177	C	0.624224	0.185451	0.141186
	C178	C	0.398382	0.822659	0.139304
	C179	C	0.624059	0.823392	0.893386
	C180	C	0.397908	0.881492	0.195451
	C181	C	0.624731	0.126406	0.197511
	C182	C	0.397384	0.122847	0.839140
	C183	C	0.623688	0.881127	0.836316
	C184	C	0.888574	0.181406	0.401653
	C185	C	0.134026	0.183204	0.626486
	C186	C	0.135824	0.821307	0.403132
	C187	C	0.889933	0.821631	0.627995
	C188	C	0.192756	0.390059	0.890884
	C189	C	0.190698	0.615756	0.134824
	C190	C	0.830776	0.391017	0.136084
	C191	C	0.833464	0.614908	0.891508
	C192	C	0.412831	0.095272	0.615885
	C193	C	0.609041	0.909879	0.614512
	C194	C	0.608736	0.093241	0.419754
	C195	C	0.414580	0.910200	0.418765
	C196	C	0.607946	0.407487	0.107219
	C197	C	0.609459	0.602792	0.922264
	C198	C	0.413420	0.601017	0.108331
	C199	C	0.416761	0.404877	0.923229
	C200	C	0.105049	0.599227	0.417815
	C201	C	0.919408	0.598870	0.610855
	C202	C	0.105725	0.405279	0.609556
	C203	C	0.919164	0.404369	0.417181
	C204	C	0.915799	0.594521	0.111811
	C205	C	0.108783	0.411012	0.110765
	C206	C	0.110700	0.594396	0.914346
	C207	C	0.913465	0.410178	0.914643
	C208	C	0.107680	0.904266	0.608091
	C209	C	0.109916	0.099915	0.421209
	C210	C	0.916279	0.100033	0.606382
	C211	C	0.915342	0.903804	0.422713
	C212	C	0.603679	0.098671	0.920961
	C213	C	0.419481	0.100371	0.113283
	C214	C	0.604352	0.905798	0.112733
	C215	C	0.417430	0.903755	0.919811
	Zn216	Zn	0.510314	0.002517	0.767371
	Zn217	Zn	0.511827	0.002524	0.265842
	Zn218	Zn	0.761681	0.503635	0.014003
	Zn219	Zn	0.262416	0.502676	0.014063
	Zn220	Zn	0.011948	0.751598	0.514302
	Zn221	Zn	0.012773	0.252229	0.513013
	Zn222	Zn	0.012396	0.501515	0.762415
	Zn223	Zn	0.012498	0.502428	0.264679
	Zn224	Zn	0.511613	0.753199	0.016821
	Zn225	Zn	0.512341	0.252739	0.016574
	Zn226	Zn	0.762584	0.001091	0.515901
	Zn227	Zn	0.260851	0.002505	0.515661
	N228	N	0.424181	0.966333	0.696042
	N229	N	0.598344	0.038493	0.697147
	N230	N	0.599060	0.966022	0.335320
	N231	N	0.424315	0.038058	0.335764
	N232	N	0.689053	0.418745	0.977444
	N233	N	0.691929	0.590811	0.051242
	N234	N	0.334551	0.587606	0.977583
	N235	N	0.332999	0.417228	0.051758
	N236	N	0.976484	0.682650	0.426605
	N237	N	0.048192	0.682238	0.601579
	N238	N	0.975831	0.322968	0.599098
	N239	N	0.048168	0.321713	0.425231
	N240	N	0.975594	0.416060	0.691354
	N241	N	0.049350	0.587331	0.691483
	N242	N	0.975565	0.587896	0.335811
	N243	N	0.048484	0.416062	0.334874
	N244	N	0.424378	0.683454	0.979615
	N245	N	0.598992	0.683734	0.052113
	N246	N	0.600501	0.321743	0.980146
	N247	N	0.424381	0.322722	0.052025
	N248	N	0.690193	0.964651	0.430442
	N249	N	0.692493	0.037986	0.603507
	N250	N	0.330679	0.966677	0.603428
	N251	N	0.333279	0.038490	0.430985
	N252	N	0.924486	0.466527	0.194464
	N253	N	0.099777	0.538425	0.194645
	N254	N	0.099443	0.465622	0.832687
	N255	N	0.925933	0.538540	0.833101
	N256	N	0.189904	0.916652	0.478657
	N257	N	0.188352	0.087098	0.552214
	N258	N	0.833409	0.086871	0.477979
	N259	N	0.833449	0.915238	0.552517
	N260	N	0.475246	0.182193	0.930156
	N261	N	0.547934	0.184703	0.105196
	N262	N	0.475234	0.822658	0.103868
	N263	N	0.547429	0.822915	0.929220
	N264	N	0.474359	0.917518	0.194256
	N265	N	0.548696	0.089419	0.195762
	N266	N	0.473737	0.086921	0.839770
	N267	N	0.547132	0.916141	0.837390
	N268	N	0.924680	0.182000	0.477614
	N269	N	0.100490	0.183829	0.549230
	N270	N	0.100240	0.820847	0.479543
	N271	N	0.924797	0.821228	0.551201
	N272	N	0.192693	0.466030	0.926371
	N273	N	0.189734	0.540252	0.098491
	N274	N	0.832155	0.466607	0.100230
	N275	N	0.832718	0.538975	0.926718
	O276	O	0.023211	0.101931	-0.065490
	H277	H	0.027980	0.114852	-0.058601
	H278	H	0.010930	0.088136	-0.059049
	O279	O	0.436588	0.363414	0.648514
	H280	H	0.443240	0.368431	0.645079
	H281	H	0.442462	0.361755	0.646817
	O282	O	0.354711	-0.468212	0.547426
	H283	H	0.349533	-0.476217	0.551273
	H284	H	0.367458	-0.479523	0.545283
	O285	O	0.428041	0.636042	0.507121
	H286	H	0.426910	0.634650	0.493830
	H287	H	0.427579	0.648474	0.508097
	O288	O	1.049378	1.011353	0.880351
	H289	H	1.054976	1.001260	0.868742
	H290	H	1.055060	1.014073	0.889816
	O291	O	-0.051944	0.963031	-0.140207
	H292	H	-0.039743	0.954414	-0.147228
	H293	H	-0.067863	0.962888	-0.137816
	O294	O	0.504249	0.332907	0.435138
	H295	H	0.519715	0.330681	0.442037
	H296	H	0.487983	0.324685	0.435852
	O297	O	0.548342	0.459676	0.474773
	H298	H	0.541640	0.454286	0.479776
	H299	H	0.557549	0.460383	0.465297
	O300	O	0.978685	-0.003588	0.034437
	H301	H	0.982437	0.001017	0.039578
	H302	H	0.977228	-0.014198	0.028421
	O303	O	0.677116	0.557091	0.594327
	H304	H	0.671540	0.540634	0.600117
	H305	H	0.672716	0.553850	0.577395
	O306	O	0.634534	0.651591	0.575043
	H307	H	0.633708	0.668597	0.589270
	H308	H	0.637063	0.647563	0.557202
	O309	O	0.522625	0.551398	0.343143
	H310	H	0.516240	0.563924	0.351826
	H311	H	0.521921	0.537919	0.338730
	O312	O	-0.061907	0.102290	0.106005
	H313	H	-0.068195	0.103353	0.104608
	H314	H	-0.068930	0.093700	0.113453
	O315	O	1.089569	-0.003773	1.212918
	H316	H	1.093225	-0.006226	1.214571
	H317	H	1.094841	0.004004	1.202166
	O318	O	0.096732	1.085367	1.178806
	H319	H	0.090499	1.099147	1.194297
	H320	H	0.115036	1.070057	1.170325
	O321	O	0.578249	0.549630	0.635057
	H322	H	0.585540	0.542705	0.647412
	H323	H	0.570659	0.549103	0.632733
	O324	O	0.052579	1.043639	0.098116
	H325	H	0.063768	1.042734	0.098682
	H326	H	0.047561	1.052397	0.106360
	O327	O	0.183405	-0.069917	-0.086195
	H328	H	0.176209	-0.081880	-0.082975
	H329	H	0.188861	-0.079326	-0.100433
	O330	O	-0.064874	-0.184758	1.077008
	H331	H	-0.068322	-0.181732	1.091212
	H332	H	-0.072389	-0.182792	1.087594
	O333	O	0.079795	-0.027083	1.003298
	H334	H	0.058804	-0.032864	0.986130
	H335	H	0.089208	-0.028029	1.006260
	O336	O	0.630412	0.603464	0.587672
	H337	H	0.625110	0.594444	0.597772
	H338	H	0.644519	0.620721	0.606288
	O339	O	1.041306	-0.079023	-0.117538
	H340	H	1.024608	-0.073046	-0.115276
	H341	H	1.037185	-0.086554	-0.108158
	O342	O	-0.650152	-0.450488	0.530995
	H343	H	-0.651674	-0.467333	0.531543
	H344	H	-0.649882	-0.457323	0.537964
	O345	O	0.525074	0.567455	0.420498
	H346	H	0.534259	0.558342	0.417580
	H347	H	0.541419	0.576670	0.427906
	O348	O	1.047401	1.155504	0.189181
	H349	H	1.074326	1.152520	0.193642
	H350	H	1.034887	1.165292	0.181784
	O351	O	0.171254	0.871904	-0.004015
	H352	H	0.167840	0.860301	-0.024560
	H353	H	0.166648	0.861159	-0.016320
	O354	O	0.865202	0.009704	1.131426
	H355	H	0.875318	0.008265	1.137146
	H356	H	0.870560	0.029465	1.119363
	O357	O	0.698822	0.361857	0.418798
	H358	H	0.698467	0.371390	0.414489
	H359	H	0.705892	0.363489	0.426659
	O360	O	0.434456	0.578372	0.463016
	H361	H	0.412324	0.595372	0.448505
	H362	H	0.435050	0.583304	0.472093
	O363	O	0.134511	0.908169	1.027712
	H364	H	0.137150	0.911767	1.014306
	H365	H	0.147496	0.893873	1.020029
	O366	O	0.426133	0.473658	0.543250
	H367	H	0.426781	0.470301	0.530124
	H368	H	0.420943	0.457156	0.552255
	O369	O	-0.371092	1.622006	-0.292690
	H370	H	-0.368162	1.630022	-0.307950
	H371	H	-0.358984	1.623306	-0.268300
	O372	O	0.439278	0.466008	0.396735
	H373	H	0.446636	0.478772	0.411169
	H374	H	0.457166	0.464237	0.392683
	O375	O	0.415806	0.392351	0.611087
	H376	H	0.410326	0.400269	0.591236
	H377	H	0.428127	0.400892	0.609920
	O378	O	1.540059	0.656287	-0.544067
	H379	H	1.537772	0.671321	-0.541414
	H380	H	1.526014	0.641684	-0.554716
	O381	O	0.828363	-0.157345	0.148410
	H382	H	0.839502	-0.157453	0.155223
	H383	H	0.830566	-0.131122	0.163518
	O384	O	0.840745	1.179554	-0.100794
	H385	H	0.828973	1.182831	-0.098615
	H386	H	0.869146	1.181780	-0.091683
	O387	O	-0.602786	-0.499168	0.386003
	H388	H	-0.601213	-0.479645	0.385268
	H389	H	-0.619089	-0.502599	0.396548
	O390	O	0.102570	1.197713	0.064782
	H391	H	0.093003	1.207002	0.059857
	H392	H	0.109217	1.202290	0.080607
	O393	O	0.802655	1.069741	0.948729
	H394	H	0.778821	1.065001	0.940354
	H395	H	0.796563	1.066083	0.946772
	O396	O	0.584744	0.493587	0.544017
	H397	H	0.579804	0.499551	0.542772
	H398	H	0.595670	0.497430	0.545730
	O399	O	-0.194816	1.026718	0.880528
	H400	H	-0.199976	1.027475	0.888130
	H401	H	-0.193714	1.033653	0.875346
	O402	O	0.572562	0.312306	0.375030
	H403	H	0.578269	0.298341	0.360857
	H404	H	0.560487	0.315235	0.372401
	O405	O	0.928531	0.815521	0.001775
	H406	H	0.912747	0.806312	0.008062
	H407	H	0.919290	0.808448	0.021558
	O408	O	1.145366	1.027956	-0.019459
	H409	H	1.129803	1.029145	-0.029066
	H410	H	1.151699	1.028480	-0.021287
	O411	O	0.978450	0.091721	0.941417
	H412	H	0.991462	0.095413	0.946869
	H413	H	0.986108	0.093394	0.943066
	O414	O	0.427263	0.406061	0.651060
	H415	H	0.429280	0.397277	0.665662
	H416	H	0.416888	0.405308	0.662147
	O417	O	0.540516	0.426234	0.599358
	H418	H	0.540497	0.421661	0.612427
	H419	H	0.549950	0.436442	0.598885
