data_Molecule from HDF5

_cell_length_a		16.292738
_cell_length_b		16.298951
_cell_length_c		16.362741
_cell_angle_alpha	90.090275
_cell_angle_beta	89.771237
_cell_angle_gamma	89.947651
_symmetry_space_group_name_H-M	'P 1'
_symmetry_Int_Tables_number		1

loop_
	_symmetry_equiv_pos_as_xyz
	x,y,z

loop_
	_atom_site_label
	_atom_site_type_symbol
	_atom_site_fract_x
	_atom_site_fract_y
	_atom_site_fract_z
	H0	H	0.401910	0.831403	0.710575
	H1	H	0.599615	0.158723	0.709256
	H2	H	0.600545	0.831539	0.280149
	H3	H	0.404273	0.158439	0.281284
	H4	H	0.717108	0.396397	0.832076
	H5	H	0.714716	0.592464	0.157801
	H6	H	0.287846	0.592639	0.831831
	H7	H	0.286446	0.397002	0.157934
	H8	H	0.838517	0.708609	0.398342
	H9	H	0.165631	0.709524	0.591401
	H10	H	0.838224	0.282820	0.591788
	H11	H	0.165941	0.280672	0.396689
	H12	H	0.838888	0.398180	0.708889
	H13	H	0.166153	0.594331	0.709118
	H14	H	0.838395	0.592823	0.281386
	H15	H	0.165774	0.395761	0.278742
	H16	H	0.403692	0.710333	0.832400
	H17	H	0.598215	0.709078	0.157510
	H18	H	0.600102	0.280137	0.832184
	H19	H	0.403695	0.281964	0.159050
	H20	H	0.717001	0.831563	0.394924
	H21	H	0.715087	0.158574	0.591912
	H22	H	0.287999	0.831074	0.591916
	H23	H	0.288933	0.159114	0.397971
	H24	H	0.904370	0.330921	0.208775
	H25	H	0.099820	0.657973	0.208901
	H26	H	0.101732	0.331357	0.778892
	H27	H	0.903743	0.657886	0.781692
	H28	H	0.217560	0.896011	0.331428
	H29	H	0.215939	0.093952	0.657593
	H30	H	0.787941	0.094064	0.331740
	H31	H	0.786664	0.897427	0.657396
	H32	H	0.338105	0.208677	0.899014
	H33	H	0.666894	0.208300	0.091594
	H34	H	0.338600	0.780893	0.093225
	H35	H	0.666327	0.780369	0.896265
	H36	H	0.338885	0.896634	0.210635
	H37	H	0.666057	0.094085	0.209538
	H38	H	0.338346	0.092965	0.781777
	H39	H	0.665550	0.895176	0.779006
	H40	H	0.903904	0.209854	0.331514
	H41	H	0.100030	0.210656	0.657463
	H42	H	0.101881	0.779458	0.331798
	H43	H	0.902376	0.780383	0.657493
	H44	H	0.216370	0.330386	0.896358
	H45	H	0.215483	0.658156	0.092568
	H46	H	0.788544	0.330369	0.091737
	H47	H	0.788865	0.657908	0.898263
	H48	H	0.409816	0.108924	0.582504
	H49	H	0.590900	0.879382	0.589067
	H50	H	0.588738	0.109220	0.401753
	H51	H	0.406077	0.878109	0.400649
	H52	H	0.597292	0.405401	0.110269
	H53	H	0.590686	0.588826	0.880189
	H54	H	0.405676	0.596067	0.113610
	H55	H	0.414977	0.395029	0.879556
	H56	H	0.117251	0.580165	0.399374
	H57	H	0.888029	0.581202	0.590424
	H58	H	0.120657	0.397085	0.590294
	H59	H	0.885065	0.401999	0.397629
	H60	H	0.117150	0.401910	0.581410
	H61	H	0.883044	0.592007	0.595559
	H62	H	0.121013	0.591662	0.395504
	H63	H	0.885096	0.398451	0.402945
	H64	H	0.401741	0.582078	0.110798
	H65	H	0.599585	0.591543	0.876477
	H66	H	0.591744	0.400580	0.110199
	H67	H	0.401540	0.398581	0.876308
	H68	H	0.599794	0.111003	0.406321
	H69	H	0.594824	0.879951	0.584049
	H70	H	0.402171	0.113221	0.592089
	H71	H	0.413376	0.878825	0.399242
	H72	H	0.907613	0.610804	0.087458
	H73	H	0.094581	0.379192	0.085583
	H74	H	0.083887	0.608896	0.897595
	H75	H	0.914292	0.379225	0.902971
	H76	H	0.095545	0.896788	0.611926
	H77	H	0.093561	0.095056	0.377625
	H78	H	0.912286	0.094667	0.610236
	H79	H	0.910947	0.895504	0.377501
	H80	H	0.618365	0.090311	0.904458
	H81	H	0.390094	0.080418	0.085367
	H82	H	0.619499	0.895000	0.085674
	H83	H	0.383647	0.899646	0.897392
	H84	H	0.615907	0.906015	0.082194
	H85	H	0.383590	0.088395	0.099692
	H86	H	0.616840	0.083535	0.902573
	H87	H	0.387347	0.898557	0.908297
	H88	H	0.900508	0.090961	0.613495
	H89	H	0.102946	0.086374	0.377391
	H90	H	0.099653	0.905496	0.609771
	H91	H	0.903517	0.905995	0.378378
	H92	H	0.096839	0.607247	0.913007
	H93	H	0.096202	0.376918	0.087918
	H94	H	0.907241	0.611393	0.089788
	H95	H	0.904853	0.377833	0.904662
	H96	H	0.414849	0.109925	0.593979
	H97	H	0.596841	0.877289	0.589749
	H98	H	0.597436	0.113714	0.395184
	H99	H	0.410321	0.880266	0.405883
	H100	H	0.597779	0.398336	0.112980
	H101	H	0.597661	0.582821	0.879596
	H102	H	0.415769	0.586953	0.107465
	H103	H	0.410636	0.408590	0.882204
	H104	H	0.117234	0.590239	0.407645
	H105	H	0.886237	0.591815	0.582822
	H106	H	0.118568	0.407460	0.590084
	H107	H	0.887017	0.404584	0.403060
	H108	H	0.909646	0.610614	0.089061
	H109	H	0.092833	0.378400	0.088501
	H110	H	0.103085	0.613916	0.895120
	H111	H	0.908310	0.375730	0.895815
	H112	H	0.090177	0.903858	0.608185
	H113	H	0.091312	0.083175	0.381961
	H114	H	0.908954	0.082201	0.608577
	H115	H	0.915929	0.906502	0.381906
	H116	H	0.620118	0.087784	0.898143
	H117	H	0.385231	0.097404	0.084569
	H118	H	0.619642	0.904040	0.093350
	H119	H	0.387985	0.908835	0.902721
	C120	C	0.380245	0.002694	0.617197
	C121	C	0.622765	0.986769	0.616104
	C122	C	0.624100	0.003180	0.372541
	C123	C	0.381284	0.987032	0.373714
	C124	C	0.624094	0.372803	0.003364
	C125	C	0.623300	0.615878	0.986431
	C126	C	0.379943	0.616599	0.003096
	C127	C	0.380489	0.373085	0.987352
	C128	C	0.010320	0.616089	0.373090
	C129	C	0.993856	0.617153	0.617286
	C130	C	0.010758	0.374205	0.615709
	C131	C	0.993937	0.373252	0.372971
	C132	C	0.880230	0.502618	0.116336
	C133	C	0.122902	0.486309	0.115701
	C134	C	0.123715	0.502162	0.873035
	C135	C	0.881029	0.485997	0.873701
	C136	C	0.123831	0.873558	0.502396
	C137	C	0.123666	0.117044	0.486428
	C138	C	0.879994	0.117210	0.502647
	C139	C	0.880851	0.873938	0.486654
	C140	C	0.510259	0.116193	0.873818
	C141	C	0.494591	0.116865	0.117309
	C142	C	0.510439	0.873513	0.116247
	C143	C	0.494045	0.873268	0.873382
	C144	C	0.382309	0.879984	0.671973
	C145	C	0.620084	0.109894	0.671381
	C146	C	0.621527	0.880370	0.317420
	C147	C	0.383743	0.109781	0.318879
	C148	C	0.679077	0.375586	0.880494
	C149	C	0.677279	0.613283	0.109264
	C150	C	0.325677	0.613260	0.880272
	C151	C	0.325157	0.376643	0.109795
	C152	C	0.887304	0.671160	0.377022
	C153	C	0.117043	0.671674	0.612917
	C154	C	0.887136	0.319850	0.612953
	C155	C	0.117217	0.318334	0.375473
	C156	C	0.887423	0.376841	0.671072
	C157	C	0.117125	0.614196	0.671207
	C158	C	0.887111	0.613412	0.319135
	C159	C	0.117171	0.375892	0.317462
	C160	C	0.383220	0.671571	0.880545
	C161	C	0.619421	0.670962	0.109140
	C162	C	0.621158	0.317957	0.880766
	C163	C	0.382824	0.319016	0.110103
	C164	C	0.679163	0.880311	0.374768
	C165	C	0.677092	0.110100	0.612821
	C166	C	0.325438	0.879782	0.613257
	C167	C	0.326608	0.110234	0.376933
	C168	C	0.883159	0.379566	0.170976
	C169	C	0.120270	0.609379	0.170792
	C170	C	0.122007	0.379826	0.816948
	C171	C	0.883375	0.609038	0.819303
	C172	C	0.179434	0.875878	0.380110
	C173	C	0.178272	0.114593	0.608932
	C174	C	0.825773	0.114435	0.380330
	C175	C	0.824686	0.876675	0.608833
	C176	C	0.386887	0.170684	0.877935
	C177	C	0.617794	0.171273	0.113163
	C178	C	0.387424	0.818594	0.114116
	C179	C	0.617306	0.817990	0.875551
	C180	C	0.387563	0.875980	0.172290
	C181	C	0.617635	0.114139	0.171278
	C182	C	0.387059	0.113279	0.819594
	C183	C	0.616818	0.875002	0.817146
	C184	C	0.883401	0.172173	0.380279
	C185	C	0.120071	0.171946	0.608968
	C186	C	0.122101	0.817671	0.380159
	C187	C	0.882446	0.818807	0.609016
	C188	C	0.178766	0.379303	0.875563
	C189	C	0.177457	0.609329	0.112635
	C190	C	0.825698	0.379573	0.112965
	C191	C	0.826073	0.609075	0.877072
	C192	C	0.402340	0.088469	0.595742
	C193	C	0.600796	0.901124	0.593963
	C194	C	0.601717	0.089228	0.394579
	C195	C	0.403320	0.901186	0.395552
	C196	C	0.602046	0.394797	0.089036
	C197	C	0.602211	0.594085	0.900922
	C198	C	0.401425	0.594847	0.088435
	C199	C	0.402576	0.394414	0.901558
	C200	C	0.096325	0.593759	0.394528
	C201	C	0.908018	0.594946	0.595856
	C202	C	0.096484	0.395716	0.593733
	C203	C	0.908040	0.395356	0.394718
	C204	C	0.901875	0.588712	0.095000
	C205	C	0.100987	0.400298	0.093883
	C206	C	0.101257	0.587927	0.895413
	C207	C	0.902894	0.399880	0.894970
	C208	C	0.101593	0.895458	0.587950
	C209	C	0.102220	0.094795	0.400921
	C210	C	0.901217	0.095693	0.588574
	C211	C	0.903599	0.896104	0.401444
	C212	C	0.596166	0.093851	0.895286
	C213	C	0.408527	0.095186	0.096064
	C214	C	0.596133	0.895338	0.093775
	C215	C	0.408399	0.895696	0.896104
	Zn216	Zn	0.502198	-0.005412	0.745334
	Zn217	Zn	0.502905	-0.005147	0.244665
	Zn218	Zn	0.752237	0.494361	-0.005337
	Zn219	Zn	0.251929	0.494375	-0.005325
	Zn220	Zn	0.002314	0.744756	0.494488
	Zn221	Zn	0.001967	0.245765	0.494936
	Zn222	Zn	0.002389	0.494471	0.744902
	Zn223	Zn	0.001790	0.494770	0.244705
	Zn224	Zn	0.502369	0.744887	-0.005393
	Zn225	Zn	0.502430	0.244761	-0.004260
	Zn226	Zn	0.751702	-0.004780	0.494231
	Zn227	Zn	0.252343	-0.004530	0.494541
	N228	N	0.415700	0.957379	0.674337
	N229	N	0.586937	0.032375	0.673452
	N230	N	0.587880	0.957788	0.316108
	N231	N	0.417024	0.032238	0.316727
	N232	N	0.680915	0.409064	0.957813
	N233	N	0.679936	0.579855	0.032141
	N234	N	0.323701	0.579783	0.957370
	N235	N	0.323517	0.409421	0.032375
	N236	N	0.964807	0.672510	0.410123
	N237	N	0.039554	0.673614	0.580057
	N238	N	0.964607	0.317971	0.579330
	N239	N	0.039887	0.316574	0.409119
	N240	N	0.964948	0.410068	0.672759
	N241	N	0.039499	0.581016	0.673988
	N242	N	0.964757	0.580149	0.316556
	N243	N	0.039480	0.409499	0.315922
	N244	N	0.416319	0.673763	0.957662
	N245	N	0.586660	0.672705	0.031819
	N246	N	0.587817	0.316425	0.958027
	N247	N	0.416646	0.316699	0.032869
	N248	N	0.681016	0.957809	0.408176
	N249	N	0.678722	0.032727	0.579039
	N250	N	0.323742	0.957244	0.580028
	N251	N	0.324904	0.032808	0.410343
	N252	N	0.916189	0.457163	0.173300
	N253	N	0.087060	0.531826	0.172831
	N254	N	0.088608	0.457327	0.815224
	N255	N	0.916697	0.531445	0.817018
	N256	N	0.180642	0.909900	0.457065
	N257	N	0.180634	0.080975	0.531754
	N258	N	0.823577	0.080925	0.457452
	N259	N	0.823913	0.910547	0.531797
	N260	N	0.464439	0.172608	0.910875
	N261	N	0.540383	0.172751	0.080045
	N262	N	0.464536	0.816964	0.079863
	N263	N	0.539961	0.816603	0.909803
	N264	N	0.465236	0.909235	0.173767
	N265	N	0.539897	0.081182	0.174168
	N266	N	0.464817	0.080069	0.817049
	N267	N	0.539369	0.908675	0.815972
	N268	N	0.916621	0.173791	0.457458
	N269	N	0.086960	0.173625	0.531798
	N270	N	0.087910	0.816429	0.457262
	N271	N	0.916665	0.816948	0.532170
	N272	N	0.179921	0.456510	0.909754
	N273	N	0.179231	0.531694	0.079240
	N274	N	0.823864	0.457097	0.079762
	N275	N	0.824695	0.531719	0.910440
	O276	O	1.015637	-0.044548	0.986203
	H277	H	1.022333	-0.041381	0.995501
	H278	H	1.022220	-0.045712	0.980540
	O279	O	0.088220	0.911312	0.974457
	H280	H	0.082235	0.912330	0.974382
	H281	H	0.084588	0.911538	0.972497
	O282	O	1.012713	0.925820	-0.010921
	H283	H	1.009753	0.926799	-0.010272
	H284	H	1.012034	0.921564	-0.013591
	O285	O	0.072276	0.934025	0.981985
	H286	H	0.070585	0.921061	0.982083
	H287	H	0.082191	0.934039	0.977753
