data_Molecule from HDF5

_cell_length_a		16.260791
_cell_length_b		16.270075
_cell_length_c		16.308304
_cell_angle_alpha	90.166766
_cell_angle_beta	90.322858
_cell_angle_gamma	90.019836
_symmetry_space_group_name_H-M	'P 1'
_symmetry_Int_Tables_number		1

loop_
	_symmetry_equiv_pos_as_xyz
	x,y,z

loop_
	_atom_site_label
	_atom_site_type_symbol
	_atom_site_fract_x
	_atom_site_fract_y
	_atom_site_fract_z
	H0	H	0.399625	0.836400	0.717797
	H1	H	0.596157	0.163951	0.720070
	H2	H	0.598089	0.837080	0.288615
	H3	H	0.397622	0.163890	0.289324
	H4	H	0.708914	0.401443	0.838722
	H5	H	0.713636	0.599827	0.165918
	H6	H	0.283065	0.596623	0.839709
	H7	H	0.284093	0.401571	0.166953
	H8	H	0.832497	0.713575	0.404612
	H9	H	0.160230	0.714488	0.603479
	H10	H	0.832688	0.287630	0.599786
	H11	H	0.160881	0.285215	0.404972
	H12	H	0.834107	0.400653	0.717919
	H13	H	0.160655	0.599549	0.719390
	H14	H	0.833410	0.598725	0.287478
	H15	H	0.161138	0.400769	0.289083
	H16	H	0.398858	0.712983	0.839901
	H17	H	0.597750	0.716062	0.166487
	H18	H	0.596596	0.282187	0.841339
	H19	H	0.400190	0.286613	0.167671
	H20	H	0.710960	0.835809	0.407549
	H21	H	0.712023	0.164187	0.604064
	H22	H	0.284207	0.836187	0.602303
	H23	H	0.282843	0.163968	0.406282
	H24	H	0.899119	0.335782	0.216281
	H25	H	0.096020	0.664246	0.218448
	H26	H	0.096394	0.336638	0.788573
	H27	H	0.898673	0.664091	0.789050
	H28	H	0.211814	0.900658	0.341040
	H29	H	0.212249	0.099106	0.668444
	H30	H	0.780302	0.098954	0.340921
	H31	H	0.786334	0.903347	0.668331
	H32	H	0.333649	0.213749	0.906167
	H33	H	0.661484	0.215629	0.106116
	H34	H	0.333480	0.786665	0.100251
	H35	H	0.661265	0.785785	0.907039
	H36	H	0.333929	0.900715	0.217724
	H37	H	0.660558	0.099513	0.221482
	H38	H	0.333872	0.099198	0.789245
	H39	H	0.661831	0.902222	0.791852
	H40	H	0.897455	0.213591	0.339697
	H41	H	0.095758	0.215569	0.667690
	H42	H	0.095791	0.783931	0.341132
	H43	H	0.900476	0.786257	0.667784
	H44	H	0.210361	0.335842	0.906404
	H45	H	0.211601	0.664624	0.101894
	H46	H	0.782410	0.336576	0.100053
	H47	H	0.781978	0.664029	0.903733
	H48	H	0.402388	0.117512	0.598594
	H49	H	0.595334	0.880574	0.603289
	H50	H	0.589402	0.115702	0.415504
	H51	H	0.412978	0.884937	0.404848
	H52	H	0.597447	0.417120	0.118193
	H53	H	0.587059	0.594124	0.887145
	H54	H	0.403451	0.596962	0.120877
	H55	H	0.397520	0.405126	0.885414
	H56	H	0.114654	0.596116	0.409946
	H57	H	0.882968	0.589548	0.588728
	H58	H	0.115014	0.399166	0.592843
	H59	H	0.881125	0.408913	0.409916
	H60	H	0.110502	0.414498	0.591743
	H61	H	0.879603	0.588211	0.603605
	H62	H	0.111633	0.591978	0.415258
	H63	H	0.879403	0.407254	0.405246
	H64	H	0.402546	0.591570	0.119697
	H65	H	0.590130	0.595546	0.886308
	H66	H	0.580663	0.409381	0.115889
	H67	H	0.405460	0.411694	0.890131
	H68	H	0.589705	0.116149	0.412013
	H69	H	0.587184	0.884375	0.599765
	H70	H	0.407388	0.117064	0.599671
	H71	H	0.404515	0.886515	0.420030
	H72	H	0.902224	0.617664	0.097953
	H73	H	0.088261	0.383091	0.102778
	H74	H	0.091494	0.617764	0.907396
	H75	H	0.911849	0.385792	0.907648
	H76	H	0.087815	0.901051	0.620925
	H77	H	0.102055	0.091149	0.385538
	H78	H	0.902881	0.096010	0.621239
	H79	H	0.904758	0.906675	0.387795
	H80	H	0.615611	0.096527	0.913008
	H81	H	0.381743	0.097156	0.091927
	H82	H	0.617327	0.900367	0.100913
	H83	H	0.384405	0.912916	0.916157
	H84	H	0.610645	0.908540	0.088102
	H85	H	0.382547	0.087936	0.096458
	H86	H	0.612254	0.090322	0.915481
	H87	H	0.378971	0.909156	0.900436
	H88	H	0.905173	0.091847	0.619104
	H89	H	0.083087	0.083779	0.393343
	H90	H	0.098159	0.906204	0.622635
	H91	H	0.903461	0.904737	0.387609
	H92	H	0.086912	0.615971	0.911051
	H93	H	0.087258	0.386522	0.090851
	H94	H	0.908652	0.615699	0.096529
	H95	H	0.899768	0.385286	0.915569
	H96	H	0.405286	0.115933	0.595064
	H97	H	0.595070	0.883808	0.593824
	H98	H	0.586199	0.115121	0.412931
	H99	H	0.396085	0.879858	0.406082
	H100	H	0.594765	0.400055	0.123362
	H101	H	0.590088	0.591125	0.887276
	H102	H	0.407345	0.593656	0.119393
	H103	H	0.407893	0.401552	0.886817
	H104	H	0.113615	0.588400	0.408421
	H105	H	0.877769	0.602256	0.596386
	H106	H	0.116281	0.409224	0.605565
	H107	H	0.879686	0.404494	0.409401
	H108	H	0.904388	0.615440	0.092232
	H109	H	0.097630	0.382248	0.095029
	H110	H	0.092265	0.617694	0.913092
	H111	H	0.899145	0.380798	0.902159
	H112	H	0.089193	0.911925	0.618596
	H113	H	0.084730	0.103858	0.386220
	H114	H	0.907787	0.095751	0.619506
	H115	H	0.902565	0.907544	0.387590
	H116	H	0.615100	0.091361	0.908476
	H117	H	0.378752	0.096005	0.102172
	H118	H	0.613162	0.915964	0.102896
	H119	H	0.378380	0.897780	0.912475
	C120	C	0.376640	0.008291	0.625783
	C121	C	0.620522	0.991521	0.627368
	C122	C	0.618252	0.008200	0.384015
	C123	C	0.375499	0.991724	0.382089
	C124	C	0.618969	0.378778	0.011489
	C125	C	0.618797	0.622354	0.994686
	C126	C	0.375553	0.621872	0.012089
	C127	C	0.375769	0.378306	0.995455
	C128	C	0.004995	0.621154	0.382008
	C129	C	0.988568	0.621831	0.625251
	C130	C	0.005554	0.379250	0.624457
	C131	C	0.988452	0.378320	0.380784
	C132	C	0.876013	0.508412	0.124075
	C133	C	0.119634	0.492173	0.125275
	C134	C	0.118494	0.508519	0.882367
	C135	C	0.875200	0.492107	0.880532
	C136	C	0.119406	0.877983	0.512554
	C137	C	0.118944	0.122180	0.496124
	C138	C	0.875609	0.122372	0.511898
	C139	C	0.876027	0.878599	0.495804
	C140	C	0.505846	0.121204	0.883572
	C141	C	0.489276	0.122431	0.126382
	C142	C	0.505723	0.879256	0.125221
	C143	C	0.488861	0.878312	0.882264
	C144	C	0.379319	0.885304	0.680234
	C145	C	0.617078	0.115022	0.682270
	C146	C	0.617283	0.885535	0.327695
	C147	C	0.377364	0.114803	0.327115
	C148	C	0.672235	0.380899	0.888023
	C149	C	0.674808	0.619980	0.117455
	C150	C	0.320665	0.618044	0.888568
	C151	C	0.321298	0.381037	0.118266
	C152	C	0.881665	0.676255	0.383950
	C153	C	0.111649	0.676487	0.623272
	C154	C	0.881804	0.325190	0.620686
	C155	C	0.111855	0.323297	0.384602
	C156	C	0.882409	0.381194	0.679457
	C157	C	0.111622	0.619388	0.681116
	C158	C	0.882133	0.619322	0.325811
	C159	C	0.112099	0.380871	0.326932
	C160	C	0.378118	0.675844	0.888798
	C161	C	0.617638	0.678094	0.117607
	C162	C	0.616230	0.321959	0.889228
	C163	C	0.379537	0.324360	0.118668
	C164	C	0.673662	0.885057	0.386557
	C165	C	0.674443	0.115186	0.624333
	C166	C	0.321637	0.885246	0.622827
	C167	C	0.320302	0.114945	0.385411
	C168	C	0.878394	0.385099	0.178877
	C169	C	0.116649	0.615317	0.180583
	C170	C	0.116349	0.385397	0.826838
	C171	C	0.877955	0.615266	0.826601
	C172	C	0.173893	0.880453	0.389644
	C173	C	0.174317	0.119670	0.619404
	C174	C	0.818994	0.119242	0.389287
	C175	C	0.823006	0.882036	0.619258
	C176	C	0.382691	0.176369	0.885496
	C177	C	0.612238	0.177880	0.125608
	C178	C	0.382334	0.824379	0.121654
	C179	C	0.612497	0.823755	0.886287
	C180	C	0.382668	0.881166	0.179858
	C181	C	0.612012	0.120041	0.182922
	C182	C	0.382681	0.119155	0.827557
	C183	C	0.612732	0.881204	0.828710
	C184	C	0.876945	0.176521	0.388716
	C185	C	0.116372	0.177542	0.618945
	C186	C	0.116455	0.822496	0.389676
	C187	C	0.879893	0.824122	0.618975
	C188	C	0.173080	0.384911	0.885425
	C189	C	0.174472	0.615499	0.122998
	C190	C	0.820637	0.385279	0.121046
	C191	C	0.819934	0.615146	0.883547
	C192	C	0.398613	0.094569	0.604129
	C193	C	0.598854	0.905269	0.605545
	C194	C	0.595184	0.093523	0.406756
	C195	C	0.397891	0.905833	0.403818
	C196	C	0.597290	0.402053	0.097168
	C197	C	0.595839	0.600190	0.908946
	C198	C	0.397773	0.600351	0.097800
	C199	C	0.397294	0.399874	0.909648
	C200	C	0.090973	0.598974	0.404686
	C201	C	0.902200	0.599864	0.602822
	C202	C	0.091623	0.401079	0.603087
	C203	C	0.902434	0.400258	0.401997
	C204	C	0.898485	0.594069	0.101983
	C205	C	0.097578	0.406113	0.102686
	C206	C	0.096694	0.594886	0.904299
	C207	C	0.897097	0.406052	0.902165
	C208	C	0.097940	0.899851	0.598533
	C209	C	0.096599	0.099606	0.410436
	C210	C	0.898663	0.100864	0.597823
	C211	C	0.897279	0.900095	0.409878
	C212	C	0.592103	0.099158	0.905778
	C213	C	0.403100	0.100190	0.103441
	C214	C	0.591424	0.901576	0.103665
	C215	C	0.402906	0.900347	0.903346
	Zn216	Zn	0.497767	0.000235	0.754546
	Zn217	Zn	0.497584	0.000216	0.254220
	Zn218	Zn	0.747187	0.500371	0.002125
	Zn219	Zn	0.247329	0.500071	0.003608
	Zn220	Zn	-0.003189	0.749555	0.503614
	Zn221	Zn	-0.003290	0.250868	0.503060
	Zn222	Zn	-0.003034	0.500182	0.753142
	Zn223	Zn	-0.002470	0.500274	0.252942
	Zn224	Zn	0.497052	0.750438	0.003761
	Zn225	Zn	0.497671	0.250459	0.004269
	Zn226	Zn	0.747901	0.000369	0.504757
	Zn227	Zn	0.247789	0.000045	0.504649
	N228	N	0.412886	0.962868	0.682013
	N229	N	0.584200	0.037135	0.684233
	N230	N	0.583136	0.962834	0.326273
	N231	N	0.410893	0.037246	0.324895
	N232	N	0.674098	0.415652	0.965093
	N233	N	0.676037	0.586421	0.040023
	N234	N	0.318940	0.585296	0.966150
	N235	N	0.318778	0.413962	0.040711
	N236	N	0.959271	0.677577	0.418359
	N237	N	0.034267	0.677873	0.589050
	N238	N	0.959380	0.323914	0.587304
	N239	N	0.034044	0.321470	0.417309
	N240	N	0.960250	0.414222	0.681890
	N241	N	0.033794	0.586161	0.682436
	N242	N	0.959726	0.585876	0.324532
	N243	N	0.034471	0.414221	0.324375
	N244	N	0.411593	0.678439	0.966470
	N245	N	0.583513	0.679531	0.040211
	N246	N	0.584199	0.320295	0.967101
	N247	N	0.412535	0.322447	0.041361
	N248	N	0.674417	0.962304	0.420970
	N249	N	0.676647	0.037398	0.590886
	N250	N	0.319983	0.962840	0.589570
	N251	N	0.318975	0.037409	0.418878
	N252	N	0.912311	0.462649	0.180649
	N253	N	0.083475	0.537438	0.182060
	N254	N	0.083200	0.463132	0.824740
	N255	N	0.911646	0.537751	0.824618
	N256	N	0.175766	0.914206	0.467089
	N257	N	0.175998	0.085990	0.542007
	N258	N	0.818042	0.086603	0.467053
	N259	N	0.820319	0.915178	0.541791
	N260	N	0.460173	0.177599	0.919659
	N261	N	0.534752	0.179323	0.091139
	N262	N	0.459704	0.823031	0.088455
	N263	N	0.534627	0.821769	0.918691
	N264	N	0.460433	0.914629	0.182360
	N265	N	0.534476	0.086434	0.183637
	N266	N	0.460292	0.085424	0.826384
	N267	N	0.534968	0.914396	0.825996
	N268	N	0.911461	0.178399	0.465905
	N269	N	0.082599	0.179222	0.541330
	N270	N	0.083310	0.820780	0.467045
	N271	N	0.912307	0.822042	0.541168
	N272	N	0.174310	0.462538	0.919310
	N273	N	0.176286	0.537976	0.089319
	N274	N	0.819001	0.462735	0.087563
	N275	N	0.818289	0.537527	0.916563
	O276	O	0.448427	0.481607	0.449586
	H277	H	0.451209	0.486465	0.446168
	H278	H	0.448440	0.477207	0.444411
	O279	O	0.426983	0.548857	0.453653
	H280	H	0.429278	0.542541	0.446979
	H281	H	0.416247	0.554414	0.457141
	O282	O	0.530422	0.464389	0.494771
	H283	H	0.541748	0.457848	0.489622
	H284	H	0.533209	0.464007	0.504946
	O285	O	0.027929	1.054932	1.038225
	H286	H	0.022568	1.065543	1.042507
	H287	H	0.027010	1.061330	1.034780
	O288	O	0.549142	0.522932	0.488820
	H289	H	0.545480	0.515392	0.489052
	H290	H	0.553044	0.527380	0.500343
	O291	O	-0.019760	0.038541	1.065700
	H292	H	-0.019319	0.041582	1.068445
	H293	H	-0.026679	0.035359	1.063686
	O294	O	0.480077	0.560334	0.512250
	H295	H	0.475441	0.566923	0.503372
	H296	H	0.480974	0.558647	0.515331
	O297	O	0.444599	0.468258	0.447068
	H298	H	0.445575	0.471197	0.447347
	H299	H	0.445096	0.467961	0.440509
	O300	O	0.539779	0.510911	0.510496
	H301	H	0.539369	0.509501	0.510983
	H302	H	0.537667	0.515616	0.512083
	O303	O	0.462434	0.481404	0.561053
	H304	H	0.461243	0.486416	0.563878
	H305	H	0.453018	0.485506	0.554530
	O306	O	1.016760	0.020038	1.011217
	H307	H	1.020635	0.015984	1.006737
	H308	H	1.018638	0.021433	1.009639
	O309	O	0.545805	0.523381	0.459269
	H310	H	0.551969	0.522964	0.458747
	H311	H	0.551243	0.521924	0.456461
	O312	O	-0.011253	-0.012476	0.069368
	H313	H	-0.018370	-0.019150	0.076766
	H314	H	-0.019845	-0.012563	0.068855
	O315	O	0.963836	0.024795	0.996827
	H316	H	0.961426	0.013020	0.998965
	H317	H	0.961910	0.032239	0.997913
	O318	O	-0.034398	0.078180	0.045508
	H319	H	-0.034198	0.079472	0.044097
	H320	H	-0.025916	0.086115	0.046558
	O321	O	0.501267	0.508458	0.463540
	H322	H	0.501363	0.500673	0.472659
	H323	H	0.492189	0.517406	0.462872
	O324	O	1.028176	0.021255	0.027860
	H325	H	1.031333	0.023604	0.029191
	H326	H	1.034255	0.017130	0.024612
	O327	O	1.059280	0.993289	0.039977
	H328	H	1.053601	0.998067	0.042764
	H329	H	1.061486	0.988478	0.040880
	O330	O	1.056712	1.009273	0.035790
	H331	H	1.064860	1.007102	0.029013
	H332	H	1.061094	1.010809	0.037272
	O333	O	0.445322	0.539808	0.505520
	H334	H	0.437715	0.546091	0.503873
	H335	H	0.445254	0.532983	0.505717
