data_Molecule from HDF5

_cell_length_a		16.336583
_cell_length_b		16.318906
_cell_length_c		16.325773
_cell_angle_alpha	89.953580
_cell_angle_beta	89.984221
_cell_angle_gamma	90.034416
_symmetry_space_group_name_H-M	'P 1'
_symmetry_Int_Tables_number		1

loop_
	_symmetry_equiv_pos_as_xyz
	x,y,z

loop_
	_atom_site_label
	_atom_site_type_symbol
	_atom_site_fract_x
	_atom_site_fract_y
	_atom_site_fract_z
	H0	H	0.402088	0.836579	0.714571
	H1	H	0.598899	0.163974	0.714052
	H2	H	0.597420	0.836202	0.286829
	H3	H	0.403935	0.163672	0.286493
	H4	H	0.715585	0.401638	0.837505
	H5	H	0.713944	0.598441	0.163730
	H6	H	0.284722	0.599093	0.836343
	H7	H	0.285526	0.402733	0.163191
	H8	H	0.836921	0.714466	0.401939
	H9	H	0.162907	0.715449	0.599519
	H10	H	0.836870	0.285100	0.597773
	H11	H	0.163452	0.286103	0.402366
	H12	H	0.837098	0.399803	0.715520
	H13	H	0.162941	0.597096	0.714113
	H14	H	0.836344	0.596187	0.287073
	H15	H	0.163031	0.401806	0.285212
	H16	H	0.401722	0.715399	0.836819
	H17	H	0.596741	0.714380	0.163416
	H18	H	0.598370	0.286070	0.836802
	H19	H	0.401608	0.286208	0.163767
	H20	H	0.713913	0.836093	0.403576
	H21	H	0.715134	0.163596	0.598059
	H22	H	0.285587	0.836430	0.597736
	H23	H	0.286766	0.163652	0.401780
	H24	H	0.901934	0.336368	0.212898
	H25	H	0.097884	0.663476	0.214566
	H26	H	0.097185	0.336556	0.785378
	H27	H	0.900915	0.662543	0.784132
	H28	H	0.214245	0.901662	0.336142
	H29	H	0.214710	0.097836	0.663198
	H30	H	0.786589	0.097558	0.336081
	H31	H	0.785582	0.901668	0.663024
	H32	H	0.336909	0.213235	0.902011
	H33	H	0.662906	0.216033	0.099158
	H34	H	0.336219	0.786406	0.097115
	H35	H	0.663352	0.785893	0.902451
	H36	H	0.336236	0.901570	0.214247
	H37	H	0.664123	0.096613	0.212769
	H38	H	0.336954	0.097476	0.785917
	H39	H	0.663153	0.902044	0.785107
	H40	H	0.903026	0.213730	0.336243
	H41	H	0.097646	0.214100	0.663546
	H42	H	0.098230	0.785618	0.336600
	H43	H	0.902316	0.785891	0.663369
	H44	H	0.212552	0.336389	0.902585
	H45	H	0.215333	0.663713	0.099207
	H46	H	0.785193	0.336991	0.097270
	H47	H	0.785084	0.663223	0.901050
	H48	H	0.406276	0.119687	0.605404
	H49	H	0.599250	0.882842	0.592208
	H50	H	0.599917	0.118602	0.401591
	H51	H	0.412294	0.882753	0.400090
	H52	H	0.587368	0.408497	0.114625
	H53	H	0.594163	0.588786	0.885485
	H54	H	0.403838	0.590200	0.115272
	H55	H	0.400874	0.408585	0.882712
	H56	H	0.118287	0.596727	0.403074
	H57	H	0.884363	0.594298	0.590592
	H58	H	0.118895	0.403333	0.602642
	H59	H	0.886913	0.403987	0.418147
	H60	H	0.115749	0.399959	0.586108
	H61	H	0.884562	0.591218	0.592450
	H62	H	0.114691	0.594519	0.413657
	H63	H	0.885833	0.416907	0.402520
	H64	H	0.410148	0.592586	0.114145
	H65	H	0.588875	0.594778	0.884895
	H66	H	0.593513	0.403256	0.116679
	H67	H	0.409469	0.409689	0.885871
	H68	H	0.588244	0.115617	0.402548
	H69	H	0.589849	0.883935	0.598410
	H70	H	0.417723	0.110652	0.588300
	H71	H	0.408913	0.886948	0.414131
	H72	H	0.901270	0.618536	0.094934
	H73	H	0.095616	0.383633	0.092609
	H74	H	0.096232	0.618330	0.903104
	H75	H	0.908336	0.385513	0.909086
	H76	H	0.096504	0.910598	0.616091
	H77	H	0.095648	0.091340	0.384370
	H78	H	0.912985	0.100007	0.616401
	H79	H	0.918054	0.902151	0.385516
	H80	H	0.615328	0.090666	0.908119
	H81	H	0.384700	0.093164	0.093028
	H82	H	0.613694	0.917925	0.097764
	H83	H	0.385967	0.911573	0.907463
	H84	H	0.620505	0.898099	0.101132
	H85	H	0.384229	0.093453	0.094784
	H86	H	0.616471	0.093591	0.904184
	H87	H	0.382911	0.905585	0.902792
	H88	H	0.898585	0.094090	0.618228
	H89	H	0.091474	0.093323	0.384641
	H90	H	0.089456	0.907429	0.613795
	H91	H	0.898479	0.898838	0.378860
	H92	H	0.087965	0.615018	0.905321
	H93	H	0.090707	0.384625	0.095987
	H94	H	0.909245	0.616555	0.098709
	H95	H	0.905122	0.383643	0.908827
	H96	H	0.396462	0.116789	0.585105
	H97	H	0.589604	0.887514	0.587453
	H98	H	0.595174	0.114753	0.412529
	H99	H	0.398187	0.881144	0.405245
	H100	H	0.595160	0.411759	0.115449
	H101	H	0.596812	0.595980	0.882471
	H102	H	0.405385	0.596176	0.116625
	H103	H	0.406584	0.401285	0.882435
	H104	H	0.114199	0.586641	0.405838
	H105	H	0.883110	0.594553	0.594355
	H106	H	0.112816	0.415516	0.592527
	H107	H	0.879805	0.397984	0.399976
	H108	H	0.907687	0.615226	0.090298
	H109	H	0.090770	0.385911	0.090468
	H110	H	0.094653	0.615372	0.911624
	H111	H	0.907241	0.384227	0.905923
	H112	H	0.094760	0.903296	0.617846
	H113	H	0.094904	0.095506	0.383007
	H114	H	0.909990	0.084657	0.612266
	H115	H	0.903779	0.917823	0.386769
	H116	H	0.616034	0.096176	0.908920
	H117	H	0.383464	0.094610	0.093660
	H118	H	0.612880	0.903761	0.082774
	H119	H	0.384429	0.903681	0.910539
	C120	C	0.378676	0.007956	0.621220
	C121	C	0.621984	0.992328	0.621440
	C122	C	0.622311	0.008150	0.378151
	C123	C	0.378817	0.991800	0.378341
	C124	C	0.620989	0.379316	0.008169
	C125	C	0.621205	0.621482	0.992165
	C126	C	0.377867	0.621645	0.007701
	C127	C	0.377623	0.378367	0.991663
	C128	C	0.008074	0.621208	0.378903
	C129	C	0.991815	0.621670	0.621306
	C130	C	0.008063	0.377870	0.621868
	C131	C	0.991960	0.378097	0.378249
	C132	C	0.877595	0.508718	0.122326
	C133	C	0.121055	0.492573	0.121376
	C134	C	0.120944	0.508292	0.878441
	C135	C	0.878356	0.491689	0.878835
	C136	C	0.121936	0.878610	0.507883
	C137	C	0.121971	0.121444	0.491719
	C138	C	0.879036	0.121289	0.507869
	C139	C	0.878433	0.878122	0.491785
	C140	C	0.508358	0.121467	0.878456
	C141	C	0.491998	0.121924	0.122028
	C142	C	0.507949	0.878027	0.122077
	C143	C	0.492061	0.878770	0.878402
	C144	C	0.381499	0.885168	0.676481
	C145	C	0.619700	0.115107	0.676493
	C146	C	0.618446	0.884844	0.324391
	C147	C	0.382524	0.114953	0.323749
	C148	C	0.677007	0.381500	0.885925
	C149	C	0.676034	0.619095	0.114869
	C150	C	0.322823	0.619320	0.884935
	C151	C	0.322808	0.381173	0.114434
	C152	C	0.885616	0.676562	0.381132
	C153	C	0.114382	0.676789	0.619164
	C154	C	0.885512	0.322771	0.618610
	C155	C	0.114766	0.323673	0.381199
	C156	C	0.885584	0.380102	0.676782
	C157	C	0.114321	0.618431	0.676418
	C158	C	0.885233	0.617668	0.324358
	C159	C	0.114420	0.380821	0.322806
	C160	C	0.380958	0.676955	0.885120
	C161	C	0.617987	0.676656	0.114834
	C162	C	0.618819	0.323844	0.885634
	C163	C	0.380598	0.323462	0.114583
	C164	C	0.676239	0.884924	0.382379
	C165	C	0.677480	0.114832	0.618875
	C166	C	0.323591	0.885101	0.618660
	C167	C	0.324245	0.114790	0.381034
	C168	C	0.880545	0.385526	0.176339
	C169	C	0.118784	0.614954	0.176732
	C170	C	0.117960	0.385457	0.823428
	C171	C	0.880695	0.614234	0.822584
	C172	C	0.176487	0.881360	0.384961
	C173	C	0.176867	0.118891	0.614644
	C174	C	0.824373	0.118529	0.384904
	C175	C	0.823412	0.880757	0.614192
	C176	C	0.385595	0.175889	0.881441
	C177	C	0.614635	0.176844	0.118751
	C178	C	0.385064	0.823505	0.118506
	C179	C	0.614618	0.823635	0.881112
	C180	C	0.385191	0.880725	0.176771
	C181	C	0.615182	0.118045	0.175802
	C182	C	0.385773	0.118329	0.823746
	C183	C	0.614809	0.881623	0.823349
	C184	C	0.882354	0.175926	0.384884
	C185	C	0.118880	0.176617	0.614710
	C186	C	0.119054	0.823261	0.385332
	C187	C	0.881713	0.823614	0.614627
	C188	C	0.175219	0.385060	0.881667
	C189	C	0.176921	0.614915	0.119226
	C190	C	0.822984	0.385724	0.118462
	C191	C	0.823419	0.614574	0.880931
	C192	C	0.400486	0.093629	0.599308
	C193	C	0.599448	0.906760	0.599231
	C194	C	0.600880	0.094233	0.399071
	C195	C	0.400288	0.905817	0.400128
	C196	C	0.598517	0.401496	0.093803
	C197	C	0.599556	0.599570	0.906246
	C198	C	0.399950	0.599393	0.093317
	C199	C	0.399280	0.400170	0.905773
	C200	C	0.093783	0.599092	0.401126
	C201	C	0.906053	0.599758	0.599074
	C202	C	0.093908	0.399923	0.600127
	C203	C	0.906268	0.400011	0.400433
	C204	C	0.899513	0.594618	0.100802
	C205	C	0.098732	0.406904	0.099414
	C206	C	0.099292	0.593978	0.900121
	C207	C	0.900245	0.406460	0.901261
	C208	C	0.100116	0.900630	0.593852
	C209	C	0.100389	0.099860	0.406078
	C210	C	0.900658	0.099400	0.593493
	C211	C	0.900259	0.899852	0.405846
	C212	C	0.593929	0.099913	0.900538
	C213	C	0.406157	0.100143	0.100230
	C214	C	0.593767	0.900038	0.100398
	C215	C	0.406417	0.900608	0.900390
	Zn216	Zn	0.500553	0.000421	0.749673
	Zn217	Zn	0.500118	-0.000243	0.250046
	Zn218	Zn	0.750057	0.500506	0.000350
	Zn219	Zn	0.249343	0.499812	-0.000134
	Zn220	Zn	0.000307	0.750008	0.500068
	Zn221	Zn	0.000254	0.249844	0.499959
	Zn222	Zn	-0.000600	0.499986	0.749923
	Zn223	Zn	-0.000003	0.499756	0.250068
	Zn224	Zn	0.499678	0.750055	0.000044
	Zn225	Zn	0.499814	0.250362	-0.000039
	Zn226	Zn	0.750420	0.000145	0.500013
	Zn227	Zn	0.250321	-0.000248	0.499728
	N228	N	0.415149	0.962337	0.678008
	N229	N	0.585747	0.037941	0.678124
	N230	N	0.585536	0.962336	0.321704
	N231	N	0.415696	0.037640	0.322128
	N232	N	0.678587	0.414900	0.963214
	N233	N	0.678007	0.585611	0.037675
	N234	N	0.320833	0.585744	0.962223
	N235	N	0.321039	0.414572	0.037154
	N236	N	0.962862	0.678386	0.414538
	N237	N	0.037229	0.678725	0.585715
	N238	N	0.962770	0.321229	0.585229
	N239	N	0.037630	0.321847	0.414912
	N240	N	0.962696	0.413540	0.678874
	N241	N	0.037135	0.584625	0.677594
	N242	N	0.962405	0.584123	0.322665
	N243	N	0.037191	0.414056	0.321152
	N244	N	0.414534	0.678281	0.962313
	N245	N	0.584653	0.678222	0.037559
	N246	N	0.584820	0.322492	0.962640
	N247	N	0.413961	0.321665	0.037281
	N248	N	0.678684	0.962545	0.414946
	N249	N	0.679064	0.037549	0.585697
	N250	N	0.321910	0.962215	0.584884
	N251	N	0.321925	0.037232	0.414235
	N252	N	0.914269	0.462700	0.178391
	N253	N	0.084553	0.538009	0.177855
	N254	N	0.084882	0.462841	0.821466
	N255	N	0.914296	0.537060	0.821348
	N256	N	0.178344	0.914965	0.462232
	N257	N	0.178763	0.085262	0.537525
	N258	N	0.822459	0.085041	0.462136
	N259	N	0.821576	0.914097	0.536977
	N260	N	0.462704	0.177748	0.915046
	N261	N	0.536974	0.179217	0.086035
	N262	N	0.462330	0.821791	0.085101
	N263	N	0.537622	0.822017	0.914767
	N264	N	0.462499	0.913921	0.178895
	N265	N	0.538028	0.084435	0.177676
	N266	N	0.463052	0.085256	0.821897
	N267	N	0.537618	0.915081	0.821502
	N268	N	0.915584	0.177851	0.462196
	N269	N	0.085408	0.178311	0.537443
	N270	N	0.085781	0.821706	0.462639
	N271	N	0.915170	0.821908	0.537400
	N272	N	0.177317	0.462310	0.915071
	N273	N	0.178421	0.537770	0.085755
	N274	N	0.821189	0.463400	0.085685
	N275	N	0.821983	0.537686	0.915291
