data_Molecule from HDF5

_cell_length_a		16.331888
_cell_length_b		16.311557
_cell_length_c		16.278576
_cell_angle_alpha	90.092201
_cell_angle_beta	89.956262
_cell_angle_gamma	89.953555
_symmetry_space_group_name_H-M	'P 1'
_symmetry_Int_Tables_number		1

loop_
	_symmetry_equiv_pos_as_xyz
	x,y,z

loop_
	_atom_site_label
	_atom_site_type_symbol
	_atom_site_fract_x
	_atom_site_fract_y
	_atom_site_fract_z
	H0	H	0.414809	0.862043	0.717322
	H1	H	0.610408	0.188649	0.717622
	H2	H	0.611004	0.861132	0.289341
	H3	H	0.415141	0.188345	0.289582
	H4	H	0.729148	0.425949	0.839371
	H5	H	0.728647	0.624935	0.166446
	H6	H	0.299971	0.623176	0.838814
	H7	H	0.299595	0.427748	0.167112
	H8	H	0.850517	0.740130	0.404503
	H9	H	0.176875	0.740360	0.601576
	H10	H	0.849932	0.311895	0.600796
	H11	H	0.177214	0.309416	0.403715
	H12	H	0.850568	0.428878	0.717017
	H13	H	0.177389	0.622945	0.716477
	H14	H	0.850237	0.624193	0.288680
	H15	H	0.177599	0.426808	0.288087
	H16	H	0.415570	0.739536	0.839264
	H17	H	0.610392	0.739004	0.167052
	H18	H	0.612135	0.310041	0.838891
	H19	H	0.415979	0.311773	0.167029
	H20	H	0.727626	0.861900	0.404846
	H21	H	0.729016	0.188156	0.603686
	H22	H	0.298575	0.861743	0.601640
	H23	H	0.299818	0.188886	0.406493
	H24	H	0.916329	0.361565	0.216150
	H25	H	0.110487	0.689131	0.216509
	H26	H	0.112186	0.362449	0.787949
	H27	H	0.916626	0.689658	0.790547
	H28	H	0.227983	0.926762	0.339606
	H29	H	0.227077	0.123482	0.666988
	H30	H	0.799656	0.122792	0.338570
	H31	H	0.799215	0.928079	0.667017
	H32	H	0.350332	0.239702	0.906055
	H33	H	0.676843	0.240643	0.102362
	H34	H	0.349540	0.810831	0.100556
	H35	H	0.677170	0.810889	0.905059
	H36	H	0.349571	0.928635	0.216005
	H37	H	0.676558	0.123475	0.218349
	H38	H	0.349524	0.123247	0.789718
	H39	H	0.676128	0.926303	0.787341
	H40	H	0.915044	0.240305	0.339203
	H41	H	0.110186	0.239109	0.667076
	H42	H	0.111134	0.810977	0.339004
	H43	H	0.915015	0.810714	0.666689
	H44	H	0.228048	0.361740	0.904059
	H45	H	0.228011	0.688807	0.101341
	H46	H	0.799503	0.361810	0.100533
	H47	H	0.798564	0.688192	0.904623
	H48	H	0.418274	0.142526	0.598294
	H49	H	0.603003	0.909343	0.599279
	H50	H	0.617218	0.145859	0.405333
	H51	H	0.416484	0.911184	0.420862
	H52	H	0.603608	0.443943	0.114755
	H53	H	0.606843	0.630979	0.882602
	H54	H	0.414912	0.617119	0.120610
	H55	H	0.411565	0.432598	0.884133
	H56	H	0.132872	0.618404	0.400684
	H57	H	0.900786	0.607196	0.596663
	H58	H	0.128730	0.436133	0.596508
	H59	H	0.898697	0.434573	0.408797
	H60	H	0.131659	0.428850	0.597769
	H61	H	0.893019	0.624044	0.606396
	H62	H	0.130108	0.626363	0.414499
	H63	H	0.898251	0.430855	0.409268
	H64	H	0.423219	0.613497	0.116577
	H65	H	0.618837	0.610656	0.885200
	H66	H	0.598529	0.424460	0.119118
	H67	H	0.425010	0.438875	0.890474
	H68	H	0.595094	0.139836	0.403302
	H69	H	0.602697	0.911229	0.591137
	H70	H	0.421661	0.141066	0.596710
	H71	H	0.411369	0.903415	0.401838
	H72	H	0.919012	0.639111	0.089400
	H73	H	0.103421	0.410696	0.095322
	H74	H	0.117023	0.644364	0.909196
	H75	H	0.921842	0.411363	0.914522
	H76	H	0.104598	0.939665	0.616781
	H77	H	0.103715	0.120958	0.386319
	H78	H	0.921884	0.123857	0.619967
	H79	H	0.926306	0.941611	0.391405
	H80	H	0.632293	0.122446	0.903924
	H81	H	0.395579	0.118456	0.103359
	H82	H	0.630522	0.930444	0.099223
	H83	H	0.393798	0.928559	0.902167
	H84	H	0.629692	0.929086	0.095849
	H85	H	0.397182	0.125468	0.093163
	H86	H	0.627544	0.120851	0.918884
	H87	H	0.397775	0.925301	0.916839
	H88	H	0.915429	0.117058	0.619990
	H89	H	0.111914	0.118257	0.385046
	H90	H	0.100451	0.926866	0.619491
	H91	H	0.926128	0.921010	0.385403
	H92	H	0.102236	0.642382	0.901694
	H93	H	0.109300	0.409964	0.091692
	H94	H	0.913452	0.644787	0.100663
	H95	H	0.916316	0.407272	0.908097
	H96	H	0.417725	0.141143	0.594475
	H97	H	0.610443	0.908166	0.594344
	H98	H	0.606085	0.137026	0.423850
	H99	H	0.431344	0.910712	0.406213
	H100	H	0.617636	0.430771	0.123012
	H101	H	0.596034	0.611643	0.891397
	H102	H	0.422737	0.622670	0.120159
	H103	H	0.425283	0.424162	0.886177
	H104	H	0.127016	0.610511	0.413229
	H105	H	0.899313	0.625551	0.585920
	H106	H	0.128332	0.429980	0.591135
	H107	H	0.899298	0.432907	0.412331
	H108	H	0.926744	0.641198	0.100070
	H109	H	0.109262	0.407657	0.098730
	H110	H	0.104260	0.638547	0.918202
	H111	H	0.924840	0.409514	0.905984
	H112	H	0.113411	0.930647	0.622009
	H113	H	0.106013	0.112604	0.388648
	H114	H	0.923572	0.115169	0.616161
	H115	H	0.908076	0.932924	0.383241
	H116	H	0.627125	0.108735	0.908784
	H117	H	0.400507	0.113344	0.093421
	H118	H	0.628602	0.933196	0.096659
	H119	H	0.400198	0.939857	0.911042
	C120	C	0.391415	0.033602	0.624756
	C121	C	0.634771	1.017036	0.624739
	C122	C	0.634609	0.033150	0.381953
	C123	C	0.391466	1.016280	0.381601
	C124	C	0.635435	0.403675	0.011048
	C125	C	0.635021	0.646280	0.994944
	C126	C	0.391793	0.646350	0.011001
	C127	C	0.392286	0.403711	0.995117
	C128	C	0.021748	0.646812	0.381308
	C129	C	1.005508	0.647180	0.624882
	C130	C	0.022021	0.403582	0.624027
	C131	C	1.006064	0.403346	0.380979
	C132	C	0.891769	0.533609	0.124871
	C133	C	0.135655	0.517104	0.124212
	C134	C	0.136058	0.533826	0.881017
	C135	C	0.892504	0.517401	0.881468
	C136	C	0.134608	0.903654	0.511330
	C137	C	0.135077	0.146253	0.495090
	C138	C	0.891663	0.147262	0.510815
	C139	C	0.891680	0.903534	0.494647
	C140	C	0.521513	0.146568	0.882033
	C141	C	0.505434	0.147402	0.125339
	C142	C	0.521476	0.903228	0.124931
	C143	C	0.505099	0.902835	0.881390
	C144	C	0.394280	0.910543	0.679425
	C145	C	0.631725	0.139806	0.680051
	C146	C	0.631584	0.910077	0.326876
	C147	C	0.394385	0.139716	0.327250
	C148	C	0.690719	0.405422	0.887922
	C149	C	0.690134	0.644258	0.117784
	C150	C	0.337385	0.643694	0.887785
	C151	C	0.337122	0.406587	0.118089
	C152	C	0.899376	0.702470	0.383986
	C153	C	0.128316	0.702358	0.621823
	C154	C	0.899013	0.349120	0.621615
	C155	C	0.128472	0.347383	0.383021
	C156	C	0.899118	0.407598	0.679047
	C157	C	0.128578	0.644173	0.678994
	C158	C	0.899038	0.644610	0.326544
	C159	C	0.128665	0.405582	0.325525
	C160	C	0.394894	0.701537	0.888025
	C161	C	0.631464	0.701000	0.118276
	C162	C	0.632834	0.347808	0.887942
	C163	C	0.394939	0.349162	0.118147
	C164	C	0.689739	0.910478	0.383969
	C165	C	0.690435	0.139431	0.623227
	C166	C	0.336203	0.910581	0.622328
	C167	C	0.337045	0.139895	0.385137
	C168	C	0.895069	0.410523	0.179210
	C169	C	0.131666	0.640454	0.178945
	C170	C	0.132568	0.410736	0.826168
	C171	C	0.895441	0.640424	0.827271
	C172	C	0.189884	0.906212	0.388289
	C173	C	0.189480	0.144015	0.618073
	C174	C	0.837019	0.143917	0.387577
	C175	C	0.836846	0.906971	0.618018
	C176	C	0.398820	0.202002	0.885008
	C177	C	0.628043	0.202734	0.122935
	C178	C	0.398402	0.848798	0.121267
	C179	C	0.628261	0.848163	0.884038
	C180	C	0.398460	0.907013	0.178850
	C181	C	0.628029	0.144458	0.180344
	C182	C	0.398354	0.144178	0.827353
	C183	C	0.627783	0.905374	0.825619
	C184	C	0.894266	0.202206	0.387807
	C185	C	0.131033	0.201101	0.618251
	C186	C	0.131899	0.848875	0.388133
	C187	C	0.894483	0.849060	0.617986
	C188	C	0.190692	0.410601	0.883280
	C189	C	0.190161	0.640194	0.122054
	C190	C	0.837144	0.410626	0.121606
	C191	C	0.837241	0.639907	0.884423
	C192	C	0.412847	0.119345	0.602992
	C193	C	0.612091	0.931569	0.601747
	C194	C	0.612537	0.118713	0.404241
	C195	C	0.413237	0.930801	0.403183
	C196	C	0.613150	0.426296	0.096762
	C197	C	0.613420	0.624215	0.908675
	C198	C	0.413930	0.624269	0.097032
	C199	C	0.414178	0.425592	0.908990
	C200	C	0.107740	0.624846	0.403005
	C201	C	0.919736	0.625320	0.602946
	C202	C	0.107438	0.425311	0.601607
	C203	C	0.920738	0.426062	0.403506
	C204	C	0.913437	0.619577	0.103151
	C205	C	0.113927	0.431571	0.101690
	C206	C	0.114273	0.619666	0.903196
	C207	C	0.914485	0.431450	0.903086
	C208	C	0.112514	0.925843	0.597266
	C209	C	0.113329	0.123771	0.408773
	C210	C	0.913783	0.125169	0.596669
	C211	C	0.913712	0.925397	0.408848
	C212	C	0.606852	0.123915	0.903956
	C213	C	0.419689	0.125438	0.103172
	C214	C	0.607469	0.924547	0.103573
	C215	C	0.419559	0.924746	0.903541
	Zn216	Zn	0.512795	0.025237	0.753328
	Zn217	Zn	0.513271	0.025143	0.253322
	Zn218	Zn	0.763612	0.524975	0.002856
	Zn219	Zn	0.264115	0.525043	0.002664
	Zn220	Zn	0.013594	0.775011	0.503226
	Zn221	Zn	0.013904	0.274707	0.502562
	Zn222	Zn	0.014228	0.525533	0.753014
	Zn223	Zn	0.013552	0.525448	0.252532
	Zn224	Zn	0.513693	0.774298	0.003017
	Zn225	Zn	0.513761	0.275639	0.003103
	Zn226	Zn	0.763462	0.025300	0.502777
	Zn227	Zn	0.263501	0.025050	0.503278
	N228	N	0.427963	0.987760	0.680973
	N229	N	0.597604	0.062727	0.680826
	N230	N	0.597688	0.987502	0.325673
	N231	N	0.427587	0.062201	0.324853
	N232	N	0.692353	0.439678	0.965291
	N233	N	0.692304	0.610861	0.040031
	N234	N	0.335358	0.610369	0.965271
	N235	N	0.335499	0.439772	0.040436
	N236	N	0.976844	0.703988	0.417320
	N237	N	0.050821	0.703985	0.588625
	N238	N	0.976374	0.346342	0.588264
	N239	N	0.051243	0.345974	0.416992
	N240	N	0.976558	0.440610	0.680752
	N241	N	0.051326	0.610576	0.681025
	N242	N	0.976196	0.610707	0.324833
	N243	N	0.051651	0.439755	0.324194
	N244	N	0.428153	0.703097	0.965739
	N245	N	0.598036	0.702433	0.040906
	N246	N	0.599044	0.346913	0.965391
	N247	N	0.428848	0.347587	0.040798
	N248	N	0.691616	0.987704	0.417463
	N249	N	0.692119	0.062086	0.589354
	N250	N	0.334355	0.988018	0.588942
	N251	N	0.335042	0.062324	0.418216
	N252	N	0.928226	0.488086	0.181297
	N253	N	0.098506	0.562906	0.180585
	N254	N	0.099277	0.488270	0.824706
	N255	N	0.929312	0.563187	0.825417
	N256	N	0.191591	0.939949	0.465940
	N257	N	0.191595	0.110256	0.540603
	N258	N	0.835180	0.110434	0.465249
	N259	N	0.834813	0.939850	0.540214
	N260	N	0.476296	0.203512	0.918345
	N261	N	0.550674	0.204660	0.089486
	N262	N	0.475961	0.846477	0.088333
	N263	N	0.551007	0.846283	0.917823
	N264	N	0.475938	0.940041	0.181153
	N265	N	0.550875	0.110778	0.181850
	N266	N	0.475446	0.110365	0.825468
	N267	N	0.550476	0.938995	0.824167
	N268	N	0.927553	0.204118	0.465216
	N269	N	0.098144	0.202567	0.540425
	N270	N	0.098441	0.847219	0.465658
	N271	N	0.928002	0.846885	0.540587
	N272	N	0.192790	0.487955	0.916799
	N273	N	0.192568	0.562822	0.088640
	N274	N	0.835139	0.488037	0.088574
	N275	N	0.835487	0.562405	0.917622
	O276	O	-0.412950	-0.546819	0.455149
	H277	H	-0.407037	-0.549429	0.456460
	H278	H	-0.416305	-0.552687	0.458166
	O279	O	0.591458	-0.548941	0.478424
	H280	H	0.591865	-0.547562	0.472003
	H281	H	0.590104	-0.551921	0.478441
	O282	O	0.585108	0.524497	0.468314
	H283	H	0.588690	0.529893	0.469610
	H284	H	0.581458	0.521118	0.464786
	O285	O	-0.425557	-0.475093	0.504738
	H286	H	-0.428861	-0.478875	0.508822
	H287	H	-0.410901	-0.470760	0.504705
	O288	O	0.566311	0.504298	0.487294
	H289	H	0.563622	0.499150	0.491465
	H290	H	0.567172	0.505889	0.475499
	O291	O	-0.433221	0.503334	0.435803
	H292	H	-0.431600	0.502816	0.438369
	H293	H	-0.434028	0.500888	0.430561
	O294	O	0.575577	0.566659	0.528834
	H295	H	0.573263	0.563636	0.531291
	H296	H	0.572737	0.570103	0.534612
	O297	O	0.564639	-0.532149	0.481230
	H298	H	0.567677	-0.537967	0.473026
	H299	H	0.575062	-0.520876	0.475814
