data_Molecule from HDF5

_cell_length_a		16.420789
_cell_length_b		16.167744
_cell_length_c		16.219143
_cell_angle_alpha	89.390152
_cell_angle_beta	90.391120
_cell_angle_gamma	90.003972
_symmetry_space_group_name_H-M	'P 1'
_symmetry_Int_Tables_number		1

loop_
	_symmetry_equiv_pos_as_xyz
	x,y,z

loop_
	_atom_site_label
	_atom_site_type_symbol
	_atom_site_fract_x
	_atom_site_fract_y
	_atom_site_fract_z
	H0	H	0.391821	0.836403	0.708985
	H1	H	0.588583	0.165504	0.703257
	H2	H	0.583967	0.833863	0.282428
	H3	H	0.390872	0.165300	0.276501
	H4	H	0.706378	0.403270	0.829015
	H5	H	0.710005	0.600461	0.156202
	H6	H	0.272402	0.605019	0.831332
	H7	H	0.277788	0.396771	0.157136
	H8	H	0.827843	0.714831	0.393540
	H9	H	0.152552	0.714070	0.592995
	H10	H	0.827604	0.283300	0.593566
	H11	H	0.152995	0.285054	0.397932
	H12	H	0.829264	0.397286	0.711948
	H13	H	0.153795	0.594990	0.707441
	H14	H	0.829776	0.601793	0.273927
	H15	H	0.154741	0.402935	0.283232
	H16	H	0.394490	0.714299	0.828399
	H17	H	0.589163	0.711339	0.158380
	H18	H	0.587506	0.289803	0.827124
	H19	H	0.397065	0.285482	0.157388
	H20	H	0.704026	0.835070	0.394287
	H21	H	0.708259	0.162662	0.593625
	H22	H	0.274935	0.835425	0.594175
	H23	H	0.270874	0.163223	0.387163
	H24	H	0.895493	0.335613	0.208736
	H25	H	0.091151	0.665322	0.206698
	H26	H	0.088083	0.333688	0.784758
	H27	H	0.895074	0.663814	0.778306
	H28	H	0.204262	0.899921	0.329795
	H29	H	0.208615	0.099446	0.654982
	H30	H	0.771452	0.103134	0.330282
	H31	H	0.772594	0.894247	0.656590
	H32	H	0.328322	0.218113	0.890895
	H33	H	0.654369	0.211529	0.089243
	H34	H	0.328173	0.782587	0.091685
	H35	H	0.653440	0.787206	0.895691
	H36	H	0.325705	0.901029	0.205572
	H37	H	0.651568	0.099182	0.209375
	H38	H	0.328266	0.103707	0.772315
	H39	H	0.652032	0.902190	0.777824
	H40	H	0.889659	0.216732	0.330044
	H41	H	0.086886	0.207949	0.659409
	H42	H	0.086325	0.787646	0.328980
	H43	H	0.893593	0.784063	0.658457
	H44	H	0.207552	0.336071	0.896491
	H45	H	0.208763	0.664004	0.094119
	H46	H	0.776831	0.336384	0.095897
	H47	H	0.776308	0.663735	0.888945
	H48	H	0.403570	0.115888	0.583351
	H49	H	0.578330	0.879139	0.602679
	H50	H	0.588521	0.117454	0.403980
	H51	H	0.387931	0.881641	0.405012
	H52	H	0.585221	0.415277	0.106503
	H53	H	0.588906	0.594577	0.874996
	H54	H	0.394872	0.596059	0.113976
	H55	H	0.397618	0.412884	0.876879
	H56	H	0.107941	0.591853	0.392116
	H57	H	0.874654	0.594108	0.583863
	H58	H	0.107310	0.402894	0.592683
	H59	H	0.876542	0.413090	0.398463
	H60	H	0.105975	0.401745	0.587305
	H61	H	0.876131	0.587104	0.585231
	H62	H	0.107827	0.602822	0.403988
	H63	H	0.873524	0.405142	0.398071
	H64	H	0.396932	0.583906	0.108869
	H65	H	0.584003	0.592085	0.877870
	H66	H	0.579765	0.400981	0.109262
	H67	H	0.398538	0.411569	0.877336
	H68	H	0.582239	0.118268	0.392912
	H69	H	0.569112	0.889697	0.574749
	H70	H	0.396220	0.114356	0.572900
	H71	H	0.394217	0.879640	0.391993
	H72	H	0.888942	0.618875	0.076860
	H73	H	0.089812	0.382716	0.088090
	H74	H	0.088415	0.618820	0.900141
	H75	H	0.905392	0.383734	0.903411
	H76	H	0.088639	0.907163	0.611155
	H77	H	0.084479	0.092808	0.375427
	H78	H	0.893256	0.094629	0.613268
	H79	H	0.894207	0.910443	0.377778
	H80	H	0.604531	0.100050	0.906211
	H81	H	0.373894	0.097186	0.083182
	H82	H	0.608054	0.896748	0.087305
	H83	H	0.377773	0.916362	0.901054
	H84	H	0.601275	0.912951	0.080041
	H85	H	0.375586	0.092523	0.081288
	H86	H	0.603052	0.084749	0.898213
	H87	H	0.372724	0.906597	0.892949
	H88	H	0.893023	0.081450	0.609592
	H89	H	0.078747	0.088530	0.377831
	H90	H	0.081540	0.910988	0.608166
	H91	H	0.896257	0.907852	0.376824
	H92	H	0.080924	0.617055	0.896663
	H93	H	0.085020	0.381829	0.091188
	H94	H	0.900866	0.620480	0.095499
	H95	H	0.893790	0.383705	0.911035
	H96	H	0.392215	0.119615	0.583525
	H97	H	0.598377	0.879821	0.579441
	H98	H	0.576480	0.114167	0.402909
	H99	H	0.401953	0.886038	0.402926
	H100	H	0.594595	0.403897	0.113164
	H101	H	0.583499	0.598135	0.875134
	H102	H	0.406568	0.592418	0.108451
	H103	H	0.396900	0.410911	0.875918
	H104	H	0.101960	0.587864	0.407023
	H105	H	0.874260	0.591751	0.590154
	H106	H	0.105353	0.407083	0.588894
	H107	H	0.876862	0.408074	0.405252
	H108	H	0.910077	0.611796	0.076853
	H109	H	0.084959	0.384403	0.085620
	H110	H	0.082566	0.614449	0.905391
	H111	H	0.893257	0.379125	0.897585
	H112	H	0.082077	0.902715	0.610459
	H113	H	0.078082	0.096270	0.376189
	H114	H	0.903970	0.089343	0.607384
	H115	H	0.893955	0.907919	0.376335
	H116	H	0.608532	0.098496	0.889752
	H117	H	0.373455	0.092682	0.086415
	H118	H	0.605453	0.911836	0.098743
	H119	H	0.375667	0.903792	0.905569
	C120	C	0.368666	0.008360	0.611437
	C121	C	0.611432	0.991463	0.613873
	C122	C	0.610394	0.007839	0.371666
	C123	C	0.366154	0.991431	0.369845
	C124	C	0.613957	0.379114	0.001115
	C125	C	0.613825	0.622292	0.984768
	C126	C	0.369877	0.621541	0.002324
	C127	C	0.370479	0.380249	0.984816
	C128	C	-0.000962	0.623137	0.370955
	C129	C	0.982210	0.620042	0.615223
	C130	C	-0.001022	0.375105	0.617882
	C131	C	0.982874	0.379328	0.373258
	C132	C	0.871316	0.508646	0.113973
	C133	C	0.114751	0.491827	0.116240
	C134	C	0.112798	0.508080	0.873417
	C135	C	0.869680	0.490639	0.872346
	C136	C	0.111350	0.878692	0.501560
	C137	C	0.110314	0.120584	0.484625
	C138	C	0.866969	0.120482	0.502146
	C139	C	0.867483	0.878028	0.485276
	C140	C	0.498241	0.124607	0.868145
	C141	C	0.481780	0.121933	0.113195
	C142	C	0.497909	0.877934	0.116090
	C143	C	0.482189	0.880050	0.871340
	C144	C	0.371062	0.885096	0.669868
	C145	C	0.609512	0.115713	0.667061
	C146	C	0.605970	0.883530	0.318527
	C147	C	0.369691	0.115702	0.314067
	C148	C	0.668239	0.382475	0.877529
	C149	C	0.670811	0.620236	0.107458
	C150	C	0.312454	0.622719	0.879441
	C151	C	0.316039	0.378686	0.108198
	C152	C	0.876839	0.678020	0.372422
	C153	C	0.104408	0.675315	0.612849
	C154	C	0.876676	0.320405	0.614670
	C155	C	0.104624	0.323166	0.376972
	C156	C	0.877272	0.377590	0.673291
	C157	C	0.104965	0.616342	0.669930
	C158	C	0.877712	0.621231	0.313355
	C159	C	0.105481	0.381787	0.319711
	C160	C	0.372907	0.677156	0.878009
	C161	C	0.610306	0.675007	0.108801
	C162	C	0.609325	0.326153	0.876807
	C163	C	0.375479	0.323289	0.108305
	C164	C	0.665668	0.884040	0.374288
	C165	C	0.669006	0.114134	0.612525
	C166	C	0.313245	0.884722	0.612528
	C167	C	0.310015	0.114590	0.369003
	C168	C	0.874396	0.384963	0.170935
	C169	C	0.111587	0.615733	0.169782
	C170	C	0.109725	0.383590	0.820578
	C171	C	0.873392	0.614620	0.815570
	C172	C	0.165991	0.880555	0.378313
	C173	C	0.168553	0.118699	0.607066
	C174	C	0.810577	0.121599	0.379012
	C175	C	0.811578	0.876241	0.608012
	C176	C	0.376885	0.180498	0.870233
	C177	C	0.605078	0.174898	0.110360
	C178	C	0.376144	0.821300	0.112289
	C179	C	0.604584	0.825127	0.875097
	C180	C	0.375093	0.879989	0.169177
	C181	C	0.603640	0.119009	0.170186
	C182	C	0.376589	0.123492	0.811363
	C183	C	0.603865	0.882093	0.816017
	C184	C	0.869000	0.178549	0.379311
	C185	C	0.108234	0.172886	0.609089
	C186	C	0.107571	0.824318	0.378078
	C187	C	0.871741	0.821519	0.609047
	C188	C	0.168761	0.384816	0.876572
	C189	C	0.170405	0.615305	0.114089
	C190	C	0.815413	0.385319	0.114894
	C191	C	0.814378	0.614314	0.870767
	C192	C	0.390845	0.094478	0.587091
	C193	C	0.588561	0.905205	0.592164
	C194	C	0.588846	0.094409	0.393482
	C195	C	0.388087	0.904860	0.393210
	C196	C	0.592801	0.400506	0.087309
	C197	C	0.591736	0.601069	0.898373
	C198	C	0.392691	0.597781	0.088155
	C199	C	0.391334	0.404903	0.898857
	C200	C	0.084001	0.600873	0.394273
	C201	C	0.897107	0.597676	0.593077
	C202	C	0.084175	0.397524	0.596219
	C203	C	0.897624	0.402068	0.394358
	C204	C	0.893540	0.594895	0.089968
	C205	C	0.093044	0.405272	0.094523
	C206	C	0.090522	0.594455	0.894456
	C207	C	0.891244	0.404592	0.896732
	C208	C	0.090232	0.900510	0.587627
	C209	C	0.087179	0.098924	0.398692
	C210	C	0.889996	0.095689	0.588037
	C211	C	0.888724	0.901761	0.399275
	C212	C	0.583351	0.101061	0.891037
	C213	C	0.396553	0.100511	0.090285
	C214	C	0.582932	0.900578	0.095003
	C215	C	0.397302	0.902420	0.893406
	Zn216	Zn	0.489654	0.001458	0.740369
	Zn217	Zn	0.488721	0.000213	0.243728
	Zn218	Zn	0.742234	0.500230	-0.006944
	Zn219	Zn	0.241564	0.500493	-0.005587
	Zn220	Zn	-0.010037	0.750771	0.493753
	Zn221	Zn	-0.010165	0.248478	0.494448
	Zn222	Zn	-0.008989	0.498025	0.745585
	Zn223	Zn	-0.007665	0.500513	0.242695
	Zn224	Zn	0.491065	0.749879	-0.006545
	Zn225	Zn	0.491653	0.251804	-0.007900
	Zn226	Zn	0.738793	-0.001071	0.493294
	Zn227	Zn	0.239137	-0.000052	0.491779
	N228	N	0.405194	0.962791	0.669022
	N229	N	0.574728	0.038446	0.668404
	N230	N	0.572500	0.961554	0.316761
	N231	N	0.403777	0.038005	0.314378
	N232	N	0.671352	0.414365	0.955685
	N233	N	0.673086	0.588239	0.029249
	N234	N	0.310480	0.588851	0.957598
	N235	N	0.312836	0.413429	0.030386
	N236	N	0.953281	0.679118	0.407683
	N237	N	0.027153	0.677810	0.579540
	N238	N	0.953211	0.319093	0.580969
	N239	N	0.027319	0.321365	0.409519
	N240	N	0.954453	0.410831	0.675711
	N241	N	0.028094	0.582552	0.671538
	N242	N	0.954819	0.588021	0.312253
	N243	N	0.028796	0.415968	0.317336
	N244	N	0.408057	0.676410	0.955257
	N245	N	0.575932	0.676819	0.031162
	N246	N	0.576429	0.323866	0.954639
	N247	N	0.408495	0.324091	0.030572
	N248	N	0.668609	0.962381	0.406388
	N249	N	0.670173	0.035668	0.580134
	N250	N	0.311714	0.962503	0.577016
	N251	N	0.307693	0.036270	0.402933
	N252	N	0.908454	0.462645	0.170152
	N253	N	0.077936	0.537838	0.171411
	N254	N	0.075720	0.461249	0.818497
	N255	N	0.907038	0.536764	0.816401
	N256	N	0.168587	0.913402	0.456093
	N257	N	0.170074	0.087084	0.528676
	N258	N	0.809121	0.086226	0.456505
	N259	N	0.808828	0.910888	0.530159
	N260	N	0.453586	0.181292	0.904575
	N261	N	0.528484	0.176630	0.075492
	N262	N	0.453544	0.819497	0.080227
	N263	N	0.527976	0.823800	0.908874
	N264	N	0.451663	0.914457	0.171618
	N265	N	0.526073	0.086731	0.172277
	N266	N	0.453421	0.089284	0.809954
	N267	N	0.526877	0.915734	0.813601
	N268	N	0.903461	0.177654	0.456923
	N269	N	0.072670	0.174062	0.532022
	N270	N	0.074251	0.823189	0.455605
	N271	N	0.905520	0.822236	0.531641
	N272	N	0.170823	0.463259	0.908575
	N273	N	0.172384	0.537227	0.081332
	N274	N	0.813388	0.463308	0.079945
	N275	N	0.811802	0.536210	0.905293
	O276	O	0.077439	0.004650	-0.001595
	H277	H	0.065877	-0.003400	-0.006577
	H278	H	0.074635	0.000529	0.003825
	O279	O	0.908469	0.908513	0.030174
	H280	H	0.900941	0.906579	0.034911
	H281	H	0.910541	0.913181	0.040082
	O282	O	0.554738	0.533926	0.407612
	H283	H	0.552413	0.536252	0.406790
	H284	H	0.554799	0.520696	0.425000
	O285	O	-0.067431	0.976260	1.055100
	H286	H	-0.081852	0.978833	1.063111
	H287	H	-0.070188	0.973745	1.057348
	O288	O	0.428837	0.466293	0.450588
	H289	H	0.426679	0.466836	0.445282
	H290	H	0.438999	0.465809	0.453506
	O291	O	0.984786	0.971508	0.887402
	H292	H	0.984190	0.963640	0.886646
	H293	H	0.976619	0.967811	0.878947
	O294	O	1.008501	1.026444	1.052704
	H295	H	1.009306	1.020648	1.048876
	H296	H	1.010538	1.016443	1.047642
	O297	O	0.976757	-0.034534	0.948490
	H298	H	0.977940	-0.035282	0.940223
	H299	H	0.992469	-0.039808	0.952334
	O300	O	0.538114	0.461913	0.531132
	H301	H	0.547722	0.456353	0.532118
	H302	H	0.532689	0.472642	0.536134
	O303	O	0.921280	0.089287	0.072719
	H304	H	0.928164	0.081036	0.082419
	H305	H	0.928503	0.091497	0.075169
	O306	O	-0.112677	1.047848	0.957128
	H307	H	-0.124747	1.042156	0.963064
	H308	H	-0.116944	1.051926	0.954614
	O309	O	0.559350	0.506955	0.493751
	H310	H	0.562701	0.510635	0.490367
	H311	H	0.558120	0.499930	0.481652
	O312	O	1.027426	0.050633	1.034162
	H313	H	1.034295	0.057231	1.037109
	H314	H	1.034729	0.048357	1.036499
	O315	O	0.567387	0.482356	0.509697
	H316	H	0.558877	0.477573	0.520647
	H317	H	0.565255	0.479872	0.510179
	O318	O	0.365401	0.522029	0.458519
	H319	H	0.353778	0.512385	0.458711
	H320	H	0.357284	0.524535	0.459758
	O321	O	1.083718	0.976095	0.940325
	H322	H	1.082561	0.975600	0.942352
	H323	H	1.084273	0.982202	0.931442
	O324	O	0.932616	0.993512	0.926329
	H325	H	0.935182	0.998376	0.919667
	H326	H	0.922647	0.998998	0.924699
	O327	O	0.452109	0.526788	0.480421
	H328	H	0.464734	0.523795	0.479861
	H329	H	0.450943	0.519907	0.484234
	O330	O	0.929781	-0.062986	1.051694
	H331	H	0.935141	-0.064346	1.046156
	H332	H	0.926261	-0.068518	1.043921
	O333	O	1.039878	0.995517	-0.066561
	H334	H	1.038121	0.999930	-0.071517
	H335	H	1.039953	1.004489	-0.065107
	O336	O	0.424971	0.417718	0.595869
	H337	H	0.432952	0.421398	0.597147
	H338	H	0.420370	0.428127	0.582624
	O339	O	0.443717	0.543753	0.421360
	H340	H	0.440456	0.535255	0.420924
	H341	H	0.437218	0.542207	0.417715
	O342	O	-0.072514	0.943586	0.109154
	H343	H	-0.071583	0.942268	0.103490
	H344	H	-0.080536	0.945426	0.113287
	O345	O	-0.027932	-0.041164	0.061555
	H346	H	-0.017082	-0.036211	0.067972
	H347	H	-0.037139	-0.051046	0.066232
	O348	O	0.508820	0.455047	0.580925
	H349	H	0.512301	0.460082	0.577527
	H350	H	0.510466	0.457942	0.581954
	O351	O	0.535449	0.508746	0.453121
	H352	H	0.546853	0.504334	0.443458
	H353	H	0.539509	0.502831	0.464754
	O354	O	0.523253	0.438589	0.529537
	H355	H	0.525942	0.440056	0.533625
	H356	H	0.518605	0.435930	0.532251
	O357	O	0.525690	0.483641	0.493230
	H358	H	0.527447	0.495323	0.495261
	H359	H	0.525874	0.487793	0.496479
	O360	O	0.458136	-0.488848	0.467593
	H361	H	0.451120	-0.477686	0.467441
	H362	H	0.462541	-0.498390	0.458490
	O363	O	0.519825	0.586843	0.494742
	H364	H	0.514089	0.580272	0.489844
	H365	H	0.511300	0.579799	0.489799
	O366	O	-0.033389	0.085735	0.954917
	H367	H	-0.042906	0.092767	0.958943
	H368	H	-0.038020	0.092613	0.952672
	O369	O	0.426878	0.456296	0.526519
	H370	H	0.419107	0.459584	0.528520
	H371	H	0.423640	0.465274	0.528563
