data_Molecule from HDF5

_cell_length_a		16.344602
_cell_length_b		16.239750
_cell_length_c		16.241072
_cell_angle_alpha	90.447456
_cell_angle_beta	89.758598
_cell_angle_gamma	89.524692
_symmetry_space_group_name_H-M	'P 1'
_symmetry_Int_Tables_number		1

loop_
	_symmetry_equiv_pos_as_xyz
	x,y,z

loop_
	_atom_site_label
	_atom_site_type_symbol
	_atom_site_fract_x
	_atom_site_fract_y
	_atom_site_fract_z
	H0	H	0.402111	0.835459	0.713998
	H1	H	0.597402	0.163298	0.717626
	H2	H	0.602195	0.836828	0.282357
	H3	H	0.399737	0.164045	0.288543
	H4	H	0.717832	0.395394	0.837138
	H5	H	0.713156	0.601700	0.162644
	H6	H	0.284522	0.599512	0.834906
	H7	H	0.282128	0.402459	0.161661
	H8	H	0.838659	0.717686	0.399477
	H9	H	0.163345	0.713688	0.599129
	H10	H	0.836440	0.287251	0.597538
	H11	H	0.162720	0.281704	0.399577
	H12	H	0.836358	0.402455	0.714230
	H13	H	0.162125	0.598952	0.715974
	H14	H	0.837487	0.600046	0.284982
	H15	H	0.163099	0.396775	0.282282
	H16	H	0.400367	0.714263	0.835541
	H17	H	0.596498	0.715408	0.162790
	H18	H	0.600569	0.280552	0.836972
	H19	H	0.399610	0.287964	0.164093
	H20	H	0.720534	0.838286	0.394341
	H21	H	0.712412	0.164013	0.601149
	H22	H	0.283995	0.836224	0.602104
	H23	H	0.282169	0.162392	0.402941
	H24	H	0.902089	0.335603	0.212726
	H25	H	0.098339	0.662579	0.217037
	H26	H	0.098696	0.335050	0.783582
	H27	H	0.900445	0.664306	0.787631
	H28	H	0.219875	0.893940	0.338414
	H29	H	0.212407	0.099929	0.664952
	H30	H	0.783079	0.100573	0.337290
	H31	H	0.784163	0.900855	0.663245
	H32	H	0.337328	0.215694	0.902157
	H33	H	0.661159	0.216817	0.102651
	H34	H	0.336259	0.787656	0.098598
	H35	H	0.661296	0.780156	0.898333
	H36	H	0.337407	0.901637	0.216930
	H37	H	0.661539	0.101194	0.218068
	H38	H	0.336476	0.099532	0.786680
	H39	H	0.662032	0.896809	0.782611
	H40	H	0.900973	0.213020	0.335004
	H41	H	0.096325	0.214629	0.663590
	H42	H	0.103511	0.780807	0.337321
	H43	H	0.901914	0.786523	0.663704
	H44	H	0.219202	0.337397	0.893517
	H45	H	0.212788	0.664535	0.099213
	H46	H	0.783053	0.337149	0.100981
	H47	H	0.780579	0.662632	0.899761
	H48	H	0.405474	0.114135	0.588387
	H49	H	0.595109	0.884874	0.586550
	H50	H	0.593942	0.114820	0.415248
	H51	H	0.401011	0.881070	0.409212
	H52	H	0.591981	0.401896	0.118262
	H53	H	0.588016	0.586354	0.885133
	H54	H	0.407943	0.596140	0.115272
	H55	H	0.404130	0.410905	0.883146
	H56	H	0.120147	0.604858	0.410043
	H57	H	0.882079	0.600312	0.593607
	H58	H	0.118174	0.408434	0.600615
	H59	H	0.885153	0.403855	0.412839
	H60	H	0.117237	0.396698	0.588286
	H61	H	0.886487	0.592841	0.587738
	H62	H	0.108833	0.578788	0.420531
	H63	H	0.886907	0.414456	0.404660
	H64	H	0.400097	0.595756	0.118025
	H65	H	0.589360	0.592284	0.883152
	H66	H	0.596378	0.414357	0.115579
	H67	H	0.414975	0.408210	0.885339
	H68	H	0.594077	0.118434	0.405538
	H69	H	0.596700	0.881829	0.593114
	H70	H	0.400144	0.118156	0.596597
	H71	H	0.414824	0.882523	0.400670
	H72	H	0.908678	0.616778	0.097414
	H73	H	0.097780	0.384627	0.080125
	H74	H	0.091283	0.618594	0.899278
	H75	H	0.906330	0.382963	0.904902
	H76	H	0.100978	0.898724	0.622331
	H77	H	0.094381	0.081943	0.386230
	H78	H	0.905345	0.093346	0.616272
	H79	H	0.910359	0.912664	0.385575
	H80	H	0.616663	0.092584	0.906930
	H81	H	0.386596	0.093606	0.085703
	H82	H	0.614995	0.902087	0.086170
	H83	H	0.385312	0.912502	0.908229
	H84	H	0.613089	0.912660	0.090429
	H85	H	0.384564	0.085771	0.099512
	H86	H	0.614006	0.088833	0.912465
	H87	H	0.382582	0.906633	0.901984
	H88	H	0.906587	0.094347	0.615671
	H89	H	0.085904	0.090771	0.385361
	H90	H	0.095457	0.920583	0.613548
	H91	H	0.913410	0.907434	0.384272
	H92	H	0.083770	0.613451	0.910898
	H93	H	0.095774	0.380690	0.096455
	H94	H	0.907473	0.613815	0.087360
	H95	H	0.910840	0.384218	0.906817
	H96	H	0.409572	0.115465	0.597536
	H97	H	0.589585	0.884389	0.592054
	H98	H	0.586078	0.114692	0.409286
	H99	H	0.414288	0.887149	0.415630
	H100	H	0.583346	0.411486	0.112410
	H101	H	0.593716	0.587651	0.882594
	H102	H	0.403316	0.589159	0.114172
	H103	H	0.407730	0.400824	0.880785
	H104	H	0.118060	0.581081	0.391663
	H105	H	0.883691	0.590391	0.597636
	H106	H	0.111509	0.412885	0.585531
	H107	H	0.881151	0.403229	0.400384
	H108	H	0.900165	0.617725	0.091902
	H109	H	0.083133	0.387347	0.087719
	H110	H	0.099005	0.616416	0.912984
	H111	H	0.907636	0.384084	0.909023
	H112	H	0.078890	0.903043	0.613772
	H113	H	0.097375	0.092810	0.380912
	H114	H	0.904985	0.094476	0.617072
	H115	H	0.907128	0.906903	0.383119
	H116	H	0.614191	0.085372	0.906342
	H117	H	0.381152	0.100812	0.098062
	H118	H	0.617106	0.904168	0.097185
	H119	H	0.383354	0.903695	0.910369
	C120	C	0.377321	0.007732	0.622835
	C121	C	0.621300	0.991799	0.621353
	C122	C	0.622343	0.008576	0.378193
	C123	C	0.379110	0.991342	0.380088
	C124	C	0.621377	0.377115	0.008392
	C125	C	0.619185	0.619765	0.991103
	C126	C	0.376089	0.622223	0.007433
	C127	C	0.378514	0.378830	0.991004
	C128	C	0.008838	0.619856	0.377990
	C129	C	0.991819	0.622286	0.621920
	C130	C	0.007833	0.378323	0.620643
	C131	C	0.991724	0.376991	0.376655
	C132	C	0.877176	0.507960	0.121422
	C133	C	0.120902	0.491966	0.119063
	C134	C	0.121387	0.508249	0.876860
	C135	C	0.877794	0.491464	0.878238
	C136	C	0.122697	0.876857	0.508971
	C137	C	0.120333	0.119000	0.492065
	C138	C	0.877105	0.122617	0.508321
	C139	C	0.879816	0.879175	0.491602
	C140	C	0.507941	0.119670	0.879615
	C141	C	0.490911	0.122602	0.123727
	C142	C	0.507686	0.878661	0.121226
	C143	C	0.490652	0.876792	0.876822
	C144	C	0.380987	0.884605	0.677133
	C145	C	0.617571	0.114536	0.678771
	C146	C	0.621956	0.886060	0.320478
	C147	C	0.379684	0.114751	0.325883
	C148	C	0.678953	0.376239	0.885919
	C149	C	0.674778	0.620439	0.114012
	C150	C	0.322125	0.619732	0.884000
	C151	C	0.321019	0.382101	0.113442
	C152	C	0.887108	0.678573	0.379380
	C153	C	0.114424	0.676357	0.619578
	C154	C	0.885152	0.324222	0.618274
	C155	C	0.114062	0.319812	0.378422
	C156	C	0.885214	0.381578	0.676249
	C157	C	0.113752	0.619383	0.677846
	C158	C	0.886472	0.620218	0.322184
	C159	C	0.114144	0.376973	0.320226
	C160	C	0.379219	0.677281	0.884503
	C161	C	0.616898	0.676955	0.114016
	C162	C	0.620750	0.318836	0.885901
	C163	C	0.379258	0.324869	0.114508
	C164	C	0.680934	0.886645	0.376379
	C165	C	0.675328	0.114876	0.621094
	C166	C	0.322649	0.884922	0.620989
	C167	C	0.320742	0.113835	0.382275
	C168	C	0.880797	0.384942	0.175953
	C169	C	0.118743	0.614428	0.177397
	C170	C	0.119668	0.384690	0.820540
	C171	C	0.879156	0.614782	0.823833
	C172	C	0.180787	0.875652	0.387028
	C173	C	0.174623	0.118818	0.615565
	C174	C	0.821471	0.120415	0.385642
	C175	C	0.822591	0.880849	0.614393
	C176	C	0.385578	0.176728	0.881911
	C177	C	0.612544	0.178753	0.122583
	C178	C	0.385231	0.824635	0.119530
	C179	C	0.612915	0.819168	0.878415
	C180	C	0.385885	0.881546	0.178218
	C181	C	0.612711	0.121444	0.180357
	C182	C	0.385194	0.119098	0.824555
	C183	C	0.613058	0.876933	0.820626
	C184	C	0.879870	0.176639	0.384746
	C185	C	0.116938	0.176037	0.615124
	C186	C	0.122849	0.819178	0.386273
	C187	C	0.881261	0.824145	0.614840
	C188	C	0.179310	0.385718	0.875462
	C189	C	0.175262	0.615152	0.118638
	C190	C	0.821567	0.385650	0.120128
	C191	C	0.820111	0.614056	0.880077
	C192	C	0.398790	0.093809	0.600772
	C193	C	0.600020	0.905669	0.597349
	C194	C	0.598369	0.093978	0.402913
	C195	C	0.402983	0.905866	0.402111
	C196	C	0.597669	0.402105	0.093469
	C197	C	0.596891	0.595795	0.905631
	C198	C	0.397583	0.600215	0.093477
	C199	C	0.401999	0.400302	0.905230
	C200	C	0.093727	0.595422	0.400833
	C201	C	0.906254	0.601013	0.599499
	C202	C	0.093409	0.399597	0.598046
	C203	C	0.906553	0.400441	0.399310
	C204	C	0.899145	0.593970	0.098963
	C205	C	0.098718	0.406404	0.095129
	C206	C	0.098097	0.593865	0.900708
	C207	C	0.901244	0.406003	0.900493
	C208	C	0.098676	0.900525	0.594484
	C209	C	0.098934	0.095418	0.406316
	C210	C	0.899161	0.100618	0.594111
	C211	C	0.903382	0.902230	0.406513
	C212	C	0.592778	0.095933	0.901885
	C213	C	0.406068	0.100022	0.100967
	C214	C	0.593001	0.899990	0.097990
	C215	C	0.405650	0.900619	0.900110
	Zn216	Zn	0.499213	-0.000426	0.749594
	Zn217	Zn	0.499978	0.000556	0.250999
	Zn218	Zn	0.748657	0.499848	-0.000183
	Zn219	Zn	0.249377	0.500255	-0.002413
	Zn220	Zn	0.000761	0.749776	0.499367
	Zn221	Zn	-0.000265	0.248803	0.499166
	Zn222	Zn	-0.000505	0.500074	0.749624
	Zn223	Zn	0.000281	0.499304	0.248547
	Zn224	Zn	0.498658	0.748977	-0.000665
	Zn225	Zn	0.499595	0.249207	0.000722
	Zn226	Zn	0.750120	0.000193	0.500103
	Zn227	Zn	0.249619	-0.001577	0.501385
	N228	N	0.414362	0.962155	0.678361
	N229	N	0.584976	0.036815	0.679022
	N230	N	0.586270	0.962967	0.321359
	N231	N	0.415266	0.037646	0.324450
	N232	N	0.679411	0.411831	0.963091
	N233	N	0.676346	0.585414	0.036549
	N234	N	0.319941	0.586473	0.961570
	N235	N	0.320299	0.414565	0.035479
	N236	N	0.964042	0.678501	0.413233
	N237	N	0.037447	0.678255	0.585379
	N238	N	0.962448	0.322101	0.584284
	N239	N	0.036937	0.319442	0.412687
	N240	N	0.962511	0.414548	0.677788
	N241	N	0.036421	0.586697	0.679473
	N242	N	0.963109	0.584283	0.321390
	N243	N	0.037053	0.411679	0.318814
	N244	N	0.412124	0.679033	0.962241
	N245	N	0.582986	0.676561	0.036692
	N246	N	0.585606	0.319438	0.962979
	N247	N	0.414228	0.322596	0.037344
	N248	N	0.681102	0.963847	0.411900
	N249	N	0.677670	0.037428	0.586041
	N250	N	0.320207	0.962475	0.588080
	N251	N	0.320253	0.036079	0.415195
	N252	N	0.914577	0.462248	0.176922
	N253	N	0.085634	0.536866	0.177670
	N254	N	0.084352	0.461915	0.821213
	N255	N	0.914236	0.537561	0.822442
	N256	N	0.180762	0.910745	0.464343
	N257	N	0.176752	0.083848	0.538135
	N258	N	0.819426	0.087617	0.463528
	N259	N	0.821739	0.914613	0.536838
	N260	N	0.462554	0.177248	0.915478
	N261	N	0.535819	0.179601	0.088275
	N262	N	0.461855	0.822845	0.084452
	N263	N	0.535758	0.818986	0.912658
	N264	N	0.463152	0.914587	0.179230
	N265	N	0.536024	0.087078	0.181121
	N266	N	0.462203	0.084276	0.822901
	N267	N	0.536284	0.912025	0.819557
	N268	N	0.913752	0.178064	0.462085
	N269	N	0.083867	0.176335	0.537341
	N270	N	0.087270	0.819858	0.463164
	N271	N	0.916093	0.822860	0.537677
	N272	N	0.180720	0.463577	0.909526
	N273	N	0.176700	0.537862	0.083025
	N274	N	0.819134	0.463376	0.086978
	N275	N	0.818950	0.536334	0.913158
	O276	O	1.036125	0.010397	1.030565
	H277	H	1.042402	-0.006189	1.024451
	H278	H	1.018953	0.013108	1.041213
	O279	O	0.535588	0.549101	0.523912
	H280	H	0.534460	0.547052	0.528024
	H281	H	0.532138	0.544085	0.533557
	O282	O	0.864578	1.019050	0.105038
	H283	H	0.850683	1.017779	0.111922
	H284	H	0.865643	1.011670	0.113184
	O285	O	1.005103	-0.133080	1.036740
	H286	H	1.001894	-0.137768	1.036753
	H287	H	1.010196	-0.132970	1.023799
	O288	O	0.460801	0.592621	0.491373
	H289	H	0.456616	0.602093	0.488112
	H290	H	0.456027	0.586804	0.497546
	O291	O	0.510073	0.465437	0.471157
	H292	H	0.516115	0.451956	0.474088
	H293	H	0.514444	0.470549	0.465500
	O294	O	0.443908	0.500139	0.519137
	H295	H	0.447676	0.502960	0.504414
	H296	H	0.438499	0.495885	0.518907
	O297	O	-0.053566	0.015068	0.937102
	H298	H	-0.040698	0.014943	0.934239
	H299	H	-0.048345	0.023934	0.942146
	O300	O	0.105322	0.991216	0.053994
	H301	H	0.092763	1.005471	0.066204
	H302	H	0.122741	0.977096	0.049282
	O303	O	1.064441	0.999914	-0.127113
	H304	H	1.081671	0.990899	-0.126908
	H305	H	1.060976	0.997417	-0.126375
	O306	O	0.002372	0.914009	1.015691
	H307	H	0.004921	0.918119	1.016123
	H308	H	-0.001178	0.917063	1.020327
	O309	O	0.534557	0.458891	0.445455
	H310	H	0.533633	0.454593	0.439272
	H311	H	0.535495	0.468796	0.466314
	O312	O	0.057535	0.048609	0.014939
	H313	H	0.061713	0.047993	0.015877
	H314	H	0.059109	0.038992	0.019079
	O315	O	1.102618	-0.006470	0.064183
	H316	H	1.096631	0.000066	0.070939
	H317	H	1.094934	0.004547	0.057245
	O318	O	1.083820	0.992538	1.047108
	H319	H	1.075885	0.997117	1.060458
	H320	H	1.089739	0.991658	1.058168
	O321	O	0.591823	0.549418	1.522461
	H322	H	0.590686	0.544776	1.516434
	H323	H	0.598732	0.552160	1.527660
	O324	O	0.452356	0.445396	0.533599
	H325	H	0.460773	0.442650	0.530343
	H326	H	0.467355	0.449992	0.525531
	O327	O	-0.431435	0.547500	-0.499643
	H328	H	-0.435967	0.544287	-0.494121
	H329	H	-0.418617	0.542169	-0.494309
	O330	O	0.547582	0.449720	0.439726
	H331	H	0.548629	0.447130	0.443247
	H332	H	0.542609	0.456471	0.430653
	O333	O	0.002796	1.039692	0.876111
	H334	H	0.004230	1.027649	0.874610
	H335	H	0.001179	1.038801	0.874228
	O336	O	0.029239	0.034817	0.073830
	H337	H	0.035185	0.043793	0.086953
	H338	H	0.026990	0.026264	0.066270
	O339	O	0.562392	0.452861	0.410567
	H340	H	0.555885	0.455903	0.410091
	H341	H	0.567444	0.467030	0.406085
	O342	O	0.907516	1.066322	0.921151
	H343	H	0.911557	1.081431	0.915977
	H344	H	0.906680	1.071154	0.913028
	O345	O	1.059690	1.065477	0.037943
	H346	H	1.065347	1.069131	0.030702
	H347	H	1.048309	1.060644	0.027963
	O348	O	0.522344	0.619049	0.549615
	H349	H	0.512095	0.623401	0.547518
	H350	H	0.524276	0.620719	0.553445
	O351	O	0.892776	0.084332	1.032085
	H352	H	0.896526	0.087893	1.030761
	H353	H	0.893718	0.079293	1.042414
	O354	O	0.528380	0.446519	0.375932
	H355	H	0.528086	0.451805	0.370463
	H356	H	0.519269	0.452441	0.369529
	O357	O	0.470664	-0.556235	0.496841
	H358	H	0.475264	-0.555945	0.489843
	H359	H	0.475331	-0.562259	0.502322
	O360	O	0.505371	0.540582	0.590154
	H361	H	0.503351	0.538395	0.593665
	H362	H	0.508302	0.539773	0.599336
	O363	O	0.503981	0.586537	0.433832
	H364	H	0.515707	0.590272	0.432736
	H365	H	0.499144	0.577637	0.423644
	O366	O	1.468477	0.505897	0.439783
	H367	H	1.463443	0.508465	0.443498
	H368	H	1.474568	0.502170	0.444475
	O369	O	0.892290	-0.095196	1.131779
	H370	H	0.901475	-0.107766	1.133702
	H371	H	0.901138	-0.103784	1.118619
	O372	O	0.000068	-0.058104	0.021856
	H373	H	-0.001496	-0.059812	0.009637
	H374	H	0.000631	-0.044445	0.023201
	O375	O	0.982478	-0.002936	-0.047713
	H376	H	0.981886	0.008592	-0.035737
	H377	H	0.986077	0.001747	-0.058075
	O378	O	0.427350	0.494549	0.573521
	H379	H	0.422339	0.491648	0.575449
	H380	H	0.426617	0.488778	0.574891
	O381	O	-0.007083	1.050481	0.903668
	H382	H	-0.008252	1.047401	0.906393
	H383	H	-0.005659	1.053079	0.911645
