data_Molecule from HDF5

_cell_length_a		16.184802
_cell_length_b		16.288772
_cell_length_c		16.353838
_cell_angle_alpha	89.618627
_cell_angle_beta	90.146420
_cell_angle_gamma	89.972426
_symmetry_space_group_name_H-M	'P 1'
_symmetry_Int_Tables_number		1

loop_
	_symmetry_equiv_pos_as_xyz
	x,y,z

loop_
	_atom_site_label
	_atom_site_type_symbol
	_atom_site_fract_x
	_atom_site_fract_y
	_atom_site_fract_z
	H0	H	0.403523	0.841598	0.717639
	H1	H	0.607840	0.166290	0.714688
	H2	H	0.605215	0.840404	0.285307
	H3	H	0.403387	0.165829	0.280888
	H4	H	0.721290	0.407278	0.835650
	H5	H	0.721397	0.601405	0.162670
	H6	H	0.291645	0.604913	0.836034
	H7	H	0.291619	0.404837	0.162496
	H8	H	0.841709	0.718648	0.397161
	H9	H	0.170334	0.717768	0.597041
	H10	H	0.841519	0.289213	0.595594
	H11	H	0.170604	0.288501	0.400037
	H12	H	0.842180	0.402247	0.714360
	H13	H	0.170609	0.602505	0.713028
	H14	H	0.843323	0.604480	0.280909
	H15	H	0.171328	0.405269	0.285284
	H16	H	0.405065	0.722952	0.837584
	H17	H	0.605838	0.718232	0.162527
	H18	H	0.607928	0.287257	0.836970
	H19	H	0.407375	0.287371	0.162570
	H20	H	0.718000	0.838832	0.402231
	H21	H	0.722555	0.165834	0.597379
	H22	H	0.292826	0.839315	0.597013
	H23	H	0.292234	0.167253	0.400319
	H24	H	0.907754	0.341562	0.215620
	H25	H	0.110085	0.666651	0.215560
	H26	H	0.108001	0.340761	0.784390
	H27	H	0.905371	0.665964	0.779542
	H28	H	0.220376	0.906471	0.335171
	H29	H	0.220830	0.100729	0.661590
	H30	H	0.789980	0.101510	0.334746
	H31	H	0.790389	0.900940	0.660611
	H32	H	0.341987	0.220170	0.899442
	H33	H	0.671237	0.215669	0.098330
	H34	H	0.342019	0.788431	0.098028
	H35	H	0.670249	0.790434	0.902039
	H36	H	0.340860	0.904915	0.212506
	H37	H	0.669784	0.101863	0.214875
	H38	H	0.342095	0.107194	0.781837
	H39	H	0.669374	0.902964	0.783468
	H40	H	0.905021	0.220941	0.335524
	H41	H	0.107534	0.218485	0.660847
	H42	H	0.105538	0.789572	0.335189
	H43	H	0.906651	0.785422	0.659924
	H44	H	0.221932	0.340560	0.901985
	H45	H	0.220135	0.669298	0.094010
	H46	H	0.793435	0.340277	0.099095
	H47	H	0.793075	0.668231	0.899429
	H48	H	0.420210	0.117679	0.591259
	H49	H	0.591744	0.888608	0.593922
	H50	H	0.604211	0.118839	0.412730
	H51	H	0.405249	0.884844	0.409926
	H52	H	0.606269	0.410682	0.116596
	H53	H	0.592119	0.600444	0.884920
	H54	H	0.417835	0.591030	0.112637
	H55	H	0.415657	0.412058	0.884653
	H56	H	0.124022	0.598820	0.409151
	H57	H	0.887767	0.598216	0.590343
	H58	H	0.124259	0.407279	0.591740
	H59	H	0.891568	0.413739	0.408933
	H60	H	0.122195	0.411206	0.589786
	H61	H	0.890925	0.593282	0.586600
	H62	H	0.122682	0.593097	0.405893
	H63	H	0.889025	0.413863	0.403015
	H64	H	0.418096	0.601760	0.115693
	H65	H	0.603746	0.602580	0.880609
	H66	H	0.596005	0.414171	0.111465
	H67	H	0.414323	0.411783	0.884428
	H68	H	0.598785	0.122360	0.396341
	H69	H	0.597849	0.888528	0.588536
	H70	H	0.410514	0.118584	0.584971
	H71	H	0.412887	0.884733	0.397776
	H72	H	0.927801	0.617858	0.096533
	H73	H	0.096817	0.389716	0.091143
	H74	H	0.095052	0.617772	0.907102
	H75	H	0.914752	0.385986	0.900731
	H76	H	0.099719	0.906011	0.615521
	H77	H	0.099024	0.103468	0.380796
	H78	H	0.921408	0.094170	0.610940
	H79	H	0.906721	0.916048	0.382036
	H80	H	0.622262	0.090675	0.901361
	H81	H	0.387754	0.100622	0.090797
	H82	H	0.619887	0.922474	0.095950
	H83	H	0.389808	0.914277	0.909915
	H84	H	0.627788	0.903899	0.103126
	H85	H	0.390367	0.093195	0.087231
	H86	H	0.624252	0.102610	0.907597
	H87	H	0.389460	0.915250	0.907314
	H88	H	0.912219	0.102336	0.616163
	H89	H	0.102168	0.091927	0.382736
	H90	H	0.100844	0.911259	0.613637
	H91	H	0.918403	0.911149	0.384380
	H92	H	0.104321	0.622192	0.904718
	H93	H	0.101887	0.388140	0.091041
	H94	H	0.913118	0.617494	0.077153
	H95	H	0.919288	0.391062	0.909742
	H96	H	0.410455	0.122238	0.595519
	H97	H	0.598675	0.885986	0.596300
	H98	H	0.586893	0.115777	0.407943
	H99	H	0.419512	0.890125	0.409944
	H100	H	0.596880	0.403051	0.116529
	H101	H	0.600620	0.591751	0.885230
	H102	H	0.408342	0.595736	0.116669
	H103	H	0.415230	0.413189	0.884392
	H104	H	0.124716	0.598356	0.402559
	H105	H	0.889147	0.592425	0.592494
	H106	H	0.123523	0.411147	0.595226
	H107	H	0.888588	0.408758	0.406852
	H108	H	0.904742	0.625959	0.098114
	H109	H	0.099295	0.387126	0.095380
	H110	H	0.096674	0.621513	0.897688
	H111	H	0.908708	0.387726	0.910092
	H112	H	0.095723	0.909115	0.612767
	H113	H	0.090837	0.095884	0.385253
	H114	H	0.908821	0.089336	0.612958
	H115	H	0.909247	0.904027	0.379249
	H116	H	0.618999	0.091830	0.914145
	H117	H	0.387839	0.093463	0.094847
	H118	H	0.622243	0.905663	0.082986
	H119	H	0.389258	0.911893	0.907870
	C120	C	0.384219	0.011934	0.620479
	C121	C	0.627045	0.994976	0.621374
	C122	C	0.625813	0.011328	0.377886
	C123	C	0.383424	0.994676	0.376601
	C124	C	0.629224	0.380970	0.007613
	C125	C	0.628273	0.626274	0.991314
	C126	C	0.385137	0.626336	0.007534
	C127	C	0.385342	0.382429	0.991539
	C128	C	0.015015	0.625649	0.376249
	C129	C	0.998197	0.623577	0.618370
	C130	C	0.014862	0.380744	0.620729
	C131	C	0.998413	0.383197	0.377837
	C132	C	0.885909	0.512730	0.120348
	C133	C	0.129166	0.496248	0.120772
	C134	C	0.128539	0.512520	0.876063
	C135	C	0.884809	0.495761	0.876891
	C136	C	0.127534	0.881490	0.506316
	C137	C	0.127508	0.125484	0.490075
	C138	C	0.883421	0.125101	0.506194
	C139	C	0.883153	0.880268	0.489412
	C140	C	0.514082	0.125863	0.877550
	C141	C	0.497439	0.124492	0.120445
	C142	C	0.514514	0.881622	0.122041
	C143	C	0.497575	0.883999	0.879066
	C144	C	0.384640	0.889919	0.678154
	C145	C	0.627242	0.117517	0.676775
	C146	C	0.624646	0.888741	0.323092
	C147	C	0.384396	0.117097	0.319745
	C148	C	0.684066	0.385353	0.884852
	C149	C	0.683816	0.622781	0.113921
	C150	C	0.329313	0.625249	0.884940
	C151	C	0.329553	0.384325	0.113897
	C152	C	0.891312	0.681004	0.377233
	C153	C	0.121450	0.679309	0.616558
	C154	C	0.890954	0.326023	0.617540
	C155	C	0.121912	0.327218	0.380122
	C156	C	0.891425	0.382205	0.676497
	C157	C	0.121532	0.621896	0.674227
	C158	C	0.891858	0.623880	0.319695
	C159	C	0.122171	0.385112	0.322908
	C160	C	0.385896	0.683966	0.885806
	C161	C	0.626396	0.680957	0.113787
	C162	C	0.628235	0.325356	0.885480
	C163	C	0.387149	0.325841	0.113868
	C164	C	0.680703	0.888042	0.381509
	C165	C	0.684416	0.117137	0.618375
	C166	C	0.329531	0.888802	0.618109
	C167	C	0.328844	0.117921	0.378828
	C168	C	0.887658	0.390045	0.176982
	C169	C	0.128550	0.618516	0.176426
	C170	C	0.127266	0.389306	0.822587
	C171	C	0.886203	0.617927	0.819277
	C172	C	0.182282	0.885574	0.383641
	C173	C	0.183673	0.122028	0.612536
	C174	C	0.827133	0.123101	0.383796
	C175	C	0.828190	0.881362	0.611960
	C176	C	0.390915	0.182470	0.879093
	C177	C	0.621486	0.178665	0.118416
	C178	C	0.390943	0.826418	0.118482
	C179	C	0.621144	0.828174	0.881145
	C180	C	0.390453	0.883941	0.175855
	C181	C	0.620928	0.121765	0.176090
	C182	C	0.391022	0.126064	0.820735
	C183	C	0.620545	0.884061	0.822172
	C184	C	0.884501	0.182123	0.384154
	C185	C	0.126918	0.180469	0.612343
	C186	C	0.124986	0.827512	0.383672
	C187	C	0.885824	0.823770	0.611449
	C188	C	0.184201	0.389475	0.880920
	C189	C	0.183596	0.619777	0.116216
	C190	C	0.830687	0.389569	0.118946
	C191	C	0.830378	0.619131	0.878929
	C192	C	0.407073	0.097545	0.597370
	C193	C	0.602928	0.909774	0.599518
	C194	C	0.603195	0.096867	0.399453
	C195	C	0.405915	0.908834	0.399277
	C196	C	0.606512	0.402794	0.092739
	C197	C	0.605565	0.604617	0.905696
	C198	C	0.407883	0.602931	0.092853
	C199	C	0.408163	0.405552	0.906627
	C200	C	0.101430	0.603333	0.399265
	C201	C	0.911621	0.601064	0.596223
	C202	C	0.100986	0.403266	0.598667
	C203	C	0.912128	0.405549	0.399708
	C204	C	0.908445	0.598402	0.097345
	C205	C	0.106077	0.410547	0.098942
	C206	C	0.105562	0.598333	0.896993
	C207	C	0.907664	0.410321	0.900002
	C208	C	0.105356	0.902673	0.591854
	C209	C	0.104133	0.103625	0.404901
	C210	C	0.907152	0.102143	0.591405
	C211	C	0.905168	0.903731	0.404050
	C212	C	0.599773	0.102013	0.900696
	C213	C	0.410989	0.102414	0.097701
	C214	C	0.600982	0.904259	0.100421
	C215	C	0.411690	0.907220	0.901694
	Zn216	Zn	0.505312	0.004384	0.749654
	Zn217	Zn	0.505341	0.003123	0.249111
	Zn218	Zn	0.757025	0.504662	-0.000613
	Zn219	Zn	0.256477	0.505008	-0.001416
	Zn220	Zn	0.006052	0.752797	0.497641
	Zn221	Zn	0.006197	0.253920	0.498746
	Zn222	Zn	0.006659	0.502787	0.747779
	Zn223	Zn	0.007536	0.504279	0.248711
	Zn224	Zn	0.506585	0.754953	-0.000662
	Zn225	Zn	0.506512	0.252612	-0.000712
	Zn226	Zn	0.755019	0.002398	0.498625
	Zn227	Zn	0.255795	0.003467	0.498368
	N228	N	0.417900	0.967540	0.679701
	N229	N	0.592314	0.040501	0.678773
	N230	N	0.591294	0.966420	0.320669
	N231	N	0.417760	0.039534	0.318323
	N232	N	0.685063	0.418995	0.961862
	N233	N	0.685122	0.589498	0.036795
	N234	N	0.328833	0.589881	0.961591
	N235	N	0.328628	0.419190	0.037054
	N236	N	0.968925	0.682092	0.411701
	N237	N	0.043565	0.680411	0.582783
	N238	N	0.968650	0.324871	0.583910
	N239	N	0.043957	0.325871	0.413535
	N240	N	0.969633	0.415301	0.678773
	N241	N	0.043691	0.587754	0.675329
	N242	N	0.969933	0.590271	0.318756
	N243	N	0.044360	0.419163	0.321393
	N244	N	0.420017	0.684374	0.962913
	N245	N	0.592518	0.682989	0.036477
	N246	N	0.594994	0.322236	0.962775
	N247	N	0.420916	0.324478	0.036736
	N248	N	0.681585	0.965312	0.414923
	N249	N	0.684442	0.039960	0.584819
	N250	N	0.329152	0.965738	0.582811
	N251	N	0.328148	0.040823	0.413549
	N252	N	0.921352	0.467588	0.177862
	N253	N	0.095491	0.540587	0.179140
	N254	N	0.093606	0.466703	0.819400
	N255	N	0.919537	0.540119	0.818013
	N256	N	0.184028	0.918374	0.460873
	N257	N	0.184022	0.088484	0.535585
	N258	N	0.826498	0.088193	0.460744
	N259	N	0.826563	0.916040	0.535070
	N260	N	0.468505	0.182618	0.913384
	N261	N	0.543630	0.180206	0.084261
	N262	N	0.469196	0.824954	0.085850
	N263	N	0.543795	0.828163	0.915598
	N264	N	0.468339	0.917496	0.178152
	N265	N	0.542762	0.088880	0.177656
	N266	N	0.468652	0.091497	0.819623
	N267	N	0.542704	0.918384	0.820751
	N268	N	0.918733	0.183382	0.461163
	N269	N	0.092597	0.182641	0.535347
	N270	N	0.091761	0.824840	0.461055
	N271	N	0.918974	0.822759	0.534241
	N272	N	0.184865	0.467212	0.913686
	N273	N	0.183979	0.542705	0.082299
	N274	N	0.829525	0.466807	0.084322
	N275	N	0.829398	0.542269	0.914006
	O276	O	-0.043179	0.038890	-0.027356
	H277	H	-0.046716	0.046077	-0.014022
	H278	H	-0.037552	0.038796	-0.032998
	O279	O	0.460896	0.488555	0.578750
	H280	H	0.456801	0.496906	0.590762
	H281	H	0.461875	0.481204	0.589537
	O282	O	0.539121	0.583413	0.485319
	H283	H	0.531235	0.585472	0.483193
	H284	H	0.541225	0.593320	0.495434
	O285	O	0.994259	-0.030368	0.943617
	H286	H	0.989948	-0.036166	0.943402
	H287	H	1.000760	-0.038131	0.943337
	O288	O	1.055156	0.038693	-0.009093
	H289	H	1.062496	0.038106	-0.009512
	H290	H	1.060102	0.031401	-0.011545
	O291	O	0.501150	0.528007	0.540669
	H292	H	0.505718	0.525846	0.531413
	H293	H	0.494778	0.519790	0.544203
	O294	O	0.994560	0.087327	0.991563
	H295	H	0.984926	0.077544	0.976004
	H296	H	0.998963	0.098012	0.992199
	O297	O	0.029121	-0.004821	-0.078945
	H298	H	0.025468	-0.009292	-0.082945
	H299	H	0.017995	-0.005699	-0.067711
	O300	O	0.521097	0.420540	0.528482
	H301	H	0.518845	0.419596	0.534573
	H302	H	0.500417	0.421260	0.522257
	O303	O	0.499946	0.554085	0.455103
	H304	H	0.501890	0.559638	0.438368
	H305	H	0.503651	0.543868	0.452909
	O306	O	1.011252	0.077131	-0.095517
	H307	H	1.007899	0.076110	-0.106849
	H308	H	1.004064	0.071506	-0.090556
	O309	O	0.023523	-0.006480	1.013424
	H310	H	0.026432	-0.013214	1.015981
	H311	H	0.021507	-0.001703	1.009139
	O312	O	0.975019	1.037607	0.920862
	H313	H	0.977603	1.037582	0.924683
	H314	H	0.969128	1.051677	0.919816
	O315	O	0.544819	0.502230	0.492938
	H316	H	0.538886	0.501661	0.504920
	H317	H	0.543901	0.511846	0.479696
	O318	O	0.513800	0.505518	0.498352
	H319	H	0.517538	0.513176	0.492521
	H320	H	0.521297	0.503063	0.499235
	O321	O	-0.044348	1.034013	0.977930
	H322	H	-0.053766	1.046393	0.978734
	H323	H	-0.031074	1.028879	0.980915
	O324	O	0.453178	0.508700	0.497533
	H325	H	0.448072	0.510062	0.502713
	H326	H	0.455789	0.513413	0.499476
	O327	O	0.394793	0.470561	0.483265
	H328	H	0.397103	0.470572	0.481137
	H329	H	0.398945	0.476408	0.482011
	O330	O	0.517236	0.586795	0.527266
	H331	H	0.524137	0.586849	0.521092
	H332	H	0.525922	0.581617	0.524128
	O333	O	0.534199	0.384615	0.604573
	H334	H	0.531153	0.380820	0.611777
	H335	H	0.528764	0.384592	0.596433
	O336	O	0.547603	0.435682	0.409261
	H337	H	0.539764	0.434429	0.405881
	H338	H	0.546656	0.430568	0.404637
	O339	O	0.930454	1.012840	-0.005118
	H340	H	0.931480	1.018056	-0.004060
	H341	H	0.928210	1.011296	-0.005276
	O342	O	0.497736	0.428078	0.542594
	H343	H	0.494237	0.424461	0.545302
	H344	H	0.491202	0.420585	0.539081
	O345	O	0.566222	0.540214	0.437010
	H346	H	0.579549	0.542184	0.438054
	H347	H	0.566592	0.529756	0.433478
	O348	O	0.031305	0.007734	-0.056282
	H349	H	0.037577	0.003511	-0.055703
	H350	H	0.029084	0.007363	-0.057824
	O351	O	-0.017297	0.949800	0.958327
	H352	H	-0.028825	0.954820	0.959067
	H353	H	-0.014357	0.955030	0.947449
	O354	O	0.457203	0.490985	0.533544
	H355	H	0.460515	0.489656	0.539635
	H356	H	0.456857	0.489133	0.537153
	O357	O	-0.072275	1.093834	0.987604
	H358	H	-0.075977	1.093589	0.972415
	H359	H	-0.081389	1.111237	0.988413
