data_Molecule from HDF5

_cell_length_a		16.260946
_cell_length_b		16.364526
_cell_length_c		16.199389
_cell_angle_alpha	90.068224
_cell_angle_beta	90.120877
_cell_angle_gamma	90.019651
_symmetry_space_group_name_H-M	'P 1'
_symmetry_Int_Tables_number		1

loop_
	_symmetry_equiv_pos_as_xyz
	x,y,z

loop_
	_atom_site_label
	_atom_site_type_symbol
	_atom_site_fract_x
	_atom_site_fract_y
	_atom_site_fract_z
	H0	H	0.400405	0.846679	0.712110
	H1	H	0.598656	0.172428	0.716456
	H2	H	0.597336	0.846049	0.285915
	H3	H	0.400810	0.173454	0.282946
	H4	H	0.711444	0.411709	0.833984
	H5	H	0.713425	0.608136	0.163199
	H6	H	0.285497	0.607912	0.833616
	H7	H	0.284802	0.412411	0.162858
	H8	H	0.836121	0.728656	0.397283
	H9	H	0.162924	0.726707	0.599253
	H10	H	0.836613	0.295664	0.600184
	H11	H	0.162445	0.295613	0.398470
	H12	H	0.834881	0.415157	0.711065
	H13	H	0.162423	0.610626	0.714047
	H14	H	0.834623	0.609809	0.284584
	H15	H	0.163413	0.414213	0.284877
	H16	H	0.399629	0.725244	0.835219
	H17	H	0.600770	0.725898	0.162938
	H18	H	0.596841	0.295855	0.834178
	H19	H	0.397785	0.293981	0.162006
	H20	H	0.717930	0.849965	0.397507
	H21	H	0.714783	0.173991	0.599910
	H22	H	0.282354	0.848972	0.597713
	H23	H	0.285357	0.175312	0.401463
	H24	H	0.899925	0.348656	0.215211
	H25	H	0.099630	0.674087	0.214814
	H26	H	0.096740	0.349334	0.782501
	H27	H	0.900164	0.674883	0.784403
	H28	H	0.211684	0.914375	0.335219
	H29	H	0.213804	0.111407	0.663818
	H30	H	0.784497	0.110639	0.334916
	H31	H	0.786885	0.915228	0.664731
	H32	H	0.336536	0.226228	0.896478
	H33	H	0.662193	0.227599	0.101285
	H34	H	0.336705	0.794257	0.099044
	H35	H	0.662617	0.795345	0.900612
	H36	H	0.334733	0.913042	0.210489
	H37	H	0.663583	0.107626	0.213404
	H38	H	0.335226	0.106251	0.784990
	H39	H	0.663124	0.911555	0.784879
	H40	H	0.899028	0.227747	0.335796
	H41	H	0.099677	0.227551	0.663595
	H42	H	0.099789	0.796444	0.336066
	H43	H	0.899196	0.796516	0.663494
	H44	H	0.214760	0.349143	0.896583
	H45	H	0.215598	0.673301	0.099167
	H46	H	0.783854	0.347128	0.098064
	H47	H	0.781006	0.672875	0.898656
	H48	H	0.406270	0.127146	0.592829
	H49	H	0.589140	0.898507	0.587780
	H50	H	0.598392	0.129064	0.405277
	H51	H	0.399767	0.896168	0.413028
	H52	H	0.592790	0.410071	0.117939
	H53	H	0.587531	0.601778	0.883113
	H54	H	0.405272	0.597153	0.113387
	H55	H	0.408526	0.414928	0.881814
	H56	H	0.112184	0.593769	0.405842
	H57	H	0.877613	0.619645	0.595913
	H58	H	0.118252	0.417656	0.597453
	H59	H	0.882467	0.411927	0.410640
	H60	H	0.116041	0.414663	0.585857
	H61	H	0.887637	0.603373	0.575133
	H62	H	0.120355	0.611777	0.396916
	H63	H	0.886414	0.424869	0.411524
	H64	H	0.413460	0.603769	0.114673
	H65	H	0.590801	0.605456	0.881592
	H66	H	0.597017	0.422381	0.115828
	H67	H	0.403832	0.415753	0.880225
	H68	H	0.586514	0.126330	0.399638
	H69	H	0.598198	0.894026	0.589499
	H70	H	0.406992	0.126577	0.592455
	H71	H	0.400319	0.892375	0.398312
	H72	H	0.905773	0.625963	0.090394
	H73	H	0.094176	0.393368	0.096857
	H74	H	0.093410	0.630538	0.899204
	H75	H	0.912718	0.396107	0.901675
	H76	H	0.101459	0.925904	0.618266
	H77	H	0.088992	0.098321	0.385448
	H78	H	0.899961	0.101463	0.617656
	H79	H	0.904282	0.921144	0.382119
	H80	H	0.618117	0.104804	0.903230
	H81	H	0.382360	0.105026	0.091926
	H82	H	0.617207	0.914561	0.091295
	H83	H	0.380062	0.915708	0.900771
	H84	H	0.616337	0.918727	0.091816
	H85	H	0.384208	0.103071	0.087264
	H86	H	0.614933	0.106534	0.914281
	H87	H	0.382036	0.910730	0.911039
	H88	H	0.913898	0.099949	0.612907
	H89	H	0.085877	0.108344	0.383519
	H90	H	0.080938	0.923456	0.612243
	H91	H	0.910912	0.922600	0.385162
	H92	H	0.084755	0.624772	0.909147
	H93	H	0.085327	0.397621	0.091575
	H94	H	0.903868	0.626838	0.090816
	H95	H	0.902854	0.397106	0.912242
	H96	H	0.406346	0.126375	0.592745
	H97	H	0.591590	0.893340	0.596708
	H98	H	0.588202	0.122747	0.413290
	H99	H	0.412503	0.897626	0.405372
	H100	H	0.584573	0.420098	0.113100
	H101	H	0.592507	0.600872	0.881985
	H102	H	0.403624	0.606333	0.118069
	H103	H	0.406204	0.419200	0.882809
	H104	H	0.113681	0.610755	0.418028
	H105	H	0.882757	0.592588	0.600757
	H106	H	0.113791	0.425720	0.589626
	H107	H	0.881261	0.420413	0.399270
	H108	H	0.905075	0.626837	0.092824
	H109	H	0.095956	0.396608	0.085797
	H110	H	0.097732	0.627063	0.912387
	H111	H	0.899466	0.391971	0.899071
	H112	H	0.091823	0.907309	0.620905
	H113	H	0.096501	0.105718	0.380511
	H114	H	0.908817	0.113125	0.618242
	H115	H	0.909659	0.915361	0.382537
	H116	H	0.612860	0.096442	0.908863
	H117	H	0.384403	0.100244	0.091059
	H118	H	0.617629	0.916768	0.095342
	H119	H	0.385307	0.922201	0.909237
	C120	C	0.377253	0.019148	0.621299
	C121	C	0.621468	1.002526	0.620962
	C122	C	0.620903	0.018884	0.377090
	C123	C	0.375978	1.002948	0.376704
	C124	C	0.619898	0.388483	0.006905
	C125	C	0.620098	0.631341	0.990666
	C126	C	0.378013	0.631560	0.006935
	C127	C	0.376813	0.387984	0.989970
	C128	C	0.007496	0.634302	0.377051
	C129	C	0.990688	0.633935	0.620270
	C130	C	0.007884	0.390806	0.620141
	C131	C	0.991242	0.390341	0.378078
	C132	C	0.877017	0.518775	0.120349
	C133	C	0.120821	0.503101	0.120387
	C134	C	0.120260	0.520045	0.877088
	C135	C	0.876426	0.502491	0.875960
	C136	C	0.120248	0.890314	0.508585
	C137	C	0.120103	0.133222	0.491547
	C138	C	0.877869	0.133814	0.507926
	C139	C	0.878651	0.890637	0.491647
	C140	C	0.507431	0.131170	0.878232
	C141	C	0.491343	0.131611	0.120244
	C142	C	0.508410	0.888138	0.120998
	C143	C	0.490676	0.887989	0.878003
	C144	C	0.379515	0.896072	0.675485
	C145	C	0.619387	0.124403	0.677772
	C146	C	0.618359	0.895787	0.322707
	C147	C	0.379704	0.125238	0.321391
	C148	C	0.674220	0.391154	0.883149
	C149	C	0.675875	0.628870	0.114110
	C150	C	0.323007	0.628762	0.883216
	C151	C	0.322200	0.391160	0.113684
	C152	C	0.884740	0.689775	0.378413
	C153	C	0.114058	0.688462	0.618756
	C154	C	0.885090	0.334583	0.619167
	C155	C	0.113855	0.333968	0.378874
	C156	C	0.884257	0.393695	0.674563
	C157	C	0.113757	0.631075	0.676002
	C158	C	0.883947	0.630788	0.322132
	C159	C	0.114525	0.393189	0.322736
	C160	C	0.379683	0.687095	0.884072
	C161	C	0.619682	0.687462	0.113682
	C162	C	0.617362	0.333539	0.883333
	C163	C	0.378414	0.332253	0.113106
	C164	C	0.678174	0.897478	0.378562
	C165	C	0.676950	0.125178	0.619818
	C166	C	0.321164	0.897016	0.618174
	C167	C	0.322120	0.125932	0.380018
	C168	C	0.879534	0.396663	0.176682
	C169	C	0.119398	0.625312	0.176574
	C170	C	0.117738	0.397907	0.820637
	C171	C	0.879056	0.625684	0.821537
	C172	C	0.175037	0.893295	0.384751
	C173	C	0.176030	0.131734	0.614847
	C174	C	0.822008	0.131498	0.384294
	C175	C	0.823599	0.893810	0.615189
	C176	C	0.385053	0.187209	0.878028
	C177	C	0.613867	0.188142	0.119822
	C178	C	0.385349	0.832327	0.118997
	C179	C	0.613984	0.833003	0.879944
	C180	C	0.384247	0.891436	0.174226
	C181	C	0.614608	0.128493	0.175622
	C182	C	0.384446	0.127818	0.822302
	C183	C	0.614250	0.890909	0.822815
	C184	C	0.879138	0.189445	0.384667
	C185	C	0.119424	0.189583	0.614520
	C186	C	0.118726	0.834877	0.384929
	C187	C	0.879564	0.834833	0.614715
	C188	C	0.176078	0.397711	0.877640
	C189	C	0.177355	0.624930	0.119167
	C190	C	0.821859	0.395859	0.118476
	C191	C	0.820300	0.624991	0.878548
	C192	C	0.399958	0.104380	0.599379
	C193	C	0.599420	0.917397	0.597869
	C194	C	0.597775	0.103963	0.399552
	C195	C	0.397701	0.917522	0.398995
	C196	C	0.597884	0.410937	0.093308
	C197	C	0.597169	0.609201	0.904402
	C198	C	0.400655	0.608905	0.093285
	C199	C	0.399311	0.410089	0.903861
	C200	C	0.093362	0.611996	0.399942
	C201	C	0.904702	0.611944	0.597232
	C202	C	0.093761	0.412959	0.597695
	C203	C	0.905604	0.412628	0.400388
	C204	C	0.898653	0.604120	0.098025
	C205	C	0.098241	0.417879	0.098164
	C206	C	0.098498	0.605245	0.900299
	C207	C	0.898531	0.417362	0.897719
	C208	C	0.098030	0.912475	0.594871
	C209	C	0.097257	0.110469	0.405383
	C210	C	0.900754	0.111414	0.594027
	C211	C	0.901579	0.913068	0.405640
	C212	C	0.593280	0.109041	0.901960
	C213	C	0.405606	0.109248	0.096983
	C214	C	0.594512	0.910009	0.099277
	C215	C	0.404797	0.909904	0.900286
	Zn216	Zn	0.499628	0.009768	0.749950
	Zn217	Zn	0.499011	0.009741	0.248013
	Zn218	Zn	0.748058	0.509681	-0.001374
	Zn219	Zn	0.249445	0.510936	-0.001308
	Zn220	Zn	-0.000605	0.762047	0.499627
	Zn221	Zn	-0.000282	0.261764	0.499868
	Zn222	Zn	-0.001095	0.512316	0.748135
	Zn223	Zn	-0.000795	0.511749	0.249190
	Zn224	Zn	0.499653	0.759932	-0.000633
	Zn225	Zn	0.499418	0.260503	-0.001281
	Zn226	Zn	0.750300	0.011886	0.499283
	Zn227	Zn	0.247723	0.011935	0.499926
	N228	N	0.413647	0.973028	0.677638
	N229	N	0.585576	0.047383	0.678605
	N230	N	0.583255	0.972369	0.321716
	N231	N	0.412334	0.047777	0.319012
	N232	N	0.676077	0.424610	0.961123
	N233	N	0.676265	0.594635	0.036466
	N234	N	0.322130	0.594900	0.960818
	N235	N	0.321093	0.425181	0.036128
	N236	N	0.962560	0.691979	0.411752
	N237	N	0.036368	0.690413	0.584982
	N238	N	0.962873	0.332745	0.585959
	N239	N	0.036308	0.332152	0.412412
	N240	N	0.961587	0.428036	0.675385
	N241	N	0.036212	0.597571	0.676772
	N242	N	0.961364	0.596964	0.321085
	N243	N	0.037335	0.427515	0.321973
	N244	N	0.413369	0.688787	0.962056
	N245	N	0.585550	0.688902	0.035876
	N246	N	0.584334	0.332001	0.961440
	N247	N	0.411537	0.330207	0.035067
	N248	N	0.679889	0.974843	0.411715
	N249	N	0.678417	0.048476	0.585174
	N250	N	0.319682	0.974326	0.585222
	N251	N	0.319637	0.048788	0.413480
	N252	N	0.913201	0.473821	0.177763
	N253	N	0.084922	0.548440	0.177560
	N254	N	0.083508	0.474785	0.820377
	N255	N	0.913514	0.548822	0.820207
	N256	N	0.175880	0.927187	0.462597
	N257	N	0.176601	0.097302	0.537344
	N258	N	0.821213	0.097533	0.461969
	N259	N	0.822752	0.927658	0.537555
	N260	N	0.462592	0.189265	0.912000
	N261	N	0.536059	0.190279	0.086099
	N262	N	0.463557	0.830083	0.086639
	N263	N	0.536171	0.830876	0.913251
	N264	N	0.461623	0.925465	0.175590
	N265	N	0.537327	0.094292	0.176028
	N266	N	0.461673	0.093574	0.822391
	N267	N	0.536745	0.924472	0.821482
	N268	N	0.912754	0.191270	0.462615
	N269	N	0.085223	0.190393	0.536796
	N270	N	0.085696	0.832686	0.462930
	N271	N	0.913023	0.832735	0.536740
	N272	N	0.177753	0.474538	0.912335
	N273	N	0.178398	0.548072	0.084932
	N274	N	0.819988	0.472836	0.084261
	N275	N	0.818228	0.547568	0.911633
	O276	O	-0.035349	-0.018606	0.016850
	H277	H	-0.022632	-0.016436	0.008532
	H278	H	-0.033440	-0.013568	0.022295
	O279	O	0.482285	0.512452	0.405002
	H280	H	0.481329	0.525350	0.389957
	H281	H	0.470050	0.510950	0.406672
	O282	O	0.549898	0.584378	0.500247
	H283	H	0.538323	0.589235	0.501360
	H284	H	0.548848	0.583030	0.502130
	O285	O	1.064549	0.112839	0.938776
	H286	H	1.053263	0.117406	0.929911
	H287	H	1.063471	0.103751	0.935797
	O288	O	1.021412	0.005128	0.039230
	H289	H	1.004565	0.007348	0.031484
	H290	H	1.019013	0.004446	0.034505
	O291	O	0.525470	0.555069	0.446946
	H292	H	0.531745	0.558976	0.443859
	H293	H	0.523361	0.546098	0.447545
	O294	O	0.886456	-0.059314	1.046308
	H295	H	0.879236	-0.066966	1.049826
	H296	H	0.893131	-0.068178	1.041371
	O297	O	-0.036581	-0.068519	-0.068681
	H298	H	-0.033046	-0.073143	-0.077313
	H299	H	-0.024873	-0.059397	-0.067632
	O300	O	0.910427	-0.092004	0.037182
	H301	H	0.921820	-0.098134	0.031071
	H302	H	0.907388	-0.092572	0.033862
	O303	O	0.541339	0.534146	0.507553
	H304	H	0.541882	0.536749	0.511364
	H305	H	0.542704	0.541096	0.509530
	O306	O	0.931428	0.034809	-0.025111
	H307	H	0.941600	0.028343	-0.017756
	H308	H	0.926145	0.034611	-0.018889
	O309	O	-0.031617	0.012964	1.165108
	H310	H	-0.046342	0.004156	1.168216
	H311	H	-0.021277	0.005318	1.165678
	O312	O	1.036580	1.003347	1.028355
	H313	H	1.035872	1.009415	1.023134
	H314	H	1.033846	1.013158	1.030694
	O315	O	0.538034	0.625590	0.523818
	H316	H	0.548222	0.629525	0.529762
	H317	H	0.538760	0.624955	0.530452
	O318	O	0.054540	0.011617	0.016542
	H319	H	0.064929	0.021165	0.021859
	H320	H	0.045403	0.021275	0.018740
	O321	O	0.051830	1.108924	1.093629
	H322	H	0.051337	1.109865	1.107246
	H323	H	0.037885	1.102072	1.103460
	O324	O	0.583568	0.426894	0.499471
	H325	H	0.582211	0.420045	0.493538
	H326	H	0.585176	0.440594	0.490082
	O327	O	0.531134	0.572416	0.481741
	H328	H	0.525114	0.574416	0.477067
	H329	H	0.527282	0.574327	0.481204
	O330	O	0.568840	0.581912	0.524958
	H331	H	0.563361	0.584878	0.528319
	H332	H	0.568264	0.583213	0.538893
	O333	O	0.495687	0.496024	0.481646
	H334	H	0.509992	0.486842	0.477513
	H335	H	0.500134	0.493953	0.482991
	O336	O	0.548468	0.445327	0.416999
	H337	H	0.553977	0.447312	0.400714
	H338	H	0.547322	0.434141	0.409357
	O339	O	1.020678	1.066760	-0.038392
	H340	H	1.021643	1.070363	-0.031719
	H341	H	1.019353	1.071819	-0.036460
	O342	O	0.496935	0.561638	0.492465
	H343	H	0.500272	0.564090	0.491144
	H344	H	0.499248	0.561787	0.506847
	O345	O	0.996637	0.133251	1.013262
	H346	H	1.002408	0.135120	1.022945
	H347	H	1.003264	0.139747	1.024213
	O348	O	0.128900	0.000077	0.029708
	H349	H	0.128037	0.001853	0.032972
	H350	H	0.132623	0.001403	0.037070
	O351	O	0.040323	0.933754	1.035595
	H352	H	0.042425	0.944291	1.046087
	H353	H	0.055036	0.926286	1.038802
	O354	O	0.532742	0.469237	0.489121
	H355	H	0.536701	0.466490	0.491326
	H356	H	0.536766	0.474731	0.492791
	O357	O	0.052130	1.099371	0.996558
	H358	H	0.044591	1.101961	0.982718
	H359	H	0.052108	1.103207	0.999828
