data_Molecule from HDF5

_cell_length_a		16.327480
_cell_length_b		16.253931
_cell_length_c		16.267442
_cell_angle_alpha	89.949701
_cell_angle_beta	90.080435
_cell_angle_gamma	90.007467
_symmetry_space_group_name_H-M	'P 1'
_symmetry_Int_Tables_number		1

loop_
	_symmetry_equiv_pos_as_xyz
	x,y,z

loop_
	_atom_site_label
	_atom_site_type_symbol
	_atom_site_fract_x
	_atom_site_fract_y
	_atom_site_fract_z
	H0	H	0.400968	0.831398	0.711080
	H1	H	0.598243	0.158968	0.710104
	H2	H	0.595887	0.830764	0.283457
	H3	H	0.401251	0.159417	0.281475
	H4	H	0.716112	0.396200	0.832780
	H5	H	0.716202	0.594781	0.159567
	H6	H	0.283767	0.597086	0.833376
	H7	H	0.285309	0.395200	0.159933
	H8	H	0.836148	0.709702	0.397536
	H9	H	0.162425	0.711200	0.596468
	H10	H	0.835864	0.280577	0.594261
	H11	H	0.162525	0.280168	0.397631
	H12	H	0.836370	0.395283	0.712575
	H13	H	0.162242	0.594883	0.712125
	H14	H	0.836302	0.594025	0.280956
	H15	H	0.162599	0.396771	0.281448
	H16	H	0.403017	0.709030	0.831994
	H17	H	0.599836	0.709765	0.160239
	H18	H	0.598774	0.282084	0.831922
	H19	H	0.401886	0.280307	0.159970
	H20	H	0.714654	0.831512	0.396615
	H21	H	0.715211	0.157973	0.595765
	H22	H	0.285829	0.830428	0.594230
	H23	H	0.282277	0.157942	0.394329
	H24	H	0.901997	0.331214	0.209614
	H25	H	0.098451	0.658972	0.210961
	H26	H	0.098235	0.331691	0.781995
	H27	H	0.901261	0.659687	0.781595
	H28	H	0.214451	0.894668	0.332471
	H29	H	0.215886	0.094794	0.658979
	H30	H	0.785675	0.092796	0.331888
	H31	H	0.784775	0.895933	0.658891
	H32	H	0.337813	0.211701	0.896670
	H33	H	0.663605	0.209929	0.095789
	H34	H	0.336880	0.780235	0.094778
	H35	H	0.664045	0.781708	0.898723
	H36	H	0.336197	0.896599	0.210685
	H37	H	0.663165	0.093192	0.211479
	H38	H	0.336862	0.095832	0.780080
	H39	H	0.663574	0.897159	0.782217
	H40	H	0.901887	0.208546	0.331903
	H41	H	0.097951	0.208870	0.660244
	H42	H	0.098820	0.779256	0.332659
	H43	H	0.901644	0.781615	0.659883
	H44	H	0.217094	0.332491	0.895777
	H45	H	0.215789	0.659178	0.097499
	H46	H	0.785410	0.332546	0.095044
	H47	H	0.785520	0.659496	0.896450
	H48	H	0.410942	0.112391	0.595313
	H49	H	0.587117	0.880463	0.586200
	H50	H	0.601481	0.116076	0.397808
	H51	H	0.405252	0.879149	0.404084
	H52	H	0.598427	0.403962	0.112604
	H53	H	0.590427	0.597651	0.878168
	H54	H	0.407743	0.593387	0.113882
	H55	H	0.414063	0.396311	0.880119
	H56	H	0.113598	0.592842	0.413732
	H57	H	0.881117	0.591969	0.594807
	H58	H	0.114870	0.399952	0.586644
	H59	H	0.881578	0.398152	0.399474
	H60	H	0.114309	0.405250	0.589974
	H61	H	0.884480	0.591306	0.581514
	H62	H	0.111962	0.577012	0.402636
	H63	H	0.884143	0.401811	0.406082
	H64	H	0.403436	0.584434	0.112725
	H65	H	0.603176	0.587324	0.877440
	H66	H	0.592218	0.405318	0.111021
	H67	H	0.397907	0.402288	0.877463
	H68	H	0.584674	0.111322	0.397736
	H69	H	0.598171	0.877406	0.584901
	H70	H	0.411626	0.107130	0.580127
	H71	H	0.406818	0.878342	0.401753
	H72	H	0.903492	0.616011	0.096512
	H73	H	0.094029	0.378880	0.088321
	H74	H	0.083438	0.606674	0.911948
	H75	H	0.900853	0.376687	0.900676
	H76	H	0.091263	0.904487	0.610895
	H77	H	0.086815	0.085418	0.382381
	H78	H	0.909803	0.083892	0.611126
	H79	H	0.908952	0.906374	0.380708
	H80	H	0.618135	0.102365	0.910328
	H81	H	0.384988	0.088463	0.087229
	H82	H	0.620113	0.899151	0.100474
	H83	H	0.380290	0.892422	0.899924
	H84	H	0.615722	0.894473	0.081831
	H85	H	0.384913	0.087524	0.087699
	H86	H	0.609961	0.075797	0.911293
	H87	H	0.387541	0.903419	0.913463
	H88	H	0.906753	0.093469	0.614265
	H89	H	0.091753	0.091867	0.378572
	H90	H	0.091782	0.902109	0.612258
	H91	H	0.908788	0.898252	0.379336
	H92	H	0.105058	0.613426	0.908491
	H93	H	0.092665	0.379441	0.089259
	H94	H	0.915965	0.610104	0.088429
	H95	H	0.914042	0.380461	0.900436
	H96	H	0.398057	0.113887	0.586263
	H97	H	0.592831	0.876146	0.594771
	H98	H	0.594262	0.109146	0.412281
	H99	H	0.407541	0.879672	0.404123
	H100	H	0.593483	0.399356	0.113123
	H101	H	0.588357	0.582178	0.882829
	H102	H	0.413125	0.585301	0.110643
	H103	H	0.410434	0.413258	0.884026
	H104	H	0.119543	0.593878	0.395727
	H105	H	0.885880	0.580471	0.589860
	H106	H	0.116287	0.400128	0.592514
	H107	H	0.882736	0.405492	0.399711
	H108	H	0.901934	0.611856	0.081357
	H109	H	0.092724	0.379795	0.087314
	H110	H	0.089719	0.614840	0.892242
	H111	H	0.907842	0.381595	0.912064
	H112	H	0.094517	0.903263	0.612282
	H113	H	0.095141	0.083939	0.379896
	H114	H	0.900406	0.085657	0.613540
	H115	H	0.902383	0.902527	0.377885
	H116	H	0.619672	0.086364	0.887540
	H117	H	0.383951	0.088177	0.088672
	H118	H	0.612032	0.913349	0.088987
	H119	H	0.384579	0.910805	0.896687
	C120	C	0.378208	0.002965	0.616838
	C121	C	0.621110	0.986341	0.617262
	C122	C	0.621404	0.003649	0.374514
	C123	C	0.377690	0.986997	0.373931
	C124	C	0.622912	0.374015	0.004323
	C125	C	0.622478	0.617275	0.987755
	C126	C	0.378995	0.616959	0.004592
	C127	C	0.378550	0.374128	0.988316
	C128	C	0.007541	0.617011	0.374672
	C129	C	0.991433	0.616774	0.617635
	C130	C	0.007452	0.373259	0.618460
	C131	C	0.990881	0.373091	0.373641
	C132	C	0.878696	0.504398	0.117503
	C133	C	0.122246	0.487190	0.117890
	C134	C	0.121918	0.503789	0.874737
	C135	C	0.878743	0.487599	0.875131
	C136	C	0.120967	0.874025	0.504071
	C137	C	0.121059	0.116401	0.487778
	C138	C	0.877726	0.116123	0.504437
	C139	C	0.877641	0.873362	0.487207
	C140	C	0.508259	0.117684	0.873822
	C141	C	0.492008	0.117003	0.117664
	C142	C	0.508296	0.873171	0.118663
	C143	C	0.492143	0.873846	0.874957
	C144	C	0.380597	0.879932	0.672638
	C145	C	0.619019	0.109633	0.672926
	C146	C	0.617414	0.879936	0.320535
	C147	C	0.380219	0.110296	0.318936
	C148	C	0.678031	0.376126	0.881452
	C149	C	0.677884	0.614969	0.110931
	C150	C	0.322715	0.615993	0.881881
	C151	C	0.322846	0.374948	0.110997
	C152	C	0.885050	0.672436	0.376622
	C153	C	0.113726	0.673086	0.616407
	C154	C	0.884581	0.318171	0.615631
	C155	C	0.113826	0.318253	0.377093
	C156	C	0.885038	0.375207	0.674402
	C157	C	0.113873	0.614866	0.673445
	C158	C	0.885093	0.614700	0.318931
	C159	C	0.113905	0.375917	0.319189
	C160	C	0.381555	0.672085	0.881296
	C161	C	0.620138	0.672206	0.111147
	C162	C	0.619919	0.319022	0.881188
	C163	C	0.381363	0.318416	0.111195
	C164	C	0.676415	0.880387	0.376834
	C165	C	0.676652	0.109343	0.615444
	C166	C	0.323218	0.879643	0.614738
	C167	C	0.321156	0.109468	0.374832
	C168	C	0.881561	0.380526	0.172180
	C169	C	0.119580	0.610138	0.173548
	C170	C	0.119392	0.380754	0.819559
	C171	C	0.881047	0.610799	0.819669
	C172	C	0.176674	0.874709	0.381293
	C173	C	0.177436	0.115076	0.610421
	C174	C	0.823060	0.113719	0.380991
	C175	C	0.822448	0.875400	0.610143
	C176	C	0.386125	0.173562	0.876017
	C177	C	0.614808	0.172013	0.115994
	C178	C	0.385616	0.817744	0.115946
	C179	C	0.615075	0.819259	0.878032
	C180	C	0.385171	0.875825	0.173382
	C181	C	0.614625	0.113954	0.173477
	C182	C	0.385728	0.115762	0.818222
	C183	C	0.614866	0.876794	0.820169
	C184	C	0.881273	0.170785	0.380874
	C185	C	0.119091	0.171990	0.610909
	C186	C	0.118877	0.817600	0.381356
	C187	C	0.880725	0.818959	0.610684
	C188	C	0.178307	0.381092	0.876332
	C189	C	0.177744	0.610169	0.116790
	C190	C	0.823468	0.381178	0.115168
	C191	C	0.823238	0.610600	0.876208
	C192	C	0.400341	0.088838	0.593981
	C193	C	0.599007	0.900285	0.595189
	C194	C	0.599720	0.089867	0.396164
	C195	C	0.399927	0.901186	0.396714
	C196	C	0.600914	0.396209	0.090128
	C197	C	0.600465	0.595413	0.901856
	C198	C	0.401499	0.594369	0.090184
	C199	C	0.400940	0.397231	0.902689
	C200	C	0.093093	0.594430	0.397377
	C201	C	0.905817	0.594388	0.595324
	C202	C	0.092973	0.395324	0.596276
	C203	C	0.905055	0.395169	0.395278
	C204	C	0.900840	0.590526	0.095351
	C205	C	0.099915	0.401494	0.095046
	C206	C	0.099474	0.589632	0.897434
	C207	C	0.901058	0.401719	0.897621
	C208	C	0.098939	0.896734	0.589600
	C209	C	0.098124	0.093761	0.402499
	C210	C	0.899252	0.094070	0.590680
	C211	C	0.899903	0.895848	0.401491
	C212	C	0.593892	0.094749	0.896367
	C213	C	0.406641	0.094670	0.094583
	C214	C	0.593925	0.895749	0.096784
	C215	C	0.406327	0.895739	0.896928
	Zn216	Zn	0.499772	-0.004968	0.745667
	Zn217	Zn	0.499172	-0.004716	0.246205
	Zn218	Zn	0.750757	0.496057	-0.004032
	Zn219	Zn	0.250513	0.495947	-0.003337
	Zn220	Zn	-0.000453	0.745706	0.496256
	Zn221	Zn	-0.000847	0.244794	0.496217
	Zn222	Zn	-0.000586	0.495597	0.746729
	Zn223	Zn	-0.000413	0.495668	0.245291
	Zn224	Zn	0.500634	0.745139	-0.003470
	Zn225	Zn	0.500843	0.246056	-0.003840
	Zn226	Zn	0.749503	-0.005267	0.495938
	Zn227	Zn	0.249413	-0.004712	0.495816
	N228	N	0.413980	0.957537	0.674119
	N229	N	0.585123	0.032154	0.673991
	N230	N	0.583923	0.957667	0.318857
	N231	N	0.414568	0.033050	0.318212
	N232	N	0.680050	0.409595	0.959011
	N233	N	0.679381	0.581477	0.033412
	N234	N	0.320977	0.582399	0.959490
	N235	N	0.321044	0.408900	0.033553
	N236	N	0.962114	0.673769	0.410652
	N237	N	0.036576	0.674101	0.582093
	N238	N	0.961563	0.316862	0.581594
	N239	N	0.036276	0.316447	0.410350
	N240	N	0.962464	0.408716	0.676139
	N241	N	0.036904	0.580659	0.674371
	N242	N	0.962439	0.581012	0.317526
	N243	N	0.036548	0.409383	0.316900
	N244	N	0.416137	0.672689	0.958439
	N245	N	0.586277	0.673729	0.033521
	N246	N	0.586406	0.317577	0.958678
	N247	N	0.415101	0.317514	0.033685
	N248	N	0.678880	0.958376	0.409592
	N249	N	0.678234	0.031667	0.581750
	N250	N	0.321483	0.957418	0.580786
	N251	N	0.319566	0.031837	0.408362
	N252	N	0.915335	0.458034	0.173430
	N253	N	0.085702	0.532725	0.174321
	N254	N	0.085225	0.457954	0.818435
	N255	N	0.914735	0.533179	0.818611
	N256	N	0.178460	0.908900	0.458517
	N257	N	0.178875	0.081376	0.532963
	N258	N	0.820889	0.080466	0.458743
	N259	N	0.820653	0.908762	0.532357
	N260	N	0.463405	0.175021	0.909761
	N261	N	0.537621	0.173767	0.081722
	N262	N	0.463052	0.816113	0.082664
	N263	N	0.537772	0.817497	0.911500
	N264	N	0.462532	0.909532	0.175141
	N265	N	0.537212	0.080521	0.174687
	N266	N	0.462826	0.081545	0.817106
	N267	N	0.537443	0.910039	0.818048
	N268	N	0.914626	0.172427	0.458688
	N269	N	0.084699	0.173075	0.533558
	N270	N	0.084818	0.817269	0.458660
	N271	N	0.914332	0.817511	0.533299
	N272	N	0.179924	0.458788	0.909982
	N273	N	0.179444	0.532677	0.082758
	N274	N	0.821525	0.459117	0.081993
	N275	N	0.821754	0.533031	0.909924
	O276	O	1.101493	1.098610	0.014259
	H277	H	1.104041	1.113551	0.016983
	H278	H	1.098126	1.094813	0.012611
	O279	O	0.514186	0.512530	0.534418
	H280	H	0.512970	0.509937	0.523403
	H281	H	0.512142	0.505552	0.527107
	O282	O	-0.021558	-0.036256	0.027298
	H283	H	-0.025871	-0.047506	0.025891
	H284	H	-0.021967	-0.031753	0.029637
	O285	O	0.481438	0.442260	0.544280
	H286	H	0.475018	0.438238	0.552284
	H287	H	0.478432	0.441993	0.542527
	O288	O	0.048376	0.040510	-0.007472
	H289	H	0.046978	0.033494	-0.010222
	H290	H	0.040400	0.044116	-0.014516
	O291	O	-0.001227	0.992669	0.020948
	H292	H	-0.011004	0.991258	0.016207
	H293	H	0.004485	0.991765	0.022715
	O294	O	0.047237	1.118339	0.044507
	H295	H	0.046184	1.115524	0.049656
	H296	H	0.046767	1.122198	0.039586
	O297	O	0.466181	0.452429	0.471164
	H298	H	0.456799	0.448296	0.461148
	H299	H	0.467739	0.446634	0.470133
	O300	O	0.458087	0.433835	0.499823
	H301	H	0.459447	0.445704	0.498838
	H302	H	0.454152	0.437437	0.504191
	O303	O	1.008007	0.001593	0.941986
	H304	H	1.001549	-0.000944	0.943625
	H305	H	1.009658	0.008424	0.938279
	O306	O	0.019840	1.033535	1.065727
	H307	H	0.021234	1.043634	1.055606
	H308	H	0.028413	1.032138	1.079279
	O309	O	-0.016123	1.020650	0.924816
	H310	H	-0.008462	1.015716	0.919013
	H311	H	-0.030271	1.018994	0.919334
	O312	O	0.058063	-0.015000	1.063227
	H313	H	0.057324	-0.005454	1.068592
	H314	H	0.063856	-0.015617	1.056048
	O315	O	0.464047	0.517987	0.455686
	H316	H	0.453557	0.505898	0.466806
	H317	H	0.464864	0.526108	0.459138
	O318	O	0.029211	0.003045	0.952823
	H319	H	0.029153	0.008714	0.957216
	H320	H	0.024214	0.003902	0.961530
	O321	O	0.462582	0.493503	0.534006
	H322	H	0.465473	0.488209	0.545583
	H323	H	0.471216	0.486222	0.542276
	O324	O	1.025646	-0.028668	0.942318
	H325	H	1.030633	-0.035667	0.944217
	H326	H	1.035167	-0.029082	0.946178
	O327	O	0.991211	0.975094	1.049963
	H328	H	0.997326	0.973961	1.055909
	H329	H	0.992409	0.976306	1.058374
	O330	O	0.492631	0.507530	0.459129
	H331	H	0.490626	0.507088	0.446287
	H332	H	0.485037	0.522395	0.465277
	O333	O	0.518726	0.453440	0.447675
	H334	H	0.521288	0.439701	0.440672
	H335	H	0.518343	0.446680	0.439969
	O336	O	0.495842	0.489667	0.512488
	H337	H	0.499273	0.495769	0.520757
	H338	H	0.503625	0.488074	0.514815
	O339	O	0.524985	0.462794	0.605968
	H340	H	0.527484	0.452385	0.613855
	H341	H	0.538125	0.473466	0.607933
	O342	O	0.472862	0.492974	0.526275
	H343	H	0.477621	0.500834	0.533759
	H344	H	0.464111	0.506911	0.524041
	O345	O	0.394644	0.407307	0.551518
	H346	H	0.394864	0.406075	0.556771
	H347	H	0.381595	0.399070	0.551423
