data_Molecule from HDF5

_cell_length_a		16.450598
_cell_length_b		16.487757
_cell_length_c		16.284393
_cell_angle_alpha	89.946759
_cell_angle_beta	90.187358
_cell_angle_gamma	90.084237
_symmetry_space_group_name_H-M	'P 1'
_symmetry_Int_Tables_number		1

loop_
	_symmetry_equiv_pos_as_xyz
	x,y,z

loop_
	_atom_site_label
	_atom_site_type_symbol
	_atom_site_fract_x
	_atom_site_fract_y
	_atom_site_fract_z
	H0	H	0.388242	0.841563	0.725026
	H1	H	0.593686	0.160241	0.721307
	H2	H	0.595405	0.842861	0.282900
	H3	H	0.385047	0.158182	0.280646
	H4	H	0.711510	0.398933	0.845466
	H5	H	0.714204	0.608408	0.164353
	H6	H	0.271408	0.606737	0.844480
	H7	H	0.271570	0.395158	0.164192
	H8	H	0.834826	0.724327	0.395493
	H9	H	0.149687	0.724436	0.614334
	H10	H	0.833535	0.278994	0.609791
	H11	H	0.149384	0.275923	0.396619
	H12	H	0.832327	0.400058	0.722023
	H13	H	0.152620	0.602291	0.723959
	H14	H	0.834026	0.605820	0.281757
	H15	H	0.150894	0.394592	0.282959
	H16	H	0.387657	0.721448	0.842953
	H17	H	0.600137	0.724069	0.162932
	H18	H	0.596076	0.283101	0.844652
	H19	H	0.383421	0.277128	0.162646
	H20	H	0.714891	0.843832	0.394363
	H21	H	0.714376	0.158074	0.608730
	H22	H	0.269683	0.842179	0.611231
	H23	H	0.266404	0.156447	0.393173
	H24	H	0.883815	0.343690	0.228409
	H25	H	0.098508	0.657591	0.228627
	H26	H	0.095541	0.341870	0.786519
	H27	H	0.889974	0.659587	0.783962
	H28	H	0.213046	0.892137	0.344455
	H29	H	0.212920	0.102280	0.663569
	H30	H	0.770718	0.106813	0.343763
	H31	H	0.773258	0.898019	0.663394
	H32	H	0.334391	0.223148	0.896064
	H33	H	0.650477	0.224034	0.112376
	H34	H	0.334728	0.777901	0.109765
	H35	H	0.650810	0.779303	0.896932
	H36	H	0.333234	0.895920	0.223838
	H37	H	0.651164	0.105212	0.225092
	H38	H	0.333229	0.101815	0.784124
	H39	H	0.652374	0.898602	0.784321
	H40	H	0.885276	0.222867	0.345351
	H41	H	0.097910	0.217765	0.664332
	H42	H	0.098832	0.775734	0.346739
	H43	H	0.887701	0.781689	0.664957
	H44	H	0.216436	0.344500	0.897485
	H45	H	0.216514	0.658315	0.113529
	H46	H	0.766305	0.345043	0.114104
	H47	H	0.770426	0.659215	0.897460
	H48	H	0.398137	0.115121	0.593614
	H49	H	0.588609	0.885339	0.593047
	H50	H	0.583722	0.113479	0.420116
	H51	H	0.400716	0.883993	0.405705
	H52	H	0.583432	0.414113	0.119982
	H53	H	0.582335	0.587934	0.890351
	H54	H	0.405948	0.588213	0.116647
	H55	H	0.397672	0.408897	0.886876
	H56	H	0.103224	0.591774	0.424541
	H57	H	0.878755	0.593124	0.593390
	H58	H	0.106600	0.408848	0.598897
	H59	H	0.877763	0.408076	0.411367
	H60	H	0.108697	0.403911	0.596625
	H61	H	0.880260	0.589254	0.592525
	H62	H	0.101620	0.582123	0.419798
	H63	H	0.880508	0.405918	0.423457
	H64	H	0.407153	0.590877	0.117103
	H65	H	0.579197	0.591713	0.889920
	H66	H	0.576962	0.416383	0.117264
	H67	H	0.402674	0.419248	0.892650
	H68	H	0.583192	0.115695	0.412316
	H69	H	0.579770	0.886029	0.597718
	H70	H	0.407070	0.112072	0.594926
	H71	H	0.413314	0.892352	0.417344
	H72	H	0.908561	0.611594	0.091690
	H73	H	0.077723	0.390508	0.092362
	H74	H	0.090394	0.616127	0.917573
	H75	H	0.899305	0.387536	0.915421
	H76	H	0.084265	0.910828	0.619530
	H77	H	0.077360	0.084577	0.391753
	H78	H	0.903363	0.093995	0.619607
	H79	H	0.904258	0.904011	0.387561
	H80	H	0.605661	0.093902	0.916263
	H81	H	0.380931	0.088482	0.089812
	H82	H	0.604980	0.916605	0.094993
	H83	H	0.376780	0.906421	0.911004
	H84	H	0.606662	0.908398	0.093808
	H85	H	0.378936	0.090557	0.093255
	H86	H	0.605833	0.092131	0.912459
	H87	H	0.381700	0.909437	0.922035
	H88	H	0.898004	0.084458	0.618222
	H89	H	0.076824	0.092995	0.388963
	H90	H	0.080924	0.917285	0.616597
	H91	H	0.897307	0.915114	0.388281
	H92	H	0.079715	0.615799	0.909420
	H93	H	0.085026	0.389286	0.088131
	H94	H	0.902863	0.611828	0.088591
	H95	H	0.902888	0.388873	0.915155
	H96	H	0.402531	0.110704	0.586681
	H97	H	0.580674	0.889732	0.588859
	H98	H	0.576959	0.111861	0.415825
	H99	H	0.395784	0.888438	0.423871
	H100	H	0.577988	0.409240	0.119918
	H101	H	0.583924	0.592792	0.888999
	H102	H	0.404362	0.590518	0.117712
	H103	H	0.409680	0.408333	0.892059
	H104	H	0.106109	0.590203	0.414056
	H105	H	0.877772	0.589814	0.596535
	H106	H	0.105595	0.407578	0.593328
	H107	H	0.882084	0.417165	0.418391
	H108	H	0.902964	0.613377	0.095104
	H109	H	0.084494	0.386468	0.096144
	H110	H	0.078256	0.610751	0.921934
	H111	H	0.900625	0.388354	0.918356
	H112	H	0.076824	0.910285	0.617281
	H113	H	0.084493	0.088353	0.388096
	H114	H	0.908678	0.085539	0.615308
	H115	H	0.909425	0.914818	0.392691
	H116	H	0.607500	0.095475	0.913876
	H117	H	0.379807	0.092434	0.088968
	H118	H	0.603109	0.913022	0.087204
	H119	H	0.381829	0.917804	0.912788
	C120	C	0.370604	0.008077	0.624593
	C121	C	0.614638	0.991684	0.625299
	C122	C	0.613103	0.009432	0.382879
	C123	C	0.369604	0.991668	0.381449
	C124	C	0.611973	0.381672	0.013498
	C125	C	0.614463	0.623347	0.995310
	C126	C	0.372474	0.622354	0.011809
	C127	C	0.370607	0.379674	0.995890
	C128	C	-0.000203	0.621112	0.384897
	C129	C	0.983960	0.622038	0.626467
	C130	C	0.001395	0.376804	0.627388
	C131	C	0.984227	0.378027	0.383821
	C132	C	0.870414	0.508958	0.126409
	C133	C	0.115032	0.492383	0.126440
	C134	C	0.114593	0.509867	0.883855
	C135	C	0.870147	0.493172	0.883420
	C136	C	0.113232	0.879049	0.512983
	C137	C	0.112956	0.120163	0.495154
	C138	C	0.870593	0.121164	0.512296
	C139	C	0.871486	0.879566	0.495300
	C140	C	0.501286	0.123841	0.881864
	C141	C	0.484141	0.122839	0.124704
	C142	C	0.500256	0.879591	0.124564
	C143	C	0.484498	0.879710	0.882546
	C144	C	0.369226	0.889247	0.685038
	C145	C	0.614485	0.111848	0.683424
	C146	C	0.614806	0.890443	0.322178
	C147	C	0.366758	0.110404	0.320348
	C148	C	0.671651	0.380041	0.893115
	C149	C	0.674114	0.625911	0.116134
	C150	C	0.311760	0.624615	0.891977
	C151	C	0.310819	0.377125	0.115990
	C152	C	0.881863	0.683088	0.379246
	C153	C	0.102889	0.682748	0.630524
	C154	C	0.881383	0.318524	0.628189
	C155	C	0.102504	0.316907	0.379445
	C156	C	0.881003	0.378298	0.684497
	C157	C	0.104081	0.622224	0.685473
	C158	C	0.881452	0.624095	0.322314
	C159	C	0.102878	0.375989	0.322725
	C160	C	0.369643	0.681933	0.891403
	C161	C	0.617508	0.683956	0.115339
	C162	C	0.614110	0.322670	0.892809
	C163	C	0.366790	0.318336	0.115198
	C164	C	0.674100	0.890980	0.378127
	C165	C	0.674131	0.110869	0.627085
	C166	C	0.310254	0.889266	0.628030
	C167	C	0.307588	0.109559	0.376656
	C168	C	0.866510	0.391060	0.187830
	C169	C	0.116995	0.610569	0.188198
	C170	C	0.115045	0.389798	0.825084
	C171	C	0.869978	0.611990	0.823223
	C172	C	0.173719	0.874312	0.393031
	C173	C	0.173430	0.121454	0.615439
	C174	C	0.810302	0.124668	0.392198
	C175	C	0.812261	0.878443	0.615565
	C176	C	0.381821	0.182631	0.878781
	C177	C	0.602769	0.183751	0.129510
	C178	C	0.382084	0.818412	0.127633
	C179	C	0.603679	0.819806	0.879492
	C180	C	0.381220	0.877408	0.184476
	C181	C	0.603397	0.124358	0.185669
	C182	C	0.381125	0.122637	0.822683
	C183	C	0.604120	0.878990	0.823011
	C184	C	0.867615	0.182317	0.392756
	C185	C	0.115902	0.178504	0.616067
	C186	C	0.116472	0.816717	0.393915
	C187	C	0.869379	0.820834	0.616209
	C188	C	0.175352	0.391342	0.880359
	C189	C	0.175941	0.610832	0.130925
	C190	C	0.807421	0.391970	0.131235
	C191	C	0.810834	0.612027	0.880062
	C192	C	0.395228	0.091064	0.598766
	C193	C	0.590100	0.908518	0.600380
	C194	C	0.588396	0.092065	0.408603
	C195	C	0.395847	0.909579	0.408014
	C196	C	0.586796	0.406402	0.097227
	C197	C	0.589149	0.598000	0.911659
	C198	C	0.398468	0.596964	0.095401
	C199	C	0.395953	0.404942	0.912328
	C200	C	0.082141	0.595349	0.411861
	C201	C	0.900652	0.597647	0.601350
	C202	C	0.085099	0.400071	0.603178
	C203	C	0.901676	0.403288	0.410088
	C204	C	0.897220	0.591055	0.099557
	C205	C	0.089620	0.410382	0.099847
	C206	C	0.089999	0.592479	0.909041
	C207	C	0.893892	0.410098	0.909060
	C208	C	0.087942	0.905276	0.595930
	C209	C	0.087149	0.095759	0.411454
	C210	C	0.895954	0.095446	0.595940
	C211	C	0.896542	0.904119	0.411293
	C212	C	0.584534	0.100615	0.906873
	C213	C	0.401354	0.097666	0.098497
	C214	C	0.583264	0.905303	0.099432
	C215	C	0.401687	0.903948	0.907906
	Zn216	Zn	0.492691	0.000932	0.753504
	Zn217	Zn	0.492202	0.000985	0.253809
	Zn218	Zn	0.741235	0.502026	0.005151
	Zn219	Zn	0.243792	0.501620	0.004536
	Zn220	Zn	-0.007913	0.750930	0.505579
	Zn221	Zn	-0.007380	0.248565	0.504735
	Zn222	Zn	-0.007363	0.500713	0.755150
	Zn223	Zn	-0.007610	0.500235	0.255065
	Zn224	Zn	0.493354	0.750278	0.003431
	Zn225	Zn	0.492462	0.252409	0.004562
	Zn226	Zn	0.742892	-0.000006	0.502833
	Zn227	Zn	0.241344	-0.000048	0.503222
	N228	N	0.406170	0.964064	0.682862
	N229	N	0.578425	0.036722	0.682377
	N230	N	0.577598	0.964948	0.324931
	N231	N	0.404536	0.036141	0.323112
	N232	N	0.670655	0.415883	0.969238
	N233	N	0.672289	0.588946	0.040503
	N234	N	0.313097	0.588609	0.968035
	N235	N	0.313094	0.414647	0.040574
	N236	N	0.956403	0.681139	0.417732
	N237	N	0.027137	0.682830	0.594646
	N238	N	0.957578	0.317220	0.593644
	N239	N	0.027730	0.317995	0.416650
	N240	N	0.956563	0.413595	0.684305
	N241	N	0.029253	0.584880	0.682869
	N242	N	0.955830	0.586220	0.325757
	N243	N	0.028192	0.413057	0.325250
	N244	N	0.406694	0.680455	0.967162
	N245	N	0.581271	0.682560	0.039206
	N246	N	0.577877	0.323509	0.968715
	N247	N	0.403105	0.319705	0.039453
	N248	N	0.673210	0.965887	0.415161
	N249	N	0.674348	0.035166	0.591609
	N250	N	0.311280	0.964225	0.590768
	N251	N	0.309137	0.034731	0.413872
	N252	N	0.904838	0.465084	0.185079
	N253	N	0.080195	0.535760	0.185940
	N254	N	0.078038	0.464453	0.826895
	N255	N	0.906232	0.537032	0.825271
	N256	N	0.171690	0.912630	0.467913
	N257	N	0.172005	0.086234	0.539098
	N258	N	0.812064	0.087399	0.467646
	N259	N	0.813232	0.913976	0.539279
	N260	N	0.457408	0.183460	0.915074
	N261	N	0.527500	0.182983	0.092517
	N262	N	0.457246	0.819586	0.091167
	N263	N	0.528405	0.820113	0.915897
	N264	N	0.455879	0.914755	0.182588
	N265	N	0.528576	0.087248	0.183040
	N266	N	0.456426	0.086816	0.824396
	N267	N	0.529083	0.915484	0.824753
	N268	N	0.904519	0.180212	0.468513
	N269	N	0.078898	0.177913	0.540300
	N270	N	0.079823	0.819110	0.469639
	N271	N	0.905287	0.821223	0.540114
	N272	N	0.175263	0.466905	0.915974
	N273	N	0.174902	0.536365	0.093259
	N274	N	0.809773	0.466555	0.093670
	N275	N	0.810945	0.537051	0.917032
	O276	O	0.283210	0.705881	0.483794
	H277	H	0.280867	0.706391	0.448933
	H278	H	0.266582	0.722370	0.489443
	O279	O	0.610866	0.442178	0.307676
	H280	H	0.604248	0.441122	0.324474
	H281	H	0.608859	0.456699	0.309129
	O282	O	0.546731	0.302037	0.697717
	H283	H	0.549507	0.304437	0.678320
	H284	H	0.532921	0.312775	0.706129
	O285	O	1.198075	1.018758	0.016043
	H286	H	1.204886	0.997287	0.013888
	H287	H	1.203101	1.003051	0.009860
	O288	O	0.487089	0.366978	0.312272
	H289	H	0.515517	0.373164	0.317483
	H290	H	0.493193	0.359606	0.294423
	O291	O	0.891286	0.010050	0.839705
	H292	H	0.900237	0.012401	0.851365
	H293	H	0.869823	0.014604	0.824583
	O294	O	1.026251	1.107549	0.897751
	H295	H	1.010684	1.105105	0.907029
	H296	H	1.004807	1.117320	0.882104
	O297	O	0.488756	0.473392	0.715846
	H298	H	0.473559	0.482250	0.713391
	H299	H	0.483170	0.459370	0.714570
	O300	O	0.420954	0.345678	0.465808
	H301	H	0.425624	0.359403	0.458782
	H302	H	0.427329	0.356789	0.448472
	O303	O	0.689160	0.300777	0.422839
	H304	H	0.673401	0.320469	0.414126
	H305	H	0.710178	0.274146	0.443531
	O306	O	0.289704	-0.542577	1.699854
	H307	H	0.297478	-0.532712	1.701078
	H308	H	0.273711	-0.558734	1.699924
	O309	O	0.891324	0.147676	-0.168837
	H310	H	0.880605	0.145109	-0.179103
	H311	H	0.896208	0.136521	-0.180418
	O312	O	0.579817	0.396501	0.561754
	H313	H	0.571396	0.408910	0.548605
	H314	H	0.577207	0.402437	0.572229
	O315	O	-0.049822	0.103599	0.853616
	H316	H	-0.046491	0.105181	0.870393
	H317	H	-0.048452	0.132438	0.825966
	O318	O	0.054121	-0.097987	0.026117
	H319	H	0.060791	-0.093300	0.003074
	H320	H	0.028871	-0.083697	0.027561
	O321	O	0.786543	0.014170	-0.040124
	H322	H	0.786837	0.014871	-0.037743
	H323	H	0.779125	0.030516	-0.041459
	O324	O	0.853369	-0.075233	1.006183
	H325	H	0.838776	-0.076704	1.006123
	H326	H	0.853549	-0.062789	1.008317
	O327	O	0.470596	0.647637	0.376917
	H328	H	0.492027	0.647505	0.375091
	H329	H	0.481212	0.653788	0.376004
	O330	O	-0.186575	0.826638	1.064146
	H331	H	-0.183550	0.833543	1.092135
	H332	H	-0.205122	0.811492	1.066521
	O333	O	0.063367	1.113877	-0.066150
	H334	H	0.062166	1.112793	-0.062496
	H335	H	0.070741	1.110320	-0.057669
	O336	O	1.172932	1.188818	0.150332
	H337	H	1.188222	1.176820	0.142603
	H338	H	1.184012	1.171029	0.119257
	O339	O	0.124620	0.894726	0.977225
	H340	H	0.109545	0.886143	0.966404
	H341	H	0.122518	0.908760	0.986681
	O342	O	0.344662	0.616930	0.570214
	H343	H	0.344394	0.637827	0.552888
	H344	H	0.335265	0.604893	0.573824
	O345	O	0.201658	0.004141	1.129829
	H346	H	0.214296	-0.019109	1.126250
	H347	H	0.194972	-0.000794	1.151265
	O348	O	0.645516	0.492018	0.694007
	H349	H	0.655926	0.490041	0.677901
	H350	H	0.631618	0.491299	0.701303
	O351	O	1.346677	1.309807	-0.475532
	H352	H	1.358024	1.308064	-0.468341
	H353	H	1.338238	1.278034	-0.479734
	O354	O	1.063526	0.840286	1.025663
	H355	H	1.054462	0.827639	1.019083
	H356	H	1.059393	0.841695	1.029776
	O357	O	0.162245	-0.135086	-0.149431
	H358	H	0.167179	-0.128459	-0.148335
	H359	H	0.169537	-0.121638	-0.156903
	O360	O	0.695180	0.701926	0.612125
	H361	H	0.674211	0.690859	0.644994
	H362	H	0.708532	0.721942	0.625492
	O363	O	1.490501	0.534834	0.511190
	H364	H	1.487569	0.536853	0.511403
	H365	H	1.486127	0.543572	0.489053
	O366	O	-0.182359	-0.038007	0.869214
	H367	H	-0.185941	-0.045240	0.857029
	H368	H	-0.178784	-0.043421	0.884764
	O369	O	0.589663	0.670858	0.678552
	H370	H	0.555234	0.677126	0.679978
	H371	H	0.583932	0.641191	0.678737
	O372	O	0.704510	0.512214	0.444133
	H373	H	0.716286	0.530815	0.444411
	H374	H	0.705306	0.532165	0.455745
	O375	O	-0.013127	-0.156272	1.199294
	H376	H	-0.007582	-0.135867	1.189062
	H377	H	-0.013258	-0.161367	1.217598
	O378	O	-0.106741	0.174717	0.088830
	H379	H	-0.097981	0.188563	0.098291
	H380	H	-0.097409	0.164950	0.068629
	O381	O	-0.038610	1.020735	0.124324
	H382	H	-0.041972	1.036973	0.132267
	H383	H	-0.032990	1.022204	0.131587
	O384	O	-0.113083	1.204667	1.093535
	H385	H	-0.105400	1.216833	1.085647
	H386	H	-0.105087	1.207871	1.078053
	O387	O	0.497308	0.521518	0.674054
	H388	H	0.497519	0.539869	0.693800
	H389	H	0.491876	0.524731	0.644277
	O390	O	1.012032	1.115907	0.087408
	H391	H	1.026962	1.136148	0.085755
	H392	H	0.992690	1.126720	0.070090
	O393	O	0.607878	0.371628	0.296066
	H394	H	0.606342	0.388435	0.293387
	H395	H	0.623925	0.366817	0.271413
	O396	O	1.042280	-0.084146	-0.025809
	H397	H	1.044697	-0.076967	-0.027414
	H398	H	1.025851	-0.091896	-0.013521
	O399	O	0.680736	0.413809	0.516441
	H400	H	0.672759	0.386426	0.515627
	H401	H	0.673475	0.444648	0.515136
	O402	O	1.069598	1.043523	0.208988
	H403	H	1.058435	1.050398	0.199711
	H404	H	1.078076	1.055803	0.226615
	O405	O	0.387462	0.453548	0.339044
	H406	H	0.364358	0.449800	0.342685
	H407	H	0.396424	0.448944	0.326664
	O408	O	0.408742	0.597302	0.639690
	H409	H	0.393533	0.592019	0.615361
	H410	H	0.411343	0.603512	0.637513
	O411	O	0.899380	0.849181	0.935446
	H412	H	0.889672	0.848795	0.950028
	H413	H	0.896058	0.855137	0.932855
	O414	O	0.629057	0.713631	0.493245
	H415	H	0.647962	0.730340	0.487570
	H416	H	0.635565	0.717891	0.527927
	O417	O	-0.102497	0.829178	1.201732
	H418	H	-0.063961	0.831188	1.197187
	H419	H	-0.112442	0.852783	1.208674
	O420	O	0.132338	1.144823	0.863673
	H421	H	0.140226	1.140908	0.854858
	H422	H	0.143904	1.132942	0.878894
	O423	O	0.045207	0.887462	-0.203083
	H424	H	0.042171	0.887155	-0.226661
	H425	H	0.058659	0.892306	-0.191361
	O426	O	0.285598	0.563718	0.298693
	H427	H	0.278239	0.549786	0.325717
	H428	H	0.258731	0.559953	0.273382
	O429	O	0.355311	0.685446	0.319545
	H430	H	0.355969	0.668527	0.302906
	H431	H	0.368522	0.679223	0.311110
	O432	O	0.281474	0.469898	0.473137
	H433	H	0.284128	0.482079	0.481195
	H434	H	0.278597	0.441801	0.484874
	O435	O	-0.102284	0.203490	0.097233
	H436	H	-0.095900	0.225115	0.118049
	H437	H	-0.101464	0.218239	0.087313
	O438	O	0.615307	0.619646	0.373260
	H439	H	0.623495	0.631415	0.384302
	H440	H	0.614241	0.626046	0.383612
	O441	O	0.315392	0.300810	0.636327
	H442	H	0.336716	0.311994	0.622782
	H443	H	0.312259	0.300126	0.632507
