data_Molecule from HDF5

_cell_length_a		16.116072
_cell_length_b		16.425458
_cell_length_c		16.331499
_cell_angle_alpha	89.509325
_cell_angle_beta	89.932442
_cell_angle_gamma	90.071349
_symmetry_space_group_name_H-M	'P 1'
_symmetry_Int_Tables_number		1

loop_
	_symmetry_equiv_pos_as_xyz
	x,y,z

loop_
	_atom_site_label
	_atom_site_type_symbol
	_atom_site_fract_x
	_atom_site_fract_y
	_atom_site_fract_z
	H0	H	0.402938	0.838054	0.710293
	H1	H	0.607287	0.160011	0.709435
	H2	H	0.606491	0.837332	0.277025
	H3	H	0.400933	0.159582	0.270493
	H4	H	0.717338	0.403168	0.825958
	H5	H	0.718404	0.592721	0.154393
	H6	H	0.292079	0.597520	0.826548
	H7	H	0.288952	0.397861	0.152718
	H8	H	0.841195	0.717085	0.388274
	H9	H	0.169375	0.713780	0.589403
	H10	H	0.840913	0.282524	0.593715
	H11	H	0.169478	0.284266	0.390710
	H12	H	0.840284	0.400012	0.705402
	H13	H	0.168960	0.598380	0.704031
	H14	H	0.840787	0.600517	0.274574
	H15	H	0.170277	0.401784	0.276689
	H16	H	0.401916	0.719520	0.830260
	H17	H	0.607035	0.713471	0.153679
	H18	H	0.606939	0.280167	0.829378
	H19	H	0.399682	0.277842	0.151436
	H20	H	0.719371	0.837044	0.396493
	H21	H	0.718831	0.162504	0.587921
	H22	H	0.289821	0.836879	0.590664
	H23	H	0.291851	0.162703	0.393910
	H24	H	0.902203	0.338401	0.210897
	H25	H	0.107137	0.660682	0.204831
	H26	H	0.106980	0.337561	0.772929
	H27	H	0.902720	0.659818	0.770357
	H28	H	0.219965	0.904543	0.328430
	H29	H	0.219631	0.096291	0.656060
	H30	H	0.789976	0.100974	0.329005
	H31	H	0.792522	0.901773	0.656449
	H32	H	0.340666	0.215930	0.888007
	H33	H	0.667127	0.214488	0.092057
	H34	H	0.341302	0.780361	0.095173
	H35	H	0.668773	0.785351	0.892694
	H36	H	0.340688	0.896126	0.209213
	H37	H	0.668759	0.098133	0.204317
	H38	H	0.340121	0.098663	0.776221
	H39	H	0.668491	0.899284	0.777531
	H40	H	0.902249	0.220239	0.330631
	H41	H	0.108312	0.217700	0.653611
	H42	H	0.108077	0.784235	0.329203
	H43	H	0.902713	0.780271	0.652873
	H44	H	0.220068	0.336391	0.891737
	H45	H	0.221107	0.660607	0.085646
	H46	H	0.790810	0.336196	0.089171
	H47	H	0.788961	0.661122	0.889025
	H48	H	0.409423	0.115798	0.585449
	H49	H	0.594629	0.885672	0.584879
	H50	H	0.583799	0.108630	0.403047
	H51	H	0.411579	0.883937	0.399718
	H52	H	0.591139	0.412487	0.102050
	H53	H	0.595560	0.607589	0.872042
	H54	H	0.421052	0.590628	0.103778
	H55	H	0.412979	0.412719	0.876753
	H56	H	0.123360	0.596382	0.400255
	H57	H	0.888576	0.588830	0.579152
	H58	H	0.120327	0.413121	0.583552
	H59	H	0.892151	0.417081	0.402846
	H60	H	0.124802	0.404152	0.586036
	H61	H	0.886752	0.589949	0.583007
	H62	H	0.121186	0.589609	0.399079
	H63	H	0.885518	0.408064	0.392422
	H64	H	0.408904	0.595046	0.108469
	H65	H	0.607190	0.586196	0.874038
	H66	H	0.589942	0.394701	0.106701
	H67	H	0.421560	0.402547	0.876349
	H68	H	0.609659	0.116110	0.404637
	H69	H	0.599423	0.883569	0.584718
	H70	H	0.416348	0.114212	0.588180
	H71	H	0.414773	0.884645	0.399191
	H72	H	0.914202	0.611921	0.078257
	H73	H	0.091965	0.384901	0.087059
	H74	H	0.097601	0.614648	0.892731
	H75	H	0.907532	0.382511	0.898728
	H76	H	0.101908	0.905534	0.608649
	H77	H	0.094207	0.089644	0.378900
	H78	H	0.918952	0.086720	0.604148
	H79	H	0.911230	0.906738	0.375051
	H80	H	0.621334	0.086427	0.895573
	H81	H	0.386934	0.091580	0.077471
	H82	H	0.624544	0.898495	0.085978
	H83	H	0.384358	0.898377	0.901064
	H84	H	0.618919	0.907528	0.076282
	H85	H	0.389097	0.083009	0.080435
	H86	H	0.622691	0.096103	0.900453
	H87	H	0.390403	0.910738	0.909585
	H88	H	0.917675	0.099477	0.609261
	H89	H	0.093796	0.098518	0.376523
	H90	H	0.092689	0.909253	0.605040
	H91	H	0.913713	0.911834	0.377624
	H92	H	0.093520	0.612608	0.895882
	H93	H	0.095652	0.385065	0.080312
	H94	H	0.908603	0.615785	0.083521
	H95	H	0.913758	0.383097	0.892376
	H96	H	0.414829	0.113214	0.581305
	H97	H	0.597207	0.883899	0.588993
	H98	H	0.596140	0.118699	0.381315
	H99	H	0.413286	0.885756	0.402512
	H100	H	0.606318	0.402741	0.108620
	H101	H	0.584071	0.588046	0.880792
	H102	H	0.410253	0.582074	0.105098
	H103	H	0.409604	0.401599	0.871198
	H104	H	0.123865	0.593266	0.393748
	H105	H	0.887381	0.592567	0.579616
	H106	H	0.120871	0.405891	0.576370
	H107	H	0.887955	0.402497	0.406596
	H108	H	0.916174	0.614249	0.085896
	H109	H	0.098757	0.383059	0.085907
	H110	H	0.098441	0.613753	0.899069
	H111	H	0.915627	0.385750	0.900473
	H112	H	0.092866	0.899312	0.608429
	H113	H	0.101247	0.094040	0.375471
	H114	H	0.906927	0.090502	0.608746
	H115	H	0.917911	0.906515	0.376860
	H116	H	0.619188	0.088075	0.905686
	H117	H	0.385581	0.089101	0.086474
	H118	H	0.621122	0.911856	0.089647
	H119	H	0.386584	0.912936	0.893800
	C120	C	0.383072	0.007662	0.614368
	C121	C	0.626543	0.991303	0.614382
	C122	C	0.626798	0.007542	0.368984
	C123	C	0.382846	0.991341	0.369632
	C124	C	0.625814	0.375641	-0.001241
	C125	C	0.626189	0.621154	0.982653
	C126	C	0.383643	0.619756	-0.001167
	C127	C	0.383258	0.375806	0.981722
	C128	C	0.014017	0.622477	0.368425
	C129	C	0.996179	0.619937	0.610262
	C130	C	0.013292	0.378473	0.611792
	C131	C	0.997186	0.379384	0.370711
	C132	C	0.883142	0.507056	0.112679
	C133	C	0.126333	0.490568	0.112173
	C134	C	0.126258	0.506762	0.867409
	C135	C	0.882524	0.490513	0.867231
	C136	C	0.126160	0.877759	0.499784
	C137	C	0.126549	0.122089	0.483921
	C138	C	0.883652	0.122255	0.500445
	C139	C	0.884080	0.878471	0.483466
	C140	C	0.512705	0.119918	0.870196
	C141	C	0.495431	0.117709	0.111012
	C142	C	0.513290	0.876109	0.114213
	C143	C	0.495714	0.878272	0.871982
	C144	C	0.383456	0.886255	0.671434
	C145	C	0.625913	0.112235	0.670139
	C146	C	0.625522	0.885787	0.315053
	C147	C	0.382584	0.111982	0.310887
	C148	C	0.680661	0.380608	0.875568
	C149	C	0.681851	0.615835	0.105228
	C150	C	0.328930	0.618119	0.875932
	C151	C	0.326524	0.377684	0.104005
	C152	C	0.890415	0.678820	0.368686
	C153	C	0.119966	0.675934	0.609194
	C154	C	0.889898	0.321431	0.612266
	C155	C	0.120504	0.323250	0.371642
	C156	C	0.889419	0.379877	0.667649
	C157	C	0.119728	0.618639	0.666437
	C158	C	0.890128	0.620675	0.312425
	C159	C	0.121013	0.381418	0.314652
	C160	C	0.383548	0.679047	0.877820
	C161	C	0.625929	0.675466	0.105049
	C162	C	0.625879	0.319414	0.877118
	C163	C	0.381665	0.317737	0.103400
	C164	C	0.682073	0.885739	0.374243
	C165	C	0.681707	0.113533	0.610037
	C166	C	0.327232	0.885533	0.612051
	C167	C	0.327984	0.113539	0.372077
	C168	C	0.883416	0.386350	0.171039
	C169	C	0.126623	0.612143	0.166857
	C170	C	0.126076	0.385544	0.811432
	C171	C	0.883409	0.611877	0.809746
	C172	C	0.183094	0.882147	0.377526
	C173	C	0.182204	0.117838	0.606988
	C174	C	0.827355	0.121129	0.377995
	C175	C	0.828901	0.880504	0.606690
	C176	C	0.389626	0.176912	0.869573
	C177	C	0.618428	0.175420	0.110953
	C178	C	0.390232	0.819065	0.114383
	C179	C	0.619576	0.822928	0.873050
	C180	C	0.390102	0.876578	0.171269
	C181	C	0.619122	0.117384	0.166830
	C182	C	0.389495	0.119155	0.813382
	C183	C	0.619395	0.879766	0.815849
	C184	C	0.883347	0.180505	0.378731
	C185	C	0.126817	0.178253	0.605817
	C186	C	0.127124	0.822482	0.377676
	C187	C	0.883777	0.820049	0.605115
	C188	C	0.182251	0.384804	0.870613
	C189	C	0.183141	0.612105	0.107421
	C190	C	0.828061	0.384967	0.110479
	C191	C	0.826699	0.612418	0.868739
	C192	C	0.406531	0.092536	0.591524
	C193	C	0.603690	0.906189	0.592626
	C194	C	0.603491	0.092604	0.390125
	C195	C	0.406419	0.906620	0.393393
	C196	C	0.602628	0.396966	0.083820
	C197	C	0.602550	0.600119	0.897662
	C198	C	0.406702	0.596116	0.083890
	C199	C	0.407607	0.398901	0.896728
	C200	C	0.100269	0.599725	0.391044
	C201	C	0.909917	0.597000	0.587351
	C202	C	0.099667	0.401117	0.588706
	C203	C	0.910923	0.402540	0.393672
	C204	C	0.906278	0.592052	0.089394
	C205	C	0.102325	0.406023	0.090852
	C206	C	0.103226	0.591678	0.889517
	C207	C	0.905595	0.405840	0.890441
	C208	C	0.102560	0.898585	0.585005
	C209	C	0.103293	0.100432	0.399036
	C210	C	0.907468	0.098909	0.585330
	C211	C	0.907440	0.901645	0.398661
	C212	C	0.598735	0.096913	0.893648
	C213	C	0.409540	0.094648	0.087995
	C214	C	0.599364	0.899198	0.090885
	C215	C	0.409445	0.900671	0.894876
	Zn216	Zn	0.504636	-0.001387	0.743534
	Zn217	Zn	0.504629	-0.001319	0.240201
	Zn218	Zn	0.754377	0.498243	-0.009964
	Zn219	Zn	0.255084	0.497620	-0.010932
	Zn220	Zn	0.004601	0.748683	0.490549
	Zn221	Zn	0.004990	0.250980	0.492185
	Zn222	Zn	0.004691	0.499125	0.738654
	Zn223	Zn	0.004931	0.500190	0.241875
	Zn224	Zn	0.504451	0.750271	-0.007985
	Zn225	Zn	0.503475	0.246695	-0.008851
	Zn226	Zn	0.755576	0.000225	0.491951
	Zn227	Zn	0.254844	0.000183	0.492441
	N228	N	0.417457	0.963176	0.672968
	N229	N	0.592297	0.035181	0.672781
	N230	N	0.592037	0.962788	0.311586
	N231	N	0.415927	0.034827	0.309191
	N232	N	0.680998	0.414706	0.952222
	N233	N	0.682314	0.582931	0.028178
	N234	N	0.328980	0.581840	0.952151
	N235	N	0.327335	0.412997	0.027279
	N236	N	0.968426	0.680227	0.402559
	N237	N	0.042058	0.676714	0.575001
	N238	N	0.967988	0.320640	0.578095
	N239	N	0.042337	0.321904	0.405630
	N240	N	0.967040	0.414636	0.667408
	N241	N	0.041866	0.584357	0.667070
	N242	N	0.968104	0.586667	0.311658
	N243	N	0.043209	0.415834	0.314257
	N244	N	0.416663	0.680312	0.955410
	N245	N	0.591995	0.679040	0.027797
	N246	N	0.592420	0.316250	0.954579
	N247	N	0.416235	0.316549	0.026518
	N248	N	0.683094	0.962624	0.406841
	N249	N	0.682155	0.037354	0.575937
	N250	N	0.326973	0.962057	0.577376
	N251	N	0.328149	0.037477	0.407821
	N252	N	0.916883	0.463526	0.172570
	N253	N	0.092052	0.535695	0.169978
	N254	N	0.092233	0.462429	0.809226
	N255	N	0.917285	0.535129	0.808674
	N256	N	0.182514	0.915866	0.454210
	N257	N	0.182390	0.083917	0.530251
	N258	N	0.827590	0.085429	0.454442
	N259	N	0.828745	0.916072	0.530085
	N260	N	0.467321	0.177546	0.904311
	N261	N	0.540266	0.176053	0.077065
	N262	N	0.467869	0.818551	0.079830
	N263	N	0.541600	0.821956	0.907354
	N264	N	0.467846	0.911230	0.171488
	N265	N	0.541843	0.082154	0.166961
	N266	N	0.467153	0.084466	0.813643
	N267	N	0.541487	0.913555	0.815091
	N268	N	0.917583	0.181364	0.455857
	N269	N	0.093130	0.181268	0.528480
	N270	N	0.092636	0.819409	0.454859
	N271	N	0.917178	0.818421	0.527542
	N272	N	0.182485	0.461117	0.904806
	N273	N	0.183433	0.535408	0.074316
	N274	N	0.827662	0.461113	0.075027
	N275	N	0.826009	0.535991	0.903806
	O276	O	1.074025	0.125307	1.143109
	H277	H	1.067124	0.126997	1.156602
	H278	H	1.076760	0.127376	1.151990
	O279	O	0.596877	0.413703	0.586285
	H280	H	0.585729	0.415172	0.604283
	H281	H	0.602114	0.407775	0.590268
	O282	O	0.434854	0.509197	0.374900
	H283	H	0.442765	0.516239	0.379823
	H284	H	0.432081	0.519871	0.356230
	O285	O	0.489140	0.421368	0.517584
	H286	H	0.503535	0.409706	0.515796
	H287	H	0.486996	0.428941	0.510397
	O288	O	0.519795	0.569105	0.583816
	H289	H	0.513223	0.577814	0.584445
	H290	H	0.513534	0.572602	0.592267
	O291	O	0.078172	-0.106239	0.972753
	H292	H	0.076569	-0.119529	0.973989
	H293	H	0.059897	-0.104206	0.963651
	O294	O	1.047793	1.080110	0.047884
	H295	H	1.044267	1.082935	0.037090
	H296	H	1.053238	1.078696	0.051077
	O297	O	0.908378	1.044892	-0.093610
	H298	H	0.917995	1.044302	-0.088630
	H299	H	0.908338	1.048525	-0.092268
	O300	O	0.416087	0.527220	0.548982
	H301	H	0.411123	0.530672	0.536817
	H302	H	0.419908	0.519946	0.554052
	O303	O	0.402441	0.460990	0.545666
	H304	H	0.392091	0.452890	0.549360
	H305	H	0.393545	0.447058	0.538393
	O306	O	-0.088827	1.010832	1.177234
	H307	H	-0.096663	0.990893	1.181240
	H308	H	-0.095832	1.016922	1.186932
	O309	O	0.517147	0.639422	0.398601
	H310	H	0.508758	0.642974	0.405892
	H311	H	0.514785	0.645024	0.397299
	O312	O	0.981973	1.008521	1.121146
	H313	H	0.995733	1.012668	1.137122
	H314	H	0.986208	0.997873	1.099432
	O315	O	1.075004	0.893026	-0.041515
	H316	H	1.069926	0.894405	-0.059505
	H317	H	1.079564	0.894530	-0.053551
	O318	O	0.929856	0.134821	0.920422
	H319	H	0.922432	0.123677	0.929360
	H320	H	0.925229	0.141529	0.929819
	O321	O	0.424488	0.560767	0.408007
	H322	H	0.420714	0.554002	0.402679
	H323	H	0.426640	0.567313	0.405110
	O324	O	0.100947	0.975387	0.959364
	H325	H	0.106398	0.981249	0.973380
	H326	H	0.103910	0.970717	0.957476
	O327	O	-0.041902	0.969981	0.987981
	H328	H	-0.044887	0.976893	1.000565
	H329	H	-0.035954	0.976208	0.996582
	O330	O	-0.472572	-0.416136	-0.439441
	H331	H	-0.471807	-0.420827	-0.433014
	H332	H	-0.498101	-0.425935	-0.433067
	O333	O	0.508031	0.521687	0.368440
	H334	H	0.507749	0.522761	0.366730
	H335	H	0.510943	0.531992	0.364321
	O336	O	-0.065421	-0.185940	0.173830
	H337	H	-0.067231	-0.185935	0.180169
	H338	H	-0.075514	-0.188143	0.186616
	O339	O	-0.078122	-0.166310	-0.013928
	H340	H	-0.092391	-0.179611	0.000041
	H341	H	-0.066019	-0.167919	-0.010754
	O342	O	0.468025	0.409992	0.586761
	H343	H	0.464947	0.406788	0.575809
	H344	H	0.480247	0.398920	0.579591
	O345	O	0.000906	1.060648	0.961970
	H346	H	-0.008200	1.066304	0.963199
	H347	H	0.007865	1.060849	0.961524
	O348	O	0.423134	0.487180	0.442864
	H349	H	0.421675	0.478847	0.428275
	H350	H	0.415610	0.491060	0.443003
	O351	O	0.571485	0.668129	0.463103
	H352	H	0.572949	0.687292	0.466950
	H353	H	0.563233	0.665588	0.479184
	O354	O	-0.419007	1.421944	0.402252
	H355	H	-0.420313	1.429154	0.396915
	H356	H	-0.413199	1.426234	0.398482
	O357	O	0.439686	0.444483	0.437208
	H358	H	0.447980	0.436964	0.443568
	H359	H	0.439836	0.444896	0.445198
	O360	O	0.910294	0.034237	1.062400
	H361	H	0.894611	0.018191	1.058432
	H362	H	0.927154	0.036664	1.054843
	O363	O	0.490159	0.482732	0.518430
	H364	H	0.496994	0.481884	0.528170
	H365	H	0.490255	0.473782	0.523174
	O366	O	0.540756	0.528802	0.415930
	H367	H	0.554842	0.534933	0.423353
	H368	H	0.541533	0.522774	0.412693
	O369	O	0.951116	-0.051968	-0.018927
	H370	H	0.958422	-0.052156	-0.023994
	H371	H	0.952704	-0.070360	-0.009340
	O372	O	0.638147	0.466889	0.569497
	H373	H	0.637791	0.483321	0.579746
	H374	H	0.645378	0.455533	0.582514
	O375	O	1.036662	0.001638	0.857177
	H376	H	1.029195	0.011374	0.843578
	H377	H	1.034731	-0.007270	0.860473
	O378	O	0.071496	1.002054	-0.123524
	H379	H	0.073202	1.006842	-0.138553
	H380	H	0.078823	0.999747	-0.112014
	O381	O	0.119041	0.928105	1.082288
	H382	H	0.120734	0.924208	1.071372
	H383	H	0.113291	0.928958	1.075929
	O384	O	1.008355	1.096265	0.021308
	H385	H	1.000458	1.093959	0.024167
	H386	H	1.005667	1.096473	0.026184
	O387	O	0.962469	-0.021013	0.897858
	H388	H	0.954287	-0.004557	0.903523
	H389	H	0.962582	-0.022529	0.896703
	O390	O	0.977572	1.066498	-0.045608
	H391	H	0.963127	1.074327	-0.044045
	H392	H	0.982187	1.056193	-0.042822
	O393	O	0.494060	0.511897	0.613234
	H394	H	0.498987	0.503156	0.611611
	H395	H	0.481183	0.514656	0.609990
