data_Molecule from HDF5

_cell_length_a		16.249677
_cell_length_b		16.308738
_cell_length_c		16.293111
_cell_angle_alpha	90.194110
_cell_angle_beta	90.200105
_cell_angle_gamma	90.142801
_symmetry_space_group_name_H-M	'P 1'
_symmetry_Int_Tables_number		1

loop_
	_symmetry_equiv_pos_as_xyz
	x,y,z

loop_
	_atom_site_label
	_atom_site_type_symbol
	_atom_site_fract_x
	_atom_site_fract_y
	_atom_site_fract_z
	H0	H	0.403933	0.835767	0.710041
	H1	H	0.602605	0.161713	0.713925
	H2	H	0.600205	0.836153	0.280921
	H3	H	0.401125	0.162475	0.281286
	H4	H	0.715374	0.401981	0.833735
	H5	H	0.718238	0.602571	0.160117
	H6	H	0.287082	0.596660	0.833242
	H7	H	0.285867	0.400947	0.160705
	H8	H	0.838754	0.714101	0.398144
	H9	H	0.165902	0.716190	0.597443
	H10	H	0.838586	0.285315	0.596338
	H11	H	0.166916	0.285640	0.398187
	H12	H	0.838208	0.402006	0.710399
	H13	H	0.165239	0.601090	0.714162
	H14	H	0.839217	0.599195	0.282441
	H15	H	0.166386	0.402497	0.283024
	H16	H	0.402019	0.713099	0.833177
	H17	H	0.600167	0.715749	0.160736
	H18	H	0.600388	0.284549	0.834499
	H19	H	0.401008	0.284292	0.159676
	H20	H	0.716108	0.835295	0.398796
	H21	H	0.717466	0.162526	0.597500
	H22	H	0.286892	0.837026	0.594988
	H23	H	0.288994	0.164575	0.399944
	H24	H	0.903089	0.337658	0.211748
	H25	H	0.103159	0.663223	0.213866
	H26	H	0.099193	0.337521	0.781559
	H27	H	0.902616	0.663870	0.782156
	H28	H	0.215191	0.902360	0.333105
	H29	H	0.217364	0.100556	0.661088
	H30	H	0.787240	0.097318	0.334116
	H31	H	0.788262	0.900988	0.660725
	H32	H	0.337537	0.212736	0.898201
	H33	H	0.664395	0.216780	0.099474
	H34	H	0.337391	0.784535	0.095149
	H35	H	0.664691	0.784384	0.897944
	H36	H	0.336813	0.900835	0.210991
	H37	H	0.664773	0.099180	0.213683
	H38	H	0.338363	0.097158	0.781518
	H39	H	0.666075	0.901001	0.784230
	H40	H	0.902057	0.214460	0.334506
	H41	H	0.101640	0.216596	0.660817
	H42	H	0.101919	0.784396	0.334601
	H43	H	0.903582	0.785122	0.660055
	H44	H	0.214354	0.336420	0.898042
	H45	H	0.217433	0.663469	0.096318
	H46	H	0.786562	0.338167	0.095690
	H47	H	0.788578	0.664526	0.899842
	H48	H	0.406176	0.115934	0.585338
	H49	H	0.609311	0.880724	0.582383
	H50	H	0.598384	0.115196	0.408039
	H51	H	0.400199	0.879141	0.395385
	H52	H	0.591866	0.397153	0.116089
	H53	H	0.595797	0.589869	0.881756
	H54	H	0.407237	0.592450	0.113389
	H55	H	0.412297	0.402697	0.881374
	H56	H	0.119257	0.590928	0.403690
	H57	H	0.887874	0.585069	0.590833
	H58	H	0.117287	0.411791	0.591004
	H59	H	0.886970	0.409878	0.403623
	H60	H	0.120363	0.406522	0.592852
	H61	H	0.881557	0.598386	0.595423
	H62	H	0.120995	0.596467	0.405053
	H63	H	0.885331	0.405204	0.402483
	H64	H	0.410749	0.591189	0.112186
	H65	H	0.591236	0.593326	0.881418
	H66	H	0.605032	0.414144	0.115677
	H67	H	0.402837	0.403587	0.878333
	H68	H	0.595346	0.116415	0.401085
	H69	H	0.594618	0.878360	0.606627
	H70	H	0.407272	0.118681	0.597612
	H71	H	0.420454	0.886366	0.401182
	H72	H	0.918685	0.614389	0.090195
	H73	H	0.094828	0.382731	0.093844
	H74	H	0.091917	0.615882	0.903277
	H75	H	0.913510	0.384961	0.901021
	H76	H	0.084551	0.900918	0.612348
	H77	H	0.096836	0.102009	0.377440
	H78	H	0.905084	0.107002	0.619395
	H79	H	0.908484	0.909425	0.381428
	H80	H	0.615711	0.076631	0.898900
	H81	H	0.384853	0.086119	0.095254
	H82	H	0.618296	0.915149	0.099308
	H83	H	0.383998	0.897708	0.908686
	H84	H	0.620690	0.896447	0.090081
	H85	H	0.382609	0.099688	0.089720
	H86	H	0.624645	0.106052	0.895758
	H87	H	0.387980	0.914556	0.905025
	H88	H	0.900467	0.082338	0.613068
	H89	H	0.100652	0.086776	0.381367
	H90	H	0.106426	0.903997	0.618542
	H91	H	0.910835	0.907030	0.381097
	H92	H	0.093078	0.615622	0.909015
	H93	H	0.090742	0.385667	0.089717
	H94	H	0.905000	0.616589	0.083402
	H95	H	0.906802	0.386033	0.908630
	H96	H	0.417293	0.113651	0.591470
	H97	H	0.581984	0.888892	0.583133
	H98	H	0.591066	0.113968	0.406662
	H99	H	0.403534	0.886635	0.415880
	H100	H	0.584353	0.416331	0.107885
	H101	H	0.596434	0.595305	0.879688
	H102	H	0.410854	0.595486	0.113756
	H103	H	0.406665	0.411561	0.882247
	H104	H	0.118308	0.593579	0.409189
	H105	H	0.886890	0.596627	0.581550
	H106	H	0.118265	0.406544	0.587245
	H107	H	0.886754	0.405856	0.406975
	H108	H	0.907401	0.620172	0.098113
	H109	H	0.096945	0.384000	0.088011
	H110	H	0.097230	0.617249	0.904806
	H111	H	0.903769	0.382846	0.899789
	H112	H	0.094620	0.921200	0.609092
	H113	H	0.085785	0.091886	0.384662
	H114	H	0.923720	0.091957	0.609362
	H115	H	0.907855	0.906382	0.380232
	H116	H	0.614674	0.096069	0.923007
	H117	H	0.388821	0.089408	0.081050
	H118	H	0.612710	0.912718	0.079409
	H119	H	0.380772	0.904498	0.892233
	C120	C	0.380994	0.008107	0.619375
	C121	C	0.624766	0.990458	0.619853
	C122	C	0.622766	0.007201	0.376467
	C123	C	0.379693	0.992009	0.375705
	C124	C	0.622592	0.379603	0.005561
	C125	C	0.623628	0.622797	0.988874
	C126	C	0.380356	0.621060	0.005087
	C127	C	0.378475	0.377556	0.988424
	C128	C	0.011265	0.622043	0.376590
	C129	C	0.993680	0.622642	0.619332
	C130	C	0.010443	0.379418	0.618468
	C131	C	0.994677	0.378746	0.376058
	C132	C	0.880871	0.509339	0.119053
	C133	C	0.123679	0.492209	0.119336
	C134	C	0.122790	0.508529	0.876017
	C135	C	0.879833	0.492529	0.875330
	C136	C	0.123777	0.879507	0.505556
	C137	C	0.123548	0.122329	0.489147
	C138	C	0.880421	0.121911	0.506226
	C139	C	0.880665	0.878517	0.488675
	C140	C	0.510313	0.121121	0.876234
	C141	C	0.492961	0.121731	0.119086
	C142	C	0.509059	0.878798	0.118023
	C143	C	0.492991	0.877589	0.875090
	C144	C	0.383382	0.884884	0.672953
	C145	C	0.622850	0.113264	0.675914
	C146	C	0.620152	0.884430	0.320234
	C147	C	0.381523	0.114118	0.319700
	C148	C	0.677602	0.381503	0.882502
	C149	C	0.679612	0.622095	0.111485
	C150	C	0.324703	0.617605	0.882172
	C151	C	0.323485	0.380422	0.111743
	C152	C	0.887750	0.676706	0.378040
	C153	C	0.116848	0.678389	0.617807
	C154	C	0.887515	0.323582	0.616165
	C155	C	0.117802	0.323480	0.377978
	C156	C	0.887090	0.381756	0.672824
	C157	C	0.116513	0.621067	0.675593
	C158	C	0.888264	0.619663	0.320340
	C159	C	0.117615	0.381686	0.320736
	C160	C	0.382094	0.675269	0.881935
	C161	C	0.621106	0.678767	0.111502
	C162	C	0.620479	0.323386	0.882972
	C163	C	0.380851	0.322544	0.111245
	C164	C	0.678121	0.884306	0.378295
	C165	C	0.679551	0.113760	0.617637
	C166	C	0.324808	0.885745	0.616132
	C167	C	0.325919	0.115356	0.378974
	C168	C	0.882518	0.386644	0.174152
	C169	C	0.122840	0.614721	0.175352
	C170	C	0.119700	0.385957	0.819831
	C171	C	0.882405	0.615308	0.820445
	C172	C	0.178011	0.882007	0.382450
	C173	C	0.179279	0.120850	0.612141
	C174	C	0.824830	0.118664	0.383149
	C175	C	0.825689	0.880510	0.611707
	C176	C	0.386819	0.175393	0.877818
	C177	C	0.615648	0.178220	0.118785
	C178	C	0.385967	0.822914	0.115605
	C179	C	0.616048	0.822326	0.877603
	C180	C	0.385901	0.880455	0.173217
	C181	C	0.615767	0.119790	0.175566
	C182	C	0.387243	0.117933	0.819836
	C183	C	0.616750	0.880299	0.821101
	C184	C	0.882267	0.176566	0.383187
	C185	C	0.121807	0.178253	0.612210
	C186	C	0.121565	0.823363	0.382997
	C187	C	0.882935	0.822938	0.611506
	C188	C	0.176881	0.385452	0.877903
	C189	C	0.179335	0.614829	0.116638
	C190	C	0.824750	0.386692	0.116221
	C191	C	0.825775	0.615641	0.879080
	C192	C	0.403700	0.094057	0.597751
	C193	C	0.602152	0.904774	0.597406
	C194	C	0.601167	0.092928	0.398767
	C195	C	0.401635	0.906077	0.397600
	C196	C	0.600283	0.402387	0.090977
	C197	C	0.601249	0.599683	0.903246
	C198	C	0.402907	0.599396	0.090780
	C199	C	0.400579	0.399599	0.902906
	C200	C	0.097232	0.600186	0.399314
	C201	C	0.907714	0.600075	0.596070
	C202	C	0.096607	0.401760	0.596671
	C203	C	0.908704	0.400540	0.397847
	C204	C	0.903685	0.594712	0.096955
	C205	C	0.100798	0.406314	0.096947
	C206	C	0.100607	0.594226	0.899015
	C207	C	0.901609	0.406802	0.896686
	C208	C	0.101548	0.902191	0.591205
	C209	C	0.100952	0.100082	0.403367
	C210	C	0.903077	0.100126	0.591857
	C211	C	0.902635	0.900982	0.403040
	C212	C	0.596250	0.099323	0.899171
	C213	C	0.407449	0.098457	0.095642
	C214	C	0.595025	0.901416	0.096046
	C215	C	0.406675	0.899219	0.895871
	Zn216	Zn	0.502643	-0.000944	0.747781
	Zn217	Zn	0.500861	-0.000315	0.247155
	Zn218	Zn	0.751490	0.500761	-0.002659
	Zn219	Zn	0.251288	0.499849	-0.002535
	Zn220	Zn	0.002177	0.750529	0.497386
	Zn221	Zn	0.002580	0.250596	0.497463
	Zn222	Zn	0.001611	0.500510	0.746632
	Zn223	Zn	0.002888	0.500954	0.248074
	Zn224	Zn	0.500864	0.750353	-0.003043
	Zn225	Zn	0.501464	0.250072	-0.002458
	Zn226	Zn	0.752397	-0.000393	0.497710
	Zn227	Zn	0.252010	0.000817	0.497536
	N228	N	0.417517	0.962213	0.675065
	N229	N	0.589490	0.035655	0.677569
	N230	N	0.586557	0.961855	0.318847
	N231	N	0.414436	0.036459	0.317795
	N232	N	0.679072	0.415733	0.959696
	N233	N	0.681581	0.588199	0.034169
	N234	N	0.323636	0.584503	0.959606
	N235	N	0.321970	0.413973	0.034369
	N236	N	0.965243	0.678513	0.412277
	N237	N	0.039181	0.679671	0.583634
	N238	N	0.965230	0.322046	0.583117
	N239	N	0.040315	0.321608	0.411683
	N240	N	0.964457	0.415872	0.674235
	N241	N	0.038988	0.587062	0.676326
	N242	N	0.966093	0.586448	0.319355
	N243	N	0.040162	0.415289	0.319636
	N244	N	0.415865	0.677806	0.959600
	N245	N	0.586797	0.679174	0.034255
	N246	N	0.587283	0.321787	0.960565
	N247	N	0.414230	0.320417	0.033749
	N248	N	0.679486	0.961428	0.412799
	N249	N	0.680958	0.036458	0.583767
	N250	N	0.323274	0.963584	0.583732
	N251	N	0.324525	0.038309	0.412982
	N252	N	0.916753	0.463811	0.175930
	N253	N	0.088888	0.537450	0.176829
	N254	N	0.086958	0.463667	0.818585
	N255	N	0.915542	0.537905	0.818140
	N256	N	0.179398	0.916242	0.459726
	N257	N	0.180441	0.086789	0.534841
	N258	N	0.823803	0.085284	0.460526
	N259	N	0.824212	0.914357	0.534475
	N260	N	0.464254	0.177323	0.912333
	N261	N	0.538254	0.179468	0.084369
	N262	N	0.463638	0.821686	0.082187
	N263	N	0.538218	0.820628	0.910495
	N264	N	0.463353	0.914709	0.174646
	N265	N	0.538444	0.085433	0.175844
	N266	N	0.465022	0.084717	0.818786
	N267	N	0.539211	0.913942	0.819184
	N268	N	0.916181	0.178815	0.460675
	N269	N	0.087738	0.179231	0.534814
	N270	N	0.088506	0.821627	0.460615
	N271	N	0.916497	0.821680	0.534084
	N272	N	0.178691	0.462592	0.912188
	N273	N	0.179904	0.537517	0.082545
	N274	N	0.823398	0.464151	0.082960
	N275	N	0.823972	0.538299	0.912479
	O276	O	0.994676	0.960754	-0.006225
	H277	H	0.993237	0.962377	-0.001935
	H278	H	0.991469	0.967146	-0.011268
	O279	O	0.527344	0.457454	0.456400
	H280	H	0.533402	0.463518	0.456975
	H281	H	0.538207	0.465942	0.455333
	O282	O	0.019242	-0.024008	0.047313
	H283	H	0.023116	-0.030852	0.045463
	H284	H	0.011735	-0.020017	0.049367
	O285	O	0.451538	0.422956	0.467964
	H286	H	0.443457	0.427873	0.462352
	H287	H	0.462123	0.425261	0.458085
	O288	O	0.007836	0.050555	0.003983
	H289	H	0.009166	0.047142	-0.004269
	H290	H	0.006523	0.048736	-0.000541
	O291	O	-0.014370	1.030567	0.022735
	H292	H	-0.017368	1.030360	0.023421
	H293	H	-0.004786	1.023862	0.030875
	O294	O	0.018468	1.039606	-0.019041
	H295	H	0.018419	1.040236	-0.016475
	H296	H	0.015559	1.033431	-0.016535
	O297	O	0.569283	0.522026	0.489737
	H298	H	0.561780	0.517591	0.487745
	H299	H	0.570519	0.512490	0.493917
	O300	O	0.502376	0.445222	0.451132
	H301	H	0.505980	0.442067	0.451651
	H302	H	0.506319	0.439283	0.457862
	O303	O	1.019413	0.011138	0.948048
	H304	H	1.023043	0.013230	0.949225
	H305	H	1.024501	0.013616	0.954178
	O306	O	0.033169	0.964303	1.016196
	H307	H	0.041201	0.967573	1.022061
	H308	H	0.032069	0.970215	1.015978
	O309	O	-0.069012	1.050882	0.932796
	H310	H	-0.066824	1.055459	0.932653
	H311	H	-0.076741	1.050955	0.933433
	O312	O	0.039272	-0.048906	0.984113
	H313	H	0.041612	-0.056758	0.977834
	H314	H	0.039716	-0.054148	0.983323
	O315	O	0.477070	0.430252	0.527913
	H316	H	0.470327	0.430557	0.522488
	H317	H	0.472949	0.440972	0.529383
	O318	O	0.082011	-0.034754	0.956444
	H319	H	0.086407	-0.036482	0.959878
	H320	H	0.080822	-0.033466	0.961485
	O321	O	-0.083367	-0.038339	1.005716
	H322	H	-0.071899	-0.030674	0.998060
	H323	H	-0.087537	-0.048737	1.004138
	O324	O	0.941062	0.038512	0.983520
	H325	H	0.934927	0.044753	0.986780
	H326	H	0.939728	0.039160	0.984337
	O327	O	0.980130	1.020596	1.019238
	H328	H	0.970592	1.019461	1.022016
	H329	H	0.988555	1.016032	1.004469
	O330	O	0.543997	0.451608	0.380225
	H331	H	0.544675	0.441972	0.384830
	H332	H	0.551440	0.443136	0.372761
	O333	O	0.546493	0.444140	0.454770
	H334	H	0.551175	0.441252	0.464284
	H335	H	0.545569	0.442005	0.457834
	O336	O	0.514792	0.517816	0.459508
	H337	H	0.518879	0.516460	0.448346
	H338	H	0.518251	0.512147	0.455942
	O339	O	0.536569	0.490449	0.444754
	H340	H	0.532267	0.486165	0.446803
	H341	H	0.538308	0.496102	0.444491
	O342	O	0.480384	0.507372	0.510516
	H343	H	0.470790	0.511695	0.512135
	H344	H	0.477952	0.512552	0.511926
	O345	O	0.627942	0.420400	0.454063
	H346	H	0.638140	0.419427	0.464872
	H347	H	0.619905	0.415649	0.441712
