data_Molecule from HDF5

_cell_length_a		16.381447
_cell_length_b		16.567254
_cell_length_c		16.300251
_cell_angle_alpha	89.957629
_cell_angle_beta	89.742769
_cell_angle_gamma	90.076604
_symmetry_space_group_name_H-M	'P 1'
_symmetry_Int_Tables_number		1

loop_
	_symmetry_equiv_pos_as_xyz
	x,y,z

loop_
	_atom_site_label
	_atom_site_type_symbol
	_atom_site_fract_x
	_atom_site_fract_y
	_atom_site_fract_z
	H0	H	0.388179	0.846168	0.728188
	H1	H	0.598507	0.160802	0.724218
	H2	H	0.597922	0.843814	0.284568
	H3	H	0.393671	0.160522	0.285617
	H4	H	0.714373	0.400635	0.842170
	H5	H	0.712431	0.602843	0.164158
	H6	H	0.276209	0.607780	0.843745
	H7	H	0.278261	0.400016	0.164643
	H8	H	0.834647	0.720507	0.400518
	H9	H	0.153329	0.726141	0.610356
	H10	H	0.837533	0.279952	0.611984
	H11	H	0.153677	0.279447	0.395217
	H12	H	0.836571	0.399586	0.723614
	H13	H	0.156562	0.605241	0.721713
	H14	H	0.834897	0.602788	0.285811
	H15	H	0.155822	0.400165	0.283807
	H16	H	0.389894	0.726329	0.845569
	H17	H	0.601087	0.721888	0.163018
	H18	H	0.604559	0.279959	0.845412
	H19	H	0.391407	0.282030	0.163207
	H20	H	0.715785	0.844183	0.400782
	H21	H	0.717476	0.159060	0.610600
	H22	H	0.272717	0.844881	0.610426
	H23	H	0.273256	0.158516	0.398318
	H24	H	0.894519	0.343447	0.221025
	H25	H	0.101160	0.661291	0.222905
	H26	H	0.101061	0.343268	0.782641
	H27	H	0.894568	0.660495	0.782677
	H28	H	0.214731	0.898482	0.344675
	H29	H	0.215553	0.107933	0.663919
	H30	H	0.778742	0.101413	0.343327
	H31	H	0.773206	0.896820	0.664982
	H32	H	0.338356	0.226896	0.896706
	H33	H	0.655216	0.221314	0.108426
	H34	H	0.337875	0.779830	0.109950
	H35	H	0.655149	0.782627	0.896376
	H36	H	0.335094	0.899073	0.222763
	H37	H	0.656264	0.100583	0.220025
	H38	H	0.335775	0.108664	0.784075
	H39	H	0.655118	0.901157	0.782466
	H40	H	0.889648	0.222468	0.345238
	H41	H	0.102402	0.224844	0.662790
	H42	H	0.099544	0.783714	0.343994
	H43	H	0.885378	0.778383	0.663139
	H44	H	0.220168	0.344560	0.897055
	H45	H	0.218120	0.660283	0.107481
	H46	H	0.775997	0.344854	0.105107
	H47	H	0.776391	0.660957	0.897508
	H48	H	0.413765	0.110554	0.592525
	H49	H	0.582694	0.891118	0.592543
	H50	H	0.597543	0.118571	0.412358
	H51	H	0.406812	0.888210	0.408903
	H52	H	0.588623	0.406134	0.121538
	H53	H	0.580792	0.588824	0.891380
	H54	H	0.406857	0.592267	0.117319
	H55	H	0.413303	0.416589	0.891800
	H56	H	0.111193	0.596263	0.410458
	H57	H	0.886035	0.587222	0.587032
	H58	H	0.109368	0.412191	0.591401
	H59	H	0.880696	0.408591	0.414019
	H60	H	0.109541	0.411404	0.589043
	H61	H	0.882023	0.588445	0.599516
	H62	H	0.109004	0.597204	0.416703
	H63	H	0.882396	0.412220	0.416448
	H64	H	0.408084	0.589343	0.116640
	H65	H	0.583695	0.602533	0.885819
	H66	H	0.588406	0.416864	0.117606
	H67	H	0.410865	0.409453	0.888887
	H68	H	0.581247	0.116005	0.403955
	H69	H	0.584374	0.890231	0.592461
	H70	H	0.399891	0.113565	0.585071
	H71	H	0.407948	0.891723	0.419369
	H72	H	0.902264	0.618072	0.098279
	H73	H	0.086015	0.390983	0.093237
	H74	H	0.080891	0.611133	0.913178
	H75	H	0.905293	0.390354	0.916909
	H76	H	0.082769	0.912889	0.618768
	H77	H	0.081694	0.089276	0.391877
	H78	H	0.904762	0.093261	0.620321
	H79	H	0.894728	0.914967	0.387441
	H80	H	0.609229	0.097624	0.919898
	H81	H	0.378831	0.098680	0.094797
	H82	H	0.610722	0.908820	0.092304
	H83	H	0.381137	0.909772	0.915777
	H84	H	0.609202	0.913972	0.093001
	H85	H	0.383769	0.092480	0.087509
	H86	H	0.605225	0.085793	0.918330
	H87	H	0.385338	0.912879	0.924136
	H88	H	0.906171	0.087520	0.617831
	H89	H	0.082051	0.093103	0.390249
	H90	H	0.081277	0.914900	0.618178
	H91	H	0.912907	0.918130	0.395068
	H92	H	0.089369	0.612313	0.918976
	H93	H	0.087293	0.390218	0.090884
	H94	H	0.910276	0.613634	0.094208
	H95	H	0.903054	0.388425	0.911809
	H96	H	0.402250	0.118673	0.600402
	H97	H	0.582734	0.890084	0.594540
	H98	H	0.583793	0.111005	0.422068
	H99	H	0.398205	0.886734	0.415953
	H100	H	0.579007	0.410387	0.116681
	H101	H	0.594270	0.592263	0.885289
	H102	H	0.410109	0.592398	0.116177
	H103	H	0.405531	0.415942	0.888960
	H104	H	0.109006	0.591406	0.413446
	H105	H	0.880804	0.598317	0.590721
	H106	H	0.109099	0.413492	0.589490
	H107	H	0.881334	0.412929	0.411674
	H108	H	0.902284	0.615511	0.088515
	H109	H	0.087969	0.389556	0.092941
	H110	H	0.089325	0.615804	0.909353
	H111	H	0.908355	0.390515	0.912197
	H112	H	0.079962	0.912545	0.618608
	H113	H	0.085759	0.090519	0.390367
	H114	H	0.910265	0.092704	0.618217
	H115	H	0.908269	0.900636	0.388182
	H116	H	0.610373	0.091969	0.908590
	H117	H	0.380878	0.088335	0.097120
	H118	H	0.611379	0.911573	0.097280
	H119	H	0.384139	0.918921	0.916555
	C120	C	0.372048	0.011096	0.626623
	C121	C	0.615597	0.994309	0.625490
	C122	C	0.618069	0.010397	0.382016
	C123	C	0.373335	0.993401	0.382759
	C124	C	0.617174	0.381133	0.012360
	C125	C	0.617385	0.624491	0.993892
	C126	C	0.375848	0.623814	0.011741
	C127	C	0.376575	0.381739	0.995385
	C128	C	0.003848	0.624660	0.381842
	C129	C	0.987840	0.623584	0.624906
	C130	C	0.004414	0.380649	0.623856
	C131	C	0.987053	0.380417	0.381858
	C132	C	0.873944	0.511001	0.124615
	C133	C	0.118671	0.494376	0.124476
	C134	C	0.119402	0.509723	0.881137
	C135	C	0.874698	0.494223	0.881396
	C136	C	0.114385	0.881569	0.512779
	C137	C	0.116095	0.123602	0.495659
	C138	C	0.874887	0.122420	0.512892
	C139	C	0.872922	0.879949	0.496426
	C140	C	0.503935	0.124758	0.882553
	C141	C	0.487010	0.123148	0.124448
	C142	C	0.504886	0.879705	0.126430
	C143	C	0.487776	0.882067	0.883832
	C144	C	0.369878	0.892944	0.687644
	C145	C	0.617573	0.113292	0.684785
	C146	C	0.617661	0.891152	0.324028
	C147	C	0.373406	0.112544	0.324054
	C148	C	0.675603	0.381411	0.890861
	C149	C	0.675007	0.623621	0.115379
	C150	C	0.315818	0.626292	0.891894
	C151	C	0.317499	0.380959	0.116290
	C152	C	0.883021	0.681750	0.381300
	C153	C	0.106466	0.685075	0.627823
	C154	C	0.884994	0.320681	0.628505
	C155	C	0.106382	0.320509	0.378305
	C156	C	0.884414	0.380149	0.684291
	C157	C	0.107889	0.625246	0.683660
	C158	C	0.883144	0.623157	0.324163
	C159	C	0.107645	0.380817	0.323048
	C160	C	0.372438	0.685152	0.892550
	C161	C	0.619166	0.682411	0.114914
	C162	C	0.620945	0.321265	0.892517
	C163	C	0.373627	0.322121	0.115505
	C164	C	0.676363	0.891347	0.381720
	C165	C	0.676521	0.112450	0.628111
	C166	C	0.312347	0.892449	0.629380
	C167	C	0.313981	0.111631	0.380561
	C168	C	0.874656	0.391298	0.182105
	C169	C	0.119969	0.613444	0.183600
	C170	C	0.120566	0.390934	0.821708
	C171	C	0.874393	0.612956	0.821595
	C172	C	0.175085	0.880169	0.392685
	C173	C	0.175874	0.126165	0.615783
	C174	C	0.816864	0.121877	0.391816
	C175	C	0.812832	0.878015	0.616655
	C176	C	0.385367	0.186319	0.879072
	C177	C	0.607520	0.181218	0.126306
	C178	C	0.385093	0.820078	0.128174
	C179	C	0.607360	0.822457	0.879107
	C180	C	0.383859	0.879156	0.184575
	C181	C	0.608019	0.121407	0.181899
	C182	C	0.384092	0.127047	0.823328
	C183	C	0.607267	0.881444	0.822433
	C184	C	0.872038	0.181991	0.392713
	C185	C	0.119234	0.184498	0.615349
	C186	C	0.117539	0.822949	0.392391
	C187	C	0.868565	0.818842	0.615638
	C188	C	0.179943	0.391664	0.878471
	C189	C	0.178123	0.613253	0.125906
	C190	C	0.815743	0.391902	0.124564
	C191	C	0.815767	0.613190	0.878963
	C192	C	0.397870	0.093050	0.600267
	C193	C	0.590330	0.911876	0.600465
	C194	C	0.594580	0.093664	0.405973
	C195	C	0.397392	0.910238	0.407400
	C196	C	0.592390	0.404603	0.096733
	C197	C	0.593219	0.601286	0.909351
	C198	C	0.401251	0.598543	0.095060
	C199	C	0.402447	0.406873	0.911561
	C200	C	0.087946	0.601625	0.406248
	C201	C	0.904685	0.598606	0.599867
	C202	C	0.087695	0.405196	0.597556
	C203	C	0.903262	0.404297	0.406968
	C204	C	0.897954	0.594203	0.100537
	C205	C	0.094139	0.411767	0.099561
	C206	C	0.094103	0.591744	0.906437
	C207	C	0.898617	0.411263	0.906425
	C208	C	0.088721	0.906230	0.596693
	C209	C	0.090577	0.098253	0.412689
	C210	C	0.899768	0.098147	0.596743
	C211	C	0.898131	0.904380	0.412286
	C212	C	0.586796	0.099223	0.908225
	C213	C	0.403178	0.099916	0.100137
	C214	C	0.588723	0.904115	0.101415
	C215	C	0.405045	0.906719	0.910988
	Zn216	Zn	0.494213	0.003360	0.754929
	Zn217	Zn	0.495073	0.001951	0.253424
	Zn218	Zn	0.744227	0.502891	0.002260
	Zn219	Zn	0.248105	0.502062	0.003369
	Zn220	Zn	-0.005404	0.752862	0.503904
	Zn221	Zn	-0.004618	0.251849	0.503502
	Zn222	Zn	-0.002899	0.501415	0.752490
	Zn223	Zn	-0.003547	0.502700	0.253553
	Zn224	Zn	0.496836	0.752351	0.003797
	Zn225	Zn	0.496593	0.252506	0.003726
	Zn226	Zn	0.746102	0.001943	0.505228
	Zn227	Zn	0.243440	0.001616	0.504894
	N228	N	0.406114	0.967872	0.686092
	N229	N	0.580254	0.038912	0.683187
	N230	N	0.582312	0.966149	0.324016
	N231	N	0.409833	0.037797	0.325523
	N232	N	0.673127	0.418151	0.966419
	N233	N	0.674098	0.588547	0.039046
	N234	N	0.317736	0.589024	0.967074
	N235	N	0.319294	0.417271	0.040449
	N236	N	0.959335	0.683039	0.416101
	N237	N	0.030725	0.684169	0.591933
	N238	N	0.960575	0.320816	0.591752
	N239	N	0.030229	0.320052	0.414078
	N240	N	0.959745	0.416820	0.681492
	N241	N	0.033213	0.587595	0.681779
	N242	N	0.959445	0.588711	0.324216
	N243	N	0.032359	0.417338	0.325098
	N244	N	0.409310	0.683614	0.968023
	N245	N	0.584491	0.683478	0.038181
	N246	N	0.585217	0.320864	0.968883
	N247	N	0.409699	0.322474	0.039276
	N248	N	0.676562	0.966608	0.417234
	N249	N	0.675584	0.037495	0.592067
	N250	N	0.313422	0.966914	0.592245
	N251	N	0.313787	0.036513	0.416153
	N252	N	0.909929	0.466522	0.182401
	N253	N	0.083555	0.538598	0.182793
	N254	N	0.083646	0.465423	0.823140
	N255	N	0.910191	0.537969	0.822773
	N256	N	0.173381	0.915956	0.468862
	N257	N	0.174232	0.089035	0.540580
	N258	N	0.818439	0.085735	0.467663
	N259	N	0.815352	0.915135	0.541433
	N260	N	0.460986	0.185142	0.915297
	N261	N	0.531330	0.182624	0.091387
	N262	N	0.461587	0.820076	0.093014
	N263	N	0.531894	0.822568	0.916554
	N264	N	0.459465	0.915380	0.183601
	N265	N	0.532108	0.086040	0.180974
	N266	N	0.458852	0.089470	0.825528
	N267	N	0.531914	0.917643	0.825271
	N268	N	0.907291	0.182429	0.469090
	N269	N	0.082661	0.183007	0.539601
	N270	N	0.080573	0.823788	0.467937
	N271	N	0.905256	0.819998	0.539473
	N272	N	0.179481	0.466457	0.914541
	N273	N	0.177537	0.538272	0.089883
	N274	N	0.815028	0.467437	0.089702
	N275	N	0.815782	0.538306	0.915310
	O276	O	0.323907	0.379990	0.601598
	H277	H	0.317909	0.406501	0.608150
	H278	H	0.324625	0.374440	0.593369
	O279	O	0.587375	0.332713	0.365160
	H280	H	0.594860	0.317050	0.344014
	H281	H	0.582878	0.339157	0.368534
	O282	O	0.555853	0.480137	0.623152
	H283	H	0.558894	0.497238	0.624165
	H284	H	0.554872	0.471356	0.644234
	O285	O	0.995204	0.912528	-0.130950
	H286	H	0.994263	0.894999	-0.120179
	H287	H	1.005790	0.924294	-0.124066
	O288	O	0.406710	0.624745	0.687068
	H289	H	0.424159	0.634817	0.691133
	H290	H	0.403242	0.638618	0.696688
	O291	O	0.755539	0.373728	0.624857
	H292	H	0.744221	0.368685	0.614783
	H293	H	0.759800	0.384274	0.612159
	O294	O	0.921240	0.901169	0.974033
	H295	H	0.926620	0.908863	0.982754
	H296	H	0.918539	0.894223	0.979870
	O297	O	0.687339	0.697180	0.418533
	H298	H	0.681484	0.692152	0.409436
	H299	H	0.674463	0.695985	0.429167
	O300	O	0.598012	0.357718	0.380019
	H301	H	0.593869	0.348271	0.384808
	H302	H	0.590769	0.350200	0.377953
	O303	O	0.444808	0.452645	0.594871
	H304	H	0.454894	0.459789	0.612704
	H305	H	0.447295	0.440371	0.595540
	O306	O	0.320707	-0.383576	1.409212
	H307	H	0.322888	-0.399824	1.420240
	H308	H	0.333117	-0.385631	1.404406
	O309	O	1.113230	-0.020961	-0.107934
	H310	H	1.110655	-0.028652	-0.115550
	H311	H	1.110918	-0.043125	-0.103429
	O312	O	0.622377	0.494297	0.360633
	H313	H	0.628045	0.476879	0.344848
	H314	H	0.621802	0.486029	0.366197
	O315	O	0.032229	-0.009969	0.917027
	H316	H	0.025216	-0.031288	0.921028
	H317	H	0.034809	-0.020235	0.920798
	O318	O	-0.168889	0.080076	-0.129831
	H319	H	-0.160252	0.090203	-0.118400
	H320	H	-0.166279	0.054277	-0.125504
	O321	O	0.793908	0.038906	-0.157532
	H322	H	0.785429	0.024044	-0.171131
	H323	H	0.805534	0.030454	-0.142106
	O324	O	1.141020	-0.073437	1.100151
	H325	H	1.140713	-0.076837	1.106633
	H326	H	1.133825	-0.069285	1.112446
	O327	O	0.575058	0.493920	0.463217
	H328	H	0.575537	0.475193	0.456697
	H329	H	0.557212	0.509729	0.463994
	O330	O	-0.207873	0.810053	1.155143
	H331	H	-0.214731	0.844281	1.157089
	H332	H	-0.229371	0.798561	1.176854
	O333	O	0.128376	0.988017	0.074492
	H334	H	0.118473	0.984495	0.076783
	H335	H	0.124678	0.988143	0.069134
	O336	O	1.018149	1.211089	0.207677
	H337	H	1.027580	1.213414	0.211589
	H338	H	1.026564	1.226854	0.215840
	O339	O	0.196521	1.118910	1.208819
	H340	H	0.181062	1.129612	1.199154
	H341	H	0.209910	1.109715	1.214987
	O342	O	0.428357	0.711741	0.377423
	H343	H	0.412153	0.726130	0.383678
	H344	H	0.417925	0.690455	0.389064
	O345	O	0.189655	0.199850	1.095873
	H346	H	0.188546	0.182401	1.078455
	H347	H	0.211549	0.207061	1.079680
	O348	O	0.562580	0.602243	0.605595
	H349	H	0.553381	0.605986	0.608993
	H350	H	0.585355	0.590073	0.602810
	O351	O	1.180787	0.815162	-0.183333
	H352	H	1.159741	0.805029	-0.164170
	H353	H	1.164436	0.806612	-0.161180
	O354	O	0.914005	1.042583	1.015943
	H355	H	0.918755	1.041630	1.021030
	H356	H	0.915749	1.048656	1.005464
	O357	O	0.005375	-0.006427	-0.063440
	H358	H	-0.014488	-0.002673	-0.051630
	H359	H	0.010628	0.003309	-0.063918
	O360	O	0.505194	0.427426	0.619774
	H361	H	0.510693	0.431338	0.635167
	H362	H	0.492008	0.443962	0.604284
	O363	O	1.301395	0.609949	0.461406
	H364	H	1.298172	0.588535	0.441010
	H365	H	1.283853	0.611650	0.481050
	O366	O	0.205790	-0.017738	0.792049
	H367	H	0.228147	-0.033402	0.767835
	H368	H	0.197138	-0.054338	0.792764
	O369	O	0.492924	0.437124	0.366776
	H370	H	0.488069	0.436693	0.361970
	H371	H	0.479264	0.434355	0.383411
	O372	O	0.629611	0.504312	0.506945
	H373	H	0.631873	0.503417	0.507732
	H374	H	0.623944	0.490111	0.496505
	O375	O	0.190248	-0.126838	0.969818
	H376	H	0.174828	-0.135581	0.980458
	H377	H	0.200738	-0.135020	0.970421
	O378	O	-0.145226	0.149317	0.033122
	H379	H	-0.147360	0.148353	0.023869
	H380	H	-0.129739	0.150830	0.011966
	O381	O	-0.161999	0.870201	0.031570
	H382	H	-0.165344	0.861728	0.058278
	H383	H	-0.173069	0.861459	0.047829
	O384	O	-0.066814	1.128378	1.044037
	H385	H	-0.078601	1.141491	1.020610
	H386	H	-0.077105	1.132685	1.057518
	O387	O	0.691519	0.327479	0.305977
	H388	H	0.684119	0.327744	0.319317
	H389	H	0.672217	0.314823	0.309578
	O390	O	1.138283	0.858824	0.072233
	H391	H	1.126346	0.868104	0.078541
	H392	H	1.136684	0.864355	0.095259
	O393	O	0.441156	0.499762	0.434535
	H394	H	0.461917	0.504833	0.442067
	H395	H	0.442481	0.519902	0.440680
	O396	O	0.955613	-0.217779	0.215905
	H397	H	0.933302	-0.231732	0.230652
	H398	H	0.928713	-0.220751	0.227328
	O399	O	0.349353	0.433334	0.708706
	H400	H	0.351073	0.438580	0.722529
	H401	H	0.353980	0.442697	0.722024
	O402	O	0.886399	0.976937	0.192555
	H403	H	0.882042	0.998249	0.173328
	H404	H	0.888499	1.000769	0.204791
	O405	O	0.416061	0.384853	0.493562
	H406	H	0.422777	0.375682	0.495521
	H407	H	0.408031	0.383338	0.505308
	O408	O	0.620572	0.383029	0.581290
	H409	H	0.618889	0.387001	0.582898
	H410	H	0.620360	0.388761	0.588496
	O411	O	0.891604	1.178623	0.856227
	H412	H	0.880477	1.177992	0.863652
	H413	H	0.902435	1.172834	0.842743
	O414	O	0.336860	0.456437	0.483487
	H415	H	0.340079	0.448604	0.480247
	H416	H	0.339616	0.454536	0.499987
	O417	O	0.018737	1.198579	0.982042
	H418	H	0.022170	1.178518	0.962941
	H419	H	0.033365	1.210318	0.985677
	O420	O	-0.144499	1.027462	1.001287
	H421	H	-0.137170	1.041907	0.991114
	H422	H	-0.144100	1.025452	0.988555
	O423	O	0.012865	0.862500	-0.038648
	H424	H	0.010621	0.853143	-0.040699
	H425	H	0.002045	0.857792	-0.041856
	O426	O	0.547712	0.685101	0.613302
	H427	H	0.556701	0.671709	0.603645
	H428	H	0.543974	0.706735	0.616324
	O429	O	0.336901	0.309007	0.543530
	H430	H	0.334347	0.314627	0.550429
	H431	H	0.344515	0.305686	0.550850
	O432	O	0.605422	0.628613	0.529027
	H433	H	0.603637	0.600962	0.540646
	H434	H	0.605862	0.634549	0.502943
	O435	O	-0.061244	0.101246	0.119136
	H436	H	-0.045467	0.119728	0.124797
	H437	H	-0.058092	0.096609	0.119458
	O438	O	0.378720	0.613197	0.312761
	H439	H	0.385230	0.610215	0.315364
	H440	H	0.364544	0.623090	0.314670
	O441	O	0.537453	0.605727	0.583556
	H442	H	0.531434	0.605836	0.586704
	H443	H	0.528473	0.599350	0.563784
