data_Molecule from HDF5

_cell_length_a		16.377696
_cell_length_b		16.420582
_cell_length_c		16.340220
_cell_angle_alpha	89.922159
_cell_angle_beta	90.096336
_cell_angle_gamma	90.193452
_symmetry_space_group_name_H-M	'P 1'
_symmetry_Int_Tables_number		1

loop_
	_symmetry_equiv_pos_as_xyz
	x,y,z

loop_
	_atom_site_label
	_atom_site_type_symbol
	_atom_site_fract_x
	_atom_site_fract_y
	_atom_site_fract_z
	H0	H	0.390397	0.829112	0.721324
	H1	H	0.598787	0.147286	0.716325
	H2	H	0.600942	0.828892	0.276292
	H3	H	0.392129	0.147098	0.280175
	H4	H	0.713579	0.387792	0.838327
	H5	H	0.719533	0.595088	0.158591
	H6	H	0.275903	0.591964	0.839651
	H7	H	0.277986	0.382864	0.159517
	H8	H	0.837043	0.708212	0.391696
	H9	H	0.154368	0.707962	0.606483
	H10	H	0.836338	0.264316	0.604956
	H11	H	0.155686	0.266999	0.397410
	H12	H	0.836724	0.381861	0.719707
	H13	H	0.157488	0.587776	0.717552
	H14	H	0.836623	0.590526	0.277239
	H15	H	0.156348	0.382418	0.282122
	H16	H	0.392480	0.707765	0.839276
	H17	H	0.603294	0.710393	0.158964
	H18	H	0.599596	0.270552	0.838756
	H19	H	0.394081	0.268243	0.159279
	H20	H	0.714634	0.826463	0.394122
	H21	H	0.719628	0.143741	0.605529
	H22	H	0.275097	0.827712	0.605557
	H23	H	0.274977	0.145778	0.394843
	H24	H	0.892436	0.326055	0.217471
	H25	H	0.103667	0.644319	0.223742
	H26	H	0.099272	0.326073	0.781963
	H27	H	0.890809	0.644500	0.774426
	H28	H	0.217123	0.880057	0.340966
	H29	H	0.216575	0.091084	0.659546
	H30	H	0.774619	0.089636	0.340308
	H31	H	0.772524	0.877302	0.658935
	H32	H	0.336959	0.210242	0.894053
	H33	H	0.656917	0.208658	0.103741
	H34	H	0.339210	0.761926	0.108182
	H35	H	0.655484	0.767289	0.892301
	H36	H	0.337204	0.880450	0.221040
	H37	H	0.655899	0.092897	0.220405
	H38	H	0.335928	0.093039	0.779088
	H39	H	0.655651	0.884812	0.778257
	H40	H	0.887790	0.208569	0.341608
	H41	H	0.101228	0.206346	0.659579
	H42	H	0.100890	0.764819	0.340339
	H43	H	0.886445	0.759809	0.657595
	H44	H	0.216941	0.327699	0.896182
	H45	H	0.218837	0.646040	0.106880
	H46	H	0.774734	0.328129	0.102862
	H47	H	0.775705	0.646377	0.890633
	H48	H	0.402680	0.101874	0.588201
	H49	H	0.585311	0.872435	0.587481
	H50	H	0.588915	0.101316	0.407768
	H51	H	0.406929	0.873714	0.409927
	H52	H	0.591414	0.404732	0.114179
	H53	H	0.588835	0.576524	0.884706
	H54	H	0.412422	0.573609	0.110689
	H55	H	0.402945	0.401175	0.884721
	H56	H	0.106062	0.571475	0.415771
	H57	H	0.884391	0.572652	0.584218
	H58	H	0.109767	0.390601	0.582335
	H59	H	0.878449	0.391771	0.406010
	H60	H	0.107826	0.403023	0.592257
	H61	H	0.883524	0.569986	0.588175
	H62	H	0.109827	0.572504	0.407196
	H63	H	0.881646	0.392487	0.414041
	H64	H	0.409785	0.579487	0.113574
	H65	H	0.583345	0.576806	0.887582
	H66	H	0.579604	0.399333	0.111166
	H67	H	0.410111	0.402224	0.886555
	H68	H	0.580712	0.098635	0.409834
	H69	H	0.582801	0.872260	0.591705
	H70	H	0.406318	0.101297	0.590194
	H71	H	0.406088	0.873769	0.411177
	H72	H	0.907776	0.600529	0.088063
	H73	H	0.087664	0.373475	0.087264
	H74	H	0.081238	0.599442	0.907256
	H75	H	0.899440	0.373665	0.914272
	H76	H	0.084556	0.901012	0.612546
	H77	H	0.095665	0.075991	0.382194
	H78	H	0.908655	0.070954	0.612156
	H79	H	0.909625	0.894598	0.387627
	H80	H	0.611164	0.082558	0.909510
	H81	H	0.380268	0.077569	0.096220
	H82	H	0.604375	0.905805	0.080184
	H83	H	0.382849	0.897896	0.910794
	H84	H	0.610103	0.904880	0.094725
	H85	H	0.382893	0.086023	0.082822
	H86	H	0.609030	0.078189	0.909138
	H87	H	0.382730	0.898086	0.911294
	H88	H	0.909991	0.074897	0.612960
	H89	H	0.080631	0.066051	0.390567
	H90	H	0.079993	0.895096	0.613021
	H91	H	0.903409	0.894865	0.384894
	H92	H	0.086514	0.598644	0.915214
	H93	H	0.090028	0.372087	0.091136
	H94	H	0.910225	0.600360	0.090349
	H95	H	0.906214	0.371706	0.905084
	H96	H	0.405982	0.100637	0.586554
	H97	H	0.580902	0.874158	0.587883
	H98	H	0.587014	0.098769	0.416197
	H99	H	0.405782	0.872888	0.409977
	H100	H	0.588770	0.391961	0.116223
	H101	H	0.585958	0.581501	0.885168
	H102	H	0.405770	0.573885	0.113293
	H103	H	0.407872	0.394760	0.883376
	H104	H	0.109829	0.580312	0.413438
	H105	H	0.882194	0.573924	0.587496
	H106	H	0.114981	0.388683	0.597197
	H107	H	0.882359	0.399211	0.408439
	H108	H	0.910574	0.598904	0.086946
	H109	H	0.085704	0.373714	0.091636
	H110	H	0.090128	0.601501	0.907481
	H111	H	0.910315	0.377604	0.914372
	H112	H	0.087174	0.894876	0.615204
	H113	H	0.078628	0.084598	0.385142
	H114	H	0.905735	0.074046	0.613809
	H115	H	0.906215	0.900126	0.387236
	H116	H	0.610978	0.079974	0.905638
	H117	H	0.386772	0.070280	0.083891
	H118	H	0.611132	0.892401	0.085826
	H119	H	0.383500	0.898272	0.910619
	C120	C	0.373233	-0.003882	0.621402
	C121	C	0.616516	0.977893	0.620867
	C122	C	0.616929	-0.005581	0.378464
	C123	C	0.373824	0.978299	0.377931
	C124	C	0.617338	0.368364	0.007794
	C125	C	0.619445	0.610895	0.990893
	C126	C	0.375954	0.608885	0.007769
	C127	C	0.375813	0.367108	0.990668
	C128	C	0.003726	0.607279	0.378203
	C129	C	0.987985	0.605543	0.620236
	C130	C	0.005257	0.362720	0.622104
	C131	C	0.987287	0.363704	0.378936
	C132	C	0.876035	0.494814	0.120684
	C133	C	0.119364	0.478059	0.122324
	C134	C	0.117735	0.494850	0.878608
	C135	C	0.874354	0.479145	0.877418
	C136	C	0.116419	0.864493	0.508341
	C137	C	0.117555	0.107575	0.491209
	C138	C	0.875266	0.105772	0.508059
	C139	C	0.873208	0.862559	0.491397
	C140	C	0.504793	0.111205	0.876712
	C141	C	0.488578	0.109663	0.120256
	C142	C	0.504476	0.866581	0.120322
	C143	C	0.488196	0.866975	0.878221
	C144	C	0.371575	0.876540	0.681665
	C145	C	0.618317	0.098646	0.678274
	C146	C	0.618601	0.875831	0.317231
	C147	C	0.373043	0.098888	0.319309
	C148	C	0.674675	0.368811	0.886456
	C149	C	0.679856	0.613550	0.110690
	C150	C	0.315440	0.611193	0.887762
	C151	C	0.317427	0.365268	0.111522
	C152	C	0.884584	0.667693	0.374416
	C153	C	0.107234	0.666941	0.623689
	C154	C	0.884332	0.304132	0.623159
	C155	C	0.107810	0.306121	0.378927
	C156	C	0.884461	0.362433	0.680320
	C157	C	0.108822	0.607080	0.679030
	C158	C	0.884327	0.609145	0.317198
	C159	C	0.107967	0.363487	0.321099
	C160	C	0.374064	0.668219	0.887411
	C161	C	0.621705	0.670627	0.110920
	C162	C	0.618174	0.310051	0.886765
	C163	C	0.375316	0.308008	0.111348
	C164	C	0.675844	0.874835	0.375683
	C165	C	0.678517	0.096695	0.623264
	C166	C	0.314491	0.875822	0.623716
	C167	C	0.314538	0.098200	0.376455
	C168	C	0.873558	0.374449	0.178951
	C169	C	0.121430	0.597196	0.182954
	C170	C	0.118571	0.374298	0.820773
	C171	C	0.872764	0.597482	0.815440
	C172	C	0.176821	0.862257	0.388730
	C173	C	0.177174	0.109347	0.611492
	C174	C	0.814628	0.108288	0.388174
	C175	C	0.812287	0.859118	0.610821
	C176	C	0.384686	0.170096	0.875654
	C177	C	0.608742	0.169108	0.122561
	C178	C	0.386048	0.803448	0.124665
	C179	C	0.607852	0.807388	0.875029
	C180	C	0.385190	0.862342	0.181315
	C181	C	0.608154	0.111452	0.180626
	C182	C	0.384062	0.111688	0.818556
	C183	C	0.607927	0.866155	0.818095
	C184	C	0.871107	0.167203	0.388663
	C185	C	0.119316	0.166698	0.611578
	C186	C	0.118614	0.804790	0.388190
	C187	C	0.869262	0.800778	0.610422
	C188	C	0.177171	0.375122	0.877745
	C189	C	0.179001	0.598004	0.124846
	C190	C	0.815126	0.375517	0.121689
	C191	C	0.815225	0.598511	0.873414
	C192	C	0.397867	0.079429	0.595799
	C193	C	0.590417	0.894516	0.596184
	C194	C	0.592581	0.077912	0.403964
	C195	C	0.398862	0.895070	0.402873
	C196	C	0.593523	0.392058	0.092106
	C197	C	0.593665	0.585748	0.907390
	C198	C	0.401736	0.583129	0.091108
	C199	C	0.399977	0.392051	0.906683
	C200	C	0.087021	0.582126	0.404559
	C201	C	0.905135	0.579617	0.594247
	C202	C	0.089153	0.387143	0.597723
	C203	C	0.902919	0.387730	0.402338
	C204	C	0.901970	0.578035	0.095824
	C205	C	0.094788	0.394753	0.097229
	C206	C	0.093018	0.578259	0.902905
	C207	C	0.898575	0.396069	0.903689
	C208	C	0.091094	0.889609	0.591938
	C209	C	0.092215	0.082560	0.407699
	C210	C	0.900744	0.080592	0.591197
	C211	C	0.899063	0.888953	0.408229
	C212	C	0.588519	0.087060	0.900914
	C213	C	0.405215	0.085071	0.094958
	C214	C	0.586840	0.893655	0.094333
	C215	C	0.404788	0.891239	0.903419
	Zn216	Zn	0.495239	-0.011647	0.749053
	Zn217	Zn	0.495660	-0.011994	0.249467
	Zn218	Zn	0.746662	0.488751	-0.000486
	Zn219	Zn	0.247059	0.487513	-0.000734
	Zn220	Zn	-0.004558	0.735459	0.500062
	Zn221	Zn	-0.004158	0.235175	0.499796
	Zn222	Zn	-0.003144	0.485885	0.749500
	Zn223	Zn	-0.003488	0.485284	0.250410
	Zn224	Zn	0.497057	0.737913	-0.000719
	Zn225	Zn	0.497105	0.238983	-0.000771
	Zn226	Zn	0.745650	-0.015047	0.500144
	Zn227	Zn	0.245479	-0.014035	0.500060
	N228	N	0.407210	0.952374	0.680411
	N229	N	0.580766	0.023711	0.677047
	N230	N	0.582822	0.951374	0.318822
	N231	N	0.408912	0.023301	0.319795
	N232	N	0.674119	0.404312	0.962745
	N233	N	0.678607	0.577184	0.035011
	N234	N	0.316679	0.574942	0.963637
	N235	N	0.317543	0.401216	0.035471
	N236	N	0.959941	0.666519	0.411517
	N237	N	0.031200	0.666248	0.587846
	N238	N	0.960505	0.303964	0.587793
	N239	N	0.031473	0.305976	0.413857
	N240	N	0.960525	0.397848	0.679974
	N241	N	0.033564	0.569779	0.676985
	N242	N	0.959532	0.572256	0.319557
	N243	N	0.031917	0.398724	0.321177
	N244	N	0.410445	0.667264	0.963315
	N245	N	0.585161	0.669358	0.035250
	N246	N	0.583105	0.309579	0.963164
	N247	N	0.410823	0.308977	0.035182
	N248	N	0.674805	0.949825	0.413009
	N249	N	0.677729	0.020386	0.588548
	N250	N	0.315276	0.951214	0.587156
	N251	N	0.314754	0.022188	0.411856
	N252	N	0.910643	0.449655	0.178402
	N253	N	0.085183	0.521661	0.181618
	N254	N	0.082372	0.449651	0.821203
	N255	N	0.908925	0.522218	0.817807
	N256	N	0.175573	0.898610	0.464383
	N257	N	0.176012	0.073066	0.535809
	N258	N	0.817056	0.070685	0.463251
	N259	N	0.814669	0.896759	0.535803
	N260	N	0.460822	0.170018	0.911119
	N261	N	0.533265	0.168171	0.085701
	N262	N	0.461197	0.805857	0.087551
	N263	N	0.532452	0.807754	0.911696
	N264	N	0.459629	0.901168	0.178742
	N265	N	0.532354	0.075187	0.179308
	N266	N	0.459648	0.075588	0.819184
	N267	N	0.532367	0.902432	0.819798
	N268	N	0.908452	0.165594	0.464019
	N269	N	0.082616	0.165538	0.535892
	N270	N	0.081875	0.805935	0.463744
	N271	N	0.906404	0.802849	0.535046
	N272	N	0.176719	0.451055	0.913054
	N273	N	0.178108	0.522842	0.087939
	N274	N	0.816263	0.451592	0.086470
	N275	N	0.816074	0.523893	0.911301
	O276	O	0.379069	0.357532	0.522128
	H277	H	0.364895	0.358242	0.512733
	H278	H	0.382227	0.359755	0.518516
	O279	O	0.561894	0.316217	0.564556
	H280	H	0.567030	0.320109	0.555485
	H281	H	0.563824	0.309389	0.554692
	O282	O	0.610442	0.514783	0.344037
	H283	H	0.612244	0.500410	0.344582
	H284	H	0.613034	0.516077	0.350808
	O285	O	1.110043	-0.004696	0.013657
	H286	H	1.111582	-0.003269	0.007209
	H287	H	1.109344	0.011493	0.008487
	O288	O	0.586075	0.491125	0.539779
	H289	H	0.586991	0.481647	0.551751
	H290	H	0.583592	0.491295	0.520554
	O291	O	0.647053	0.556138	0.594571
	H292	H	0.631243	0.564595	0.600125
	H293	H	0.647768	0.540541	0.600788
	O294	O	0.407732	0.338280	0.477186
	H295	H	0.406731	0.347677	0.477080
	H296	H	0.392546	0.348004	0.472807
	O297	O	0.981595	0.798870	1.210974
	H298	H	0.991132	0.801454	1.211164
	H299	H	0.988329	0.773690	1.221159
	O300	O	-0.468128	0.519144	-0.419387
	H301	H	-0.445963	0.523727	-0.424404
	H302	H	-0.461286	0.506429	-0.412933
	O303	O	0.605661	0.420357	0.333140
	H304	H	0.623481	0.420014	0.317779
	H305	H	0.586408	0.400852	0.336259
	O306	O	0.784130	-0.196599	0.058755
	H307	H	0.766870	-0.215029	0.056370
	H308	H	0.782514	-0.194772	0.086503
	O309	O	0.331954	0.384854	0.633114
	H310	H	0.332303	0.393530	0.623660
	H311	H	0.330599	0.398256	0.629316
	O312	O	0.797669	1.003608	-0.006582
	H313	H	0.784193	0.968371	-0.009057
	H314	H	0.822776	1.013178	-0.024326
	O315	O	1.197990	1.105406	0.029186
	H316	H	1.197257	1.094417	0.066115
	H317	H	1.216977	1.119995	0.036558
	O318	O	0.528885	0.562652	0.546250
	H319	H	0.529704	0.559472	0.545152
	H320	H	0.550120	0.557116	0.540592
	O321	O	1.039803	-0.112784	1.139051
	H322	H	1.038850	-0.114697	1.130319
	H323	H	1.036756	-0.108389	1.148416
	O324	O	0.053774	-0.042481	1.103639
	H325	H	0.047252	-0.040123	1.086038
	H326	H	0.066876	-0.065798	1.092281
	O327	O	0.695988	0.460321	0.501077
	H328	H	0.694097	0.442667	0.489759
	H329	H	0.697123	0.465472	0.477472
	O330	O	0.508795	0.324313	0.437909
	H331	H	0.507598	0.329853	0.441319
	H332	H	0.506419	0.318101	0.441645
	O333	O	1.049491	1.010141	0.954120
	H334	H	1.052879	1.023866	0.938450
	H335	H	1.057188	1.013493	0.944518
	O336	O	0.522149	0.490376	0.360778
	H337	H	0.515601	0.504027	0.364891
	H338	H	0.521625	0.502232	0.354873
	O339	O	1.108574	0.185416	1.113141
	H340	H	1.103643	0.161350	1.119725
	H341	H	1.073736	0.194842	1.122071
	O342	O	-0.213991	1.016779	0.798734
	H343	H	-0.200300	1.024546	0.802647
	H344	H	-0.235908	1.019666	0.769744
	O345	O	0.081318	0.989743	0.959388
	H346	H	0.084817	0.981996	0.945656
	H347	H	0.051565	0.986637	0.963424
	O348	O	0.386078	0.468773	0.543417
	H349	H	0.380479	0.468098	0.537932
	H350	H	0.386447	0.477064	0.538500
	O351	O	0.209248	0.019898	0.210951
	H352	H	0.236014	0.025441	0.236305
	H353	H	0.194435	-0.003301	0.202771
	O354	O	0.831387	0.808223	0.181719
	H355	H	0.833426	0.843243	0.187486
	H356	H	0.858090	0.797939	0.174521
	O357	O	-0.062583	0.854852	-0.031450
	H358	H	-0.057987	0.841537	-0.031645
	H359	H	-0.059710	0.849047	-0.032482
	O360	O	0.428504	0.609679	0.495170
	H361	H	0.425756	0.624696	0.492734
	H362	H	0.431983	0.601192	0.507209
	O363	O	0.507079	0.687429	0.527136
	H364	H	0.531610	0.672693	0.524000
	H365	H	0.509452	0.706189	0.548981
	O366	O	0.571912	0.588364	0.609010
	H367	H	0.577877	0.599653	0.592830
	H368	H	0.581836	0.569046	0.602280
	O369	O	-0.206536	0.972930	0.147591
	H370	H	-0.233924	0.966053	0.150909
	H371	H	-0.188239	0.975137	0.132183
	O372	O	0.331454	0.623134	0.512778
	H373	H	0.347175	0.620018	0.518402
	H374	H	0.329924	0.628028	0.500487
	O375	O	0.429681	0.552367	0.544877
	H376	H	0.456136	0.554267	0.544937
	H377	H	0.429793	0.564379	0.549042
	O378	O	0.392665	0.668780	0.319808
	H379	H	0.385771	0.677728	0.304368
	H380	H	0.391983	0.651544	0.327961
	O381	O	0.506389	0.630638	0.465078
	H382	H	0.499357	0.624757	0.470982
	H383	H	0.504468	0.647608	0.462564
	O384	O	0.513709	0.335986	0.659382
	H385	H	0.478452	0.339166	0.651215
	H386	H	0.511556	0.316945	0.696302
	O387	O	1.169266	0.810010	-0.178868
	H388	H	1.180105	0.843715	-0.184166
	H389	H	1.144992	0.800321	-0.161623
	O390	O	0.589479	0.365820	0.310356
	H391	H	0.571760	0.360172	0.306234
	H392	H	0.590514	0.360613	0.312909
	O393	O	0.999750	-0.089178	1.003376
	H394	H	0.991490	-0.068529	1.004682
	H395	H	0.989685	-0.080643	0.993496
	O396	O	0.145623	0.830908	1.007173
	H397	H	0.153513	0.820221	1.009626
	H398	H	0.150085	0.839106	1.006751
	O399	O	-0.027086	1.195838	0.791569
	H400	H	-0.030361	1.212262	0.769488
	H401	H	-0.041820	1.188316	0.786570
	O402	O	0.898557	0.189253	0.993997
	H403	H	0.909052	0.196569	0.986844
	H404	H	0.901967	0.190786	1.004844
	O405	O	-0.190365	0.178598	-0.178852
	H406	H	-0.186982	0.180350	-0.175104
	H407	H	-0.192857	0.172970	-0.153040
	O408	O	1.410211	1.510433	1.357511
	H409	H	1.400932	1.525983	1.355646
	H410	H	1.397068	1.517588	1.348694
	O411	O	1.007476	1.173966	0.203730
	H412	H	1.008782	1.188292	0.220514
	H413	H	0.989910	1.167359	0.203447
	O414	O	-0.149907	0.071995	1.103673
	H415	H	-0.134037	0.066350	1.097236
	H416	H	-0.150057	0.058991	1.091214
	O417	O	0.059245	-0.003087	0.856747
	H418	H	0.057118	-0.011050	0.865628
	H419	H	0.086972	-0.032274	0.858823
	O420	O	0.131284	1.099770	0.079005
	H421	H	0.135974	1.105070	0.064485
	H422	H	0.122198	1.089162	0.065301
	O423	O	0.935367	-0.018015	-0.142419
	H424	H	0.923015	-0.025704	-0.145179
	H425	H	0.928139	-0.012801	-0.123550
	O426	O	0.198645	-0.010979	0.831447
	H427	H	0.215044	-0.001567	0.817991
	H428	H	0.190210	-0.005597	0.824597
	O429	O	1.013005	0.781004	0.791600
	H430	H	1.002069	0.770811	0.781691
	H431	H	1.027393	0.792191	0.786828
