data_Molecule from HDF5

_cell_length_a		16.308311
_cell_length_b		16.341672
_cell_length_c		16.314020
_cell_angle_alpha	89.968508
_cell_angle_beta	89.957394
_cell_angle_gamma	90.131072
_symmetry_space_group_name_H-M	'P 1'
_symmetry_Int_Tables_number		1

loop_
	_symmetry_equiv_pos_as_xyz
	x,y,z

loop_
	_atom_site_label
	_atom_site_type_symbol
	_atom_site_fract_x
	_atom_site_fract_y
	_atom_site_fract_z
	H0	H	0.402274	0.832582	0.715453
	H1	H	0.601098	0.159423	0.715628
	H2	H	0.602300	0.833902	0.283330
	H3	H	0.402380	0.158597	0.284396
	H4	H	0.716989	0.398189	0.836579
	H5	H	0.716978	0.595179	0.163727
	H6	H	0.288886	0.592904	0.836460
	H7	H	0.287177	0.397280	0.163069
	H8	H	0.839770	0.710805	0.400559
	H9	H	0.165638	0.711501	0.600593
	H10	H	0.839789	0.278622	0.600128
	H11	H	0.166220	0.280534	0.401222
	H12	H	0.839957	0.394660	0.716348
	H13	H	0.166479	0.592946	0.714038
	H14	H	0.840016	0.594180	0.284436
	H15	H	0.165945	0.395704	0.284148
	H16	H	0.405022	0.709804	0.836270
	H17	H	0.601525	0.711232	0.163151
	H18	H	0.600115	0.281530	0.836340
	H19	H	0.403375	0.281135	0.163233
	H20	H	0.717519	0.833000	0.401003
	H21	H	0.718581	0.158890	0.599819
	H22	H	0.287744	0.832900	0.598614
	H23	H	0.288067	0.158730	0.402306
	H24	H	0.903544	0.332206	0.215437
	H25	H	0.102607	0.657388	0.216058
	H26	H	0.100379	0.332273	0.786656
	H27	H	0.904058	0.657623	0.782915
	H28	H	0.217301	0.898237	0.337289
	H29	H	0.217833	0.093408	0.663827
	H30	H	0.787750	0.094039	0.336687
	H31	H	0.786890	0.897049	0.663877
	H32	H	0.338540	0.209846	0.902110
	H33	H	0.665184	0.211720	0.099173
	H34	H	0.339369	0.779552	0.099145
	H35	H	0.665852	0.781495	0.899860
	H36	H	0.338629	0.896951	0.214767
	H37	H	0.665535	0.095197	0.215092
	H38	H	0.338404	0.092952	0.786414
	H39	H	0.665443	0.898152	0.785329
	H40	H	0.903978	0.210745	0.336907
	H41	H	0.102295	0.210881	0.663614
	H42	H	0.102049	0.780207	0.337484
	H43	H	0.902773	0.779691	0.663627
	H44	H	0.216689	0.332855	0.902294
	H45	H	0.216444	0.658594	0.097685
	H46	H	0.787285	0.332276	0.098781
	H47	H	0.787959	0.659005	0.900215
	H48	H	0.405699	0.114158	0.597931
	H49	H	0.600233	0.879533	0.591155
	H50	H	0.599003	0.111632	0.411593
	H51	H	0.408284	0.879987	0.409941
	H52	H	0.590238	0.402807	0.114934
	H53	H	0.601509	0.594027	0.880824
	H54	H	0.409958	0.586701	0.115339
	H55	H	0.408064	0.394952	0.881383
	H56	H	0.120327	0.585593	0.401733
	H57	H	0.887095	0.583941	0.596253
	H58	H	0.118236	0.407952	0.597568
	H59	H	0.888558	0.408734	0.405891
	H60	H	0.121817	0.394916	0.596542
	H61	H	0.885967	0.591664	0.592331
	H62	H	0.119618	0.594879	0.409926
	H63	H	0.884631	0.398107	0.403830
	H64	H	0.411605	0.589547	0.116061
	H65	H	0.597572	0.580881	0.886195
	H66	H	0.597425	0.399775	0.117246
	H67	H	0.403104	0.407168	0.883588
	H68	H	0.594924	0.112351	0.402618
	H69	H	0.592611	0.880169	0.598472
	H70	H	0.415787	0.110760	0.595787
	H71	H	0.408256	0.879084	0.405072
	H72	H	0.919756	0.606236	0.085801
	H73	H	0.101038	0.377925	0.091556
	H74	H	0.109297	0.615253	0.908399
	H75	H	0.918096	0.380863	0.899934
	H76	H	0.092478	0.897114	0.617594
	H77	H	0.094893	0.088625	0.385082
	H78	H	0.910256	0.090125	0.615855
	H79	H	0.908809	0.906050	0.386324
	H80	H	0.621481	0.090070	0.896678
	H81	H	0.386701	0.090102	0.087817
	H82	H	0.616519	0.905550	0.090900
	H83	H	0.383879	0.894206	0.908202
	H84	H	0.618591	0.904506	0.094816
	H85	H	0.387457	0.083916	0.094677
	H86	H	0.618423	0.098306	0.915512
	H87	H	0.388735	0.905394	0.914380
	H88	H	0.907988	0.087434	0.615741
	H89	H	0.094899	0.088375	0.384219
	H90	H	0.101169	0.903455	0.618017
	H91	H	0.913692	0.902100	0.385768
	H92	H	0.092309	0.614204	0.894003
	H93	H	0.093055	0.378750	0.097907
	H94	H	0.899967	0.612253	0.087878
	H95	H	0.912322	0.384542	0.918673
	H96	H	0.408237	0.110372	0.588579
	H97	H	0.590392	0.883294	0.588702
	H98	H	0.590196	0.109158	0.410331
	H99	H	0.412877	0.880785	0.406781
	H100	H	0.596778	0.407582	0.114948
	H101	H	0.587898	0.591751	0.885435
	H102	H	0.408162	0.589602	0.116624
	H103	H	0.416153	0.404431	0.885923
	H104	H	0.115868	0.583556	0.412971
	H105	H	0.889021	0.584700	0.587673
	H106	H	0.116529	0.401823	0.586141
	H107	H	0.889217	0.400877	0.413730
	H108	H	0.912764	0.613249	0.103852
	H109	H	0.091836	0.381662	0.088530
	H110	H	0.089388	0.607067	0.914671
	H111	H	0.899180	0.375799	0.905557
	H112	H	0.091624	0.907512	0.614216
	H113	H	0.094954	0.087901	0.385060
	H114	H	0.911395	0.086433	0.615176
	H115	H	0.907982	0.900457	0.383283
	H116	H	0.613053	0.078048	0.912100
	H117	H	0.384188	0.092340	0.096382
	H118	H	0.618197	0.901496	0.091272
	H119	H	0.385867	0.905760	0.900959
	C120	C	0.380947	0.003758	0.622487
	C121	C	0.623722	0.988510	0.621947
	C122	C	0.623595	0.003997	0.378985
	C123	C	0.381098	0.987770	0.378839
	C124	C	0.623710	0.374440	0.008048
	C125	C	0.624478	0.617876	0.992091
	C126	C	0.381394	0.617028	0.007968
	C127	C	0.380850	0.373884	0.991761
	C128	C	0.011094	0.616983	0.378714
	C129	C	0.995048	0.615756	0.620956
	C130	C	0.011043	0.372781	0.621926
	C131	C	0.995084	0.373787	0.378823
	C132	C	0.881484	0.503297	0.121509
	C133	C	0.124170	0.487021	0.121671
	C134	C	0.124715	0.504117	0.878144
	C135	C	0.881140	0.487621	0.878565
	C136	C	0.124133	0.874067	0.508651
	C137	C	0.124231	0.116844	0.492157
	C138	C	0.880730	0.117305	0.508351
	C139	C	0.880799	0.873749	0.492864
	C140	C	0.510163	0.117207	0.879219
	C141	C	0.493621	0.117630	0.122143
	C142	C	0.509985	0.874499	0.121166
	C143	C	0.494198	0.873956	0.878424
	C144	C	0.382825	0.881169	0.677328
	C145	C	0.621879	0.110700	0.677841
	C146	C	0.622448	0.882051	0.322131
	C147	C	0.382994	0.110136	0.323179
	C148	C	0.679247	0.377026	0.885221
	C149	C	0.679463	0.615677	0.114875
	C150	C	0.326682	0.613926	0.885161
	C151	C	0.325509	0.376834	0.114524
	C152	C	0.888403	0.672482	0.380453
	C153	C	0.117249	0.672346	0.619734
	C154	C	0.888511	0.316728	0.620197
	C155	C	0.117464	0.318184	0.380801
	C156	C	0.888543	0.374381	0.678031
	C157	C	0.117870	0.613445	0.676061
	C158	C	0.888588	0.614612	0.322647
	C159	C	0.117445	0.375596	0.322753
	C160	C	0.384292	0.671948	0.885111
	C161	C	0.622113	0.673476	0.114542
	C162	C	0.620639	0.319668	0.884925
	C163	C	0.382873	0.318900	0.114576
	C164	C	0.679526	0.881606	0.380676
	C165	C	0.680146	0.110376	0.620217
	C166	C	0.325673	0.881403	0.619404
	C167	C	0.325656	0.110131	0.381275
	C168	C	0.883052	0.380896	0.177401
	C169	C	0.122495	0.609071	0.177547
	C170	C	0.121430	0.381072	0.823973
	C171	C	0.883481	0.609574	0.821961
	C172	C	0.179780	0.876805	0.386022
	C173	C	0.179881	0.114416	0.615073
	C174	C	0.825680	0.114594	0.385507
	C175	C	0.825135	0.876299	0.615197
	C176	C	0.387083	0.171935	0.881681
	C177	C	0.616608	0.173440	0.119733
	C178	C	0.387787	0.818444	0.119365
	C179	C	0.616997	0.819522	0.880451
	C180	C	0.387602	0.876412	0.176942
	C181	C	0.616887	0.115453	0.177084
	C182	C	0.386935	0.113780	0.824464
	C183	C	0.616681	0.877010	0.822866
	C184	C	0.882959	0.172791	0.385559
	C185	C	0.122119	0.172207	0.615085
	C186	C	0.122078	0.818800	0.385967
	C187	C	0.882818	0.818063	0.615132
	C188	C	0.179374	0.381446	0.881169
	C189	C	0.179241	0.609591	0.118954
	C190	C	0.825305	0.380968	0.119398
	C191	C	0.825840	0.610235	0.880104
	C192	C	0.403403	0.089560	0.600511
	C193	C	0.601045	0.903118	0.599506
	C194	C	0.601146	0.089014	0.401568
	C195	C	0.403262	0.902189	0.400932
	C196	C	0.601328	0.396846	0.093539
	C197	C	0.602313	0.595377	0.906441
	C198	C	0.403342	0.595072	0.093818
	C199	C	0.402752	0.395703	0.905836
	C200	C	0.096353	0.594561	0.401422
	C201	C	0.909665	0.593252	0.598536
	C202	C	0.096778	0.395149	0.599941
	C203	C	0.909580	0.396148	0.401299
	C204	C	0.904209	0.588611	0.099044
	C205	C	0.101941	0.401580	0.099215
	C206	C	0.103237	0.589943	0.899405
	C207	C	0.903225	0.402521	0.901490
	C208	C	0.101763	0.896217	0.594424
	C209	C	0.101711	0.094591	0.406845
	C210	C	0.903258	0.094629	0.593384
	C211	C	0.903430	0.896413	0.407257
	C212	C	0.595623	0.095403	0.901651
	C213	C	0.408311	0.095335	0.099757
	C214	C	0.595777	0.897206	0.098710
	C215	C	0.408166	0.895624	0.900949
	Zn216	Zn	0.502124	-0.004168	0.751214
	Zn217	Zn	0.502091	-0.003946	0.249937
	Zn218	Zn	0.752318	0.496001	0.000426
	Zn219	Zn	0.252537	0.495335	-0.000242
	Zn220	Zn	0.002948	0.745071	0.500416
	Zn221	Zn	0.002835	0.245183	0.500012
	Zn222	Zn	0.002832	0.494705	0.750227
	Zn223	Zn	0.003328	0.494895	0.250058
	Zn224	Zn	0.502787	0.745771	-0.000304
	Zn225	Zn	0.502265	0.245709	0.000243
	Zn226	Zn	0.752555	-0.004385	0.500375
	Zn227	Zn	0.252894	-0.004351	0.500419
	N228	N	0.416719	0.958386	0.679256
	N229	N	0.587513	0.033799	0.679051
	N230	N	0.588320	0.958996	0.320929
	N231	N	0.416550	0.032859	0.321487
	N232	N	0.680867	0.410559	0.962575
	N233	N	0.681047	0.581843	0.037671
	N234	N	0.324628	0.580792	0.962681
	N235	N	0.324063	0.410025	0.037100
	N236	N	0.965476	0.674140	0.414442
	N237	N	0.039951	0.673956	0.586239
	N238	N	0.965806	0.315326	0.586371
	N239	N	0.040223	0.317055	0.415104
	N240	N	0.965567	0.408763	0.678979
	N241	N	0.040836	0.578798	0.677033
	N242	N	0.965758	0.580678	0.321370
	N243	N	0.040519	0.409560	0.321632
	N244	N	0.417773	0.673710	0.962456
	N245	N	0.588603	0.674876	0.037252
	N246	N	0.587086	0.317758	0.962327
	N247	N	0.416766	0.317183	0.037354
	N248	N	0.680557	0.958442	0.415152
	N249	N	0.681211	0.033389	0.586218
	N250	N	0.324709	0.958492	0.585673
	N251	N	0.324872	0.033212	0.415641
	N252	N	0.917138	0.457874	0.178831
	N253	N	0.089009	0.531744	0.179195
	N254	N	0.088154	0.458333	0.822060
	N255	N	0.916809	0.532453	0.820743
	N256	N	0.180919	0.910649	0.463184
	N257	N	0.181225	0.080582	0.537860
	N258	N	0.824021	0.081076	0.462859
	N259	N	0.823914	0.909988	0.538022
	N260	N	0.464616	0.173926	0.915271
	N261	N	0.539178	0.174985	0.086367
	N262	N	0.465080	0.817013	0.085678
	N263	N	0.539700	0.817538	0.914294
	N264	N	0.464679	0.910863	0.177886
	N265	N	0.539650	0.081424	0.178601
	N266	N	0.464296	0.080543	0.822839
	N267	N	0.539290	0.910363	0.821978
	N268	N	0.916664	0.174504	0.462727
	N269	N	0.088287	0.173910	0.537836
	N270	N	0.088502	0.817012	0.463342
	N271	N	0.916738	0.816409	0.537813
	N272	N	0.181179	0.458809	0.914352
	N273	N	0.180498	0.532664	0.084927
	N274	N	0.824325	0.458007	0.085363
	N275	N	0.824239	0.533293	0.914539
	O276	O	0.580332	0.524168	0.510995
	H277	H	0.578750	0.537120	0.511534
	H278	H	0.574081	0.519407	0.519228
	O279	O	-0.099020	0.008606	0.025810
	H280	H	-0.093377	0.012037	0.019162
	H281	H	-0.106691	0.008736	0.035397
	O282	O	0.538109	0.463110	0.483431
	H283	H	0.535818	0.460528	0.485683
	H284	H	0.540434	0.461915	0.486004
	O285	O	0.531630	0.554461	0.505937
	H286	H	0.533829	0.558943	0.498072
	H287	H	0.533170	0.557011	0.499313
	O288	O	1.540543	0.460303	0.422795
	H289	H	1.541044	0.447658	0.418113
	H290	H	1.553056	0.460178	0.425277
	O291	O	-0.430207	0.483351	-0.577289
	H292	H	-0.429732	0.492306	-0.577270
	H293	H	-0.429535	0.480971	-0.565591
	O294	O	-0.082030	1.004284	0.065632
	H295	H	-0.083262	1.011672	0.062113
	H296	H	-0.078667	1.009886	0.065204
	O297	O	-0.086911	0.997740	0.026119
	H298	H	-0.094372	0.989656	0.029570
	H299	H	-0.089046	0.994162	0.018336
	O300	O	0.874869	-0.026192	1.017950
	H301	H	0.877467	-0.028677	1.030451
	H302	H	0.866986	-0.027032	1.019074
	O303	O	0.545498	0.532550	0.512344
	H304	H	0.553231	0.533920	0.511236
	H305	H	0.540975	0.531958	0.512816
	O306	O	0.540830	1.500315	1.502797
	H307	H	0.531942	1.506735	1.494084
	H308	H	0.547358	1.497478	1.504694
	O309	O	0.515505	0.546357	0.426879
	H310	H	0.515888	0.537119	0.421058
	H311	H	0.523401	0.550574	0.429049
