data_Molecule from HDF5

_cell_length_a		16.281869
_cell_length_b		16.257430
_cell_length_c		16.329260
_cell_angle_alpha	90.242902
_cell_angle_beta	90.175599
_cell_angle_gamma	90.156333
_symmetry_space_group_name_H-M	'P 1'
_symmetry_Int_Tables_number		1

loop_
	_symmetry_equiv_pos_as_xyz
	x,y,z

loop_
	_atom_site_label
	_atom_site_type_symbol
	_atom_site_fract_x
	_atom_site_fract_y
	_atom_site_fract_z
	H0	H	0.395265	0.836985	0.717624
	H1	H	0.596162	0.163006	0.720665
	H2	H	0.594645	0.836795	0.287898
	H3	H	0.395749	0.163865	0.288759
	H4	H	0.707170	0.400741	0.840355
	H5	H	0.710735	0.600636	0.165948
	H6	H	0.278724	0.597151	0.839588
	H7	H	0.278103	0.400337	0.166051
	H8	H	0.830754	0.713699	0.403739
	H9	H	0.157701	0.715417	0.603651
	H10	H	0.830687	0.286004	0.599569
	H11	H	0.158427	0.285213	0.405127
	H12	H	0.831386	0.399834	0.717097
	H13	H	0.157525	0.600642	0.720078
	H14	H	0.831256	0.598309	0.288164
	H15	H	0.157566	0.398378	0.287402
	H16	H	0.394578	0.714626	0.839552
	H17	H	0.594594	0.716226	0.165825
	H18	H	0.592198	0.284569	0.840231
	H19	H	0.396758	0.285978	0.167431
	H20	H	0.707971	0.836182	0.405081
	H21	H	0.709776	0.163797	0.603285
	H22	H	0.278998	0.837085	0.602331
	H23	H	0.280423	0.164349	0.405371
	H24	H	0.895876	0.336270	0.216181
	H25	H	0.096509	0.662540	0.221055
	H26	H	0.091596	0.336313	0.787494
	H27	H	0.893950	0.663000	0.787288
	H28	H	0.208527	0.900306	0.340623
	H29	H	0.209893	0.100407	0.666880
	H30	H	0.778852	0.097618	0.340598
	H31	H	0.779398	0.901495	0.666718
	H32	H	0.330968	0.212541	0.905331
	H33	H	0.658551	0.215570	0.102741
	H34	H	0.331640	0.783983	0.101261
	H35	H	0.658800	0.785810	0.904974
	H36	H	0.331374	0.899890	0.217884
	H37	H	0.658694	0.100555	0.219945
	H38	H	0.331977	0.099273	0.788115
	H39	H	0.657502	0.900117	0.787638
	H40	H	0.895552	0.213401	0.340090
	H41	H	0.094691	0.216711	0.666658
	H42	H	0.091681	0.784455	0.340680
	H43	H	0.895819	0.785409	0.666699
	H44	H	0.207492	0.335903	0.903722
	H45	H	0.210620	0.663316	0.103782
	H46	H	0.780900	0.335649	0.099651
	H47	H	0.779271	0.663760	0.903519
	H48	H	0.407031	0.116321	0.598501
	H49	H	0.577520	0.883838	0.602515
	H50	H	0.584722	0.116489	0.409529
	H51	H	0.402017	0.886100	0.416623
	H52	H	0.587876	0.403516	0.121011
	H53	H	0.592819	0.591515	0.884895
	H54	H	0.395174	0.599285	0.122297
	H55	H	0.400743	0.407570	0.888003
	H56	H	0.111287	0.595608	0.412427
	H57	H	0.877568	0.602103	0.589330
	H58	H	0.112066	0.414181	0.604643
	H59	H	0.874420	0.400672	0.403591
	H60	H	0.113535	0.398799	0.597274
	H61	H	0.881976	0.581934	0.592400
	H62	H	0.108460	0.589795	0.415213
	H63	H	0.880414	0.403268	0.417417
	H64	H	0.399641	0.581127	0.116093
	H65	H	0.583842	0.587442	0.889758
	H66	H	0.591235	0.410499	0.119892
	H67	H	0.402056	0.403172	0.887461
	H68	H	0.587218	0.116154	0.414491
	H69	H	0.585884	0.887652	0.584309
	H70	H	0.402711	0.115215	0.592269
	H71	H	0.395852	0.880891	0.408328
	H72	H	0.905978	0.615252	0.095734
	H73	H	0.083830	0.384986	0.092784
	H74	H	0.078961	0.615328	0.907151
	H75	H	0.899033	0.382781	0.908219
	H76	H	0.087091	0.917707	0.616512
	H77	H	0.091778	0.091063	0.387197
	H78	H	0.907665	0.100017	0.619613
	H79	H	0.895033	0.916451	0.388709
	H80	H	0.612328	0.094307	0.910436
	H81	H	0.379475	0.094346	0.092660
	H82	H	0.610184	0.910107	0.094010
	H83	H	0.377617	0.902719	0.910305
	H84	H	0.611059	0.909620	0.100021
	H85	H	0.380608	0.087763	0.096627
	H86	H	0.610615	0.092147	0.915284
	H87	H	0.381155	0.909264	0.913250
	H88	H	0.894491	0.093899	0.622672
	H89	H	0.084710	0.091279	0.389604
	H90	H	0.079693	0.902655	0.618874
	H91	H	0.912042	0.905951	0.390554
	H92	H	0.087435	0.614063	0.919525
	H93	H	0.091285	0.382964	0.094138
	H94	H	0.899799	0.616592	0.093548
	H95	H	0.900607	0.383643	0.908798
	H96	H	0.399627	0.118569	0.598680
	H97	H	0.596353	0.879965	0.599455
	H98	H	0.590378	0.118074	0.410439
	H99	H	0.406535	0.884418	0.406350
	H100	H	0.583818	0.409330	0.117768
	H101	H	0.584023	0.597483	0.887099
	H102	H	0.413134	0.595166	0.115484
	H103	H	0.397741	0.404436	0.887120
	H104	H	0.111246	0.589960	0.409009
	H105	H	0.873576	0.593193	0.608116
	H106	H	0.107570	0.412190	0.587895
	H107	H	0.879791	0.414676	0.407159
	H108	H	0.901058	0.618362	0.099668
	H109	H	0.085387	0.382119	0.099461
	H110	H	0.093489	0.619500	0.907563
	H111	H	0.899303	0.383138	0.909910
	H112	H	0.095793	0.904878	0.623361
	H113	H	0.087517	0.096853	0.386395
	H114	H	0.905812	0.085665	0.616335
	H115	H	0.895532	0.896247	0.383994
	H116	H	0.610569	0.089762	0.910142
	H117	H	0.377349	0.094088	0.099716
	H118	H	0.611677	0.905134	0.096779
	H119	H	0.377965	0.909180	0.906053
	C120	C	0.373527	0.008963	0.625104
	C121	C	0.616154	0.991786	0.625499
	C122	C	0.616071	0.008515	0.382555
	C123	C	0.372930	0.992070	0.381715
	C124	C	0.615532	0.378558	0.011792
	C125	C	0.616380	0.621980	0.994769
	C126	C	0.373416	0.621018	0.010679
	C127	C	0.371483	0.376486	0.995263
	C128	C	0.002519	0.620808	0.382572
	C129	C	0.985873	0.621521	0.625570
	C130	C	0.002843	0.379067	0.624301
	C131	C	0.986449	0.377478	0.381167
	C132	C	0.873466	0.508367	0.124065
	C133	C	0.116629	0.491527	0.125200
	C134	C	0.114729	0.508276	0.882304
	C135	C	0.871746	0.491568	0.880922
	C136	C	0.115900	0.878869	0.512121
	C137	C	0.116649	0.122333	0.495335
	C138	C	0.873432	0.121367	0.511608
	C139	C	0.872068	0.877855	0.495373
	C140	C	0.503134	0.121003	0.882592
	C141	C	0.486772	0.122016	0.125789
	C142	C	0.503235	0.878352	0.125220
	C143	C	0.486845	0.878343	0.881472
	C144	C	0.375345	0.885795	0.679713
	C145	C	0.615389	0.114459	0.681984
	C146	C	0.614229	0.885581	0.326323
	C147	C	0.375348	0.114967	0.326550
	C148	C	0.669697	0.380397	0.888875
	C149	C	0.672170	0.620301	0.117282
	C150	C	0.316964	0.618163	0.888284
	C151	C	0.316388	0.379699	0.117655
	C152	C	0.879670	0.675828	0.384169
	C153	C	0.108965	0.677206	0.623740
	C154	C	0.879672	0.323391	0.620893
	C155	C	0.109318	0.322568	0.384224
	C156	C	0.879943	0.380101	0.679185
	C157	C	0.108619	0.620274	0.681774
	C158	C	0.880066	0.618662	0.326204
	C159	C	0.108827	0.378921	0.325620
	C160	C	0.375098	0.676025	0.888133
	C161	C	0.614648	0.678077	0.117197
	C162	C	0.612764	0.322492	0.888972
	C163	C	0.375072	0.322561	0.118200
	C164	C	0.670841	0.885275	0.384341
	C165	C	0.672071	0.114796	0.623814
	C166	C	0.317614	0.885769	0.622398
	C167	C	0.318367	0.115483	0.384812
	C168	C	0.875649	0.385032	0.178522
	C169	C	0.115545	0.614124	0.181932
	C170	C	0.111795	0.384822	0.826457
	C171	C	0.873989	0.614400	0.825475
	C172	C	0.171144	0.879957	0.389426
	C173	C	0.172298	0.120695	0.618085
	C174	C	0.816948	0.118573	0.389277
	C175	C	0.817619	0.880982	0.618282
	C176	C	0.380045	0.175431	0.884761
	C177	C	0.609792	0.177801	0.123808
	C178	C	0.380340	0.822204	0.122105
	C179	C	0.609731	0.823196	0.884128
	C180	C	0.380303	0.879894	0.180082
	C181	C	0.609632	0.120729	0.182010
	C182	C	0.380595	0.118923	0.826472
	C183	C	0.609214	0.880326	0.825964
	C184	C	0.875134	0.175962	0.388989
	C185	C	0.114682	0.178420	0.618069
	C186	C	0.113091	0.822293	0.389536
	C187	C	0.875031	0.823042	0.618114
	C188	C	0.169503	0.384634	0.883854
	C189	C	0.172604	0.614415	0.123749
	C190	C	0.818419	0.384890	0.120353
	C191	C	0.817206	0.614833	0.883477
	C192	C	0.396464	0.094673	0.603012
	C193	C	0.593161	0.905973	0.602279
	C194	C	0.593954	0.094633	0.404959
	C195	C	0.395084	0.906197	0.403889
	C196	C	0.594090	0.401145	0.097300
	C197	C	0.593570	0.599024	0.909271
	C198	C	0.396062	0.598556	0.096007
	C199	C	0.393684	0.398393	0.909692
	C200	C	0.088180	0.598370	0.405595
	C201	C	0.899909	0.599017	0.603074
	C202	C	0.088821	0.401723	0.602809
	C203	C	0.900359	0.399711	0.403047
	C204	C	0.895803	0.594450	0.102763
	C205	C	0.093624	0.405558	0.102281
	C206	C	0.093029	0.593994	0.904989
	C207	C	0.893213	0.405419	0.902665
	C208	C	0.093956	0.901562	0.597352
	C209	C	0.094510	0.099817	0.409836
	C210	C	0.896048	0.099531	0.597348
	C211	C	0.894395	0.899723	0.409962
	C212	C	0.589147	0.098588	0.905226
	C213	C	0.401316	0.098895	0.102970
	C214	C	0.588729	0.901422	0.103390
	C215	C	0.400973	0.900557	0.903426
	Zn216	Zn	0.494913	0.000297	0.753426
	Zn217	Zn	0.495018	0.000228	0.253971
	Zn218	Zn	0.744179	0.500185	0.002917
	Zn219	Zn	0.243891	0.499517	0.003105
	Zn220	Zn	-0.005856	0.749635	0.504028
	Zn221	Zn	-0.005100	0.250424	0.503505
	Zn222	Zn	-0.006141	0.499880	0.753504
	Zn223	Zn	-0.005153	0.499519	0.253257
	Zn224	Zn	0.495085	0.750283	0.002592
	Zn225	Zn	0.494834	0.248967	0.003738
	Zn226	Zn	0.743728	-0.000060	0.504020
	Zn227	Zn	0.245009	0.000655	0.503626
	N228	N	0.409376	0.963341	0.681337
	N229	N	0.581458	0.036859	0.683075
	N230	N	0.580760	0.963260	0.325238
	N231	N	0.408637	0.037383	0.324870
	N232	N	0.671674	0.414621	0.966040
	N233	N	0.673332	0.586072	0.040064
	N234	N	0.315828	0.584564	0.965451
	N235	N	0.314092	0.412446	0.040311
	N236	N	0.956863	0.677271	0.418488
	N237	N	0.031507	0.678425	0.589723
	N238	N	0.957236	0.322678	0.587475
	N239	N	0.032102	0.321625	0.417950
	N240	N	0.957427	0.413966	0.681367
	N241	N	0.030993	0.586544	0.683012
	N242	N	0.957601	0.585075	0.325101
	N243	N	0.031176	0.412256	0.323581
	N244	N	0.409248	0.678006	0.965389
	N245	N	0.580370	0.678800	0.040105
	N246	N	0.579520	0.321339	0.966255
	N247	N	0.408574	0.320465	0.040881
	N248	N	0.672050	0.962778	0.418476
	N249	N	0.672513	0.037472	0.589229
	N250	N	0.316058	0.963393	0.589395
	N251	N	0.316128	0.037774	0.417918
	N252	N	0.909063	0.462770	0.180880
	N253	N	0.081538	0.536497	0.182940
	N254	N	0.078741	0.462502	0.825174
	N255	N	0.907301	0.536780	0.823903
	N256	N	0.173165	0.914472	0.466596
	N257	N	0.173474	0.086279	0.540945
	N258	N	0.815901	0.085073	0.466481
	N259	N	0.815593	0.914286	0.541012
	N260	N	0.457370	0.176635	0.918988
	N261	N	0.532609	0.178375	0.089488
	N262	N	0.457678	0.821218	0.088827
	N263	N	0.532472	0.822029	0.917880
	N264	N	0.457728	0.914010	0.182182
	N265	N	0.532100	0.086687	0.183434
	N266	N	0.458296	0.085876	0.825070
	N267	N	0.531683	0.913720	0.824204
	N268	N	0.909265	0.177980	0.466184
	N269	N	0.080835	0.179648	0.540823
	N270	N	0.079733	0.821314	0.466699
	N271	N	0.908141	0.820921	0.540773
	N272	N	0.171214	0.462139	0.918302
	N273	N	0.173235	0.537134	0.089343
	N274	N	0.816909	0.462538	0.087157
	N275	N	0.815492	0.537480	0.917040
	O276	O	0.531957	0.488607	0.494369
	H277	H	0.531082	0.480210	0.497113
	H278	H	0.535042	0.484130	0.492368
	O279	O	0.464578	0.568191	0.475940
	H280	H	0.458216	0.575735	0.475380
	H281	H	0.466570	0.567823	0.479022
	O282	O	0.480540	0.602683	0.489161
	H283	H	0.486518	0.608973	0.484370
	H284	H	0.471130	0.601765	0.481114
	O285	O	0.049853	1.029123	1.088636
	H286	H	0.061604	1.021957	1.091288
	H287	H	0.064806	1.030933	1.086166
	O288	O	0.521346	0.536378	0.492941
	H289	H	0.514231	0.534293	0.498144
	H290	H	0.525524	0.530879	0.492901
	O291	O	-0.007146	0.029645	1.088853
	H292	H	-0.002579	0.025800	1.095595
	H293	H	-0.006539	0.031634	1.089444
	O294	O	0.471310	0.539005	0.539918
	H295	H	0.479744	0.532591	0.542043
	H296	H	0.470388	0.532223	0.532979
	O297	O	0.553309	0.516690	0.436850
	H298	H	0.566476	0.515746	0.425433
	H299	H	0.552713	0.507845	0.433095
	O300	O	0.496446	0.538127	0.504031
	H301	H	0.493247	0.542986	0.499849
	H302	H	0.498242	0.550503	0.503621
	O303	O	0.574571	0.480564	0.489125
	H304	H	0.574390	0.474826	0.493048
	H305	H	0.562729	0.484346	0.487496
	O306	O	0.992934	0.044119	1.036464
	H307	H	0.986074	0.043742	1.044972
	H308	H	0.984286	0.048360	1.039273
	O309	O	0.471114	0.577915	0.470101
	H310	H	0.472155	0.586130	0.467244
	H311	H	0.478267	0.584253	0.479537
	O312	O	0.101850	-0.002265	0.013242
	H313	H	0.116347	0.005430	0.005905
	H314	H	0.094281	-0.003540	0.012964
	O315	O	1.032829	-0.038200	1.059805
	H316	H	1.030071	-0.039487	1.065991
	H317	H	1.033701	-0.042102	1.063610
	O318	O	-0.012631	-0.006627	0.039712
	H319	H	-0.006719	-0.005800	0.036973
	H320	H	-0.006057	-0.007902	0.040417
	O321	O	0.470620	0.476962	0.454129
	H322	H	0.463171	0.481742	0.459620
	H323	H	0.471382	0.484449	0.443695
	O324	O	1.044625	-0.036273	0.008316
	H325	H	1.043879	-0.051013	0.003278
	H326	H	1.039042	-0.030754	0.000119
	O327	O	1.082398	0.987960	0.030930
	H328	H	1.086551	0.990003	0.036424
	H329	H	1.078747	1.001216	0.032449
	O330	O	1.044053	1.028698	0.051223
	H331	H	1.042326	1.014601	0.055539
	H332	H	1.046366	1.028639	0.047554
	O333	O	0.527450	0.529311	0.468274
	H334	H	0.531421	0.520093	0.471364
	H335	H	0.530824	0.527470	0.467018
