data_Molecule from HDF5

_cell_length_a		16.559702
_cell_length_b		16.322856
_cell_length_c		16.305336
_cell_angle_alpha	90.133202
_cell_angle_beta	90.110689
_cell_angle_gamma	90.073512
_symmetry_space_group_name_H-M	'P 1'
_symmetry_Int_Tables_number		1

loop_
	_symmetry_equiv_pos_as_xyz
	x,y,z

loop_
	_atom_site_label
	_atom_site_type_symbol
	_atom_site_fract_x
	_atom_site_fract_y
	_atom_site_fract_z
	H0	H	0.398942	0.822695	0.716402
	H1	H	0.601157	0.145776	0.720764
	H2	H	0.603353	0.825630	0.281038
	H3	H	0.394597	0.144930	0.282184
	H4	H	0.721103	0.377895	0.841998
	H5	H	0.722803	0.591340	0.160292
	H6	H	0.280514	0.587308	0.841090
	H7	H	0.280145	0.378406	0.161598
	H8	H	0.840155	0.704914	0.398552
	H9	H	0.158668	0.706198	0.604653
	H10	H	0.839543	0.266134	0.603548
	H11	H	0.157766	0.265529	0.398500
	H12	H	0.839908	0.381975	0.721413
	H13	H	0.158107	0.589537	0.722890
	H14	H	0.840501	0.588806	0.280953
	H15	H	0.158362	0.383481	0.282647
	H16	H	0.398982	0.700702	0.840288
	H17	H	0.603587	0.703235	0.162879
	H18	H	0.602896	0.265350	0.840234
	H19	H	0.399504	0.267042	0.162209
	H20	H	0.720928	0.826215	0.394909
	H21	H	0.721689	0.144028	0.610283
	H22	H	0.276982	0.826629	0.607606
	H23	H	0.278365	0.144556	0.395843
	H24	H	0.896156	0.325031	0.220716
	H25	H	0.103838	0.646225	0.221472
	H26	H	0.101872	0.325013	0.782105
	H27	H	0.896703	0.645978	0.782902
	H28	H	0.221933	0.876979	0.343189
	H29	H	0.223551	0.096116	0.659663
	H30	H	0.773182	0.095985	0.344385
	H31	H	0.776949	0.878523	0.660862
	H32	H	0.343085	0.206712	0.894953
	H33	H	0.656931	0.208086	0.109055
	H34	H	0.342845	0.759995	0.109100
	H35	H	0.657787	0.761031	0.894821
	H36	H	0.341929	0.877547	0.224847
	H37	H	0.655364	0.093733	0.227954
	H38	H	0.342192	0.087722	0.780715
	H39	H	0.657348	0.877206	0.777432
	H40	H	0.895046	0.204294	0.340450
	H41	H	0.102562	0.207275	0.661440
	H42	H	0.103372	0.765393	0.341734
	H43	H	0.895667	0.765740	0.661817
	H44	H	0.221344	0.325604	0.893341
	H45	H	0.223414	0.643662	0.109927
	H46	H	0.777249	0.326797	0.109393
	H47	H	0.774733	0.642246	0.890046
	H48	H	0.411812	0.098133	0.591773
	H49	H	0.590606	0.870885	0.587187
	H50	H	0.593127	0.102496	0.410525
	H51	H	0.410479	0.872850	0.418177
	H52	H	0.592645	0.404285	0.113853
	H53	H	0.585671	0.573468	0.888702
	H54	H	0.400325	0.576374	0.120723
	H55	H	0.404756	0.400179	0.886196
	H56	H	0.111887	0.575278	0.410612
	H57	H	0.886329	0.578545	0.592618
	H58	H	0.108867	0.401157	0.590944
	H59	H	0.886734	0.392135	0.416484
	H60	H	0.113113	0.394336	0.595907
	H61	H	0.887700	0.575348	0.589065
	H62	H	0.112596	0.578490	0.410148
	H63	H	0.889144	0.402170	0.410166
	H64	H	0.409886	0.560254	0.111374
	H65	H	0.591468	0.573383	0.885888
	H66	H	0.584162	0.395246	0.113860
	H67	H	0.414093	0.396952	0.889041
	H68	H	0.579128	0.096322	0.413184
	H69	H	0.589459	0.871057	0.590078
	H70	H	0.409191	0.099369	0.588202
	H71	H	0.405715	0.870091	0.414131
	H72	H	0.906559	0.601154	0.090748
	H73	H	0.087613	0.371667	0.090077
	H74	H	0.088991	0.597912	0.914338
	H75	H	0.909997	0.371822	0.915101
	H76	H	0.087982	0.900248	0.614502
	H77	H	0.083410	0.078735	0.388179
	H78	H	0.915443	0.077811	0.614733
	H79	H	0.909394	0.896475	0.388016
	H80	H	0.611057	0.067612	0.912021
	H81	H	0.385534	0.074937	0.095660
	H82	H	0.612946	0.892086	0.093009
	H83	H	0.385261	0.889377	0.907543
	H84	H	0.608554	0.896123	0.085022
	H85	H	0.387611	0.079330	0.087758
	H86	H	0.614997	0.077162	0.906600
	H87	H	0.389657	0.891393	0.916224
	H88	H	0.905101	0.077154	0.618198
	H89	H	0.095747	0.077668	0.384470
	H90	H	0.088031	0.896437	0.615479
	H91	H	0.908150	0.897541	0.387451
	H92	H	0.091855	0.599368	0.916142
	H93	H	0.093155	0.371247	0.089123
	H94	H	0.915213	0.598153	0.092365
	H95	H	0.909463	0.370986	0.912459
	H96	H	0.407661	0.100903	0.592855
	H97	H	0.587593	0.871901	0.587211
	H98	H	0.589564	0.096347	0.424184
	H99	H	0.412174	0.871253	0.411610
	H100	H	0.595035	0.393128	0.118959
	H101	H	0.588864	0.567568	0.888835
	H102	H	0.419895	0.578360	0.115063
	H103	H	0.408032	0.390317	0.884563
	H104	H	0.111939	0.577391	0.412689
	H105	H	0.887303	0.573732	0.593506
	H106	H	0.109745	0.393235	0.587115
	H107	H	0.883970	0.392714	0.404898
	H108	H	0.911320	0.597014	0.083764
	H109	H	0.090573	0.369717	0.094319
	H110	H	0.091137	0.599747	0.912666
	H111	H	0.911788	0.372479	0.912243
	H112	H	0.090965	0.898639	0.616198
	H113	H	0.089634	0.066852	0.389788
	H114	H	0.909751	0.068568	0.613348
	H115	H	0.909040	0.898332	0.388414
	H116	H	0.612427	0.077671	0.918111
	H117	H	0.389526	0.070147	0.088613
	H118	H	0.609750	0.901558	0.093423
	H119	H	0.389125	0.898515	0.909012
	C120	C	0.377803	-0.006168	0.622611
	C121	C	0.620925	0.976594	0.622399
	C122	C	0.620346	-0.006210	0.381506
	C123	C	0.377413	0.976675	0.381289
	C124	C	0.621746	0.364235	0.009895
	C125	C	0.621565	0.604885	0.993162
	C126	C	0.378944	0.604341	0.010005
	C127	C	0.378358	0.363566	0.992661
	C128	C	0.007552	0.608268	0.379247
	C129	C	0.991485	0.607904	0.623705
	C130	C	0.006250	0.364243	0.622972
	C131	C	0.991247	0.364128	0.379672
	C132	C	0.879043	0.493393	0.121425
	C133	C	0.122093	0.476635	0.123394
	C134	C	0.121128	0.493280	0.881003
	C135	C	0.878325	0.476867	0.880105
	C136	C	0.120782	0.865332	0.509992
	C137	C	0.121090	0.107574	0.493134
	C138	C	0.877305	0.106990	0.510005
	C139	C	0.877510	0.864929	0.493307
	C140	C	0.508724	0.105845	0.879755
	C141	C	0.491151	0.107742	0.124183
	C142	C	0.507075	0.863026	0.123558
	C143	C	0.492106	0.861196	0.878663
	C144	C	0.378205	0.872151	0.679502
	C145	C	0.621201	0.097179	0.682469
	C146	C	0.622243	0.873772	0.320475
	C147	C	0.376003	0.096761	0.321269
	C148	C	0.681051	0.360422	0.889634
	C149	C	0.682384	0.608673	0.112793
	C150	C	0.319988	0.606114	0.889220
	C151	C	0.319700	0.360842	0.113231
	C152	C	0.888042	0.666230	0.378844
	C153	C	0.111089	0.666667	0.624202
	C154	C	0.887162	0.305299	0.623043
	C155	C	0.110352	0.305243	0.379495
	C156	C	0.887352	0.363047	0.681743
	C157	C	0.110763	0.608671	0.682782
	C158	C	0.887894	0.608132	0.320580
	C159	C	0.110831	0.363869	0.321805
	C160	C	0.379045	0.662506	0.888829
	C161	C	0.622779	0.664136	0.114046
	C162	C	0.621938	0.304606	0.888709
	C163	C	0.379064	0.305130	0.113595
	C164	C	0.680836	0.874286	0.377252
	C165	C	0.680765	0.096602	0.627064
	C166	C	0.317598	0.874098	0.625168
	C167	C	0.317987	0.096629	0.377990
	C168	C	0.877236	0.373360	0.181541
	C169	C	0.123170	0.597563	0.182842
	C170	C	0.121703	0.373204	0.820698
	C171	C	0.877128	0.597324	0.820919
	C172	C	0.181344	0.860573	0.390810
	C173	C	0.182162	0.112453	0.612368
	C174	C	0.814865	0.111753	0.391481
	C175	C	0.817385	0.861065	0.613165
	C176	C	0.390062	0.165972	0.877216
	C177	C	0.609544	0.168181	0.127306
	C178	C	0.389840	0.800764	0.126789
	C179	C	0.610405	0.800889	0.876288
	C180	C	0.388972	0.859942	0.184138
	C181	C	0.608559	0.111148	0.186536
	C182	C	0.389728	0.106913	0.820058
	C183	C	0.610190	0.858790	0.817723
	C184	C	0.875486	0.165938	0.389302
	C185	C	0.122224	0.168032	0.613191
	C186	C	0.122340	0.804736	0.390087
	C187	C	0.876365	0.804915	0.613733
	C188	C	0.180712	0.373374	0.876803
	C189	C	0.182821	0.596204	0.127201
	C190	C	0.818057	0.374129	0.125711
	C191	C	0.816718	0.595445	0.874905
	C192	C	0.402437	0.077680	0.598100
	C193	C	0.596322	0.893154	0.595834
	C194	C	0.594800	0.076733	0.408259
	C195	C	0.402285	0.893176	0.407140
	C196	C	0.597450	0.389949	0.093666
	C197	C	0.596110	0.578934	0.909628
	C198	C	0.402987	0.579218	0.093930
	C199	C	0.402075	0.388714	0.908376
	C200	C	0.090671	0.584282	0.403899
	C201	C	0.908899	0.583151	0.598803
	C202	C	0.089083	0.389143	0.598530
	C203	C	0.908239	0.388657	0.403567
	C204	C	0.903982	0.577062	0.096062
	C205	C	0.097306	0.392700	0.098328
	C206	C	0.097361	0.577264	0.906846
	C207	C	0.903319	0.393527	0.906041
	C208	C	0.096035	0.891032	0.593698
	C209	C	0.096738	0.081705	0.409334
	C210	C	0.902854	0.081751	0.593731
	C211	C	0.901914	0.890171	0.409662
	C212	C	0.591278	0.081278	0.904944
	C213	C	0.409134	0.082306	0.098184
	C214	C	0.588994	0.889190	0.097865
	C215	C	0.409680	0.885997	0.903758
	Zn216	Zn	0.499728	-0.015969	0.750099
	Zn217	Zn	0.498428	-0.014474	0.253360
	Zn218	Zn	0.750514	0.484564	0.000829
	Zn219	Zn	0.249700	0.483733	0.001570
	Zn220	Zn	-0.000608	0.737685	0.501605
	Zn221	Zn	-0.001660	0.234571	0.501089
	Zn222	Zn	-0.001098	0.485894	0.753124
	Zn223	Zn	-0.000508	0.485690	0.250363
	Zn224	Zn	0.500391	0.732941	0.001858
	Zn225	Zn	0.500604	0.236171	0.000759
	Zn226	Zn	0.749583	-0.014177	0.502447
	Zn227	Zn	0.249170	-0.014165	0.501475
	N228	N	0.414970	0.947760	0.678114
	N229	N	0.584830	0.021452	0.679726
	N230	N	0.585339	0.949241	0.322889
	N231	N	0.412164	0.021031	0.323171
	N232	N	0.681129	0.396661	0.965898
	N233	N	0.681934	0.572893	0.036386
	N234	N	0.319552	0.570937	0.965656
	N235	N	0.318923	0.396197	0.036627
	N236	N	0.963477	0.666584	0.414362
	N237	N	0.035720	0.666751	0.588501
	N238	N	0.962205	0.306028	0.587113
	N239	N	0.034890	0.305226	0.414457
	N240	N	0.962479	0.398901	0.681875
	N241	N	0.035525	0.573242	0.682778
	N242	N	0.963268	0.572937	0.320637
	N243	N	0.035722	0.399719	0.321738
	N244	N	0.414578	0.661760	0.965092
	N245	N	0.585941	0.662129	0.038504
	N246	N	0.585791	0.306877	0.964501
	N247	N	0.414659	0.306673	0.037634
	N248	N	0.679939	0.950083	0.414201
	N249	N	0.680696	0.020643	0.590621
	N250	N	0.317113	0.950903	0.590755
	N251	N	0.318594	0.020874	0.414308
	N252	N	0.914678	0.448494	0.178848
	N253	N	0.086236	0.522140	0.180700
	N254	N	0.085194	0.448755	0.823386
	N255	N	0.915046	0.522603	0.824302
	N256	N	0.180230	0.897892	0.466437
	N257	N	0.181414	0.075275	0.536699
	N258	N	0.816161	0.075587	0.467625
	N259	N	0.817971	0.897762	0.537374
	N260	N	0.465029	0.165458	0.913581
	N261	N	0.535500	0.166331	0.089223
	N262	N	0.464314	0.802642	0.089827
	N263	N	0.536119	0.802465	0.913583
	N264	N	0.463044	0.897835	0.182585
	N265	N	0.534089	0.074087	0.184758
	N266	N	0.464238	0.069980	0.821680
	N267	N	0.535608	0.895516	0.819006
	N268	N	0.913596	0.163043	0.464094
	N269	N	0.084955	0.164981	0.538023
	N270	N	0.085132	0.807775	0.465211
	N271	N	0.913042	0.807139	0.538235
	N272	N	0.180287	0.449070	0.913907
	N273	N	0.182192	0.520138	0.090826
	N274	N	0.819147	0.449832	0.089005
	N275	N	0.817383	0.519523	0.911175
	O276	O	0.533894	0.365239	0.331558
	H277	H	0.532887	0.354626	0.338231
	H278	H	0.546786	0.377057	0.326075
	O279	O	0.610860	0.425100	0.416426
	H280	H	0.605791	0.430435	0.417540
	H281	H	0.608627	0.428154	0.416978
	O282	O	0.341461	0.455764	0.542791
	H283	H	0.349960	0.460606	0.551951
	H284	H	0.330238	0.456212	0.542279
	O285	O	1.206976	0.001085	0.204305
	H286	H	1.220413	0.011358	0.194354
	H287	H	1.217876	-0.004121	0.211492
	O288	O	0.555876	0.437911	0.620455
	H289	H	0.556115	0.432378	0.622916
	H290	H	0.568438	0.438731	0.595674
	O291	O	0.344636	0.488443	0.565320
	H292	H	0.342312	0.505730	0.565075
	H293	H	0.346876	0.507165	0.573045
	O294	O	0.566462	0.451039	0.465836
	H295	H	0.579242	0.454794	0.473502
	H296	H	0.563712	0.436526	0.473494
	O297	O	0.967521	0.775970	1.046573
	H298	H	0.988038	0.765759	1.048077
	H299	H	0.981472	0.765567	1.059998
	O300	O	-0.562496	0.504244	-0.406652
	H301	H	-0.561562	0.491161	-0.389053
	H302	H	-0.553060	0.501665	-0.411189
	O303	O	0.533903	0.532231	0.437177
	H304	H	0.541691	0.537267	0.448844
	H305	H	0.534730	0.526302	0.430194
	O306	O	0.899883	-0.024975	-0.204839
	H307	H	0.903950	-0.047448	-0.195549
	H308	H	0.886716	-0.021866	-0.201294
	O309	O	0.471484	0.370906	0.527385
	H310	H	0.463889	0.366466	0.525635
	H311	H	0.452925	0.387422	0.535250
	O312	O	1.007877	1.189231	0.185403
	H313	H	0.996485	1.188915	0.183290
	H314	H	0.987005	1.183600	0.191128
	O315	O	1.180218	1.162762	0.183387
	H316	H	1.168704	1.160283	0.177478
	H317	H	1.151892	1.150375	0.193423
	O318	O	0.532951	0.490823	0.467930
	H319	H	0.529633	0.490648	0.454707
	H320	H	0.526941	0.483846	0.457340
	O321	O	1.073243	-0.148229	1.012758
	H322	H	1.074449	-0.139693	0.998119
	H323	H	1.087122	-0.143962	1.006328
	O324	O	-0.142670	-0.229310	1.092956
	H325	H	-0.143591	-0.239384	1.110948
	H326	H	-0.121574	-0.239572	1.099914
	O327	O	0.445770	0.375112	0.500549
	H328	H	0.449101	0.374512	0.507284
	H329	H	0.431223	0.377850	0.505458
	O330	O	0.447739	0.472932	0.615533
	H331	H	0.457256	0.469588	0.624022
	H332	H	0.443623	0.473925	0.605952
	O333	O	0.924001	1.112195	0.995243
	H334	H	0.921281	1.099468	1.001487
	H335	H	0.912855	1.125510	0.978170
	O336	O	0.397713	0.516333	0.388488
	H337	H	0.391899	0.503335	0.395868
	H338	H	0.401512	0.521320	0.386228
	O339	O	1.039920	-0.101447	1.048955
	H340	H	1.053272	-0.112510	1.056107
	H341	H	1.041179	-0.088662	1.044987
	O342	O	-0.222650	0.868862	0.978052
	H343	H	-0.228497	0.864636	0.983837
	H344	H	-0.233001	0.850282	1.001778
	O345	O	-0.116709	0.788120	1.059392
	H346	H	-0.099787	0.802321	1.072605
	H347	H	-0.102319	0.815249	1.080009
	O348	O	0.406976	0.544888	0.448613
	H349	H	0.400200	0.538682	0.447753
	H350	H	0.415796	0.549097	0.450232
	O351	O	-0.145597	0.055693	0.118312
	H352	H	-0.147758	0.058787	0.113636
	H353	H	-0.148260	0.084567	0.105304
	O354	O	0.782996	0.967026	0.216748
	H355	H	0.762276	0.947822	0.230546
	H356	H	0.774032	0.967767	0.209910
	O357	O	0.064653	0.787983	-0.193345
	H358	H	0.046435	0.786310	-0.156054
	H359	H	0.062661	0.777740	-0.208490
	O360	O	0.542710	0.496217	0.569475
	H361	H	0.546091	0.484645	0.576245
	H362	H	0.544698	0.489154	0.562670
	O363	O	0.576873	0.435711	0.486497
	H364	H	0.579861	0.431679	0.477927
	H365	H	0.573412	0.442214	0.502503
	O366	O	0.374497	0.588310	0.473896
	H367	H	0.374478	0.582030	0.477374
	H368	H	0.369897	0.590250	0.478502
	O369	O	-0.020281	1.180649	-0.188577
	H370	H	0.001032	1.178923	-0.165220
	H371	H	-0.017176	1.194033	-0.200229
	O372	O	0.519102	0.549676	0.497021
	H373	H	0.516326	0.546770	0.502375
	H374	H	0.517470	0.547608	0.491473
	O375	O	0.656063	0.538586	0.574029
	H376	H	0.662986	0.530972	0.578636
	H377	H	0.656101	0.535323	0.567348
	O378	O	0.149067	1.044804	0.007963
	H379	H	0.164019	1.037786	0.011361
	H380	H	0.153213	1.043098	0.017657
	O381	O	0.501089	0.370510	0.513503
	H382	H	0.502442	0.367349	0.514296
	H383	H	0.498485	0.363671	0.504400
	O384	O	0.516988	0.566321	0.488762
	H385	H	0.518027	0.568646	0.482064
	H386	H	0.511195	0.565285	0.481414
	O387	O	1.169266	0.819350	-0.067611
	H388	H	1.191794	0.794743	-0.071521
	H389	H	1.163583	0.822520	-0.107039
	O390	O	0.547862	0.536910	0.448789
	H391	H	0.546513	0.532582	0.452485
	H392	H	0.549088	0.531078	0.454099
	O393	O	1.052513	-0.025695	0.968902
	H394	H	1.052849	-0.015428	0.974932
	H395	H	1.053348	-0.017741	0.976899
	O396	O	-0.125879	0.923698	1.186327
	H397	H	-0.111646	0.910860	1.192268
	H398	H	-0.129678	0.919464	1.153401
	O399	O	-0.182319	1.154006	0.828509
	H400	H	-0.185291	1.116315	0.817955
	H401	H	-0.148559	1.165823	0.826541
	O402	O	1.024137	-0.047770	1.199498
	H403	H	1.014341	-0.032047	1.197303
	H404	H	1.028781	-0.033648	1.203711
	O405	O	-0.211190	-0.022835	-0.149660
	H406	H	-0.211673	-0.026936	-0.167872
	H407	H	-0.214929	-0.032516	-0.138503
	O408	O	1.540472	1.607159	1.457710
	H409	H	1.528545	1.599128	1.449129
	H410	H	1.537828	1.629489	1.457484
	O411	O	1.022246	1.100861	-0.075500
	H412	H	0.988374	1.093213	-0.083743
	H413	H	1.027208	1.109838	-0.063090
	O414	O	0.082020	0.048544	1.001902
	H415	H	0.085965	0.047191	1.008842
	H416	H	0.086120	0.041151	0.999623
	O417	O	0.181428	0.015866	0.927200
	H418	H	0.167570	0.003060	0.930279
	H419	H	0.188399	0.015034	0.903795
	O420	O	0.211550	1.202370	0.024675
	H421	H	0.210306	1.181268	0.048151
	H422	H	0.242574	1.230814	0.030331
	O423	O	0.796525	0.158197	0.018150
	H424	H	0.777724	0.169208	0.023933
	H425	H	0.800308	0.144749	-0.019846
	O426	O	0.166523	-0.025941	0.797146
	H427	H	0.138852	-0.016308	0.794581
	H428	H	0.181780	-0.029878	0.781326
	O429	O	1.187608	0.795623	0.857327
	H430	H	1.146393	0.790627	0.848639
	H431	H	1.187753	0.822611	0.852761
