data_Molecule from HDF5

_cell_length_a		16.339862
_cell_length_b		16.315013
_cell_length_c		16.331856
_cell_angle_alpha	90.061619
_cell_angle_beta	90.025673
_cell_angle_gamma	90.043052
_symmetry_space_group_name_H-M	'P 1'
_symmetry_Int_Tables_number		1

loop_
	_symmetry_equiv_pos_as_xyz
	x,y,z

loop_
	_atom_site_label
	_atom_site_type_symbol
	_atom_site_fract_x
	_atom_site_fract_y
	_atom_site_fract_z
	H0	H	0.402324	0.836747	0.713722
	H1	H	0.598801	0.163367	0.715501
	H2	H	0.597262	0.837159	0.285597
	H3	H	0.403342	0.164622	0.286905
	H4	H	0.715489	0.400593	0.836983
	H5	H	0.713787	0.598157	0.163291
	H6	H	0.284600	0.598779	0.837445
	H7	H	0.285287	0.402013	0.163306
	H8	H	0.836534	0.713630	0.402203
	H9	H	0.162806	0.715164	0.598404
	H10	H	0.836652	0.284836	0.598004
	H11	H	0.163620	0.285082	0.401990
	H12	H	0.835825	0.402860	0.713194
	H13	H	0.163112	0.598337	0.714593
	H14	H	0.836657	0.596484	0.286067
	H15	H	0.163156	0.401220	0.284781
	H16	H	0.401654	0.714663	0.836813
	H17	H	0.596112	0.713607	0.163341
	H18	H	0.599052	0.284365	0.837746
	H19	H	0.402925	0.286281	0.163757
	H20	H	0.712716	0.836474	0.402143
	H21	H	0.715230	0.163119	0.598306
	H22	H	0.284532	0.837180	0.599132
	H23	H	0.284566	0.163235	0.401212
	H24	H	0.901661	0.336004	0.214171
	H25	H	0.097564	0.663116	0.214094
	H26	H	0.097698	0.336723	0.785431
	H27	H	0.901505	0.663157	0.785215
	H28	H	0.214919	0.900741	0.336836
	H29	H	0.214490	0.098226	0.662984
	H30	H	0.786001	0.097679	0.336284
	H31	H	0.785848	0.902841	0.663395
	H32	H	0.337026	0.215179	0.901946
	H33	H	0.662812	0.215552	0.099087
	H34	H	0.337308	0.784933	0.098299
	H35	H	0.663033	0.785906	0.901883
	H36	H	0.337114	0.902186	0.214354
	H37	H	0.663310	0.099193	0.214353
	H38	H	0.336897	0.098892	0.785561
	H39	H	0.663710	0.902085	0.785931
	H40	H	0.901820	0.214050	0.336717
	H41	H	0.097824	0.213843	0.663221
	H42	H	0.096972	0.785957	0.336366
	H43	H	0.902316	0.786631	0.663399
	H44	H	0.214508	0.336434	0.900943
	H45	H	0.214090	0.663220	0.097653
	H46	H	0.785284	0.336642	0.097857
	H47	H	0.785578	0.662775	0.901695
	H48	H	0.407350	0.114851	0.590485
	H49	H	0.600390	0.883414	0.589544
	H50	H	0.586681	0.113294	0.410340
	H51	H	0.407615	0.883878	0.405493
	H52	H	0.590454	0.412832	0.113466
	H53	H	0.586663	0.588553	0.887084
	H54	H	0.407520	0.595256	0.116344
	H55	H	0.409616	0.400643	0.882857
	H56	H	0.114015	0.592408	0.412243
	H57	H	0.884047	0.592580	0.594106
	H58	H	0.119438	0.395653	0.596106
	H59	H	0.883016	0.400751	0.409308
	H60	H	0.111493	0.408966	0.582862
	H61	H	0.883957	0.594634	0.593267
	H62	H	0.115951	0.588660	0.402487
	H63	H	0.887375	0.411743	0.410730
	H64	H	0.404777	0.591113	0.116139
	H65	H	0.592911	0.602489	0.881058
	H66	H	0.589977	0.401914	0.116929
	H67	H	0.400072	0.408324	0.882401
	H68	H	0.601929	0.118128	0.411649
	H69	H	0.593352	0.881851	0.600550
	H70	H	0.404028	0.117074	0.594501
	H71	H	0.407881	0.884717	0.408432
	H72	H	0.902794	0.617961	0.095974
	H73	H	0.095255	0.384169	0.087462
	H74	H	0.093535	0.613301	0.916263
	H75	H	0.902688	0.381812	0.903643
	H76	H	0.093150	0.911667	0.614161
	H77	H	0.088229	0.090355	0.386003
	H78	H	0.904697	0.085194	0.613721
	H79	H	0.900074	0.897434	0.379453
	H80	H	0.612386	0.091517	0.915131
	H81	H	0.387273	0.088670	0.088872
	H82	H	0.614193	0.909422	0.090605
	H83	H	0.383712	0.911614	0.902107
	H84	H	0.616918	0.908465	0.097620
	H85	H	0.381945	0.091100	0.101445
	H86	H	0.614697	0.086232	0.902913
	H87	H	0.382156	0.901292	0.906062
	H88	H	0.914311	0.095523	0.614223
	H89	H	0.093305	0.097252	0.382297
	H90	H	0.089722	0.905037	0.615592
	H91	H	0.900270	0.916072	0.385096
	H92	H	0.101044	0.618998	0.901933
	H93	H	0.096304	0.381523	0.096514
	H94	H	0.910752	0.615567	0.097492
	H95	H	0.912897	0.384990	0.903645
	H96	H	0.409150	0.116006	0.595163
	H97	H	0.587633	0.886319	0.589614
	H98	H	0.593856	0.119673	0.398026
	H99	H	0.405186	0.884421	0.406907
	H100	H	0.599831	0.407942	0.117652
	H101	H	0.602106	0.588926	0.882630
	H102	H	0.409480	0.591260	0.114428
	H103	H	0.411000	0.411901	0.887187
	H104	H	0.118138	0.599082	0.405100
	H105	H	0.884355	0.592551	0.591601
	H106	H	0.115388	0.414650	0.602018
	H107	H	0.883076	0.407473	0.400503
	H108	H	0.907161	0.614420	0.089307
	H109	H	0.087912	0.385272	0.093391
	H110	H	0.084445	0.614787	0.901792
	H111	H	0.906842	0.385766	0.912482
	H112	H	0.096431	0.905849	0.617276
	H113	H	0.096960	0.088822	0.383779
	H114	H	0.900942	0.098089	0.619020
	H115	H	0.916907	0.905115	0.386329
	H116	H	0.618353	0.098985	0.905828
	H117	H	0.381913	0.101179	0.092241
	H118	H	0.617064	0.903403	0.092397
	H119	H	0.386443	0.909625	0.912627
	C120	C	0.378429	0.008377	0.621711
	C121	C	0.621807	0.992037	0.621625
	C122	C	0.621564	0.008678	0.378638
	C123	C	0.378806	0.992501	0.378512
	C124	C	0.621725	0.378689	0.008348
	C125	C	0.621828	0.621644	0.991618
	C126	C	0.378495	0.621498	0.008302
	C127	C	0.378439	0.378495	0.992069
	C128	C	0.008146	0.621466	0.378204
	C129	C	0.991688	0.621839	0.621601
	C130	C	0.007623	0.378157	0.621671
	C131	C	0.992222	0.377878	0.378270
	C132	C	0.878196	0.507796	0.121981
	C133	C	0.121600	0.491435	0.121064
	C134	C	0.121682	0.508127	0.878187
	C135	C	0.878691	0.491832	0.878655
	C136	C	0.121375	0.878674	0.508021
	C137	C	0.121142	0.120684	0.491444
	C138	C	0.878484	0.121316	0.508012
	C139	C	0.878110	0.878408	0.491849
	C140	C	0.508251	0.121687	0.878617
	C141	C	0.491682	0.121774	0.122049
	C142	C	0.508339	0.878457	0.121811
	C143	C	0.491826	0.878720	0.878348
	C144	C	0.381763	0.885391	0.676068
	C145	C	0.619318	0.114652	0.677351
	C146	C	0.618135	0.885825	0.323694
	C147	C	0.381846	0.115347	0.323824
	C148	C	0.677120	0.380524	0.885706
	C149	C	0.676028	0.618708	0.114597
	C150	C	0.322881	0.619302	0.885802
	C151	C	0.323513	0.381165	0.114714
	C152	C	0.885146	0.675657	0.381731
	C153	C	0.114361	0.676981	0.619018
	C154	C	0.885027	0.323040	0.618259
	C155	C	0.115026	0.323157	0.381342
	C156	C	0.884831	0.381246	0.676068
	C157	C	0.114442	0.619079	0.676696
	C158	C	0.885304	0.617821	0.323914
	C159	C	0.114693	0.380781	0.323179
	C160	C	0.381168	0.676516	0.885396
	C161	C	0.617981	0.676260	0.114651
	C162	C	0.619634	0.322466	0.885938
	C163	C	0.381668	0.323687	0.114908
	C164	C	0.675467	0.885453	0.381424
	C165	C	0.677062	0.114779	0.619405
	C166	C	0.323319	0.885533	0.618958
	C167	C	0.323156	0.114901	0.380794
	C168	C	0.880900	0.384870	0.176454
	C169	C	0.118560	0.614288	0.176182
	C170	C	0.118715	0.385357	0.822990
	C171	C	0.881236	0.614449	0.823667
	C172	C	0.176411	0.880790	0.385206
	C173	C	0.176409	0.118568	0.614454
	C174	C	0.823859	0.118333	0.384992
	C175	C	0.823329	0.881516	0.614580
	C176	C	0.385481	0.176973	0.881218
	C177	C	0.614375	0.177166	0.119138
	C178	C	0.385801	0.823177	0.118901
	C179	C	0.614632	0.823699	0.881203
	C180	C	0.385885	0.880992	0.176913
	C181	C	0.614354	0.119594	0.176778
	C182	C	0.385501	0.119338	0.823479
	C183	C	0.614601	0.881634	0.823669
	C184	C	0.881583	0.175840	0.385025
	C185	C	0.118303	0.175577	0.614685
	C186	C	0.117796	0.823930	0.385087
	C187	C	0.881084	0.823729	0.614519
	C188	C	0.176687	0.385344	0.880401
	C189	C	0.176366	0.614405	0.118582
	C190	C	0.823027	0.385206	0.118838
	C191	C	0.823294	0.614395	0.881147
	C192	C	0.400145	0.093995	0.599857
	C193	C	0.600170	0.906137	0.599654
	C194	C	0.600526	0.094806	0.400375
	C195	C	0.400528	0.906554	0.400509
	C196	C	0.599971	0.401086	0.093930
	C197	C	0.600295	0.599822	0.905751
	C198	C	0.400754	0.599206	0.093630
	C199	C	0.400522	0.400552	0.906317
	C200	C	0.093915	0.599777	0.400130
	C201	C	0.906128	0.599696	0.599469
	C202	C	0.093519	0.399965	0.599860
	C203	C	0.906585	0.400046	0.400349
	C204	C	0.900260	0.593805	0.100523
	C205	C	0.099518	0.405560	0.098888
	C206	C	0.099577	0.593760	0.900223
	C207	C	0.900770	0.406219	0.900463
	C208	C	0.099504	0.901035	0.593526
	C209	C	0.099244	0.098659	0.406171
	C210	C	0.900326	0.099505	0.593537
	C211	C	0.899480	0.899921	0.405844
	C212	C	0.593331	0.098967	0.901253
	C213	C	0.405841	0.100006	0.100584
	C214	C	0.594088	0.900681	0.099832
	C215	C	0.406102	0.900833	0.900434
	Zn216	Zn	0.499976	0.000337	0.749770
	Zn217	Zn	0.500360	0.000764	0.250247
	Zn218	Zn	0.750284	0.500114	-0.000008
	Zn219	Zn	0.249813	0.499834	-0.000325
	Zn220	Zn	0.000080	0.750404	0.500119
	Zn221	Zn	0.000225	0.249447	0.499920
	Zn222	Zn	-0.000269	0.499886	0.749830
	Zn223	Zn	0.000013	0.499511	0.249905
	Zn224	Zn	0.500018	0.750067	-0.000142
	Zn225	Zn	0.499880	0.249944	0.000301
	Zn226	Zn	0.750020	0.000323	0.499681
	Zn227	Zn	0.250033	-0.000176	0.499899
	N228	N	0.415331	0.962683	0.677668
	N229	N	0.585822	0.037209	0.678748
	N230	N	0.585311	0.963430	0.321854
	N231	N	0.415643	0.038058	0.322371
	N232	N	0.678336	0.415092	0.962695
	N233	N	0.678454	0.585541	0.037158
	N234	N	0.321438	0.585582	0.962987
	N235	N	0.321546	0.414685	0.037522
	N236	N	0.962534	0.677892	0.415033
	N237	N	0.037328	0.678522	0.585306
	N238	N	0.962451	0.321145	0.585308
	N239	N	0.037786	0.321278	0.414792
	N240	N	0.962148	0.414730	0.678156
	N241	N	0.037151	0.585409	0.678497
	N242	N	0.962637	0.584765	0.321747
	N243	N	0.037355	0.413996	0.321269
	N244	N	0.415137	0.678065	0.962478
	N245	N	0.585138	0.678440	0.037222
	N246	N	0.585806	0.321351	0.962905
	N247	N	0.415125	0.322129	0.037554
	N248	N	0.677731	0.962823	0.414960
	N249	N	0.678750	0.037625	0.585443
	N250	N	0.321075	0.962882	0.585842
	N251	N	0.321220	0.037563	0.414125
	N252	N	0.914514	0.462206	0.178391
	N253	N	0.085186	0.536813	0.177755
	N254	N	0.085118	0.462593	0.821513
	N255	N	0.914996	0.537339	0.821932
	N256	N	0.178549	0.914314	0.462527
	N257	N	0.178304	0.085204	0.537061
	N258	N	0.821819	0.085040	0.462333
	N259	N	0.821559	0.914887	0.537312
	N260	N	0.462663	0.178703	0.914831
	N261	N	0.537077	0.178606	0.085704
	N262	N	0.463091	0.821528	0.085376
	N263	N	0.537146	0.821539	0.914431
	N264	N	0.463000	0.914699	0.178592
	N265	N	0.537326	0.085744	0.178478
	N266	N	0.462580	0.085479	0.822051
	N267	N	0.537435	0.915154	0.822026
	N268	N	0.914891	0.177690	0.462295
	N269	N	0.084839	0.177360	0.537460
	N270	N	0.084282	0.822561	0.462348
	N271	N	0.914208	0.821561	0.537180
	N272	N	0.178311	0.462563	0.914151
	N273	N	0.178169	0.537093	0.084945
	N274	N	0.821422	0.462620	0.085580
	N275	N	0.821754	0.537177	0.914593
