data_Molecule from HDF5

_cell_length_a		16.156742
_cell_length_b		16.474961
_cell_length_c		16.218806
_cell_angle_alpha	89.802260
_cell_angle_beta	89.770673
_cell_angle_gamma	89.530196
_symmetry_space_group_name_H-M	'P 1'
_symmetry_Int_Tables_number		1

loop_
	_symmetry_equiv_pos_as_xyz
	x,y,z

loop_
	_atom_site_label
	_atom_site_type_symbol
	_atom_site_fract_x
	_atom_site_fract_y
	_atom_site_fract_z
	H0	H	0.399937	0.838057	0.705832
	H1	H	0.598542	0.160776	0.703709
	H2	H	0.601599	0.836273	0.271961
	H3	H	0.397924	0.159338	0.269414
	H4	H	0.716235	0.400471	0.825461
	H5	H	0.708093	0.593441	0.154570
	H6	H	0.286514	0.598388	0.823696
	H7	H	0.286637	0.404536	0.153322
	H8	H	0.835989	0.718886	0.386937
	H9	H	0.161894	0.715962	0.589747
	H10	H	0.836208	0.284210	0.592019
	H11	H	0.161388	0.281385	0.383337
	H12	H	0.834998	0.403077	0.703839
	H13	H	0.163804	0.597041	0.701529
	H14	H	0.833247	0.600994	0.275849
	H15	H	0.163571	0.402870	0.273591
	H16	H	0.396383	0.717289	0.825715
	H17	H	0.598534	0.714836	0.151671
	H18	H	0.605538	0.279950	0.826804
	H19	H	0.394909	0.280631	0.150243
	H20	H	0.718109	0.836802	0.389256
	H21	H	0.713408	0.160860	0.586338
	H22	H	0.284068	0.837321	0.588280
	H23	H	0.281347	0.160213	0.387253
	H24	H	0.899467	0.339803	0.207762
	H25	H	0.094409	0.663848	0.201684
	H26	H	0.103381	0.338963	0.770188
	H27	H	0.897457	0.661817	0.771361
	H28	H	0.214188	0.901784	0.323285
	H29	H	0.210542	0.095545	0.651964
	H30	H	0.784215	0.099350	0.324002
	H31	H	0.785443	0.902467	0.652667
	H32	H	0.337076	0.218503	0.884931
	H33	H	0.661259	0.215627	0.092649
	H34	H	0.335001	0.783578	0.090274
	H35	H	0.662349	0.780575	0.885612
	H36	H	0.334650	0.900360	0.203208
	H37	H	0.663575	0.092959	0.200141
	H38	H	0.334628	0.098478	0.775692
	H39	H	0.664713	0.900567	0.774452
	H40	H	0.892816	0.222141	0.326601
	H41	H	0.103014	0.218578	0.649040
	H42	H	0.101993	0.782879	0.324535
	H43	H	0.896313	0.781804	0.650505
	H44	H	0.218052	0.338851	0.888161
	H45	H	0.213198	0.663023	0.086259
	H46	H	0.783918	0.338328	0.091052
	H47	H	0.781903	0.662006	0.890674
	H48	H	0.404314	0.113250	0.579425
	H49	H	0.597642	0.883937	0.578259
	H50	H	0.588873	0.111817	0.395325
	H51	H	0.415081	0.886237	0.393491
	H52	H	0.592793	0.398089	0.107532
	H53	H	0.592021	0.587002	0.873013
	H54	H	0.403656	0.592886	0.106185
	H55	H	0.408165	0.411042	0.872403
	H56	H	0.116742	0.580895	0.383094
	H57	H	0.881134	0.592773	0.583813
	H58	H	0.113281	0.411472	0.572977
	H59	H	0.880940	0.405934	0.399952
	H60	H	0.117164	0.408604	0.584190
	H61	H	0.881598	0.596604	0.577328
	H62	H	0.122032	0.608798	0.390659
	H63	H	0.884234	0.412558	0.403530
	H64	H	0.407751	0.592141	0.105720
	H65	H	0.584537	0.593350	0.873045
	H66	H	0.594097	0.411209	0.105040
	H67	H	0.414444	0.407426	0.873930
	H68	H	0.592678	0.113139	0.393866
	H69	H	0.591912	0.883598	0.585914
	H70	H	0.402802	0.114183	0.581716
	H71	H	0.404054	0.885677	0.403631
	H72	H	0.903533	0.616040	0.084543
	H73	H	0.092392	0.389232	0.072685
	H74	H	0.090458	0.612317	0.900763
	H75	H	0.909273	0.389387	0.904958
	H76	H	0.085731	0.910948	0.601327
	H77	H	0.080377	0.092172	0.374104
	H78	H	0.905675	0.090513	0.604090
	H79	H	0.906773	0.902593	0.369018
	H80	H	0.611232	0.076189	0.901893
	H81	H	0.380745	0.093269	0.080319
	H82	H	0.619140	0.907903	0.091096
	H83	H	0.380099	0.906133	0.891512
	H84	H	0.617981	0.891798	0.072311
	H85	H	0.383058	0.093393	0.073575
	H86	H	0.621390	0.091916	0.880671
	H87	H	0.382555	0.902736	0.901506
	H88	H	0.910647	0.093164	0.602885
	H89	H	0.091954	0.100494	0.366978
	H90	H	0.086640	0.898363	0.604846
	H91	H	0.906980	0.914931	0.372811
	H92	H	0.097022	0.616146	0.893017
	H93	H	0.100937	0.383185	0.085797
	H94	H	0.905521	0.614234	0.080845
	H95	H	0.901379	0.382715	0.894003
	H96	H	0.405660	0.114282	0.582169
	H97	H	0.589045	0.886908	0.577453
	H98	H	0.589616	0.111986	0.390568
	H99	H	0.402218	0.880849	0.390157
	H100	H	0.581636	0.405047	0.102755
	H101	H	0.593920	0.595742	0.870067
	H102	H	0.407558	0.596046	0.106032
	H103	H	0.408640	0.404157	0.870789
	H104	H	0.111161	0.590258	0.410866
	H105	H	0.883472	0.589671	0.577318
	H106	H	0.117330	0.400407	0.575769
	H107	H	0.881845	0.412938	0.395233
	H108	H	0.900933	0.615366	0.080514
	H109	H	0.084391	0.387603	0.087444
	H110	H	0.086409	0.614948	0.890508
	H111	H	0.915429	0.386462	0.891385
	H112	H	0.097153	0.906256	0.606784
	H113	H	0.094521	0.085543	0.371997
	H114	H	0.905518	0.095745	0.605163
	H115	H	0.917297	0.907263	0.374481
	H116	H	0.617759	0.102563	0.906300
	H117	H	0.383614	0.087275	0.077899
	H118	H	0.609499	0.914845	0.068813
	H119	H	0.384683	0.913036	0.898746
	C120	C	0.376101	0.007289	0.610368
	C121	C	0.621532	0.991318	0.609788
	C122	C	0.622144	0.006046	0.364545
	C123	C	0.377116	0.990477	0.365604
	C124	C	0.621299	0.376030	-0.002523
	C125	C	0.619137	0.620090	0.980094
	C126	C	0.377366	0.622075	-0.002914
	C127	C	0.379117	0.378447	0.979937
	C128	C	0.007724	0.622624	0.366428
	C129	C	0.990233	0.621160	0.608889
	C130	C	0.008087	0.378362	0.609143
	C131	C	0.990500	0.379916	0.367507
	C132	C	0.875542	0.508631	0.112281
	C133	C	0.120372	0.493244	0.110113
	C134	C	0.122243	0.508145	0.865534
	C135	C	0.877695	0.492533	0.867137
	C136	C	0.120704	0.876701	0.496206
	C137	C	0.118986	0.121038	0.479051
	C138	C	0.876882	0.122978	0.496377
	C139	C	0.879430	0.878924	0.480009
	C140	C	0.508278	0.120556	0.866591
	C141	C	0.490344	0.119294	0.108258
	C142	C	0.507340	0.876520	0.108341
	C143	C	0.490970	0.877770	0.867040
	C144	C	0.379237	0.886102	0.667085
	C145	C	0.618609	0.112494	0.665258
	C146	C	0.621756	0.884874	0.309517
	C147	C	0.377907	0.111543	0.308332
	C148	C	0.678624	0.379175	0.874651
	C149	C	0.672455	0.615854	0.104673
	C150	C	0.323111	0.619165	0.873215
	C151	C	0.323324	0.382335	0.103600
	C152	C	0.884465	0.679869	0.367710
	C153	C	0.113487	0.676986	0.608474
	C154	C	0.885140	0.322442	0.610874
	C155	C	0.112770	0.321201	0.365097
	C156	C	0.884651	0.381464	0.666672
	C157	C	0.114488	0.617883	0.663911
	C158	C	0.883227	0.621507	0.312162
	C159	C	0.113887	0.381820	0.310888
	C160	C	0.377935	0.678397	0.874308
	C161	C	0.618066	0.676176	0.103118
	C162	C	0.623265	0.319521	0.875114
	C163	C	0.377671	0.321023	0.102230
	C164	C	0.679543	0.885123	0.368084
	C165	C	0.675884	0.112701	0.606840
	C166	C	0.321603	0.885668	0.608513
	C167	C	0.319847	0.111933	0.366822
	C168	C	0.878696	0.387605	0.169281
	C169	C	0.116128	0.615195	0.164266
	C170	C	0.122263	0.386974	0.809321
	C171	C	0.878129	0.613525	0.810609
	C172	C	0.176726	0.880407	0.372668
	C173	C	0.174407	0.117591	0.602326
	C174	C	0.821615	0.120528	0.373077
	C175	C	0.822902	0.881276	0.603113
	C176	C	0.385700	0.178935	0.866554
	C177	C	0.612832	0.176013	0.110084
	C178	C	0.384028	0.821613	0.108976
	C179	C	0.613945	0.820144	0.867049
	C180	C	0.383857	0.879840	0.165053
	C181	C	0.614048	0.115420	0.164056
	C182	C	0.384436	0.119131	0.812012
	C183	C	0.615025	0.879628	0.811510
	C184	C	0.875542	0.181601	0.374535
	C185	C	0.120469	0.178545	0.600877
	C186	C	0.121047	0.821064	0.373322
	C187	C	0.877852	0.821211	0.602143
	C188	C	0.179420	0.386883	0.868016
	C189	C	0.174940	0.615143	0.106566
	C190	C	0.821617	0.386813	0.110745
	C191	C	0.820426	0.613559	0.869794
	C192	C	0.397819	0.091875	0.587769
	C193	C	0.599369	0.906647	0.587138
	C194	C	0.597549	0.090666	0.386732
	C195	C	0.400382	0.906132	0.388896
	C196	C	0.596732	0.398226	0.082759
	C197	C	0.596756	0.598457	0.894390
	C198	C	0.399719	0.600157	0.083699
	C199	C	0.403413	0.400925	0.894437
	C200	C	0.094196	0.599708	0.388313
	C201	C	0.904422	0.599402	0.586110
	C202	C	0.093640	0.400388	0.584739
	C203	C	0.904577	0.403606	0.392531
	C204	C	0.897031	0.593394	0.088905
	C205	C	0.098927	0.408731	0.088344
	C206	C	0.098226	0.592564	0.888093
	C207	C	0.901678	0.407919	0.890112
	C208	C	0.096843	0.898699	0.582147
	C209	C	0.095777	0.099138	0.393313
	C210	C	0.900387	0.099876	0.581933
	C211	C	0.903469	0.901544	0.394292
	C212	C	0.594336	0.097088	0.889557
	C213	C	0.404772	0.097584	0.084349
	C214	C	0.593190	0.898298	0.084473
	C215	C	0.404937	0.900714	0.890296
	Zn216	Zn	0.499412	-0.000785	0.739170
	Zn217	Zn	0.499242	-0.002396	0.235754
	Zn218	Zn	0.747442	0.499337	-0.010160
	Zn219	Zn	0.250792	0.500558	-0.011990
	Zn220	Zn	-0.000458	0.749065	0.487490
	Zn221	Zn	-0.001211	0.250852	0.487582
	Zn222	Zn	-0.000077	0.500130	0.736698
	Zn223	Zn	-0.001876	0.501582	0.240132
	Zn224	Zn	0.497965	0.748872	-0.012047
	Zn225	Zn	0.500076	0.248064	-0.011987
	Zn226	Zn	0.750808	-0.000059	0.487616
	Zn227	Zn	0.247160	-0.000957	0.487746
	N228	N	0.412582	0.962662	0.668413
	N229	N	0.585563	0.035766	0.667284
	N230	N	0.586770	0.961203	0.307341
	N231	N	0.412614	0.035036	0.307196
	N232	N	0.677652	0.413542	0.951805
	N233	N	0.673203	0.581525	0.027556
	N234	N	0.322701	0.584755	0.950700
	N235	N	0.324230	0.417464	0.026692
	N236	N	0.962730	0.680647	0.400620
	N237	N	0.035489	0.679213	0.575083
	N238	N	0.962851	0.320275	0.575936
	N239	N	0.034963	0.320299	0.399805
	N240	N	0.962179	0.415321	0.665975
	N241	N	0.037087	0.583880	0.664268
	N242	N	0.960999	0.586637	0.311307
	N243	N	0.036484	0.417347	0.312049
	N244	N	0.410782	0.680210	0.952393
	N245	N	0.585866	0.679205	0.024629
	N246	N	0.588271	0.317607	0.952397
	N247	N	0.411571	0.318582	0.024309
	N248	N	0.679892	0.961759	0.401351
	N249	N	0.677726	0.036428	0.572954
	N250	N	0.319591	0.961954	0.574130
	N251	N	0.319235	0.035692	0.401700
	N252	N	0.911592	0.464322	0.170124
	N253	N	0.083039	0.538596	0.166674
	N254	N	0.087475	0.463481	0.807570
	N255	N	0.913087	0.537088	0.808994
	N256	N	0.176571	0.914268	0.450187
	N257	N	0.173628	0.082520	0.525458
	N258	N	0.822303	0.084738	0.449888
	N259	N	0.823926	0.916692	0.526195
	N260	N	0.464111	0.180116	0.899577
	N261	N	0.535163	0.178464	0.076149
	N262	N	0.461844	0.819421	0.074386
	N263	N	0.535876	0.818987	0.900911
	N264	N	0.461490	0.913466	0.164618
	N265	N	0.536863	0.080727	0.162922
	N266	N	0.461694	0.083596	0.811841
	N267	N	0.537651	0.914888	0.811466
	N268	N	0.909315	0.182980	0.452094
	N269	N	0.086950	0.180954	0.523095
	N270	N	0.087093	0.818592	0.451295
	N271	N	0.912116	0.819635	0.524358
	N272	N	0.179489	0.463197	0.902178
	N273	N	0.177914	0.538303	0.073588
	N274	N	0.819441	0.463117	0.076101
	N275	N	0.819983	0.537228	0.904244
	O276	O	1.117089	-0.019586	0.924888
	H277	H	1.108369	-0.013001	0.926496
	H278	H	1.104466	-0.035499	0.911972
	O279	O	0.582903	0.393365	0.499385
	H280	H	0.579139	0.385717	0.516780
	H281	H	0.586517	0.401755	0.500810
	O282	O	0.539807	0.606478	0.511342
	H283	H	0.537970	0.614046	0.496976
	H284	H	0.533968	0.607827	0.516327
	O285	O	0.593444	0.631228	0.565553
	H286	H	0.590946	0.641261	0.565036
	H287	H	0.592534	0.637436	0.571945
	O288	O	0.399482	0.465303	0.540031
	H289	H	0.398051	0.472460	0.541464
	H290	H	0.402248	0.464659	0.543704
	O291	O	0.119302	-0.062140	0.996386
	H292	H	0.112096	-0.058155	0.996794
	H293	H	0.115850	-0.055475	0.989146
	O294	O	1.010220	0.977946	0.008660
	H295	H	1.015569	0.988167	0.013022
	H296	H	1.002688	0.976049	0.021220
	O297	O	0.950910	0.895768	0.078009
	H298	H	0.947380	0.898037	0.073201
	H299	H	0.944575	0.883368	0.080637
	O300	O	0.590913	0.501318	0.470939
	H301	H	0.590843	0.490875	0.457184
	H302	H	0.585807	0.491546	0.469487
	O303	O	0.356227	0.519509	0.419968
	H304	H	0.360913	0.525741	0.415450
	H305	H	0.361136	0.528663	0.410290
	O306	O	0.115383	0.902071	0.923602
	H307	H	0.119974	0.909725	0.915211
	H308	H	0.116427	0.904884	0.911119
	O309	O	0.530403	0.425232	0.390655
	H310	H	0.544112	0.418035	0.384671
	H311	H	0.535910	0.424797	0.397517
	O312	O	1.074347	0.924639	1.024069
	H313	H	1.079199	0.926704	1.006581
	H314	H	1.073338	0.937429	1.028801
	O315	O	0.820165	0.916854	0.068392
	H316	H	0.811401	0.915002	0.069041
	H317	H	0.814376	0.915399	0.065008
	O318	O	1.043130	0.021495	0.952142
	H319	H	1.030198	0.016499	0.940982
	H320	H	1.057862	0.018604	0.945033
	O321	O	0.542236	0.454508	0.419772
	H322	H	0.527200	0.439454	0.420350
	H323	H	0.544198	0.450084	0.431034
	O324	O	0.085155	0.994178	0.978157
	H325	H	0.085543	0.989953	0.968224
	H326	H	0.097277	0.995087	0.986117
	O327	O	0.122842	1.064019	0.986690
	H328	H	0.110056	1.067163	0.980160
	H329	H	0.130175	1.063639	0.990037
	O330	O	-0.443193	-0.532381	-0.432654
	H331	H	-0.451348	-0.532920	-0.430529
	H332	H	-0.450379	-0.516660	-0.425467
	O333	O	0.522581	0.556997	0.517381
	H334	H	0.523358	0.551673	0.508780
	H335	H	0.521734	0.568427	0.508449
	O336	O	-0.093003	0.022158	0.060782
	H337	H	-0.087894	0.007446	0.065513
	H338	H	-0.102457	0.028403	0.068084
	O339	O	-0.065795	-0.001267	0.012618
	H340	H	-0.071527	-0.003009	0.007870
	H341	H	-0.068470	-0.001846	0.020534
	O342	O	0.895133	0.119274	1.073411
	H343	H	0.894260	0.123798	1.081798
	H344	H	0.893367	0.114898	1.068960
	O345	O	0.069872	1.010095	1.069904
	H346	H	0.070358	1.009544	1.077945
	H347	H	0.083871	1.017706	1.071271
	O348	O	0.445496	0.553353	0.419300
	H349	H	0.442901	0.566729	0.411748
	H350	H	0.443884	0.555450	0.428416
	O351	O	0.464839	0.419170	0.482529
	H352	H	0.455932	0.409765	0.484792
	H353	H	0.476057	0.428016	0.474801
	O354	O	-0.545059	1.473630	0.468873
	H355	H	-0.554944	1.474387	0.464337
	H356	H	-0.544259	1.462879	0.470628
	O357	O	0.513980	0.467569	0.315863
	H358	H	0.527452	0.456775	0.304057
	H359	H	0.516851	0.454471	0.318687
	O360	O	0.953437	0.103438	0.839068
	H361	H	0.940364	0.100790	0.829352
	H362	H	0.949120	0.120403	0.843592
	O363	O	0.392175	0.456786	0.588530
	H364	H	0.384444	0.450250	0.573698
	H365	H	0.389630	0.455706	0.592688
	O366	O	0.878499	0.920573	0.062932
	H367	H	0.891278	0.921197	0.055435
	H368	H	0.882490	0.921650	0.070171
	O369	O	1.026289	0.072872	-0.010884
	H370	H	1.030862	0.064295	-0.007896
	H371	H	1.029530	0.074325	-0.003800
	O372	O	0.552768	0.416803	0.513007
	H373	H	0.548402	0.421018	0.509930
	H374	H	0.548816	0.413069	0.531703
	O375	O	1.023062	0.041533	0.940122
	H376	H	1.036781	0.051847	0.936627
	H377	H	1.017840	0.047864	0.964129
	O378	O	-0.094302	1.017576	-0.118515
	H379	H	-0.102793	1.018964	-0.115720
	H380	H	-0.087070	1.021038	-0.114437
	O381	O	-0.524822	1.373228	1.500937
	H382	H	-0.523222	1.374945	1.511630
	H383	H	-0.520612	1.371972	1.508337
	O384	O	0.928515	1.084791	-0.037061
	H385	H	0.906477	1.084378	-0.034031
	H386	H	0.936650	1.088282	-0.028740
	O387	O	0.970762	0.075821	0.881446
	H388	H	0.973025	0.067312	0.887726
	H389	H	0.975735	0.077940	0.886549
	O390	O	1.385291	0.605972	0.392094
	H391	H	1.387661	0.600776	0.406651
	H392	H	1.378489	0.617024	0.378226
	O393	O	0.448390	0.580493	0.550660
	H394	H	0.452586	0.581164	0.552397
	H395	H	0.452085	0.585553	0.552609
