data_Molecule from HDF5

_cell_length_a		16.409644
_cell_length_b		16.405575
_cell_length_c		16.550252
_cell_angle_alpha	89.983834
_cell_angle_beta	89.903773
_cell_angle_gamma	89.898812
_symmetry_space_group_name_H-M	'P 1'
_symmetry_Int_Tables_number		1

loop_
	_symmetry_equiv_pos_as_xyz
	x,y,z

loop_
	_atom_site_label
	_atom_site_type_symbol
	_atom_site_fract_x
	_atom_site_fract_y
	_atom_site_fract_z
	H0	H	0.403926	0.846149	0.729486
	H1	H	0.620402	0.160570	0.729733
	H2	H	0.619010	0.848252	0.281608
	H3	H	0.403222	0.162603	0.282908
	H4	H	0.740563	0.394137	0.850448
	H5	H	0.735316	0.610345	0.163189
	H6	H	0.291032	0.611181	0.848429
	H7	H	0.290736	0.397443	0.162713
	H8	H	0.853357	0.727016	0.399477
	H9	H	0.168527	0.727589	0.611769
	H10	H	0.853124	0.281292	0.614808
	H11	H	0.168673	0.280611	0.400696
	H12	H	0.856914	0.393485	0.734375
	H13	H	0.169130	0.613979	0.729140
	H14	H	0.854913	0.613059	0.281572
	H15	H	0.169921	0.396694	0.284908
	H16	H	0.409492	0.725829	0.848075
	H17	H	0.619981	0.726653	0.161961
	H18	H	0.624778	0.278499	0.849961
	H19	H	0.408094	0.281665	0.162565
	H20	H	0.734970	0.847536	0.396133
	H21	H	0.734357	0.161739	0.612240
	H22	H	0.293196	0.843881	0.609329
	H23	H	0.291346	0.163095	0.403328
	H24	H	0.902478	0.346434	0.231720
	H25	H	0.115105	0.661374	0.225761
	H26	H	0.124743	0.348704	0.778029
	H27	H	0.904123	0.661181	0.783410
	H28	H	0.234273	0.897488	0.350822
	H29	H	0.232207	0.110144	0.664169
	H30	H	0.787068	0.111923	0.349060
	H31	H	0.782814	0.893586	0.660621
	H32	H	0.357481	0.230850	0.896412
	H33	H	0.670333	0.228969	0.114793
	H34	H	0.355884	0.782418	0.110525
	H35	H	0.671310	0.780292	0.897287
	H36	H	0.355168	0.898545	0.227205
	H37	H	0.667778	0.116565	0.233324
	H38	H	0.356011	0.114702	0.781473
	H39	H	0.668174	0.892071	0.778004
	H40	H	0.901729	0.228885	0.349682
	H41	H	0.116778	0.227140	0.663062
	H42	H	0.114080	0.784379	0.348950
	H43	H	0.902449	0.780495	0.662606
	H44	H	0.238477	0.346886	0.895487
	H45	H	0.230539	0.662275	0.108085
	H46	H	0.788860	0.345960	0.114624
	H47	H	0.790940	0.661857	0.901290
	H48	H	0.421461	0.116881	0.593091
	H49	H	0.598623	0.889277	0.599742
	H50	H	0.604736	0.117707	0.425079
	H51	H	0.425616	0.891129	0.412857
	H52	H	0.605509	0.420355	0.117489
	H53	H	0.606465	0.589162	0.893364
	H54	H	0.421751	0.591256	0.118225
	H55	H	0.428632	0.419039	0.895986
	H56	H	0.125059	0.595101	0.415973
	H57	H	0.898869	0.594237	0.591588
	H58	H	0.122481	0.422558	0.597328
	H59	H	0.897078	0.414212	0.418833
	H60	H	0.125586	0.410507	0.592261
	H61	H	0.900655	0.586543	0.594975
	H62	H	0.123410	0.592235	0.418845
	H63	H	0.900250	0.419014	0.420975
	H64	H	0.424476	0.595139	0.117936
	H65	H	0.598576	0.588144	0.896389
	H66	H	0.595782	0.419224	0.113653
	H67	H	0.427181	0.415175	0.893803
	H68	H	0.597528	0.120716	0.408988
	H69	H	0.587715	0.895653	0.590950
	H70	H	0.420099	0.118962	0.598321
	H71	H	0.423259	0.891758	0.418247
	H72	H	0.933899	0.609833	0.088849
	H73	H	0.102884	0.388374	0.095125
	H74	H	0.104683	0.617334	0.917957
	H75	H	0.929534	0.394581	0.924804
	H76	H	0.094143	0.909927	0.619110
	H77	H	0.096811	0.094106	0.395387
	H78	H	0.923444	0.094002	0.616930
	H79	H	0.923711	0.916808	0.395827
	H80	H	0.622087	0.085287	0.919673
	H81	H	0.400761	0.094503	0.092748
	H82	H	0.627477	0.917337	0.097993
	H83	H	0.399901	0.914256	0.918205
	H84	H	0.627045	0.914172	0.092824
	H85	H	0.402305	0.090905	0.090098
	H86	H	0.625847	0.088810	0.913662
	H87	H	0.401812	0.917083	0.920483
	H88	H	0.920160	0.088941	0.617597
	H89	H	0.103429	0.093828	0.392784
	H90	H	0.107892	0.912983	0.622578
	H91	H	0.922794	0.914756	0.394088
	H92	H	0.098211	0.617088	0.913293
	H93	H	0.100018	0.389149	0.096664
	H94	H	0.913422	0.618120	0.089881
	H95	H	0.926504	0.391282	0.919706
	H96	H	0.425226	0.116649	0.596995
	H97	H	0.602225	0.892640	0.584730
	H98	H	0.588085	0.112302	0.421997
	H99	H	0.420063	0.888896	0.414034
	H100	H	0.600585	0.410942	0.118449
	H101	H	0.600777	0.595715	0.892943
	H102	H	0.420113	0.595508	0.119208
	H103	H	0.424757	0.418916	0.893832
	H104	H	0.124545	0.590982	0.415214
	H105	H	0.897201	0.592489	0.599761
	H106	H	0.119159	0.419642	0.585079
	H107	H	0.898471	0.419297	0.415494
	H108	H	0.927049	0.619826	0.107319
	H109	H	0.100303	0.390060	0.093749
	H110	H	0.098021	0.614167	0.920432
	H111	H	0.932213	0.394033	0.919238
	H112	H	0.099677	0.922623	0.616858
	H113	H	0.100403	0.088142	0.395705
	H114	H	0.925159	0.088848	0.615198
	H115	H	0.921137	0.917117	0.393842
	H116	H	0.625414	0.092386	0.920378
	H117	H	0.401344	0.090116	0.094355
	H118	H	0.625335	0.919968	0.092764
	H119	H	0.400971	0.918006	0.916443
	C120	C	0.389664	0.012647	0.628472
	C121	C	0.631398	0.995875	0.625773
	C122	C	0.631232	0.013164	0.384613
	C123	C	0.389554	0.995419	0.383445
	C124	C	0.636109	0.381832	0.014164
	C125	C	0.634548	0.624674	0.997584
	C126	C	0.390710	0.626477	0.014229
	C127	C	0.392479	0.383113	0.997639
	C128	C	0.019808	0.625519	0.384328
	C129	C	1.002930	0.625401	0.627782
	C130	C	0.019601	0.383062	0.627318
	C131	C	1.002488	0.382655	0.384792
	C132	C	0.890375	0.512302	0.128949
	C133	C	0.133202	0.494332	0.126743
	C134	C	0.135109	0.512772	0.883124
	C135	C	0.893722	0.495957	0.886546
	C136	C	0.132856	0.882515	0.515902
	C137	C	0.132492	0.125285	0.498386
	C138	C	0.889076	0.124983	0.513634
	C139	C	0.887919	0.881771	0.497087
	C140	C	0.521398	0.124745	0.883866
	C141	C	0.504764	0.125985	0.126652
	C142	C	0.521964	0.883976	0.126711
	C143	C	0.504683	0.882407	0.884090
	C144	C	0.386511	0.893542	0.688922
	C145	C	0.636804	0.113680	0.688450
	C146	C	0.636333	0.895238	0.322104
	C147	C	0.385447	0.114753	0.323049
	C148	C	0.699707	0.376787	0.897394
	C149	C	0.695042	0.627973	0.115815
	C150	C	0.330799	0.629067	0.895844
	C151	C	0.331030	0.379150	0.115280
	C152	C	0.900964	0.686799	0.381373
	C153	C	0.121334	0.687209	0.630135
	C154	C	0.901139	0.321322	0.632544
	C155	C	0.121402	0.321112	0.382485
	C156	C	0.903016	0.377201	0.692192
	C157	C	0.121350	0.630440	0.688684
	C158	C	0.901914	0.630007	0.322431
	C159	C	0.121860	0.378936	0.324803
	C160	C	0.389442	0.686606	0.895838
	C161	C	0.637872	0.686443	0.115230
	C162	C	0.641763	0.319178	0.897028
	C163	C	0.389638	0.321595	0.115249
	C164	C	0.694034	0.895126	0.379291
	C165	C	0.693531	0.114188	0.629719
	C166	C	0.331144	0.892483	0.629083
	C167	C	0.330083	0.115326	0.383236
	C168	C	0.885344	0.393792	0.191025
	C169	C	0.134364	0.613765	0.186180
	C170	C	0.141181	0.395399	0.819639
	C171	C	0.887845	0.614113	0.824442
	C172	C	0.193675	0.879851	0.397637
	C173	C	0.192480	0.128205	0.616670
	C174	C	0.827413	0.129283	0.396044
	C175	C	0.824506	0.876750	0.614085
	C176	C	0.404258	0.189078	0.879560
	C177	C	0.623091	0.187885	0.131325
	C178	C	0.403278	0.822625	0.129092
	C179	C	0.623499	0.820481	0.879727
	C180	C	0.402849	0.880734	0.186814
	C181	C	0.621716	0.132139	0.190794
	C182	C	0.403322	0.130956	0.822178
	C183	C	0.621995	0.876188	0.820215
	C184	C	0.884972	0.187414	0.396512
	C185	C	0.134622	0.186322	0.616269
	C186	C	0.133916	0.823583	0.396617
	C187	C	0.884164	0.820317	0.615025
	C188	C	0.198114	0.394666	0.878007
	C189	C	0.191443	0.614386	0.127465
	C190	C	0.828870	0.393418	0.132254
	C191	C	0.831174	0.614431	0.882996
	C192	C	0.415054	0.095786	0.603566
	C193	C	0.604164	0.913927	0.599327
	C194	C	0.604500	0.095421	0.411300
	C195	C	0.415493	0.912264	0.407965
	C196	C	0.608401	0.408945	0.095236
	C197	C	0.609084	0.598543	0.915760
	C198	C	0.415160	0.601189	0.096957
	C199	C	0.418843	0.410069	0.916019
	C200	C	0.102642	0.600005	0.409724
	C201	C	0.920385	0.598743	0.602481
	C202	C	0.101122	0.409937	0.599364
	C203	C	0.920174	0.409639	0.410839
	C204	C	0.916964	0.594239	0.102969
	C205	C	0.108353	0.410977	0.102192
	C206	C	0.108190	0.594830	0.909845
	C207	C	0.921570	0.414561	0.913366
	C208	C	0.107518	0.907661	0.598101
	C209	C	0.107358	0.099723	0.415941
	C210	C	0.915130	0.098193	0.595196
	C211	C	0.914890	0.908433	0.415871
	C212	C	0.603181	0.096768	0.910134
	C213	C	0.422807	0.099264	0.099916
	C214	C	0.604859	0.909639	0.101705
	C215	C	0.422428	0.908937	0.910660
	Zn216	Zn	0.512080	0.002961	0.755447
	Zn217	Zn	0.511824	0.005773	0.255984
	Zn218	Zn	0.763776	0.503858	0.006363
	Zn219	Zn	0.262176	0.503807	0.005776
	Zn220	Zn	0.010723	0.753658	0.506263
	Zn221	Zn	0.010170	0.254205	0.506364
	Zn222	Zn	0.012386	0.504082	0.756040
	Zn223	Zn	0.011660	0.503210	0.256347
	Zn224	Zn	0.514026	0.754547	0.005191
	Zn225	Zn	0.514387	0.253941	0.005242
	Zn226	Zn	0.759750	0.003909	0.505062
	Zn227	Zn	0.262250	0.004014	0.506810
	N228	N	0.421736	0.969587	0.689112
	N229	N	0.599012	0.038965	0.686176
	N230	N	0.598162	0.969785	0.325327
	N231	N	0.421650	0.039040	0.322921
	N232	N	0.696535	0.414809	0.971342
	N233	N	0.693173	0.590315	0.041720
	N234	N	0.331349	0.592507	0.970675
	N235	N	0.332318	0.416298	0.040837
	N236	N	0.975451	0.684160	0.419163
	N237	N	0.046509	0.684281	0.592970
	N238	N	0.974769	0.324518	0.592947
	N239	N	0.046062	0.323086	0.418981
	N240	N	0.977789	0.414695	0.689053
	N241	N	0.046624	0.592708	0.687396
	N242	N	0.976741	0.592398	0.324270
	N243	N	0.046772	0.416030	0.325901
	N244	N	0.425815	0.685213	0.970475
	N245	N	0.600989	0.684630	0.040754
	N246	N	0.603431	0.321848	0.970880
	N247	N	0.426894	0.323867	0.040843
	N248	N	0.691071	0.969566	0.417374
	N249	N	0.690515	0.039768	0.591766
	N250	N	0.332952	0.967625	0.592400
	N251	N	0.332209	0.040060	0.419790
	N252	N	0.922906	0.468493	0.189126
	N253	N	0.099016	0.537838	0.186039
	N254	N	0.102935	0.469998	0.822384
	N255	N	0.925896	0.539446	0.826297
	N256	N	0.193320	0.915805	0.472686
	N257	N	0.191352	0.090986	0.542237
	N258	N	0.829981	0.090929	0.469888
	N259	N	0.826356	0.913860	0.539660
	N260	N	0.478823	0.185465	0.917233
	N261	N	0.549436	0.184153	0.091996
	N262	N	0.478488	0.824292	0.092555
	N263	N	0.549494	0.824288	0.918920
	N264	N	0.477792	0.917845	0.185737
	N265	N	0.547234	0.093932	0.187762
	N266	N	0.477310	0.091820	0.824466
	N267	N	0.547209	0.914008	0.822701
	N268	N	0.922487	0.185121	0.470675
	N269	N	0.097999	0.184666	0.541634
	N270	N	0.097021	0.825052	0.471152
	N271	N	0.922708	0.823183	0.541249
	N272	N	0.194379	0.468639	0.916864
	N273	N	0.190881	0.539038	0.091537
	N274	N	0.831937	0.467793	0.094179
	N275	N	0.834498	0.540048	0.920925
	O276	O	0.035490	1.219987	0.219463
	H277	H	0.018535	1.216280	0.224679
	H278	H	0.023094	1.223700	0.247222
	O279	O	0.798064	0.217978	0.985974
	H280	H	0.801568	0.220274	1.004153
	H281	H	0.769782	0.230684	0.993281
	O282	O	0.515766	0.704744	0.653458
	H283	H	0.536718	0.692807	0.655052
	H284	H	0.524116	0.713560	0.648262
	O285	O	0.507126	1.495437	0.327967
	H286	H	0.500516	1.485709	0.339782
	H287	H	0.518889	1.496127	0.332689
	O288	O	0.678217	0.322961	0.333028
	H289	H	0.674670	0.342797	0.332316
	H290	H	0.675155	0.347094	0.338993
	O291	O	0.511480	0.313441	0.707954
	H292	H	0.497593	0.296542	0.716939
	H293	H	0.480187	0.302536	0.713572
	O294	O	0.232837	0.223677	1.023574
	H295	H	0.220854	0.214357	1.066934
	H296	H	0.262056	0.257212	1.028182
	O297	O	-0.169879	0.179326	-0.174747
	H298	H	-0.116586	0.192896	-0.185601
	H299	H	-0.180141	0.193507	-0.121867
	O300	O	0.562439	0.356006	0.560023
	H301	H	0.549915	0.348575	0.568953
	H302	H	0.561686	0.349009	0.571861
	O303	O	0.228873	0.024499	1.227231
	H304	H	0.236453	0.039764	1.211042
	H305	H	0.261499	0.026328	1.241763
	O306	O	0.791865	0.022991	-0.213840
	H307	H	0.806815	0.074344	-0.200399
	H308	H	0.753419	0.030910	-0.250395
	O309	O	0.316755	0.583166	0.568209
	H310	H	0.326079	0.575583	0.570203
	H311	H	0.324072	0.598979	0.562958
	O312	O	0.531727	1.666188	0.314311
	H313	H	0.532489	1.675044	0.309119
	H314	H	0.541053	1.651670	0.312577
	O315	O	0.722252	0.478656	0.609188
	H316	H	0.728008	0.482836	0.635985
	H317	H	0.724910	0.443489	0.601472
	O318	O	1.226045	-0.207107	-0.012491
	H319	H	1.257254	-0.236176	-0.018982
	H320	H	1.209937	-0.198643	-0.061095
	O321	O	0.189726	0.176470	0.174214
	H322	H	0.146086	0.185534	0.189168
	H323	H	0.191663	0.154501	0.172751
	O324	O	0.724528	0.661796	0.503165
	H325	H	0.690274	0.682869	0.492103
	H326	H	0.749001	0.687833	0.497081
	O327	O	0.380472	0.320060	0.682135
	H328	H	0.364910	0.355406	0.694813
	H329	H	0.373316	0.311794	0.636167
	O330	O	-0.130318	0.885413	-0.045781
	H331	H	-0.144164	0.900037	-0.045886
	H332	H	-0.118611	0.903629	-0.060234
	O333	O	0.309501	0.492253	0.295033
	H334	H	0.292050	0.497709	0.267107
	H335	H	0.322951	0.530440	0.302242
	O336	O	0.195588	-0.175601	-0.176656
	H337	H	0.195631	-0.133865	-0.185702
	H338	H	0.153479	-0.187471	-0.186478
	O339	O	-0.004375	1.003495	1.001163
	H340	H	-0.020106	1.007791	0.995939
	H341	H	0.000140	0.982997	0.998549
	O342	O	-0.045025	1.217512	1.057478
	H343	H	-0.036505	1.210788	1.070036
	H344	H	-0.055852	1.216011	1.054852
	O345	O	1.075570	1.216974	-0.054681
	H346	H	1.093098	1.204829	-0.045240
	H347	H	1.079131	1.221199	-0.031878
	O348	O	0.542991	0.658958	0.429842
	H349	H	0.543678	0.656839	0.430590
	H350	H	0.526795	0.660525	0.432211
	O351	O	-0.068183	0.810307	1.203159
	H352	H	-0.032654	0.832038	1.209070
	H353	H	-0.063445	0.798978	1.180231
	O354	O	-0.583208	0.379246	0.390210
	H355	H	-0.569099	0.385139	0.386743
	H356	H	-0.588819	0.403816	0.375186
	O357	O	-0.465652	0.494619	0.722022
	H358	H	-0.465733	0.465543	0.714506
	H359	H	-0.479125	0.504022	0.714863
	O360	O	0.363219	0.298001	0.507284
	H361	H	0.360665	0.303990	0.489318
	H362	H	0.347125	0.299631	0.497088
	O363	O	-0.098979	-0.209657	0.978090
	H364	H	-0.122556	-0.192852	0.973441
	H365	H	-0.105099	-0.218485	0.950884
	O366	O	0.309592	0.420913	0.468840
	H367	H	0.300248	0.448315	0.447215
	H368	H	0.302102	0.431543	0.467041
	O369	O	0.366611	0.676049	0.301107
	H370	H	0.357601	0.697432	0.281835
	H371	H	0.386082	0.682941	0.298102
	O372	O	0.723750	-0.703054	1.489064
	H373	H	0.742196	-0.720491	1.476892
	H374	H	0.709141	-0.714294	1.486490
	O375	O	0.306631	0.439190	0.709334
	H376	H	0.275622	0.453993	0.736467
	H377	H	0.318398	0.457676	0.684814
	O378	O	1.049404	1.044138	0.793036
	H379	H	1.067392	1.051605	0.796709
	H380	H	1.060895	1.053026	0.798567
	O381	O	0.943253	0.076312	1.215341
	H382	H	0.932303	0.063080	1.201740
	H383	H	0.934080	0.052654	1.222757
	O384	O	0.761296	0.784074	0.259611
	H385	H	0.754452	0.776064	0.221426
	H386	H	0.794640	0.775963	0.269704
	O387	O	0.158698	-0.138881	1.208148
	H388	H	0.155070	-0.123929	1.203652
	H389	H	0.148347	-0.136481	1.186716
	O390	O	0.231220	-0.029773	-0.208466
	H391	H	0.239989	-0.005455	-0.179429
	H392	H	0.265867	-0.037687	-0.233897
	O393	O	0.795103	1.060571	1.053748
	H394	H	0.791907	1.061113	1.067254
	H395	H	0.801616	1.049565	1.068985
	O396	O	1.231969	0.062398	-0.056577
	H397	H	1.240180	0.063765	-0.038275
	H398	H	1.227297	0.080527	-0.039822
	O399	O	1.214373	-0.044304	1.056670
	H400	H	1.200456	-0.042414	1.056345
	H401	H	1.218417	-0.071969	1.039934
	O402	O	1.036872	0.899463	1.220686
	H403	H	1.054293	0.908645	1.228179
	H404	H	1.046535	0.908582	1.196008
	O405	O	1.437196	0.618256	-0.493217
	H406	H	1.435233	0.621025	-0.496617
	H407	H	1.439685	0.609550	-0.488264
	O408	O	0.801542	-0.150670	-0.002893
	H409	H	0.793811	-0.136562	-0.003456
	H410	H	0.790254	-0.132461	-0.027205
	O411	O	1.065699	0.830647	0.043720
	H412	H	1.072839	0.820235	0.018600
	H413	H	1.067560	0.827435	0.015966
	O414	O	-0.007801	1.212170	0.796727
	H415	H	0.013047	1.217596	0.812824
	H416	H	0.005295	1.229559	0.787703
	O417	O	0.721701	0.518276	0.479367
	H418	H	0.727877	0.484852	0.496358
	H419	H	0.724143	0.553885	0.481423
	O420	O	0.034762	-0.208044	-0.193683
	H421	H	0.005819	-0.176313	-0.202747
	H422	H	0.030915	-0.231946	-0.213134
	O423	O	0.572168	0.506485	0.542148
	H424	H	0.581184	0.501070	0.540984
	H425	H	0.580417	0.496861	0.536489
	O426	O	0.674519	0.515922	0.296181
	H427	H	0.687420	0.526954	0.305845
	H428	H	0.689138	0.525549	0.288947
	O429	O	0.704482	0.696432	0.635057
	H430	H	0.717621	0.675224	0.652001
	H431	H	0.713399	0.705575	0.609104
	O432	O	-0.205686	-0.014345	0.218511
	H433	H	-0.202959	-0.057151	0.220222
	H434	H	-0.226111	-0.027434	0.244126
	O435	O	0.431806	0.611906	0.509131
	H436	H	0.435617	0.600559	0.505765
	H437	H	0.438613	0.610968	0.536795
	O438	O	0.074122	0.055400	-0.024902
	H439	H	0.071989	0.063597	-0.038248
	H440	H	0.074303	0.040608	-0.013889
	O441	O	0.404308	0.548454	-0.285891
	H442	H	0.416297	0.565028	-0.279259
	H443	H	0.401450	0.545925	-0.281995
	O444	O	-0.051254	0.930235	0.799345
	H445	H	-0.061084	0.961615	0.797119
	H446	H	-0.056996	0.957732	0.797268
	O447	O	0.514106	0.309726	0.325428
	H448	H	0.518651	0.302462	0.311672
	H449	H	0.521715	0.328960	0.331988
	O450	O	0.311262	0.703024	0.400580
	H451	H	0.313631	0.724802	0.391362
	H452	H	0.306699	0.715948	0.396889
	O453	O	0.709545	0.572037	0.703510
	H454	H	0.707519	0.573478	0.721647
	H455	H	0.692024	0.544863	0.718615
