data_Molecule from HDF5

_cell_length_a		16.439731
_cell_length_b		16.326126
_cell_length_c		16.288482
_cell_angle_alpha	90.071825
_cell_angle_beta	89.955606
_cell_angle_gamma	89.892288
_symmetry_space_group_name_H-M	'P 1'
_symmetry_Int_Tables_number		1

loop_
	_symmetry_equiv_pos_as_xyz
	x,y,z

loop_
	_atom_site_label
	_atom_site_type_symbol
	_atom_site_fract_x
	_atom_site_fract_y
	_atom_site_fract_z
	H0	H	0.410758	0.839948	0.728739
	H1	H	0.612337	0.162189	0.734015
	H2	H	0.612584	0.841637	0.295315
	H3	H	0.406308	0.163358	0.295856
	H4	H	0.724340	0.399726	0.850387
	H5	H	0.726275	0.606035	0.173730
	H6	H	0.289146	0.604944	0.851763
	H7	H	0.287466	0.398067	0.173394
	H8	H	0.847984	0.722640	0.409600
	H9	H	0.169125	0.719681	0.614880
	H10	H	0.849155	0.281990	0.615771
	H11	H	0.168445	0.283233	0.407439
	H12	H	0.846532	0.402099	0.728960
	H13	H	0.167076	0.606443	0.733307
	H14	H	0.847148	0.605566	0.294146
	H15	H	0.166675	0.398824	0.291192
	H16	H	0.405394	0.719731	0.851236
	H17	H	0.607361	0.718888	0.174978
	H18	H	0.608802	0.283116	0.850943
	H19	H	0.405324	0.285399	0.174554
	H20	H	0.728205	0.841230	0.410513
	H21	H	0.729990	0.162632	0.620052
	H22	H	0.290149	0.842013	0.618225
	H23	H	0.287660	0.161393	0.407621
	H24	H	0.904371	0.341663	0.230913
	H25	H	0.109803	0.662949	0.230526
	H26	H	0.109146	0.341190	0.794325
	H27	H	0.906644	0.664374	0.795793
	H28	H	0.227943	0.900480	0.351024
	H29	H	0.225830	0.104632	0.674970
	H30	H	0.789138	0.106678	0.352599
	H31	H	0.791087	0.898314	0.673690
	H32	H	0.347431	0.220241	0.909953
	H33	H	0.667217	0.222346	0.117978
	H34	H	0.346175	0.785595	0.115980
	H35	H	0.666558	0.780533	0.909990
	H36	H	0.347429	0.902564	0.232440
	H37	H	0.667878	0.104863	0.232428
	H38	H	0.349417	0.104877	0.793594
	H39	H	0.668198	0.897241	0.794846
	H40	H	0.907666	0.219292	0.350429
	H41	H	0.113045	0.222251	0.672978
	H42	H	0.110391	0.785796	0.349959
	H43	H	0.908704	0.785204	0.674572
	H44	H	0.227638	0.342533	0.906291
	H45	H	0.225541	0.662000	0.115387
	H46	H	0.788111	0.341638	0.115898
	H47	H	0.786721	0.662928	0.907170
	H48	H	0.420254	0.115270	0.601667
	H49	H	0.602225	0.886323	0.606660
	H50	H	0.597404	0.117737	0.420928
	H51	H	0.420597	0.889034	0.426910
	H52	H	0.599069	0.411063	0.128020
	H53	H	0.599784	0.587334	0.898772
	H54	H	0.417414	0.591086	0.126976
	H55	H	0.420295	0.404761	0.897018
	H56	H	0.120146	0.589653	0.422969
	H57	H	0.895958	0.587526	0.605442
	H58	H	0.122609	0.410150	0.603221
	H59	H	0.896369	0.412829	0.425318
	H60	H	0.120059	0.414055	0.600952
	H61	H	0.891490	0.599174	0.606771
	H62	H	0.122330	0.592984	0.416818
	H63	H	0.893684	0.412620	0.418735
	H64	H	0.415426	0.596163	0.129252
	H65	H	0.592420	0.591959	0.899536
	H66	H	0.598697	0.415189	0.126963
	H67	H	0.409354	0.414069	0.895603
	H68	H	0.598742	0.115393	0.427927
	H69	H	0.599866	0.888575	0.602580
	H70	H	0.416454	0.117719	0.602314
	H71	H	0.416775	0.887302	0.425098
	H72	H	0.917626	0.617565	0.106617
	H73	H	0.103320	0.383963	0.105285
	H74	H	0.100021	0.621145	0.912889
	H75	H	0.916058	0.389572	0.924860
	H76	H	0.099576	0.907032	0.629216
	H77	H	0.099169	0.081918	0.401029
	H78	H	0.925718	0.092480	0.625479
	H79	H	0.923160	0.916270	0.399959
	H80	H	0.620848	0.096371	0.932528
	H81	H	0.397147	0.085561	0.101167
	H82	H	0.622800	0.909116	0.106225
	H83	H	0.393965	0.910740	0.923981
	H84	H	0.621794	0.908747	0.102168
	H85	H	0.390675	0.093619	0.114209
	H86	H	0.618797	0.084365	0.925143
	H87	H	0.394360	0.913429	0.921521
	H88	H	0.917126	0.096788	0.629930
	H89	H	0.092080	0.098542	0.397581
	H90	H	0.104423	0.912753	0.628111
	H91	H	0.919276	0.908020	0.395833
	H92	H	0.088097	0.613487	0.925232
	H93	H	0.089985	0.388791	0.105032
	H94	H	0.918261	0.614714	0.098163
	H95	H	0.911232	0.385963	0.920706
	H96	H	0.419166	0.117508	0.606124
	H97	H	0.604370	0.887094	0.602105
	H98	H	0.604081	0.118422	0.423865
	H99	H	0.420372	0.887400	0.422086
	H100	H	0.595392	0.412454	0.126408
	H101	H	0.599032	0.595762	0.896119
	H102	H	0.412021	0.591560	0.128661
	H103	H	0.421373	0.417816	0.901435
	H104	H	0.122717	0.596966	0.423543
	H105	H	0.895792	0.595890	0.596477
	H106	H	0.121989	0.414419	0.605640
	H107	H	0.892573	0.406866	0.422745
	H108	H	0.910723	0.618069	0.101257
	H109	H	0.097763	0.389598	0.093316
	H110	H	0.106060	0.617841	0.930254
	H111	H	0.918054	0.387053	0.918106
	H112	H	0.097361	0.913600	0.626158
	H113	H	0.109753	0.094641	0.393637
	H114	H	0.917609	0.087001	0.626689
	H115	H	0.913670	0.915787	0.396834
	H116	H	0.624115	0.095378	0.918761
	H117	H	0.392823	0.100999	0.099893
	H118	H	0.621143	0.911745	0.104287
	H119	H	0.392885	0.910017	0.920210
	C120	C	0.388232	0.010722	0.634648
	C121	C	0.632332	0.993519	0.636057
	C122	C	0.631006	0.010820	0.392355
	C123	C	0.388338	0.993918	0.393082
	C124	C	0.628445	0.380913	0.020723
	C125	C	0.628160	0.623332	1.004457
	C126	C	0.384927	0.623673	0.021658
	C127	C	0.385969	0.380919	1.004208
	C128	C	0.016212	0.624732	0.390188
	C129	C	0.999948	0.624523	0.634379
	C130	C	0.016122	0.381484	0.633840
	C131	C	0.999756	0.380455	0.390220
	C132	C	0.885222	0.510824	0.133550
	C133	C	0.127675	0.493311	0.132798
	C134	C	0.128954	0.511008	0.890913
	C135	C	0.884786	0.493937	0.890215
	C136	C	0.131023	0.880598	0.520757
	C137	C	0.131390	0.123648	0.503974
	C138	C	0.888606	0.123395	0.521168
	C139	C	0.888373	0.881702	0.504278
	C140	C	0.516119	0.122932	0.892983
	C141	C	0.499079	0.124756	0.136116
	C142	C	0.515844	0.880370	0.135281
	C143	C	0.499448	0.879749	0.891606
	C144	C	0.389608	0.888871	0.691555
	C145	C	0.632018	0.114175	0.695167
	C146	C	0.631680	0.890037	0.334120
	C147	C	0.387693	0.114988	0.334947
	C148	C	0.685465	0.380441	0.898944
	C149	C	0.686797	0.624538	0.125565
	C150	C	0.327885	0.624046	0.900063
	C151	C	0.327123	0.379954	0.125315
	C152	C	0.895920	0.683191	0.390274
	C153	C	0.120574	0.681519	0.634438
	C154	C	0.896488	0.322134	0.634597
	C155	C	0.120122	0.322377	0.388814
	C156	C	0.895114	0.381640	0.691247
	C157	C	0.119572	0.625060	0.693431
	C158	C	0.895365	0.624713	0.332984
	C159	C	0.119498	0.380188	0.331149
	C160	C	0.385732	0.681330	0.899952
	C161	C	0.627551	0.680445	0.126438
	C162	C	0.628112	0.322385	0.899378
	C163	C	0.385661	0.323764	0.125971
	C164	C	0.689469	0.889932	0.391434
	C165	C	0.690463	0.114140	0.638299
	C166	C	0.329795	0.889948	0.636249
	C167	C	0.328559	0.114204	0.390651
	C168	C	0.885281	0.389812	0.191981
	C169	C	0.128580	0.614685	0.191344
	C170	C	0.128744	0.389828	0.832714
	C171	C	0.886052	0.615697	0.833695
	C172	C	0.188619	0.881270	0.399297
	C173	C	0.188216	0.124497	0.625872
	C174	C	0.829112	0.124717	0.400429
	C175	C	0.830424	0.879944	0.625708
	C176	C	0.395827	0.181230	0.891518
	C177	C	0.619213	0.183579	0.137081
	C178	C	0.394514	0.823793	0.135528
	C179	C	0.619105	0.820350	0.891114
	C180	C	0.395191	0.881809	0.193614
	C181	C	0.619719	0.124869	0.194060
	C182	C	0.396823	0.123974	0.833288
	C183	C	0.619899	0.878456	0.833744
	C184	C	0.888203	0.180728	0.399145
	C185	C	0.131812	0.182890	0.624964
	C186	C	0.130331	0.823960	0.398794
	C187	C	0.888928	0.823714	0.625993
	C188	C	0.187810	0.390355	0.888453
	C189	C	0.186625	0.614018	0.134491
	C190	C	0.827068	0.389993	0.134844
	C191	C	0.826201	0.614818	0.888794
	C192	C	0.411859	0.094878	0.610446
	C193	C	0.608874	0.909155	0.611116
	C194	C	0.606994	0.095307	0.416949
	C195	C	0.412328	0.909697	0.417723
	C196	C	0.604630	0.405758	0.105228
	C197	C	0.604098	0.599000	0.920006
	C198	C	0.408267	0.599845	0.106529
	C199	C	0.410043	0.405099	0.919887
	C200	C	0.099956	0.600248	0.414122
	C201	C	0.916103	0.600994	0.610064
	C202	C	0.099774	0.406009	0.610044
	C203	C	0.915954	0.403986	0.415110
	C204	C	0.908871	0.594981	0.109170
	C205	C	0.103779	0.409416	0.108426
	C206	C	0.104960	0.595460	0.915667
	C207	C	0.908231	0.409344	0.914051
	C208	C	0.107403	0.904233	0.605810
	C209	C	0.107427	0.098822	0.419399
	C210	C	0.913064	0.099314	0.605413
	C211	C	0.911933	0.906136	0.419634
	C212	C	0.599771	0.098678	0.918098
	C213	C	0.415345	0.100513	0.112189
	C214	C	0.599868	0.903248	0.111188
	C215	C	0.415364	0.904271	0.915139
	Zn216	Zn	0.509085	0.001704	0.763191
	Zn217	Zn	0.508583	0.002064	0.264320
	Zn218	Zn	0.756847	0.502214	0.011996
	Zn219	Zn	0.257038	0.501752	0.012405
	Zn220	Zn	0.008820	0.753137	0.512310
	Zn221	Zn	0.009679	0.251455	0.512142
	Zn222	Zn	0.007136	0.502770	0.763215
	Zn223	Zn	0.006916	0.502592	0.261424
	Zn224	Zn	0.506628	0.751442	0.013527
	Zn225	Zn	0.507041	0.252792	0.013653
	Zn226	Zn	0.759927	0.002577	0.513521
	Zn227	Zn	0.259381	0.002475	0.513761
	N228	N	0.425166	0.964940	0.690582
	N229	N	0.596445	0.037991	0.693983
	N230	N	0.596152	0.966290	0.334412
	N231	N	0.424173	0.039091	0.336374
	N232	N	0.685906	0.415866	0.975514
	N233	N	0.687183	0.589549	0.048734
	N234	N	0.327340	0.588746	0.976683
	N235	N	0.326942	0.414675	0.048476
	N236	N	0.972010	0.683431	0.424862
	N237	N	0.045206	0.681050	0.598063
	N238	N	0.972761	0.321682	0.599836
	N239	N	0.044685	0.322487	0.425074
	N240	N	0.970542	0.417728	0.690870
	N241	N	0.043545	0.590191	0.693403
	N242	N	0.971484	0.589173	0.332719
	N243	N	0.043601	0.415588	0.331817
	N244	N	0.420324	0.681342	0.976696
	N245	N	0.591903	0.679900	0.050073
	N246	N	0.593516	0.322505	0.976265
	N247	N	0.421305	0.324099	0.049717
	N248	N	0.689149	0.966362	0.427015
	N249	N	0.690899	0.037914	0.602527
	N250	N	0.328670	0.966678	0.601666
	N251	N	0.329123	0.038195	0.426599
	N252	N	0.920754	0.465972	0.191200
	N253	N	0.092663	0.538719	0.190480
	N254	N	0.092871	0.465982	0.834074
	N255	N	0.921494	0.539548	0.834305
	N256	N	0.189486	0.915396	0.476545
	N257	N	0.188161	0.088366	0.549594
	N258	N	0.829252	0.089814	0.477244
	N259	N	0.829941	0.915333	0.549220
	N260	N	0.471230	0.180718	0.927879
	N261	N	0.543238	0.183625	0.101804
	N262	N	0.470534	0.822632	0.100103
	N263	N	0.543162	0.821121	0.926294
	N264	N	0.471549	0.915899	0.193610
	N265	N	0.544088	0.089002	0.193723
	N266	N	0.472725	0.088403	0.834066
	N267	N	0.544507	0.915014	0.834196
	N268	N	0.924259	0.180263	0.475259
	N269	N	0.097384	0.182512	0.548043
	N270	N	0.095348	0.823535	0.475412
	N271	N	0.924172	0.824643	0.549327
	N272	N	0.187914	0.466749	0.924207
	N273	N	0.186438	0.537667	0.098800
	N274	N	0.826834	0.466167	0.099115
	N275	N	0.825313	0.537955	0.923461
	O276	O	0.055741	-0.122945	-0.028445
	H277	H	0.055329	-0.113396	-0.024499
	H278	H	0.053576	-0.122584	-0.029849
	O279	O	0.511444	0.581124	0.640853
	H280	H	0.507632	0.582652	0.650504
	H281	H	0.518325	0.579345	0.624771
	O282	O	0.426621	-0.346532	0.451312
	H283	H	0.431359	-0.357602	0.441287
	H284	H	0.430552	-0.340037	0.449665
	O285	O	0.397346	0.369023	0.675259
	H286	H	0.412824	0.382809	0.683063
	H287	H	0.399735	0.386291	0.684703
	O288	O	1.075951	1.146329	0.895981
	H289	H	1.094012	1.139661	0.892519
	H290	H	1.084516	1.145613	0.888171
	O291	O	0.112580	0.876302	0.113352
	H292	H	0.103558	0.864322	0.124242
	H293	H	0.109069	0.892818	0.106211
	O294	O	0.599782	0.462138	0.389637
	H295	H	0.592088	0.472029	0.395395
	H296	H	0.597859	0.457328	0.381564
	O297	O	0.348085	0.604454	0.405987
	H298	H	0.344030	0.627555	0.402884
	H299	H	0.342494	0.598819	0.379002
	O300	O	0.542578	0.353932	0.344537
	H301	H	0.538617	0.358867	0.359859
	H302	H	0.532160	0.356159	0.331745
	O303	O	0.535579	0.615583	0.459540
	H304	H	0.536403	0.610634	0.466789
	H305	H	0.539707	0.621118	0.472907
	O306	O	0.625164	0.342987	0.383555
	H307	H	0.624322	0.333991	0.388671
	H308	H	0.610710	0.348693	0.371536
	O309	O	0.588927	0.595518	0.622936
	H310	H	0.588203	0.606969	0.620769
	H311	H	0.581529	0.597283	0.621491
	O312	O	0.034102	0.108284	0.152869
	H313	H	0.017648	0.087964	0.143173
	H314	H	0.030734	0.106064	0.138716
	O315	O	0.935285	0.004129	1.118673
	H316	H	0.930834	0.002561	1.113833
	H317	H	0.914053	-0.001016	1.121174
	O318	O	-0.001947	0.890074	0.986944
	H319	H	-0.013337	0.887642	0.988929
	H320	H	-0.000608	0.881216	0.996716
	O321	O	0.572640	0.636831	0.535943
	H322	H	0.564135	0.631341	0.527534
	H323	H	0.575379	0.643115	0.530952
	O324	O	-0.087131	0.948043	0.066139
	H325	H	-0.093339	0.961031	0.057906
	H326	H	-0.084624	0.936533	0.067286
	O327	O	-0.196823	0.195570	0.001424
	H328	H	-0.213562	0.222109	-0.013102
	H329	H	-0.190357	0.188809	-0.034020
	O330	O	-0.075449	0.018049	0.940523
	H331	H	-0.067223	0.017570	0.954885
	H332	H	-0.068425	-0.001526	0.961933
	O333	O	0.151367	0.077329	1.033582
	H334	H	0.143473	0.072819	1.041795
	H335	H	0.145222	0.072878	1.036560
	O336	O	0.507599	0.342867	0.532587
	H337	H	0.509927	0.343135	0.548923
	H338	H	0.505387	0.334331	0.530949
	O339	O	0.876826	0.181202	-0.168076
	H340	H	0.892135	0.149544	-0.170974
	H341	H	0.898237	0.202301	-0.187723
	O342	O	-0.537351	-0.475145	0.346719
	H343	H	-0.539969	-0.487547	0.340758
	H344	H	-0.547417	-0.487455	0.365717
	O345	O	0.579687	0.573794	0.538710
	H346	H	0.583276	0.564364	0.537160
	H347	H	0.577639	0.578195	0.527854
	O348	O	0.984832	1.115371	0.057559
	H349	H	1.002657	1.124768	0.052493
	H350	H	0.973590	1.110864	0.056365
	O351	O	0.605705	0.646279	0.680525
	H352	H	0.609444	0.652022	0.678957
	H353	H	0.615384	0.649219	0.689379
	O354	O	1.025782	-0.003405	0.884685
	H355	H	1.033648	-0.014299	0.882866
	H356	H	1.021528	-0.013190	0.886432
	O357	O	0.529603	0.357264	0.599651
	H358	H	0.515888	0.348942	0.603574
	H359	H	0.549032	0.358756	0.602621
	O360	O	0.317850	0.289421	0.559968
	H361	H	0.294456	0.273061	0.571326
	H362	H	0.317258	0.284803	0.595949
	O363	O	0.157691	1.088847	0.978250
	H364	H	0.160327	1.084989	0.994414
	H365	H	0.164266	1.093286	0.987692
	O366	O	0.310875	0.484014	0.476417
	H367	H	0.308430	0.474129	0.473678
	H368	H	0.309929	0.487966	0.462536
	O369	O	-0.331726	1.211897	-0.335748
	H370	H	-0.343168	1.209216	-0.353681
	H371	H	-0.324984	1.225226	-0.331856
	O372	O	0.447955	0.604438	0.598070
	H373	H	0.439475	0.609362	0.602543
	H374	H	0.446106	0.607614	0.592968
	O375	O	0.587950	0.423021	0.513110
	H376	H	0.599696	0.422483	0.519087
	H377	H	0.583336	0.400396	0.497258
	O378	O	1.332526	0.645590	-0.563447
	H379	H	1.344156	0.615979	-0.571709
	H380	H	1.342905	0.651868	-0.574003
	O381	O	1.014876	-0.111722	0.109715
	H382	H	1.013580	-0.127657	0.125157
	H383	H	1.015272	-0.101021	0.107270
	O384	O	1.039879	0.913758	-0.064781
	H385	H	1.040648	0.915009	-0.073277
	H386	H	1.037163	0.903823	-0.070759
	O387	O	0.125944	-0.172724	0.028600
	H388	H	0.131481	-0.179003	0.030179
	H389	H	0.126373	-0.167719	0.040697
	O390	O	-0.018506	0.935467	0.042613
	H391	H	-0.021683	0.922922	0.059275
	H392	H	-0.030517	0.942176	0.037688
	O393	O	0.909183	0.868338	1.169450
	H394	H	0.904406	0.886454	1.176262
	H395	H	0.901630	0.861463	1.166111
	O396	O	0.588159	0.318947	0.507255
	H397	H	0.598841	0.314507	0.508006
	H398	H	0.591882	0.333889	0.491970
	O399	O	0.127425	0.943099	0.873653
	H400	H	0.126924	0.940322	0.872618
	H401	H	0.142251	0.936126	0.869556
	O402	O	0.643355	0.517461	0.417548
	H403	H	0.654285	0.511163	0.407223
	H404	H	0.647030	0.523683	0.430121
	O405	O	0.952279	1.108020	0.004253
	H406	H	0.926952	1.110012	-0.002672
	H407	H	0.939724	1.115344	0.014273
	O408	O	1.013635	1.094411	-0.009720
	H409	H	1.024767	1.091943	-0.007949
	H410	H	1.004796	1.098992	-0.013696
	O411	O	0.937104	-0.031964	1.095769
	H412	H	0.947024	-0.023714	1.089074
	H413	H	0.933511	-0.016897	1.089858
	O414	O	0.465372	0.588486	0.512679
	H415	H	0.456056	0.578906	0.512613
	H416	H	0.452895	0.603335	0.493657
	O417	O	0.589550	0.391062	0.597510
	H418	H	0.581022	0.394115	0.617870
	H419	H	0.594641	0.386347	0.594220
