data_Molecule from HDF5

_cell_length_a		16.197029
_cell_length_b		16.316899
_cell_length_c		16.321269
_cell_angle_alpha	89.714937
_cell_angle_beta	89.851199
_cell_angle_gamma	89.997679
_symmetry_space_group_name_H-M	'P 1'
_symmetry_Int_Tables_number		1

loop_
	_symmetry_equiv_pos_as_xyz
	x,y,z

loop_
	_atom_site_label
	_atom_site_type_symbol
	_atom_site_fract_x
	_atom_site_fract_y
	_atom_site_fract_z
	H0	H	0.401510	0.832010	0.713641
	H1	H	0.600749	0.158704	0.711930
	H2	H	0.600844	0.831752	0.283446
	H3	H	0.402175	0.158389	0.281825
	H4	H	0.715796	0.398886	0.833304
	H5	H	0.716831	0.592333	0.160921
	H6	H	0.290061	0.594022	0.832689
	H7	H	0.288201	0.397066	0.160016
	H8	H	0.837107	0.708269	0.398258
	H9	H	0.166256	0.708587	0.593518
	H10	H	0.837439	0.280384	0.597563
	H11	H	0.165590	0.281485	0.399131
	H12	H	0.838813	0.394659	0.713160
	H13	H	0.166976	0.592787	0.709685
	H14	H	0.838156	0.595137	0.280982
	H15	H	0.167015	0.398208	0.284563
	H16	H	0.403766	0.712174	0.834654
	H17	H	0.604462	0.711837	0.159719
	H18	H	0.602128	0.280365	0.833653
	H19	H	0.402405	0.278540	0.159903
	H20	H	0.716326	0.831516	0.400591
	H21	H	0.716310	0.158700	0.595072
	H22	H	0.286698	0.831110	0.596390
	H23	H	0.287414	0.158803	0.399897
	H24	H	0.902521	0.332299	0.212499
	H25	H	0.102507	0.658473	0.210992
	H26	H	0.103239	0.331915	0.782161
	H27	H	0.903127	0.657732	0.780695
	H28	H	0.216171	0.896866	0.334507
	H29	H	0.213162	0.090349	0.661800
	H30	H	0.787231	0.094449	0.334807
	H31	H	0.787814	0.896882	0.662001
	H32	H	0.338034	0.209478	0.898946
	H33	H	0.666467	0.208488	0.095776
	H34	H	0.338400	0.778755	0.098463
	H35	H	0.666632	0.782332	0.899009
	H36	H	0.337943	0.895203	0.213168
	H37	H	0.666457	0.093384	0.211290
	H38	H	0.337098	0.094608	0.783402
	H39	H	0.665202	0.896748	0.782289
	H40	H	0.901482	0.211963	0.334913
	H41	H	0.100667	0.209916	0.660434
	H42	H	0.102473	0.779761	0.334908
	H43	H	0.900840	0.777628	0.659956
	H44	H	0.217557	0.331675	0.899738
	H45	H	0.216522	0.659087	0.092172
	H46	H	0.787746	0.331221	0.095779
	H47	H	0.788137	0.657937	0.898711
	H48	H	0.405070	0.112041	0.590014
	H49	H	0.595974	0.879809	0.589224
	H50	H	0.597895	0.112453	0.404844
	H51	H	0.413683	0.882511	0.410439
	H52	H	0.597708	0.400317	0.113903
	H53	H	0.598345	0.589905	0.880504
	H54	H	0.411586	0.596365	0.115037
	H55	H	0.409108	0.402930	0.880027
	H56	H	0.122401	0.594533	0.398527
	H57	H	0.883513	0.596613	0.583807
	H58	H	0.119686	0.403224	0.593617
	H59	H	0.883522	0.403656	0.402482
	H60	H	0.119748	0.397897	0.588411
	H61	H	0.889912	0.577495	0.583635
	H62	H	0.117484	0.589233	0.411541
	H63	H	0.883825	0.401048	0.404043
	H64	H	0.401440	0.583323	0.113748
	H65	H	0.593880	0.586930	0.881684
	H66	H	0.593629	0.402601	0.112199
	H67	H	0.412485	0.401121	0.880940
	H68	H	0.593628	0.111686	0.398945
	H69	H	0.594923	0.878420	0.594127
	H70	H	0.408267	0.111988	0.593306
	H71	H	0.400856	0.877919	0.406875
	H72	H	0.913246	0.609675	0.088260
	H73	H	0.092372	0.375968	0.105253
	H74	H	0.094243	0.612832	0.894553
	H75	H	0.916212	0.376198	0.889295
	H76	H	0.092594	0.903657	0.612335
	H77	H	0.095480	0.091685	0.380206
	H78	H	0.906857	0.097295	0.616778
	H79	H	0.910907	0.899008	0.380056
	H80	H	0.621542	0.088862	0.898295
	H81	H	0.386601	0.083921	0.089730
	H82	H	0.617930	0.904846	0.087901
	H83	H	0.387267	0.905368	0.911767
	H84	H	0.618992	0.904066	0.092859
	H85	H	0.383718	0.088347	0.093957
	H86	H	0.618749	0.091663	0.908825
	H87	H	0.383389	0.906070	0.900126
	H88	H	0.901321	0.080808	0.614417
	H89	H	0.096334	0.086301	0.382358
	H90	H	0.091269	0.897567	0.614382
	H91	H	0.904812	0.902966	0.380667
	H92	H	0.089717	0.608221	0.907379
	H93	H	0.085571	0.384622	0.081877
	H94	H	0.907700	0.611064	0.086066
	H95	H	0.919432	0.384805	0.916758
	H96	H	0.409305	0.110232	0.589558
	H97	H	0.590068	0.880423	0.590257
	H98	H	0.591506	0.109507	0.405574
	H99	H	0.411700	0.876831	0.397341
	H100	H	0.593666	0.397651	0.113309
	H101	H	0.593834	0.592925	0.881102
	H102	H	0.417853	0.581722	0.108903
	H103	H	0.409079	0.398969	0.879234
	H104	H	0.117308	0.580775	0.399454
	H105	H	0.881929	0.585176	0.600498
	H106	H	0.117659	0.404667	0.586363
	H107	H	0.884842	0.403362	0.405155
	H108	H	0.909049	0.611890	0.091726
	H109	H	0.109529	0.376405	0.086073
	H110	H	0.103123	0.612443	0.905723
	H111	H	0.893945	0.374910	0.907506
	H112	H	0.097089	0.900103	0.614977
	H113	H	0.091063	0.088502	0.382193
	H114	H	0.918157	0.085598	0.610015
	H115	H	0.910709	0.905425	0.383032
	H116	H	0.616685	0.080123	0.904883
	H117	H	0.385126	0.089905	0.087032
	H118	H	0.619354	0.900374	0.089384
	H119	H	0.382365	0.895689	0.906093
	C120	C	0.378783	0.003361	0.619783
	C121	C	0.622686	0.987367	0.619098
	C122	C	0.623642	0.003571	0.375229
	C123	C	0.379820	0.986838	0.376218
	C124	C	0.623937	0.372546	0.005257
	C125	C	0.624083	0.617211	0.989181
	C126	C	0.381630	0.616461	0.005100
	C127	C	0.381414	0.372846	0.988186
	C128	C	0.010559	0.616860	0.374367
	C129	C	0.993363	0.615570	0.618063
	C130	C	0.010573	0.373161	0.618731
	C131	C	0.992893	0.373983	0.375566
	C132	C	0.880882	0.503139	0.118072
	C133	C	0.124573	0.486654	0.118791
	C134	C	0.124863	0.503371	0.874588
	C135	C	0.880903	0.486402	0.875367
	C136	C	0.123060	0.872434	0.505982
	C137	C	0.122773	0.117016	0.489135
	C138	C	0.879718	0.117337	0.506153
	C139	C	0.879873	0.873284	0.489507
	C140	C	0.510725	0.116507	0.875565
	C141	C	0.493757	0.116108	0.118688
	C142	C	0.510595	0.873339	0.119559
	C143	C	0.492946	0.874022	0.876630
	C144	C	0.381216	0.880603	0.675345
	C145	C	0.620905	0.109915	0.674162
	C146	C	0.621382	0.880546	0.321034
	C147	C	0.381773	0.109500	0.319824
	C148	C	0.678574	0.377180	0.882030
	C149	C	0.679507	0.613697	0.111905
	C150	C	0.327329	0.614270	0.881921
	C151	C	0.326153	0.376192	0.111221
	C152	C	0.886623	0.671765	0.377034
	C153	C	0.117408	0.670557	0.614353
	C154	C	0.886894	0.318279	0.616921
	C155	C	0.116851	0.319371	0.378460
	C156	C	0.887384	0.374816	0.674782
	C157	C	0.117558	0.613499	0.672364
	C158	C	0.886977	0.614903	0.319241
	C159	C	0.117348	0.377460	0.321470
	C160	C	0.383531	0.673248	0.882746
	C161	C	0.623290	0.672917	0.111395
	C162	C	0.622362	0.318127	0.882466
	C163	C	0.382691	0.317128	0.111152
	C164	C	0.678599	0.880505	0.379358
	C165	C	0.678152	0.110073	0.615896
	C166	C	0.323923	0.880264	0.617288
	C167	C	0.324764	0.109800	0.378543
	C168	C	0.882372	0.380771	0.174262
	C169	C	0.122499	0.609688	0.173121
	C170	C	0.123073	0.380650	0.819967
	C171	C	0.882816	0.608891	0.818952
	C172	C	0.178194	0.876458	0.383208
	C173	C	0.176602	0.112516	0.612633
	C174	C	0.824954	0.114928	0.383365
	C175	C	0.825134	0.876287	0.612674
	C176	C	0.387113	0.171911	0.878352
	C177	C	0.617473	0.170667	0.115998
	C178	C	0.387229	0.817057	0.118337
	C179	C	0.617089	0.819655	0.878868
	C180	C	0.386957	0.874893	0.175306
	C181	C	0.617426	0.113699	0.173677
	C182	C	0.386648	0.114708	0.820983
	C183	C	0.616534	0.876617	0.821027
	C184	C	0.881385	0.173570	0.383569
	C185	C	0.120327	0.171562	0.612022
	C186	C	0.121929	0.817715	0.383518
	C187	C	0.881476	0.817150	0.611867
	C188	C	0.180160	0.380579	0.878213
	C189	C	0.179484	0.609995	0.114595
	C190	C	0.825385	0.380223	0.116181
	C191	C	0.825525	0.609160	0.877264
	C192	C	0.401100	0.089299	0.597540
	C193	C	0.600283	0.901694	0.597564
	C194	C	0.601003	0.089058	0.396639
	C195	C	0.402110	0.901094	0.398382
	C196	C	0.601464	0.393789	0.090979
	C197	C	0.601737	0.596079	0.903366
	C198	C	0.403869	0.593878	0.090544
	C199	C	0.403676	0.394492	0.902218
	C200	C	0.096739	0.594912	0.396556
	C201	C	0.907492	0.592932	0.595984
	C202	C	0.096805	0.395483	0.596132
	C203	C	0.906382	0.395942	0.397592
	C204	C	0.903344	0.588671	0.095380
	C205	C	0.102613	0.401139	0.097446
	C206	C	0.102367	0.589248	0.896146
	C207	C	0.903260	0.400801	0.897866
	C208	C	0.100172	0.893993	0.591830
	C209	C	0.100635	0.095379	0.403678
	C210	C	0.902265	0.094656	0.591703
	C211	C	0.902373	0.895873	0.403414
	C212	C	0.596791	0.093666	0.897714
	C213	C	0.407404	0.093932	0.096643
	C214	C	0.596417	0.896135	0.096695
	C215	C	0.406714	0.896044	0.899236
	Zn216	Zn	0.501104	-0.004568	0.748265
	Zn217	Zn	0.501606	-0.004880	0.246966
	Zn218	Zn	0.751933	0.494968	-0.002646
	Zn219	Zn	0.253038	0.495415	-0.003795
	Zn220	Zn	0.001188	0.744178	0.497120
	Zn221	Zn	0.001536	0.245897	0.497551
	Zn222	Zn	0.002942	0.494636	0.746423
	Zn223	Zn	0.002055	0.495269	0.247043
	Zn224	Zn	0.502258	0.746160	-0.002127
	Zn225	Zn	0.503016	0.243824	-0.003071
	Zn226	Zn	0.751571	-0.004594	0.497677
	Zn227	Zn	0.250928	-0.005499	0.498027
	N228	N	0.414606	0.958203	0.677046
	N229	N	0.587048	0.032520	0.676222
	N230	N	0.587708	0.957819	0.318543
	N231	N	0.415361	0.031989	0.318408
	N232	N	0.679880	0.410150	0.959423
	N233	N	0.679915	0.579673	0.034970
	N234	N	0.326225	0.579652	0.958955
	N235	N	0.325311	0.410301	0.033850
	N236	N	0.964427	0.673120	0.410868
	N237	N	0.039147	0.672350	0.581456
	N238	N	0.964755	0.317109	0.582821
	N239	N	0.038612	0.317258	0.411438
	N240	N	0.965135	0.408508	0.675784
	N241	N	0.039784	0.579932	0.674505
	N242	N	0.964970	0.581711	0.317453
	N243	N	0.039323	0.410758	0.319734
	N244	N	0.416566	0.674767	0.960267
	N245	N	0.589809	0.675480	0.034041
	N246	N	0.589358	0.315037	0.960171
	N247	N	0.416212	0.314884	0.033676
	N248	N	0.680225	0.958087	0.412248
	N249	N	0.679235	0.032944	0.582324
	N250	N	0.322413	0.957567	0.583506
	N251	N	0.323268	0.032610	0.412815
	N252	N	0.916032	0.458037	0.175597
	N253	N	0.089096	0.532062	0.175949
	N254	N	0.089289	0.457962	0.817847
	N255	N	0.916542	0.531434	0.817750
	N256	N	0.179026	0.909778	0.460511
	N257	N	0.178258	0.079270	0.535317
	N258	N	0.823901	0.080459	0.460365
	N259	N	0.824128	0.910540	0.535343
	N260	N	0.465116	0.173021	0.911697
	N261	N	0.539613	0.172225	0.082531
	N262	N	0.465181	0.815889	0.084434
	N263	N	0.539156	0.817939	0.912729
	N264	N	0.464531	0.909026	0.176272
	N265	N	0.539333	0.080560	0.175437
	N266	N	0.464532	0.081151	0.818987
	N267	N	0.538423	0.909685	0.819461
	N268	N	0.914653	0.175315	0.461050
	N269	N	0.087481	0.174346	0.534433
	N270	N	0.088263	0.815165	0.460918
	N271	N	0.914688	0.815166	0.534210
	N272	N	0.181141	0.457976	0.911480
	N273	N	0.180794	0.532712	0.081274
	N274	N	0.824345	0.457392	0.081826
	N275	N	0.824262	0.532119	0.911752
	O276	O	0.919686	0.948394	-0.009831
	H277	H	0.922344	0.945373	-0.002216
	H278	H	0.915456	0.956696	-0.014623
	O279	O	0.510426	0.531820	0.507216
	H280	H	0.510141	0.540342	0.507006
	H281	H	0.504889	0.527666	0.510115
	O282	O	-0.000523	0.023967	0.023801
	H283	H	-0.011559	0.030198	0.026871
	H284	H	-0.005166	0.025729	0.019283
	O285	O	0.450584	0.566901	0.411681
	H286	H	0.451130	0.561130	0.410292
	H287	H	0.446036	0.573382	0.412497
	O288	O	-0.010880	0.039709	0.038676
	H289	H	-0.003486	0.038625	0.027153
	H290	H	-0.012918	0.033473	0.041846
	O291	O	-0.075384	1.025985	0.034635
	H292	H	-0.077209	1.022009	0.029040
	H293	H	-0.066478	1.024148	0.045142
	O294	O	0.030414	0.996158	-0.040690
	H295	H	0.038937	0.999898	-0.036227
	H296	H	0.036104	0.989280	-0.033811
	O297	O	0.480370	0.494159	0.446690
	H298	H	0.480008	0.500151	0.438954
	H299	H	0.486439	0.497810	0.448459
	O300	O	0.458017	0.463782	0.493266
	H301	H	0.466671	0.454108	0.495296
	H302	H	0.461431	0.468926	0.485158
	O303	O	1.080235	0.018736	1.040917
	H304	H	1.083922	0.020020	1.029597
	H305	H	1.080197	0.017525	1.049257
	O306	O	0.044571	0.951997	0.962927
	H307	H	0.047672	0.943769	0.964503
	H308	H	0.047140	0.956702	0.957729
	O309	O	-0.008346	0.999367	1.067951
	H310	H	-0.016126	0.986138	1.075122
	H311	H	-0.023320	1.001441	1.056625
	O312	O	0.008741	-0.049838	1.032982
	H313	H	0.008828	-0.061920	1.041996
	H314	H	0.004825	-0.049659	1.029392
	O315	O	0.502974	0.409388	0.525675
	H316	H	0.506227	0.407132	0.524198
	H317	H	0.507907	0.406122	0.525241
	O318	O	0.025656	0.001278	1.033140
	H319	H	0.026961	-0.010487	1.034649
	H320	H	0.020215	0.013016	1.029534
	O321	O	0.498814	0.552128	0.426423
	H322	H	0.494344	0.563708	0.427834
	H323	H	0.493123	0.547343	0.414199
	O324	O	0.900889	-0.086052	1.064662
	H325	H	0.903418	-0.081403	1.053456
	H326	H	0.900772	-0.079764	1.080074
	O327	O	0.991070	1.007432	0.988113
	H328	H	0.998722	1.019651	0.989574
	H329	H	0.997141	1.019234	0.984567
	O330	O	0.535848	0.483964	0.476016
	H331	H	0.526592	0.492053	0.471439
	H332	H	0.538977	0.484216	0.469427
	O333	O	0.472445	0.593459	0.488947
	H334	H	0.471703	0.582117	0.494054
	H335	H	0.470349	0.593696	0.489548
	O336	O	0.416109	0.482216	0.485878
	H337	H	0.408269	0.484408	0.483002
	H338	H	0.422940	0.491212	0.481438
	O339	O	0.494839	0.485797	0.503656
	H340	H	0.498603	0.485727	0.506272
	H341	H	0.494980	0.481276	0.510579
	O342	O	0.495436	0.507927	0.502967
	H343	H	0.492396	0.510681	0.495142
	H344	H	0.493312	0.505355	0.502829
	O345	O	0.501634	0.466265	0.508161
	H346	H	0.500278	0.460950	0.513798
	H347	H	0.498450	0.470782	0.515494
