data_Molecule from HDF5

_cell_length_a		16.325980
_cell_length_b		16.359665
_cell_length_c		16.222472
_cell_angle_alpha	90.067034
_cell_angle_beta	90.104940
_cell_angle_gamma	90.147835
_symmetry_space_group_name_H-M	'P 1'
_symmetry_Int_Tables_number		1

loop_
	_symmetry_equiv_pos_as_xyz
	x,y,z

loop_
	_atom_site_label
	_atom_site_type_symbol
	_atom_site_fract_x
	_atom_site_fract_y
	_atom_site_fract_z
	H0	H	0.408439	0.839324	0.715795
	H1	H	0.604653	0.166557	0.717296
	H2	H	0.602895	0.840465	0.287447
	H3	H	0.406634	0.166584	0.286898
	H4	H	0.721343	0.403863	0.839548
	H5	H	0.721151	0.601985	0.167127
	H6	H	0.290286	0.603007	0.839714
	H7	H	0.293432	0.404825	0.167328
	H8	H	0.842473	0.718254	0.404059
	H9	H	0.168207	0.720290	0.603066
	H10	H	0.843517	0.286841	0.603394
	H11	H	0.168443	0.288372	0.403674
	H12	H	0.842767	0.405335	0.716573
	H13	H	0.169540	0.602407	0.717972
	H14	H	0.842284	0.600714	0.288335
	H15	H	0.169370	0.406433	0.289864
	H16	H	0.407099	0.717620	0.838752
	H17	H	0.607737	0.719905	0.166339
	H18	H	0.606944	0.287572	0.839191
	H19	H	0.408382	0.288233	0.166224
	H20	H	0.720772	0.840748	0.401848
	H21	H	0.722579	0.165468	0.603323
	H22	H	0.288536	0.840591	0.602536
	H23	H	0.290356	0.166461	0.402609
	H24	H	0.909379	0.339601	0.216272
	H25	H	0.102945	0.666810	0.217145
	H26	H	0.102079	0.340170	0.789100
	H27	H	0.907453	0.666063	0.788511
	H28	H	0.218294	0.905406	0.337181
	H29	H	0.221049	0.102671	0.667010
	H30	H	0.791070	0.102341	0.338231
	H31	H	0.790231	0.904709	0.666547
	H32	H	0.343035	0.217546	0.903143
	H33	H	0.668776	0.219933	0.103097
	H34	H	0.343201	0.787821	0.101244
	H35	H	0.669393	0.787944	0.902391
	H36	H	0.342193	0.905743	0.215283
	H37	H	0.669065	0.102304	0.217851
	H38	H	0.342198	0.099024	0.788876
	H39	H	0.669530	0.905842	0.787516
	H40	H	0.906156	0.218956	0.339239
	H41	H	0.104454	0.218368	0.667169
	H42	H	0.104363	0.787954	0.339276
	H43	H	0.905447	0.788309	0.667153
	H44	H	0.220874	0.340609	0.904312
	H45	H	0.222716	0.665909	0.103470
	H46	H	0.789724	0.340630	0.103423
	H47	H	0.790220	0.665337	0.902815
	H48	H	0.417019	0.120143	0.605320
	H49	H	0.608368	0.884441	0.595872
	H50	H	0.597304	0.118185	0.411067
	H51	H	0.413003	0.888411	0.408878
	H52	H	0.596522	0.405953	0.120041
	H53	H	0.591243	0.612647	0.883643
	H54	H	0.418522	0.590661	0.116149
	H55	H	0.412841	0.415292	0.887601
	H56	H	0.120577	0.597297	0.413096
	H57	H	0.886165	0.605777	0.599543
	H58	H	0.119224	0.411744	0.588276
	H59	H	0.889611	0.407984	0.414485
	H60	H	0.121788	0.416214	0.601711
	H61	H	0.892961	0.595906	0.585627
	H62	H	0.121618	0.596203	0.409950
	H63	H	0.891553	0.414271	0.410777
	H64	H	0.418910	0.602866	0.120100
	H65	H	0.615821	0.592740	0.883042
	H66	H	0.603109	0.413125	0.120548
	H67	H	0.418388	0.408966	0.886813
	H68	H	0.600889	0.118338	0.412166
	H69	H	0.591125	0.887324	0.601723
	H70	H	0.418238	0.114482	0.586853
	H71	H	0.411492	0.888371	0.410171
	H72	H	0.915252	0.618622	0.095639
	H73	H	0.102940	0.384181	0.102457
	H74	H	0.099479	0.618549	0.910627
	H75	H	0.913417	0.388141	0.911376
	H76	H	0.098547	0.909782	0.619357
	H77	H	0.093869	0.088294	0.388888
	H78	H	0.920645	0.091257	0.615168
	H79	H	0.905676	0.913817	0.385671
	H80	H	0.621962	0.091756	0.905219
	H81	H	0.390126	0.103911	0.087634
	H82	H	0.620472	0.913735	0.091306
	H83	H	0.389282	0.907765	0.906477
	H84	H	0.622277	0.912799	0.099728
	H85	H	0.393500	0.087893	0.091449
	H86	H	0.624663	0.102624	0.909257
	H87	H	0.390385	0.907456	0.912774
	H88	H	0.914925	0.104558	0.621568
	H89	H	0.092761	0.106220	0.385270
	H90	H	0.100013	0.913755	0.619392
	H91	H	0.919264	0.915053	0.389892
	H92	H	0.098366	0.618278	0.911730
	H93	H	0.094360	0.389220	0.096548
	H94	H	0.910853	0.618565	0.094089
	H95	H	0.911781	0.387664	0.910653
	H96	H	0.402327	0.121681	0.593682
	H97	H	0.596068	0.891739	0.584243
	H98	H	0.599920	0.120309	0.408658
	H99	H	0.411435	0.887603	0.408376
	H100	H	0.594342	0.414646	0.116454
	H101	H	0.587884	0.582825	0.893838
	H102	H	0.408263	0.595610	0.121474
	H103	H	0.410196	0.407862	0.884170
	H104	H	0.122346	0.598635	0.410460
	H105	H	0.890580	0.588505	0.602200
	H106	H	0.124668	0.402942	0.597991
	H107	H	0.888850	0.408203	0.407072
	H108	H	0.911641	0.620067	0.098231
	H109	H	0.104453	0.387722	0.091403
	H110	H	0.099145	0.619110	0.912265
	H111	H	0.913657	0.387622	0.909701
	H112	H	0.096350	0.912448	0.617252
	H113	H	0.108299	0.097145	0.383270
	H114	H	0.906246	0.091412	0.620320
	H115	H	0.914148	0.902516	0.384432
	H116	H	0.618932	0.094830	0.916456
	H117	H	0.387395	0.098104	0.102700
	H118	H	0.623413	0.906129	0.094364
	H119	H	0.391457	0.913191	0.908862
	C120	C	0.383874	0.011152	0.623835
	C121	C	0.627841	0.995182	0.623754
	C122	C	0.627294	0.011474	0.381055
	C123	C	0.383871	0.995663	0.380455
	C124	C	0.627399	0.382042	0.011086
	C125	C	0.627987	0.625251	0.994877
	C126	C	0.385414	0.625035	0.011132
	C127	C	0.385420	0.382107	0.994399
	C128	C	0.013876	0.625223	0.382038
	C129	C	0.997713	0.625364	0.624718
	C130	C	0.014319	0.381570	0.624729
	C131	C	0.997567	0.381706	0.381672
	C132	C	0.884272	0.511468	0.124656
	C133	C	0.128560	0.494774	0.125430
	C134	C	0.127359	0.511460	0.881887
	C135	C	0.884217	0.494946	0.881555
	C136	C	0.126913	0.882624	0.510617
	C137	C	0.127087	0.125444	0.494624
	C138	C	0.884738	0.124585	0.510830
	C139	C	0.884091	0.881942	0.494729
	C140	C	0.514158	0.125040	0.880553
	C141	C	0.497716	0.125572	0.123930
	C142	C	0.514086	0.882291	0.123513
	C143	C	0.498129	0.881164	0.880420
	C144	C	0.386915	0.888248	0.678567
	C145	C	0.625496	0.117441	0.679730
	C146	C	0.623958	0.889115	0.325225
	C147	C	0.386522	0.118074	0.325099
	C148	C	0.683307	0.383693	0.888209
	C149	C	0.683610	0.622590	0.117956
	C150	C	0.329057	0.622909	0.888344
	C151	C	0.330957	0.384485	0.117977
	C152	C	0.891068	0.679857	0.383937
	C153	C	0.120085	0.681601	0.623417
	C154	C	0.891886	0.325612	0.623048
	C155	C	0.120048	0.326563	0.383585
	C156	C	0.891543	0.384576	0.679063
	C157	C	0.120468	0.623057	0.680391
	C158	C	0.891097	0.622011	0.326349
	C159	C	0.120512	0.385326	0.327368
	C160	C	0.386993	0.680032	0.887932
	C161	C	0.626801	0.680787	0.117808
	C162	C	0.626338	0.326014	0.887927
	C163	C	0.387873	0.326459	0.117530
	C164	C	0.682711	0.889292	0.382197
	C165	C	0.683806	0.117172	0.622632
	C166	C	0.327938	0.888826	0.622032
	C167	C	0.328556	0.118002	0.382497
	C168	C	0.887847	0.388494	0.179106
	C169	C	0.124881	0.617696	0.180154
	C170	C	0.124145	0.388903	0.826205
	C171	C	0.886662	0.617309	0.825988
	C172	C	0.181275	0.884889	0.386688
	C173	C	0.182591	0.122807	0.618062
	C174	C	0.829198	0.122382	0.387319
	C175	C	0.828507	0.884388	0.617898
	C176	C	0.391701	0.179692	0.882767
	C177	C	0.620392	0.181225	0.122564
	C178	C	0.391673	0.826398	0.121374
	C179	C	0.620658	0.826056	0.882212
	C180	C	0.391272	0.884777	0.178198
	C181	C	0.620429	0.122945	0.179547
	C182	C	0.391213	0.120965	0.825854
	C183	C	0.620840	0.884415	0.825059
	C184	C	0.886034	0.180432	0.387657
	C185	C	0.124709	0.180146	0.618227
	C186	C	0.124756	0.826436	0.387479
	C187	C	0.885641	0.826460	0.618029
	C188	C	0.182982	0.389291	0.883378
	C189	C	0.184127	0.617328	0.123589
	C190	C	0.829036	0.388795	0.122605
	C191	C	0.828552	0.616942	0.883139
	C192	C	0.406165	0.096495	0.601924
	C193	C	0.605079	0.909744	0.600693
	C194	C	0.605643	0.096958	0.404016
	C195	C	0.405557	0.910309	0.402800
	C196	C	0.604623	0.404591	0.096900
	C197	C	0.605033	0.602602	0.908993
	C198	C	0.408376	0.602915	0.097095
	C199	C	0.407423	0.404310	0.908259
	C200	C	0.099281	0.603849	0.404630
	C201	C	0.912040	0.603124	0.602383
	C202	C	0.099871	0.403740	0.602368
	C203	C	0.912060	0.403589	0.404193
	C204	C	0.906128	0.596950	0.102405
	C205	C	0.106900	0.409195	0.103224
	C206	C	0.105401	0.596678	0.904670
	C207	C	0.906566	0.409637	0.903981
	C208	C	0.104607	0.905376	0.596529
	C209	C	0.104949	0.103710	0.408142
	C210	C	0.907358	0.102327	0.596797
	C211	C	0.906592	0.904036	0.408883
	C212	C	0.599785	0.102936	0.903454
	C213	C	0.412540	0.103104	0.100792
	C214	C	0.599864	0.904346	0.101588
	C215	C	0.412484	0.903081	0.902809
	Zn216	Zn	0.506056	0.002866	0.752033
	Zn217	Zn	0.505665	0.003954	0.252322
	Zn218	Zn	0.755699	0.502849	0.003065
	Zn219	Zn	0.257097	0.503314	0.003291
	Zn220	Zn	0.005479	0.754372	0.503279
	Zn221	Zn	0.005342	0.253498	0.502835
	Zn222	Zn	0.005698	0.503417	0.752767
	Zn223	Zn	0.006112	0.503245	0.253535
	Zn224	Zn	0.506496	0.753408	0.002749
	Zn225	Zn	0.506558	0.254035	0.001956
	Zn226	Zn	0.756582	0.003427	0.502263
	Zn227	Zn	0.254914	0.003348	0.502241
	N228	N	0.421052	0.965297	0.679916
	N229	N	0.591250	0.040426	0.680418
	N230	N	0.590394	0.966166	0.324410
	N231	N	0.420300	0.041006	0.323765
	N232	N	0.683781	0.418022	0.965671
	N233	N	0.684213	0.588439	0.040534
	N234	N	0.327858	0.589443	0.966014
	N235	N	0.329473	0.418589	0.040419
	N236	N	0.968442	0.682104	0.417725
	N237	N	0.042916	0.683139	0.589654
	N238	N	0.969425	0.323556	0.590011
	N239	N	0.042705	0.324563	0.417169
	N240	N	0.968526	0.418939	0.680102
	N241	N	0.043292	0.588785	0.681306
	N242	N	0.968306	0.588772	0.325018
	N243	N	0.043384	0.418971	0.326078
	N244	N	0.421345	0.681439	0.965420
	N245	N	0.592957	0.682640	0.040034
	N246	N	0.592355	0.324732	0.965390
	N247	N	0.420996	0.324739	0.039766
	N248	N	0.684895	0.966392	0.416203
	N249	N	0.685338	0.040151	0.588664
	N250	N	0.325719	0.966125	0.588796
	N251	N	0.326743	0.040896	0.416192
	N252	N	0.921630	0.465729	0.180507
	N253	N	0.091147	0.540629	0.181411
	N254	N	0.090434	0.465802	0.825183
	N255	N	0.920785	0.540465	0.825026
	N256	N	0.182807	0.919017	0.464282
	N257	N	0.184087	0.089543	0.540030
	N258	N	0.828219	0.088443	0.464833
	N259	N	0.827178	0.917892	0.540227
	N260	N	0.469280	0.182229	0.915996
	N261	N	0.542977	0.183156	0.088589
	N262	N	0.469038	0.824783	0.088155
	N263	N	0.543205	0.823951	0.915762
	N264	N	0.468381	0.918905	0.179662
	N265	N	0.543437	0.088997	0.180291
	N266	N	0.468475	0.087730	0.824380
	N267	N	0.543587	0.917961	0.823805
	N268	N	0.920087	0.181807	0.465394
	N269	N	0.090898	0.181909	0.540519
	N270	N	0.091822	0.824885	0.465476
	N271	N	0.919828	0.825052	0.540511
	N272	N	0.184886	0.466393	0.917459
	N273	N	0.186748	0.539823	0.090545
	N274	N	0.826578	0.466058	0.089487
	N275	N	0.826934	0.539825	0.916758
	O276	O	0.501509	0.531295	-0.469460
	H277	H	0.490083	0.527331	-0.467504
	H278	H	0.500770	0.531949	-0.476106
	O279	O	-0.025532	-0.087995	0.014857
	H280	H	-0.032785	-0.090990	0.014191
	H281	H	-0.030848	-0.085242	0.012013
	O282	O	-0.019440	-0.085028	0.989112
	H283	H	-0.013515	-0.090406	0.990416
	H284	H	-0.020402	-0.088524	0.984140
	O285	O	0.402251	0.479551	0.520088
	H286	H	0.392430	0.472129	0.513932
	H287	H	0.402997	0.494969	0.524469
	O288	O	0.498140	0.506867	0.479598
	H289	H	0.505681	0.510296	0.482940
	H290	H	0.508458	0.511699	0.489500
	O291	O	0.495207	0.503898	0.491515
	H292	H	0.496635	0.504064	0.489196
	H293	H	0.500503	0.501825	0.485661
	O294	O	-0.000486	-0.070805	-0.016158
	H295	H	-0.005276	-0.072917	-0.017690
	H296	H	-0.006970	-0.063430	-0.013366
	O297	O	0.497618	0.481308	0.507936
	H298	H	0.507005	0.476565	0.497258
	H299	H	0.501760	0.481513	0.511572
	O300	O	0.510569	1.460330	0.547620
	H301	H	0.500455	1.470679	0.545779
	H302	H	0.508421	1.452749	0.545222
	O303	O	0.568598	0.475763	0.523272
	H304	H	0.567861	0.475894	0.528762
	H305	H	0.564194	0.474348	0.523961
	O306	O	-0.055645	-0.043622	0.996847
	H307	H	-0.051660	-0.050950	0.989705
	H308	H	-0.057006	-0.046096	0.996347
	O309	O	0.952575	0.928781	0.990792
	H310	H	0.952870	0.919564	0.987672
	H311	H	0.955993	0.929023	0.993992
	O312	O	0.450793	0.572914	0.454233
	H313	H	0.449540	0.570283	0.457630
	H314	H	0.437262	0.573021	0.451907
	O315	O	0.445058	0.550300	0.500489
	H316	H	0.449847	0.555431	0.503582
	H317	H	0.439816	0.551880	0.498181
	O318	O	0.008681	0.911894	0.007468
	H319	H	0.012116	0.918425	0.006414
	H320	H	0.007531	0.916914	0.012843
	O321	O	0.526079	0.508523	0.495825
	H322	H	0.521149	0.504700	0.498224
	H323	H	0.524494	0.506521	0.496608
