data_Molecule from HDF5

_cell_length_a		16.658320
_cell_length_b		16.548885
_cell_length_c		16.755047
_cell_angle_alpha	90.037241
_cell_angle_beta	90.224015
_cell_angle_gamma	89.935743
_symmetry_space_group_name_H-M	'P 1'
_symmetry_Int_Tables_number		1

loop_
	_symmetry_equiv_pos_as_xyz
	x,y,z

loop_
	_atom_site_label
	_atom_site_type_symbol
	_atom_site_fract_x
	_atom_site_fract_y
	_atom_site_fract_z
	H0	H	0.365179	0.819901	0.694713
	H1	H	0.575104	0.131914	0.692983
	H2	H	0.580357	0.821364	0.248727
	H3	H	0.358110	0.126484	0.245634
	H4	H	0.697018	0.364109	0.821242
	H5	H	0.695246	0.582883	0.125748
	H6	H	0.245625	0.584062	0.820970
	H7	H	0.244784	0.364906	0.124113
	H8	H	0.814828	0.695134	0.368357
	H9	H	0.125288	0.697051	0.578752
	H10	H	0.815946	0.253976	0.577175
	H11	H	0.126055	0.255416	0.369793
	H12	H	0.817430	0.366957	0.695662
	H13	H	0.123702	0.583626	0.696525
	H14	H	0.816531	0.582879	0.249095
	H15	H	0.124473	0.369341	0.251734
	H16	H	0.364531	0.697528	0.818989
	H17	H	0.577829	0.697747	0.125982
	H18	H	0.579980	0.249012	0.821159
	H19	H	0.361342	0.249255	0.124460
	H20	H	0.694495	0.820762	0.366805
	H21	H	0.690523	0.132055	0.577794
	H22	H	0.249859	0.820096	0.578568
	H23	H	0.244526	0.127152	0.363129
	H24	H	0.866816	0.319621	0.192773
	H25	H	0.076242	0.631573	0.194374
	H26	H	0.076675	0.320468	0.751497
	H27	H	0.862442	0.630296	0.749531
	H28	H	0.198552	0.861498	0.322626
	H29	H	0.195059	0.081825	0.625149
	H30	H	0.748634	0.081626	0.318879
	H31	H	0.751141	0.871722	0.627932
	H32	H	0.315764	0.195842	0.869384
	H33	H	0.624736	0.198622	0.080023
	H34	H	0.316390	0.753335	0.078351
	H35	H	0.627879	0.757489	0.871747
	H36	H	0.318504	0.866065	0.197357
	H37	H	0.623836	0.085142	0.198116
	H38	H	0.315669	0.080026	0.752271
	H39	H	0.625967	0.869536	0.752136
	H40	H	0.868037	0.194806	0.317557
	H41	H	0.079112	0.198369	0.625366
	H42	H	0.077301	0.750284	0.320007
	H43	H	0.865707	0.753958	0.626806
	H44	H	0.191919	0.320834	0.868147
	H45	H	0.190449	0.631607	0.076700
	H46	H	0.750898	0.320129	0.076360
	H47	H	0.748823	0.631256	0.866432
	H48	H	0.380870	0.089112	0.567459
	H49	H	0.558130	0.862371	0.566465
	H50	H	0.557515	0.084820	0.389254
	H51	H	0.386028	0.861552	0.378716
	H52	H	0.554717	0.385645	0.082069
	H53	H	0.559349	0.565649	0.861892
	H54	H	0.385787	0.563713	0.081665
	H55	H	0.380241	0.394649	0.863953
	H56	H	0.081931	0.566639	0.384937
	H57	H	0.859639	0.562840	0.561592
	H58	H	0.082921	0.382878	0.560403
	H59	H	0.860099	0.391620	0.382049
	H60	H	0.078788	0.390260	0.560389
	H61	H	0.860382	0.562884	0.559071
	H62	H	0.080130	0.561363	0.386346
	H63	H	0.855969	0.383752	0.378015
	H64	H	0.381259	0.568381	0.085535
	H65	H	0.562628	0.563173	0.861212
	H66	H	0.564942	0.387100	0.083999
	H67	H	0.388932	0.387235	0.865302
	H68	H	0.561405	0.088162	0.383890
	H69	H	0.559774	0.864899	0.558743
	H70	H	0.389557	0.084206	0.560582
	H71	H	0.393675	0.868721	0.389263
	H72	H	0.887533	0.584240	0.056173
	H73	H	0.056755	0.363217	0.065222
	H74	H	0.056387	0.587685	0.882599
	H75	H	0.888983	0.364860	0.880308
	H76	H	0.056660	0.888714	0.580228
	H77	H	0.056197	0.062503	0.363673
	H78	H	0.876521	0.063831	0.584946
	H79	H	0.885116	0.883744	0.363417
	H80	H	0.582220	0.065816	0.888308
	H81	H	0.360566	0.060503	0.061299
	H82	H	0.581439	0.886619	0.061973
	H83	H	0.358401	0.886587	0.879755
	H84	H	0.580495	0.888669	0.059263
	H85	H	0.362153	0.061973	0.056939
	H86	H	0.580713	0.058060	0.882459
	H87	H	0.358158	0.884114	0.882094
	H88	H	0.882982	0.063810	0.582881
	H89	H	0.059125	0.064338	0.361453
	H90	H	0.059407	0.886183	0.582814
	H91	H	0.877903	0.884430	0.360543
	H92	H	0.056080	0.585974	0.887097
	H93	H	0.059006	0.364750	0.059780
	H94	H	0.876820	0.589600	0.060125
	H95	H	0.883601	0.365810	0.889511
	H96	H	0.378304	0.086356	0.555998
	H97	H	0.566221	0.860757	0.563163
	H98	H	0.554474	0.085880	0.382649
	H99	H	0.380376	0.863614	0.391768
	H100	H	0.559439	0.394789	0.080008
	H101	H	0.559398	0.562023	0.862956
	H102	H	0.378413	0.561735	0.083687
	H103	H	0.378844	0.383265	0.860967
	H104	H	0.082451	0.562137	0.381362
	H105	H	0.860483	0.560667	0.560550
	H106	H	0.083667	0.388087	0.567120
	H107	H	0.859549	0.383686	0.386611
	H108	H	0.886775	0.588702	0.067928
	H109	H	0.062955	0.362118	0.064111
	H110	H	0.060749	0.588185	0.885168
	H111	H	0.878569	0.361707	0.880829
	H112	H	0.060431	0.890677	0.581731
	H113	H	0.059239	0.060527	0.362176
	H114	H	0.880316	0.069298	0.585683
	H115	H	0.881347	0.890491	0.364085
	H116	H	0.584433	0.065639	0.878998
	H117	H	0.362611	0.057185	0.058509
	H118	H	0.580462	0.890280	0.062781
	H119	H	0.360033	0.886900	0.882783
	C120	C	0.350431	-0.016418	0.593686
	C121	C	0.592348	0.966681	0.594311
	C122	C	0.591770	-0.016232	0.352158
	C123	C	0.350257	0.965580	0.351516
	C124	C	0.592871	0.354280	-0.018711
	C125	C	0.593492	0.596939	0.963633
	C126	C	0.349096	0.597565	-0.018203
	C127	C	0.348806	0.354078	0.964356
	C128	C	-0.020710	0.596754	0.351525
	C129	C	0.962318	0.595585	0.593471
	C130	C	-0.020461	0.354015	0.594421
	C131	C	0.961655	0.354654	0.351696
	C132	C	0.851118	0.484182	0.093225
	C133	C	0.091824	0.466783	0.094626
	C134	C	0.090799	0.484432	0.852529
	C135	C	0.849919	0.467034	0.851142
	C136	C	0.092404	0.853339	0.481087
	C137	C	0.091996	0.095785	0.463894
	C138	C	0.848821	0.097273	0.481641
	C139	C	0.849388	0.854198	0.464459
	C140	C	0.479796	0.096160	0.851413
	C141	C	0.462921	0.095072	0.093414
	C142	C	0.479626	0.854339	0.094407
	C143	C	0.462173	0.854238	0.851029
	C144	C	0.347147	0.866708	0.654551
	C145	C	0.593684	0.084609	0.653500
	C146	C	0.597003	0.867496	0.290291
	C147	C	0.342525	0.080743	0.287697
	C148	C	0.655578	0.347617	0.866861
	C149	C	0.654549	0.600328	0.079453
	C150	C	0.287218	0.601288	0.866551
	C151	C	0.286185	0.348292	0.078478
	C152	C	0.861937	0.656113	0.349649
	C153	C	0.078546	0.656823	0.596797
	C154	C	0.863053	0.293419	0.596335
	C155	C	0.078997	0.295033	0.350719
	C156	C	0.863533	0.349940	0.654995
	C157	C	0.077914	0.600376	0.655297
	C158	C	0.862701	0.600210	0.290380
	C159	C	0.078466	0.351722	0.292136
	C160	C	0.346205	0.657798	0.865627
	C161	C	0.596274	0.657674	0.079641
	C162	C	0.597421	0.290279	0.866898
	C163	C	0.344436	0.290980	0.078807
	C164	C	0.653702	0.867204	0.348981
	C165	C	0.651031	0.084709	0.596245
	C166	C	0.290020	0.866667	0.596615
	C167	C	0.285927	0.080865	0.345891
	C168	C	0.848535	0.366435	0.152918
	C169	C	0.094447	0.584448	0.154222
	C170	C	0.094355	0.367219	0.792057
	C171	C	0.845181	0.583644	0.789808
	C172	C	0.155829	0.846154	0.367425
	C173	C	0.154300	0.099664	0.578906
	C174	C	0.789181	0.099563	0.365046
	C175	C	0.790343	0.852695	0.580956
	C176	C	0.362596	0.155924	0.850239
	C177	C	0.578186	0.157837	0.097724
	C178	C	0.363317	0.793161	0.096929
	C179	C	0.580221	0.795842	0.851621
	C180	C	0.364192	0.849451	0.155874
	C181	C	0.577908	0.101276	0.156460
	C182	C	0.362341	0.098402	0.792303
	C183	C	0.579380	0.851684	0.792139
	C184	C	0.848428	0.155828	0.364380
	C185	C	0.096337	0.157395	0.579256
	C186	C	0.095561	0.790827	0.366259
	C187	C	0.847509	0.794222	0.580728
	C188	C	0.151460	0.367199	0.850091
	C189	C	0.151073	0.584642	0.095874
	C190	C	0.791049	0.366799	0.095224
	C191	C	0.788667	0.583912	0.848058
	C192	C	0.375805	0.065377	0.568532
	C193	C	0.568268	0.884159	0.569740
	C194	C	0.565170	0.065049	0.377909
	C195	C	0.378620	0.885443	0.378924
	C196	C	0.566973	0.381553	0.061107
	C197	C	0.567668	0.571081	0.882926
	C198	C	0.374570	0.572046	0.062530
	C199	C	0.375257	0.380914	0.884222
	C200	C	0.060422	0.570694	0.376893
	C201	C	0.881396	0.569365	0.567648
	C202	C	0.060751	0.379784	0.569789
	C203	C	0.879869	0.379525	0.375491
	C204	C	0.876434	0.566071	0.068549
	C205	C	0.066748	0.384602	0.069911
	C206	C	0.065021	0.566019	0.877836
	C207	C	0.876362	0.385352	0.876412
	C208	C	0.066243	0.880908	0.560884
	C209	C	0.065589	0.069723	0.383293
	C210	C	0.873054	0.072663	0.563319
	C211	C	0.874197	0.879106	0.383698
	C212	C	0.561306	0.070433	0.876230
	C213	C	0.382627	0.067612	0.066640
	C214	C	0.560176	0.881051	0.068689
	C215	C	0.380186	0.878889	0.874797
	Zn216	Zn	0.471157	-0.024627	0.722209
	Zn217	Zn	0.470977	-0.024740	0.223850
	Zn218	Zn	0.722323	0.475642	-0.027770
	Zn219	Zn	0.220175	0.476093	-0.026949
	Zn220	Zn	-0.029460	0.724862	0.473254
	Zn221	Zn	-0.029059	0.225555	0.472483
	Zn222	Zn	-0.029146	0.475646	0.722963
	Zn223	Zn	-0.029530	0.475825	0.222889
	Zn224	Zn	0.471079	0.725599	-0.027300
	Zn225	Zn	0.471062	0.225676	-0.026930
	Zn226	Zn	0.720351	-0.023718	0.473465
	Zn227	Zn	0.222181	-0.025827	0.472126
	N228	N	0.383909	0.940668	0.653004
	N229	N	0.557949	0.009823	0.652788
	N230	N	0.559447	0.941177	0.291945
	N231	N	0.382076	0.008063	0.291085
	N232	N	0.653369	0.386576	0.939090
	N233	N	0.653187	0.563481	0.005983
	N234	N	0.288697	0.564502	0.939967
	N235	N	0.289092	0.387406	0.006351
	N236	N	0.935471	0.654214	0.386889
	N237	N	0.005587	0.654056	0.558981
	N238	N	0.936398	0.295460	0.559481
	N239	N	0.005458	0.296745	0.387215
	N240	N	0.937152	0.386921	0.654139
	N241	N	0.004493	0.563041	0.653614
	N242	N	0.936792	0.564043	0.291313
	N243	N	0.004530	0.388205	0.292504
	N244	N	0.383944	0.655709	0.938396
	N245	N	0.558877	0.655770	0.006544
	N246	N	0.559195	0.294090	0.939151
	N247	N	0.382863	0.294454	0.006697
	N248	N	0.650764	0.940725	0.386711
	N249	N	0.650654	0.010212	0.560224
	N250	N	0.291795	0.940531	0.559467
	N251	N	0.290487	0.008087	0.384842
	N252	N	0.885149	0.440630	0.151806
	N253	N	0.058360	0.509940	0.153832
	N254	N	0.057289	0.441156	0.793307
	N255	N	0.882787	0.509866	0.791571
	N256	N	0.153993	0.884491	0.439876
	N257	N	0.151961	0.061957	0.505955
	N258	N	0.789109	0.064062	0.439073
	N259	N	0.791047	0.889130	0.507554
	N260	N	0.436647	0.154701	0.886426
	N261	N	0.505658	0.154267	0.059051
	N262	N	0.436310	0.795758	0.059456
	N263	N	0.506198	0.797073	0.887424
	N264	N	0.437712	0.886655	0.154665
	N265	N	0.504968	0.062864	0.153894
	N266	N	0.436391	0.061826	0.792861
	N267	N	0.504775	0.887007	0.791409
	N268	N	0.884651	0.154752	0.438097
	N269	N	0.058094	0.155057	0.506673
	N270	N	0.056828	0.795055	0.438177
	N271	N	0.883404	0.794755	0.507113
	N272	N	0.149440	0.441115	0.887081
	N273	N	0.149790	0.510193	0.059746
	N274	N	0.792379	0.440935	0.058646
	N275	N	0.791372	0.510220	0.885469
	O276	O	-0.217540	0.806586	-0.213465
	H277	H	-0.204826	0.824425	-0.206290
	H278	H	-0.244586	0.776271	-0.232670
	O279	O	0.457454	0.701925	0.310177
	H280	H	0.427513	0.704106	0.307653
	H281	H	0.442451	0.721482	0.291290
	O282	O	1.021190	-0.078356	1.213489
	H283	H	1.035690	-0.080310	1.205841
	H284	H	1.029520	-0.092346	1.219111
	O285	O	0.312377	0.417314	0.567532
	H286	H	0.315887	0.392427	0.547473
	H287	H	0.307460	0.417606	0.585667
	O288	O	0.679896	0.684440	0.680786
	H289	H	0.684388	0.684880	0.630031
	H290	H	0.651070	0.661714	0.687688
	O291	O	1.128933	0.823736	0.779385
	H292	H	1.136687	0.860746	0.777447
	H293	H	1.160642	0.807185	0.748384
	O294	O	0.964775	-0.009172	0.973963
	H295	H	0.965044	-0.014441	0.969136
	H296	H	0.959080	-0.018232	0.967718
	O297	O	1.163550	1.062253	0.091043
	H298	H	1.161630	1.079136	0.094040
	H299	H	1.153203	1.060641	0.082981
	O300	O	-0.060212	-0.241822	1.197321
	H301	H	-0.057020	-0.248047	1.184962
	H302	H	-0.073345	-0.260814	1.215121
	O303	O	0.572290	0.329023	0.614120
	H304	H	0.569943	0.313307	0.629697
	H305	H	0.571665	0.339073	0.617529
	O306	O	0.430494	0.578491	0.531267
	H307	H	0.436629	0.561503	0.528167
	H308	H	0.421102	0.574788	0.534479
	O309	O	0.243598	0.418400	0.402428
	H310	H	0.245455	0.408864	0.402914
	H311	H	0.245560	0.409667	0.420216
	O312	O	0.525266	0.402466	0.709519
	H313	H	0.531057	0.415977	0.707017
	H314	H	0.525961	0.404311	0.703636
	O315	O	1.432546	1.428261	1.376076
	H316	H	1.429346	1.419247	1.374807
	H317	H	1.442792	1.419524	1.379147
	O318	O	0.700670	0.507147	0.412261
	H319	H	0.693108	0.496635	0.397736
	H320	H	0.712487	0.505798	0.438448
	O321	O	-0.002308	0.762336	0.763014
	H322	H	0.013000	0.747892	0.745030
	H323	H	0.030069	0.757708	0.767817
	O324	O	0.743450	0.975556	-0.026974
	H325	H	0.745578	0.957929	-0.019714
	H326	H	0.739538	0.973059	-0.021679
	O327	O	-0.242839	-0.236065	1.016378
	H328	H	-0.230331	-0.247789	1.000174
	H329	H	-0.252060	-0.255112	1.020408
	O330	O	0.402127	0.536267	0.702748
	H331	H	0.414138	0.545230	0.711750
	H332	H	0.404181	0.540137	0.686119
	O333	O	0.523758	0.525229	0.410431
	H334	H	0.525119	0.515743	0.412508
	H335	H	0.533766	0.518265	0.399555
	O336	O	0.486189	0.257340	0.510204
	H337	H	0.518811	0.253478	0.506887
	H338	H	0.489092	0.253760	0.541978
	O339	O	1.160758	-0.212270	1.165551
	H340	H	1.150761	-0.194728	1.141112
	H341	H	1.141461	-0.188682	1.153893
	O342	O	0.693878	0.491389	-0.302680
	H343	H	0.702507	0.495875	-0.280558
	H344	H	0.691348	0.510026	-0.309018
	O345	O	0.008338	0.755696	1.037049
	H346	H	0.000123	0.754508	1.032443
	H347	H	0.019293	0.758293	1.028037
	O348	O	0.687386	0.450205	0.255923
	H349	H	0.683225	0.454845	0.240240
	H350	H	0.688806	0.451158	0.260525
	O351	O	0.693221	1.256296	0.253546
	H352	H	0.717999	1.235597	0.252338
	H353	H	0.698061	1.284709	0.240638
	O354	O	0.241644	-0.289309	0.701942
	H355	H	0.253705	-0.298297	0.675149
	H356	H	0.257411	-0.298105	0.693871
	O357	O	1.207864	0.218037	1.214058
	H358	H	1.219121	0.218887	1.202602
	H359	H	1.177833	0.221219	1.223555
	O360	O	1.186599	0.986740	1.197021
	H361	H	1.179932	1.016879	1.182122
	H362	H	1.214674	1.003078	1.220534
	O363	O	0.091842	0.000242	-0.220005
	H364	H	0.090366	0.004272	-0.223396
	H365	H	0.102876	0.005154	-0.218832
	O366	O	0.692551	0.695590	0.506860
	H367	H	0.687046	0.703544	0.488223
	H368	H	0.702152	0.708305	0.495997
	O369	O	0.504166	0.698602	0.700134
	H370	H	0.516900	0.719021	0.707224
	H371	H	0.492233	0.720211	0.689333
	O372	O	1.198116	0.884151	0.005791
	H373	H	1.201582	0.894256	0.000980
	H374	H	1.198637	0.876599	-0.004511
	O375	O	1.421627	0.250254	0.570623
	H376	H	1.438092	0.234172	0.587371
	H377	H	1.452032	0.268130	0.567815
	O378	O	0.273223	0.677112	0.421947
	H379	H	0.271562	0.670382	0.412027
	H380	H	0.261313	0.692438	0.396707
	O381	O	0.153260	0.786866	0.940517
	H382	H	0.171807	0.764060	0.923936
	H383	H	0.148504	0.802895	0.926464
	O384	O	0.959599	-0.061214	0.909494
	H385	H	0.962068	-0.069414	0.900261
	H386	H	0.956998	-0.065324	0.897514
	O387	O	1.530426	0.540651	0.240704
	H388	H	1.524418	0.558124	0.250197
	H389	H	1.503721	0.541456	0.234152
	O390	O	0.261057	0.685687	0.260755
	H391	H	0.227018	0.716199	0.228425
	H392	H	0.254266	0.638895	0.256958
	O393	O	0.546313	0.283672	0.277092
	H394	H	0.573841	0.288095	0.267619
	H395	H	0.542544	0.277109	0.272933
	O396	O	-0.042610	0.975263	0.967138
	H397	H	-0.053217	0.971684	0.969796
	H398	H	-0.049780	0.983506	0.962544
	O399	O	-0.241342	0.189086	0.947433
	H400	H	-0.273922	0.209779	0.943702
	H401	H	-0.231984	0.167670	0.951074
	O402	O	0.546495	0.666423	0.457957
	H403	H	0.538282	0.675147	0.456890
	H404	H	0.532983	0.654688	0.445777
	O405	O	0.954658	-0.044098	0.742847
	H406	H	0.954347	-0.054482	0.739152
	H407	H	0.951907	-0.052559	0.739003
	O408	O	-0.232312	0.181481	-0.233530
	H409	H	-0.224484	0.155229	-0.218343
	H410	H	-0.210509	0.170149	-0.221256
	O411	O	0.846799	1.062836	0.840699
	H412	H	0.833652	1.056614	0.835696
	H413	H	0.845407	1.062680	0.840412
	O414	O	0.760549	0.018331	0.900283
	H415	H	0.752111	-0.003548	0.903332
	H416	H	0.759015	0.005872	0.911379
	O417	O	0.689019	0.263158	0.447621
	H418	H	0.712758	0.257311	0.452736
	H419	H	0.679078	0.262966	0.422708
	O420	O	0.506738	0.420292	0.462917
	H421	H	0.507873	0.413995	0.474961
	H422	H	0.500496	0.407338	0.462009
	O423	O	0.176581	0.160812	0.969202
	H424	H	0.169915	0.176173	0.966721
	H425	H	0.179061	0.159493	0.980280
	O426	O	0.371293	0.419934	0.489290
	H427	H	0.381434	0.420794	0.495035
	H428	H	0.366499	0.432520	0.490219
	O429	O	0.872577	0.963059	1.048199
	H430	H	0.867648	0.963909	1.061629
	H431	H	0.874882	0.971860	1.050285
	O432	O	0.192091	0.964267	0.802248
	H433	H	0.200028	0.972272	0.794892
	H434	H	0.196105	0.978255	0.816629
	O435	O	1.156487	1.156419	0.786239
	H436	H	1.167946	1.173056	0.778419
	H437	H	1.145554	1.157304	0.793478
	O438	O	0.412573	-0.566366	0.232466
	H439	H	0.415699	-0.571077	0.229014
	H440	H	0.403801	-0.571422	0.231072
	O441	O	-0.339702	0.288635	-0.334939
	H442	H	-0.315577	0.271899	-0.309017
	H443	H	-0.339725	0.304096	-0.336359
	O444	O	0.632442	0.510217	0.595142
	H445	H	0.624483	0.522574	0.599744
	H446	H	0.622259	0.517015	0.587384
	O447	O	-0.342648	1.663026	0.284379
	H448	H	-0.355827	1.641612	0.296095
	H449	H	-0.360885	1.659484	0.287795
	O450	O	-0.749251	0.508273	1.247562
	H451	H	-0.771803	0.496767	1.234799
	H452	H	-0.750350	0.499441	1.260511
	O453	O	0.461423	0.404884	0.470815
	H454	H	0.453179	0.394053	0.466017
	H455	H	0.480018	0.400275	0.449403
	O456	O	0.775933	-0.219912	1.176351
	H457	H	0.760726	-0.246118	1.189947
	H458	H	0.790230	-0.215502	1.149662
	O459	O	0.947624	1.196366	-0.251462
	H460	H	0.941897	1.199787	-0.263734
	H461	H	0.951141	1.204898	-0.261802
	O462	O	0.338526	0.283558	0.277773
	H463	H	0.343988	0.277747	0.279253
	H464	H	0.352251	0.275026	0.260045
	O465	O	1.052710	0.175394	-0.038338
	H466	H	1.065423	0.177596	-0.049750
	H467	H	1.036259	0.174867	-0.047432
	O468	O	0.277524	0.633634	0.568013
	H469	H	0.275368	0.616580	0.553906
	H470	H	0.278652	0.625684	0.547696
	O471	O	0.837309	0.815356	0.912787
	H472	H	0.832252	0.812507	0.900691
	H473	H	0.848587	0.809877	0.906622
	O474	O	0.256913	0.263048	0.689286
	H475	H	0.280308	0.273134	0.673297
	H476	H	0.261886	0.267680	0.681992
	O477	O	1.053695	0.923944	0.837413
	H478	H	1.040256	0.934390	0.844626
	H479	H	1.057298	0.910432	0.851143
	O480	O	0.248376	0.447677	0.694226
	H481	H	0.239036	0.449217	0.709180
	H482	H	0.249508	0.438562	0.696787
	O483	O	0.431754	0.696664	0.431590
	H484	H	0.418903	0.676492	0.429621
	H485	H	0.409081	0.708194	0.415421
	O486	O	1.007158	0.188084	1.184959
	H487	H	0.985708	0.184990	1.181846
	H488	H	1.001814	0.198652	1.193784
	O489	O	0.756762	0.937264	0.158009
	H490	H	0.738353	0.920555	0.174375
	H491	H	0.762735	0.909577	0.162575
	O492	O	-0.211454	0.157975	0.149481
	H493	H	-0.204084	0.137405	0.129946
	H494	H	-0.191842	0.146189	0.148745
	O495	O	-0.056601	1.170765	1.044103
	H496	H	-0.050286	1.175095	1.031072
	H497	H	-0.068003	1.169995	1.031943
	O498	O	0.915768	1.041374	1.192928
	H499	H	0.926948	1.026313	1.202393
	H500	H	0.906685	1.019043	1.199829
	O501	O	0.257156	0.259804	0.499578
	H502	H	0.267715	0.250775	0.483008
	H503	H	0.258656	0.241542	0.505744
