data_Molecule from HDF5

_cell_length_a		16.255738
_cell_length_b		16.356349
_cell_length_c		16.342116
_cell_angle_alpha	89.867689
_cell_angle_beta	89.772366
_cell_angle_gamma	90.056848
_symmetry_space_group_name_H-M	'P 1'
_symmetry_Int_Tables_number		1

loop_
	_symmetry_equiv_pos_as_xyz
	x,y,z

loop_
	_atom_site_label
	_atom_site_type_symbol
	_atom_site_fract_x
	_atom_site_fract_y
	_atom_site_fract_z
	H0	H	0.402994	0.840415	0.715723
	H1	H	0.601085	0.165883	0.713486
	H2	H	0.600815	0.839189	0.285078
	H3	H	0.403368	0.165361	0.283807
	H4	H	0.716623	0.406296	0.834943
	H5	H	0.714926	0.599276	0.163272
	H6	H	0.289118	0.601351	0.835292
	H7	H	0.286680	0.404065	0.162129
	H8	H	0.838181	0.717245	0.401531
	H9	H	0.165982	0.717382	0.596798
	H10	H	0.839010	0.287554	0.598754
	H11	H	0.167196	0.289496	0.401463
	H12	H	0.839178	0.403865	0.713657
	H13	H	0.167432	0.599322	0.710358
	H14	H	0.838270	0.601804	0.284544
	H15	H	0.167100	0.404279	0.284227
	H16	H	0.403049	0.719586	0.836345
	H17	H	0.600763	0.717879	0.162093
	H18	H	0.601155	0.289056	0.835549
	H19	H	0.402057	0.286847	0.161517
	H20	H	0.716302	0.839233	0.402779
	H21	H	0.715613	0.166222	0.594963
	H22	H	0.287150	0.839301	0.598338
	H23	H	0.289175	0.166018	0.402472
	H24	H	0.902929	0.339719	0.215231
	H25	H	0.102424	0.664904	0.215033
	H26	H	0.102816	0.339536	0.783174
	H27	H	0.905233	0.665346	0.784006
	H28	H	0.216465	0.905489	0.335368
	H29	H	0.216192	0.099633	0.661826
	H30	H	0.790273	0.099413	0.335134
	H31	H	0.788001	0.905404	0.662171
	H32	H	0.338141	0.217040	0.901252
	H33	H	0.666375	0.216903	0.095998
	H34	H	0.337744	0.788079	0.099009
	H35	H	0.666025	0.789479	0.901307
	H36	H	0.338424	0.903818	0.215248
	H37	H	0.666732	0.100479	0.211445
	H38	H	0.338286	0.101482	0.785697
	H39	H	0.666416	0.905565	0.785168
	H40	H	0.903466	0.218995	0.336854
	H41	H	0.101581	0.216792	0.662205
	H42	H	0.102898	0.786816	0.336357
	H43	H	0.902988	0.787815	0.662595
	H44	H	0.217344	0.339355	0.901501
	H45	H	0.216643	0.666083	0.095997
	H46	H	0.787153	0.339014	0.098049
	H47	H	0.790118	0.666504	0.902534
	H48	H	0.406336	0.117950	0.588461
	H49	H	0.598025	0.884270	0.599715
	H50	H	0.591403	0.115083	0.410090
	H51	H	0.415580	0.887869	0.403951
	H52	H	0.601204	0.412806	0.115428
	H53	H	0.599112	0.592418	0.883801
	H54	H	0.405664	0.589424	0.113989
	H55	H	0.406747	0.408626	0.881968
	H56	H	0.119552	0.588442	0.395403
	H57	H	0.885896	0.586448	0.601626
	H58	H	0.118996	0.419444	0.600077
	H59	H	0.890499	0.414749	0.414502
	H60	H	0.125067	0.396815	0.595959
	H61	H	0.881623	0.606258	0.595565
	H62	H	0.121630	0.607241	0.408669
	H63	H	0.885547	0.415324	0.398368
	H64	H	0.416784	0.596027	0.112249
	H65	H	0.591220	0.597293	0.884757
	H66	H	0.588608	0.412998	0.111895
	H67	H	0.410694	0.411999	0.884105
	H68	H	0.605057	0.120818	0.405608
	H69	H	0.588479	0.889470	0.592732
	H70	H	0.406877	0.120175	0.596544
	H71	H	0.408992	0.888433	0.410970
	H72	H	0.904255	0.621321	0.098217
	H73	H	0.096697	0.384510	0.096802
	H74	H	0.092855	0.618348	0.899673
	H75	H	0.906577	0.385665	0.905718
	H76	H	0.091058	0.914370	0.611565
	H77	H	0.100744	0.098398	0.381014
	H78	H	0.911012	0.097939	0.615080
	H79	H	0.913175	0.906359	0.383442
	H80	H	0.617213	0.090413	0.903689
	H81	H	0.383089	0.102858	0.094256
	H82	H	0.614567	0.911588	0.080737
	H83	H	0.387004	0.909896	0.912923
	H84	H	0.618373	0.918494	0.100671
	H85	H	0.388391	0.094117	0.084951
	H86	H	0.620791	0.099953	0.901547
	H87	H	0.385778	0.915610	0.903481
	H88	H	0.906512	0.095788	0.616357
	H89	H	0.095472	0.093082	0.383642
	H90	H	0.091187	0.902211	0.616067
	H91	H	0.906740	0.907604	0.382549
	H92	H	0.094107	0.616785	0.908146
	H93	H	0.090500	0.388720	0.090673
	H94	H	0.917841	0.615989	0.094132
	H95	H	0.911498	0.386996	0.902910
	H96	H	0.413658	0.117280	0.592703
	H97	H	0.600043	0.887190	0.587160
	H98	H	0.593671	0.119885	0.395479
	H99	H	0.406599	0.884590	0.402559
	H100	H	0.594127	0.402190	0.115929
	H101	H	0.598934	0.601791	0.881503
	H102	H	0.406152	0.601627	0.117117
	H103	H	0.412119	0.407256	0.883037
	H104	H	0.111805	0.587464	0.417312
	H105	H	0.890026	0.592427	0.582169
	H106	H	0.115019	0.409916	0.578552
	H107	H	0.883676	0.400948	0.407435
	H108	H	0.906626	0.616196	0.084021
	H109	H	0.099760	0.387401	0.088535
	H110	H	0.100568	0.619731	0.903562
	H111	H	0.911837	0.387298	0.908499
	H112	H	0.102023	0.909351	0.616817
	H113	H	0.093057	0.100437	0.383460
	H114	H	0.909983	0.093571	0.614156
	H115	H	0.910806	0.912681	0.384148
	H116	H	0.617506	0.096741	0.911190
	H117	H	0.385689	0.090367	0.097868
	H118	H	0.623426	0.898241	0.095453
	H119	H	0.383939	0.904809	0.903565
	C120	C	0.380239	0.010753	0.621141
	C121	C	0.623847	0.994736	0.620650
	C122	C	0.624638	0.010612	0.376376
	C123	C	0.381390	0.994527	0.377750
	C124	C	0.623635	0.381181	0.006789
	C125	C	0.624314	0.625022	0.991408
	C126	C	0.381131	0.624222	0.006736
	C127	C	0.380953	0.381166	0.990810
	C128	C	0.010188	0.623911	0.377814
	C129	C	0.994514	0.623388	0.620447
	C130	C	0.011248	0.380769	0.620415
	C131	C	0.994834	0.381718	0.377893
	C132	C	0.880734	0.510280	0.120925
	C133	C	0.124035	0.494435	0.120525
	C134	C	0.124826	0.510759	0.875955
	C135	C	0.881730	0.494409	0.877630
	C136	C	0.123837	0.880502	0.507144
	C137	C	0.124224	0.124408	0.490806
	C138	C	0.880919	0.124132	0.507482
	C139	C	0.881007	0.880835	0.490993
	C140	C	0.510221	0.124356	0.877374
	C141	C	0.494159	0.123897	0.119956
	C142	C	0.510224	0.881197	0.121107
	C143	C	0.494059	0.882011	0.878163
	C144	C	0.382966	0.888454	0.676793
	C145	C	0.621276	0.117319	0.675279
	C146	C	0.622156	0.888146	0.322040
	C147	C	0.383312	0.116952	0.322331
	C148	C	0.678996	0.384906	0.883844
	C149	C	0.678426	0.621161	0.114184
	C150	C	0.326625	0.621908	0.884068
	C151	C	0.325182	0.383879	0.113546
	C152	C	0.887005	0.679082	0.380768
	C153	C	0.117250	0.679025	0.617158
	C154	C	0.887900	0.325620	0.618613
	C155	C	0.118287	0.327239	0.380667
	C156	C	0.888079	0.383304	0.675853
	C157	C	0.117985	0.620470	0.673745
	C158	C	0.887120	0.621978	0.322599
	C159	C	0.118108	0.384077	0.322151
	C160	C	0.383314	0.680510	0.884442
	C161	C	0.621247	0.679837	0.113666
	C162	C	0.621846	0.326526	0.884206
	C163	C	0.381943	0.325173	0.113089
	C164	C	0.679071	0.887982	0.380819
	C165	C	0.678154	0.117545	0.616663
	C166	C	0.325104	0.888115	0.618776
	C167	C	0.326302	0.117110	0.380935
	C168	C	0.882838	0.388018	0.176684
	C169	C	0.122219	0.616774	0.176117
	C170	C	0.122715	0.388061	0.821335
	C171	C	0.884571	0.617009	0.822450
	C172	C	0.178981	0.884307	0.384306
	C173	C	0.178233	0.120161	0.613470
	C174	C	0.827037	0.120867	0.384364
	C175	C	0.825910	0.884373	0.613778
	C176	C	0.387247	0.179459	0.880698
	C177	C	0.617459	0.179024	0.116917
	C178	C	0.386927	0.826285	0.118856
	C179	C	0.617168	0.827036	0.880555
	C180	C	0.387071	0.883632	0.176768
	C181	C	0.617508	0.121299	0.174383
	C182	C	0.387131	0.122136	0.823091
	C183	C	0.617448	0.884954	0.822905
	C184	C	0.883188	0.180214	0.385076
	C185	C	0.121635	0.178886	0.613355
	C186	C	0.122205	0.825524	0.384725
	C187	C	0.883337	0.826287	0.613956
	C188	C	0.179685	0.388020	0.879942
	C189	C	0.178845	0.617431	0.116995
	C190	C	0.825336	0.387805	0.118483
	C191	C	0.827308	0.617526	0.881005
	C192	C	0.402470	0.096318	0.599058
	C193	C	0.601865	0.909017	0.599568
	C194	C	0.603012	0.096442	0.397538
	C195	C	0.403710	0.908960	0.399556
	C196	C	0.601122	0.402832	0.092239
	C197	C	0.602716	0.603519	0.905402
	C198	C	0.403079	0.602300	0.092354
	C199	C	0.403296	0.403137	0.905278
	C200	C	0.095550	0.601039	0.400412
	C201	C	0.908094	0.601392	0.599322
	C202	C	0.097558	0.402529	0.598089
	C203	C	0.908830	0.403868	0.400195
	C204	C	0.903195	0.595643	0.098775
	C205	C	0.101980	0.409018	0.098631
	C206	C	0.102594	0.596097	0.897578
	C207	C	0.903350	0.408962	0.899392
	C208	C	0.101489	0.902321	0.592918
	C209	C	0.102749	0.103393	0.404749
	C210	C	0.902741	0.102159	0.593018
	C211	C	0.903590	0.902603	0.405443
	C212	C	0.596349	0.102327	0.899119
	C213	C	0.407934	0.102086	0.098647
	C214	C	0.596485	0.903088	0.098798
	C215	C	0.407640	0.903895	0.900200
	Zn216	Zn	0.502356	0.003309	0.749803
	Zn217	Zn	0.502513	0.002647	0.248339
	Zn218	Zn	0.752545	0.502836	-0.000958
	Zn219	Zn	0.252501	0.503078	-0.001534
	Zn220	Zn	0.002080	0.752084	0.499325
	Zn221	Zn	0.002710	0.252866	0.498999
	Zn222	Zn	0.003260	0.502211	0.748223
	Zn223	Zn	0.002322	0.502634	0.249267
	Zn224	Zn	0.501861	0.753403	-0.000865
	Zn225	Zn	0.502172	0.252366	-0.001265
	Zn226	Zn	0.752499	0.002617	0.498978
	Zn227	Zn	0.252495	0.002352	0.499004
	N228	N	0.416415	0.965715	0.678618
	N229	N	0.588223	0.039779	0.677930
	N230	N	0.589029	0.965424	0.319312
	N231	N	0.416949	0.039803	0.320331
	N232	N	0.680335	0.418336	0.961049
	N233	N	0.680304	0.587843	0.037066
	N234	N	0.325147	0.587530	0.961058
	N235	N	0.324414	0.418046	0.036512
	N236	N	0.964486	0.680617	0.414140
	N237	N	0.039269	0.680958	0.584780
	N238	N	0.965576	0.323850	0.584814
	N239	N	0.040673	0.325656	0.414436
	N240	N	0.965692	0.416854	0.677025
	N241	N	0.040567	0.586578	0.675703
	N242	N	0.964656	0.588335	0.320491
	N243	N	0.040236	0.417250	0.320307
	N244	N	0.416329	0.682227	0.961846
	N245	N	0.588626	0.682497	0.036101
	N246	N	0.588109	0.324168	0.961455
	N247	N	0.415984	0.323509	0.036026
	N248	N	0.680661	0.965262	0.413853
	N249	N	0.679799	0.040412	0.583510
	N250	N	0.323644	0.965145	0.584773
	N251	N	0.325198	0.040054	0.414775
	N252	N	0.916509	0.465118	0.178263
	N253	N	0.088792	0.539497	0.178225
	N254	N	0.089340	0.465312	0.818904
	N255	N	0.917724	0.539604	0.820351
	N256	N	0.179967	0.917835	0.461480
	N257	N	0.179930	0.087050	0.536183
	N258	N	0.825754	0.086598	0.461390
	N259	N	0.824345	0.917497	0.536477
	N260	N	0.465096	0.180927	0.913614
	N261	N	0.539843	0.180719	0.083788
	N262	N	0.464723	0.824487	0.085254
	N263	N	0.539589	0.825394	0.914273
	N264	N	0.464840	0.916981	0.178280
	N265	N	0.539761	0.087867	0.176460
	N266	N	0.464457	0.088336	0.821270
	N267	N	0.539663	0.918415	0.821529
	N268	N	0.916081	0.182416	0.462470
	N269	N	0.088474	0.181439	0.536045
	N270	N	0.088824	0.822917	0.462118
	N271	N	0.917029	0.824076	0.536620
	N272	N	0.181141	0.465188	0.913236
	N273	N	0.180205	0.540320	0.083294
	N274	N	0.823899	0.464880	0.084585
	N275	N	0.825548	0.540531	0.914726
	O276	O	-0.049642	-0.028727	1.040142
	H277	H	-0.053709	-0.030845	1.040092
	H278	H	-0.052387	-0.036158	1.041080
	O279	O	0.495691	0.501980	0.476462
	H280	H	0.486492	0.508229	0.481915
	H281	H	0.496624	0.508711	0.473101
	O282	O	0.509933	0.472072	0.441995
	H283	H	0.507651	0.471510	0.439493
	H284	H	0.512925	0.465576	0.443913
	O285	O	0.489598	0.471033	0.481249
	H286	H	0.488857	0.474385	0.488334
	H287	H	0.480063	0.475650	0.484831
	O288	O	0.496832	0.488647	0.459487
	H289	H	0.493597	0.473235	0.459771
	H290	H	0.497718	0.488044	0.455371
	O291	O	-0.067706	0.990238	1.047801
	H292	H	-0.068976	0.996605	1.046731
	H293	H	-0.070539	0.990896	1.049614
	O294	O	0.473027	0.509224	0.475866
	H295	H	0.480134	0.506753	0.466701
	H296	H	0.483715	0.510977	0.468183
	O297	O	0.938316	0.000234	0.021496
	H298	H	0.931247	0.000304	0.023941
	H299	H	0.933242	-0.005330	0.018905
