data_Molecule from HDF5

_cell_length_a		16.561561
_cell_length_b		16.575439
_cell_length_c		16.670440
_cell_angle_alpha	89.923904
_cell_angle_beta	90.081762
_cell_angle_gamma	90.110616
_symmetry_space_group_name_H-M	'P 1'
_symmetry_Int_Tables_number		1

loop_
	_symmetry_equiv_pos_as_xyz
	x,y,z

loop_
	_atom_site_label
	_atom_site_type_symbol
	_atom_site_fract_x
	_atom_site_fract_y
	_atom_site_fract_z
	H0	H	0.407617	0.870627	0.709212
	H1	H	0.619713	0.182328	0.711420
	H2	H	0.617333	0.870225	0.267565
	H3	H	0.409474	0.183754	0.270711
	H4	H	0.727703	0.426866	0.832011
	H5	H	0.734849	0.633849	0.144560
	H6	H	0.290955	0.630897	0.833346
	H7	H	0.293474	0.426467	0.146921
	H8	H	0.853802	0.748593	0.384947
	H9	H	0.168765	0.744524	0.590872
	H10	H	0.853907	0.307353	0.589998
	H11	H	0.168853	0.311188	0.388860
	H12	H	0.854406	0.421235	0.708257
	H13	H	0.168866	0.628452	0.707491
	H14	H	0.853286	0.633161	0.268913
	H15	H	0.168259	0.426216	0.271092
	H16	H	0.408935	0.746591	0.832801
	H17	H	0.619032	0.751519	0.144804
	H18	H	0.612419	0.308921	0.833888
	H19	H	0.411005	0.310260	0.147492
	H20	H	0.733233	0.869529	0.383700
	H21	H	0.735653	0.181506	0.595345
	H22	H	0.291293	0.871095	0.592824
	H23	H	0.294704	0.184557	0.388583
	H24	H	0.906341	0.370863	0.209107
	H25	H	0.115796	0.683804	0.209042
	H26	H	0.113095	0.368565	0.772213
	H27	H	0.907268	0.683321	0.768667
	H28	H	0.232391	0.923546	0.335261
	H29	H	0.232686	0.132561	0.644576
	H30	H	0.788048	0.133458	0.334231
	H31	H	0.788302	0.919370	0.643709
	H32	H	0.354668	0.245281	0.887952
	H33	H	0.668300	0.248599	0.096142
	H34	H	0.354333	0.807661	0.091571
	H35	H	0.667217	0.805870	0.884118
	H36	H	0.354558	0.923387	0.208841
	H37	H	0.667577	0.134157	0.213449
	H38	H	0.355804	0.132268	0.768699
	H39	H	0.665593	0.920386	0.765810
	H40	H	0.905420	0.249106	0.333396
	H41	H	0.116018	0.248080	0.644151
	H42	H	0.118952	0.803445	0.336309
	H43	H	0.903883	0.802391	0.644160
	H44	H	0.229736	0.368577	0.887787
	H45	H	0.231034	0.684164	0.092112
	H46	H	0.791846	0.369972	0.091450
	H47	H	0.793882	0.685829	0.887267
	H48	H	0.424846	0.138783	0.576401
	H49	H	0.601137	0.915330	0.577929
	H50	H	0.601107	0.138043	0.399342
	H51	H	0.420433	0.912437	0.397054
	H52	H	0.599960	0.437685	0.101010
	H53	H	0.606669	0.619621	0.876197
	H54	H	0.421394	0.616719	0.100707
	H55	H	0.418291	0.439087	0.878376
	H56	H	0.123240	0.620858	0.401802
	H57	H	0.895950	0.619739	0.583165
	H58	H	0.123157	0.437549	0.578876
	H59	H	0.897078	0.438201	0.397667
	H60	H	0.124907	0.438064	0.584549
	H61	H	0.900386	0.615938	0.572527
	H62	H	0.119946	0.611992	0.402197
	H63	H	0.897826	0.436688	0.400068
	H64	H	0.422520	0.617501	0.101060
	H65	H	0.599212	0.611765	0.881149
	H66	H	0.603522	0.436324	0.102909
	H67	H	0.424282	0.436303	0.879079
	H68	H	0.596932	0.136352	0.401776
	H69	H	0.596977	0.914942	0.580222
	H70	H	0.419493	0.140855	0.578748
	H71	H	0.423422	0.913714	0.398568
	H72	H	0.922124	0.639161	0.079966
	H73	H	0.097826	0.417816	0.075343
	H74	H	0.099704	0.638719	0.896592
	H75	H	0.923498	0.413063	0.891553
	H76	H	0.100528	0.935140	0.602214
	H77	H	0.103433	0.116674	0.376752
	H78	H	0.927308	0.117725	0.599548
	H79	H	0.919638	0.941890	0.379825
	H80	H	0.624035	0.114979	0.900178
	H81	H	0.398180	0.119960	0.084010
	H82	H	0.621550	0.944692	0.078639
	H83	H	0.401752	0.943102	0.903074
	H84	H	0.624813	0.939473	0.081554
	H85	H	0.398831	0.119746	0.079392
	H86	H	0.624799	0.116917	0.898939
	H87	H	0.397667	0.940341	0.894128
	H88	H	0.921061	0.115015	0.600328
	H89	H	0.101348	0.118931	0.376635
	H90	H	0.102286	0.939137	0.601770
	H91	H	0.928698	0.939989	0.382209
	H92	H	0.099191	0.637710	0.899978
	H93	H	0.106926	0.412038	0.080814
	H94	H	0.923164	0.639538	0.078927
	H95	H	0.921470	0.417185	0.904860
	H96	H	0.424374	0.139813	0.582505
	H97	H	0.597533	0.916601	0.575715
	H98	H	0.601264	0.136352	0.404450
	H99	H	0.420541	0.913795	0.400424
	H100	H	0.602984	0.440586	0.101667
	H101	H	0.596052	0.622899	0.878641
	H102	H	0.421014	0.618230	0.101315
	H103	H	0.419280	0.432652	0.875833
	H104	H	0.123558	0.615369	0.394213
	H105	H	0.900004	0.608028	0.582074
	H106	H	0.125284	0.433433	0.581287
	H107	H	0.898861	0.439188	0.399543
	H108	H	0.921706	0.640241	0.078133
	H109	H	0.096571	0.414422	0.086396
	H110	H	0.102553	0.638823	0.898626
	H111	H	0.910907	0.411454	0.897675
	H112	H	0.098411	0.938894	0.599843
	H113	H	0.104147	0.119401	0.376236
	H114	H	0.925174	0.111442	0.596922
	H115	H	0.923457	0.933787	0.377606
	H116	H	0.623979	0.117648	0.900975
	H117	H	0.399702	0.116128	0.081939
	H118	H	0.622198	0.938784	0.075348
	H119	H	0.398654	0.933396	0.901895
	C120	C	0.390530	0.036149	0.610748
	C121	C	0.632592	1.018247	0.610417
	C122	C	0.632694	0.034127	0.368535
	C123	C	0.390737	1.017995	0.368679
	C124	C	0.632488	0.406796	-0.001630
	C125	C	0.633395	0.650628	0.981347
	C126	C	0.390128	0.648647	-0.002270
	C127	C	0.389930	0.405765	0.981637
	C128	C	0.018862	0.648921	0.367594
	C129	C	1.002904	0.646208	0.610186
	C130	C	0.019950	0.405063	0.610805
	C131	C	1.002297	0.407251	0.368265
	C132	C	0.890143	0.535924	0.110078
	C133	C	0.132241	0.518707	0.111170
	C134	C	0.131743	0.534317	0.868404
	C135	C	0.888979	0.518362	0.867290
	C136	C	0.132648	0.905895	0.498620
	C137	C	0.133899	0.149691	0.479858
	C138	C	0.891140	0.147411	0.496622
	C139	C	0.890420	0.905136	0.481670
	C140	C	0.520516	0.148244	0.868724
	C141	C	0.502759	0.150109	0.113226
	C142	C	0.519287	0.907974	0.109807
	C143	C	0.502533	0.906141	0.867631
	C144	C	0.389106	0.917742	0.669417
	C145	C	0.637126	0.135290	0.671245
	C146	C	0.635551	0.916979	0.307874
	C147	C	0.390469	0.136692	0.310469
	C148	C	0.688952	0.407321	0.879643
	C149	C	0.694248	0.652660	0.098130
	C150	C	0.331026	0.649455	0.880126
	C151	C	0.332572	0.406536	0.099903
	C152	C	0.901080	0.708947	0.366030
	C153	C	0.121596	0.704717	0.610024
	C154	C	0.901335	0.346561	0.609817
	C155	C	0.121413	0.349749	0.368749
	C156	C	0.901559	0.402932	0.668835
	C157	C	0.121484	0.647352	0.668149
	C158	C	0.900778	0.651378	0.308296
	C159	C	0.121039	0.406896	0.310414
	C160	C	0.389321	0.707309	0.879893
	C161	C	0.636805	0.711177	0.098019
	C162	C	0.631891	0.348526	0.880583
	C163	C	0.390829	0.348917	0.100180
	C164	C	0.693199	0.916637	0.365699
	C165	C	0.694894	0.134799	0.613638
	C166	C	0.331302	0.917900	0.611571
	C167	C	0.333462	0.137052	0.368872
	C168	C	0.888032	0.417911	0.169352
	C169	C	0.134019	0.636872	0.169360
	C170	C	0.132184	0.415858	0.811069
	C171	C	0.888787	0.636505	0.808533
	C172	C	0.192583	0.904393	0.381765
	C173	C	0.193008	0.151412	0.597506
	C174	C	0.829371	0.150786	0.380512
	C175	C	0.828968	0.901701	0.597749
	C176	C	0.402126	0.206490	0.868298
	C177	C	0.620920	0.209344	0.114724
	C178	C	0.401455	0.847849	0.110730
	C179	C	0.620065	0.845735	0.865424
	C180	C	0.401436	0.905002	0.169066
	C181	C	0.620460	0.152309	0.173210
	C182	C	0.402531	0.150124	0.809305
	C183	C	0.619509	0.902514	0.806695
	C184	C	0.887892	0.208258	0.379942
	C185	C	0.134991	0.208868	0.597152
	C186	C	0.136040	0.844981	0.382427
	C187	C	0.886448	0.843536	0.597741
	C188	C	0.190084	0.416082	0.868730
	C189	C	0.191406	0.637034	0.111272
	C190	C	0.830974	0.417593	0.110973
	C191	C	0.832000	0.637735	0.867165
	C192	C	0.415897	0.118410	0.586280
	C193	C	0.606090	0.936778	0.584999
	C194	C	0.607167	0.115757	0.394306
	C195	C	0.414600	0.934938	0.392004
	C196	C	0.608983	0.431187	0.080609
	C197	C	0.608001	0.625457	0.899846
	C198	C	0.414792	0.624596	0.079596
	C199	C	0.413679	0.429379	0.899080
	C200	C	0.100894	0.623573	0.392254
	C201	C	0.920354	0.621692	0.586081
	C202	C	0.102945	0.429264	0.588102
	C203	C	0.919538	0.431328	0.391894
	C204	C	0.915095	0.618339	0.085870
	C205	C	0.107484	0.436301	0.087396
	C206	C	0.107380	0.616968	0.891750
	C207	C	0.911889	0.435465	0.891284
	C208	C	0.107586	0.930603	0.580179
	C209	C	0.109865	0.125303	0.397998
	C210	C	0.917182	0.121823	0.577945
	C211	C	0.916581	0.931123	0.400887
	C212	C	0.602802	0.123445	0.893009
	C213	C	0.420287	0.125581	0.088771
	C214	C	0.601482	0.933733	0.085446
	C215	C	0.420739	0.931635	0.892577
	Zn216	Zn	0.511664	0.027757	0.739460
	Zn217	Zn	0.511745	0.026583	0.240113
	Zn218	Zn	0.761449	0.528398	-0.010649
	Zn219	Zn	0.260634	0.527054	-0.010295
	Zn220	Zn	0.011250	0.775955	0.490094
	Zn221	Zn	0.011368	0.277448	0.488058
	Zn222	Zn	0.010701	0.526110	0.739411
	Zn223	Zn	0.010446	0.527977	0.239218
	Zn224	Zn	0.511343	0.778397	-0.010124
	Zn225	Zn	0.511308	0.277084	-0.009553
	Zn226	Zn	0.761246	0.025848	0.489138
	Zn227	Zn	0.261898	0.027485	0.489960
	N228	N	0.424941	0.992478	0.669261
	N229	N	0.599045	0.061659	0.669531
	N230	N	0.598704	0.991024	0.309407
	N231	N	0.425292	0.061426	0.310056
	N232	N	0.689645	0.442752	0.954060
	N233	N	0.692291	0.615702	0.024479
	N234	N	0.331275	0.613805	0.954529
	N235	N	0.331578	0.440855	0.024960
	N236	N	0.975704	0.707822	0.402125
	N237	N	0.046605	0.704441	0.575015
	N238	N	0.976134	0.347639	0.574560
	N239	N	0.046518	0.349784	0.404088
	N240	N	0.976410	0.438524	0.669791
	N241	N	0.046516	0.611841	0.668511
	N242	N	0.975243	0.614946	0.308992
	N243	N	0.045877	0.441508	0.309842
	N244	N	0.425072	0.707276	0.954069
	N245	N	0.599845	0.710083	0.024200
	N246	N	0.597887	0.347778	0.955601
	N247	N	0.425473	0.348083	0.025379
	N248	N	0.691459	0.990548	0.402789
	N249	N	0.692101	0.061017	0.576467
	N250	N	0.331925	0.992771	0.576101
	N251	N	0.333342	0.062236	0.404060
	N252	N	0.923929	0.492743	0.169088
	N253	N	0.097894	0.562268	0.169519
	N254	N	0.096831	0.490605	0.810439
	N255	N	0.922971	0.561169	0.808193
	N256	N	0.190408	0.941720	0.455040
	N257	N	0.192723	0.115327	0.523370
	N258	N	0.831235	0.113483	0.454190
	N259	N	0.831349	0.939257	0.524575
	N260	N	0.476579	0.205566	0.904607
	N261	N	0.546628	0.208067	0.078067
	N262	N	0.475873	0.849449	0.074671
	N263	N	0.546177	0.847748	0.902423
	N264	N	0.475904	0.941561	0.168520
	N265	N	0.545795	0.116269	0.172559
	N266	N	0.477327	0.114703	0.809189
	N267	N	0.545517	0.939648	0.808165
	N268	N	0.925581	0.206249	0.453288
	N269	N	0.099246	0.208276	0.522937
	N270	N	0.099218	0.845773	0.456125
	N271	N	0.923974	0.845443	0.524549
	N272	N	0.190098	0.490957	0.903595
	N273	N	0.190449	0.562489	0.075807
	N274	N	0.831963	0.492211	0.074980
	N275	N	0.831659	0.563091	0.902862
	O276	O	0.039736	0.921279	0.174739
	H277	H	0.036140	0.929744	0.160176
	H278	H	0.019591	0.927532	0.180103
	O279	O	-0.205860	0.261681	0.215749
	H280	H	-0.189348	0.264438	0.213280
	H281	H	-0.196485	0.250358	0.231174
	O282	O	1.074973	0.098157	0.772733
	H283	H	1.037248	0.091928	0.760730
	H284	H	1.052817	0.110121	0.778163
	O285	O	0.225649	0.245908	1.023503
	H286	H	0.253495	0.263646	1.031383
	H287	H	0.226747	0.235189	1.063239
	O288	O	0.314658	0.648036	0.617401
	H289	H	0.324750	0.629085	0.601120
	H290	H	0.327297	0.630111	0.625905
	O291	O	-0.302516	0.337073	0.679357
	H292	H	-0.307006	0.357856	0.650853
	H293	H	-0.329646	0.348447	0.661662
	O294	O	1.205293	-0.080201	1.046349
	H295	H	1.218402	-0.089703	1.035091
	H296	H	1.186142	-0.073771	1.033925
	O297	O	0.609232	0.743639	0.459140
	H298	H	0.631659	0.752031	0.449237
	H299	H	0.613800	0.742574	0.454809
	O300	O	-0.434006	-0.696883	0.545218
	H301	H	-0.450288	-0.688351	0.569308
	H302	H	-0.425165	-0.696617	0.537150
	O303	O	0.443618	0.593154	0.548439
	H304	H	0.428692	0.602822	0.546734
	H305	H	0.450799	0.593949	0.536403
	O306	O	0.205605	0.213788	0.794639
	H307	H	0.190823	0.190988	0.815894
	H308	H	0.181834	0.199616	0.811153
	O309	O	0.720649	0.414617	0.530387
	H310	H	0.725412	0.429884	0.528426
	H311	H	0.717263	0.434432	0.530432
	O312	O	0.548487	0.488251	0.688958
	H313	H	0.575593	0.490899	0.691992
	H314	H	0.549287	0.477824	0.682601
	O315	O	1.714100	0.320045	1.398789
	H316	H	1.710308	0.317294	1.409762
	H317	H	1.713971	0.315175	1.403296
	O318	O	0.675478	0.619916	0.516101
	H319	H	0.679840	0.609474	0.515990
	H320	H	0.695092	0.641317	0.540051
	O321	O	-0.046243	0.997422	0.784521
	H322	H	-0.067159	0.979337	0.774282
	H323	H	-0.061576	0.987794	0.788128
	O324	O	1.240094	1.034367	-0.012767
	H325	H	1.236936	1.030292	-0.016914
	H326	H	1.242364	1.034674	0.007480
	O327	O	0.211549	0.229642	1.190968
	H328	H	0.185501	0.208946	1.200838
	H329	H	0.244848	0.261003	1.223900
	O330	O	0.310571	0.541811	0.521326
	H331	H	0.309997	0.535648	0.507327
	H332	H	0.310005	0.531523	0.534561
	O333	O	0.312493	0.321314	0.697140
	H334	H	0.283206	0.288331	0.725836
	H335	H	0.314581	0.323953	0.666168
	O336	O	0.313309	0.326001	0.289627
	H337	H	0.333835	0.339057	0.299990
	H338	H	0.332108	0.345690	0.315284
	O339	O	0.786270	0.188900	0.986191
	H340	H	0.776624	0.196731	1.001365
	H341	H	0.782583	0.185693	1.004178
	O342	O	-0.201901	0.008113	0.201600
	H343	H	-0.224917	-0.007994	0.229144
	H344	H	-0.182479	-0.006817	0.195110
	O345	O	-0.205539	1.045813	0.771424
	H346	H	-0.217662	1.077512	0.762035
	H347	H	-0.205832	1.066329	0.758826
	O348	O	0.873522	0.157180	0.888762
	H349	H	0.885265	0.169442	0.904095
	H350	H	0.880369	0.175668	0.896377
	O351	O	0.290492	0.492698	0.714805
	H352	H	0.277310	0.471058	0.726755
	H353	H	0.283918	0.478567	0.725830
	O354	O	-0.282685	-0.266385	0.697154
	H355	H	-0.255859	-0.230996	0.731384
	H356	H	-0.338191	-0.258489	0.703228
	O357	O	0.536207	0.522168	0.524806
	H358	H	0.535709	0.518934	0.537770
	H359	H	0.531340	0.525118	0.518134
	O360	O	0.476500	-0.260354	1.273165
	H361	H	0.452755	-0.265841	1.276923
	H362	H	0.479792	-0.242232	1.255774
	O363	O	0.040266	-0.195441	-0.236840
	H364	H	0.055630	-0.215636	-0.240596
	H365	H	0.059200	-0.200636	-0.241528
	O366	O	0.310889	0.725913	0.284731
	H367	H	0.299247	0.745441	0.265851
	H368	H	0.308278	0.728583	0.334053
	O369	O	0.708377	0.536224	0.394358
	H370	H	0.688418	0.543402	0.389359
	H371	H	0.718910	0.547117	0.372769
	O372	O	0.757451	0.779251	0.242113
	H373	H	0.771019	0.770207	0.258424
	H374	H	0.747747	0.771135	0.218312
	O375	O	1.222413	-0.008517	-0.224546
	H376	H	1.226798	-0.004949	-0.237871
	H377	H	1.209241	0.012804	-0.231433
	O378	O	0.448814	0.589115	0.713090
	H379	H	0.452959	0.567120	0.710248
	H380	H	0.430837	0.575633	0.719039
	O381	O	0.799422	0.239315	0.779674
	H382	H	0.763877	0.271404	0.749958
	H383	H	0.790687	0.246295	0.832042
	O384	O	0.553558	0.389021	1.279474
	H385	H	0.536641	0.394574	1.282288
	H386	H	0.553077	0.376948	1.261942
	O387	O	0.929956	0.937807	0.077300
	H388	H	0.934116	0.933791	0.067338
	H389	H	0.936142	0.952303	0.063004
	O390	O	0.401273	0.599706	0.433938
	H391	H	0.396459	0.602752	0.424339
	H392	H	0.404411	0.614688	0.433636
	O393	O	0.484174	0.314284	0.700037
	H394	H	0.469366	0.297911	0.710297
	H395	H	0.465336	0.326093	0.709881
	O396	O	-0.016898	0.808172	1.215043
	H397	H	-0.018280	0.773526	1.251901
	H398	H	-0.031951	0.827334	1.211099
	O399	O	0.223918	0.065772	1.209685
	H400	H	0.219541	0.077900	1.194582
	H401	H	0.237921	0.057781	1.232612
	O402	O	0.219158	0.823905	0.776444
	H403	H	0.238284	0.810068	0.772331
	H404	H	0.215963	0.859465	0.775702
	O405	O	1.396952	-0.551128	1.323008
	H406	H	1.429703	-0.540495	1.321905
	H407	H	1.393474	-0.542075	1.325034
	O408	O	-0.486802	-0.645026	-0.668331
	H409	H	-0.471500	-0.659640	-0.675415
	H410	H	-0.495739	-0.654750	-0.662087
	O411	O	0.007556	0.249103	0.955133
	H412	H	0.036299	0.243258	0.950181
	H413	H	0.028353	0.253337	0.955498
	O414	O	0.638927	0.600729	0.530013
	H415	H	0.644298	0.608646	0.533743
	H416	H	0.652020	0.610759	0.544293
	O417	O	-0.086286	0.133412	0.209129
	H418	H	-0.090499	0.121860	0.216444
	H419	H	-0.073055	0.144984	0.200416
	O420	O	0.454328	0.747996	0.547382
	H421	H	0.466325	0.746066	0.535084
	H422	H	0.462750	0.742257	0.548393
	O423	O	0.205084	-0.166236	1.191287
	H424	H	0.200260	-0.154752	1.165964
	H425	H	0.185101	-0.154853	1.203934
	O426	O	0.323241	0.555806	0.277862
	H427	H	0.333684	0.564444	0.267384
	H428	H	0.312323	0.585916	0.265110
	O429	O	0.818185	0.839428	0.797746
	H430	H	0.821328	0.868815	0.819876
	H431	H	0.852219	0.848313	0.810776
	O432	O	0.550142	0.738534	0.697136
	H433	H	0.525846	0.710405	0.699384
	H434	H	0.534194	0.754547	0.706898
	O435	O	0.055916	1.034573	0.044517
	H436	H	0.058298	1.046728	0.052988
	H437	H	0.064496	1.041891	0.033839
	O438	O	-0.032466	0.172355	0.060011
	H439	H	-0.030301	0.174997	0.050779
	H440	H	-0.019379	0.168045	0.047667
	O441	O	0.169314	-0.841758	-0.064146
	H442	H	0.173762	-0.873321	-0.069730
	H443	H	0.189295	-0.839076	-0.056290
	O444	O	0.733190	0.564613	-0.289749
	H445	H	0.730531	0.608210	-0.293510
	H446	H	0.763577	0.574887	-0.260947
	O447	O	0.486611	0.345306	0.424744
	H448	H	0.497555	0.350182	0.439453
	H449	H	0.495795	0.337782	0.421511
	O450	O	0.055343	0.812248	1.044381
	H451	H	0.057546	0.807180	1.064089
	H452	H	0.044217	0.820911	1.052998
	O453	O	0.304401	0.315888	0.526908
	H454	H	0.289459	0.300031	0.530176
	H455	H	0.299392	0.330628	0.512981
	O456	O	0.558030	0.584451	0.264064
	H457	H	0.564339	0.590599	0.266832
	H458	H	0.562724	0.599124	0.260224
	O459	O	0.786440	0.956256	-0.070076
	H460	H	0.795473	0.975487	-0.084551
	H461	H	0.790003	0.976208	-0.070441
	O462	O	0.976943	-0.121049	-0.126287
	H463	H	0.979770	-0.112537	-0.115168
	H464	H	0.995812	-0.139521	-0.135614
	O465	O	0.797790	-0.186634	0.080373
	H466	H	0.776546	-0.188159	0.056978
	H467	H	0.778562	-0.188969	0.074988
	O468	O	-0.038604	1.027808	0.020189
	H469	H	-0.040168	1.020543	0.026590
	H470	H	-0.024141	1.043943	0.022330
	O471	O	1.069663	0.023247	0.961592
	H472	H	1.066406	0.018799	0.958054
	H473	H	1.063710	0.020611	0.948796
	O474	O	-0.208462	1.005101	0.048724
	H475	H	-0.197221	1.006629	0.032312
	H476	H	-0.209986	0.993935	0.069308
	O477	O	1.209845	0.805543	1.932511
	H478	H	1.240188	0.777486	1.944830
	H479	H	1.205740	0.808543	1.920862
	O480	O	0.729433	0.509471	0.305487
	H481	H	0.734960	0.496873	0.308634
	H482	H	0.749297	0.490874	0.285901
	O483	O	0.305956	0.730577	0.454955
	H484	H	0.311127	0.734412	0.467898
	H485	H	0.307523	0.719322	0.471999
	O486	O	0.987630	0.241729	0.766914
	H487	H	0.939124	0.238825	0.765384
	H488	H	0.988472	0.271603	0.757540
	O489	O	1.039946	1.244055	0.205296
	H490	H	1.047151	1.241506	0.213531
	H491	H	1.035240	1.256621	0.204021
