data_Molecule from HDF5

_cell_length_a		16.168609
_cell_length_b		16.374863
_cell_length_c		16.291511
_cell_angle_alpha	90.250405
_cell_angle_beta	89.804035
_cell_angle_gamma	89.927374
_symmetry_space_group_name_H-M	'P 1'
_symmetry_Int_Tables_number		1

loop_
	_symmetry_equiv_pos_as_xyz
	x,y,z

loop_
	_atom_site_label
	_atom_site_type_symbol
	_atom_site_fract_x
	_atom_site_fract_y
	_atom_site_fract_z
	H0	H	0.400590	0.836503	0.714536
	H1	H	0.600471	0.161686	0.717146
	H2	H	0.601858	0.836954	0.282373
	H3	H	0.402880	0.162641	0.286390
	H4	H	0.715488	0.401305	0.837026
	H5	H	0.711689	0.595621	0.166057
	H6	H	0.287561	0.594472	0.836539
	H7	H	0.287873	0.402280	0.164759
	H8	H	0.836826	0.714329	0.403537
	H9	H	0.165466	0.715471	0.602257
	H10	H	0.836851	0.285945	0.601661
	H11	H	0.165724	0.284888	0.402025
	H12	H	0.836207	0.403527	0.714584
	H13	H	0.166223	0.598000	0.714951
	H14	H	0.835668	0.597329	0.289331
	H15	H	0.165051	0.399809	0.285951
	H16	H	0.401266	0.712522	0.836971
	H17	H	0.601380	0.717058	0.163113
	H18	H	0.602235	0.282113	0.837595
	H19	H	0.399665	0.283569	0.163353
	H20	H	0.717679	0.836166	0.399864
	H21	H	0.712200	0.164032	0.596289
	H22	H	0.286410	0.837202	0.596987
	H23	H	0.287031	0.163818	0.403545
	H24	H	0.901126	0.336448	0.216792
	H25	H	0.098901	0.661838	0.217555
	H26	H	0.102104	0.336930	0.783966
	H27	H	0.901582	0.662724	0.786984
	H28	H	0.214556	0.902200	0.336916
	H29	H	0.213321	0.096315	0.666068
	H30	H	0.789910	0.096292	0.336555
	H31	H	0.786344	0.903981	0.665255
	H32	H	0.336482	0.213665	0.900841
	H33	H	0.665201	0.213147	0.097568
	H34	H	0.335836	0.785184	0.099465
	H35	H	0.664468	0.782937	0.899057
	H36	H	0.335980	0.900982	0.214854
	H37	H	0.665583	0.098696	0.213493
	H38	H	0.335530	0.095386	0.788796
	H39	H	0.665162	0.899609	0.784761
	H40	H	0.902431	0.215107	0.338543
	H41	H	0.101265	0.215870	0.664780
	H42	H	0.102774	0.782194	0.339189
	H43	H	0.900143	0.785588	0.665316
	H44	H	0.214191	0.335385	0.903537
	H45	H	0.214674	0.662290	0.100026
	H46	H	0.787214	0.335584	0.097847
	H47	H	0.785062	0.662481	0.903978
	H48	H	0.418034	0.111632	0.592087
	H49	H	0.597681	0.883308	0.590258
	H50	H	0.608813	0.118753	0.408414
	H51	H	0.403181	0.884819	0.415794
	H52	H	0.597069	0.403980	0.118582
	H53	H	0.588185	0.603355	0.882567
	H54	H	0.405016	0.591338	0.116659
	H55	H	0.416768	0.397880	0.884453
	H56	H	0.118662	0.586976	0.401808
	H57	H	0.880929	0.597845	0.600111
	H58	H	0.120752	0.406254	0.596901
	H59	H	0.885941	0.410144	0.412200
	H60	H	0.118548	0.403675	0.590167
	H61	H	0.884781	0.596132	0.588450
	H62	H	0.120995	0.599849	0.409567
	H63	H	0.882364	0.406784	0.405124
	H64	H	0.412440	0.591967	0.115445
	H65	H	0.605172	0.588818	0.882497
	H66	H	0.591635	0.408475	0.115540
	H67	H	0.398460	0.400343	0.879768
	H68	H	0.589293	0.116160	0.393225
	H69	H	0.594316	0.882260	0.597210
	H70	H	0.399504	0.115673	0.588735
	H71	H	0.405191	0.881424	0.398508
	H72	H	0.914877	0.611446	0.092376
	H73	H	0.095858	0.379365	0.107880
	H74	H	0.096948	0.617600	0.903194
	H75	H	0.904296	0.382318	0.903586
	H76	H	0.099802	0.911492	0.618440
	H77	H	0.106098	0.089520	0.382886
	H78	H	0.913636	0.103081	0.618118
	H79	H	0.913254	0.899573	0.385309
	H80	H	0.619500	0.090643	0.901487
	H81	H	0.384274	0.093420	0.090596
	H82	H	0.616483	0.911671	0.093222
	H83	H	0.384734	0.919471	0.896325
	H84	H	0.619028	0.903365	0.093387
	H85	H	0.384044	0.088183	0.093008
	H86	H	0.618888	0.097067	0.910124
	H87	H	0.376348	0.889181	0.901009
	H88	H	0.897705	0.094645	0.620962
	H89	H	0.085233	0.086410	0.389565
	H90	H	0.087083	0.909832	0.615206
	H91	H	0.904745	0.907152	0.384585
	H92	H	0.087647	0.612706	0.908171
	H93	H	0.081408	0.387369	0.090807
	H94	H	0.899890	0.615687	0.091626
	H95	H	0.915317	0.384803	0.904997
	H96	H	0.406683	0.118926	0.606104
	H97	H	0.589891	0.885142	0.591540
	H98	H	0.587013	0.109924	0.417046
	H99	H	0.419087	0.887553	0.407687
	H100	H	0.590321	0.400909	0.117510
	H101	H	0.584811	0.582111	0.890706
	H102	H	0.408538	0.597486	0.118764
	H103	H	0.408791	0.414514	0.886965
	H104	H	0.114113	0.587622	0.417516
	H105	H	0.886206	0.586920	0.596727
	H106	H	0.116435	0.411183	0.591746
	H107	H	0.882815	0.401838	0.411939
	H108	H	0.907479	0.616743	0.104682
	H109	H	0.103959	0.382719	0.085842
	H110	H	0.097732	0.614016	0.914271
	H111	H	0.907952	0.385879	0.913071
	H112	H	0.094443	0.900459	0.619928
	H113	H	0.091750	0.105868	0.381864
	H114	H	0.912019	0.085592	0.614213
	H115	H	0.914865	0.910595	0.388353
	H116	H	0.615705	0.087083	0.910722
	H117	H	0.382781	0.093111	0.095506
	H118	H	0.616090	0.907333	0.085560
	H119	H	0.389044	0.906680	0.924994
	C120	C	0.378911	0.008121	0.623228
	C121	C	0.622097	0.991370	0.621784
	C122	C	0.624434	0.007394	0.377031
	C123	C	0.380344	0.992193	0.379302
	C124	C	0.622271	0.376393	0.008878
	C125	C	0.621825	0.620855	0.992787
	C126	C	0.379335	0.620994	0.008990
	C127	C	0.379109	0.376769	0.992003
	C128	C	0.009326	0.620534	0.380886
	C129	C	0.992707	0.621946	0.623702
	C130	C	0.009586	0.378929	0.622257
	C131	C	0.992682	0.378035	0.380652
	C132	C	0.878604	0.507336	0.124258
	C133	C	0.122757	0.490483	0.124224
	C134	C	0.122933	0.507081	0.879526
	C135	C	0.879668	0.491994	0.879484
	C136	C	0.122594	0.878403	0.509723
	C137	C	0.122734	0.121780	0.493233
	C138	C	0.880031	0.121760	0.509402
	C139	C	0.880252	0.878013	0.493691
	C140	C	0.509132	0.119764	0.879394
	C141	C	0.491819	0.120593	0.121519
	C142	C	0.508909	0.878539	0.120622
	C143	C	0.492109	0.876375	0.877912
	C144	C	0.380601	0.885423	0.677097
	C145	C	0.620264	0.113588	0.677963
	C146	C	0.622486	0.885461	0.320682
	C147	C	0.382379	0.114298	0.324311
	C148	C	0.677319	0.380563	0.885749
	C149	C	0.675706	0.617612	0.116393
	C150	C	0.324587	0.616302	0.885666
	C151	C	0.324981	0.381373	0.115703
	C152	C	0.885650	0.676045	0.383327
	C153	C	0.116294	0.677445	0.622089
	C154	C	0.885855	0.323812	0.621312
	C155	C	0.116647	0.323000	0.382144
	C156	C	0.885499	0.382449	0.677266
	C157	C	0.116701	0.619065	0.678227
	C158	C	0.885205	0.617946	0.326409
	C159	C	0.116289	0.380036	0.324640
	C160	C	0.381007	0.674999	0.885941
	C161	C	0.620717	0.677819	0.114975
	C162	C	0.621167	0.321189	0.886157
	C163	C	0.380212	0.321813	0.114841
	C164	C	0.679802	0.884981	0.379342
	C165	C	0.675892	0.114669	0.617988
	C166	C	0.324251	0.885458	0.618393
	C167	C	0.325232	0.114972	0.382939
	C168	C	0.881117	0.384807	0.178411
	C169	C	0.119854	0.613116	0.179718
	C170	C	0.121650	0.385254	0.823041
	C171	C	0.881248	0.614095	0.824848
	C172	C	0.177616	0.881043	0.386226
	C173	C	0.176895	0.118153	0.616767
	C174	C	0.826337	0.117847	0.385863
	C175	C	0.824029	0.882082	0.616407
	C176	C	0.385517	0.175301	0.881364
	C177	C	0.615971	0.175715	0.118754
	C178	C	0.385003	0.823160	0.119287
	C179	C	0.615488	0.820822	0.879106
	C180	C	0.385273	0.880503	0.176920
	C181	C	0.616257	0.118377	0.175864
	C182	C	0.384824	0.116602	0.825523
	C183	C	0.615802	0.878943	0.822470
	C184	C	0.882326	0.176868	0.386896
	C185	C	0.121428	0.177790	0.616095
	C186	C	0.122158	0.821262	0.387393
	C187	C	0.880739	0.823615	0.616528
	C188	C	0.177691	0.384549	0.882228
	C189	C	0.177136	0.613572	0.120992
	C190	C	0.824085	0.384494	0.119900
	C191	C	0.823674	0.614066	0.883396
	C192	C	0.401398	0.093505	0.602086
	C193	C	0.600386	0.905752	0.599532
	C194	C	0.601771	0.092951	0.399651
	C195	C	0.402632	0.906487	0.400837
	C196	C	0.599610	0.398045	0.095078
	C197	C	0.599484	0.598055	0.907217
	C198	C	0.402009	0.599596	0.094648
	C199	C	0.401476	0.397989	0.906090
	C200	C	0.095508	0.598091	0.403053
	C201	C	0.906233	0.600028	0.601641
	C202	C	0.096304	0.400690	0.599692
	C203	C	0.906212	0.399951	0.403124
	C204	C	0.900754	0.592740	0.102608
	C205	C	0.100412	0.405303	0.101525
	C206	C	0.100556	0.592705	0.901866
	C207	C	0.902391	0.406398	0.900926
	C208	C	0.100214	0.900678	0.595580
	C209	C	0.100798	0.100200	0.407040
	C210	C	0.901477	0.100626	0.595491
	C211	C	0.903898	0.899620	0.408160
	C212	C	0.595643	0.098062	0.901012
	C213	C	0.406033	0.098228	0.099457
	C214	C	0.595031	0.900806	0.097542
	C215	C	0.405510	0.898473	0.900779
	Zn216	Zn	0.500665	-0.001003	0.751336
	Zn217	Zn	0.501062	-0.000534	0.249242
	Zn218	Zn	0.750320	0.498941	0.001816
	Zn219	Zn	0.251489	0.498913	0.001250
	Zn220	Zn	0.001407	0.749267	0.502287
	Zn221	Zn	0.001316	0.250217	0.501857
	Zn222	Zn	0.002020	0.499651	0.750400
	Zn223	Zn	0.000461	0.498998	0.253043
	Zn224	Zn	0.500690	0.749810	0.000054
	Zn225	Zn	0.500281	0.248315	0.000444
	Zn226	Zn	0.751682	-0.000482	0.500420
	Zn227	Zn	0.250998	0.000187	0.500985
	N228	N	0.414004	0.962816	0.680072
	N229	N	0.587784	0.035993	0.680626
	N230	N	0.588732	0.962657	0.319262
	N231	N	0.415993	0.037073	0.322112
	N232	N	0.678191	0.414218	0.963289
	N233	N	0.676633	0.582872	0.039516
	N234	N	0.323316	0.583541	0.963309
	N235	N	0.324151	0.414744	0.038349
	N236	N	0.963768	0.677543	0.416808
	N237	N	0.038283	0.679225	0.588732
	N238	N	0.964007	0.321802	0.587657
	N239	N	0.038858	0.321638	0.416470
	N240	N	0.963612	0.415812	0.678047
	N241	N	0.038939	0.585129	0.679286
	N242	N	0.963006	0.584014	0.324990
	N243	N	0.038270	0.413519	0.323673
	N244	N	0.414168	0.678238	0.963589
	N245	N	0.588048	0.680084	0.037041
	N246	N	0.587683	0.318836	0.963846
	N247	N	0.413210	0.318855	0.036891
	N248	N	0.681027	0.961953	0.413618
	N249	N	0.677274	0.037614	0.583684
	N250	N	0.323043	0.962605	0.585516
	N251	N	0.323868	0.037788	0.416363
	N252	N	0.913953	0.462261	0.181405
	N253	N	0.086601	0.535877	0.181656
	N254	N	0.088336	0.462571	0.821337
	N255	N	0.915450	0.537174	0.822599
	N256	N	0.178005	0.915924	0.463243
	N257	N	0.177921	0.084107	0.539316
	N258	N	0.824921	0.084013	0.463028
	N259	N	0.823747	0.915342	0.539020
	N260	N	0.463708	0.177355	0.914199
	N261	N	0.537806	0.177348	0.085749
	N262	N	0.462829	0.821934	0.084941
	N263	N	0.537394	0.819258	0.912884
	N264	N	0.463190	0.914316	0.177745
	N265	N	0.538325	0.084646	0.177806
	N266	N	0.462799	0.082871	0.823932
	N267	N	0.538030	0.912913	0.821858
	N268	N	0.914854	0.179403	0.464630
	N269	N	0.088180	0.179876	0.538399
	N270	N	0.088849	0.819473	0.465115
	N271	N	0.914891	0.820954	0.539083
	N272	N	0.178351	0.461279	0.917026
	N273	N	0.179516	0.536240	0.087517
	N274	N	0.822489	0.461592	0.086645
	N275	N	0.822713	0.537002	0.916805
	O276	O	0.533007	0.521603	0.478764
	H277	H	0.541435	0.518654	0.473791
	H278	H	0.529391	0.520049	0.478332
	O279	O	0.497298	0.554910	0.506129
	H280	H	0.495988	0.552601	0.510101
	H281	H	0.512949	0.556858	0.511231
	O282	O	0.533556	0.504000	0.474660
	H283	H	0.529717	0.501861	0.475589
	H284	H	0.531018	0.510447	0.479322
	O285	O	-0.085710	0.940955	1.103936
	H286	H	-0.070549	0.939987	1.108808
	H287	H	-0.084917	0.940686	1.111289
	O288	O	0.433133	0.480607	0.498504
	H289	H	0.436995	0.488998	0.490569
	H290	H	0.426817	0.469845	0.493902
	O291	O	-0.054803	0.003404	0.970287
	H292	H	-0.061789	0.002284	0.972718
	H293	H	-0.060813	-0.006569	0.977409
	O294	O	-0.010153	0.963264	0.994590
	H295	H	-0.006253	0.967784	0.996081
	H296	H	-0.009807	0.967649	0.998317
	O297	O	0.539827	0.512045	0.538037
	H298	H	0.541331	0.513825	0.529491
	H299	H	0.543765	0.502152	0.538936
	O300	O	0.484791	0.506573	0.441681
	H301	H	0.481700	0.516735	0.432376
	H302	H	0.483794	0.511799	0.440687
	O303	O	0.494468	0.571973	0.548735
	H304	H	0.491952	0.565488	0.550348
	H305	H	0.497897	0.578019	0.549370
	O306	O	1.014724	0.018884	1.015360
	H307	H	1.011917	0.001699	1.017126
	H308	H	1.019343	0.026108	1.018865
	O309	O	0.532224	0.551716	0.457013
	H310	H	0.530853	0.558158	0.449148
	H311	H	0.537305	0.548384	0.464187
	O312	O	0.045654	-0.071364	0.010073
	H313	H	0.046828	-0.078178	0.006129
	H314	H	0.043487	-0.076578	0.004518
	O315	O	1.000277	-0.059425	1.026544
	H316	H	1.001530	-0.058388	1.030225
	H317	H	1.003679	-0.056530	1.014253
	O318	O	-0.020390	0.022505	0.077020
	H319	H	-0.014394	0.015238	0.078202
	H320	H	-0.023473	0.023406	0.071911
	O321	O	0.555450	0.488096	0.444194
	H322	H	0.550022	0.491647	0.442448
	H323	H	0.548472	0.483378	0.447882
	O324	O	0.981337	-0.036913	-0.032417
	H325	H	0.982163	-0.031734	-0.044335
	H326	H	0.970182	-0.031839	-0.032511
	O327	O	0.945482	0.945381	0.043959
	H328	H	0.940423	0.932512	0.037954
	H329	H	0.938692	0.952152	0.053261
	O330	O	0.989271	0.982941	-0.008806
	H331	H	0.987733	0.976007	-0.003105
	H332	H	0.990488	0.993769	-0.008041
	O333	O	0.497880	0.564768	0.511700
	H334	H	0.489331	0.566427	0.514485
	H335	H	0.499099	0.567243	0.519357
