data_Molecule from HDF5

_cell_length_a		16.284495
_cell_length_b		16.322771
_cell_length_c		16.359901
_cell_angle_alpha	89.994998
_cell_angle_beta	90.039841
_cell_angle_gamma	89.995590
_symmetry_space_group_name_H-M	'P 1'
_symmetry_Int_Tables_number		1

loop_
	_symmetry_equiv_pos_as_xyz
	x,y,z

loop_
	_atom_site_label
	_atom_site_type_symbol
	_atom_site_fract_x
	_atom_site_fract_y
	_atom_site_fract_z
	H0	H	0.401882	0.836398	0.713687
	H1	H	0.598251	0.162471	0.714448
	H2	H	0.597524	0.836183	0.286339
	H3	H	0.400457	0.162612	0.284507
	H4	H	0.714262	0.402053	0.837013
	H5	H	0.713829	0.597539	0.163701
	H6	H	0.285921	0.597074	0.836677
	H7	H	0.286461	0.403167	0.163832
	H8	H	0.836166	0.713347	0.402448
	H9	H	0.163864	0.713176	0.597308
	H10	H	0.835540	0.286645	0.597004
	H11	H	0.163793	0.285454	0.401887
	H12	H	0.836214	0.401420	0.714321
	H13	H	0.163962	0.598065	0.714195
	H14	H	0.837269	0.598369	0.284629
	H15	H	0.164272	0.401828	0.285929
	H16	H	0.402523	0.714139	0.836331
	H17	H	0.597176	0.714219	0.163204
	H18	H	0.598330	0.285348	0.837181
	H19	H	0.400861	0.284910	0.162941
	H20	H	0.714361	0.836202	0.402355
	H21	H	0.714034	0.163350	0.598056
	H22	H	0.285713	0.836855	0.597409
	H23	H	0.285482	0.163219	0.402189
	H24	H	0.901576	0.337403	0.215158
	H25	H	0.099686	0.662985	0.214460
	H26	H	0.099751	0.336868	0.784828
	H27	H	0.902359	0.663101	0.785346
	H28	H	0.213776	0.902799	0.336770
	H29	H	0.215102	0.099095	0.662931
	H30	H	0.784443	0.098020	0.337053
	H31	H	0.786273	0.901988	0.663002
	H32	H	0.336139	0.213514	0.903039
	H33	H	0.663476	0.214906	0.099040
	H34	H	0.335808	0.786817	0.097352
	H35	H	0.663845	0.787245	0.903488
	H36	H	0.336934	0.902106	0.214381
	H37	H	0.663978	0.098933	0.215335
	H38	H	0.336887	0.098574	0.784799
	H39	H	0.664057	0.902332	0.786558
	H40	H	0.901188	0.214468	0.336510
	H41	H	0.096848	0.214449	0.663400
	H42	H	0.098117	0.784562	0.337300
	H43	H	0.900999	0.784367	0.662057
	H44	H	0.213934	0.336026	0.903593
	H45	H	0.213529	0.663667	0.097240
	H46	H	0.784937	0.336861	0.098797
	H47	H	0.786925	0.663504	0.903260
	H48	H	0.408216	0.114235	0.587779
	H49	H	0.594868	0.883313	0.592999
	H50	H	0.606312	0.121505	0.403891
	H51	H	0.402798	0.878231	0.391409
	H52	H	0.597883	0.414165	0.115093
	H53	H	0.594147	0.603755	0.881156
	H54	H	0.403509	0.591038	0.115644
	H55	H	0.403680	0.405558	0.883435
	H56	H	0.116393	0.589890	0.404793
	H57	H	0.882589	0.596283	0.593117
	H58	H	0.115727	0.414619	0.599000
	H59	H	0.882796	0.400113	0.408510
	H60	H	0.119080	0.398655	0.596057
	H61	H	0.885522	0.591008	0.590485
	H62	H	0.118025	0.596046	0.405042
	H63	H	0.887115	0.411729	0.410723
	H64	H	0.410432	0.593235	0.114359
	H65	H	0.602677	0.590025	0.882685
	H66	H	0.584745	0.407120	0.112658
	H67	H	0.407042	0.409331	0.885230
	H68	H	0.580933	0.114799	0.397622
	H69	H	0.593926	0.882414	0.594752
	H70	H	0.401988	0.118411	0.594661
	H71	H	0.421568	0.888294	0.409802
	H72	H	0.905107	0.617872	0.095917
	H73	H	0.094062	0.383045	0.095549
	H74	H	0.089127	0.614471	0.906311
	H75	H	0.910570	0.383702	0.903794
	H76	H	0.094671	0.902452	0.616986
	H77	H	0.091935	0.099426	0.382720
	H78	H	0.905767	0.102907	0.617779
	H79	H	0.907825	0.912442	0.386232
	H80	H	0.617032	0.096068	0.906980
	H81	H	0.384753	0.090982	0.093056
	H82	H	0.618532	0.903908	0.095904
	H83	H	0.383133	0.910262	0.903318
	H84	H	0.615828	0.906709	0.089798
	H85	H	0.383577	0.093071	0.094436
	H86	H	0.615166	0.091857	0.909267
	H87	H	0.381670	0.902859	0.903431
	H88	H	0.899262	0.089208	0.616332
	H89	H	0.098565	0.090500	0.383143
	H90	H	0.095552	0.910589	0.615221
	H91	H	0.910547	0.901236	0.383652
	H92	H	0.096156	0.615419	0.909707
	H93	H	0.091522	0.384384	0.093761
	H94	H	0.910757	0.614991	0.092860
	H95	H	0.907490	0.384827	0.911072
	H96	H	0.411587	0.115872	0.597491
	H97	H	0.592648	0.883989	0.593401
	H98	H	0.589778	0.110111	0.422134
	H99	H	0.394882	0.884154	0.417846
	H100	H	0.596645	0.399215	0.119627
	H101	H	0.586567	0.590378	0.887065
	H102	H	0.405617	0.597504	0.117424
	H103	H	0.408635	0.404323	0.884768
	H104	H	0.115467	0.593237	0.410094
	H105	H	0.883143	0.590932	0.596661
	H106	H	0.113089	0.407573	0.583357
	H107	H	0.883008	0.409278	0.399909
	H108	H	0.905249	0.615722	0.089201
	H109	H	0.094349	0.383901	0.092344
	H110	H	0.095008	0.617817	0.902333
	H111	H	0.902724	0.382030	0.905044
	H112	H	0.087920	0.906653	0.614554
	H113	H	0.088041	0.089463	0.386964
	H114	H	0.913973	0.090276	0.612909
	H115	H	0.900377	0.905385	0.381570
	H116	H	0.616896	0.091900	0.904779
	H117	H	0.384314	0.093456	0.091948
	H118	H	0.616153	0.911039	0.095648
	H119	H	0.384849	0.906579	0.909766
	C120	C	0.378831	0.008282	0.621133
	C121	C	0.621342	0.991442	0.621344
	C122	C	0.621331	0.007738	0.378815
	C123	C	0.378473	0.991600	0.378395
	C124	C	0.621307	0.378468	0.008138
	C125	C	0.621877	0.622288	0.991776
	C126	C	0.378286	0.621893	0.008094
	C127	C	0.378280	0.378505	0.992155
	C128	C	0.008405	0.621415	0.378261
	C129	C	0.992103	0.621248	0.621557
	C130	C	0.007693	0.378605	0.621415
	C131	C	0.992226	0.378537	0.378197
	C132	C	0.878402	0.508425	0.121790
	C133	C	0.121504	0.491890	0.121553
	C134	C	0.121904	0.507813	0.878043
	C135	C	0.878560	0.491683	0.878356
	C136	C	0.121344	0.878183	0.508245
	C137	C	0.121090	0.121719	0.491948
	C138	C	0.878032	0.122106	0.507920
	C139	C	0.878205	0.878293	0.491481
	C140	C	0.508166	0.121401	0.878587
	C141	C	0.492239	0.121188	0.121922
	C142	C	0.508294	0.878746	0.121855
	C143	C	0.491562	0.878502	0.878063
	C144	C	0.381623	0.885190	0.675710
	C145	C	0.619223	0.114080	0.676512
	C146	C	0.618645	0.885034	0.323597
	C147	C	0.380549	0.114339	0.323070
	C148	C	0.675747	0.381536	0.885336
	C149	C	0.676205	0.618698	0.114881
	C150	C	0.323734	0.618293	0.885201
	C151	C	0.323604	0.381708	0.114980
	C152	C	0.885083	0.675941	0.381251
	C153	C	0.114952	0.676050	0.618262
	C154	C	0.884601	0.323923	0.618331
	C155	C	0.115277	0.323373	0.381280
	C156	C	0.885013	0.380730	0.676701
	C157	C	0.114994	0.618329	0.675987
	C158	C	0.885655	0.619080	0.322814
	C159	C	0.115408	0.381269	0.323754
	C160	C	0.381372	0.676590	0.885220
	C161	C	0.618356	0.676653	0.114705
	C162	C	0.618441	0.323370	0.885633
	C163	C	0.380638	0.323216	0.114743
	C164	C	0.676201	0.884887	0.381571
	C165	C	0.676436	0.114405	0.618539
	C166	C	0.323984	0.885150	0.618033
	C167	C	0.323347	0.114444	0.381509
	C168	C	0.880944	0.385782	0.176925
	C169	C	0.119379	0.614535	0.176333
	C170	C	0.119713	0.385195	0.823039
	C171	C	0.881965	0.614434	0.823724
	C172	C	0.175959	0.881449	0.385298
	C173	C	0.176689	0.119533	0.614489
	C174	C	0.822736	0.118799	0.385233
	C175	C	0.823759	0.881197	0.614289
	C176	C	0.385107	0.176075	0.881668
	C177	C	0.614869	0.176638	0.119384
	C178	C	0.385025	0.824448	0.118245
	C179	C	0.615306	0.824637	0.882345
	C180	C	0.385302	0.881642	0.176225
	C181	C	0.615096	0.119331	0.177447
	C182	C	0.385443	0.119105	0.823005
	C183	C	0.615037	0.881535	0.824188
	C184	C	0.880630	0.176612	0.385124
	C185	C	0.118192	0.176787	0.614607
	C186	C	0.118692	0.822973	0.385645
	C187	C	0.880644	0.822742	0.613798
	C188	C	0.176612	0.385037	0.881759
	C189	C	0.176167	0.614697	0.118185
	C190	C	0.823341	0.385464	0.118966
	C191	C	0.824629	0.614805	0.882138
	C192	C	0.400706	0.094051	0.599644
	C193	C	0.600006	0.905415	0.600061
	C194	C	0.598873	0.093418	0.401310
	C195	C	0.400066	0.905636	0.399903
	C196	C	0.599581	0.400459	0.093829
	C197	C	0.600567	0.601063	0.905862
	C198	C	0.400061	0.600317	0.093678
	C199	C	0.400088	0.399972	0.906643
	C200	C	0.094481	0.599405	0.400179
	C201	C	0.905772	0.599264	0.599807
	C202	C	0.093848	0.400628	0.599329
	C203	C	0.906431	0.400636	0.399946
	C204	C	0.900601	0.594059	0.099356
	C205	C	0.099606	0.405756	0.100052
	C206	C	0.099873	0.593743	0.899607
	C207	C	0.900474	0.405667	0.900254
	C208	C	0.099348	0.900266	0.593498
	C209	C	0.099230	0.099566	0.406465
	C210	C	0.899884	0.100521	0.593590
	C211	C	0.899992	0.900074	0.405890
	C212	C	0.594092	0.099464	0.900590
	C213	C	0.406229	0.098694	0.099644
	C214	C	0.594513	0.900660	0.100112
	C215	C	0.405450	0.900125	0.899180
	Zn216	Zn	0.500031	-0.000121	0.750052
	Zn217	Zn	0.500219	0.000061	0.250190
	Zn218	Zn	0.749720	0.500010	0.000427
	Zn219	Zn	0.249745	0.500075	0.000488
	Zn220	Zn	-0.000307	0.749554	0.500001
	Zn221	Zn	-0.000211	0.250557	0.499877
	Zn222	Zn	0.000243	0.499446	0.749638
	Zn223	Zn	0.000539	0.500134	0.249968
	Zn224	Zn	0.500009	0.751120	-0.000425
	Zn225	Zn	0.500078	0.249729	0.000344
	Zn226	Zn	0.750086	-0.000023	0.500051
	Zn227	Zn	0.249923	-0.000102	0.500105
	N228	N	0.414884	0.962765	0.677775
	N229	N	0.585677	0.036707	0.678361
	N230	N	0.585155	0.962412	0.322035
	N231	N	0.414198	0.037003	0.321181
	N232	N	0.677758	0.414969	0.962484
	N233	N	0.678518	0.585543	0.037475
	N234	N	0.321847	0.584971	0.962547
	N235	N	0.321989	0.415265	0.037919
	N236	N	0.962529	0.677414	0.415077
	N237	N	0.037254	0.677782	0.585072
	N238	N	0.962048	0.322555	0.584639
	N239	N	0.037724	0.321692	0.414492
	N240	N	0.962643	0.414156	0.678451
	N241	N	0.037405	0.584998	0.678109
	N242	N	0.963371	0.586005	0.320871
	N243	N	0.037910	0.414771	0.321636
	N244	N	0.414675	0.678887	0.962524
	N245	N	0.585258	0.678829	0.037262
	N246	N	0.585174	0.321488	0.963069
	N247	N	0.414252	0.321302	0.037522
	N248	N	0.678105	0.962281	0.415059
	N249	N	0.677902	0.037080	0.584917
	N250	N	0.322040	0.962590	0.584948
	N251	N	0.322003	0.037055	0.415205
	N252	N	0.914434	0.463081	0.178530
	N253	N	0.086153	0.537005	0.178574
	N254	N	0.086374	0.462602	0.820805
	N255	N	0.914813	0.536812	0.821413
	N256	N	0.177738	0.914990	0.462514
	N257	N	0.178674	0.085791	0.537325
	N258	N	0.821036	0.085673	0.462569
	N259	N	0.822018	0.914996	0.537234
	N260	N	0.462421	0.177403	0.915647
	N261	N	0.537353	0.177966	0.085654
	N262	N	0.462748	0.822632	0.085045
	N263	N	0.537537	0.822623	0.915115
	N264	N	0.462947	0.914747	0.178455
	N265	N	0.537766	0.085244	0.178740
	N266	N	0.463064	0.085866	0.821178
	N267	N	0.537191	0.914447	0.821480
	N268	N	0.914108	0.178846	0.462426
	N269	N	0.084517	0.178203	0.537468
	N270	N	0.085377	0.820865	0.462840
	N271	N	0.913918	0.821026	0.536478
	N272	N	0.177872	0.462288	0.915489
	N273	N	0.177373	0.537454	0.084578
	N274	N	0.821652	0.462830	0.085299
	N275	N	0.822593	0.537482	0.915716
