data_Molecule from HDF5

_cell_length_a		16.315468
_cell_length_b		16.351853
_cell_length_c		16.241773
_cell_angle_alpha	90.126086
_cell_angle_beta	89.984139
_cell_angle_gamma	89.922315
_symmetry_space_group_name_H-M	'P 1'
_symmetry_Int_Tables_number		1

loop_
	_symmetry_equiv_pos_as_xyz
	x,y,z

loop_
	_atom_site_label
	_atom_site_type_symbol
	_atom_site_fract_x
	_atom_site_fract_y
	_atom_site_fract_z
	H0	H	0.406744	0.839201	0.716305
	H1	H	0.601241	0.166302	0.718499
	H2	H	0.602276	0.839458	0.290234
	H3	H	0.405440	0.166100	0.289313
	H4	H	0.720653	0.403078	0.839749
	H5	H	0.718938	0.599680	0.167915
	H6	H	0.291784	0.600172	0.839481
	H7	H	0.291436	0.404074	0.167168
	H8	H	0.841953	0.720789	0.404199
	H9	H	0.168440	0.721291	0.604471
	H10	H	0.842163	0.289826	0.603846
	H11	H	0.167842	0.287806	0.403128
	H12	H	0.841728	0.409695	0.716149
	H13	H	0.169099	0.602161	0.718700
	H14	H	0.842044	0.603318	0.288604
	H15	H	0.169677	0.406944	0.291161
	H16	H	0.407039	0.715769	0.839614
	H17	H	0.605044	0.717441	0.167239
	H18	H	0.606221	0.286010	0.839990
	H19	H	0.407809	0.289488	0.167440
	H20	H	0.722189	0.841324	0.403442
	H21	H	0.716588	0.167361	0.601828
	H22	H	0.288398	0.841168	0.602276
	H23	H	0.290472	0.166452	0.406275
	H24	H	0.908857	0.339906	0.218383
	H25	H	0.103645	0.666943	0.218015
	H26	H	0.105378	0.341234	0.786931
	H27	H	0.907912	0.666977	0.791159
	H28	H	0.218056	0.906967	0.340118
	H29	H	0.218715	0.103614	0.667917
	H30	H	0.790085	0.103300	0.339615
	H31	H	0.791725	0.908662	0.668030
	H32	H	0.342118	0.219080	0.903642
	H33	H	0.668000	0.216929	0.102845
	H34	H	0.342188	0.785979	0.103082
	H35	H	0.668262	0.786834	0.904649
	H36	H	0.340499	0.905128	0.216641
	H37	H	0.668282	0.099570	0.217935
	H38	H	0.340615	0.099073	0.790625
	H39	H	0.667961	0.904269	0.789612
	H40	H	0.907216	0.218455	0.339180
	H41	H	0.102676	0.218122	0.668064
	H42	H	0.103947	0.789672	0.340627
	H43	H	0.904659	0.790219	0.666965
	H44	H	0.220051	0.339898	0.904084
	H45	H	0.222079	0.665230	0.103773
	H46	H	0.791260	0.339592	0.103771
	H47	H	0.789855	0.665705	0.905266
	H48	H	0.419117	0.111686	0.579320
	H49	H	0.592551	0.889585	0.595828
	H50	H	0.594271	0.118040	0.412930
	H51	H	0.403873	0.886619	0.414995
	H52	H	0.594213	0.412190	0.118047
	H53	H	0.603048	0.599719	0.884211
	H54	H	0.417570	0.592839	0.117522
	H55	H	0.408287	0.408833	0.884999
	H56	H	0.121060	0.599736	0.412955
	H57	H	0.891483	0.590726	0.596659
	H58	H	0.122691	0.410546	0.597070
	H59	H	0.893680	0.411531	0.425416
	H60	H	0.121598	0.409166	0.595952
	H61	H	0.887154	0.600832	0.603143
	H62	H	0.120196	0.596155	0.413183
	H63	H	0.890557	0.423605	0.402818
	H64	H	0.413427	0.599290	0.121654
	H65	H	0.601700	0.588345	0.888008
	H66	H	0.598479	0.404041	0.121491
	H67	H	0.414966	0.413504	0.888319
	H68	H	0.600093	0.119342	0.411839
	H69	H	0.603004	0.887856	0.590497
	H70	H	0.391843	0.125343	0.599570
	H71	H	0.409650	0.884497	0.402812
	H72	H	0.912053	0.617417	0.095425
	H73	H	0.098412	0.390038	0.089017
	H74	H	0.103988	0.620590	0.911721
	H75	H	0.904559	0.384791	0.908693
	H76	H	0.093152	0.907844	0.620678
	H77	H	0.097902	0.095342	0.387786
	H78	H	0.913607	0.088899	0.616210
	H79	H	0.904574	0.910517	0.384079
	H80	H	0.621558	0.094532	0.907559
	H81	H	0.387705	0.099951	0.095758
	H82	H	0.620277	0.909044	0.093632
	H83	H	0.393018	0.917376	0.916531
	H84	H	0.619957	0.911344	0.097971
	H85	H	0.388976	0.094279	0.094168
	H86	H	0.621011	0.098936	0.914163
	H87	H	0.385555	0.909253	0.899507
	H88	H	0.918414	0.106386	0.620610
	H89	H	0.095752	0.098906	0.387332
	H90	H	0.101919	0.911542	0.622911
	H91	H	0.914738	0.921131	0.390147
	H92	H	0.097617	0.619560	0.907928
	H93	H	0.106352	0.384729	0.100412
	H94	H	0.910772	0.618763	0.096758
	H95	H	0.918003	0.387108	0.903688
	H96	H	0.424370	0.120191	0.614808
	H97	H	0.601966	0.885236	0.601779
	H98	H	0.595594	0.119452	0.407255
	H99	H	0.416716	0.890184	0.413577
	H100	H	0.603679	0.411367	0.121054
	H101	H	0.592323	0.596412	0.888318
	H102	H	0.409124	0.591672	0.120832
	H103	H	0.416149	0.405295	0.885935
	H104	H	0.121247	0.597383	0.409838
	H105	H	0.890309	0.601949	0.590766
	H106	H	0.121719	0.410863	0.595784
	H107	H	0.883368	0.398896	0.405357
	H108	H	0.912801	0.618603	0.097762
	H109	H	0.092184	0.388251	0.103030
	H110	H	0.098090	0.617672	0.915011
	H111	H	0.914886	0.389524	0.917608
	H112	H	0.095646	0.917358	0.619290
	H113	H	0.099744	0.098348	0.386060
	H114	H	0.900983	0.100938	0.624029
	H115	H	0.919512	0.905835	0.387115
	H116	H	0.618738	0.090818	0.913831
	H117	H	0.388120	0.095733	0.099937
	H118	H	0.621592	0.907019	0.096910
	H119	H	0.386500	0.898149	0.916664
	C120	C	0.382948	0.011412	0.625790
	C121	C	0.626571	0.995221	0.625486
	C122	C	0.626351	0.011463	0.381971
	C123	C	0.382093	0.994956	0.382066
	C124	C	0.627402	0.380362	0.011839
	C125	C	0.627198	0.623505	0.995165
	C126	C	0.384392	0.623323	0.012045
	C127	C	0.384633	0.381352	0.994981
	C128	C	0.013247	0.626375	0.382791
	C129	C	0.997652	0.626528	0.625739
	C130	C	0.013713	0.382768	0.624952
	C131	C	0.997141	0.382731	0.382625
	C132	C	0.883674	0.510883	0.125875
	C133	C	0.128061	0.495046	0.126343
	C134	C	0.127967	0.511630	0.881935
	C135	C	0.884432	0.495093	0.882704
	C136	C	0.125793	0.883479	0.512863
	C137	C	0.126229	0.125919	0.495645
	C138	C	0.882733	0.126944	0.512016
	C139	C	0.883983	0.884208	0.495235
	C140	C	0.512974	0.123778	0.882500
	C141	C	0.496400	0.124628	0.125768
	C142	C	0.512842	0.880534	0.124983
	C143	C	0.496188	0.879827	0.882111
	C144	C	0.385723	0.888373	0.679358
	C145	C	0.622535	0.117499	0.681165
	C146	C	0.623608	0.888479	0.327548
	C147	C	0.385222	0.117400	0.327111
	C148	C	0.682907	0.382633	0.888712
	C149	C	0.681730	0.620611	0.118836
	C150	C	0.329374	0.620709	0.888589
	C151	C	0.329323	0.384012	0.118164
	C152	C	0.890560	0.682212	0.384207
	C153	C	0.120073	0.682390	0.624125
	C154	C	0.891055	0.327952	0.623526
	C155	C	0.119478	0.326484	0.383846
	C156	C	0.890714	0.387477	0.679379
	C157	C	0.120453	0.623412	0.680782
	C158	C	0.890688	0.623938	0.326698
	C159	C	0.120445	0.385807	0.328329
	C160	C	0.386783	0.677993	0.888519
	C161	C	0.624987	0.679001	0.118401
	C162	C	0.625705	0.324655	0.888685
	C163	C	0.387592	0.327443	0.118737
	C164	C	0.683261	0.889536	0.383636
	C165	C	0.679861	0.118198	0.622877
	C166	C	0.327176	0.889290	0.622457
	C167	C	0.327996	0.117931	0.385337
	C168	C	0.887279	0.388608	0.181090
	C169	C	0.125143	0.617744	0.181271
	C170	C	0.125466	0.389305	0.825874
	C171	C	0.887112	0.617977	0.828365
	C172	C	0.180415	0.886324	0.389073
	C173	C	0.180697	0.123273	0.619179
	C174	C	0.827830	0.123940	0.388629
	C175	C	0.829128	0.887585	0.618925
	C176	C	0.390415	0.179941	0.883956
	C177	C	0.619202	0.179362	0.123672
	C178	C	0.390387	0.824941	0.122828
	C179	C	0.619211	0.824559	0.884264
	C180	C	0.389661	0.883755	0.179650
	C181	C	0.619419	0.120581	0.180427
	C182	C	0.389825	0.120711	0.827799
	C183	C	0.619292	0.882769	0.827076
	C184	C	0.886062	0.181096	0.388380
	C185	C	0.123221	0.180580	0.618959
	C186	C	0.123554	0.828250	0.389257
	C187	C	0.884974	0.828587	0.618326
	C188	C	0.182807	0.388862	0.883915
	C189	C	0.183753	0.616998	0.124140
	C190	C	0.828984	0.388498	0.123896
	C191	C	0.828555	0.617311	0.885223
	C192	C	0.405218	0.096924	0.604193
	C193	C	0.605254	0.909500	0.602880
	C194	C	0.603487	0.096944	0.404245
	C195	C	0.403672	0.909247	0.404032
	C196	C	0.605172	0.402564	0.097956
	C197	C	0.605283	0.601239	0.909031
	C198	C	0.406810	0.601181	0.097935
	C199	C	0.406752	0.402934	0.908608
	C200	C	0.098689	0.604286	0.405426
	C201	C	0.911833	0.604239	0.603336
	C202	C	0.099755	0.404042	0.602926
	C203	C	0.911362	0.404810	0.404800
	C204	C	0.905475	0.596221	0.103279
	C205	C	0.105517	0.409642	0.103920
	C206	C	0.106096	0.597134	0.904706
	C207	C	0.906261	0.409403	0.903790
	C208	C	0.103590	0.905670	0.598703
	C209	C	0.104419	0.103882	0.409365
	C210	C	0.904777	0.105263	0.598111
	C211	C	0.906403	0.905936	0.409535
	C212	C	0.598359	0.101378	0.905294
	C213	C	0.410557	0.103145	0.103315
	C214	C	0.598440	0.902543	0.102719
	C215	C	0.410562	0.901669	0.904437
	Zn216	Zn	0.504653	0.001997	0.754143
	Zn217	Zn	0.503897	0.002451	0.253946
	Zn218	Zn	0.755426	0.502375	0.003790
	Zn219	Zn	0.256371	0.502445	0.003750
	Zn220	Zn	0.005369	0.755116	0.504672
	Zn221	Zn	0.005134	0.254211	0.503788
	Zn222	Zn	0.005805	0.504067	0.753823
	Zn223	Zn	0.005455	0.503833	0.254558
	Zn224	Zn	0.505120	0.751325	0.003575
	Zn225	Zn	0.505284	0.252723	0.003337
	Zn226	Zn	0.755296	0.004537	0.503728
	Zn227	Zn	0.253807	0.004500	0.504123
	N228	N	0.419862	0.965231	0.681393
	N229	N	0.590235	0.039946	0.682803
	N230	N	0.589147	0.965167	0.326269
	N231	N	0.417843	0.039742	0.324799
	N232	N	0.684242	0.416498	0.966297
	N233	N	0.683064	0.586655	0.041260
	N234	N	0.327784	0.587468	0.966306
	N235	N	0.327734	0.416904	0.040283
	N236	N	0.967761	0.683983	0.418194
	N237	N	0.042460	0.684513	0.590840
	N238	N	0.968521	0.325179	0.590241
	N239	N	0.041770	0.324404	0.416886
	N240	N	0.968206	0.420516	0.680573
	N241	N	0.043230	0.589625	0.681919
	N242	N	0.967873	0.590011	0.325675
	N243	N	0.043416	0.420158	0.327425
	N244	N	0.420334	0.679502	0.966278
	N245	N	0.591745	0.680831	0.040654
	N246	N	0.591927	0.323212	0.966241
	N247	N	0.421133	0.325400	0.040973
	N248	N	0.685014	0.967213	0.416818
	N249	N	0.682557	0.040980	0.588969
	N250	N	0.325183	0.966898	0.589996
	N251	N	0.326197	0.040967	0.418979
	N252	N	0.920824	0.465818	0.182422
	N253	N	0.091046	0.540869	0.182745
	N254	N	0.092058	0.466619	0.824405
	N255	N	0.920984	0.540911	0.826641
	N256	N	0.181948	0.920004	0.466821
	N257	N	0.182780	0.090227	0.541313
	N258	N	0.825686	0.090964	0.466546
	N259	N	0.828497	0.921761	0.541578
	N260	N	0.467935	0.181941	0.917272
	N261	N	0.541798	0.181808	0.090278
	N262	N	0.467962	0.822756	0.089745
	N263	N	0.541734	0.822620	0.917602
	N264	N	0.466753	0.917711	0.180931
	N265	N	0.541855	0.087394	0.181940
	N266	N	0.466850	0.086317	0.827029
	N267	N	0.541988	0.916387	0.825479
	N268	N	0.919484	0.182881	0.466049
	N269	N	0.089947	0.182138	0.541274
	N270	N	0.090358	0.826319	0.467149
	N271	N	0.918453	0.826427	0.540693
	N272	N	0.184508	0.465870	0.918104
	N273	N	0.185775	0.539589	0.090947
	N274	N	0.826430	0.465709	0.090522
	N275	N	0.826772	0.539902	0.918272
	O276	O	0.510721	0.502704	-0.505759
	H277	H	0.512357	0.510526	-0.510128
	H278	H	0.504743	0.493317	-0.498984
	O279	O	-0.044170	-0.041011	0.003693
	H280	H	-0.041178	-0.037966	0.004458
	H281	H	-0.042906	-0.034212	0.005705
	O282	O	-0.010528	-0.031516	1.041586
	H283	H	-0.012690	-0.022712	1.035274
	H284	H	-0.012322	-0.025126	1.041352
	O285	O	0.504196	0.496156	0.521049
	H286	H	0.501571	0.501481	0.526777
	H287	H	0.516193	0.498841	0.518406
	O288	O	0.572043	0.459818	0.508157
	H289	H	0.584160	0.461841	0.504830
	H290	H	0.570615	0.461991	0.496714
	O291	O	0.516906	0.443902	0.495011
	H292	H	0.522371	0.440769	0.486183
	H293	H	0.517776	0.438552	0.487668
	O294	O	-0.123844	-0.010698	-0.034337
	H295	H	-0.112845	-0.026829	-0.040708
	H296	H	-0.124808	-0.008837	-0.047679
	O297	O	0.570805	0.487528	0.501692
	H298	H	0.578279	0.484496	0.512802
	H299	H	0.567578	0.489304	0.506959
	O300	O	-0.020774	0.951281	0.958811
	H301	H	-0.018570	0.951348	0.952925
	H302	H	-0.019706	0.948948	0.974255
	O303	O	0.476575	0.508518	0.466569
	H304	H	0.471109	0.501251	0.466667
	H305	H	0.468413	0.513140	0.465743
	O306	O	-0.055051	0.020094	0.995656
	H307	H	-0.059502	0.024683	0.992441
	H308	H	-0.064338	0.013052	0.991845
	O309	O	0.937992	0.991377	0.994159
	H310	H	0.924569	0.997118	0.978074
	H311	H	0.949842	0.992668	0.992353
	O312	O	0.483408	0.537149	0.470452
	H313	H	0.484004	0.536500	0.474281
	H314	H	0.482945	0.543305	0.466226
	O315	O	0.556042	0.471975	0.459188
	H316	H	0.560707	0.465747	0.456238
	H317	H	0.560004	0.477720	0.466539
	O318	O	0.001889	0.951842	-0.040746
	H319	H	0.004733	0.946273	-0.031163
	H320	H	0.004912	0.950540	-0.037248
	O321	O	1.000400	0.893516	0.028758
	H322	H	0.985411	0.891206	0.034338
	H323	H	1.001806	0.889750	0.039149
