data_Molecule from HDF5

_cell_length_a		16.308316
_cell_length_b		16.445162
_cell_length_c		16.134291
_cell_angle_alpha	89.930995
_cell_angle_beta	90.375447
_cell_angle_gamma	89.956160
_symmetry_space_group_name_H-M	'P 1'
_symmetry_Int_Tables_number		1

loop_
	_symmetry_equiv_pos_as_xyz
	x,y,z

loop_
	_atom_site_label
	_atom_site_type_symbol
	_atom_site_fract_x
	_atom_site_fract_y
	_atom_site_fract_z
	H0	H	0.407590	0.836519	0.703625
	H1	H	0.602385	0.161691	0.705932
	H2	H	0.601927	0.837509	0.274221
	H3	H	0.402651	0.160820	0.273019
	H4	H	0.714204	0.399483	0.824182
	H5	H	0.717755	0.596754	0.153197
	H6	H	0.286927	0.598713	0.823963
	H7	H	0.289644	0.401013	0.153869
	H8	H	0.841118	0.719654	0.384106
	H9	H	0.164827	0.716812	0.591887
	H10	H	0.841152	0.280969	0.591284
	H11	H	0.164799	0.281903	0.385770
	H12	H	0.838278	0.403586	0.699263
	H13	H	0.166425	0.595402	0.702733
	H14	H	0.838886	0.598791	0.272739
	H15	H	0.166766	0.404046	0.276299
	H16	H	0.398571	0.717119	0.826250
	H17	H	0.604572	0.714668	0.153187
	H18	H	0.600906	0.283748	0.825545
	H19	H	0.400920	0.282789	0.152312
	H20	H	0.720264	0.838344	0.389270
	H21	H	0.722192	0.160656	0.593069
	H22	H	0.284947	0.839076	0.591049
	H23	H	0.283906	0.160004	0.386234
	H24	H	0.903923	0.337798	0.205950
	H25	H	0.102377	0.661688	0.205127
	H26	H	0.099641	0.336845	0.774915
	H27	H	0.903114	0.661507	0.772990
	H28	H	0.216959	0.900986	0.324452
	H29	H	0.219388	0.099769	0.652551
	H30	H	0.785331	0.100140	0.325981
	H31	H	0.790474	0.900620	0.653796
	H32	H	0.340785	0.216464	0.885471
	H33	H	0.663795	0.218526	0.093738
	H34	H	0.341281	0.779443	0.093215
	H35	H	0.663308	0.779013	0.887599
	H36	H	0.338827	0.899721	0.204142
	H37	H	0.666009	0.096335	0.204544
	H38	H	0.340205	0.097960	0.772343
	H39	H	0.667260	0.900869	0.778731
	H40	H	0.899100	0.217207	0.325889
	H41	H	0.106154	0.215930	0.652086
	H42	H	0.104917	0.783182	0.325497
	H43	H	0.902803	0.783505	0.652183
	H44	H	0.218119	0.337965	0.888985
	H45	H	0.222915	0.659927	0.092502
	H46	H	0.784583	0.337927	0.092183
	H47	H	0.783611	0.660177	0.886837
	H48	H	0.408021	0.115152	0.580165
	H49	H	0.595465	0.884556	0.586503
	H50	H	0.593340	0.112653	0.400391
	H51	H	0.410755	0.884293	0.394348
	H52	H	0.589858	0.406457	0.105416
	H53	H	0.596525	0.589668	0.870594
	H54	H	0.411913	0.593244	0.107192
	H55	H	0.410088	0.409964	0.872988
	H56	H	0.120650	0.590116	0.386665
	H57	H	0.884432	0.594518	0.585814
	H58	H	0.116541	0.407568	0.573592
	H59	H	0.888735	0.413437	0.394079
	H60	H	0.118391	0.412052	0.585668
	H61	H	0.886079	0.600582	0.573992
	H62	H	0.121132	0.605336	0.400506
	H63	H	0.884813	0.401867	0.395280
	H64	H	0.410294	0.587085	0.105198
	H65	H	0.588099	0.587695	0.874337
	H66	H	0.596690	0.404937	0.108394
	H67	H	0.412257	0.404534	0.871646
	H68	H	0.598436	0.115266	0.398512
	H69	H	0.597174	0.885435	0.579674
	H70	H	0.412236	0.114569	0.583838
	H71	H	0.413044	0.886462	0.401116
	H72	H	0.903967	0.614618	0.076811
	H73	H	0.094288	0.387859	0.074508
	H74	H	0.095252	0.615397	0.892914
	H75	H	0.901245	0.381104	0.888190
	H76	H	0.096127	0.910768	0.604996
	H77	H	0.096935	0.092679	0.369717
	H78	H	0.914627	0.097909	0.607378
	H79	H	0.910726	0.901245	0.369197
	H80	H	0.620283	0.097843	0.899265
	H81	H	0.387178	0.088590	0.082407
	H82	H	0.615139	0.912443	0.080511
	H83	H	0.386889	0.901892	0.902176
	H84	H	0.620133	0.903906	0.087130
	H85	H	0.385639	0.095949	0.081234
	H86	H	0.617002	0.091602	0.904113
	H87	H	0.389558	0.913244	0.901232
	H88	H	0.908612	0.089603	0.607493
	H89	H	0.091161	0.087164	0.373809
	H90	H	0.091429	0.907680	0.604545
	H91	H	0.904841	0.914608	0.371501
	H92	H	0.092090	0.613319	0.898019
	H93	H	0.102882	0.382790	0.083129
	H94	H	0.911821	0.614336	0.084165
	H95	H	0.914959	0.385595	0.892071
	H96	H	0.412582	0.113430	0.578660
	H97	H	0.602424	0.882928	0.584466
	H98	H	0.594155	0.114635	0.394640
	H99	H	0.405561	0.884780	0.400055
	H100	H	0.594996	0.412115	0.104856
	H101	H	0.590211	0.596022	0.871393
	H102	H	0.416638	0.589748	0.103872
	H103	H	0.406017	0.405943	0.869618
	H104	H	0.113307	0.586665	0.406046
	H105	H	0.889081	0.587350	0.575611
	H106	H	0.120808	0.400187	0.583016
	H107	H	0.889417	0.407908	0.405754
	H108	H	0.913380	0.610378	0.073854
	H109	H	0.090655	0.385795	0.086463
	H110	H	0.097728	0.615096	0.899161
	H111	H	0.904812	0.385737	0.902799
	H112	H	0.095863	0.905348	0.606947
	H113	H	0.089105	0.095700	0.371697
	H114	H	0.918120	0.089846	0.603373
	H115	H	0.918201	0.911382	0.375716
	H116	H	0.619654	0.090760	0.895700
	H117	H	0.388200	0.091923	0.075208
	H118	H	0.617024	0.901836	0.075484
	H119	H	0.385706	0.907358	0.891877
	C120	C	0.381634	0.007728	0.610878
	C121	C	0.627022	0.991243	0.612981
	C122	C	0.624532	0.007519	0.368316
	C123	C	0.380258	0.991347	0.367399
	C124	C	0.622572	0.378521	-0.002221
	C125	C	0.622549	0.620335	0.980096
	C126	C	0.381669	0.620104	-0.002690
	C127	C	0.380327	0.377638	0.980094
	C128	C	0.010951	0.622980	0.366489
	C129	C	0.994054	0.621963	0.609506
	C130	C	0.011042	0.377850	0.609791
	C131	C	0.994986	0.378807	0.367999
	C132	C	0.880520	0.506884	0.109780
	C133	C	0.125539	0.491622	0.111568
	C134	C	0.123755	0.507541	0.867500
	C135	C	0.878332	0.490838	0.865144
	C136	C	0.124203	0.878597	0.497467
	C137	C	0.123429	0.121220	0.479833
	C138	C	0.881707	0.122132	0.498114
	C139	C	0.882350	0.879259	0.480357
	C140	C	0.511474	0.121703	0.868257
	C141	C	0.494154	0.121373	0.110823
	C142	C	0.510334	0.876546	0.111192
	C143	C	0.494526	0.877862	0.869037
	C144	C	0.385242	0.885592	0.666493
	C145	C	0.623723	0.113308	0.668265
	C146	C	0.622457	0.885966	0.312460
	C147	C	0.382383	0.112535	0.310906
	C148	C	0.677321	0.379468	0.873755
	C149	C	0.679631	0.617797	0.104111
	C150	C	0.324438	0.619041	0.873574
	C151	C	0.326338	0.380106	0.104144
	C152	C	0.889147	0.680289	0.365422
	C153	C	0.116494	0.677854	0.610390
	C154	C	0.889329	0.320659	0.609606
	C155	C	0.116603	0.321665	0.367378
	C156	C	0.887658	0.381684	0.663347
	C157	C	0.117165	0.617626	0.665703
	C158	C	0.888155	0.620362	0.309933
	C159	C	0.117620	0.382293	0.312955
	C160	C	0.380267	0.677662	0.874608
	C161	C	0.623574	0.676489	0.103881
	C162	C	0.620943	0.322128	0.874185
	C163	C	0.381691	0.321005	0.103343
	C164	C	0.681324	0.886467	0.369857
	C165	C	0.683148	0.112648	0.612152
	C166	C	0.324385	0.886772	0.610235
	C167	C	0.323172	0.112179	0.367042
	C168	C	0.883041	0.386238	0.167609
	C169	C	0.123333	0.613090	0.167613
	C170	C	0.120881	0.385722	0.812145
	C171	C	0.881628	0.612661	0.809863
	C172	C	0.179585	0.880469	0.373678
	C173	C	0.180884	0.119658	0.603430
	C174	C	0.823976	0.120534	0.374876
	C175	C	0.827942	0.880744	0.604338
	C176	C	0.389261	0.177886	0.866688
	C177	C	0.615806	0.178577	0.111677
	C178	C	0.389102	0.818864	0.111841
	C179	C	0.615881	0.819521	0.869435
	C180	C	0.388066	0.878833	0.166976
	C181	C	0.616778	0.117981	0.167026
	C182	C	0.389101	0.118800	0.810497
	C183	C	0.617622	0.879833	0.814645
	C184	C	0.880630	0.178646	0.374906
	C185	C	0.124293	0.177450	0.603284
	C186	C	0.123695	0.822080	0.374208
	C187	C	0.883644	0.822397	0.603426
	C188	C	0.179666	0.386060	0.869240
	C189	C	0.183303	0.612140	0.111639
	C190	C	0.823833	0.386088	0.110714
	C191	C	0.822143	0.611919	0.866585
	C192	C	0.404409	0.092416	0.587742
	C193	C	0.605028	0.906538	0.590214
	C194	C	0.601961	0.092242	0.391217
	C195	C	0.403085	0.906966	0.391428
	C196	C	0.600259	0.401149	0.083712
	C197	C	0.598611	0.597828	0.894483
	C198	C	0.405841	0.596708	0.083084
	C199	C	0.402847	0.400064	0.893909
	C200	C	0.096329	0.600702	0.390539
	C201	C	0.908602	0.600642	0.585539
	C202	C	0.096366	0.400107	0.587326
	C203	C	0.909760	0.401346	0.391479
	C204	C	0.903127	0.591290	0.085280
	C205	C	0.102707	0.407230	0.088208
	C206	C	0.101495	0.592501	0.890115
	C207	C	0.900466	0.405886	0.887801
	C208	C	0.101320	0.901317	0.583262
	C209	C	0.099558	0.098423	0.393995
	C210	C	0.906424	0.098944	0.583943
	C211	C	0.904698	0.902188	0.394267
	C212	C	0.596764	0.099702	0.892538
	C213	C	0.408835	0.098784	0.086569
	C214	C	0.595390	0.899403	0.087879
	C215	C	0.409605	0.900954	0.891735
	Zn216	Zn	0.504478	-0.000733	0.740664
	Zn217	Zn	0.501853	-0.001075	0.238973
	Zn218	Zn	0.749896	0.498095	-0.011586
	Zn219	Zn	0.253530	0.499630	-0.011126
	Zn220	Zn	0.002817	0.751158	0.488510
	Zn221	Zn	0.003387	0.249410	0.488647
	Zn222	Zn	0.002263	0.499396	0.737659
	Zn223	Zn	0.002337	0.500236	0.239603
	Zn224	Zn	0.501823	0.748806	-0.010611
	Zn225	Zn	0.502413	0.250776	-0.011066
	Zn226	Zn	0.754802	-0.000006	0.490135
	Zn227	Zn	0.251135	-0.000040	0.488495
	N228	N	0.419952	0.961728	0.666831
	N229	N	0.589638	0.036760	0.669072
	N230	N	0.587856	0.962098	0.311357
	N231	N	0.417148	0.036253	0.311022
	N232	N	0.678570	0.413769	0.951531
	N233	N	0.679547	0.583777	0.026292
	N234	N	0.325188	0.583786	0.951020
	N235	N	0.325409	0.414481	0.026582
	N236	N	0.966606	0.682080	0.399795
	N237	N	0.039044	0.680422	0.575871
	N238	N	0.966995	0.318070	0.576994
	N239	N	0.039238	0.319538	0.400958
	N240	N	0.964429	0.416354	0.663779
	N241	N	0.040124	0.583719	0.665251
	N242	N	0.964950	0.585559	0.310500
	N243	N	0.040886	0.417232	0.313253
	N244	N	0.414965	0.678362	0.952392
	N245	N	0.588776	0.678231	0.025940
	N246	N	0.587721	0.321216	0.952221
	N247	N	0.414643	0.319269	0.024914
	N248	N	0.682871	0.963223	0.403734
	N249	N	0.685266	0.035853	0.578491
	N250	N	0.321885	0.963776	0.576556
	N251	N	0.321893	0.035904	0.401573
	N252	N	0.917539	0.462506	0.167142
	N253	N	0.087928	0.537164	0.167519
	N254	N	0.086775	0.462127	0.811067
	N255	N	0.915906	0.536369	0.809020
	N256	N	0.180107	0.914855	0.451303
	N257	N	0.180570	0.085356	0.525764
	N258	N	0.824131	0.086453	0.452659
	N259	N	0.826913	0.915382	0.526745
	N260	N	0.466357	0.179959	0.901824
	N261	N	0.538413	0.180810	0.077311
	N262	N	0.466281	0.817222	0.078003
	N263	N	0.538354	0.818067	0.902316
	N264	N	0.464502	0.913943	0.166810
	N265	N	0.540196	0.083095	0.166322
	N266	N	0.466004	0.084377	0.811527
	N267	N	0.541284	0.915642	0.814376
	N268	N	0.915641	0.179856	0.452698
	N269	N	0.089187	0.178338	0.525521
	N270	N	0.089905	0.820760	0.452082
	N271	N	0.916724	0.821429	0.525295
	N272	N	0.181501	0.462961	0.902995
	N273	N	0.184606	0.535672	0.077362
	N274	N	0.822193	0.462216	0.075365
	N275	N	0.820099	0.535106	0.900472
	O276	O	1.148241	0.004548	1.034129
	H277	H	1.153540	-0.001022	1.028131
	H278	H	1.144102	-0.000664	1.030503
	O279	O	0.590920	0.485138	0.428359
	H280	H	0.581636	0.486885	0.429103
	H281	H	0.599119	0.484048	0.434694
	O282	O	0.508275	0.457865	0.517640
	H283	H	0.508501	0.457602	0.509067
	H284	H	0.511312	0.456904	0.528189
	O285	O	0.520109	0.404187	0.465619
	H286	H	0.513985	0.409590	0.456211
	H287	H	0.517758	0.392927	0.472681
	O288	O	0.468768	0.548167	0.494339
	H289	H	0.469496	0.548640	0.489953
	H290	H	0.456218	0.551136	0.490422
	O291	O	0.006785	-0.036771	0.946305
	H292	H	0.007812	-0.042380	0.945260
	H293	H	0.003223	-0.035809	0.947211
	O294	O	1.017216	0.974836	-0.023239
	H295	H	1.019781	0.980596	-0.032407
	H296	H	1.003430	0.983392	-0.029439
	O297	O	1.105675	0.862550	-0.152521
	H298	H	1.113614	0.866925	-0.153991
	H299	H	1.103710	0.869500	-0.157313
	O300	O	0.401462	0.440289	0.463275
	H301	H	0.400972	0.442993	0.463981
	H302	H	0.411169	0.430944	0.457604
	O303	O	0.496997	0.446993	0.552188
	H304	H	0.486884	0.459049	0.558806
	H305	H	0.504601	0.449778	0.542388
	O306	O	-0.006967	1.075139	1.051232
	H307	H	-0.004351	1.080224	1.049573
	H308	H	0.001078	1.072480	1.062557
	O309	O	0.601376	0.503022	0.519347
	H310	H	0.587919	0.499194	0.520286
	H311	H	0.604996	0.516451	0.523243
	O312	O	1.006011	1.096412	0.990521
	H313	H	1.006499	1.103353	0.976935
	H314	H	1.014475	1.082326	1.007066
	O315	O	0.914979	1.074459	-0.103649
	H316	H	0.897522	1.064113	-0.099801
	H317	H	0.928596	1.077917	-0.104847
	O318	O	0.952475	0.123558	0.933820
	H319	H	0.944698	0.143448	0.943126
	H320	H	0.962507	0.125176	0.933293
	O321	O	0.453813	0.481788	0.388759
	H322	H	0.450385	0.492438	0.394194
	H323	H	0.449919	0.480305	0.379285
	O324	O	-0.146835	0.940427	1.025046
	H325	H	-0.142757	0.942223	1.029466
	H326	H	-0.149021	0.946793	1.027624
	O327	O	-0.022348	0.955189	0.996413
	H328	H	-0.026534	0.949027	0.991984
	H329	H	-0.028235	0.953132	0.998558
	O330	O	-0.392755	-0.500950	-0.471181
	H331	H	-0.392166	-0.501502	-0.473421
	H332	H	-0.384121	-0.487064	-0.466382
	O333	O	0.418914	0.632841	0.403731
	H334	H	0.408843	0.638433	0.408777
	H335	H	0.418707	0.630047	0.408848
	O336	O	-0.020178	-0.058636	0.061519
	H337	H	-0.016720	-0.056594	0.057010
	H338	H	-0.006502	-0.056845	0.068345
	O339	O	-0.053307	0.154989	-0.055560
	H340	H	-0.063001	0.148313	-0.057244
	H341	H	-0.050376	0.161529	-0.042328
	O342	O	0.969532	-0.106063	1.114405
	H343	H	0.972713	-0.098300	1.109576
	H344	H	0.963642	-0.109135	1.106754
	O345	O	-0.014325	0.903964	0.952922
	H346	H	-0.027210	0.917044	0.954576
	H347	H	-0.007390	0.899393	0.957949
	O348	O	0.463320	0.526805	0.541232
	H349	H	0.461056	0.518339	0.543730
	H350	H	0.464272	0.521268	0.544553
	O351	O	0.578550	0.502703	0.390174
	H352	H	0.585267	0.503306	0.393387
	H353	H	0.587528	0.504364	0.385967
	O354	O	-0.533615	1.416352	0.491465
	H355	H	-0.545844	1.427219	0.494813
	H356	H	-0.536462	1.417462	0.497304
	O357	O	0.386085	0.572378	0.419874
	H358	H	0.382871	0.565033	0.415003
	H359	H	0.386142	0.574195	0.421445
	O360	O	0.946156	0.074685	1.037086
	H361	H	0.947948	0.060945	1.045157
	H362	H	0.956141	0.076394	1.038497
	O363	O	0.514617	0.510626	0.529687
	H364	H	0.511282	0.502058	0.543967
	H365	H	0.515165	0.506577	0.525342
	O366	O	0.579599	0.588190	0.384597
	H367	H	0.569147	0.593657	0.382378
	H368	H	0.577869	0.574306	0.393468
	O369	O	1.152856	-0.021149	0.103062
	H370	H	1.154685	-0.013143	0.093064
	H371	H	1.158858	-0.028589	0.101096
	O372	O	0.538295	0.518938	0.557600
	H373	H	0.539882	0.514421	0.563876
	H374	H	0.543001	0.528329	0.555929
	O375	O	0.930963	-0.117124	0.987115
	H376	H	0.924523	-0.134413	0.993224
	H377	H	0.932242	-0.104812	1.004585
	O378	O	0.048405	0.923926	-0.070699
	H379	H	0.057958	0.915479	-0.059255
	H380	H	0.037030	0.938616	-0.064597
	O381	O	-0.419566	1.398697	1.459899
	H382	H	-0.407445	1.399411	1.458051
	H383	H	-0.413215	1.402171	1.440685
	O384	O	1.014243	1.023978	-0.064601
	H385	H	1.001080	1.027617	-0.063794
	H386	H	1.005546	1.030242	-0.070387
	O387	O	1.038122	-0.039651	0.853433
	H388	H	1.019135	-0.047033	0.861786
	H389	H	1.047135	-0.048457	0.840648
	O390	O	1.068161	1.096519	0.036005
	H391	H	1.068838	1.085272	0.041591
	H392	H	1.066240	1.097070	0.019729
	O393	O	0.538597	0.609584	0.507815
	H394	H	0.539932	0.617587	0.506986
	H395	H	0.546090	0.606937	0.516001
