data_Molecule from HDF5

_cell_length_a		16.378895
_cell_length_b		16.554072
_cell_length_c		16.454292
_cell_angle_alpha	90.077373
_cell_angle_beta	90.029579
_cell_angle_gamma	90.195616
_symmetry_space_group_name_H-M	'P 1'
_symmetry_Int_Tables_number		1

loop_
	_symmetry_equiv_pos_as_xyz
	x,y,z

loop_
	_atom_site_label
	_atom_site_type_symbol
	_atom_site_fract_x
	_atom_site_fract_y
	_atom_site_fract_z
	H0	H	0.392016	0.843483	0.733114
	H1	H	0.612130	0.155111	0.732107
	H2	H	0.608493	0.842446	0.283604
	H3	H	0.396295	0.155680	0.284764
	H4	H	0.722371	0.393329	0.847522
	H5	H	0.725487	0.606124	0.162186
	H6	H	0.280476	0.603925	0.848525
	H7	H	0.281726	0.395359	0.165219
	H8	H	0.845963	0.723251	0.398518
	H9	H	0.159459	0.723427	0.616644
	H10	H	0.845065	0.273484	0.615785
	H11	H	0.159158	0.276634	0.398148
	H12	H	0.843942	0.390529	0.729293
	H13	H	0.159656	0.606429	0.730847
	H14	H	0.845245	0.607712	0.282545
	H15	H	0.159276	0.393447	0.283390
	H16	H	0.388964	0.726264	0.852293
	H17	H	0.612012	0.724737	0.162350
	H18	H	0.611229	0.272005	0.850927
	H19	H	0.395191	0.277251	0.164780
	H20	H	0.724504	0.841667	0.400912
	H21	H	0.728771	0.154224	0.616202
	H22	H	0.276785	0.843181	0.614991
	H23	H	0.280909	0.156201	0.400918
	H24	H	0.892967	0.343880	0.230396
	H25	H	0.108909	0.656534	0.228321
	H26	H	0.104508	0.341185	0.785823
	H27	H	0.892752	0.655254	0.781184
	H28	H	0.223981	0.894523	0.348633
	H29	H	0.222338	0.104824	0.665305
	H30	H	0.781040	0.102054	0.349178
	H31	H	0.779510	0.890357	0.664808
	H32	H	0.344227	0.220903	0.900608
	H33	H	0.659801	0.221308	0.114406
	H34	H	0.345170	0.773529	0.118373
	H35	H	0.658402	0.774903	0.898370
	H36	H	0.343836	0.892519	0.229757
	H37	H	0.661663	0.102985	0.227526
	H38	H	0.345780	0.108515	0.782432
	H39	H	0.658964	0.890819	0.783708
	H40	H	0.891798	0.222686	0.350673
	H41	H	0.107465	0.221789	0.663463
	H42	H	0.111359	0.775247	0.349861
	H43	H	0.893848	0.773872	0.663888
	H44	H	0.222273	0.341403	0.901843
	H45	H	0.225347	0.656217	0.112479
	H46	H	0.778999	0.342361	0.111529
	H47	H	0.778953	0.655711	0.899444
	H48	H	0.420498	0.108171	0.594554
	H49	H	0.587775	0.889389	0.592638
	H50	H	0.592299	0.108345	0.425281
	H51	H	0.411763	0.888716	0.424471
	H52	H	0.590449	0.412257	0.118261
	H53	H	0.586909	0.592113	0.892034
	H54	H	0.417012	0.589639	0.118275
	H55	H	0.408614	0.407086	0.891672
	H56	H	0.115581	0.584825	0.416417
	H57	H	0.889196	0.585508	0.595721
	H58	H	0.113382	0.416329	0.595016
	H59	H	0.889417	0.414683	0.416461
	H60	H	0.116664	0.408959	0.597071
	H61	H	0.889913	0.589150	0.592044
	H62	H	0.116202	0.590356	0.417990
	H63	H	0.886522	0.407244	0.416040
	H64	H	0.411495	0.587261	0.119280
	H65	H	0.591074	0.584056	0.894253
	H66	H	0.587608	0.411262	0.117643
	H67	H	0.414652	0.414110	0.895207
	H68	H	0.596466	0.113377	0.416577
	H69	H	0.591413	0.886855	0.596177
	H70	H	0.411688	0.109039	0.590643
	H71	H	0.408646	0.883925	0.414901
	H72	H	0.918241	0.611208	0.098094
	H73	H	0.084326	0.391692	0.089729
	H74	H	0.092009	0.611642	0.918501
	H75	H	0.910425	0.387768	0.919837
	H76	H	0.084131	0.907469	0.617820
	H77	H	0.087492	0.092831	0.392756
	H78	H	0.918089	0.082287	0.617743
	H79	H	0.909988	0.910007	0.393604
	H80	H	0.613481	0.085860	0.924728
	H81	H	0.387630	0.090834	0.097400
	H82	H	0.615369	0.914401	0.100097
	H83	H	0.390606	0.912844	0.922110
	H84	H	0.616849	0.905671	0.094562
	H85	H	0.390124	0.087282	0.094050
	H86	H	0.613910	0.083090	0.918299
	H87	H	0.389748	0.912921	0.921500
	H88	H	0.919272	0.091004	0.618838
	H89	H	0.095691	0.088640	0.390779
	H90	H	0.093740	0.910436	0.620390
	H91	H	0.916668	0.914416	0.397328
	H92	H	0.088805	0.611379	0.915269
	H93	H	0.098536	0.385113	0.092704
	H94	H	0.915385	0.608138	0.088776
	H95	H	0.911663	0.385680	0.913813
	H96	H	0.412852	0.111996	0.599933
	H97	H	0.586401	0.887743	0.597863
	H98	H	0.586469	0.109322	0.415674
	H99	H	0.418740	0.888715	0.415965
	H100	H	0.589500	0.409324	0.118654
	H101	H	0.582270	0.585642	0.896877
	H102	H	0.415884	0.583845	0.117486
	H103	H	0.417908	0.404825	0.893570
	H104	H	0.113552	0.586806	0.421930
	H105	H	0.891649	0.584547	0.591447
	H106	H	0.113132	0.409459	0.589739
	H107	H	0.889523	0.409793	0.422745
	H108	H	0.908733	0.613032	0.094615
	H109	H	0.087323	0.385586	0.104031
	H110	H	0.088279	0.609417	0.919570
	H111	H	0.916020	0.389230	0.917144
	H112	H	0.087412	0.916887	0.616015
	H113	H	0.089254	0.084128	0.396202
	H114	H	0.911634	0.087904	0.621492
	H115	H	0.918300	0.906015	0.395008
	H116	H	0.616396	0.090166	0.919611
	H117	H	0.387895	0.086142	0.098523
	H118	H	0.612140	0.913884	0.090311
	H119	H	0.389532	0.912456	0.922247
	C120	C	0.380365	0.007103	0.629344
	C121	C	0.623981	0.990558	0.629605
	C122	C	0.624091	0.006942	0.386015
	C123	C	0.380483	0.990633	0.385425
	C124	C	0.622790	0.377377	0.014503
	C125	C	0.622223	0.620892	0.997538
	C126	C	0.380360	0.620805	0.015396
	C127	C	0.380415	0.376683	0.998055
	C128	C	0.011007	0.620433	0.385469
	C129	C	0.993907	0.620386	0.627825
	C130	C	0.010090	0.377790	0.627537
	C131	C	0.992956	0.378038	0.384927
	C132	C	0.880142	0.507700	0.127343
	C133	C	0.123699	0.491016	0.128172
	C134	C	0.122576	0.507345	0.885338
	C135	C	0.879386	0.490630	0.883787
	C136	C	0.122990	0.878261	0.514559
	C137	C	0.123600	0.121294	0.497484
	C138	C	0.881829	0.119686	0.515618
	C139	C	0.881050	0.876407	0.498800
	C140	C	0.510818	0.120311	0.886685
	C141	C	0.493427	0.120217	0.129003
	C142	C	0.510386	0.877544	0.128773
	C143	C	0.493460	0.878702	0.887118
	C144	C	0.375336	0.890229	0.691797
	C145	C	0.629048	0.108057	0.691282
	C146	C	0.626623	0.889223	0.324627
	C147	C	0.378001	0.108453	0.324763
	C148	C	0.683225	0.374280	0.895660
	C149	C	0.684792	0.624389	0.115368
	C150	C	0.319443	0.623257	0.896652
	C151	C	0.320758	0.376038	0.117306
	C152	C	0.892972	0.682297	0.380832
	C153	C	0.112249	0.682330	0.633193
	C154	C	0.891847	0.315371	0.631936
	C155	C	0.111547	0.316987	0.380743
	C156	C	0.891430	0.373548	0.689005
	C157	C	0.112174	0.624272	0.690491
	C158	C	0.892630	0.624562	0.323305
	C159	C	0.111843	0.375400	0.323878
	C160	C	0.373892	0.684032	0.898487
	C161	C	0.628160	0.683181	0.115256
	C162	C	0.627526	0.314201	0.897197
	C163	C	0.377369	0.317190	0.117085
	C164	C	0.684253	0.888675	0.383057
	C165	C	0.687268	0.107558	0.633515
	C166	C	0.317772	0.889947	0.633013
	C167	C	0.320266	0.108800	0.382543
	C168	C	0.875856	0.390567	0.189169
	C169	C	0.126787	0.609253	0.188490
	C170	C	0.124119	0.388699	0.825115
	C171	C	0.875555	0.608439	0.822181
	C172	C	0.184168	0.875633	0.396445
	C173	C	0.182766	0.123143	0.617103
	C174	C	0.820590	0.121245	0.396963
	C175	C	0.819638	0.872774	0.617256
	C176	C	0.392143	0.181348	0.882770
	C177	C	0.612830	0.180532	0.131723
	C178	C	0.392440	0.814756	0.134344
	C179	C	0.611219	0.816150	0.881661
	C180	C	0.391518	0.874224	0.189992
	C181	C	0.613438	0.121773	0.188379
	C182	C	0.392963	0.125213	0.823762
	C183	C	0.611554	0.874018	0.824514
	C184	C	0.876204	0.181046	0.397455
	C185	C	0.125838	0.181717	0.616232
	C186	C	0.127699	0.816556	0.396890
	C187	C	0.876779	0.814628	0.616628
	C188	C	0.182257	0.388788	0.883176
	C189	C	0.184573	0.609143	0.130292
	C190	C	0.818954	0.389820	0.129949
	C191	C	0.818334	0.608521	0.880618
	C192	C	0.407243	0.088567	0.602754
	C193	C	0.596442	0.909377	0.603187
	C194	C	0.599111	0.089014	0.411801
	C195	C	0.405720	0.908660	0.411266
	C196	C	0.596532	0.403312	0.096628
	C197	C	0.594675	0.594824	0.915898
	C198	C	0.407217	0.594552	0.097028
	C199	C	0.406272	0.401418	0.914963
	C200	C	0.093612	0.594709	0.411447
	C201	C	0.911711	0.593887	0.600874
	C202	C	0.092761	0.404126	0.601389
	C203	C	0.910122	0.403245	0.410802
	C204	C	0.906673	0.589510	0.101445
	C205	C	0.097614	0.408744	0.102703
	C206	C	0.097147	0.589346	0.910656
	C207	C	0.905257	0.408873	0.909310
	C208	C	0.096021	0.904109	0.596870
	C209	C	0.098177	0.095811	0.414844
	C210	C	0.908645	0.094336	0.597718
	C211	C	0.907412	0.902789	0.416597
	C212	C	0.592999	0.094033	0.913378
	C213	C	0.410096	0.095232	0.103881
	C214	C	0.593054	0.903719	0.102485
	C215	C	0.411395	0.905337	0.914095
	Zn216	Zn	0.502414	-0.000676	0.758349
	Zn217	Zn	0.502421	-0.001143	0.256760
	Zn218	Zn	0.750863	0.499435	0.005490
	Zn219	Zn	0.252649	0.498912	0.006366
	Zn220	Zn	0.002864	0.748502	0.506690
	Zn221	Zn	0.001846	0.249388	0.506037
	Zn222	Zn	0.001287	0.498906	0.755650
	Zn223	Zn	0.001988	0.499660	0.256760
	Zn224	Zn	0.501107	0.749942	0.007280
	Zn225	Zn	0.501688	0.248769	0.007675
	Zn226	Zn	0.752968	-0.002396	0.507548
	Zn227	Zn	0.252047	-0.000294	0.506906
	N228	N	0.413375	0.964218	0.689617
	N229	N	0.590579	0.034288	0.689093
	N230	N	0.589853	0.963529	0.326453
	N231	N	0.414663	0.033950	0.326349
	N232	N	0.680345	0.412907	0.969506
	N233	N	0.681206	0.586359	0.041259
	N234	N	0.323313	0.584611	0.970319
	N235	N	0.322598	0.412206	0.042149
	N236	N	0.967493	0.679827	0.418936
	N237	N	0.037658	0.680293	0.595236
	N238	N	0.966607	0.318048	0.594179
	N239	N	0.036359	0.318103	0.417853
	N240	N	0.965962	0.412023	0.686018
	N241	N	0.037488	0.586277	0.687230
	N242	N	0.967120	0.586792	0.326111
	N243	N	0.037089	0.412566	0.326349
	N244	N	0.411069	0.682738	0.973425
	N245	N	0.590069	0.681415	0.040839
	N246	N	0.590650	0.316204	0.972151
	N247	N	0.413550	0.317339	0.041684
	N248	N	0.682714	0.962945	0.420706
	N249	N	0.684496	0.033312	0.596013
	N250	N	0.320671	0.963782	0.595044
	N251	N	0.321578	0.034437	0.419521
	N252	N	0.912932	0.465055	0.187851
	N253	N	0.089672	0.534695	0.187283
	N254	N	0.087750	0.463369	0.826227
	N255	N	0.912473	0.533968	0.823640
	N256	N	0.181091	0.913512	0.470701
	N257	N	0.181779	0.086297	0.542072
	N258	N	0.823653	0.083948	0.471422
	N259	N	0.822175	0.910397	0.542894
	N260	N	0.466541	0.178456	0.921162
	N261	N	0.537154	0.179859	0.095798
	N262	N	0.467457	0.816954	0.096820
	N263	N	0.536578	0.818623	0.919586
	N264	N	0.465989	0.912505	0.186811
	N265	N	0.537987	0.085110	0.186881
	N266	N	0.467880	0.088102	0.825896
	N267	N	0.536981	0.911898	0.827477
	N268	N	0.913508	0.180213	0.472332
	N269	N	0.089985	0.180763	0.540924
	N270	N	0.090274	0.818253	0.471632
	N271	N	0.913958	0.816470	0.541775
	N272	N	0.181766	0.463541	0.919565
	N273	N	0.182562	0.534565	0.093441
	N274	N	0.821460	0.463828	0.092291
	N275	N	0.820409	0.534370	0.917941
	O276	O	-0.075708	1.000302	-0.012679
	H277	H	-0.074884	1.015063	-0.017721
	H278	H	-0.068524	1.017107	-0.004768
	O279	O	0.948820	-0.014423	1.206715
	H280	H	0.941586	0.009357	1.208059
	H281	H	0.946418	-0.011333	1.207134
	O282	O	0.284329	0.283400	0.526740
	H283	H	0.283903	0.279338	0.566256
	H284	H	0.263002	0.268709	0.544386
	O285	O	1.098356	1.076559	0.124489
	H286	H	1.095229	1.061475	0.129224
	H287	H	1.104350	1.073140	0.130757
	O288	O	0.514762	0.529991	0.533952
	H289	H	0.510024	0.528577	0.520448
	H290	H	0.517393	0.524125	0.547616
	O291	O	0.713528	0.520382	0.721229
	H292	H	0.737387	0.509561	0.722528
	H293	H	0.718531	0.505338	0.721667
	O294	O	0.038740	-0.062947	1.190674
	H295	H	0.050406	-0.068881	1.191908
	H296	H	0.040358	-0.068013	1.184710
	O297	O	0.371104	0.379817	0.413560
	H298	H	0.365027	0.403537	0.413147
	H299	H	0.360846	0.366844	0.423600
	O300	O	0.293744	0.470750	0.711301
	H301	H	0.299700	0.489146	0.729831
	H302	H	0.291222	0.492799	0.711900
	O303	O	0.467573	0.645854	0.567879
	H304	H	0.460512	0.641476	0.556473
	H305	H	0.476054	0.659675	0.594299
	O306	O	0.543165	0.522280	0.292138
	H307	H	0.543466	0.510394	0.289346
	H308	H	0.542566	0.497185	0.289455
	O309	O	0.623780	0.693356	0.376612
	H310	H	0.607429	0.694582	0.394624
	H311	H	0.623135	0.699974	0.353390
	O312	O	0.016680	0.794781	0.811401
	H313	H	-0.006917	0.794751	0.822496
	H314	H	0.009532	0.779112	0.801761
	O315	O	0.416824	0.369757	0.434412
	H316	H	0.406810	0.368381	0.453566
	H317	H	0.398371	0.388742	0.433337
	O318	O	0.952631	-0.030601	0.085646
	H319	H	0.950292	-0.035098	0.094375
	H320	H	0.944427	-0.023758	0.072985
	O321	O	-0.002654	-0.008160	-0.194834
	H322	H	0.006704	-0.013032	-0.187584
	H323	H	0.019773	-0.012074	-0.194722
	O324	O	0.475908	0.405020	0.314156
	H325	H	0.456837	0.412256	0.327927
	H326	H	0.470756	0.390097	0.306723
	O327	O	0.607556	0.478363	0.511853
	H328	H	0.596322	0.472235	0.496882
	H329	H	0.614228	0.477534	0.496378
	O330	O	-0.187000	0.805193	-0.002827
	H331	H	-0.204339	0.805894	-0.002269
	H332	H	-0.204044	0.816650	-0.012471
	O333	O	0.353019	0.495243	0.533346
	H334	H	0.352513	0.494560	0.550923
	H335	H	0.343544	0.518701	0.543069
	O336	O	0.136359	0.080431	0.211812
	H337	H	0.160922	0.089345	0.222095
	H338	H	0.134534	0.099403	0.218375
	O339	O	0.186476	1.190048	1.142192
	H340	H	0.195534	1.212101	1.139763
	H341	H	0.183503	1.178948	1.144620
	O342	O	0.126362	1.093652	0.929835
	H343	H	0.125148	1.102371	0.952138
	H344	H	0.138175	1.074992	0.899995
	O345	O	0.971260	0.857903	-0.025881
	H346	H	0.974468	0.862329	-0.028269
	H347	H	0.974205	0.864278	-0.022459
	O348	O	0.487649	0.681840	0.301838
	H349	H	0.490615	0.682455	0.274749
	H350	H	0.504765	0.673941	0.306660
	O351	O	-0.188997	1.132167	0.818429
	H352	H	-0.151288	1.151964	0.815404
	H353	H	-0.209446	1.098352	0.797205
	O354	O	-0.184157	0.818056	0.191169
	H355	H	-0.177431	0.827052	0.170501
	H356	H	-0.162392	0.822079	0.182022
	O357	O	-0.517020	0.286473	0.719954
	H358	H	-0.517986	0.272360	0.720292
	H359	H	-0.515194	0.266194	0.712932
	O360	O	0.295366	0.523327	0.309988
	H361	H	0.281376	0.523095	0.295533
	H362	H	0.292637	0.537666	0.331885
	O363	O	-0.037641	0.175428	1.178606
	H364	H	-0.044646	0.169759	1.192041
	H365	H	-0.030932	0.189870	1.184672
	O366	O	0.693187	0.370212	0.349713
	H367	H	0.676548	0.364476	0.356655
	H368	H	0.698182	0.397650	0.338401
	O369	O	0.700864	0.495646	0.301131
	H370	H	0.711206	0.486865	0.290730
	H371	H	0.722507	0.509936	0.310746
	O372	O	1.104542	0.096675	0.901029
	H373	H	1.125010	0.079536	0.909080
	H374	H	1.093329	0.094791	0.906443
	O375	O	0.565361	0.320061	0.616103
	H376	H	0.560993	0.334225	0.603290
	H377	H	0.575610	0.318051	0.597616
	O378	O	0.896524	0.960881	0.845081
	H379	H	0.925490	0.940658	0.847302
	H380	H	0.881960	0.964891	0.826705
	O381	O	0.509522	0.487214	0.720942
	H382	H	0.516452	0.491192	0.708269
	H383	H	0.504469	0.454714	0.727980
	O384	O	0.518085	0.717829	0.721651
	H385	H	0.528754	0.746418	0.751561
	H386	H	0.536319	0.705076	0.714596
	O387	O	0.179722	-0.176713	0.830808
	H388	H	0.135875	-0.188112	0.829576
	H389	H	0.181509	-0.189840	0.875151
	O390	O	-0.034623	-0.214092	0.073305
	H391	H	-0.044393	-0.213281	0.073268
	H392	H	-0.040245	-0.228974	0.091299
	O393	O	1.137009	0.844306	1.059705
	H394	H	1.134456	0.840203	1.069848
	H395	H	1.140257	0.865695	1.076626
	O396	O	1.184261	-0.116789	0.071471
	H397	H	1.180054	-0.100477	0.064968
	H398	H	1.174748	-0.118795	0.104783
	O399	O	1.202242	0.206099	0.957610
	H400	H	1.214446	0.195456	0.964360
	H401	H	1.195021	0.211277	0.975046
	O402	O	0.847450	1.026656	1.107259
	H403	H	0.849551	1.027092	1.114435
	H404	H	0.854470	1.027598	1.094493
	O405	O	1.714503	0.710376	-0.474184
	H406	H	1.723787	0.731303	-0.475553
	H407	H	1.708091	0.714246	-0.473949
	O408	O	0.821417	-0.048889	0.056703
	H409	H	0.832809	-0.054687	0.050300
	H410	H	0.810835	-0.039249	0.062400
	O411	O	0.983634	1.166092	0.015822
	H412	H	0.986892	1.162054	0.015948
	H413	H	0.978974	1.177080	0.016003
	O414	O	0.381309	0.383976	0.479948
	H415	H	0.374965	0.389821	0.500220
	H416	H	0.368527	0.391255	0.493619
	O417	O	0.660494	0.501836	0.539080
	H418	H	0.676081	0.491106	0.534754
	H419	H	0.647465	0.508018	0.534613
	O420	O	0.063906	-0.006776	0.088128
	H421	H	0.048942	-0.008104	0.085517
	H422	H	0.069498	0.002102	0.090340
	O423	O	0.708508	0.283517	0.486610
	H424	H	0.734313	0.262769	0.487654
	H425	H	0.685800	0.282816	0.474911
	O426	O	0.305294	0.711219	0.495602
	H427	H	0.306110	0.732946	0.498709
	H428	H	0.300763	0.709131	0.471307
	O429	O	0.397800	0.561902	0.671586
	H430	H	0.425342	0.561114	0.665328
	H431	H	0.407493	0.582075	0.663765
	O432	O	0.573822	0.291180	0.305985
	H433	H	0.571534	0.284204	0.320768
	H434	H	0.569868	0.274975	0.291883
	O435	O	0.316591	0.687680	0.341740
	H436	H	0.319800	0.670314	0.345487
	H437	H	0.350855	0.695137	0.343462
	O438	O	-0.203591	0.208692	-0.018302
	H439	H	-0.204084	0.205228	-0.039437
	H440	H	-0.220681	0.224421	-0.030425
	O441	O	0.945470	0.178528	-0.191834
	H442	H	0.969789	0.182013	-0.205073
	H443	H	0.954991	0.192220	-0.170077
	O444	O	0.220833	0.975870	0.789996
	H445	H	0.224900	0.938109	0.786368
	H446	H	0.241373	0.955671	0.770080
	O447	O	0.312658	0.308543	0.696278
	H448	H	0.342735	0.320435	0.710824
	H449	H	0.295230	0.333682	0.714896
	O450	O	0.676865	0.680841	0.686089
	H451	H	0.690427	0.628008	0.698235
	H452	H	0.668721	0.690598	0.654043
	O453	O	0.614960	0.609794	0.445496
	H454	H	0.617001	0.603088	0.444714
	H455	H	0.627433	0.614848	0.467233
