data_Molecule from HDF5

_cell_length_a		16.269413
_cell_length_b		16.275731
_cell_length_c		16.322611
_cell_angle_alpha	89.852978
_cell_angle_beta	89.801956
_cell_angle_gamma	89.779718
_symmetry_space_group_name_H-M	'P 1'
_symmetry_Int_Tables_number		1

loop_
	_symmetry_equiv_pos_as_xyz
	x,y,z

loop_
	_atom_site_label
	_atom_site_type_symbol
	_atom_site_fract_x
	_atom_site_fract_y
	_atom_site_fract_z
	H0	H	0.394936	0.836170	0.720923
	H1	H	0.592006	0.163533	0.718627
	H2	H	0.595376	0.836236	0.290608
	H3	H	0.394708	0.163130	0.289759
	H4	H	0.712382	0.400292	0.842068
	H5	H	0.708776	0.597041	0.167769
	H6	H	0.281064	0.598563	0.840632
	H7	H	0.281106	0.401171	0.167873
	H8	H	0.830659	0.715280	0.406233
	H9	H	0.158280	0.714813	0.602848
	H10	H	0.830886	0.286506	0.604456
	H11	H	0.157917	0.285111	0.406085
	H12	H	0.832125	0.400389	0.721715
	H13	H	0.158840	0.598309	0.717959
	H14	H	0.831186	0.600289	0.290517
	H15	H	0.157340	0.400429	0.289011
	H16	H	0.396400	0.716393	0.841462
	H17	H	0.592727	0.712475	0.168238
	H18	H	0.596213	0.283882	0.841776
	H19	H	0.396848	0.284683	0.167957
	H20	H	0.709977	0.836830	0.407112
	H21	H	0.707403	0.163882	0.602263
	H22	H	0.279851	0.836231	0.604032
	H23	H	0.279695	0.163452	0.406308
	H24	H	0.896160	0.337775	0.220916
	H25	H	0.093387	0.663499	0.217844
	H26	H	0.095494	0.336086	0.788710
	H27	H	0.897269	0.663843	0.790348
	H28	H	0.210513	0.901815	0.342284
	H29	H	0.207440	0.098025	0.668157
	H30	H	0.781718	0.097643	0.341053
	H31	H	0.779185	0.901525	0.668149
	H32	H	0.331230	0.215198	0.906483
	H33	H	0.659020	0.212939	0.102737
	H34	H	0.331380	0.785952	0.103712
	H35	H	0.659374	0.785370	0.906396
	H36	H	0.331444	0.900256	0.220756
	H37	H	0.658950	0.097160	0.218563
	H38	H	0.330829	0.100764	0.790655
	H39	H	0.657722	0.899688	0.787884
	H40	H	0.896083	0.215621	0.341584
	H41	H	0.091513	0.214340	0.668287
	H42	H	0.094050	0.786602	0.340843
	H43	H	0.895073	0.784369	0.667934
	H44	H	0.210250	0.335310	0.905058
	H45	H	0.208348	0.663652	0.100582
	H46	H	0.781808	0.336837	0.103653
	H47	H	0.780295	0.663481	0.905858
	H48	H	0.391625	0.116859	0.590674
	H49	H	0.595598	0.883563	0.588678
	H50	H	0.583358	0.114416	0.416455
	H51	H	0.396543	0.882543	0.414475
	H52	H	0.597193	0.407270	0.123467
	H53	H	0.591925	0.588882	0.888331
	H54	H	0.399122	0.599991	0.122960
	H55	H	0.399080	0.402526	0.885874
	H56	H	0.113581	0.590460	0.400257
	H57	H	0.877225	0.593282	0.600954
	H58	H	0.114321	0.406014	0.605550
	H59	H	0.876875	0.404441	0.412154
	H60	H	0.112246	0.398595	0.590879
	H61	H	0.879087	0.594725	0.594318
	H62	H	0.113563	0.603531	0.414520
	H63	H	0.879229	0.409404	0.415035
	H64	H	0.395707	0.586491	0.119823
	H65	H	0.583650	0.592199	0.890156
	H66	H	0.583323	0.413687	0.116834
	H67	H	0.401789	0.412319	0.889548
	H68	H	0.594516	0.118844	0.410667
	H69	H	0.589521	0.879735	0.609269
	H70	H	0.397406	0.120411	0.609047
	H71	H	0.406080	0.882620	0.407764
	H72	H	0.896955	0.621060	0.107066
	H73	H	0.088020	0.384445	0.095376
	H74	H	0.091022	0.616524	0.908450
	H75	H	0.909265	0.382112	0.902063
	H76	H	0.080620	0.909835	0.618240
	H77	H	0.086182	0.091096	0.389536
	H78	H	0.901966	0.091996	0.619617
	H79	H	0.898060	0.917667	0.391315
	H80	H	0.608231	0.085615	0.914618
	H81	H	0.377538	0.103121	0.092787
	H82	H	0.615015	0.900443	0.104462
	H83	H	0.375878	0.896651	0.915071
	H84	H	0.611510	0.901612	0.092845
	H85	H	0.383633	0.082345	0.091166
	H86	H	0.611938	0.090475	0.904323
	H87	H	0.383595	0.914639	0.923188
	H88	H	0.901104	0.094958	0.621651
	H89	H	0.086188	0.096874	0.388105
	H90	H	0.085680	0.900028	0.622996
	H91	H	0.912978	0.904018	0.390973
	H92	H	0.083638	0.614629	0.908861
	H93	H	0.090909	0.382225	0.098135
	H94	H	0.910612	0.614000	0.097944
	H95	H	0.910037	0.388302	0.921567
	H96	H	0.410132	0.112503	0.596236
	H97	H	0.575026	0.888202	0.594630
	H98	H	0.583181	0.117510	0.403807
	H99	H	0.406465	0.886230	0.418696
	H100	H	0.583182	0.397619	0.121450
	H101	H	0.589961	0.597692	0.886399
	H102	H	0.408771	0.590982	0.118177
	H103	H	0.408856	0.403853	0.888736
	H104	H	0.106815	0.585329	0.417698
	H105	H	0.880441	0.588657	0.596532
	H106	H	0.106848	0.414726	0.592208
	H107	H	0.876812	0.410184	0.410063
	H108	H	0.895471	0.617363	0.089913
	H109	H	0.087079	0.383126	0.099397
	H110	H	0.088573	0.614543	0.915242
	H111	H	0.892233	0.381213	0.914019
	H112	H	0.091788	0.909843	0.620992
	H113	H	0.091157	0.093184	0.387810
	H114	H	0.899070	0.092049	0.620905
	H115	H	0.894041	0.898867	0.383611
	H116	H	0.612409	0.097456	0.914449
	H117	H	0.375904	0.089928	0.109837
	H118	H	0.610432	0.911116	0.100579
	H119	H	0.378289	0.914255	0.902721
	C120	C	0.371713	0.008328	0.627362
	C121	C	0.614884	0.991767	0.625744
	C122	C	0.616290	0.008710	0.382693
	C123	C	0.373416	0.991547	0.383662
	C124	C	0.617509	0.377242	0.013165
	C125	C	0.616779	0.620993	0.996240
	C126	C	0.373122	0.621587	0.012530
	C127	C	0.374214	0.377725	0.996146
	C128	C	0.002833	0.622117	0.382877
	C129	C	0.986885	0.620933	0.625423
	C130	C	0.003396	0.378068	0.626289
	C131	C	0.985727	0.378806	0.383448
	C132	C	0.873149	0.509285	0.126933
	C133	C	0.116587	0.491600	0.125494
	C134	C	0.117369	0.507654	0.881894
	C135	C	0.874425	0.491750	0.883315
	C136	C	0.115884	0.878177	0.513159
	C137	C	0.115663	0.121983	0.496306
	C138	C	0.872632	0.121959	0.513099
	C139	C	0.872606	0.878076	0.496487
	C140	C	0.503076	0.121327	0.882673
	C141	C	0.487226	0.120062	0.125977
	C142	C	0.503812	0.876578	0.127827
	C143	C	0.486978	0.878705	0.883702
	C144	C	0.374818	0.885263	0.682735
	C145	C	0.612387	0.114835	0.680818
	C146	C	0.614714	0.885228	0.328616
	C147	C	0.374986	0.114225	0.327704
	C148	C	0.673544	0.379798	0.890501
	C149	C	0.670968	0.617653	0.119263
	C150	C	0.319150	0.618848	0.889260
	C151	C	0.318726	0.380292	0.118903
	C152	C	0.879814	0.677409	0.385935
	C153	C	0.109646	0.676626	0.623043
	C154	C	0.879898	0.323907	0.624679
	C155	C	0.108958	0.323089	0.385374
	C156	C	0.880508	0.380771	0.682824
	C157	C	0.110046	0.618834	0.680357
	C158	C	0.879988	0.620169	0.328413
	C159	C	0.108826	0.380399	0.327366
	C160	C	0.376076	0.677677	0.889992
	C161	C	0.613743	0.675129	0.119406
	C162	C	0.616093	0.321860	0.890494
	C163	C	0.376496	0.322694	0.119104
	C164	C	0.671857	0.885565	0.386289
	C165	C	0.669758	0.115084	0.623098
	C166	C	0.317144	0.885084	0.625193
	C167	C	0.318034	0.114788	0.386126
	C168	C	0.875546	0.386275	0.182460
	C169	C	0.114283	0.614520	0.180479
	C170	C	0.115700	0.384837	0.826470
	C171	C	0.876095	0.614702	0.827663
	C172	C	0.172043	0.880860	0.390660
	C173	C	0.169775	0.118411	0.619408
	C174	C	0.818846	0.119001	0.389972
	C175	C	0.817411	0.881140	0.619534
	C176	C	0.380170	0.177262	0.885651
	C177	C	0.610111	0.175097	0.123106
	C178	C	0.380360	0.822961	0.124781
	C179	C	0.610192	0.823119	0.885580
	C180	C	0.380621	0.879848	0.183115
	C181	C	0.610155	0.117439	0.180601
	C182	C	0.379852	0.120162	0.828113
	C183	C	0.609357	0.880171	0.827060
	C184	C	0.875743	0.177265	0.390204
	C185	C	0.112570	0.176692	0.619322
	C186	C	0.114119	0.823889	0.389995
	C187	C	0.874873	0.822676	0.619187
	C188	C	0.172747	0.384367	0.884368
	C189	C	0.171103	0.614701	0.121692
	C190	C	0.819112	0.385826	0.123988
	C191	C	0.818374	0.614641	0.885437
	C192	C	0.393263	0.094396	0.605133
	C193	C	0.593198	0.905997	0.603937
	C194	C	0.593765	0.094683	0.404055
	C195	C	0.396324	0.905881	0.406954
	C196	C	0.594636	0.399442	0.098365
	C197	C	0.594847	0.599459	0.910506
	C198	C	0.394735	0.599105	0.098326
	C199	C	0.396673	0.399796	0.910253
	C200	C	0.089103	0.599686	0.404410
	C201	C	0.901138	0.598757	0.603734
	C202	C	0.089031	0.399915	0.603156
	C203	C	0.899795	0.401420	0.405875
	C204	C	0.894561	0.595273	0.104882
	C205	C	0.094802	0.405397	0.104144
	C206	C	0.094476	0.593209	0.904285
	C207	C	0.897208	0.405953	0.905859
	C208	C	0.092878	0.900149	0.598611
	C209	C	0.094210	0.100237	0.410635
	C210	C	0.894282	0.099593	0.598590
	C211	C	0.894943	0.900519	0.410730
	C212	C	0.588679	0.097954	0.904600
	C213	C	0.401149	0.098369	0.104244
	C214	C	0.590158	0.898031	0.105708
	C215	C	0.401453	0.901607	0.906959
	Zn216	Zn	0.494084	0.000155	0.754920
	Zn217	Zn	0.495222	-0.000605	0.255140
	Zn218	Zn	0.744979	0.499633	0.004637
	Zn219	Zn	0.244984	0.498948	0.003445
	Zn220	Zn	-0.005014	0.749724	0.504460
	Zn221	Zn	-0.006151	0.250442	0.504979
	Zn222	Zn	-0.004414	0.499827	0.754042
	Zn223	Zn	-0.005324	0.500534	0.254618
	Zn224	Zn	0.495570	0.749364	0.005539
	Zn225	Zn	0.495285	0.248898	0.004454
	Zn226	Zn	0.743824	0.000641	0.504658
	Zn227	Zn	0.244099	-0.000087	0.504852
	N228	N	0.407532	0.963009	0.684376
	N229	N	0.578995	0.037377	0.682409
	N230	N	0.581041	0.962783	0.326103
	N231	N	0.408654	0.036528	0.326180
	N232	N	0.674609	0.413494	0.967503
	N233	N	0.672892	0.584683	0.041789
	N234	N	0.317113	0.584782	0.966528
	N235	N	0.317238	0.413721	0.041377
	N236	N	0.957424	0.678575	0.418982
	N237	N	0.032119	0.677982	0.589655
	N238	N	0.956931	0.322387	0.589884
	N239	N	0.031376	0.321779	0.419267
	N240	N	0.958318	0.413590	0.683926
	N241	N	0.032689	0.584859	0.681819
	N242	N	0.957616	0.586145	0.326653
	N243	N	0.031413	0.414579	0.326317
	N244	N	0.408817	0.679391	0.967533
	N245	N	0.580384	0.677104	0.042105
	N246	N	0.581936	0.320114	0.967895
	N247	N	0.410235	0.321058	0.041764
	N248	N	0.672965	0.963254	0.419321
	N249	N	0.671417	0.037720	0.589424
	N250	N	0.315116	0.962645	0.591246
	N251	N	0.316952	0.037404	0.420411
	N252	N	0.908334	0.463916	0.184315
	N253	N	0.080921	0.536926	0.182805
	N254	N	0.081949	0.462417	0.824710
	N255	N	0.910306	0.537348	0.826422
	N256	N	0.173252	0.914086	0.467995
	N257	N	0.171990	0.085224	0.541914
	N258	N	0.816624	0.085423	0.467271
	N259	N	0.815679	0.914665	0.542003
	N260	N	0.457682	0.178003	0.918965
	N261	N	0.532509	0.176840	0.089805
	N262	N	0.457978	0.820744	0.091231
	N263	N	0.532953	0.822082	0.920217
	N264	N	0.458608	0.912434	0.184964
	N265	N	0.532708	0.083986	0.182373
	N266	N	0.457331	0.086030	0.826229
	N267	N	0.531730	0.913774	0.825715
	N268	N	0.908574	0.179083	0.467790
	N269	N	0.079730	0.178975	0.541850
	N270	N	0.080067	0.821935	0.467248
	N271	N	0.908518	0.821000	0.541825
	N272	N	0.173970	0.461798	0.918014
	N273	N	0.172662	0.537140	0.088372
	N274	N	0.817561	0.463242	0.089979
	N275	N	0.817142	0.537117	0.919273
	O276	O	0.478584	0.502350	0.530090
	H277	H	0.482169	0.500285	0.535133
	H278	H	0.478801	0.510137	0.526373
	O279	O	0.450231	0.482431	0.480585
	H280	H	0.449323	0.478813	0.471637
	H281	H	0.456618	0.484223	0.487836
	O282	O	0.495457	0.483559	0.519004
	H283	H	0.500222	0.481287	0.516743
	H284	H	0.497522	0.482776	0.516001
	O285	O	-0.027819	0.997771	1.010635
	H286	H	-0.023704	1.004678	1.018214
	H287	H	-0.027912	1.009611	1.007551
	O288	O	0.455829	0.506674	0.583752
	H289	H	0.460606	0.505022	0.583877
	H290	H	0.447188	0.508704	0.591666
	O291	O	0.036604	0.018270	1.019903
	H292	H	0.035316	0.024026	1.020791
	H293	H	0.031965	0.024796	1.020882
	O294	O	0.502361	0.500200	0.447653
	H295	H	0.497387	0.494385	0.448529
	H296	H	0.502707	0.502169	0.439965
	O297	O	0.478995	0.594846	0.459516
	H298	H	0.487741	0.606875	0.455089
	H299	H	0.468292	0.601000	0.452034
	O300	O	0.525735	0.530204	0.555106
	H301	H	0.528992	0.535755	0.549794
	H302	H	0.523826	0.529367	0.552567
	O303	O	0.518740	0.549586	0.447033
	H304	H	0.528501	0.550620	0.451503
	H305	H	0.515635	0.556121	0.438995
	O306	O	0.982882	0.060095	1.013274
	H307	H	0.979494	0.063787	1.002992
	H308	H	0.993710	0.067774	1.009155
	O309	O	0.473629	0.517988	0.501271
	H310	H	0.487177	0.514728	0.507465
	H311	H	0.469473	0.508867	0.504526
	O312	O	0.289972	0.193367	0.257712
	H313	H	0.295834	0.196048	0.260818
	H314	H	0.295417	0.190167	0.254346
	O315	O	1.046201	-0.022669	0.959441
	H316	H	1.050071	-0.018564	0.965441
	H317	H	1.047023	-0.018362	0.971689
	O318	O	0.061128	0.023099	-0.031598
	H319	H	0.067137	0.014493	-0.031196
	H320	H	0.056512	0.010591	-0.029818
	O321	O	0.451671	0.503250	0.480117
	H322	H	0.442018	0.503908	0.469524
	H323	H	0.451497	0.498613	0.482100
	O324	O	1.080918	-0.024272	-0.005056
	H325	H	1.075932	-0.023175	-0.020664
	H326	H	1.081747	-0.029825	-0.008677
	O327	O	1.038427	0.983157	-0.032521
	H328	H	1.034494	0.976123	-0.022036
	H329	H	1.041452	0.969798	-0.035916
	O330	O	0.960870	1.048998	-0.096924
	H331	H	0.961809	1.047741	-0.099839
	H332	H	0.962148	1.051413	-0.103872
	O333	O	0.542959	0.455663	0.448060
	H334	H	0.546972	0.454132	0.448257
	H335	H	0.535616	0.449848	0.449263
