data_Molecule from HDF5

_cell_length_a		16.395819
_cell_length_b		16.197850
_cell_length_c		16.283986
_cell_angle_alpha	90.106923
_cell_angle_beta	89.963266
_cell_angle_gamma	89.976609
_symmetry_space_group_name_H-M	'P 1'
_symmetry_Int_Tables_number		1

loop_
	_symmetry_equiv_pos_as_xyz
	x,y,z

loop_
	_atom_site_label
	_atom_site_type_symbol
	_atom_site_fract_x
	_atom_site_fract_y
	_atom_site_fract_z
	H0	H	0.394585	0.834717	0.716475
	H1	H	0.589783	0.163855	0.714411
	H2	H	0.589789	0.834593	0.288541
	H3	H	0.395420	0.164641	0.288460
	H4	H	0.709552	0.399615	0.838518
	H5	H	0.709686	0.600254	0.164542
	H6	H	0.278765	0.600558	0.838135
	H7	H	0.278053	0.401274	0.164305
	H8	H	0.830765	0.714079	0.401765
	H9	H	0.155830	0.715148	0.599721
	H10	H	0.829731	0.287080	0.596027
	H11	H	0.155839	0.282813	0.401948
	H12	H	0.831666	0.399180	0.717208
	H13	H	0.156691	0.599239	0.716471
	H14	H	0.831288	0.596920	0.285929
	H15	H	0.156585	0.399310	0.285306
	H16	H	0.396970	0.714222	0.837404
	H17	H	0.590559	0.712718	0.165411
	H18	H	0.591878	0.285662	0.837792
	H19	H	0.397467	0.287746	0.166670
	H20	H	0.708309	0.835762	0.400702
	H21	H	0.708812	0.162488	0.602838
	H22	H	0.278272	0.834894	0.601799
	H23	H	0.278341	0.163912	0.404400
	H24	H	0.896000	0.334839	0.212684
	H25	H	0.092360	0.663707	0.215864
	H26	H	0.092071	0.333990	0.788899
	H27	H	0.897346	0.664110	0.787525
	H28	H	0.210033	0.896721	0.339394
	H29	H	0.207431	0.099531	0.665736
	H30	H	0.776577	0.099345	0.338646
	H31	H	0.777088	0.898450	0.664827
	H32	H	0.331918	0.214967	0.904384
	H33	H	0.657833	0.213998	0.099766
	H34	H	0.331739	0.785398	0.099355
	H35	H	0.657389	0.785139	0.903098
	H36	H	0.331496	0.900235	0.216281
	H37	H	0.656271	0.099811	0.218719
	H38	H	0.331391	0.099413	0.786659
	H39	H	0.655799	0.899942	0.785617
	H40	H	0.895924	0.211841	0.337083
	H41	H	0.089703	0.213850	0.664865
	H42	H	0.090080	0.785401	0.337235
	H43	H	0.895393	0.784685	0.665176
	H44	H	0.210481	0.336110	0.901534
	H45	H	0.208165	0.664615	0.100039
	H46	H	0.778722	0.336358	0.099901
	H47	H	0.779762	0.664129	0.902478
	H48	H	0.400289	0.113308	0.586885
	H49	H	0.588596	0.881576	0.593114
	H50	H	0.589796	0.118030	0.409413
	H51	H	0.391659	0.882107	0.415261
	H52	H	0.589807	0.411041	0.117162
	H53	H	0.583996	0.581106	0.889875
	H54	H	0.404582	0.595997	0.117297
	H55	H	0.409251	0.404275	0.886631
	H56	H	0.109972	0.594213	0.408673
	H57	H	0.878088	0.592685	0.595760
	H58	H	0.107947	0.406022	0.587956
	H59	H	0.876948	0.408752	0.400127
	H60	H	0.108370	0.411430	0.597743
	H61	H	0.879422	0.590929	0.591415
	H62	H	0.107479	0.589209	0.409489
	H63	H	0.875851	0.398421	0.404643
	H64	H	0.395762	0.595409	0.119183
	H65	H	0.580969	0.601157	0.884547
	H66	H	0.584288	0.407587	0.117089
	H67	H	0.396041	0.403107	0.883046
	H68	H	0.582413	0.116757	0.407410
	H69	H	0.583248	0.882025	0.595690
	H70	H	0.393114	0.118286	0.596733
	H71	H	0.398598	0.878876	0.398568
	H72	H	0.904284	0.613946	0.086506
	H73	H	0.093097	0.381332	0.094174
	H74	H	0.089581	0.618677	0.903716
	H75	H	0.899016	0.381334	0.904119
	H76	H	0.083199	0.906438	0.617077
	H77	H	0.085905	0.096939	0.383722
	H78	H	0.901498	0.089970	0.617137
	H79	H	0.897631	0.904564	0.384124
	H80	H	0.613569	0.093537	0.897447
	H81	H	0.379401	0.086933	0.100180
	H82	H	0.607180	0.909778	0.089879
	H83	H	0.376150	0.902652	0.902557
	H84	H	0.611192	0.910797	0.102534
	H85	H	0.375360	0.100951	0.098249
	H86	H	0.610247	0.100324	0.914684
	H87	H	0.379870	0.903665	0.916685
	H88	H	0.900035	0.095520	0.618572
	H89	H	0.093068	0.086143	0.385126
	H90	H	0.087876	0.905253	0.618912
	H91	H	0.898133	0.909382	0.385704
	H92	H	0.082109	0.615262	0.908029
	H93	H	0.082428	0.383395	0.096323
	H94	H	0.893308	0.619706	0.095094
	H95	H	0.905326	0.383469	0.908392
	H96	H	0.405809	0.115601	0.599031
	H97	H	0.584013	0.883466	0.590172
	H98	H	0.585124	0.114267	0.414307
	H99	H	0.409086	0.887002	0.411655
	H100	H	0.590050	0.404153	0.119771
	H101	H	0.599515	0.592687	0.880795
	H102	H	0.400141	0.588028	0.116246
	H103	H	0.400394	0.415278	0.888004
	H104	H	0.109171	0.590667	0.404788
	H105	H	0.879384	0.588114	0.595175
	H106	H	0.111373	0.400866	0.597386
	H107	H	0.880261	0.406682	0.411478
	H108	H	0.906416	0.617553	0.100188
	H109	H	0.086820	0.385569	0.085795
	H110	H	0.088993	0.615855	0.912483
	H111	H	0.897962	0.382403	0.911774
	H112	H	0.087103	0.910194	0.616560
	H113	H	0.080843	0.086021	0.388487
	H114	H	0.896147	0.091532	0.617959
	H115	H	0.901678	0.906463	0.385849
	H116	H	0.606464	0.082667	0.910136
	H117	H	0.381274	0.092484	0.087533
	H118	H	0.612550	0.899363	0.096371
	H119	H	0.381208	0.915270	0.908115
	C120	C	0.371178	0.007604	0.623381
	C121	C	0.613925	0.990834	0.622248
	C122	C	0.614493	0.007828	0.380709
	C123	C	0.371126	0.991237	0.380120
	C124	C	0.616415	0.378287	0.009878
	C125	C	0.616003	0.620962	0.993088
	C126	C	0.372133	0.622160	0.009541
	C127	C	0.372968	0.378936	0.993638
	C128	C	0.001514	0.620291	0.379075
	C129	C	0.986256	0.620194	0.622614
	C130	C	0.001891	0.377580	0.622494
	C131	C	0.985171	0.376136	0.377301
	C132	C	0.873129	0.508247	0.121676
	C133	C	0.115736	0.491801	0.121650
	C134	C	0.115748	0.508234	0.879382
	C135	C	0.872629	0.491123	0.879551
	C136	C	0.114944	0.877319	0.509940
	C137	C	0.114534	0.119567	0.493723
	C138	C	0.870873	0.120805	0.509750
	C139	C	0.870888	0.877407	0.493140
	C140	C	0.502716	0.121377	0.879342
	C141	C	0.486285	0.121971	0.123850
	C142	C	0.502683	0.878007	0.123906
	C143	C	0.485775	0.877583	0.879672
	C144	C	0.374195	0.883957	0.678691
	C145	C	0.611283	0.114318	0.677848
	C146	C	0.611239	0.884123	0.325524
	C147	C	0.374296	0.115358	0.325896
	C148	C	0.671465	0.379883	0.886990
	C149	C	0.671071	0.619460	0.115908
	C150	C	0.316546	0.620672	0.886842
	C151	C	0.316997	0.381019	0.116072
	C152	C	0.879248	0.675771	0.381545
	C153	C	0.107796	0.676563	0.619980
	C154	C	0.878850	0.323738	0.618293
	C155	C	0.107693	0.321077	0.381022
	C156	C	0.879757	0.379365	0.678414
	C157	C	0.108065	0.619044	0.678220
	C158	C	0.879422	0.617660	0.323936
	C159	C	0.107939	0.378820	0.323029
	C160	C	0.375360	0.676979	0.886482
	C161	C	0.611881	0.675323	0.116510
	C162	C	0.613292	0.322907	0.886783
	C163	C	0.376184	0.324360	0.117010
	C164	C	0.670161	0.884779	0.381390
	C165	C	0.669610	0.114082	0.621529
	C166	C	0.316221	0.883941	0.621668
	C167	C	0.316231	0.114865	0.383515
	C168	C	0.875869	0.384048	0.175411
	C169	C	0.112991	0.614838	0.177685
	C170	C	0.113084	0.383679	0.825544
	C171	C	0.876187	0.615073	0.825153
	C172	C	0.171279	0.877461	0.387698
	C173	C	0.169893	0.119297	0.616387
	C174	C	0.815200	0.118884	0.387206
	C175	C	0.815824	0.878915	0.616175
	C176	C	0.380277	0.176921	0.883137
	C177	C	0.609017	0.176563	0.120950
	C178	C	0.380087	0.823351	0.120285
	C179	C	0.608448	0.822615	0.882242
	C180	C	0.380194	0.880271	0.178615
	C181	C	0.608151	0.119735	0.179960
	C182	C	0.380031	0.119551	0.824602
	C183	C	0.607546	0.879290	0.823548
	C184	C	0.874488	0.174739	0.386223
	C185	C	0.111268	0.176024	0.616240
	C186	C	0.111526	0.822321	0.386606
	C187	C	0.874199	0.822087	0.616167
	C188	C	0.172091	0.384877	0.881281
	C189	C	0.170691	0.615350	0.120282
	C190	C	0.817476	0.384848	0.119262
	C191	C	0.817904	0.615088	0.882310
	C192	C	0.393242	0.093774	0.600768
	C193	C	0.591697	0.904724	0.599608
	C194	C	0.592275	0.094116	0.403545
	C195	C	0.393484	0.904870	0.401900
	C196	C	0.594462	0.400885	0.095890
	C197	C	0.594363	0.598464	0.907157
	C198	C	0.393724	0.599682	0.095470
	C199	C	0.395370	0.401098	0.907980
	C200	C	0.086754	0.597998	0.401236
	C201	C	0.901136	0.597308	0.600493
	C202	C	0.087219	0.399513	0.600728
	C203	C	0.899873	0.398214	0.398910
	C204	C	0.894912	0.594735	0.100213
	C205	C	0.093814	0.405736	0.098624
	C206	C	0.093529	0.594296	0.901528
	C207	C	0.894277	0.404747	0.901646
	C208	C	0.092559	0.900531	0.595466
	C209	C	0.092889	0.096505	0.407891
	C210	C	0.892807	0.098811	0.595694
	C211	C	0.892845	0.900036	0.407286
	C212	C	0.587948	0.098700	0.901062
	C213	C	0.400993	0.099975	0.101850
	C214	C	0.588342	0.900100	0.102468
	C215	C	0.400915	0.900426	0.902368
	Zn216	Zn	0.493437	-0.000702	0.750910
	Zn217	Zn	0.493440	-0.000221	0.252428
	Zn218	Zn	0.744751	0.500001	0.001382
	Zn219	Zn	0.243676	0.500406	0.000508
	Zn220	Zn	-0.007128	0.749614	0.501035
	Zn221	Zn	-0.006751	0.248439	0.500517
	Zn222	Zn	-0.005465	0.498493	0.751816
	Zn223	Zn	-0.006022	0.498886	0.249727
	Zn224	Zn	0.494532	0.749432	0.001530
	Zn225	Zn	0.494761	0.249864	0.001909
	Zn226	Zn	0.742650	-0.000846	0.502007
	Zn227	Zn	0.243509	-0.001806	0.502159
	N228	N	0.407861	0.961822	0.679789
	N229	N	0.577111	0.036671	0.678167
	N230	N	0.577194	0.961836	0.325034
	N231	N	0.407478	0.037407	0.323617
	N232	N	0.673460	0.413563	0.964603
	N233	N	0.673630	0.586339	0.038089
	N234	N	0.314610	0.587168	0.964377
	N235	N	0.314996	0.414188	0.038365
	N236	N	0.956125	0.677262	0.415300
	N237	N	0.031036	0.677456	0.586059
	N238	N	0.955734	0.322621	0.584110
	N239	N	0.030469	0.319121	0.413959
	N240	N	0.956991	0.412476	0.680727
	N241	N	0.031378	0.584768	0.680050
	N242	N	0.956313	0.583834	0.322330
	N243	N	0.030724	0.412076	0.320518
	N244	N	0.409175	0.677905	0.963677
	N245	N	0.578147	0.676339	0.039252
	N246	N	0.579372	0.322235	0.964017
	N247	N	0.410312	0.323084	0.039718
	N248	N	0.672277	0.962743	0.414875
	N249	N	0.671448	0.036255	0.587717
	N250	N	0.314252	0.961681	0.588132
	N251	N	0.314328	0.036662	0.416506
	N252	N	0.909640	0.461750	0.177035
	N253	N	0.079538	0.537039	0.178603
	N254	N	0.078914	0.461246	0.824104
	N255	N	0.909332	0.536979	0.823244
	N256	N	0.173356	0.911004	0.465221
	N257	N	0.172005	0.084950	0.539043
	N258	N	0.812965	0.085942	0.464967
	N259	N	0.813490	0.912389	0.538532
	N260	N	0.457452	0.178266	0.916200
	N261	N	0.532249	0.177895	0.086706
	N262	N	0.457280	0.821753	0.086992
	N263	N	0.531513	0.821226	0.916333
	N264	N	0.457327	0.913582	0.180906
	N265	N	0.530872	0.086528	0.181915
	N266	N	0.456917	0.085542	0.822334
	N267	N	0.530614	0.913018	0.822048
	N268	N	0.908145	0.176367	0.463516
	N269	N	0.077568	0.176382	0.538942
	N270	N	0.077219	0.821983	0.463781
	N271	N	0.907815	0.821298	0.538714
	N272	N	0.174004	0.463183	0.913983
	N273	N	0.172324	0.537618	0.085984
	N274	N	0.815973	0.462954	0.086284
	N275	N	0.815719	0.536984	0.915428
	O276	O	0.461796	0.506853	0.475818
	H277	H	0.454484	0.501243	0.482959
	H278	H	0.464333	0.503633	0.473289
	O279	O	0.465095	0.545160	0.498769
	H280	H	0.467779	0.545765	0.503350
	H281	H	0.466503	0.545945	0.494071
	O282	O	0.563444	0.538084	0.448557
	H283	H	0.569245	0.528008	0.458819
	H284	H	0.561005	0.553008	0.450093
	O285	O	0.010973	1.015642	1.055686
	H286	H	0.009448	1.018232	1.063606
	H287	H	0.012789	1.007274	1.050451
	O288	O	0.499519	0.496198	0.472830
	H289	H	0.503090	0.494562	0.467922
	H290	H	0.500016	0.499277	0.489464
	O291	O	0.060972	0.017084	0.973207
	H292	H	0.064042	0.014249	0.969154
	H293	H	0.068050	0.009669	0.974865
	O294	O	0.485990	0.502082	0.537097
	H295	H	0.483114	0.492662	0.536898
	H296	H	0.481931	0.497698	0.532654
	O297	O	0.533052	0.565961	0.587211
	H298	H	0.537140	0.570001	0.584555
	H299	H	0.531118	0.565077	0.577148
	O300	O	0.522824	0.526415	0.519263
	H301	H	0.516882	0.527397	0.524821
	H302	H	0.520393	0.531828	0.524590
	O303	O	0.527860	0.487898	0.536948
	H304	H	0.523202	0.482710	0.534753
	H305	H	0.523278	0.491666	0.534839
	O306	O	1.074181	0.100008	1.029839
	H307	H	1.064835	0.091379	1.027360
	H308	H	1.076917	0.110713	1.035878
	O309	O	0.518829	0.525640	0.545643
	H310	H	0.525476	0.517226	0.537610
	H311	H	0.525234	0.533239	0.553531
	O312	O	0.070921	-0.003366	0.014134
	H313	H	0.070123	-0.004905	0.014949
	H314	H	0.067822	-0.002980	0.018835
	O315	O	1.013095	0.067612	1.037325
	H316	H	1.010574	0.072941	1.031513
	H317	H	1.015135	0.070521	1.047774
	O318	O	0.120104	0.059239	0.110850
	H319	H	0.118661	0.073382	0.112405
	H320	H	0.129252	0.064358	0.121813
	O321	O	0.459198	0.441165	0.547595
	H322	H	0.455176	0.439426	0.551763
	H323	H	0.461189	0.445641	0.546639
	O324	O	1.071177	0.020833	-0.025622
	H325	H	1.074975	0.010115	-0.029552
	H326	H	1.072448	0.025871	-0.020443
	O327	O	1.027063	0.991706	0.061166
	H328	H	1.022306	0.991787	0.059460
	H329	H	1.027451	0.997273	0.060361
	O330	O	1.017121	1.066198	0.043493
	H331	H	1.020702	1.060316	0.042490
	H332	H	1.018427	1.067669	0.049704
	O333	O	0.508223	0.496317	0.583815
	H334	H	0.514141	0.490896	0.588786
	H335	H	0.506867	0.504911	0.579745
