data_Molecule from HDF5

_cell_length_a		16.277511
_cell_length_b		16.286880
_cell_length_c		16.288013
_cell_angle_alpha	89.978969
_cell_angle_beta	90.563745
_cell_angle_gamma	90.297824
_symmetry_space_group_name_H-M	'P 1'
_symmetry_Int_Tables_number		1

loop_
	_symmetry_equiv_pos_as_xyz
	x,y,z

loop_
	_atom_site_label
	_atom_site_type_symbol
	_atom_site_fract_x
	_atom_site_fract_y
	_atom_site_fract_z
	H0	H	0.406008	0.844643	0.715135
	H1	H	0.606125	0.171590	0.719620
	H2	H	0.601460	0.844230	0.290006
	H3	H	0.405305	0.171340	0.285082
	H4	H	0.713481	0.408937	0.835978
	H5	H	0.721369	0.605987	0.163732
	H6	H	0.287109	0.605477	0.838092
	H7	H	0.288169	0.407454	0.165159
	H8	H	0.841234	0.723691	0.397130
	H9	H	0.166842	0.723714	0.601419
	H10	H	0.841909	0.291728	0.597939
	H11	H	0.168405	0.294591	0.403385
	H12	H	0.839447	0.408654	0.710732
	H13	H	0.165172	0.610381	0.718389
	H14	H	0.840985	0.606423	0.283456
	H15	H	0.168557	0.410391	0.287205
	H16	H	0.401452	0.723711	0.838760
	H17	H	0.604441	0.720786	0.165456
	H18	H	0.598471	0.292914	0.838100
	H19	H	0.403797	0.291695	0.165746
	H20	H	0.717743	0.845473	0.405578
	H21	H	0.721126	0.172055	0.602484
	H22	H	0.287808	0.846032	0.601424
	H23	H	0.290805	0.173154	0.402489
	H24	H	0.903946	0.344501	0.214560
	H25	H	0.106174	0.671111	0.216617
	H26	H	0.099667	0.345626	0.784533
	H27	H	0.902156	0.671581	0.783353
	H28	H	0.217378	0.912067	0.338316
	H29	H	0.221565	0.109716	0.664961
	H30	H	0.786844	0.108393	0.339265
	H31	H	0.791614	0.909264	0.665842
	H32	H	0.339715	0.219437	0.901320
	H33	H	0.666513	0.223588	0.103072
	H34	H	0.340406	0.790446	0.100310
	H35	H	0.667317	0.793402	0.906101
	H36	H	0.340639	0.905433	0.217276
	H37	H	0.667914	0.105794	0.217171
	H38	H	0.341239	0.105246	0.785431
	H39	H	0.668090	0.908351	0.789941
	H40	H	0.905515	0.221245	0.337355
	H41	H	0.106917	0.225194	0.664034
	H42	H	0.101471	0.795740	0.337430
	H43	H	0.905249	0.791319	0.663664
	H44	H	0.216509	0.344964	0.900072
	H45	H	0.222028	0.670407	0.101831
	H46	H	0.790905	0.343366	0.094780
	H47	H	0.786712	0.670996	0.899426
	H48	H	0.415987	0.122522	0.593413
	H49	H	0.600660	0.890006	0.602824
	H50	H	0.596440	0.123494	0.412300
	H51	H	0.404892	0.889999	0.407505
	H52	H	0.598473	0.418147	0.116454
	H53	H	0.591221	0.603527	0.884764
	H54	H	0.409212	0.597286	0.118065
	H55	H	0.410100	0.401274	0.882330
	H56	H	0.119494	0.600583	0.409977
	H57	H	0.886424	0.605812	0.585745
	H58	H	0.123378	0.416302	0.602758
	H59	H	0.886124	0.419274	0.395013
	H60	H	0.121201	0.411796	0.587959
	H61	H	0.889505	0.594930	0.587983
	H62	H	0.121244	0.602101	0.406666
	H63	H	0.885804	0.403239	0.409033
	H64	H	0.415071	0.595838	0.115604
	H65	H	0.597517	0.601763	0.883538
	H66	H	0.595337	0.415027	0.117450
	H67	H	0.397555	0.416642	0.883522
	H68	H	0.598403	0.125655	0.408202
	H69	H	0.592421	0.894057	0.595615
	H70	H	0.412029	0.124403	0.591896
	H71	H	0.415087	0.893155	0.405590
	H72	H	0.908251	0.625070	0.089568
	H73	H	0.100630	0.388744	0.100165
	H74	H	0.098316	0.623874	0.914453
	H75	H	0.913217	0.391614	0.895759
	H76	H	0.092437	0.912741	0.617410
	H77	H	0.095454	0.102069	0.385304
	H78	H	0.906239	0.097699	0.618693
	H79	H	0.906911	0.918177	0.384730
	H80	H	0.619114	0.093694	0.910011
	H81	H	0.386289	0.093727	0.103606
	H82	H	0.618666	0.912430	0.090148
	H83	H	0.391221	0.917632	0.916672
	H84	H	0.618654	0.921699	0.099835
	H85	H	0.384895	0.108903	0.092761
	H86	H	0.623514	0.105983	0.906411
	H87	H	0.388405	0.920736	0.902179
	H88	H	0.920839	0.097569	0.615270
	H89	H	0.097933	0.104073	0.384075
	H90	H	0.101717	0.913596	0.619506
	H91	H	0.911044	0.919032	0.386347
	H92	H	0.097037	0.626805	0.904479
	H93	H	0.086326	0.394496	0.095743
	H94	H	0.912746	0.624862	0.096510
	H95	H	0.910257	0.394713	0.911982
	H96	H	0.414263	0.125902	0.596044
	H97	H	0.602845	0.893049	0.592087
	H98	H	0.593849	0.124261	0.408793
	H99	H	0.411119	0.894950	0.415743
	H100	H	0.599705	0.413957	0.119257
	H101	H	0.593326	0.597297	0.885676
	H102	H	0.413873	0.601646	0.118377
	H103	H	0.416618	0.418890	0.889881
	H104	H	0.119929	0.604401	0.409141
	H105	H	0.885651	0.600633	0.596513
	H106	H	0.117385	0.425943	0.592046
	H107	H	0.892816	0.421713	0.414723
	H108	H	0.916157	0.622187	0.089455
	H109	H	0.097795	0.393699	0.085194
	H110	H	0.089321	0.622093	0.909660
	H111	H	0.898531	0.387710	0.902591
	H112	H	0.097041	0.921833	0.615953
	H113	H	0.098690	0.100815	0.385269
	H114	H	0.914323	0.109632	0.620805
	H115	H	0.909868	0.914883	0.385440
	H116	H	0.618651	0.103727	0.918982
	H117	H	0.391681	0.092888	0.085733
	H118	H	0.623508	0.909200	0.102296
	H119	H	0.385623	0.906719	0.907330
	C120	C	0.383751	0.016878	0.623356
	C121	C	0.627464	1.000201	0.625449
	C122	C	0.624956	0.016644	0.381932
	C123	C	0.381828	1.000657	0.379773
	C124	C	0.624562	0.386619	0.009279
	C125	C	0.624867	0.629098	0.992752
	C126	C	0.382352	0.628201	0.009615
	C127	C	0.380051	0.384229	0.993477
	C128	C	0.012611	0.630611	0.378158
	C129	C	0.994591	0.630435	0.621180
	C130	C	0.012509	0.387959	0.621393
	C131	C	0.996153	0.386490	0.378332
	C132	C	0.883328	0.515957	0.120001
	C133	C	0.125680	0.499685	0.122825
	C134	C	0.123263	0.516808	0.879404
	C135	C	0.879064	0.499289	0.875502
	C136	C	0.125154	0.888101	0.509662
	C137	C	0.127126	0.131360	0.492729
	C138	C	0.883790	0.130304	0.510303
	C139	C	0.881655	0.887263	0.493033
	C140	C	0.512437	0.128973	0.881256
	C141	C	0.495217	0.128483	0.123919
	C142	C	0.512036	0.884841	0.124767
	C143	C	0.496029	0.886030	0.881245
	C144	C	0.385361	0.893969	0.677980
	C145	C	0.625586	0.122916	0.681198
	C146	C	0.621937	0.893291	0.327450
	C147	C	0.384787	0.122931	0.323571
	C148	C	0.677142	0.388659	0.885836
	C149	C	0.682740	0.626666	0.115055
	C150	C	0.325512	0.626430	0.887008
	C151	C	0.325670	0.386966	0.116338
	C152	C	0.889875	0.685719	0.378431
	C153	C	0.117655	0.686333	0.621108
	C154	C	0.890157	0.330726	0.617807
	C155	C	0.119473	0.332101	0.381906
	C156	C	0.889081	0.388843	0.674299
	C157	C	0.116819	0.630088	0.679314
	C158	C	0.889694	0.627356	0.321833
	C159	C	0.119476	0.389839	0.324437
	C160	C	0.382391	0.685034	0.887428
	C161	C	0.624632	0.683564	0.116075
	C162	C	0.619896	0.330861	0.886749
	C163	C	0.383446	0.329579	0.116689
	C164	C	0.679767	0.893781	0.384821
	C165	C	0.682839	0.123303	0.623124
	C166	C	0.326690	0.894702	0.621240
	C167	C	0.327600	0.123647	0.381724
	C168	C	0.884771	0.393107	0.175773
	C169	C	0.125866	0.622322	0.178455
	C170	C	0.120196	0.394238	0.822923
	C171	C	0.881986	0.622745	0.821212
	C172	C	0.179852	0.891163	0.386912
	C173	C	0.183468	0.129656	0.615907
	C174	C	0.825782	0.128350	0.387684
	C175	C	0.828575	0.889175	0.616653
	C176	C	0.389078	0.182555	0.882030
	C177	C	0.618082	0.184945	0.122879
	C178	C	0.389156	0.828610	0.121199
	C179	C	0.618740	0.831222	0.885128
	C180	C	0.389291	0.885971	0.179263
	C181	C	0.618768	0.126661	0.179517
	C182	C	0.389744	0.125808	0.823962
	C183	C	0.619063	0.888398	0.827454
	C184	C	0.884670	0.184581	0.386701
	C185	C	0.126630	0.187225	0.615357
	C186	C	0.122266	0.833360	0.386566
	C187	C	0.884760	0.830253	0.615460
	C188	C	0.177939	0.393719	0.880805
	C189	C	0.183258	0.621859	0.121279
	C190	C	0.828134	0.392510	0.116711
	C191	C	0.824250	0.622321	0.878465
	C192	C	0.407404	0.102563	0.600506
	C193	C	0.605094	0.914562	0.603409
	C194	C	0.602855	0.102366	0.403538
	C195	C	0.403760	0.914701	0.402899
	C196	C	0.603886	0.409209	0.095461
	C197	C	0.600944	0.607378	0.906996
	C198	C	0.405977	0.605060	0.095162
	C199	C	0.401720	0.405861	0.907587
	C200	C	0.098349	0.608668	0.401572
	C201	C	0.909367	0.607198	0.597056
	C202	C	0.098428	0.411110	0.600409
	C203	C	0.910398	0.408345	0.399789
	C204	C	0.905771	0.601800	0.098100
	C205	C	0.101790	0.414327	0.100430
	C206	C	0.101383	0.601986	0.902730
	C207	C	0.900930	0.413600	0.896990
	C208	C	0.103569	0.909749	0.595248
	C209	C	0.104092	0.108905	0.407118
	C210	C	0.907095	0.108236	0.596080
	C211	C	0.902924	0.910521	0.407628
	C212	C	0.598268	0.107506	0.904804
	C213	C	0.409774	0.105336	0.100762
	C214	C	0.598017	0.907757	0.103558
	C215	C	0.410584	0.908485	0.902538
	Zn216	Zn	0.505107	0.007785	0.752750
	Zn217	Zn	0.504096	0.007364	0.252199
	Zn218	Zn	0.753309	0.507904	-0.000873
	Zn219	Zn	0.252900	0.507132	0.001359
	Zn220	Zn	0.003570	0.759076	0.500506
	Zn221	Zn	0.005528	0.258688	0.500800
	Zn222	Zn	0.002453	0.509183	0.749137
	Zn223	Zn	0.004146	0.508519	0.250326
	Zn224	Zn	0.503601	0.757089	0.002187
	Zn225	Zn	0.503043	0.257291	0.002455
	Zn226	Zn	0.754491	0.009257	0.502627
	Zn227	Zn	0.254397	0.009826	0.502055
	N228	N	0.420251	0.970962	0.679181
	N229	N	0.591782	0.045255	0.682741
	N230	N	0.588469	0.970696	0.325684
	N231	N	0.417689	0.045157	0.322131
	N232	N	0.680087	0.422602	0.963073
	N233	N	0.683042	0.593630	0.037266
	N234	N	0.325530	0.591659	0.963931
	N235	N	0.323279	0.420101	0.038696
	N236	N	0.967374	0.687858	0.412879
	N237	N	0.040671	0.686655	0.585588
	N238	N	0.967902	0.330292	0.585581
	N239	N	0.041967	0.329868	0.414637
	N240	N	0.966130	0.423892	0.676629
	N241	N	0.039235	0.596062	0.679642
	N242	N	0.966867	0.593837	0.321604
	N243	N	0.041728	0.422982	0.322019
	N244	N	0.416976	0.686065	0.964869
	N245	N	0.589530	0.685475	0.039033
	N246	N	0.587810	0.329532	0.964708
	N247	N	0.416431	0.327545	0.039225
	N248	N	0.681692	0.971309	0.418006
	N249	N	0.684317	0.046085	0.589208
	N250	N	0.325779	0.972362	0.587845
	N251	N	0.325795	0.046475	0.415888
	N252	N	0.918234	0.470989	0.178173
	N253	N	0.090664	0.545460	0.179656
	N254	N	0.086838	0.471646	0.822121
	N255	N	0.915382	0.545320	0.819087
	N256	N	0.181664	0.924478	0.464292
	N257	N	0.184013	0.095519	0.538712
	N258	N	0.824885	0.095500	0.465549
	N259	N	0.826393	0.923833	0.539569
	N260	N	0.466290	0.184421	0.917154
	N261	N	0.540473	0.186175	0.088853
	N262	N	0.466559	0.827955	0.088024
	N263	N	0.541238	0.829548	0.917727
	N264	N	0.466652	0.920422	0.181482
	N265	N	0.541326	0.092376	0.180344
	N266	N	0.467357	0.093142	0.823499
	N267	N	0.541712	0.921923	0.824864
	N268	N	0.920092	0.185775	0.463748
	N269	N	0.091945	0.188139	0.537954
	N270	N	0.088822	0.831201	0.463843
	N271	N	0.917028	0.828841	0.537695
	N272	N	0.180302	0.470853	0.915140
	N273	N	0.183230	0.544476	0.087343
	N274	N	0.827520	0.469589	0.082493
	N275	N	0.822238	0.544719	0.911419
	O276	O	-0.038576	0.070403	0.000084
	H277	H	-0.029438	0.065793	0.000972
	H278	H	-0.042611	0.076058	-0.001723
	O279	O	0.506783	0.528171	0.515666
	H280	H	0.508049	0.534261	0.517296
	H281	H	0.508635	0.532758	0.516901
	O282	O	0.518956	0.482706	0.469290
	H283	H	0.518446	0.476653	0.473623
	H284	H	0.505779	0.478217	0.464233
	O285	O	1.048053	0.032465	1.018379
	H286	H	1.053078	0.038689	1.012952
	H287	H	1.047667	0.032541	1.010085
	O288	O	0.971562	-0.040842	0.065571
	H289	H	0.969501	-0.025774	0.063436
	H290	H	0.967204	-0.049326	0.057885
	O291	O	0.561615	0.520267	0.474948
	H292	H	0.566126	0.526130	0.481829
	H293	H	0.561523	0.517659	0.477689
	O294	O	1.015002	-0.024911	1.080755
	H295	H	1.003605	-0.020145	1.081158
	H296	H	1.008475	-0.035111	1.097996
	O297	O	0.033239	-0.001226	0.006363
	H298	H	0.042892	-0.002981	0.008506
	H299	H	0.032038	-0.007866	0.011613
	O300	O	1.131155	0.099986	0.102583
	H301	H	1.140858	0.100976	0.115185
	H302	H	1.126867	0.099104	0.103282
	O303	O	0.518451	0.480763	0.467557
	H304	H	0.533959	0.480784	0.466133
	H305	H	0.518945	0.474425	0.465063
	O306	O	0.994997	-0.010363	0.013426
	H307	H	0.996774	-0.015729	0.018566
	H308	H	0.991931	-0.010407	0.011326
	O309	O	-0.007638	0.029880	0.958607
	H310	H	-0.011722	0.030945	0.949773
	H311	H	-0.004325	0.026937	0.968976
	O312	O	1.020434	1.001204	1.025478
	H313	H	1.017670	1.000060	1.033229
	H314	H	1.027559	1.007770	1.016681
	O315	O	0.462224	0.520363	0.559370
	H316	H	0.463966	0.528440	0.563862
	H317	H	0.468796	0.520240	0.565556
	O318	O	0.028091	0.039253	0.021754
	H319	H	0.029578	0.043983	0.020788
	H320	H	0.027288	0.033722	0.030399
	O321	O	0.032979	1.033046	1.084070
	H322	H	0.038375	1.033884	1.083855
	H323	H	0.040875	1.039824	1.083643
	O324	O	0.494731	0.584434	0.525574
	H325	H	0.497999	0.593270	0.534401
	H326	H	0.496689	0.586722	0.516588
	O327	O	0.509113	0.446351	0.503092
	H328	H	0.516001	0.451112	0.501364
	H329	H	0.510043	0.450411	0.513053
	O330	O	0.497014	0.516558	0.423768
	H331	H	0.495362	0.525672	0.415753
	H332	H	0.473701	0.524797	0.422490
	O333	O	0.455072	0.595410	0.418273
	H334	H	0.460811	0.588764	0.430324
	H335	H	0.443882	0.590792	0.413056
	O336	O	0.557329	0.514899	0.501752
	H337	H	0.551964	0.520516	0.491827
	H338	H	0.552683	0.509064	0.498704
	O339	O	0.927065	1.087103	-0.084427
	H340	H	0.931883	1.091213	-0.075593
	H341	H	0.934072	1.091067	-0.092211
	O342	O	0.534982	0.521877	0.539372
	H343	H	0.532495	0.516687	0.528553
	H344	H	0.538143	0.526648	0.545102
	O345	O	0.487291	0.541402	0.558617
	H346	H	0.482421	0.546888	0.563757
	H347	H	0.498578	0.533135	0.558662
	O348	O	0.044752	0.004580	0.010324
	H349	H	0.044739	0.001129	-0.002250
	H350	H	0.043155	0.006635	0.011299
	O351	O	-0.016231	0.986380	0.992482
	H352	H	-0.003424	0.987859	0.991412
	H353	H	-0.029106	0.989185	0.991568
	O354	O	0.544501	0.565086	0.545564
	H355	H	0.547021	0.562806	0.551284
	H356	H	0.550244	0.569246	0.539482
	O357	O	-0.057785	0.956565	0.963419
	H358	H	-0.056775	0.960077	0.974681
	H359	H	-0.059343	0.970471	0.962781
