data_Molecule from HDF5

_cell_length_a		16.570566
_cell_length_b		16.375050
_cell_length_c		16.412524
_cell_angle_alpha	89.927606
_cell_angle_beta	89.994980
_cell_angle_gamma	89.883013
_symmetry_space_group_name_H-M	'P 1'
_symmetry_Int_Tables_number		1

loop_
	_symmetry_equiv_pos_as_xyz
	x,y,z

loop_
	_atom_site_label
	_atom_site_type_symbol
	_atom_site_fract_x
	_atom_site_fract_y
	_atom_site_fract_z
	H0	H	0.405008	0.849412	0.730131
	H1	H	0.620260	0.163954	0.726952
	H2	H	0.624853	0.849788	0.277530
	H3	H	0.410056	0.165104	0.284765
	H4	H	0.741865	0.395056	0.849900
	H5	H	0.741171	0.619795	0.159186
	H6	H	0.287298	0.618858	0.847630
	H7	H	0.291511	0.402478	0.161092
	H8	H	0.858232	0.733008	0.396717
	H9	H	0.170052	0.730595	0.615118
	H10	H	0.858320	0.278426	0.614548
	H11	H	0.170162	0.283884	0.399701
	H12	H	0.858529	0.394035	0.731177
	H13	H	0.169487	0.611827	0.729476
	H14	H	0.856592	0.615952	0.281069
	H15	H	0.168971	0.399549	0.282335
	H16	H	0.407650	0.729479	0.845903
	H17	H	0.618581	0.727495	0.163358
	H18	H	0.624026	0.282312	0.848048
	H19	H	0.409825	0.287226	0.161891
	H20	H	0.741358	0.850587	0.391859
	H21	H	0.739175	0.161590	0.614848
	H22	H	0.291275	0.847811	0.613238
	H23	H	0.291206	0.162519	0.397508
	H24	H	0.906222	0.347101	0.226855
	H25	H	0.118520	0.663952	0.228138
	H26	H	0.119141	0.347208	0.783906
	H27	H	0.901861	0.661202	0.776064
	H28	H	0.240335	0.894907	0.347858
	H29	H	0.237043	0.112273	0.661963
	H30	H	0.786789	0.118625	0.349251
	H31	H	0.785489	0.892874	0.658624
	H32	H	0.358999	0.233267	0.894821
	H33	H	0.669833	0.232359	0.112925
	H34	H	0.356990	0.782431	0.113318
	H35	H	0.669982	0.781419	0.897240
	H36	H	0.357337	0.900262	0.228758
	H37	H	0.669756	0.115917	0.229394
	H38	H	0.358300	0.115544	0.779979
	H39	H	0.670304	0.897607	0.780323
	H40	H	0.908424	0.227913	0.346332
	H41	H	0.117167	0.224511	0.663675
	H42	H	0.123368	0.780307	0.347297
	H43	H	0.907353	0.782975	0.662675
	H44	H	0.239885	0.351720	0.892911
	H45	H	0.235342	0.664594	0.112786
	H46	H	0.787358	0.350177	0.115598
	H47	H	0.786577	0.662867	0.891427
	H48	H	0.424764	0.119125	0.591083
	H49	H	0.599328	0.893809	0.592200
	H50	H	0.599393	0.118160	0.416371
	H51	H	0.426217	0.890566	0.412851
	H52	H	0.601257	0.423103	0.116317
	H53	H	0.598230	0.591401	0.894113
	H54	H	0.425947	0.595105	0.116654
	H55	H	0.420129	0.421400	0.888781
	H56	H	0.123793	0.594435	0.419508
	H57	H	0.903994	0.592178	0.589638
	H58	H	0.124380	0.413803	0.590736
	H59	H	0.899332	0.414209	0.416309
	H60	H	0.123797	0.419581	0.592885
	H61	H	0.905215	0.591256	0.589066
	H62	H	0.122447	0.589263	0.417587
	H63	H	0.901194	0.416368	0.418147
	H64	H	0.420688	0.596832	0.118183
	H65	H	0.600151	0.593769	0.891944
	H66	H	0.598451	0.421432	0.115439
	H67	H	0.427376	0.426094	0.892547
	H68	H	0.600170	0.116864	0.420347
	H69	H	0.598961	0.895305	0.587905
	H70	H	0.425227	0.118425	0.591487
	H71	H	0.431868	0.894014	0.417214
	H72	H	0.927662	0.616061	0.088201
	H73	H	0.100890	0.394756	0.089917
	H74	H	0.102802	0.621383	0.915896
	H75	H	0.928581	0.398805	0.926902
	H76	H	0.104615	0.918113	0.616289
	H77	H	0.107306	0.094513	0.389014
	H78	H	0.921797	0.090683	0.617855
	H79	H	0.929145	0.924303	0.395065
	H80	H	0.624309	0.092639	0.917483
	H81	H	0.402885	0.093965	0.093570
	H82	H	0.621442	0.920352	0.085694
	H83	H	0.402901	0.918421	0.918244
	H84	H	0.625304	0.923140	0.096544
	H85	H	0.401640	0.097794	0.094169
	H86	H	0.626502	0.093749	0.913934
	H87	H	0.403440	0.920735	0.917246
	H88	H	0.928313	0.087383	0.615279
	H89	H	0.103449	0.089098	0.392616
	H90	H	0.103320	0.918206	0.616709
	H91	H	0.931446	0.918004	0.393456
	H92	H	0.095017	0.617802	0.914290
	H93	H	0.105917	0.392395	0.091883
	H94	H	0.922906	0.619129	0.090647
	H95	H	0.919337	0.391457	0.919154
	H96	H	0.425472	0.118278	0.590825
	H97	H	0.603018	0.892993	0.589435
	H98	H	0.602603	0.118681	0.417589
	H99	H	0.424450	0.893422	0.420371
	H100	H	0.601339	0.420404	0.116928
	H101	H	0.602137	0.590706	0.893088
	H102	H	0.421902	0.591037	0.116671
	H103	H	0.428607	0.417283	0.890448
	H104	H	0.124898	0.592743	0.413890
	H105	H	0.903869	0.590175	0.589660
	H106	H	0.126153	0.414890	0.596587
	H107	H	0.900534	0.417277	0.414858
	H108	H	0.927974	0.618111	0.094319
	H109	H	0.101117	0.392919	0.095789
	H110	H	0.098467	0.616789	0.922275
	H111	H	0.931680	0.394884	0.913912
	H112	H	0.104105	0.917942	0.617321
	H113	H	0.100607	0.095990	0.391924
	H114	H	0.927900	0.095119	0.617359
	H115	H	0.924957	0.919748	0.391577
	H116	H	0.626122	0.096613	0.916679
	H117	H	0.402988	0.096758	0.090976
	H118	H	0.626820	0.911752	0.092032
	H119	H	0.402754	0.918936	0.915448
	C120	C	0.391989	0.014559	0.625885
	C121	C	0.634241	0.997694	0.624415
	C122	C	0.635867	0.014759	0.382459
	C123	C	0.393933	0.997001	0.383775
	C124	C	0.635135	0.386648	0.013255
	C125	C	0.634835	0.627559	0.996167
	C126	C	0.389909	0.629286	0.013080
	C127	C	0.392372	0.387239	0.994548
	C128	C	0.021374	0.627825	0.383010
	C129	C	1.006553	0.625442	0.624929
	C130	C	0.022270	0.381702	0.627602
	C131	C	1.003994	0.383524	0.383580
	C132	C	0.891475	0.514209	0.125723
	C133	C	0.134415	0.497872	0.125582
	C134	C	0.133306	0.514812	0.883712
	C135	C	0.891297	0.498041	0.883250
	C136	C	0.137393	0.883344	0.513086
	C137	C	0.135582	0.125561	0.496018
	C138	C	0.892407	0.126561	0.513223
	C139	C	0.893790	0.885379	0.496521
	C140	C	0.522809	0.129097	0.882031
	C141	C	0.505678	0.129029	0.126003
	C142	C	0.521677	0.885018	0.125989
	C143	C	0.505850	0.884942	0.883050
	C144	C	0.388003	0.896303	0.689126
	C145	C	0.638071	0.116259	0.686590
	C146	C	0.641648	0.897230	0.318711
	C147	C	0.391527	0.117169	0.324202
	C148	C	0.699797	0.379331	0.896337
	C149	C	0.698912	0.634903	0.112771
	C150	C	0.328483	0.635002	0.894772
	C151	C	0.331903	0.384218	0.113694
	C152	C	0.904778	0.691585	0.379038
	C153	C	0.123208	0.688742	0.631258
	C154	C	0.905333	0.319141	0.632001
	C155	C	0.122577	0.323418	0.381092
	C156	C	0.905274	0.377089	0.690071
	C157	C	0.123094	0.629619	0.688379
	C158	C	0.904011	0.633179	0.321497
	C159	C	0.121945	0.381152	0.322660
	C160	C	0.388492	0.690328	0.894051
	C161	C	0.637571	0.688646	0.114991
	C162	C	0.640706	0.323374	0.895318
	C163	C	0.390550	0.326954	0.114124
	C164	C	0.699876	0.897489	0.375917
	C165	C	0.697214	0.115168	0.630440
	C166	C	0.331473	0.895442	0.630462
	C167	C	0.332269	0.115620	0.380007
	C168	C	0.888142	0.395387	0.187224
	C169	C	0.136877	0.616662	0.187386
	C170	C	0.137390	0.395538	0.823143
	C171	C	0.885224	0.614456	0.817776
	C172	C	0.199450	0.878053	0.394998
	C173	C	0.196282	0.129114	0.614812
	C174	C	0.828887	0.133766	0.395860
	C175	C	0.828513	0.877641	0.612615
	C176	C	0.406065	0.192202	0.877530
	C177	C	0.623067	0.191165	0.130082
	C178	C	0.404172	0.823186	0.130825
	C179	C	0.623140	0.822227	0.879437
	C180	C	0.404289	0.881865	0.188295
	C181	C	0.623124	0.132779	0.187917
	C182	C	0.405527	0.133276	0.820272
	C183	C	0.623339	0.880143	0.821023
	C184	C	0.889416	0.188390	0.394374
	C185	C	0.136627	0.185151	0.615631
	C186	C	0.141148	0.820821	0.394908
	C187	C	0.889409	0.822950	0.614817
	C188	C	0.197571	0.397765	0.877709
	C189	C	0.195183	0.616906	0.129861
	C190	C	0.828639	0.396973	0.131678
	C191	C	0.827888	0.615421	0.875877
	C192	C	0.417737	0.097030	0.598889
	C193	C	0.607880	0.915511	0.597540
	C194	C	0.608684	0.096642	0.410164
	C195	C	0.419975	0.914089	0.409412
	C196	C	0.608030	0.413843	0.094787
	C197	C	0.607949	0.600131	0.914442
	C198	C	0.415573	0.602236	0.095731
	C199	C	0.417918	0.413758	0.912232
	C200	C	0.102603	0.600171	0.409350
	C201	C	0.925588	0.598859	0.597464
	C202	C	0.103695	0.408320	0.601011
	C203	C	0.921878	0.408729	0.409187
	C204	C	0.918286	0.596391	0.098892
	C205	C	0.109733	0.415027	0.099768
	C206	C	0.106273	0.597208	0.909844
	C207	C	0.918655	0.416240	0.911790
	C208	C	0.111334	0.910297	0.595395
	C209	C	0.110990	0.100292	0.412763
	C210	C	0.918390	0.099043	0.595362
	C211	C	0.920904	0.912883	0.414815
	C212	C	0.604363	0.102097	0.908450
	C213	C	0.423837	0.103573	0.100186
	C214	C	0.603090	0.910904	0.099216
	C215	C	0.424483	0.911704	0.909542
	Zn216	Zn	0.514199	0.005922	0.753422
	Zn217	Zn	0.513947	0.007006	0.254890
	Zn218	Zn	0.763401	0.507081	0.004949
	Zn219	Zn	0.262304	0.507855	0.003151
	Zn220	Zn	0.014555	0.756251	0.505041
	Zn221	Zn	0.013854	0.253831	0.504785
	Zn222	Zn	0.013244	0.504815	0.755564
	Zn223	Zn	0.012014	0.505651	0.254290
	Zn224	Zn	0.513081	0.755401	0.004646
	Zn225	Zn	0.514394	0.258365	0.004123
	Zn226	Zn	0.763995	0.005789	0.504099
	Zn227	Zn	0.264998	0.004950	0.504043
	N228	N	0.425142	0.971350	0.686336
	N229	N	0.599680	0.042074	0.683001
	N230	N	0.602570	0.971169	0.322702
	N231	N	0.429129	0.042365	0.326486
	N232	N	0.696480	0.417917	0.970572
	N233	N	0.697288	0.597659	0.037718
	N234	N	0.329352	0.597942	0.969896
	N235	N	0.332474	0.420590	0.038127
	N236	N	0.978960	0.688626	0.416399
	N237	N	0.049791	0.686052	0.592281
	N238	N	0.979148	0.321963	0.593813
	N239	N	0.048201	0.324665	0.418274
	N240	N	0.978921	0.415302	0.687412
	N241	N	0.049634	0.590866	0.684649
	N242	N	0.977599	0.594259	0.323738
	N243	N	0.047251	0.417628	0.324033
	N244	N	0.425961	0.686849	0.968807
	N245	N	0.598437	0.684300	0.041411
	N246	N	0.601262	0.327679	0.968896
	N247	N	0.427201	0.328489	0.039112
	N248	N	0.696384	0.971765	0.414827
	N249	N	0.695064	0.040479	0.592558
	N250	N	0.333812	0.969870	0.592056
	N251	N	0.333650	0.039948	0.416260
	N252	N	0.926406	0.469611	0.183764
	N253	N	0.099652	0.541749	0.185022
	N254	N	0.098131	0.469339	0.826845
	N255	N	0.923640	0.540225	0.822055
	N256	N	0.197217	0.916042	0.469646
	N257	N	0.195465	0.092643	0.539358
	N258	N	0.830504	0.096266	0.470910
	N259	N	0.831207	0.915848	0.538056
	N260	N	0.480195	0.189906	0.914930
	N261	N	0.549079	0.188993	0.092053
	N262	N	0.478075	0.824722	0.093016
	N263	N	0.549046	0.824925	0.917068
	N264	N	0.478470	0.919385	0.185617
	N265	N	0.549285	0.094960	0.185457
	N266	N	0.479246	0.094740	0.822875
	N267	N	0.549386	0.918219	0.823045
	N268	N	0.928199	0.183983	0.468282
	N269	N	0.099474	0.183044	0.540812
	N270	N	0.103314	0.823918	0.469448
	N271	N	0.929552	0.827794	0.541724
	N272	N	0.195071	0.472925	0.914810
	N273	N	0.193750	0.542059	0.092155
	N274	N	0.830635	0.472050	0.094146
	N275	N	0.831480	0.541660	0.915793
	O276	O	0.064117	0.963360	0.101259
	H277	H	0.036442	0.967869	0.081851
	H278	H	0.068530	0.958533	0.102861
	O279	O	0.805840	0.210220	0.991923
	H280	H	0.792734	0.213306	1.003802
	H281	H	0.814107	0.221342	1.006076
	O282	O	0.533788	0.724245	0.719554
	H283	H	0.571760	0.723054	0.717919
	H284	H	0.552805	0.745959	0.741949
	O285	O	0.575009	1.447408	0.469870
	H286	H	0.587400	1.463420	0.453693
	H287	H	0.588552	1.452085	0.477707
	O288	O	0.688535	0.329931	0.326003
	H289	H	0.680808	0.340703	0.330345
	H290	H	0.702728	0.334892	0.360842
	O291	O	0.357435	0.319933	0.687360
	H292	H	0.398178	0.306567	0.702963
	H293	H	0.341490	0.359730	0.688115
	O294	O	0.237800	0.228508	1.026809
	H295	H	0.229794	0.224787	1.073119
	H296	H	0.263590	0.263207	1.032785
	O297	O	-0.171998	0.183421	-0.175995
	H298	H	-0.148275	0.195489	-0.155735
	H299	H	-0.152017	0.193475	-0.151800
	O300	O	0.563042	0.412875	0.702463
	H301	H	0.558684	0.429128	0.709272
	H302	H	0.572802	0.415344	0.709390
	O303	O	0.230848	-0.026976	1.111671
	H304	H	0.247800	-0.031642	1.111746
	H305	H	0.215302	-0.013771	1.113802
	O306	O	0.797649	0.022933	-0.212308
	H307	H	0.784674	0.055637	-0.224330
	H308	H	0.791292	0.045731	-0.213287
	O309	O	0.453612	0.718196	0.552442
	H310	H	0.436034	0.714156	0.549202
	H311	H	0.463192	0.723233	0.590865
	O312	O	0.483490	1.517702	0.508801
	H313	H	0.480484	1.510175	0.496528
	H314	H	0.481451	1.544240	0.516380
	O315	O	0.733503	0.447234	0.569396
	H316	H	0.716301	0.453541	0.562462
	H317	H	0.738429	0.446432	0.538977
	O318	O	1.231336	-0.210983	-0.015572
	H319	H	1.228064	-0.202285	-0.024089
	H320	H	1.259923	-0.239579	-0.027819
	O321	O	0.211057	0.197077	0.193520
	H322	H	0.198132	0.164723	0.201693
	H323	H	0.185023	0.211849	0.209281
	O324	O	0.726849	0.717564	0.521930
	H325	H	0.694577	0.716361	0.494569
	H326	H	0.742632	0.755479	0.518811
	O327	O	0.498271	0.299898	0.504277
	H328	H	0.492313	0.295507	0.508553
	H329	H	0.498667	0.296920	0.498015
	O330	O	-0.067017	1.004954	-0.079992
	H331	H	-0.067877	0.995306	-0.100412
	H332	H	-0.050121	1.006802	-0.073129
	O333	O	0.350029	0.374882	0.323941
	H334	H	0.373848	0.378635	0.334805
	H335	H	0.354755	0.357113	0.322403
	O336	O	0.188688	-0.173504	-0.172005
	H337	H	0.199871	-0.152381	-0.157440
	H338	H	0.167780	-0.154681	-0.183627
	O339	O	-0.044559	1.029722	1.125161
	H340	H	-0.039656	1.012877	1.127526
	H341	H	-0.060293	1.014400	1.128993
	O342	O	0.138801	1.088535	1.160477
	H343	H	0.099090	1.077182	1.164064
	H344	H	0.158734	1.085996	1.157706
	O345	O	0.951565	1.054454	-0.052493
	H346	H	0.952265	1.048775	-0.071250
	H347	H	0.950006	1.045642	-0.057422
	O348	O	0.293768	0.551161	0.540159
	H349	H	0.287579	0.531060	0.531691
	H350	H	0.298214	0.537353	0.544338
	O351	O	-0.161931	0.833237	1.181869
	H352	H	-0.141865	0.829192	1.168929
	H353	H	-0.171974	0.843063	1.157390
	O354	O	-0.696690	0.497141	0.350408
	H355	H	-0.688596	0.475289	0.369362
	H356	H	-0.702777	0.483503	0.329165
	O357	O	-0.327370	0.524874	0.522148
	H358	H	-0.321575	0.520160	0.500123
	H359	H	-0.339112	0.541714	0.515906
	O360	O	0.492774	0.294652	0.657427
	H361	H	0.507755	0.311321	0.666533
	H362	H	0.498525	0.273070	0.668584
	O363	O	-0.074483	-0.133514	0.886491
	H364	H	-0.067700	-0.128733	0.893664
	H365	H	-0.062649	-0.122222	0.867727
	O366	O	0.298990	0.322772	0.515354
	H367	H	0.311446	0.319918	0.531740
	H368	H	0.288024	0.302449	0.532762
	O369	O	0.368754	0.573661	0.402540
	H370	H	0.356470	0.589728	0.399228
	H371	H	0.370157	0.548327	0.410858
	O372	O	0.726811	-0.708245	1.486254
	H373	H	0.730372	-0.729224	1.494123
	H374	H	0.728355	-0.711684	1.500934
	O375	O	0.309711	0.486284	0.705149
	H376	H	0.288654	0.490345	0.717422
	H377	H	0.337380	0.502553	0.707345
	O378	O	1.138279	1.039076	0.883837
	H379	H	1.135262	1.043620	0.891534
	H380	H	1.155647	1.038376	0.874779
	O381	O	0.879670	0.026420	1.217790
	H382	H	0.861078	0.022934	1.236468
	H383	H	0.860287	0.027239	1.199616
	O384	O	0.579623	0.725110	0.437985
	H385	H	0.549280	0.721471	0.443994
	H386	H	0.555387	0.727909	0.412090
	O387	O	0.074818	-0.054083	1.222353
	H388	H	0.060105	-0.038821	1.206878
	H389	H	0.086004	-0.067105	1.224401
	O390	O	0.184839	0.082081	-0.097419
	H391	H	0.194470	0.094913	-0.079611
	H392	H	0.188639	0.068552	-0.079137
	O393	O	0.910487	1.183716	1.060345
	H394	H	0.917858	1.166088	1.071729
	H395	H	0.920707	1.169555	1.054299
	O396	O	1.146876	0.109606	-0.140557
	H397	H	1.136332	0.108870	-0.127760
	H398	H	1.160533	0.097907	-0.121526
	O399	O	1.107354	0.123185	1.151497
	H400	H	1.095381	0.108874	1.154628
	H401	H	1.092235	0.121542	1.166040
	O402	O	0.996187	0.797228	1.214483
	H403	H	1.003773	0.800016	1.226311
	H404	H	0.984143	0.784020	1.218067
	O405	O	1.477606	0.367863	-0.543078
	H406	H	1.478253	0.365029	-0.552263
	H407	H	1.483075	0.378966	-0.540262
	O408	O	0.799561	-0.207007	0.023922
	H409	H	0.775317	-0.248083	0.023856
	H410	H	0.833209	-0.205069	0.000333
	O411	O	1.010150	1.032778	0.018012
	H412	H	1.005341	1.033829	0.019028
	H413	H	1.007838	1.037210	0.005308
	O414	O	-0.009469	1.209573	0.802541
	H415	H	0.011051	1.198003	0.803484
	H416	H	0.005187	1.220891	0.790601
	O417	O	0.623879	0.556537	0.346229
	H418	H	0.611423	0.578118	0.359860
	H419	H	0.617028	0.561453	0.336662
	O420	O	0.026771	-0.199674	-0.201936
	H421	H	0.028861	-0.192145	-0.208658
	H422	H	0.031069	-0.197083	-0.225924
	O423	O	0.731516	0.487362	0.287298
	H424	H	0.744750	0.468073	0.268221
	H425	H	0.726044	0.502449	0.274154
	O426	O	0.492774	0.726772	0.286610
	H427	H	0.440020	0.711250	0.299687
	H428	H	0.486227	0.764855	0.247077
	O429	O	0.687948	0.682518	0.683183
	H430	H	0.702906	0.630367	0.694772
	H431	H	0.701897	0.692361	0.629846
	O432	O	-0.204752	0.029846	0.140803
	H433	H	-0.221680	0.044442	0.143866
	H434	H	-0.200935	-0.009021	0.117098
	O435	O	0.323072	0.700618	0.406746
	H436	H	0.331317	0.696768	0.438229
	H437	H	0.300598	0.692130	0.413088
	O438	O	-0.007365	-0.185312	-0.015094
	H439	H	-0.000074	-0.172984	-0.003966
	H440	H	0.011294	-0.196254	-0.025196
	O441	O	0.454043	0.575777	-0.295890
	H442	H	0.463289	0.598459	-0.292623
	H443	H	0.468910	0.577726	-0.304734
	O444	O	0.082455	0.963394	0.786776
	H445	H	0.081968	0.981652	0.797281
	H446	H	0.080366	0.974238	0.790827
	O447	O	0.516798	0.363831	0.325298
	H448	H	0.521640	0.347958	0.318452
	H449	H	0.514193	0.374134	0.335503
	O450	O	0.417114	0.556655	0.395748
	H451	H	0.407137	0.564599	0.411116
	H452	H	0.413542	0.531288	0.404048
	O453	O	0.729257	0.523222	0.720375
	H454	H	0.767819	0.523814	0.745800
	H455	H	0.732560	0.498323	0.691030
