data_Molecule from HDF5

_cell_length_a		16.385262
_cell_length_b		16.348892
_cell_length_c		16.425218
_cell_angle_alpha	89.869848
_cell_angle_beta	90.194257
_cell_angle_gamma	90.180568
_symmetry_space_group_name_H-M	'P 1'
_symmetry_Int_Tables_number		1

loop_
	_symmetry_equiv_pos_as_xyz
	x,y,z

loop_
	_atom_site_label
	_atom_site_type_symbol
	_atom_site_fract_x
	_atom_site_fract_y
	_atom_site_fract_z
	H0	H	0.398547	0.838131	0.709588
	H1	H	0.607017	0.158499	0.708968
	H2	H	0.606874	0.838541	0.270175
	H3	H	0.398283	0.157132	0.267081
	H4	H	0.721867	0.393973	0.827993
	H5	H	0.725319	0.602525	0.147046
	H6	H	0.284408	0.600123	0.828660
	H7	H	0.283064	0.395074	0.148882
	H8	H	0.841983	0.717867	0.384667
	H9	H	0.161936	0.719856	0.592824
	H10	H	0.842668	0.278315	0.591421
	H11	H	0.162456	0.280414	0.385945
	H12	H	0.842867	0.393347	0.708346
	H13	H	0.162214	0.604427	0.709703
	H14	H	0.842873	0.603831	0.266907
	H15	H	0.162125	0.395320	0.269346
	H16	H	0.399533	0.718367	0.829763
	H17	H	0.607563	0.715778	0.150089
	H18	H	0.605471	0.277566	0.829271
	H19	H	0.399103	0.278313	0.148492
	H20	H	0.720533	0.837764	0.388438
	H21	H	0.724638	0.157198	0.595760
	H22	H	0.283327	0.838249	0.592272
	H23	H	0.282294	0.157812	0.382535
	H24	H	0.896956	0.339658	0.209147
	H25	H	0.110969	0.657776	0.210158
	H26	H	0.104938	0.338323	0.769229
	H27	H	0.897246	0.657803	0.765137
	H28	H	0.223411	0.894711	0.331026
	H29	H	0.225878	0.105666	0.648157
	H30	H	0.781208	0.102430	0.330663
	H31	H	0.781577	0.890785	0.648443
	H32	H	0.343885	0.219750	0.882078
	H33	H	0.661555	0.221114	0.095666
	H34	H	0.343425	0.776945	0.094210
	H35	H	0.662709	0.777058	0.885534
	H36	H	0.344906	0.890005	0.212041
	H37	H	0.662153	0.104485	0.210567
	H38	H	0.344746	0.105403	0.765628
	H39	H	0.662632	0.892832	0.769293
	H40	H	0.898795	0.217465	0.328817
	H41	H	0.107875	0.219324	0.649039
	H42	H	0.107836	0.778547	0.330400
	H43	H	0.899459	0.776577	0.647927
	H44	H	0.220579	0.337395	0.884403
	H45	H	0.223721	0.657407	0.091599
	H46	H	0.782691	0.339210	0.091756
	H47	H	0.780498	0.658020	0.879620
	H48	H	0.414962	0.112762	0.579602
	H49	H	0.590028	0.885946	0.576173
	H50	H	0.589206	0.110322	0.404385
	H51	H	0.411213	0.884464	0.402405
	H52	H	0.590885	0.404806	0.101943
	H53	H	0.589859	0.587852	0.876187
	H54	H	0.421889	0.594212	0.101988
	H55	H	0.415155	0.407430	0.876220
	H56	H	0.117409	0.586209	0.392314
	H57	H	0.889101	0.585028	0.577961
	H58	H	0.116293	0.407566	0.577078
	H59	H	0.890589	0.410024	0.403908
	H60	H	0.114782	0.412595	0.579636
	H61	H	0.888948	0.588065	0.577216
	H62	H	0.117626	0.596350	0.401148
	H63	H	0.888187	0.414631	0.393826
	H64	H	0.403758	0.590502	0.107317
	H65	H	0.591229	0.590362	0.875100
	H66	H	0.598443	0.411091	0.102106
	H67	H	0.409397	0.405582	0.873963
	H68	H	0.597131	0.113749	0.401680
	H69	H	0.595785	0.882648	0.580023
	H70	H	0.415022	0.111518	0.578405
	H71	H	0.412951	0.883675	0.399621
	H72	H	0.913735	0.612418	0.076741
	H73	H	0.095802	0.383960	0.075789
	H74	H	0.088211	0.612649	0.891257
	H75	H	0.914614	0.384709	0.893707
	H76	H	0.084328	0.909183	0.600763
	H77	H	0.094649	0.088766	0.375502
	H78	H	0.916512	0.083894	0.600295
	H79	H	0.916747	0.907603	0.377355
	H80	H	0.615462	0.087020	0.902095
	H81	H	0.390744	0.084537	0.077586
	H82	H	0.614764	0.919358	0.082466
	H83	H	0.390222	0.916305	0.891344
	H84	H	0.621032	0.902098	0.089178
	H85	H	0.388836	0.086324	0.081459
	H86	H	0.616067	0.087010	0.900053
	H87	H	0.386817	0.899135	0.899633
	H88	H	0.917061	0.092196	0.603703
	H89	H	0.091316	0.088430	0.376704
	H90	H	0.095282	0.904220	0.605632
	H91	H	0.907720	0.907911	0.373666
	H92	H	0.089134	0.609108	0.904811
	H93	H	0.091799	0.382641	0.084298
	H94	H	0.915786	0.612651	0.077006
	H95	H	0.915131	0.387703	0.902544
	H96	H	0.413603	0.112310	0.578436
	H97	H	0.588505	0.883410	0.583379
	H98	H	0.589378	0.113391	0.396029
	H99	H	0.414829	0.885467	0.401935
	H100	H	0.589406	0.413703	0.098536
	H101	H	0.592619	0.587618	0.875348
	H102	H	0.413993	0.576811	0.098450
	H103	H	0.410374	0.411373	0.875639
	H104	H	0.112213	0.583764	0.404241
	H105	H	0.890605	0.586229	0.574823
	H106	H	0.117765	0.408306	0.582597
	H107	H	0.885897	0.403635	0.396050
	H108	H	0.915148	0.611702	0.075061
	H109	H	0.086629	0.386815	0.076671
	H110	H	0.100256	0.615217	0.898586
	H111	H	0.907253	0.383354	0.899805
	H112	H	0.095072	0.917086	0.601365
	H113	H	0.092420	0.091765	0.374784
	H114	H	0.909215	0.087334	0.604122
	H115	H	0.911985	0.915334	0.378126
	H116	H	0.616030	0.088691	0.901024
	H117	H	0.388751	0.089070	0.077533
	H118	H	0.614845	0.904116	0.070583
	H119	H	0.393909	0.913189	0.909952
	C120	C	0.381932	0.006601	0.610940
	C121	C	0.624103	0.989450	0.611775
	C122	C	0.623214	0.006542	0.369320
	C123	C	0.381437	0.989675	0.368320
	C124	C	0.624260	0.377309	-0.004060
	C125	C	0.624220	0.619862	0.980769
	C126	C	0.381263	0.619410	-0.002433
	C127	C	0.380382	0.376489	0.980481
	C128	C	0.010664	0.620675	0.366764
	C129	C	0.994647	0.619549	0.609381
	C130	C	0.010872	0.377128	0.610388
	C131	C	0.994220	0.378583	0.367711
	C132	C	0.882011	0.507173	0.108675
	C133	C	0.124048	0.489675	0.110502
	C134	C	0.123493	0.506803	0.866943
	C135	C	0.880177	0.490325	0.865500
	C136	C	0.123731	0.877880	0.497935
	C137	C	0.125420	0.121298	0.480745
	C138	C	0.881298	0.119735	0.497687
	C139	C	0.880595	0.876973	0.481143
	C140	C	0.510891	0.119554	0.868141
	C141	C	0.494422	0.119714	0.111362
	C142	C	0.511691	0.876137	0.112006
	C143	C	0.495413	0.877214	0.868823
	C144	C	0.379850	0.886335	0.670116
	C145	C	0.626068	0.109903	0.670327
	C146	C	0.624887	0.886285	0.310220
	C147	C	0.379549	0.109441	0.307214
	C148	C	0.682333	0.375608	0.876134
	C149	C	0.684720	0.620887	0.100027
	C150	C	0.322885	0.620241	0.876961
	C151	C	0.321934	0.375704	0.100697
	C152	C	0.890159	0.678915	0.365590
	C153	C	0.114280	0.679757	0.611497
	C154	C	0.890529	0.317692	0.610677
	C155	C	0.114377	0.319777	0.367375
	C156	C	0.890615	0.375153	0.668684
	C157	C	0.114318	0.622235	0.669522
	C158	C	0.890627	0.622414	0.306793
	C159	C	0.114299	0.377086	0.309132
	C160	C	0.380453	0.678909	0.877695
	C161	C	0.626091	0.677383	0.101390
	C162	C	0.624195	0.317613	0.876646
	C163	C	0.379796	0.317716	0.100714
	C164	C	0.681534	0.885933	0.369012
	C165	C	0.684796	0.109230	0.613941
	C166	C	0.322665	0.886231	0.611515
	C167	C	0.322028	0.109797	0.365009
	C168	C	0.879174	0.387348	0.168988
	C169	C	0.128094	0.609623	0.170263
	C170	C	0.124285	0.386199	0.808306
	C171	C	0.878458	0.610125	0.804920
	C172	C	0.183593	0.875965	0.378404
	C173	C	0.185696	0.123622	0.600426
	C174	C	0.820937	0.121243	0.378182
	C175	C	0.821340	0.873228	0.600743
	C176	C	0.391783	0.180072	0.864271
	C177	C	0.613907	0.180634	0.113630
	C178	C	0.391775	0.816063	0.113128
	C179	C	0.614983	0.817159	0.867197
	C180	C	0.392261	0.872673	0.171635
	C181	C	0.614233	0.122590	0.170901
	C182	C	0.392091	0.122713	0.806314
	C183	C	0.614993	0.874787	0.809100
	C184	C	0.879458	0.178456	0.377303
	C185	C	0.126944	0.180369	0.600805
	C186	C	0.126125	0.818100	0.378248
	C187	C	0.879867	0.816259	0.600387
	C188	C	0.181672	0.385834	0.865951
	C189	C	0.184500	0.609567	0.111342
	C190	C	0.822212	0.387074	0.110305
	C191	C	0.820334	0.610176	0.861906
	C192	C	0.407317	0.090345	0.586112
	C193	C	0.598784	0.905708	0.586947
	C194	C	0.598858	0.090651	0.393628
	C195	C	0.405961	0.906380	0.393885
	C196	C	0.599904	0.402618	0.079478
	C197	C	0.598758	0.595685	0.897240
	C198	C	0.405972	0.594475	0.080878
	C199	C	0.404717	0.401010	0.897031
	C200	C	0.094136	0.596047	0.391928
	C201	C	0.911237	0.593974	0.584043
	C202	C	0.094554	0.402205	0.586722
	C203	C	0.910043	0.402559	0.391345
	C204	C	0.907604	0.590615	0.083515
	C205	C	0.098561	0.406009	0.085941
	C206	C	0.099493	0.590513	0.891138
	C207	C	0.905161	0.407058	0.891260
	C208	C	0.098641	0.902894	0.580803
	C209	C	0.100232	0.096748	0.397472
	C210	C	0.906778	0.094932	0.581003
	C211	C	0.904942	0.902858	0.398148
	C212	C	0.594187	0.094466	0.893803
	C213	C	0.411066	0.093971	0.085981
	C214	C	0.595145	0.901543	0.087813
	C215	C	0.412078	0.902340	0.893403
	Zn216	Zn	0.503298	-0.001889	0.739853
	Zn217	Zn	0.503296	-0.001871	0.239817
	Zn218	Zn	0.753069	0.499258	-0.012747
	Zn219	Zn	0.251410	0.497605	-0.011812
	Zn220	Zn	0.002291	0.749127	0.488523
	Zn221	Zn	0.002747	0.248875	0.488841
	Zn222	Zn	0.002239	0.498748	0.738522
	Zn223	Zn	0.002269	0.499284	0.238366
	Zn224	Zn	0.503611	0.748591	-0.009534
	Zn225	Zn	0.502316	0.247916	-0.010304
	Zn226	Zn	0.752238	-0.001899	0.490192
	Zn227	Zn	0.252760	-0.001251	0.489717
	N228	N	0.415948	0.962288	0.669723
	N229	N	0.589146	0.034395	0.668967
	N230	N	0.589425	0.962456	0.310461
	N231	N	0.415742	0.033762	0.308884
	N232	N	0.682386	0.411867	0.951529
	N233	N	0.683787	0.586162	0.023969
	N234	N	0.323186	0.584014	0.952616
	N235	N	0.322196	0.411257	0.024812
	N236	N	0.965995	0.678322	0.401969
	N237	N	0.038841	0.678003	0.574729
	N238	N	0.966293	0.318682	0.575302
	N239	N	0.038580	0.320512	0.403066
	N240	N	0.966457	0.411366	0.668562
	N241	N	0.038821	0.585342	0.668096
	N242	N	0.966663	0.587204	0.307293
	N243	N	0.038619	0.412984	0.309393
	N244	N	0.415631	0.678733	0.953708
	N245	N	0.589193	0.677042	0.026057
	N246	N	0.588691	0.318693	0.952402
	N247	N	0.415198	0.317875	0.025015
	N248	N	0.680576	0.961732	0.404941
	N249	N	0.683763	0.033132	0.578356
	N250	N	0.323835	0.962211	0.575526
	N251	N	0.322912	0.034429	0.402247
	N252	N	0.915936	0.463037	0.167905
	N253	N	0.091081	0.533980	0.169758
	N254	N	0.088763	0.462290	0.808682
	N255	N	0.914996	0.534493	0.807074
	N256	N	0.182230	0.912456	0.453653
	N257	N	0.184931	0.087669	0.524785
	N258	N	0.821733	0.085721	0.454139
	N259	N	0.821668	0.910159	0.525513
	N260	N	0.466676	0.178295	0.902276
	N261	N	0.538104	0.179076	0.077294
	N262	N	0.467121	0.818162	0.076812
	N263	N	0.539706	0.818683	0.903691
	N264	N	0.467815	0.909288	0.171127
	N265	N	0.539040	0.085171	0.169445
	N266	N	0.467273	0.085994	0.808617
	N267	N	0.539581	0.911685	0.810160
	N268	N	0.916178	0.177847	0.452706
	N269	N	0.090274	0.179332	0.525417
	N270	N	0.089528	0.819079	0.453464
	N271	N	0.915827	0.818377	0.525023
	N272	N	0.181412	0.461749	0.901709
	N273	N	0.182057	0.534071	0.074974
	N274	N	0.824064	0.462544	0.073351
	N275	N	0.821256	0.534719	0.898783
	O276	O	0.396896	0.541230	0.469046
	H277	H	0.392400	0.529016	0.461879
	H278	H	0.384195	0.551180	0.486401
	O279	O	0.498742	0.596391	0.555807
	H280	H	0.491433	0.619012	0.546800
	H281	H	0.494366	0.592125	0.541719
	O282	O	0.533477	0.519073	0.597264
	H283	H	0.540806	0.511980	0.602233
	H284	H	0.523974	0.516054	0.597919
	O285	O	0.978537	-0.045991	-0.188308
	H286	H	0.989912	-0.036159	-0.183251
	H287	H	0.970780	-0.041115	-0.184482
	O288	O	0.018837	-0.184870	1.102030
	H289	H	0.006882	-0.182991	1.086843
	H290	H	0.015696	-0.200037	1.103080
	O291	O	0.409827	0.392171	0.601690
	H292	H	0.420878	0.375212	0.598508
	H293	H	0.411399	0.388234	0.614661
	O294	O	0.359766	0.358287	0.633368
	H295	H	0.360468	0.356485	0.614232
	H296	H	0.368827	0.365398	0.639985
	O297	O	1.108533	1.002152	1.129917
	H298	H	1.120264	0.986972	1.124735
	H299	H	1.109766	0.980992	1.120234
	O300	O	-0.156564	-0.062881	-0.158826
	H301	H	-0.161413	-0.066239	-0.168275
	H302	H	-0.148597	-0.051228	-0.162095
	O303	O	0.420189	0.623848	0.530459
	H304	H	0.418576	0.616605	0.552525
	H305	H	0.421828	0.630401	0.515807
	O306	O	0.847313	0.171471	-0.191299
	H307	H	0.851795	0.178918	-0.175649
	H308	H	0.859923	0.150077	-0.186510
	O309	O	0.568143	0.601501	0.447965
	H310	H	0.549175	0.598735	0.454886
	H311	H	0.556172	0.616203	0.427570
	O312	O	0.803326	1.200911	-0.029532
	H313	H	0.797708	1.202401	-0.034188
	H314	H	0.808514	1.205965	-0.041616
	O315	O	0.361622	0.474497	0.420627
	H316	H	0.362854	0.468555	0.429897
	H317	H	0.358578	0.456993	0.417328
	O318	O	0.578733	0.382467	0.464914
	H319	H	0.589238	0.372503	0.451001
	H320	H	0.587708	0.383634	0.460496
	O321	O	1.218490	-0.199919	0.968919
	H322	H	1.236224	-0.225090	0.962827
	H323	H	1.215528	-0.197063	0.933764
	O324	O	-0.052434	0.071562	0.967550
	H325	H	-0.040480	0.058515	0.966209
	H326	H	-0.043706	0.089026	0.982464
	O327	O	0.472400	0.461417	0.631048
	H328	H	0.473568	0.472847	0.645823
	H329	H	0.487747	0.458688	0.619485
	O330	O	0.507147	0.638420	0.523144
	H331	H	0.501329	0.643232	0.533466
	H332	H	0.510493	0.618992	0.516475
	O333	O	1.208870	0.975939	0.788075
	H334	H	1.235436	0.985023	0.782872
	H335	H	1.204198	1.004741	0.804582
	O336	O	0.625997	0.482662	0.658178
	H337	H	0.620432	0.493687	0.651652
	H338	H	0.645760	0.482237	0.661839
	O339	O	1.167896	-0.053583	1.043977
	H340	H	1.163954	-0.055030	1.033670
	H341	H	1.167676	-0.071447	1.027985
	O342	O	0.030812	1.171784	0.854768
	H343	H	0.030972	1.181556	0.848402
	H344	H	0.040020	1.185653	0.868623
	O345	O	-0.136161	1.029794	1.106789
	H346	H	-0.142676	1.034118	1.089804
	H347	H	-0.126360	1.028678	1.113335
	O348	O	0.484304	0.410741	0.309254
	H349	H	0.494773	0.419890	0.319789
	H350	H	0.482910	0.419323	0.318037
	O351	O	0.038681	0.103913	-0.063414
	H352	H	0.038242	0.097264	-0.053815
	H353	H	0.037800	0.107754	-0.054444
	O354	O	0.825239	0.956793	-0.046259
	H355	H	0.825195	0.953831	-0.047731
	H356	H	0.818857	0.953424	-0.060147
	O357	O	-0.013764	0.852319	-0.175235
	H358	H	-0.007193	0.861912	-0.168359
	H359	H	-0.001569	0.842368	-0.186322
	O360	O	0.500713	0.499285	0.465736
	H361	H	0.513580	0.485375	0.468998
	H362	H	0.514246	0.508971	0.448532
	O363	O	0.619602	0.358277	0.443065
	H364	H	0.633458	0.336832	0.451207
	H365	H	0.612332	0.361938	0.417919
	O366	O	0.663923	0.645515	0.612570
	H367	H	0.670395	0.652482	0.596285
	H368	H	0.667427	0.645175	0.616318
	O369	O	0.354691	0.592186	0.417432
	H370	H	0.342500	0.572521	0.410598
	H371	H	0.358922	0.577666	0.422018
	O372	O	0.393459	0.566017	0.459039
	H373	H	0.390279	0.553017	0.466426
	H374	H	0.395449	0.578177	0.470314
	O375	O	0.544801	0.511517	0.354743
	H376	H	0.541604	0.518192	0.366663
	H377	H	0.539191	0.521351	0.355722
	O378	O	0.537136	0.382462	0.345998
	H379	H	0.549387	0.375617	0.335502
	H380	H	0.534418	0.387205	0.338198
	O381	O	0.601434	0.427870	0.334619
	H382	H	0.588155	0.423151	0.326782
	H383	H	0.606657	0.444222	0.325323
	O384	O	0.081433	1.096251	0.841461
	H385	H	0.073111	1.091523	0.848913
	H386	H	0.086194	1.104529	0.840780
	O387	O	0.905977	0.856331	0.169604
	H388	H	0.907203	0.832992	0.165839
	H389	H	0.923320	0.853848	0.148404
	O390	O	0.376969	0.338965	0.593469
	H391	H	0.368502	0.316608	0.607360
	H392	H	0.380938	0.333288	0.588275
	O393	O	0.839069	-0.129829	1.142322
	H394	H	0.835781	-0.101777	1.148883
	H395	H	0.864524	-0.151534	1.148127
	O396	O	-0.076481	0.929773	0.964694
	H397	H	-0.075261	0.924344	0.956420
	H398	H	-0.090026	0.933869	0.966562
	O399	O	0.184239	0.816421	0.800155
	H400	H	0.174941	0.819579	0.792556
	H401	H	0.195041	0.858773	0.791513
	O402	O	1.038477	-0.040714	1.192005
	H403	H	1.052095	-0.043826	1.183698
	H404	H	1.029724	-0.067936	1.202397
	O405	O	0.161934	0.190999	0.161831
	H406	H	0.177141	0.175097	0.182159
	H407	H	0.130209	0.182454	0.162928
	O408	O	1.437395	1.518564	1.375676
	H409	H	1.433773	1.516849	1.371564
	H410	H	1.431419	1.525667	1.385531
	O411	O	1.068721	0.857849	0.029700
	H412	H	1.069987	0.852780	0.016950
	H413	H	1.060089	0.861851	0.023241
	O414	O	0.194843	0.203099	1.028488
	H415	H	0.201168	0.220042	1.046915
	H416	H	0.194359	0.202839	1.049616
	O417	O	0.044066	0.124174	0.977843
	H418	H	0.028357	0.111270	0.985387
	H419	H	0.049918	0.144297	0.976655
	O420	O	-0.194161	0.809687	0.049171
	H421	H	-0.190967	0.816340	0.052653
	H422	H	-0.206778	0.800877	0.050929
	O423	O	1.020106	0.102954	0.183496
	H424	H	1.015846	0.099267	0.195144
	H425	H	1.018128	0.092982	0.168986
	O426	O	-0.038577	0.102284	1.051620
	H427	H	-0.040210	0.095811	1.059008
	H428	H	-0.025296	0.100115	1.063227
	O429	O	0.580758	0.401433	0.465677
	H430	H	0.588978	0.404784	0.469859
	H431	H	0.585213	0.399892	0.461155
