data_Molecule from HDF5

_cell_length_a		16.308382
_cell_length_b		16.227791
_cell_length_c		16.359820
_cell_angle_alpha	90.146886
_cell_angle_beta	89.758550
_cell_angle_gamma	89.999594
_symmetry_space_group_name_H-M	'P 1'
_symmetry_Int_Tables_number		1

loop_
	_symmetry_equiv_pos_as_xyz
	x,y,z

loop_
	_atom_site_label
	_atom_site_type_symbol
	_atom_site_fract_x
	_atom_site_fract_y
	_atom_site_fract_z
	H0	H	0.397006	0.837636	0.718643
	H1	H	0.594439	0.165898	0.719932
	H2	H	0.596356	0.839211	0.288998
	H3	H	0.396599	0.166360	0.292116
	H4	H	0.713178	0.402298	0.842730
	H5	H	0.712113	0.603969	0.168001
	H6	H	0.283258	0.600304	0.841613
	H7	H	0.278983	0.403100	0.167097
	H8	H	0.832279	0.716747	0.408533
	H9	H	0.159012	0.717093	0.602263
	H10	H	0.831699	0.289590	0.603746
	H11	H	0.159409	0.288613	0.405655
	H12	H	0.833748	0.402576	0.722920
	H13	H	0.158745	0.603435	0.719715
	H14	H	0.833947	0.605358	0.289046
	H15	H	0.158651	0.402794	0.287728
	H16	H	0.399234	0.716639	0.842122
	H17	H	0.593477	0.718515	0.168485
	H18	H	0.596459	0.285931	0.842887
	H19	H	0.397507	0.289557	0.169084
	H20	H	0.711138	0.838709	0.405624
	H21	H	0.709967	0.166574	0.605340
	H22	H	0.281218	0.838000	0.603195
	H23	H	0.283307	0.166797	0.408998
	H24	H	0.894756	0.340173	0.221827
	H25	H	0.095771	0.667210	0.219512
	H26	H	0.096355	0.340079	0.789033
	H27	H	0.898905	0.666957	0.792759
	H28	H	0.211291	0.903456	0.342444
	H29	H	0.210078	0.102587	0.668739
	H30	H	0.779595	0.102564	0.343239
	H31	H	0.779821	0.903944	0.668140
	H32	H	0.332268	0.215822	0.909617
	H33	H	0.659523	0.217514	0.103127
	H34	H	0.332537	0.789685	0.103178
	H35	H	0.659299	0.788721	0.907014
	H36	H	0.333197	0.903308	0.221407
	H37	H	0.658509	0.104084	0.222306
	H38	H	0.332548	0.101547	0.791391
	H39	H	0.658811	0.902130	0.788506
	H40	H	0.897962	0.217302	0.342027
	H41	H	0.090948	0.217689	0.668829
	H42	H	0.095106	0.787329	0.342474
	H43	H	0.896991	0.789202	0.668717
	H44	H	0.209678	0.338455	0.906438
	H45	H	0.210321	0.666824	0.102171
	H46	H	0.781100	0.339515	0.104909
	H47	H	0.782817	0.666983	0.907055
	H48	H	0.402935	0.120393	0.602673
	H49	H	0.591409	0.884811	0.598024
	H50	H	0.585611	0.120238	0.406047
	H51	H	0.400633	0.883934	0.409587
	H52	H	0.581302	0.407329	0.119294
	H53	H	0.590522	0.598554	0.888417
	H54	H	0.398044	0.591319	0.121022
	H55	H	0.398641	0.409379	0.888592
	H56	H	0.112503	0.595163	0.411758
	H57	H	0.880956	0.587002	0.602659
	H58	H	0.111823	0.409186	0.597260
	H59	H	0.881441	0.416164	0.411035
	H60	H	0.111257	0.412297	0.596614
	H61	H	0.875879	0.601898	0.606190
	H62	H	0.112229	0.595620	0.410407
	H63	H	0.878434	0.407852	0.409295
	H64	H	0.407273	0.595650	0.119020
	H65	H	0.593323	0.591846	0.890263
	H66	H	0.595396	0.407050	0.123783
	H67	H	0.405956	0.412934	0.891183
	H68	H	0.581297	0.116108	0.418970
	H69	H	0.586932	0.884462	0.600385
	H70	H	0.405819	0.117585	0.598118
	H71	H	0.407600	0.886315	0.410570
	H72	H	0.907792	0.619266	0.099844
	H73	H	0.082267	0.389172	0.096277
	H74	H	0.092391	0.619727	0.916589
	H75	H	0.910381	0.385677	0.905686
	H76	H	0.086972	0.913428	0.619294
	H77	H	0.083235	0.101466	0.390244
	H78	H	0.907021	0.099381	0.620448
	H79	H	0.903449	0.907283	0.388956
	H80	H	0.611446	0.095561	0.911348
	H81	H	0.381457	0.088674	0.099128
	H82	H	0.610627	0.916599	0.098465
	H83	H	0.379288	0.917321	0.904424
	H84	H	0.614171	0.908935	0.102610
	H85	H	0.377724	0.098031	0.106287
	H86	H	0.611957	0.094237	0.912137
	H87	H	0.376445	0.899746	0.909046
	H88	H	0.896632	0.098515	0.622749
	H89	H	0.098943	0.097566	0.385912
	H90	H	0.086103	0.905755	0.621835
	H91	H	0.901034	0.911038	0.389962
	H92	H	0.094960	0.622541	0.907121
	H93	H	0.091374	0.386970	0.092864
	H94	H	0.903892	0.618513	0.094152
	H95	H	0.908304	0.389507	0.920513
	H96	H	0.399626	0.118787	0.597721
	H97	H	0.587048	0.886900	0.595388
	H98	H	0.595131	0.119627	0.416909
	H99	H	0.402013	0.886576	0.417292
	H100	H	0.589198	0.419062	0.117812
	H101	H	0.586063	0.593024	0.891433
	H102	H	0.399597	0.601384	0.123360
	H103	H	0.405391	0.404877	0.888039
	H104	H	0.112511	0.596144	0.411680
	H105	H	0.880559	0.598705	0.591355
	H106	H	0.112181	0.411581	0.599081
	H107	H	0.880970	0.409976	0.416817
	H108	H	0.901342	0.621475	0.099566
	H109	H	0.088700	0.384844	0.102503
	H110	H	0.085372	0.619927	0.909237
	H111	H	0.896263	0.383740	0.912766
	H112	H	0.093063	0.909151	0.622969
	H113	H	0.088696	0.086414	0.393338
	H114	H	0.902233	0.090164	0.618775
	H115	H	0.905536	0.910821	0.390720
	H116	H	0.612373	0.093434	0.910673
	H117	H	0.380554	0.099790	0.094738
	H118	H	0.612068	0.908170	0.093687
	H119	H	0.382852	0.911916	0.921257
	C120	C	0.373723	0.010572	0.627636
	C121	C	0.617235	0.993844	0.627028
	C122	C	0.617014	0.010713	0.384240
	C123	C	0.374584	0.994002	0.384332
	C124	C	0.618582	0.381045	0.013279
	C125	C	0.618284	0.624536	0.997363
	C126	C	0.373966	0.624465	0.013340
	C127	C	0.374211	0.380885	0.996973
	C128	C	0.004385	0.624600	0.383512
	C129	C	0.987173	0.624843	0.627516
	C130	C	0.004086	0.382008	0.626756
	C131	C	0.987848	0.381981	0.383137
	C132	C	0.875044	0.511662	0.126875
	C133	C	0.116793	0.494947	0.125504
	C134	C	0.118701	0.512000	0.882739
	C135	C	0.875796	0.494445	0.884233
	C136	C	0.117462	0.880822	0.513619
	C137	C	0.117900	0.124842	0.497293
	C138	C	0.873468	0.124866	0.513568
	C139	C	0.874082	0.880981	0.497166
	C140	C	0.504063	0.123153	0.884151
	C141	C	0.487460	0.124332	0.127994
	C142	C	0.504316	0.882425	0.126454
	C143	C	0.487382	0.880930	0.882956
	C144	C	0.376198	0.886848	0.681497
	C145	C	0.614811	0.116996	0.682431
	C146	C	0.616139	0.888070	0.327502
	C147	C	0.376825	0.117374	0.329788
	C148	C	0.674658	0.382523	0.891260
	C149	C	0.673833	0.623819	0.119398
	C150	C	0.320308	0.621337	0.890511
	C151	C	0.317890	0.383129	0.119062
	C152	C	0.881398	0.679570	0.387439
	C153	C	0.110355	0.679456	0.623352
	C154	C	0.880909	0.327159	0.624239
	C155	C	0.110374	0.326276	0.384976
	C156	C	0.881961	0.383135	0.683560
	C157	C	0.109973	0.623007	0.681771
	C158	C	0.882049	0.623922	0.328069
	C159	C	0.110312	0.383288	0.326713
	C160	C	0.377925	0.679216	0.890944
	C161	C	0.615034	0.680893	0.119691
	C162	C	0.616501	0.324794	0.891220
	C163	C	0.376965	0.326870	0.119807
	C164	C	0.672912	0.887754	0.385694
	C165	C	0.672245	0.117371	0.625338
	C166	C	0.318526	0.887143	0.624259
	C167	C	0.320654	0.117673	0.388241
	C168	C	0.875538	0.388927	0.183440
	C169	C	0.115381	0.618335	0.180809
	C170	C	0.116338	0.388686	0.827583
	C171	C	0.878130	0.617983	0.829918
	C172	C	0.173293	0.883008	0.391147
	C173	C	0.172286	0.123087	0.619944
	C174	C	0.818451	0.122426	0.391180
	C175	C	0.818177	0.883643	0.619684
	C176	C	0.381033	0.178254	0.888121
	C177	C	0.610720	0.179792	0.124440
	C178	C	0.381336	0.827158	0.123975
	C179	C	0.610528	0.826049	0.885948
	C180	C	0.381651	0.883456	0.182593
	C181	C	0.610275	0.123365	0.183369
	C182	C	0.381261	0.121282	0.829443
	C183	C	0.610274	0.882585	0.827290
	C184	C	0.876789	0.179981	0.390848
	C185	C	0.113699	0.180662	0.619888
	C186	C	0.115178	0.825586	0.391040
	C187	C	0.876289	0.826506	0.619889
	C188	C	0.172861	0.387990	0.885534
	C189	C	0.172346	0.618144	0.122689
	C190	C	0.819031	0.388438	0.125189
	C191	C	0.820618	0.617954	0.886976
	C192	C	0.396101	0.096776	0.605871
	C193	C	0.595124	0.907575	0.604406
	C194	C	0.594042	0.096524	0.407180
	C195	C	0.397000	0.907661	0.406038
	C196	C	0.595379	0.404320	0.098421
	C197	C	0.596450	0.601365	0.912143
	C198	C	0.395201	0.602610	0.099149
	C199	C	0.396727	0.402676	0.911238
	C200	C	0.090116	0.602125	0.404867
	C201	C	0.901436	0.602418	0.606335
	C202	C	0.089626	0.404488	0.604244
	C203	C	0.902403	0.404756	0.405719
	C204	C	0.897683	0.597400	0.104358
	C205	C	0.094145	0.409117	0.103685
	C206	C	0.097177	0.598438	0.904523
	C207	C	0.898409	0.408367	0.906243
	C208	C	0.095318	0.903074	0.599166
	C209	C	0.096633	0.101969	0.411965
	C210	C	0.895499	0.102588	0.598688
	C211	C	0.896538	0.903246	0.411993
	C212	C	0.589617	0.101126	0.905252
	C213	C	0.402052	0.101978	0.106561
	C214	C	0.589967	0.904741	0.104656
	C215	C	0.401690	0.903092	0.904997
	Zn216	Zn	0.495732	0.001954	0.754487
	Zn217	Zn	0.495915	0.002910	0.256066
	Zn218	Zn	0.747683	0.503208	0.005534
	Zn219	Zn	0.245713	0.502482	0.004680
	Zn220	Zn	-0.004278	0.752678	0.505573
	Zn221	Zn	-0.004395	0.253863	0.505214
	Zn222	Zn	-0.003496	0.503203	0.755606
	Zn223	Zn	-0.003734	0.503705	0.254748
	Zn224	Zn	0.495942	0.753379	0.005216
	Zn225	Zn	0.496177	0.252320	0.005581
	Zn226	Zn	0.745116	0.002558	0.505396
	Zn227	Zn	0.246458	0.002581	0.505753
	N228	N	0.409653	0.964754	0.683868
	N229	N	0.581428	0.039203	0.683578
	N230	N	0.581879	0.965565	0.326799
	N231	N	0.409992	0.039430	0.327592
	N232	N	0.676033	0.416797	0.968258
	N233	N	0.675914	0.589568	0.042347
	N234	N	0.317817	0.587765	0.967684
	N235	N	0.315976	0.416028	0.041637
	N236	N	0.958403	0.679876	0.421411
	N237	N	0.032903	0.680693	0.590233
	N238	N	0.957886	0.326258	0.589564
	N239	N	0.033377	0.325562	0.419597
	N240	N	0.959569	0.416519	0.685228
	N241	N	0.032486	0.589878	0.684567
	N242	N	0.959659	0.590464	0.325472
	N243	N	0.032803	0.417018	0.325283
	N244	N	0.410460	0.681324	0.968407
	N245	N	0.581213	0.681515	0.042748
	N246	N	0.582431	0.323704	0.968216
	N247	N	0.411289	0.325447	0.042786
	N248	N	0.673373	0.965054	0.420467
	N249	N	0.673649	0.039726	0.591220
	N250	N	0.316919	0.965138	0.591506
	N251	N	0.319076	0.039812	0.421300
	N252	N	0.909524	0.466601	0.184827
	N253	N	0.081418	0.540872	0.182617
	N254	N	0.083366	0.466611	0.825770
	N255	N	0.911935	0.540122	0.828338
	N256	N	0.174738	0.916825	0.468373
	N257	N	0.174849	0.089106	0.542918
	N258	N	0.816236	0.089049	0.468272
	N259	N	0.816483	0.916963	0.542318
	N260	N	0.458277	0.179545	0.921493
	N261	N	0.533564	0.180847	0.090870
	N262	N	0.458562	0.826372	0.089847
	N263	N	0.533196	0.825047	0.919949
	N264	N	0.458912	0.917349	0.184283
	N265	N	0.532716	0.089936	0.186004
	N266	N	0.458719	0.087776	0.826786
	N267	N	0.532697	0.915838	0.825316
	N268	N	0.910531	0.181473	0.467935
	N269	N	0.080459	0.181758	0.542601
	N270	N	0.081417	0.824048	0.468284
	N271	N	0.910171	0.824727	0.542889
	N272	N	0.174370	0.465781	0.919370
	N273	N	0.173243	0.540467	0.088884
	N274	N	0.818667	0.465693	0.090822
	N275	N	0.819071	0.540155	0.920097
	O276	O	0.531416	0.469832	0.562803
	H277	H	0.520212	0.471898	0.564328
	H278	H	0.536403	0.468578	0.569499
	O279	O	0.523557	0.502339	0.524772
	H280	H	0.531056	0.511150	0.519766
	H281	H	0.525579	0.507119	0.525362
	O282	O	0.517265	0.483092	0.514601
	H283	H	0.510840	0.482823	0.512940
	H284	H	0.522212	0.479039	0.511977
	O285	O	-0.000168	0.957476	1.012205
	H286	H	0.005563	0.957557	1.018154
	H287	H	-0.004937	0.955424	1.016186
	O288	O	0.487041	0.553184	0.497279
	H289	H	0.489786	0.551458	0.491209
	H290	H	0.488204	0.546247	0.501992
	O291	O	-0.024927	0.034648	0.984470
	H292	H	-0.026405	0.030429	0.979445
	H293	H	-0.014986	0.038454	0.987200
	O294	O	0.450239	0.450825	0.468054
	H295	H	0.447196	0.447897	0.461146
	H296	H	0.459458	0.441769	0.455425
	O297	O	0.564918	0.461700	0.434086
	H298	H	0.575213	0.468728	0.438345
	H299	H	0.572610	0.469926	0.445757
	O300	O	0.534756	0.490881	0.491146
	H301	H	0.531345	0.480049	0.497498
	H302	H	0.528039	0.485912	0.496784
	O303	O	0.438052	0.479073	0.523252
	H304	H	0.427384	0.468334	0.532389
	H305	H	0.437089	0.476983	0.517073
	O306	O	0.936986	0.026816	1.027346
	H307	H	0.928009	0.027344	1.035844
	H308	H	0.931733	0.030828	1.024922
	O309	O	0.535425	0.423303	0.521844
	H310	H	0.532496	0.408890	0.514767
	H311	H	0.529983	0.419443	0.516529
	O312	O	-0.003702	0.078674	0.014286
	H313	H	-0.002488	0.079222	0.009750
	H314	H	0.000295	0.080747	0.012241
	O315	O	1.010340	0.003637	1.041796
	H316	H	1.011594	0.007141	1.032360
	H317	H	1.012829	0.007899	1.034610
	O318	O	0.008186	0.080451	-0.015568
	H319	H	0.007516	0.075882	-0.014554
	H320	H	0.007392	0.075213	-0.010928
	O321	O	0.491305	0.485002	0.426511
	H322	H	0.492008	0.484609	0.420366
	H323	H	0.491705	0.488322	0.432031
	O324	O	1.011397	-0.022752	-0.074941
	H325	H	0.996269	-0.029176	-0.069054
	H326	H	1.011375	-0.014806	-0.064438
	O327	O	1.058159	1.008042	0.035565
	H328	H	1.061649	1.005715	0.038891
	H329	H	1.060590	1.013302	0.037688
	O330	O	1.047637	1.021969	0.004260
	H331	H	1.044562	1.024358	0.000323
	H332	H	1.052749	1.021348	-0.006181
	O333	O	0.545906	0.445658	0.448730
	H334	H	0.545238	0.462098	0.453452
	H335	H	0.541604	0.450494	0.447096
