data_Molecule from HDF5

_cell_length_a		16.369378
_cell_length_b		16.271472
_cell_length_c		16.331460
_cell_angle_alpha	89.992437
_cell_angle_beta	89.937258
_cell_angle_gamma	90.096545
_symmetry_space_group_name_H-M	'P 1'
_symmetry_Int_Tables_number		1

loop_
	_symmetry_equiv_pos_as_xyz
	x,y,z

loop_
	_atom_site_label
	_atom_site_type_symbol
	_atom_site_fract_x
	_atom_site_fract_y
	_atom_site_fract_z
	H0	H	0.402826	0.838645	0.712428
	H1	H	0.600473	0.165862	0.712493
	H2	H	0.599903	0.838516	0.282762
	H3	H	0.405075	0.166350	0.284168
	H4	H	0.717650	0.401984	0.835072
	H5	H	0.716216	0.601907	0.161274
	H6	H	0.285585	0.602659	0.835498
	H7	H	0.286029	0.403225	0.160518
	H8	H	0.838580	0.717737	0.398750
	H9	H	0.164058	0.717698	0.595445
	H10	H	0.837605	0.288231	0.594534
	H11	H	0.164624	0.287690	0.398271
	H12	H	0.838773	0.402679	0.713566
	H13	H	0.163656	0.602975	0.713334
	H14	H	0.838156	0.600141	0.282762
	H15	H	0.164018	0.403890	0.281709
	H16	H	0.402797	0.716911	0.834244
	H17	H	0.598475	0.716433	0.161254
	H18	H	0.599205	0.288764	0.834049
	H19	H	0.402956	0.288278	0.160667
	H20	H	0.716782	0.838613	0.398856
	H21	H	0.716886	0.166185	0.596911
	H22	H	0.285577	0.839702	0.597240
	H23	H	0.286513	0.165740	0.398384
	H24	H	0.902737	0.338530	0.211894
	H25	H	0.099279	0.665803	0.212503
	H26	H	0.099656	0.338567	0.783199
	H27	H	0.903499	0.666071	0.782620
	H28	H	0.217729	0.902761	0.335285
	H29	H	0.216680	0.102555	0.660336
	H30	H	0.786826	0.101551	0.334633
	H31	H	0.785626	0.902483	0.660255
	H32	H	0.337636	0.216191	0.900593
	H33	H	0.664066	0.218940	0.096347
	H34	H	0.338087	0.788378	0.095202
	H35	H	0.664814	0.788285	0.899231
	H36	H	0.338136	0.903889	0.212688
	H37	H	0.664109	0.102005	0.212966
	H38	H	0.338379	0.100640	0.783505
	H39	H	0.663427	0.903250	0.780623
	H40	H	0.904927	0.215327	0.333397
	H41	H	0.099227	0.217390	0.660001
	H42	H	0.099006	0.788911	0.333815
	H43	H	0.902410	0.787407	0.660087
	H44	H	0.215958	0.339203	0.899147
	H45	H	0.215300	0.666620	0.095696
	H46	H	0.785833	0.339048	0.096788
	H47	H	0.785846	0.665690	0.897678
	H48	H	0.411328	0.117748	0.587955
	H49	H	0.596131	0.887160	0.585860
	H50	H	0.594826	0.119696	0.400145
	H51	H	0.401459	0.885109	0.410523
	H52	H	0.601958	0.411308	0.114949
	H53	H	0.599943	0.601963	0.879043
	H54	H	0.411500	0.595628	0.112129
	H55	H	0.408492	0.408839	0.881158
	H56	H	0.120598	0.602794	0.397753
	H57	H	0.882530	0.595696	0.600088
	H58	H	0.120532	0.405929	0.601017
	H59	H	0.884242	0.402238	0.405320
	H60	H	0.116662	0.402166	0.580504
	H61	H	0.885993	0.602250	0.584827
	H62	H	0.113756	0.597241	0.414783
	H63	H	0.888765	0.412456	0.410130
	H64	H	0.405938	0.598509	0.115320
	H65	H	0.598159	0.586024	0.883880
	H66	H	0.589564	0.416606	0.110431
	H67	H	0.406326	0.408515	0.881000
	H68	H	0.591297	0.116364	0.406648
	H69	H	0.595400	0.884960	0.593509
	H70	H	0.406450	0.119093	0.589081
	H71	H	0.407794	0.883769	0.396401
	H72	H	0.910523	0.613999	0.078643
	H73	H	0.092786	0.386731	0.088760
	H74	H	0.098396	0.619432	0.907303
	H75	H	0.906495	0.388187	0.911487
	H76	H	0.097607	0.904150	0.615885
	H77	H	0.088170	0.090807	0.384255
	H78	H	0.903240	0.088341	0.612065
	H79	H	0.914373	0.901231	0.380707
	H80	H	0.615964	0.099590	0.910769
	H81	H	0.392866	0.084108	0.081593
	H82	H	0.617373	0.913638	0.093739
	H83	H	0.385219	0.903740	0.907444
	H84	H	0.618256	0.905356	0.092088
	H85	H	0.382132	0.091962	0.107446
	H86	H	0.614617	0.089176	0.904093
	H87	H	0.388520	0.915067	0.908406
	H88	H	0.915766	0.096612	0.611711
	H89	H	0.094520	0.101761	0.379389
	H90	H	0.097502	0.916844	0.612403
	H91	H	0.898184	0.910154	0.378345
	H92	H	0.094955	0.620458	0.900708
	H93	H	0.096275	0.385096	0.089711
	H94	H	0.898119	0.622493	0.092914
	H95	H	0.905325	0.384143	0.901793
	H96	H	0.410085	0.119044	0.592984
	H97	H	0.589211	0.888209	0.589463
	H98	H	0.599211	0.119022	0.407186
	H99	H	0.416080	0.889634	0.407967
	H100	H	0.591034	0.403116	0.114015
	H101	H	0.585179	0.596751	0.884481
	H102	H	0.405936	0.592250	0.113533
	H103	H	0.406980	0.410623	0.881246
	H104	H	0.114504	0.584619	0.400624
	H105	H	0.889440	0.585731	0.587320
	H106	H	0.112578	0.421046	0.589011
	H107	H	0.884894	0.412236	0.398146
	H108	H	0.917633	0.618555	0.097455
	H109	H	0.093329	0.386240	0.091853
	H110	H	0.090901	0.617387	0.906771
	H111	H	0.914377	0.388294	0.904695
	H112	H	0.086336	0.909925	0.611353
	H113	H	0.101269	0.090192	0.380917
	H114	H	0.903172	0.102562	0.617710
	H115	H	0.912931	0.919515	0.385774
	H116	H	0.619108	0.099446	0.898837
	H117	H	0.382808	0.111446	0.085524
	H118	H	0.615013	0.910365	0.086148
	H119	H	0.384542	0.910840	0.897912
	C120	C	0.379829	0.010728	0.619005
	C121	C	0.622735	0.994545	0.618605
	C122	C	0.623564	0.010285	0.375820
	C123	C	0.380050	0.994131	0.376392
	C124	C	0.622565	0.381571	0.005466
	C125	C	0.623378	0.624215	0.989877
	C126	C	0.379559	0.623978	0.005850
	C127	C	0.379155	0.380851	0.989137
	C128	C	0.008920	0.623531	0.375857
	C129	C	0.993081	0.623942	0.619270
	C130	C	0.009158	0.380437	0.619136
	C131	C	0.993632	0.380511	0.375363
	C132	C	0.879610	0.510474	0.118880
	C133	C	0.122598	0.494243	0.118753
	C134	C	0.123223	0.510984	0.875935
	C135	C	0.880203	0.494594	0.876575
	C136	C	0.122600	0.881452	0.505686
	C137	C	0.123162	0.123667	0.488952
	C138	C	0.879845	0.123982	0.505487
	C139	C	0.879559	0.880846	0.489018
	C140	C	0.509250	0.124536	0.876096
	C141	C	0.493151	0.124983	0.119894
	C142	C	0.509593	0.881006	0.119264
	C143	C	0.493318	0.880988	0.875756
	C144	C	0.382258	0.887750	0.674761
	C145	C	0.620836	0.117328	0.674181
	C146	C	0.620832	0.887462	0.320399
	C147	C	0.383457	0.117441	0.321506
	C148	C	0.678719	0.382752	0.883324
	C149	C	0.678733	0.622255	0.112320
	C150	C	0.324242	0.622209	0.883674
	C151	C	0.323947	0.383022	0.111848
	C152	C	0.886938	0.679545	0.378015
	C153	C	0.115377	0.679724	0.616200
	C154	C	0.886679	0.325438	0.616047
	C155	C	0.115822	0.325328	0.377656
	C156	C	0.887073	0.382570	0.674857
	C157	C	0.115381	0.622437	0.674669
	C158	C	0.886768	0.621090	0.320578
	C159	C	0.115684	0.383083	0.319805
	C160	C	0.382527	0.678957	0.883079
	C161	C	0.620108	0.678986	0.112466
	C162	C	0.619818	0.326280	0.882897
	C163	C	0.382217	0.326108	0.112025
	C164	C	0.678578	0.887392	0.378256
	C165	C	0.678610	0.117239	0.616668
	C166	C	0.323868	0.888212	0.617607
	C167	C	0.325042	0.117175	0.378558
	C168	C	0.882516	0.387393	0.173919
	C169	C	0.119642	0.617402	0.173926
	C170	C	0.120558	0.387704	0.820608
	C171	C	0.882804	0.617477	0.820791
	C172	C	0.179143	0.882681	0.383614
	C173	C	0.178460	0.122408	0.611664
	C174	C	0.825198	0.121320	0.382863
	C175	C	0.823673	0.882356	0.611483
	C176	C	0.386278	0.178579	0.879737
	C177	C	0.615690	0.180389	0.116715
	C178	C	0.386724	0.826097	0.116281
	C179	C	0.616008	0.825937	0.878586
	C180	C	0.386763	0.883549	0.174417
	C181	C	0.615749	0.122261	0.174756
	C182	C	0.386862	0.121592	0.821219
	C183	C	0.615531	0.883298	0.819982
	C184	C	0.883252	0.178545	0.382521
	C185	C	0.120216	0.179439	0.611565
	C186	C	0.120165	0.826236	0.382730
	C187	C	0.881630	0.825222	0.611526
	C188	C	0.178340	0.388056	0.878047
	C189	C	0.177690	0.617403	0.116620
	C190	C	0.824049	0.387759	0.117205
	C191	C	0.824616	0.617288	0.878041
	C192	C	0.402567	0.096543	0.596588
	C193	C	0.600118	0.908897	0.596136
	C194	C	0.601545	0.096163	0.398133
	C195	C	0.402069	0.908396	0.398276
	C196	C	0.600509	0.403974	0.091058
	C197	C	0.601235	0.601554	0.904455
	C198	C	0.401361	0.601797	0.091492
	C199	C	0.400978	0.402930	0.903295
	C200	C	0.094340	0.601343	0.397960
	C201	C	0.907837	0.601116	0.597208
	C202	C	0.094568	0.403103	0.596816
	C203	C	0.908044	0.402541	0.397865
	C204	C	0.902249	0.596175	0.096273
	C205	C	0.100650	0.408300	0.096612
	C206	C	0.101276	0.596780	0.898210
	C207	C	0.902370	0.408888	0.899248
	C208	C	0.100339	0.903628	0.590975
	C209	C	0.101317	0.100810	0.403722
	C210	C	0.901208	0.102300	0.591599
	C211	C	0.901883	0.903648	0.403784
	C212	C	0.594647	0.102539	0.898156
	C213	C	0.407896	0.102502	0.098017
	C214	C	0.594953	0.903188	0.097271
	C215	C	0.408042	0.903417	0.898060
	Zn216	Zn	0.501251	0.003299	0.747430
	Zn217	Zn	0.501603	0.002277	0.247707
	Zn218	Zn	0.751474	0.502413	-0.002428
	Zn219	Zn	0.251383	0.502576	-0.002544
	Zn220	Zn	0.001301	0.752673	0.497345
	Zn221	Zn	0.001555	0.251524	0.496776
	Zn222	Zn	0.001646	0.502483	0.748346
	Zn223	Zn	0.001132	0.502281	0.246871
	Zn224	Zn	0.501319	0.752103	-0.002347
	Zn225	Zn	0.500951	0.253190	-0.002545
	Zn226	Zn	0.751609	0.002631	0.497581
	Zn227	Zn	0.251453	0.002864	0.497679
	N228	N	0.416489	0.965179	0.675552
	N229	N	0.586681	0.040123	0.675436
	N230	N	0.587325	0.964944	0.318790
	N231	N	0.417109	0.040120	0.320139
	N232	N	0.680428	0.416422	0.960475
	N233	N	0.680687	0.588677	0.034868
	N234	N	0.322490	0.588675	0.960812
	N235	N	0.322107	0.416535	0.034381
	N236	N	0.963837	0.681136	0.411585
	N237	N	0.038424	0.680589	0.582221
	N238	N	0.963595	0.323996	0.582000
	N239	N	0.038859	0.323795	0.411611
	N240	N	0.964215	0.416068	0.676801
	N241	N	0.038349	0.588482	0.676613
	N242	N	0.963616	0.587093	0.319200
	N243	N	0.038531	0.416539	0.318253
	N244	N	0.416691	0.680052	0.960129
	N245	N	0.586553	0.680376	0.035522
	N246	N	0.585561	0.325540	0.959870
	N247	N	0.415843	0.324794	0.034902
	N248	N	0.680562	0.964875	0.411531
	N249	N	0.679902	0.039831	0.582809
	N250	N	0.322503	0.965494	0.583599
	N251	N	0.323085	0.039717	0.412141
	N252	N	0.916111	0.464955	0.175340
	N253	N	0.086174	0.539761	0.175489
	N254	N	0.086987	0.465212	0.819197
	N255	N	0.916373	0.540037	0.819733
	N256	N	0.180810	0.916366	0.460840
	N257	N	0.180393	0.088604	0.534483
	N258	N	0.822717	0.088410	0.460568
	N259	N	0.822296	0.916210	0.534278
	N260	N	0.463372	0.180486	0.913032
	N261	N	0.538582	0.182069	0.083272
	N262	N	0.463839	0.824410	0.082581
	N263	N	0.538937	0.824328	0.912455
	N264	N	0.464025	0.917055	0.176290
	N265	N	0.538664	0.088643	0.176908
	N266	N	0.464131	0.088466	0.818960
	N267	N	0.538523	0.916872	0.818178
	N268	N	0.916548	0.179955	0.459697
	N269	N	0.086595	0.180480	0.534450
	N270	N	0.085769	0.825293	0.459571
	N271	N	0.915808	0.824154	0.534570
	N272	N	0.180078	0.465535	0.911773
	N273	N	0.179464	0.539945	0.082929
	N274	N	0.822540	0.465107	0.083395
	N275	N	0.822948	0.539926	0.912114
	O276	O	-0.037306	0.014445	1.038435
	H277	H	-0.044709	0.017210	1.035789
	H278	H	-0.047016	0.008349	1.034000
	O279	O	0.491669	0.508444	0.527941
	H280	H	0.488721	0.508996	0.515964
	H281	H	0.496266	0.513335	0.522641
	O282	O	0.523198	0.460711	0.531224
	H283	H	0.516943	0.465150	0.541885
	H284	H	0.520544	0.460717	0.536214
	O285	O	0.529733	0.485935	0.512767
	H286	H	0.524117	0.479471	0.507870
	H287	H	0.531353	0.478511	0.519265
	O288	O	0.549004	0.498523	0.496717
	H289	H	0.555223	0.499752	0.504937
	H290	H	0.557938	0.497270	0.498894
	O291	O	-0.041721	0.960904	1.046267
	H292	H	-0.043300	0.962532	1.048565
	H293	H	-0.038497	0.965425	1.045845
	O294	O	0.496720	0.506886	0.497447
	H295	H	0.488197	0.502810	0.506370
	H296	H	0.498529	0.514191	0.485964
	O297	O	0.948120	-0.005941	0.023000
	H298	H	0.949065	-0.012427	0.024511
	H299	H	0.947082	-0.007020	0.032742
