data_Molecule from HDF5

_cell_length_a		16.582008
_cell_length_b		16.474561
_cell_length_c		16.471094
_cell_angle_alpha	90.058426
_cell_angle_beta	89.968676
_cell_angle_gamma	89.997178
_symmetry_space_group_name_H-M	'P 1'
_symmetry_Int_Tables_number		1

loop_
	_symmetry_equiv_pos_as_xyz
	x,y,z

loop_
	_atom_site_label
	_atom_site_type_symbol
	_atom_site_fract_x
	_atom_site_fract_y
	_atom_site_fract_z
	H0	H	0.389730	0.843312	0.727941
	H1	H	0.604932	0.156153	0.726552
	H2	H	0.606866	0.843085	0.279549
	H3	H	0.396977	0.157414	0.284056
	H4	H	0.723787	0.393459	0.845631
	H5	H	0.724317	0.610748	0.158495
	H6	H	0.277148	0.609375	0.844521
	H7	H	0.280365	0.399280	0.159469
	H8	H	0.844318	0.727188	0.393438
	H9	H	0.154653	0.728788	0.612176
	H10	H	0.841010	0.281600	0.606393
	H11	H	0.155217	0.280249	0.397228
	H12	H	0.841394	0.398813	0.723198
	H13	H	0.156221	0.610988	0.725967
	H14	H	0.843328	0.609169	0.279204
	H15	H	0.155148	0.396630	0.280896
	H16	H	0.393489	0.724371	0.844948
	H17	H	0.606024	0.724198	0.159843
	H18	H	0.607327	0.277653	0.845674
	H19	H	0.399585	0.284518	0.160737
	H20	H	0.725945	0.845282	0.391570
	H21	H	0.721169	0.156929	0.609983
	H22	H	0.271954	0.845717	0.614156
	H23	H	0.279715	0.157857	0.399491
	H24	H	0.897205	0.345172	0.221999
	H25	H	0.107548	0.660091	0.226112
	H26	H	0.103374	0.344678	0.781175
	H27	H	0.893880	0.660995	0.780100
	H28	H	0.223957	0.892089	0.346576
	H29	H	0.220387	0.107354	0.660465
	H30	H	0.777366	0.106507	0.345637
	H31	H	0.773485	0.892448	0.658893
	H32	H	0.343794	0.223534	0.896685
	H33	H	0.655667	0.221783	0.108321
	H34	H	0.342351	0.777602	0.109087
	H35	H	0.654747	0.776180	0.894319
	H36	H	0.342314	0.891953	0.226727
	H37	H	0.655125	0.104941	0.224102
	H38	H	0.343074	0.105241	0.781115
	H39	H	0.654308	0.890707	0.777602
	H40	H	0.896979	0.219015	0.343901
	H41	H	0.102665	0.222495	0.660037
	H42	H	0.106379	0.778964	0.346013
	H43	H	0.891403	0.778225	0.659642
	H44	H	0.218150	0.343745	0.898865
	H45	H	0.223821	0.660283	0.109902
	H46	H	0.779731	0.345388	0.106958
	H47	H	0.773707	0.658237	0.891778
	H48	H	0.402716	0.113031	0.586759
	H49	H	0.582546	0.889811	0.589371
	H50	H	0.585284	0.111938	0.413323
	H51	H	0.413407	0.887002	0.413483
	H52	H	0.594158	0.414826	0.115643
	H53	H	0.587362	0.580840	0.893681
	H54	H	0.421157	0.583536	0.108164
	H55	H	0.407995	0.412973	0.887890
	H56	H	0.112142	0.595707	0.416408
	H57	H	0.887988	0.585052	0.598136
	H58	H	0.111210	0.409263	0.591117
	H59	H	0.887067	0.413546	0.412181
	H60	H	0.109331	0.413661	0.590038
	H61	H	0.886240	0.598643	0.588848
	H62	H	0.107404	0.586410	0.421163
	H63	H	0.884891	0.411132	0.409116
	H64	H	0.411486	0.599534	0.117842
	H65	H	0.580529	0.588520	0.892937
	H66	H	0.586245	0.414730	0.113269
	H67	H	0.410673	0.411789	0.888487
	H68	H	0.589493	0.111140	0.416189
	H69	H	0.586927	0.889276	0.585436
	H70	H	0.410509	0.114248	0.600407
	H71	H	0.410425	0.887796	0.419664
	H72	H	0.912227	0.616952	0.095486
	H73	H	0.084879	0.393298	0.089269
	H74	H	0.089030	0.616709	0.909215
	H75	H	0.918265	0.393189	0.913840
	H76	H	0.076639	0.917751	0.609719
	H77	H	0.087976	0.088725	0.390622
	H78	H	0.907748	0.093270	0.617908
	H79	H	0.910710	0.913493	0.390732
	H80	H	0.612051	0.090289	0.910150
	H81	H	0.384510	0.097074	0.091907
	H82	H	0.610928	0.911412	0.093279
	H83	H	0.389157	0.914094	0.916397
	H84	H	0.608958	0.910977	0.087619
	H85	H	0.388846	0.088396	0.089109
	H86	H	0.611030	0.091561	0.918552
	H87	H	0.388733	0.913496	0.915903
	H88	H	0.907292	0.087037	0.615285
	H89	H	0.089321	0.093185	0.389080
	H90	H	0.087547	0.908044	0.617266
	H91	H	0.910828	0.917969	0.392216
	H92	H	0.085012	0.613856	0.915272
	H93	H	0.093249	0.390971	0.086861
	H94	H	0.917339	0.613326	0.086842
	H95	H	0.907126	0.391483	0.919357
	H96	H	0.417416	0.108422	0.587810
	H97	H	0.588080	0.887004	0.590794
	H98	H	0.589245	0.113839	0.411483
	H99	H	0.406639	0.885001	0.414234
	H100	H	0.589613	0.408229	0.116311
	H101	H	0.590045	0.589944	0.889062
	H102	H	0.401666	0.581329	0.114311
	H103	H	0.408344	0.409987	0.887131
	H104	H	0.110757	0.586558	0.410144
	H105	H	0.893676	0.585356	0.582347
	H106	H	0.111134	0.412937	0.593947
	H107	H	0.885915	0.409403	0.413522
	H108	H	0.906707	0.616283	0.086147
	H109	H	0.090043	0.388976	0.095404
	H110	H	0.093037	0.616450	0.916577
	H111	H	0.909098	0.388258	0.907389
	H112	H	0.091694	0.924088	0.613205
	H113	H	0.092987	0.089719	0.389177
	H114	H	0.912791	0.090933	0.614572
	H115	H	0.914097	0.914745	0.392452
	H116	H	0.609653	0.084002	0.914762
	H117	H	0.384316	0.089223	0.097785
	H118	H	0.608486	0.915854	0.090861
	H119	H	0.388761	0.913099	0.916883
	C120	C	0.376452	0.008686	0.625374
	C121	C	0.619331	0.992022	0.622803
	C122	C	0.621054	0.008740	0.380713
	C123	C	0.378635	0.991039	0.383544
	C124	C	0.622084	0.379735	0.010922
	C125	C	0.620411	0.622137	0.994606
	C126	C	0.378401	0.622297	0.010105
	C127	C	0.378446	0.380760	0.992855
	C128	C	0.007833	0.623639	0.381393
	C129	C	0.992026	0.624094	0.623832
	C130	C	0.006915	0.380269	0.624118
	C131	C	0.989773	0.379903	0.380358
	C132	C	0.879859	0.511290	0.122057
	C133	C	0.122354	0.494762	0.124079
	C134	C	0.120950	0.511353	0.880793
	C135	C	0.878129	0.494524	0.880341
	C136	C	0.120388	0.881285	0.511089
	C137	C	0.121468	0.123338	0.493918
	C138	C	0.877595	0.122170	0.511492
	C139	C	0.877602	0.880828	0.494684
	C140	C	0.507921	0.121749	0.881367
	C141	C	0.490241	0.122427	0.124570
	C142	C	0.506703	0.878847	0.124306
	C143	C	0.490882	0.878504	0.881405
	C144	C	0.372214	0.890993	0.687655
	C145	C	0.623197	0.109383	0.685546
	C146	C	0.624527	0.890533	0.319668
	C147	C	0.377719	0.110168	0.324009
	C148	C	0.683326	0.375809	0.892881
	C149	C	0.682891	0.627393	0.111780
	C150	C	0.317640	0.626555	0.891648
	C151	C	0.319944	0.379914	0.112254
	C152	C	0.890709	0.685654	0.376975
	C153	C	0.108271	0.687258	0.628730
	C154	C	0.888369	0.321388	0.625226
	C155	C	0.108021	0.320367	0.379002
	C156	C	0.888627	0.379612	0.683368
	C157	C	0.108994	0.628376	0.685501
	C158	C	0.890410	0.627050	0.319702
	C159	C	0.108085	0.378197	0.320806
	C160	C	0.375627	0.683814	0.891975
	C161	C	0.624138	0.684221	0.112275
	C162	C	0.625228	0.318274	0.892735
	C163	C	0.379096	0.323230	0.112831
	C164	C	0.683933	0.891735	0.375601
	C165	C	0.680997	0.109561	0.627618
	C166	C	0.313255	0.892052	0.631190
	C167	C	0.319601	0.110406	0.381325
	C168	C	0.878518	0.392505	0.181826
	C169	C	0.125128	0.612967	0.185252
	C170	C	0.122156	0.392255	0.820972
	C171	C	0.875463	0.613165	0.820020
	C172	C	0.183321	0.875188	0.393876
	C173	C	0.180651	0.125575	0.612749
	C174	C	0.817784	0.124387	0.392848
	C175	C	0.815101	0.875861	0.612257
	C176	C	0.390618	0.183056	0.878482
	C177	C	0.608220	0.182125	0.126671
	C178	C	0.389133	0.817542	0.127419
	C179	C	0.607911	0.816742	0.877158
	C180	C	0.389268	0.874720	0.185827
	C181	C	0.607888	0.123738	0.184366
	C182	C	0.390173	0.124349	0.821003
	C183	C	0.607373	0.873759	0.818570
	C184	C	0.877280	0.180287	0.391782
	C185	C	0.121993	0.182784	0.612904
	C186	C	0.124658	0.818829	0.393458
	C187	C	0.873775	0.818848	0.612524
	C188	C	0.179188	0.391724	0.879576
	C189	C	0.183133	0.613091	0.127510
	C190	C	0.819849	0.392721	0.124996
	C191	C	0.815372	0.611739	0.875432
	C192	C	0.402720	0.090572	0.599065
	C193	C	0.593139	0.910060	0.596180
	C194	C	0.595163	0.090812	0.406451
	C195	C	0.403213	0.908223	0.408657
	C196	C	0.597078	0.405512	0.093509
	C197	C	0.593591	0.594437	0.912958
	C198	C	0.404017	0.595745	0.092059
	C199	C	0.402116	0.404637	0.909582
	C200	C	0.088926	0.597200	0.408172
	C201	C	0.910543	0.597533	0.597407
	C202	C	0.089215	0.404903	0.599077
	C203	C	0.907466	0.404317	0.404738
	C204	C	0.904880	0.594050	0.096456
	C205	C	0.096828	0.412503	0.097912
	C206	C	0.096252	0.594043	0.906330
	C207	C	0.903890	0.412512	0.906048
	C208	C	0.093263	0.908786	0.592289
	C209	C	0.097006	0.097882	0.411180
	C210	C	0.902146	0.097614	0.594275
	C211	C	0.904111	0.907563	0.413085
	C212	C	0.589610	0.095979	0.907021
	C213	C	0.407495	0.098232	0.099991
	C214	C	0.588129	0.905211	0.098116
	C215	C	0.409915	0.905614	0.908558
	Zn216	Zn	0.498853	-0.000501	0.752356
	Zn217	Zn	0.498481	-0.000607	0.253214
	Zn218	Zn	0.749932	0.502201	0.002198
	Zn219	Zn	0.249756	0.502723	0.001767
	Zn220	Zn	-0.000428	0.752841	0.502531
	Zn221	Zn	-0.001613	0.250915	0.502327
	Zn222	Zn	-0.000316	0.503253	0.752489
	Zn223	Zn	0.000119	0.502798	0.251999
	Zn224	Zn	0.499102	0.750442	0.003244
	Zn225	Zn	0.499944	0.251676	0.002465
	Zn226	Zn	0.748685	0.000966	0.502391
	Zn227	Zn	0.249001	0.000541	0.503265
	N228	N	0.410900	0.964717	0.684221
	N229	N	0.585645	0.035010	0.682891
	N230	N	0.585776	0.964264	0.322763
	N231	N	0.413256	0.034893	0.324901
	N232	N	0.681486	0.413392	0.967366
	N233	N	0.680893	0.589690	0.037288
	N234	N	0.319271	0.588989	0.966080
	N235	N	0.319363	0.414815	0.036579
	N236	N	0.964625	0.683601	0.414668
	N237	N	0.034233	0.684840	0.591224
	N238	N	0.963219	0.321303	0.589428
	N239	N	0.033475	0.321235	0.415333
	N240	N	0.963465	0.415316	0.682851
	N241	N	0.035770	0.589621	0.682340
	N242	N	0.964333	0.589452	0.322107
	N243	N	0.033607	0.414566	0.321456
	N244	N	0.412668	0.681321	0.966630
	N245	N	0.585942	0.680788	0.038383
	N246	N	0.587924	0.320399	0.967200
	N247	N	0.414573	0.323394	0.037446
	N248	N	0.681985	0.966335	0.412876
	N249	N	0.678690	0.035496	0.589610
	N250	N	0.315858	0.966158	0.593133
	N251	N	0.320058	0.035256	0.417543
	N252	N	0.914997	0.467371	0.180163
	N253	N	0.087906	0.538471	0.183149
	N254	N	0.086908	0.467710	0.821399
	N255	N	0.913790	0.539359	0.822862
	N256	N	0.180831	0.913180	0.468186
	N257	N	0.180648	0.089537	0.537545
	N258	N	0.817654	0.089200	0.468366
	N259	N	0.817228	0.913298	0.537842
	N260	N	0.465027	0.181683	0.915191
	N261	N	0.533807	0.181452	0.089997
	N262	N	0.463140	0.819992	0.089880
	N263	N	0.534321	0.819440	0.915247
	N264	N	0.463368	0.912052	0.184118
	N265	N	0.533376	0.087428	0.183288
	N266	N	0.464005	0.086980	0.822653
	N267	N	0.533524	0.911469	0.820969
	N268	N	0.913722	0.179226	0.466634
	N269	N	0.086191	0.181800	0.537862
	N270	N	0.086011	0.822549	0.467206
	N271	N	0.911907	0.821681	0.538364
	N272	N	0.178841	0.466881	0.915693
	N273	N	0.181492	0.538450	0.090069
	N274	N	0.820625	0.467770	0.088580
	N275	N	0.816820	0.536875	0.912200
	O276	O	0.615070	0.377706	0.286800
	H277	H	0.627668	0.369608	0.272381
	H278	H	0.628760	0.375378	0.291134
	O279	O	0.552542	0.689255	0.714072
	H280	H	0.525707	0.664276	0.711216
	H281	H	0.545700	0.714492	0.738973
	O282	O	0.925909	0.801355	0.202291
	H283	H	0.919316	0.816073	0.209732
	H284	H	0.946639	0.791929	0.217035
	O285	O	0.639693	0.448002	0.479092
	H286	H	0.632464	0.428950	0.481270
	H287	H	0.639084	0.437880	0.490896
	O288	O	0.019765	0.015996	0.066763
	H289	H	0.031848	0.036594	0.070716
	H290	H	0.018357	0.023277	0.057038
	O291	O	1.064914	0.897489	0.187519
	H292	H	1.073917	0.895476	0.204484
	H293	H	1.070172	0.915089	0.192932
	O294	O	0.050695	0.812456	0.072092
	H295	H	0.038846	0.813505	0.079672
	H296	H	0.038243	0.804471	0.084529
	O297	O	0.639547	0.325835	0.298957
	H298	H	0.637660	0.325758	0.316592
	H299	H	0.654439	0.319282	0.298614
	O300	O	0.512564	0.349083	0.512936
	H301	H	0.502961	0.354107	0.504085
	H302	H	0.506806	0.357099	0.508407
	O303	O	0.277339	0.473543	0.722972
	H304	H	0.251790	0.456273	0.745416
	H305	H	0.265718	0.475374	0.712756
	O306	O	0.164717	0.799984	0.977794
	H307	H	0.162481	0.798438	0.991783
	H308	H	0.152795	0.801588	0.990615
	O309	O	0.720164	0.725512	0.524280
	H310	H	0.742336	0.742295	0.539269
	H311	H	0.726364	0.727374	0.560990
	O312	O	0.472877	0.715704	0.538045
	H313	H	0.492911	0.709142	0.527758
	H314	H	0.497688	0.717698	0.558069
	O315	O	0.146054	0.113038	0.942828
	H316	H	0.148824	0.096125	0.938646
	H317	H	0.138880	0.094203	0.923100
	O318	O	-0.191082	0.811381	0.132961
	H319	H	-0.191411	0.787635	0.138483
	H320	H	-0.194033	0.827288	0.134928
	O321	O	0.485752	0.706970	0.307497
	H322	H	0.510575	0.699080	0.307217
	H323	H	0.493524	0.720860	0.297691
	O324	O	0.805960	0.191313	0.820618
	H325	H	0.803108	0.179170	0.825290
	H326	H	0.798701	0.183178	0.856945
	O327	O	0.787853	0.197604	0.977721
	H328	H	0.784918	0.186063	0.991501
	H329	H	0.772660	0.199693	0.997106
	O330	O	0.780059	-0.013389	-0.008200
	H331	H	0.786054	-0.017564	0.008670
	H332	H	0.779002	-0.038118	-0.004202
	O333	O	0.789409	0.809355	0.972831
	H334	H	0.797634	0.796351	0.983581
	H335	H	0.796957	0.802133	0.967798
	O336	O	0.971768	0.221248	0.783357
	H337	H	0.964625	0.247030	0.757353
	H338	H	0.943752	0.215752	0.791657
	O339	O	0.306659	0.310186	0.696281
	H340	H	0.297268	0.290688	0.713085
	H341	H	0.298085	0.321554	0.668448
	O342	O	0.570997	0.427170	0.707580
	H343	H	0.553816	0.438984	0.699503
	H344	H	0.564231	0.433509	0.702968
	O345	O	0.205592	0.204938	0.209154
	H346	H	0.238513	0.238452	0.236760
	H347	H	0.202637	0.211998	0.165557
	O348	O	1.043991	0.105297	0.854529
	H349	H	1.033541	0.116107	0.871735
	H350	H	1.058334	0.116911	0.843571
	O351	O	0.935990	0.814111	-0.053876
	H352	H	0.930252	0.827737	-0.057542
	H353	H	0.945246	0.806986	-0.070315
	O354	O	0.333137	0.397969	0.450155
	H355	H	0.341021	0.406042	0.435082
	H356	H	0.335664	0.388826	0.454087
	O357	O	0.950973	0.968320	0.823516
	H358	H	0.948021	0.979798	0.814406
	H359	H	0.941728	0.984357	0.831910
	O360	O	0.624359	0.396498	0.506656
	H361	H	0.623184	0.397296	0.525335
	H362	H	0.615616	0.384039	0.502861
	O363	O	0.706777	0.517641	0.695247
	H364	H	0.689672	0.519283	0.682205
	H365	H	0.729919	0.527555	0.724037
	O366	O	0.717670	0.261699	0.609279
	H367	H	0.703618	0.273986	0.629797
	H368	H	0.730883	0.245942	0.617268
	O369	O	0.286188	0.518484	0.296935
	H370	H	0.278284	0.540494	0.285973
	H371	H	0.283802	0.551037	0.296180
	O372	O	0.448310	0.284103	0.703317
	H373	H	0.417150	0.275390	0.713345
	H374	H	0.457049	0.279377	0.721765
	O375	O	0.210512	0.986237	0.797938
	H376	H	0.217357	0.979179	0.784649
	H377	H	0.216457	0.950068	0.795869
	O378	O	0.764097	0.166751	0.162006
	H379	H	0.761228	0.161658	0.156163
	H380	H	0.761056	0.163012	0.196002
	O381	O	0.996549	0.217041	0.082165
	H382	H	0.982382	0.220444	0.081721
	H383	H	1.009590	0.227988	0.092878
	O384	O	0.051127	-0.097325	0.830813
	H385	H	0.029835	-0.111731	0.836984
	H386	H	0.062980	-0.093629	0.845685
	O387	O	0.021620	0.787852	0.787777
	H388	H	0.026281	0.785490	0.774627
	H389	H	0.017958	0.792695	0.765378
	O390	O	0.090958	0.198199	0.907798
	H391	H	0.081646	0.186653	0.902771
	H392	H	0.079998	0.187234	0.909900
	O393	O	0.904406	0.976725	0.065771
	H394	H	0.922575	0.976427	0.069718
	H395	H	0.904819	0.976478	0.071738
	O396	O	0.549010	0.571319	0.292366
	H397	H	0.548979	0.543596	0.288707
	H398	H	0.550164	0.577638	0.312974
	O399	O	0.298903	0.704945	0.507369
	H400	H	0.288372	0.718309	0.515617
	H401	H	0.323088	0.714615	0.522894
	O402	O	0.183793	0.034032	1.059058
	H403	H	0.196914	0.039506	1.072961
	H404	H	0.172404	0.031187	1.059910
	O405	O	0.219333	0.154530	0.036762
	H406	H	0.232467	0.152326	0.033043
	H407	H	0.229167	0.161186	0.028059
	O408	O	0.684590	0.684263	0.677952
	H409	H	0.692895	0.656104	0.680974
	H410	H	0.641147	0.688599	0.692920
	O411	O	0.431574	0.480734	0.483387
	H412	H	0.440437	0.498402	0.483950
	H413	H	0.433698	0.478327	0.491683
	O414	O	0.323100	0.673115	0.329821
	H415	H	0.317594	0.686080	0.375917
	H416	H	0.369911	0.686222	0.318480
	O417	O	0.509266	0.353714	0.568771
	H418	H	0.488760	0.345977	0.588187
	H419	H	0.501233	0.362946	0.571683
	O420	O	0.604141	0.635513	0.439422
	H421	H	0.627360	0.627363	0.436603
	H422	H	0.618246	0.639996	0.431661
	O423	O	-0.009291	1.013278	0.224219
	H424	H	-0.013818	1.038282	0.222902
	H425	H	0.016060	1.021317	0.217871
	O426	O	0.802268	1.011074	0.785540
	H427	H	0.792988	1.005145	0.790355
	H428	H	0.785741	1.014116	0.782662
	O429	O	0.457103	0.460683	0.380127
	H430	H	0.454154	0.457871	0.389906
	H431	H	0.455590	0.480370	0.372215
	O432	O	0.293987	0.289419	0.524415
	H433	H	0.291801	0.296493	0.517679
	H434	H	0.284802	0.284516	0.528568
	O435	O	0.201051	0.048282	0.222423
	H436	H	0.195561	0.087484	0.223680
	H437	H	0.230330	0.058817	0.247996
	O438	O	1.034947	0.121113	0.105971
	H439	H	1.059003	0.123953	0.094926
	H440	H	1.033339	0.140586	0.118899
	O441	O	0.310224	0.312296	0.313660
	H442	H	0.330152	0.336936	0.322835
	H443	H	0.325095	0.326468	0.337389
	O444	O	0.191951	0.948970	0.859483
	H445	H	0.181788	0.943647	0.857436
	H446	H	0.200686	0.936524	0.888576
	O447	O	0.627220	0.613908	0.435989
	H448	H	0.624359	0.594320	0.444789
	H449	H	0.653994	0.625378	0.450061
	O450	O	0.303417	0.545446	0.536875
	H451	H	0.306168	0.554827	0.531589
	H452	H	0.296100	0.546571	0.517184
	O453	O	0.492025	0.527391	0.622779
	H454	H	0.482382	0.527126	0.621301
	H455	H	0.500288	0.525906	0.610232
	O456	O	0.837127	0.195471	0.165008
	H457	H	0.829730	0.196479	0.167632
	H458	H	0.849675	0.180397	0.165421
	O459	O	0.707549	0.395234	0.371799
	H460	H	0.702466	0.389822	0.380794
	H461	H	0.717785	0.382881	0.380186
	O462	O	0.418780	0.607932	0.679093
	H463	H	0.410646	0.589348	0.671687
	H464	H	0.412826	0.593344	0.659213
	O465	O	0.929719	-0.040556	0.146182
	H466	H	0.930707	-0.044186	0.150930
	H467	H	0.941249	-0.035160	0.147562
