data_Molecule from HDF5

_cell_length_a		16.495690
_cell_length_b		16.334843
_cell_length_c		16.202683
_cell_angle_alpha	89.877576
_cell_angle_beta	90.075771
_cell_angle_gamma	89.876107
_symmetry_space_group_name_H-M	'P 1'
_symmetry_Int_Tables_number		1

loop_
	_symmetry_equiv_pos_as_xyz
	x,y,z

loop_
	_atom_site_label
	_atom_site_type_symbol
	_atom_site_fract_x
	_atom_site_fract_y
	_atom_site_fract_z
	H0	H	0.407853	0.841668	0.721525
	H1	H	0.603956	0.167337	0.721677
	H2	H	0.607857	0.842694	0.288108
	H3	H	0.403137	0.165758	0.290041
	H4	H	0.725127	0.401478	0.846106
	H5	H	0.723324	0.609175	0.169868
	H6	H	0.283908	0.613950	0.846821
	H7	H	0.285537	0.400750	0.167553
	H8	H	0.844405	0.725533	0.401817
	H9	H	0.163772	0.722855	0.609168
	H10	H	0.844646	0.284990	0.610864
	H11	H	0.162639	0.281478	0.401003
	H12	H	0.845360	0.402269	0.727042
	H13	H	0.164427	0.606489	0.725190
	H14	H	0.843620	0.605034	0.288243
	H15	H	0.165582	0.403309	0.288987
	H16	H	0.402082	0.723650	0.845309
	H17	H	0.605548	0.721965	0.169864
	H18	H	0.607720	0.288135	0.844454
	H19	H	0.404149	0.288250	0.168941
	H20	H	0.725756	0.844249	0.401101
	H21	H	0.724322	0.164090	0.611968
	H22	H	0.285661	0.844026	0.612611
	H23	H	0.282987	0.163391	0.401181
	H24	H	0.904685	0.344017	0.223537
	H25	H	0.105240	0.667690	0.222680
	H26	H	0.106511	0.344494	0.789515
	H27	H	0.903495	0.666756	0.789968
	H28	H	0.226133	0.897383	0.346362
	H29	H	0.222178	0.106452	0.668441
	H30	H	0.782825	0.109953	0.346017
	H31	H	0.786638	0.900408	0.669617
	H32	H	0.346227	0.225926	0.901937
	H33	H	0.663757	0.225752	0.112749
	H34	H	0.345143	0.783250	0.112197
	H35	H	0.663212	0.782942	0.903643
	H36	H	0.344985	0.900742	0.227497
	H37	H	0.663867	0.107220	0.227895
	H38	H	0.344207	0.104465	0.790016
	H39	H	0.665527	0.901857	0.789258
	H40	H	0.900216	0.223948	0.344783
	H41	H	0.104933	0.221290	0.668831
	H42	H	0.104810	0.789200	0.343400
	H43	H	0.904936	0.788682	0.670191
	H44	H	0.228868	0.348643	0.897510
	H45	H	0.224603	0.666503	0.111094
	H46	H	0.784223	0.346181	0.114978
	H47	H	0.783326	0.665057	0.900577
	H48	H	0.406006	0.119055	0.590474
	H49	H	0.593822	0.890373	0.597293
	H50	H	0.597418	0.119007	0.418849
	H51	H	0.411019	0.887073	0.414847
	H52	H	0.594818	0.416929	0.121366
	H53	H	0.590106	0.596527	0.893036
	H54	H	0.409289	0.594489	0.125181
	H55	H	0.415597	0.414404	0.890434
	H56	H	0.119751	0.597366	0.407552
	H57	H	0.891801	0.593733	0.595481
	H58	H	0.117493	0.414149	0.598428
	H59	H	0.886057	0.409095	0.404618
	H60	H	0.117657	0.411488	0.596584
	H61	H	0.889067	0.596505	0.601212
	H62	H	0.119150	0.603586	0.419773
	H63	H	0.893639	0.407348	0.428552
	H64	H	0.415326	0.587729	0.120096
	H65	H	0.599439	0.596355	0.890253
	H66	H	0.594540	0.412871	0.123004
	H67	H	0.413068	0.418962	0.890763
	H68	H	0.591365	0.117430	0.416164
	H69	H	0.600244	0.889129	0.595058
	H70	H	0.409774	0.122859	0.604206
	H71	H	0.420541	0.891331	0.416977
	H72	H	0.916037	0.619000	0.093216
	H73	H	0.096645	0.392296	0.091459
	H74	H	0.104650	0.624800	0.914403
	H75	H	0.907858	0.390968	0.926515
	H76	H	0.094640	0.914178	0.621661
	H77	H	0.095274	0.093673	0.390669
	H78	H	0.913139	0.087157	0.620106
	H79	H	0.910814	0.915059	0.390841
	H80	H	0.617940	0.097170	0.920235
	H81	H	0.393292	0.093498	0.095538
	H82	H	0.616716	0.915164	0.098211
	H83	H	0.385912	0.909204	0.900951
	H84	H	0.617872	0.911296	0.095952
	H85	H	0.390876	0.096404	0.099067
	H86	H	0.618423	0.091967	0.913658
	H87	H	0.391161	0.903603	0.926513
	H88	H	0.920142	0.096870	0.621177
	H89	H	0.094580	0.089993	0.391277
	H90	H	0.096772	0.911985	0.623793
	H91	H	0.913859	0.917600	0.392679
	H92	H	0.087675	0.620550	0.908896
	H93	H	0.100068	0.390038	0.096918
	H94	H	0.910415	0.620486	0.094164
	H95	H	0.909875	0.386424	0.909554
	H96	H	0.419754	0.117056	0.596043
	H97	H	0.597993	0.887172	0.602139
	H98	H	0.592544	0.115980	0.422535
	H99	H	0.412818	0.891784	0.424564
	H100	H	0.598725	0.415942	0.123764
	H101	H	0.594858	0.588044	0.893599
	H102	H	0.418629	0.597360	0.122508
	H103	H	0.417582	0.418584	0.892483
	H104	H	0.114411	0.590642	0.418526
	H105	H	0.890611	0.600137	0.595534
	H106	H	0.116066	0.414216	0.594609
	H107	H	0.896618	0.428521	0.415661
	H108	H	0.914772	0.621045	0.098310
	H109	H	0.093874	0.392115	0.097279
	H110	H	0.092459	0.616791	0.926588
	H111	H	0.923513	0.393595	0.917893
	H112	H	0.098220	0.914572	0.622286
	H113	H	0.091977	0.093009	0.391758
	H114	H	0.907973	0.097870	0.624714
	H115	H	0.914949	0.914495	0.391498
	H116	H	0.621109	0.100303	0.912968
	H117	H	0.391522	0.098413	0.093980
	H118	H	0.616161	0.914271	0.094214
	H119	H	0.396356	0.927268	0.917088
	C120	C	0.382904	0.013170	0.628150
	C121	C	0.626806	0.995731	0.628671
	C122	C	0.625724	0.011821	0.386283
	C123	C	0.382797	0.995522	0.386148
	C124	C	0.627155	0.383965	0.015699
	C125	C	0.625913	0.625830	0.998930
	C126	C	0.383671	0.626039	0.015874
	C127	C	0.383901	0.385069	0.997905
	C128	C	0.012486	0.627979	0.383904
	C129	C	0.996009	0.627082	0.628250
	C130	C	0.012232	0.382872	0.628311
	C131	C	0.996817	0.382908	0.384328
	C132	C	0.883553	0.514127	0.127578
	C133	C	0.126706	0.497945	0.126736
	C134	C	0.126577	0.514812	0.885029
	C135	C	0.882375	0.496542	0.885728
	C136	C	0.126500	0.882805	0.515415
	C137	C	0.124892	0.124138	0.497997
	C138	C	0.882313	0.125475	0.515236
	C139	C	0.883267	0.884203	0.498802
	C140	C	0.513374	0.126904	0.884858
	C141	C	0.496692	0.127052	0.128835
	C142	C	0.512059	0.882156	0.128411
	C143	C	0.496555	0.882100	0.884793
	C144	C	0.386103	0.890617	0.684420
	C145	C	0.624449	0.118215	0.684562
	C146	C	0.626821	0.891142	0.327176
	C147	C	0.382638	0.116864	0.328012
	C148	C	0.685575	0.383189	0.894198
	C149	C	0.684069	0.627592	0.121206
	C150	C	0.324371	0.630162	0.894590
	C151	C	0.325068	0.382905	0.119075
	C152	C	0.892219	0.685897	0.383255
	C153	C	0.116064	0.684113	0.628444
	C154	C	0.892480	0.324812	0.629445
	C155	C	0.115565	0.322436	0.382695
	C156	C	0.892785	0.382851	0.687542
	C157	C	0.116362	0.625957	0.686120
	C158	C	0.891851	0.626141	0.326586
	C159	C	0.116973	0.383068	0.326800
	C160	C	0.383306	0.684940	0.893841
	C161	C	0.625616	0.684005	0.121093
	C162	C	0.627378	0.326466	0.893492
	C163	C	0.384574	0.327190	0.120171
	C164	C	0.685654	0.891927	0.383679
	C165	C	0.684152	0.116795	0.629489
	C166	C	0.325749	0.891683	0.629716
	C167	C	0.323021	0.115691	0.383536
	C168	C	0.884464	0.392696	0.185885
	C169	C	0.125540	0.619170	0.184498
	C170	C	0.126527	0.393541	0.827342
	C171	C	0.882946	0.617973	0.827647
	C172	C	0.185725	0.880375	0.394177
	C173	C	0.183076	0.125600	0.619828
	C174	C	0.823072	0.127771	0.393883
	C175	C	0.825421	0.882148	0.620724
	C176	C	0.393700	0.185841	0.883545
	C177	C	0.616175	0.185912	0.130787
	C178	C	0.392470	0.823240	0.130505
	C179	C	0.616007	0.823079	0.884838
	C180	C	0.392689	0.881657	0.188020
	C181	C	0.616187	0.127072	0.188429
	C182	C	0.392534	0.125520	0.827973
	C183	C	0.617197	0.882201	0.827588
	C184	C	0.881207	0.184681	0.393231
	C185	C	0.124850	0.182524	0.620059
	C186	C	0.125614	0.826175	0.392887
	C187	C	0.884559	0.826519	0.621203
	C188	C	0.187360	0.395638	0.881370
	C189	C	0.184674	0.618804	0.128490
	C190	C	0.824569	0.393800	0.131591
	C191	C	0.823594	0.617177	0.883120
	C192	C	0.405171	0.097643	0.603896
	C193	C	0.604032	0.910954	0.605112
	C194	C	0.600863	0.095921	0.411774
	C195	C	0.407663	0.911712	0.411418
	C196	C	0.603148	0.408032	0.100687
	C197	C	0.601874	0.600961	0.914479
	C198	C	0.407665	0.600507	0.100585
	C199	C	0.408325	0.409920	0.913300
	C200	C	0.096119	0.604214	0.408175
	C201	C	0.912208	0.603663	0.604350
	C202	C	0.095565	0.406494	0.603588
	C203	C	0.913594	0.407839	0.409005
	C204	C	0.906926	0.598045	0.102375
	C205	C	0.103662	0.413516	0.102160
	C206	C	0.102191	0.598760	0.909632
	C207	C	0.906576	0.412367	0.910819
	C208	C	0.103298	0.906490	0.600490
	C209	C	0.100907	0.099588	0.413395
	C210	C	0.906696	0.100952	0.599850
	C211	C	0.906581	0.908637	0.413748
	C212	C	0.597337	0.103281	0.908689
	C213	C	0.413585	0.102855	0.103599
	C214	C	0.595031	0.906521	0.103370
	C215	C	0.412814	0.906322	0.908145
	Zn216	Zn	0.505078	0.004456	0.756154
	Zn217	Zn	0.504119	0.003934	0.257908
	Zn218	Zn	0.754680	0.505370	0.007685
	Zn219	Zn	0.255376	0.506890	0.005965
	Zn220	Zn	0.004415	0.756372	0.506586
	Zn221	Zn	0.003825	0.252977	0.506463
	Zn222	Zn	0.004078	0.505293	0.757694
	Zn223	Zn	0.005062	0.505515	0.254449
	Zn224	Zn	0.503777	0.752772	0.007466
	Zn225	Zn	0.505429	0.256561	0.006139
	Zn226	Zn	0.754655	0.004340	0.507577
	Zn227	Zn	0.254061	0.003432	0.507358
	N228	N	0.420836	0.966949	0.683571
	N229	N	0.589539	0.041830	0.684345
	N230	N	0.590181	0.966831	0.328789
	N231	N	0.418968	0.041055	0.329403
	N232	N	0.685348	0.418221	0.971297
	N233	N	0.684553	0.592192	0.044212
	N234	N	0.324498	0.594172	0.971212
	N235	N	0.324609	0.418364	0.041989
	N236	N	0.968336	0.687191	0.418059
	N237	N	0.040302	0.684654	0.593043
	N238	N	0.967939	0.324456	0.593440
	N239	N	0.039696	0.322148	0.417551
	N240	N	0.968303	0.418256	0.687060
	N241	N	0.040536	0.591106	0.686243
	N242	N	0.967578	0.590856	0.326785
	N243	N	0.041949	0.419959	0.327657
	N244	N	0.419546	0.682256	0.970254
	N245	N	0.590197	0.683027	0.044205
	N246	N	0.591834	0.326803	0.970085
	N247	N	0.420280	0.328253	0.043465
	N248	N	0.685187	0.968276	0.419432
	N249	N	0.685836	0.039578	0.595763
	N250	N	0.323424	0.968775	0.595451
	N251	N	0.322972	0.039192	0.418915
	N252	N	0.920597	0.468428	0.183371
	N253	N	0.090387	0.543042	0.183600
	N254	N	0.089324	0.468751	0.829199
	N255	N	0.918854	0.541870	0.829103
	N256	N	0.186213	0.915250	0.471230
	N257	N	0.183282	0.089969	0.543034
	N258	N	0.823690	0.091825	0.470702
	N259	N	0.824640	0.917313	0.543569
	N260	N	0.469865	0.186770	0.918224
	N261	N	0.540720	0.186164	0.094516
	N262	N	0.467632	0.823288	0.094362
	N263	N	0.539888	0.822950	0.919554
	N264	N	0.467945	0.917685	0.186746
	N265	N	0.540999	0.091112	0.187220
	N266	N	0.468149	0.089734	0.828388
	N267	N	0.541900	0.918186	0.827518
	N268	N	0.917256	0.183582	0.469682
	N269	N	0.089233	0.181718	0.543236
	N270	N	0.089257	0.827718	0.469169
	N271	N	0.919685	0.827487	0.544266
	N272	N	0.187543	0.472168	0.916328
	N273	N	0.185648	0.542101	0.093603
	N274	N	0.823924	0.470127	0.095888
	N275	N	0.823101	0.540523	0.918436
	O276	O	0.065479	0.102765	0.091367
	H277	H	0.061106	0.100309	0.092236
	H278	H	0.063011	0.107028	0.093607
	O279	O	0.419332	0.526048	0.461160
	H280	H	0.407714	0.537283	0.456559
	H281	H	0.428059	0.519187	0.466587
	O282	O	0.503876	-0.605725	0.483018
	H283	H	0.513446	-0.607059	0.478886
	H284	H	0.488747	-0.608957	0.480721
	O285	O	0.363789	0.309483	0.533635
	H286	H	0.375058	0.301419	0.534759
	H287	H	0.350530	0.297034	0.540334
	O288	O	1.065394	1.151649	1.137815
	H289	H	1.073420	1.137975	1.151608
	H290	H	1.057216	1.148175	1.145722
	O291	O	-0.097200	0.893349	0.194344
	H292	H	-0.105963	0.910553	0.199161
	H293	H	-0.075104	0.886828	0.199613
	O294	O	0.509470	0.561349	0.522171
	H295	H	0.513096	0.571063	0.512433
	H296	H	0.509204	0.561981	0.515328
	O297	O	0.355418	0.437135	0.625839
	H298	H	0.340188	0.438421	0.625377
	H299	H	0.360864	0.443558	0.629645
	O300	O	0.619594	0.608812	0.639724
	H301	H	0.618914	0.615921	0.637654
	H302	H	0.622257	0.595391	0.660254
	O303	O	0.505848	0.627864	0.503770
	H304	H	0.509729	0.629416	0.505677
	H305	H	0.498668	0.635228	0.506461
	O306	O	0.437128	0.578129	0.433854
	H307	H	0.428685	0.580401	0.427033
	H308	H	0.440406	0.595579	0.433247
	O309	O	0.320978	0.507389	0.524950
	H310	H	0.319352	0.506417	0.527426
	H311	H	0.315728	0.519273	0.540576
	O312	O	0.088817	-0.071691	-0.015400
	H313	H	0.088519	-0.085411	-0.012817
	H314	H	0.092610	-0.062077	-0.018876
	O315	O	0.936422	0.024745	0.835775
	H316	H	0.941855	0.019784	0.831298
	H317	H	0.926322	0.032354	0.815333
	O318	O	0.158259	1.132370	0.966697
	H319	H	0.162475	1.132298	0.981559
	H320	H	0.155189	1.143947	0.973948
	O321	O	0.504147	0.323208	0.631895
	H322	H	0.494915	0.308496	0.643168
	H323	H	0.483791	0.320668	0.621102
	O324	O	-0.055077	1.097412	-0.134755
	H325	H	-0.051610	1.107665	-0.134366
	H326	H	-0.066553	1.100088	-0.149171
	O327	O	-0.055523	-0.027977	-0.064301
	H328	H	-0.049025	-0.032669	-0.063567
	H329	H	-0.056060	-0.033972	-0.073322
	O330	O	-0.118893	-0.111539	1.074750
	H331	H	-0.114625	-0.123423	1.077732
	H332	H	-0.117081	-0.099462	1.058755
	O333	O	-0.176501	0.011275	0.974405
	H334	H	-0.183618	0.007797	0.974143
	H335	H	-0.168773	-0.009812	0.961761
	O336	O	0.565204	0.544400	0.414721
	H337	H	0.563205	0.529242	0.403965
	H338	H	0.573012	0.553141	0.427830
	O339	O	1.014460	-0.018928	0.007965
	H340	H	1.011113	-0.023028	0.018877
	H341	H	1.026843	-0.009335	-0.007925
	O342	O	-0.489007	-0.493904	0.644601
	H343	H	-0.475043	-0.504882	0.653454
	H344	H	-0.476252	-0.483254	0.646604
	O345	O	0.949921	0.204268	0.952527
	H346	H	0.959734	0.221893	0.964635
	H347	H	0.953979	0.212507	0.959753
	O348	O	1.034992	0.934545	0.100540
	H349	H	1.027735	0.923603	0.092370
	H350	H	1.037294	0.952920	0.113130
	O351	O	0.611062	0.467613	0.652827
	H352	H	0.615133	0.451030	0.652226
	H353	H	0.612373	0.458266	0.644807
	O354	O	1.017722	0.076158	0.867822
	H355	H	1.007158	0.104312	0.872120
	H356	H	1.029808	0.064093	0.881557
	O357	O	0.376478	0.494428	0.474561
	H358	H	0.369338	0.494975	0.476318
	H359	H	0.384826	0.490394	0.456186
	O360	O	0.583115	0.615891	0.562547
	H361	H	0.579102	0.621167	0.564104
	H362	H	0.586187	0.606439	0.554842
	O363	O	-0.115373	1.028880	1.128723
	H364	H	-0.119478	1.044767	1.131021
	H365	H	-0.116854	1.039705	1.119342
	O366	O	0.545760	0.650206	0.428274
	H367	H	0.550437	0.648003	0.440408
	H368	H	0.560475	0.660191	0.414458
	O369	O	0.147279	0.997143	-0.149710
	H370	H	0.132913	0.998621	-0.156271
	H371	H	0.160202	0.988962	-0.161587
	O372	O	0.570007	0.518384	0.363429
	H373	H	0.571772	0.516359	0.372020
	H374	H	0.576044	0.525476	0.377777
	O375	O	0.644099	0.442489	0.554646
	H376	H	0.643310	0.430980	0.546377
	H377	H	0.638323	0.445939	0.544542
	O378	O	1.325551	0.461031	-0.567543
	H379	H	1.316680	0.475564	-0.568175
	H380	H	1.314362	0.454143	-0.556599
	O381	O	1.135513	-0.005242	-0.016827
	H382	H	1.128673	-0.008688	-0.012820
	H383	H	1.131748	0.002804	-0.020511
	O384	O	0.812283	0.875822	0.135065
	H385	H	0.807026	0.873410	0.140667
	H386	H	0.800151	0.866107	0.148592
	O387	O	-0.077438	-0.101629	-0.041962
	H388	H	-0.078193	-0.106011	-0.024835
	H389	H	-0.076051	-0.105425	-0.039550
	O390	O	0.185373	1.113866	0.162025
	H391	H	0.198291	1.116031	0.168539
	H392	H	0.185312	1.092678	0.161897
	O393	O	0.903274	1.159288	0.999673
	H394	H	0.890983	1.152856	0.987178
	H395	H	0.901457	1.158422	1.009962
	O396	O	0.596762	0.579826	0.477721
	H397	H	0.611581	0.579593	0.482695
	H398	H	0.593654	0.576792	0.479612
	O399	O	-0.036923	0.986227	1.033934
	H400	H	-0.037651	0.981392	1.035514
	H401	H	-0.037785	0.982535	1.042918
	O402	O	0.561787	0.372811	0.330572
	H403	H	0.562947	0.379111	0.331353
	H404	H	0.547066	0.371641	0.328000
	O405	O	1.024180	1.016136	0.073357
	H406	H	1.011349	1.006539	0.074621
	H407	H	1.023263	1.011659	0.067593
	O408	O	1.086481	0.855328	-0.157173
	H409	H	1.087786	0.859768	-0.146006
	H410	H	1.079389	0.848710	-0.171753
	O411	O	1.145919	-0.012475	1.133392
	H412	H	1.145598	0.002863	1.143560
	H413	H	1.159543	-0.006116	1.127934
	O414	O	0.612370	0.477744	0.478156
	H415	H	0.620419	0.476978	0.478065
	H416	H	0.615793	0.477628	0.473687
	O417	O	0.382636	0.498062	0.633965
	H418	H	0.382792	0.501662	0.633323
	H419	H	0.387375	0.509803	0.641369
