data_Molecule from HDF5

_cell_length_a		16.282196
_cell_length_b		16.318948
_cell_length_c		16.340050
_cell_angle_alpha	89.933040
_cell_angle_beta	89.840635
_cell_angle_gamma	90.082410
_symmetry_space_group_name_H-M	'P 1'
_symmetry_Int_Tables_number		1

loop_
	_symmetry_equiv_pos_as_xyz
	x,y,z

loop_
	_atom_site_label
	_atom_site_type_symbol
	_atom_site_fract_x
	_atom_site_fract_y
	_atom_site_fract_z
	H0	H	0.405914	0.838691	0.715919
	H1	H	0.603080	0.164886	0.716454
	H2	H	0.604369	0.838793	0.285115
	H3	H	0.405897	0.164751	0.286349
	H4	H	0.718056	0.404384	0.838262
	H5	H	0.719075	0.600957	0.164776
	H6	H	0.290187	0.599954	0.838231
	H7	H	0.289016	0.403103	0.164541
	H8	H	0.841290	0.715773	0.402215
	H9	H	0.168343	0.716484	0.599662
	H10	H	0.841274	0.286379	0.600676
	H11	H	0.167823	0.286311	0.401792
	H12	H	0.841325	0.401179	0.717152
	H13	H	0.167592	0.599834	0.715313
	H14	H	0.841045	0.599163	0.287222
	H15	H	0.168064	0.401894	0.285952
	H16	H	0.405931	0.717173	0.839187
	H17	H	0.602774	0.717065	0.164788
	H18	H	0.603014	0.287019	0.838733
	H19	H	0.403612	0.285931	0.164162
	H20	H	0.719585	0.838718	0.402093
	H21	H	0.718868	0.164844	0.600570
	H22	H	0.288934	0.838786	0.599849
	H23	H	0.290682	0.165561	0.403225
	H24	H	0.903977	0.338047	0.217871
	H25	H	0.104182	0.663417	0.216964
	H26	H	0.102409	0.338364	0.786350
	H27	H	0.905412	0.664270	0.785720
	H28	H	0.219491	0.904591	0.338291
	H29	H	0.216932	0.099556	0.665286
	H30	H	0.790237	0.099787	0.338205
	H31	H	0.788506	0.902654	0.664655
	H32	H	0.340737	0.216306	0.903630
	H33	H	0.667412	0.216543	0.099795
	H34	H	0.340690	0.787081	0.100774
	H35	H	0.667448	0.786972	0.902062
	H36	H	0.340942	0.901849	0.217274
	H37	H	0.666886	0.101140	0.216591
	H38	H	0.340304	0.099101	0.788346
	H39	H	0.667677	0.902700	0.785499
	H40	H	0.904860	0.217844	0.339086
	H41	H	0.101149	0.215947	0.664941
	H42	H	0.104871	0.786681	0.338335
	H43	H	0.904694	0.785432	0.664069
	H44	H	0.217716	0.337353	0.903145
	H45	H	0.217856	0.664522	0.098816
	H46	H	0.789159	0.337630	0.099893
	H47	H	0.789232	0.664784	0.902735
	H48	H	0.414355	0.118903	0.600197
	H49	H	0.594904	0.885724	0.595294
	H50	H	0.601983	0.119713	0.406529
	H51	H	0.401275	0.883686	0.409791
	H52	H	0.588956	0.411107	0.114567
	H53	H	0.600605	0.598406	0.883270
	H54	H	0.418614	0.594232	0.115217
	H55	H	0.415740	0.405867	0.886371
	H56	H	0.124335	0.594532	0.397982
	H57	H	0.883428	0.606011	0.597427
	H58	H	0.119301	0.404684	0.585879
	H59	H	0.886655	0.403655	0.407985
	H60	H	0.119028	0.417747	0.595148
	H61	H	0.892862	0.591770	0.581654
	H62	H	0.121423	0.603582	0.414333
	H63	H	0.890856	0.410543	0.415196
	H64	H	0.407300	0.600968	0.120350
	H65	H	0.599154	0.589563	0.887048
	H66	H	0.597735	0.401641	0.119695
	H67	H	0.407435	0.406170	0.883553
	H68	H	0.592524	0.116885	0.404132
	H69	H	0.594878	0.887257	0.591549
	H70	H	0.412458	0.116615	0.589916
	H71	H	0.414542	0.884679	0.400231
	H72	H	0.919331	0.616384	0.101032
	H73	H	0.095550	0.384832	0.093652
	H74	H	0.089172	0.615617	0.904134
	H75	H	0.913439	0.385236	0.905890
	H76	H	0.086083	0.916189	0.611700
	H77	H	0.102305	0.098552	0.383053
	H78	H	0.917100	0.101953	0.617259
	H79	H	0.902680	0.907389	0.382243
	H80	H	0.619207	0.097476	0.911348
	H81	H	0.385785	0.093962	0.098883
	H82	H	0.621225	0.903584	0.091036
	H83	H	0.389004	0.908295	0.912518
	H84	H	0.617502	0.914330	0.089303
	H85	H	0.387471	0.097816	0.093117
	H86	H	0.619544	0.091184	0.907340
	H87	H	0.388401	0.912536	0.906883
	H88	H	0.901205	0.096517	0.620637
	H89	H	0.097896	0.089941	0.386745
	H90	H	0.094843	0.894867	0.620306
	H91	H	0.914250	0.919917	0.390767
	H92	H	0.099083	0.615642	0.916454
	H93	H	0.097193	0.384851	0.093855
	H94	H	0.913899	0.612536	0.085745
	H95	H	0.912909	0.387082	0.911714
	H96	H	0.404257	0.120548	0.596135
	H97	H	0.597575	0.885574	0.593256
	H98	H	0.596204	0.115197	0.413257
	H99	H	0.415819	0.889107	0.415485
	H100	H	0.601719	0.414432	0.116956
	H101	H	0.592167	0.596260	0.887786
	H102	H	0.406650	0.587102	0.116337
	H103	H	0.411314	0.413021	0.886439
	H104	H	0.117071	0.584798	0.412163
	H105	H	0.888463	0.584979	0.602812
	H106	H	0.124123	0.403800	0.600732
	H107	H	0.888663	0.413860	0.405274
	H108	H	0.903579	0.619695	0.096792
	H109	H	0.095776	0.384334	0.094898
	H110	H	0.104011	0.620765	0.902150
	H111	H	0.908006	0.384797	0.908993
	H112	H	0.109902	0.914270	0.619277
	H113	H	0.092329	0.098208	0.386563
	H114	H	0.913581	0.085462	0.614003
	H115	H	0.920560	0.901926	0.386492
	H116	H	0.622577	0.097120	0.904660
	H117	H	0.388804	0.091573	0.092933
	H118	H	0.621846	0.911003	0.099718
	H119	H	0.386588	0.905920	0.905690
	C120	C	0.382075	0.010706	0.623495
	C121	C	0.624809	0.993782	0.622363
	C122	C	0.626138	0.009723	0.378789
	C123	C	0.382241	0.993764	0.379971
	C124	C	0.625472	0.380466	0.009718
	C125	C	0.625820	0.623554	0.993723
	C126	C	0.382531	0.623043	0.009805
	C127	C	0.382443	0.379933	0.993255
	C128	C	0.012874	0.623039	0.379472
	C129	C	0.996350	0.622679	0.622285
	C130	C	0.012791	0.380180	0.622351
	C131	C	0.996656	0.380389	0.380527
	C132	C	0.882661	0.508982	0.123727
	C133	C	0.125269	0.492393	0.122850
	C134	C	0.126065	0.509447	0.879418
	C135	C	0.882549	0.493202	0.879938
	C136	C	0.125626	0.880412	0.509423
	C137	C	0.125487	0.123580	0.493464
	C138	C	0.881839	0.123974	0.509996
	C139	C	0.882437	0.879908	0.493489
	C140	C	0.512426	0.123426	0.879712
	C141	C	0.495404	0.123442	0.123174
	C142	C	0.512324	0.880479	0.122589
	C143	C	0.496011	0.880123	0.879411
	C144	C	0.384714	0.887522	0.678536
	C145	C	0.622729	0.116392	0.677904
	C146	C	0.624104	0.887362	0.323569
	C147	C	0.385519	0.116448	0.324829
	C148	C	0.680793	0.383252	0.887092
	C149	C	0.680930	0.621191	0.116176
	C150	C	0.327763	0.620545	0.887225
	C151	C	0.326686	0.382305	0.115719
	C152	C	0.890106	0.678100	0.381860
	C153	C	0.119308	0.678489	0.619999
	C154	C	0.889867	0.324475	0.620788
	C155	C	0.119204	0.324357	0.381953
	C156	C	0.889827	0.381946	0.678173
	C157	C	0.119092	0.620505	0.677341
	C158	C	0.890217	0.620429	0.324262
	C159	C	0.119425	0.381969	0.324430
	C160	C	0.385088	0.678888	0.887604
	C161	C	0.623084	0.678870	0.116303
	C162	C	0.623673	0.324882	0.887392
	C163	C	0.383830	0.324196	0.115704
	C164	C	0.681701	0.887410	0.381341
	C165	C	0.680333	0.116349	0.620465
	C166	C	0.327330	0.887314	0.620408
	C167	C	0.328233	0.116755	0.382958
	C168	C	0.884091	0.386432	0.179195
	C169	C	0.123975	0.614880	0.178589
	C170	C	0.123105	0.386736	0.824416
	C171	C	0.884742	0.615801	0.824128
	C172	C	0.181316	0.883744	0.386806
	C173	C	0.179677	0.120455	0.616472
	C174	C	0.827584	0.120943	0.387038
	C175	C	0.826465	0.882096	0.615798
	C176	C	0.389128	0.177794	0.883370
	C177	C	0.618675	0.178637	0.120375
	C178	C	0.389479	0.825058	0.120676
	C179	C	0.618762	0.824780	0.881755
	C180	C	0.389602	0.882006	0.178637
	C181	C	0.618393	0.121530	0.178527
	C182	C	0.389289	0.120203	0.825393
	C183	C	0.618760	0.882106	0.823575
	C184	C	0.884831	0.179366	0.387495
	C185	C	0.122323	0.178328	0.616259
	C186	C	0.124640	0.824888	0.387025
	C187	C	0.884180	0.823947	0.615606
	C188	C	0.180372	0.386415	0.882411
	C189	C	0.180287	0.615392	0.119873
	C190	C	0.827048	0.386401	0.120745
	C191	C	0.827247	0.615928	0.882380
	C192	C	0.403949	0.096296	0.601766
	C193	C	0.602558	0.908306	0.599967
	C194	C	0.603389	0.095375	0.401332
	C195	C	0.404145	0.908009	0.401991
	C196	C	0.602809	0.402761	0.095164
	C197	C	0.603678	0.601308	0.908099
	C198	C	0.404444	0.600601	0.095351
	C199	C	0.404940	0.401743	0.907676
	C200	C	0.099094	0.600826	0.401563
	C201	C	0.910506	0.600626	0.600468
	C202	C	0.098458	0.402190	0.600213
	C203	C	0.910844	0.402835	0.402931
	C204	C	0.905664	0.594208	0.101373
	C205	C	0.102740	0.406882	0.100737
	C206	C	0.103931	0.595252	0.901133
	C207	C	0.904944	0.407794	0.902245
	C208	C	0.103324	0.902120	0.595007
	C209	C	0.103922	0.101929	0.407747
	C210	C	0.904003	0.101224	0.595220
	C211	C	0.905651	0.902888	0.408367
	C212	C	0.598378	0.101528	0.901241
	C213	C	0.409768	0.101139	0.101425
	C214	C	0.597819	0.903001	0.100027
	C215	C	0.410189	0.902423	0.901919
	Zn216	Zn	0.504225	0.001990	0.751140
	Zn217	Zn	0.503798	0.001335	0.250737
	Zn218	Zn	0.754238	0.501994	0.002007
	Zn219	Zn	0.253748	0.500752	0.000952
	Zn220	Zn	0.004465	0.751110	0.500849
	Zn221	Zn	0.004649	0.251942	0.501453
	Zn222	Zn	0.004148	0.501360	0.750929
	Zn223	Zn	0.004605	0.500779	0.251886
	Zn224	Zn	0.504190	0.752090	0.001725
	Zn225	Zn	0.503691	0.251557	0.001636
	Zn226	Zn	0.753506	0.002004	0.501173
	Zn227	Zn	0.253957	0.002511	0.501813
	N228	N	0.418060	0.964961	0.680440
	N229	N	0.589103	0.039029	0.679304
	N230	N	0.590412	0.964788	0.321723
	N231	N	0.418361	0.038898	0.322684
	N232	N	0.681887	0.416995	0.964232
	N233	N	0.682690	0.587702	0.038939
	N234	N	0.326011	0.586553	0.964290
	N235	N	0.325632	0.416057	0.038649
	N236	N	0.967543	0.679952	0.414990
	N237	N	0.041912	0.679919	0.586466
	N238	N	0.967146	0.323364	0.586775
	N239	N	0.041822	0.323449	0.416205
	N240	N	0.967059	0.416106	0.679469
	N241	N	0.041771	0.586631	0.678906
	N242	N	0.967675	0.586783	0.322978
	N243	N	0.042171	0.415899	0.323290
	N244	N	0.418509	0.680459	0.964727
	N245	N	0.589701	0.680577	0.038943
	N246	N	0.589675	0.323165	0.964508
	N247	N	0.417809	0.322686	0.038433
	N248	N	0.682988	0.964594	0.414896
	N249	N	0.681458	0.039340	0.586365
	N250	N	0.325501	0.964757	0.587009
	N251	N	0.326159	0.039435	0.416471
	N252	N	0.917955	0.463533	0.180999
	N253	N	0.090211	0.537490	0.180445
	N254	N	0.089856	0.464245	0.822560
	N255	N	0.918470	0.538610	0.822530
	N256	N	0.181990	0.917616	0.463848
	N257	N	0.181636	0.087205	0.539144
	N258	N	0.825716	0.087235	0.464070
	N259	N	0.825288	0.916203	0.538761
	N260	N	0.466646	0.180028	0.916316
	N261	N	0.541320	0.179862	0.086650
	N262	N	0.466741	0.824164	0.086492
	N263	N	0.541387	0.823290	0.915697
	N264	N	0.466952	0.915981	0.179648
	N265	N	0.540895	0.087820	0.180312
	N266	N	0.466878	0.086950	0.823321
	N267	N	0.541361	0.915696	0.822014
	N268	N	0.917602	0.181664	0.465016
	N269	N	0.089319	0.180282	0.538784
	N270	N	0.090329	0.823059	0.464139
	N271	N	0.918368	0.822528	0.538595
	N272	N	0.182183	0.463735	0.915824
	N273	N	0.181203	0.538366	0.085784
	N274	N	0.826172	0.463583	0.086664
	N275	N	0.825775	0.538773	0.916362
	O276	O	0.540131	0.474351	0.451489
	H277	H	0.553447	0.464159	0.455137
	H278	H	0.542035	0.472915	0.447141
	O279	O	0.013874	-0.061121	0.060212
	H280	H	0.006820	-0.070477	0.056244
	H281	H	0.021383	-0.052887	0.057586
	O282	O	0.580719	0.476129	0.466348
	H283	H	0.580530	0.482023	0.464644
	H284	H	0.574732	0.479440	0.468611
	O285	O	0.566105	0.513632	0.498154
	H286	H	0.565436	0.511548	0.493148
	H287	H	0.563026	0.504320	0.494724
	O288	O	0.960098	-0.063076	0.115906
	H289	H	0.962917	-0.060972	0.117854
	H290	H	0.967106	-0.066627	0.116856
	O291	O	-0.451206	0.498211	-0.479696
	H292	H	-0.445701	0.497788	-0.478877
	H293	H	-0.459067	0.505717	-0.477653
	O294	O	-0.048086	0.908481	0.045758
	H295	H	-0.043912	0.917530	0.065413
	H296	H	-0.059920	0.897845	0.048085
	O297	O	-0.018658	0.951144	0.042033
	H298	H	-0.022633	0.945635	0.044760
	H299	H	-0.015546	0.948424	0.045838
	O300	O	0.958754	-0.092009	1.053965
	H301	H	0.955496	-0.100147	1.044482
	H302	H	0.954881	-0.088761	1.051401
	O303	O	0.538145	0.514892	0.463770
	H304	H	0.540943	0.516144	0.473155
	H305	H	0.541156	0.518464	0.470500
	O306	O	0.532013	1.510394	1.518550
	H307	H	0.536970	1.507200	1.506996
	H308	H	0.535386	1.513239	1.515051
	O309	O	0.566841	0.495724	0.510546
	H310	H	0.562760	0.483223	0.508411
	H311	H	0.573518	0.499762	0.514139
