data_Molecule from HDF5

_cell_length_a		16.484556
_cell_length_b		16.171550
_cell_length_c		16.220171
_cell_angle_alpha	90.374440
_cell_angle_beta	89.378518
_cell_angle_gamma	89.931849
_symmetry_space_group_name_H-M	'P 1'
_symmetry_Int_Tables_number		1

loop_
	_symmetry_equiv_pos_as_xyz
	x,y,z

loop_
	_atom_site_label
	_atom_site_type_symbol
	_atom_site_fract_x
	_atom_site_fract_y
	_atom_site_fract_z
	H0	H	0.401739	0.840453	0.703714
	H1	H	0.595850	0.169350	0.702125
	H2	H	0.602476	0.842066	0.269525
	H3	H	0.403088	0.169654	0.280747
	H4	H	0.719712	0.399037	0.827690
	H5	H	0.716557	0.609406	0.152065
	H6	H	0.282519	0.606130	0.827016
	H7	H	0.280344	0.402925	0.151949
	H8	H	0.838415	0.721246	0.391109
	H9	H	0.161213	0.719353	0.588069
	H10	H	0.838727	0.286011	0.592058
	H11	H	0.162018	0.287662	0.389129
	H12	H	0.838417	0.403285	0.708268
	H13	H	0.160600	0.603553	0.704871
	H14	H	0.837370	0.602739	0.275715
	H15	H	0.161005	0.402907	0.270253
	H16	H	0.402131	0.717849	0.825510
	H17	H	0.597403	0.721849	0.152833
	H18	H	0.597891	0.289441	0.824753
	H19	H	0.401615	0.293654	0.154710
	H20	H	0.718645	0.840852	0.384437
	H21	H	0.717147	0.166285	0.593305
	H22	H	0.282185	0.841561	0.593648
	H23	H	0.284111	0.167314	0.391601
	H24	H	0.899410	0.338096	0.202994
	H25	H	0.095631	0.667159	0.204548
	H26	H	0.098653	0.338694	0.773279
	H27	H	0.902119	0.668140	0.777809
	H28	H	0.220088	0.899877	0.328153
	H29	H	0.214427	0.108170	0.653087
	H30	H	0.783283	0.106534	0.327967
	H31	H	0.778008	0.898930	0.650747
	H32	H	0.337287	0.218285	0.894802
	H33	H	0.659961	0.222534	0.087930
	H34	H	0.338938	0.786208	0.094277
	H35	H	0.660705	0.784839	0.884446
	H36	H	0.339188	0.904615	0.210869
	H37	H	0.660168	0.108721	0.207837
	H38	H	0.337777	0.104476	0.777231
	H39	H	0.660360	0.902484	0.768849
	H40	H	0.903718	0.215628	0.325359
	H41	H	0.094362	0.218861	0.653440
	H42	H	0.100318	0.788590	0.325914
	H43	H	0.900826	0.791039	0.654237
	H44	H	0.216938	0.339857	0.885373
	H45	H	0.217368	0.664809	0.094316
	H46	H	0.779923	0.340927	0.092995
	H47	H	0.780935	0.665100	0.886578
	H48	H	0.405379	0.123831	0.589446
	H49	H	0.587478	0.892036	0.571735
	H50	H	0.590225	0.121321	0.394654
	H51	H	0.409331	0.889828	0.406709
	H52	H	0.580772	0.420092	0.100326
	H53	H	0.600337	0.594277	0.870594
	H54	H	0.405088	0.592907	0.104429
	H55	H	0.411023	0.418749	0.876583
	H56	H	0.110085	0.586358	0.397742
	H57	H	0.887132	0.594879	0.577725
	H58	H	0.113592	0.414084	0.583417
	H59	H	0.885521	0.412153	0.396401
	H60	H	0.115374	0.407962	0.582152
	H61	H	0.883877	0.592253	0.590074
	H62	H	0.116660	0.596190	0.386559
	H63	H	0.884046	0.407964	0.396238
	H64	H	0.408065	0.593732	0.104520
	H65	H	0.591643	0.582537	0.878321
	H66	H	0.590018	0.402349	0.109471
	H67	H	0.410898	0.401158	0.870662
	H68	H	0.589215	0.117688	0.406463
	H69	H	0.599238	0.885007	0.578526
	H70	H	0.410866	0.118852	0.580758
	H71	H	0.403585	0.885287	0.397139
	H72	H	0.905899	0.619282	0.081329
	H73	H	0.093384	0.385547	0.077012
	H74	H	0.095934	0.621044	0.897079
	H75	H	0.908088	0.387802	0.904015
	H76	H	0.090791	0.912963	0.607152
	H77	H	0.106653	0.096377	0.369220
	H78	H	0.907090	0.093114	0.605185
	H79	H	0.905381	0.907474	0.370650
	H80	H	0.615797	0.102696	0.895009
	H81	H	0.384839	0.101241	0.083788
	H82	H	0.610352	0.909256	0.067767
	H83	H	0.385446	0.914851	0.892159
	H84	H	0.609491	0.925701	0.079236
	H85	H	0.386053	0.095450	0.086713
	H86	H	0.612533	0.095205	0.900290
	H87	H	0.384600	0.904974	0.899137
	H88	H	0.906527	0.095119	0.606204
	H89	H	0.094492	0.082021	0.376831
	H90	H	0.092439	0.912135	0.607328
	H91	H	0.906702	0.919289	0.374907
	H92	H	0.089684	0.619408	0.897632
	H93	H	0.090018	0.386036	0.081060
	H94	H	0.906425	0.619972	0.081971
	H95	H	0.904904	0.385466	0.897960
	H96	H	0.399719	0.122487	0.579862
	H97	H	0.585911	0.886708	0.586304
	H98	H	0.598834	0.122702	0.401839
	H99	H	0.415425	0.888158	0.396877
	H100	H	0.601278	0.420686	0.107174
	H101	H	0.584664	0.597471	0.874525
	H102	H	0.405223	0.595159	0.106253
	H103	H	0.396315	0.411458	0.868979
	H104	H	0.114277	0.601401	0.401599
	H105	H	0.882167	0.603612	0.585385
	H106	H	0.113340	0.411751	0.577266
	H107	H	0.886464	0.408937	0.399535
	H108	H	0.906783	0.619344	0.082557
	H109	H	0.088742	0.387742	0.075850
	H110	H	0.092963	0.618934	0.902472
	H111	H	0.911849	0.387492	0.897076
	H112	H	0.092541	0.913876	0.606387
	H113	H	0.086951	0.101078	0.372711
	H114	H	0.904773	0.093100	0.606064
	H115	H	0.915941	0.911735	0.375724
	H116	H	0.614897	0.093478	0.890873
	H117	H	0.382851	0.099758	0.090217
	H118	H	0.617071	0.909102	0.087288
	H119	H	0.389297	0.915617	0.904146
	C120	C	0.376627	0.013494	0.612959
	C121	C	0.620271	0.995799	0.609891
	C122	C	0.622727	0.013057	0.368591
	C123	C	0.380113	0.995936	0.371139
	C124	C	0.620719	0.382949	-0.002118
	C125	C	0.621256	0.624427	0.981682
	C126	C	0.377480	0.624582	-0.002408
	C127	C	0.376932	0.382038	0.980658
	C128	C	0.007084	0.624665	0.367699
	C129	C	0.991263	0.625917	0.612453
	C130	C	0.007589	0.381547	0.611749
	C131	C	0.991564	0.379979	0.366670
	C132	C	0.876616	0.511428	0.111423
	C133	C	0.119881	0.494189	0.109440
	C134	C	0.121889	0.511443	0.868044
	C135	C	0.878658	0.494492	0.869629
	C136	C	0.122419	0.882003	0.498867
	C137	C	0.121653	0.123742	0.481389
	C138	C	0.878255	0.123878	0.498245
	C139	C	0.878710	0.882642	0.481256
	C140	C	0.507853	0.126349	0.868112
	C141	C	0.490869	0.128615	0.114231
	C142	C	0.506978	0.884178	0.110871
	C143	C	0.492058	0.881511	0.866604
	C144	C	0.380302	0.889917	0.667213
	C145	C	0.617282	0.119605	0.665681
	C146	C	0.621962	0.890360	0.309245
	C147	C	0.382786	0.120229	0.317385
	C148	C	0.679351	0.381144	0.875777
	C149	C	0.677333	0.627114	0.103766
	C150	C	0.321326	0.624873	0.875426
	C151	C	0.319665	0.383338	0.103532
	C152	C	0.886291	0.682079	0.370633
	C153	C	0.112796	0.681445	0.608991
	C154	C	0.886651	0.325109	0.611144
	C155	C	0.113492	0.325171	0.368075
	C156	C	0.886708	0.383070	0.669804
	C157	C	0.112508	0.623697	0.667026
	C158	C	0.885733	0.623289	0.312997
	C159	C	0.112795	0.382116	0.308829
	C160	C	0.380847	0.680552	0.874647
	C161	C	0.618345	0.683297	0.104146
	C162	C	0.618764	0.326593	0.874354
	C163	C	0.380025	0.329246	0.104815
	C164	C	0.680234	0.890072	0.365648
	C165	C	0.677467	0.118040	0.611081
	C166	C	0.321050	0.890338	0.612307
	C167	C	0.323302	0.118901	0.372342
	C168	C	0.878509	0.387749	0.166470
	C169	C	0.117075	0.617756	0.166700
	C170	C	0.119721	0.388263	0.810763
	C171	C	0.880666	0.618478	0.814466
	C172	C	0.180747	0.881303	0.376689
	C173	C	0.175965	0.125931	0.604422
	C174	C	0.822140	0.124600	0.376072
	C175	C	0.818876	0.881387	0.602953
	C176	C	0.385765	0.181050	0.873191
	C177	C	0.611855	0.184862	0.109855
	C178	C	0.387018	0.825735	0.112787
	C179	C	0.612391	0.823347	0.865305
	C180	C	0.386948	0.884422	0.170993
	C181	C	0.611837	0.128250	0.169462
	C182	C	0.386103	0.124250	0.814788
	C183	C	0.612471	0.882262	0.807890
	C184	C	0.882141	0.178953	0.374947
	C185	C	0.116371	0.180959	0.604607
	C186	C	0.121240	0.825728	0.375650
	C187	C	0.880109	0.827883	0.604827
	C188	C	0.178245	0.388529	0.866986
	C189	C	0.177473	0.616628	0.111950
	C190	C	0.819169	0.389161	0.111542
	C191	C	0.820872	0.617176	0.868909
	C192	C	0.398683	0.099482	0.590096
	C193	C	0.597458	0.909990	0.585850
	C194	C	0.599716	0.098381	0.393852
	C195	C	0.402800	0.910129	0.393641
	C196	C	0.597357	0.407210	0.083554
	C197	C	0.598703	0.598855	0.896567
	C198	C	0.399654	0.600845	0.082904
	C199	C	0.399437	0.404058	0.894410
	C200	C	0.091699	0.601388	0.389030
	C201	C	0.906370	0.603466	0.590758
	C202	C	0.092080	0.404498	0.587787
	C203	C	0.907099	0.402860	0.390561
	C204	C	0.899543	0.597210	0.088579
	C205	C	0.097386	0.408575	0.085022
	C206	C	0.099415	0.597474	0.892036
	C207	C	0.901576	0.409169	0.892994
	C208	C	0.098697	0.905928	0.584634
	C209	C	0.101901	0.100027	0.395334
	C210	C	0.899803	0.100524	0.583525
	C211	C	0.902611	0.905870	0.396027
	C212	C	0.592380	0.103767	0.889085
	C213	C	0.406392	0.105638	0.093227
	C214	C	0.590590	0.907858	0.085513
	C215	C	0.408209	0.905088	0.891275
	Zn216	Zn	0.499691	0.005051	0.738375
	Zn217	Zn	0.500232	0.005434	0.242688
	Zn218	Zn	0.750005	0.503497	-0.009916
	Zn219	Zn	0.249281	0.502873	-0.011057
	Zn220	Zn	-0.000209	0.754420	0.489956
	Zn221	Zn	0.000019	0.251293	0.489121
	Zn222	Zn	-0.000496	0.503880	0.741680
	Zn223	Zn	-0.001610	0.502255	0.237903
	Zn224	Zn	0.499669	0.752391	-0.010853
	Zn225	Zn	0.499050	0.255464	-0.010490
	Zn226	Zn	0.749890	0.003388	0.489641
	Zn227	Zn	0.250329	0.004080	0.491257
	N228	N	0.414008	0.967602	0.667896
	N229	N	0.582287	0.042525	0.664971
	N230	N	0.587152	0.967699	0.310765
	N231	N	0.417453	0.042701	0.316594
	N232	N	0.680581	0.415379	0.953612
	N233	N	0.679315	0.591474	0.026538
	N234	N	0.319067	0.590898	0.952999
	N235	N	0.317744	0.415368	0.025229
	N236	N	0.962777	0.683112	0.403725
	N237	N	0.036212	0.683167	0.575982
	N238	N	0.962912	0.323803	0.575926
	N239	N	0.037310	0.324001	0.403423
	N240	N	0.963068	0.417408	0.670205
	N241	N	0.035886	0.590163	0.669359
	N242	N	0.961816	0.588183	0.311228
	N243	N	0.035965	0.415511	0.307839
	N244	N	0.414843	0.680586	0.951698
	N245	N	0.584470	0.681835	0.027001
	N246	N	0.583000	0.327591	0.951440
	N247	N	0.414933	0.328318	0.027400
	N248	N	0.680834	0.967336	0.401838
	N249	N	0.679396	0.039950	0.577190
	N250	N	0.318684	0.968274	0.579144
	N251	N	0.321488	0.040623	0.405059
	N252	N	0.913276	0.465022	0.166725
	N253	N	0.081917	0.540630	0.165089
	N254	N	0.085135	0.465693	0.811604
	N255	N	0.915929	0.541499	0.814740
	N256	N	0.181726	0.915575	0.454558
	N257	N	0.179174	0.090948	0.526914
	N258	N	0.819293	0.091164	0.453800
	N259	N	0.818045	0.915028	0.525181
	N260	N	0.462393	0.182522	0.905709
	N261	N	0.535647	0.185326	0.076464
	N262	N	0.462600	0.825489	0.075961
	N263	N	0.536498	0.822954	0.901387
	N264	N	0.462581	0.920106	0.169804
	N265	N	0.535699	0.093936	0.172265
	N266	N	0.462785	0.090651	0.811454
	N267	N	0.536615	0.917516	0.808383
	N268	N	0.916228	0.178711	0.451747
	N269	N	0.083581	0.179978	0.527037
	N270	N	0.085778	0.825959	0.452686
	N271	N	0.916513	0.828374	0.528161
	N272	N	0.179838	0.466332	0.901756
	N273	N	0.179190	0.539012	0.076802
	N274	N	0.817885	0.467065	0.078105
	N275	N	0.819538	0.539285	0.902542
	O276	O	0.899656	-0.040822	1.032085
	H277	H	0.906876	-0.034984	1.037130
	H278	H	0.890012	-0.035581	1.019120
	O279	O	0.514242	0.492785	0.595286
	H280	H	0.512060	0.483389	0.593761
	H281	H	0.511284	0.481065	0.598252
	O282	O	0.027594	-0.092702	-0.088392
	H283	H	0.041362	-0.085678	-0.078767
	H284	H	0.036752	-0.086027	-0.096213
	O285	O	0.472688	0.491145	0.468896
	H286	H	0.476514	0.487177	0.468956
	H287	H	0.472788	0.501430	0.464584
	O288	O	0.446616	0.400393	0.516336
	H289	H	0.443245	0.394083	0.514473
	H290	H	0.445536	0.406897	0.521221
	O291	O	0.001707	0.027256	0.990569
	H292	H	0.003520	0.020222	0.992096
	H293	H	-0.018390	0.020313	0.990107
	O294	O	0.889563	0.868865	0.116026
	H295	H	0.882238	0.867392	0.101516
	H296	H	0.888595	0.874209	0.113507
	O297	O	1.058002	1.101288	0.149326
	H298	H	1.057101	1.096127	0.161993
	H299	H	1.045497	1.094182	0.135997
	O300	O	0.468041	0.531880	0.474677
	H301	H	0.473110	0.534140	0.486356
	H302	H	0.474783	0.525504	0.468655
	O303	O	0.596570	0.552556	0.459042
	H304	H	0.596423	0.559754	0.463852
	H305	H	0.592790	0.561377	0.458962
	O306	O	0.134532	0.981769	0.872342
	H307	H	0.135233	0.972896	0.884350
	H308	H	0.151233	0.970148	0.868225
	O309	O	0.521648	0.547536	0.419239
	H310	H	0.515190	0.556653	0.415770
	H311	H	0.523661	0.547259	0.415704
	O312	O	1.038044	1.027975	1.021014
	H313	H	1.042857	1.031167	1.024769
	H314	H	1.037368	1.028252	1.021427
	O315	O	1.013095	1.034128	0.025910
	H316	H	1.013166	1.036960	0.009235
	H317	H	1.019781	1.031447	0.021434
	O318	O	0.956968	-0.028032	0.911152
	H319	H	0.957941	-0.023202	0.909637
	H320	H	0.962063	-0.029103	0.904358
	O321	O	0.468679	0.401877	0.549542
	H322	H	0.468348	0.395035	0.553720
	H323	H	0.470374	0.408872	0.542574
	O324	O	0.039090	0.978964	0.992168
	H325	H	0.036510	0.980957	0.999765
	H326	H	0.044313	0.975025	0.992697
	O327	O	0.009447	1.037665	0.929372
	H328	H	0.014332	1.041875	0.926407
	H329	H	-0.005331	1.040193	0.931506
	O330	O	-0.568227	-0.404355	-0.438765
	H331	H	-0.563491	-0.408925	-0.439543
	H332	H	-0.563360	-0.412290	-0.439712
	O333	O	0.509319	0.470190	0.509883
	H334	H	0.499306	0.459942	0.506712
	H335	H	0.515919	0.463290	0.515028
	O336	O	-0.104838	-0.078484	0.033344
	H337	H	-0.115311	-0.087480	0.025389
	H338	H	-0.100763	-0.073593	0.031184
	O339	O	0.103278	-0.106841	-0.055830
	H340	H	0.106168	-0.119390	-0.046174
	H341	H	0.116804	-0.103888	-0.064612
	O342	O	1.029744	0.031923	0.951848
	H343	H	1.035454	0.035593	0.958218
	H344	H	1.039407	0.023306	0.949962
	O345	O	-0.012300	1.047290	0.993938
	H346	H	-0.012771	1.049705	0.998059
	H347	H	-0.008251	1.047927	0.995288
	O348	O	0.514098	0.457449	0.439413
	H349	H	0.524284	0.451920	0.422030
	H350	H	0.522510	0.444676	0.438379
	O351	O	0.613374	0.572338	0.490159
	H352	H	0.616692	0.567307	0.490553
	H353	H	0.613214	0.585098	0.490481
	O354	O	-0.448267	1.490254	0.457900
	H355	H	-0.448546	1.488418	0.461833
	H356	H	-0.457559	1.489651	0.461151
	O357	O	0.588904	0.545074	0.577583
	H358	H	0.598032	0.546584	0.585214
	H359	H	0.591375	0.549546	0.562914
	O360	O	1.035896	-0.022997	0.803199
	H361	H	1.040769	-0.019405	0.803325
	H362	H	1.045270	-0.031915	0.793197
	O363	O	0.552796	0.408978	0.538428
	H364	H	0.554584	0.410466	0.522959
	H365	H	0.553843	0.409309	0.539559
	O366	O	1.153157	0.879363	-0.078151
	H367	H	1.151762	0.872386	-0.068937
	H368	H	1.157853	0.875782	-0.079965
	O369	O	0.890603	-0.008168	-0.055877
	H370	H	0.889315	0.001929	-0.074765
	H371	H	0.887787	-0.012303	-0.051554
	O372	O	0.463977	0.621346	0.431248
	H373	H	0.470159	0.634258	0.421975
	H374	H	0.457164	0.613741	0.436563
	O375	O	1.019061	0.062087	1.103302
	H376	H	1.026317	0.070505	1.109972
	H377	H	1.011237	0.061351	1.115138
	O378	O	-0.079111	1.063716	0.098571
	H379	H	-0.075103	1.068721	0.094420
	H380	H	-0.073521	1.061766	0.104932
	O381	O	-0.535427	1.541688	1.451814
	H382	H	-0.535970	1.545321	1.445226
	H383	H	-0.541405	1.544514	1.458757
	O384	O	0.942431	1.028235	0.101589
	H385	H	0.934251	1.022112	0.090697
	H386	H	0.936803	1.027005	0.096187
	O387	O	0.982975	0.007847	0.879853
	H388	H	0.983236	-0.003189	0.875805
	H389	H	0.983822	-0.001799	0.892876
	O390	O	1.547271	0.461282	0.415247
	H391	H	1.563836	0.465727	0.409854
	H392	H	1.542411	0.456324	0.418053
	O393	O	0.462518	0.447148	0.498027
	H394	H	0.473284	0.446902	0.509268
	H395	H	0.466633	0.442041	0.489521
