data_Molecule from HDF5

_cell_length_a		16.548053
_cell_length_b		16.507055
_cell_length_c		16.476432
_cell_angle_alpha	90.035751
_cell_angle_beta	90.103965
_cell_angle_gamma	90.043503
_symmetry_space_group_name_H-M	'P 1'
_symmetry_Int_Tables_number		1

loop_
	_symmetry_equiv_pos_as_xyz
	x,y,z

loop_
	_atom_site_label
	_atom_site_type_symbol
	_atom_site_fract_x
	_atom_site_fract_y
	_atom_site_fract_z
	H0	H	0.392662	0.847298	0.724725
	H1	H	0.600935	0.162430	0.724867
	H2	H	0.599306	0.846077	0.285719
	H3	H	0.392035	0.162790	0.282833
	H4	H	0.718020	0.401667	0.847688
	H5	H	0.720098	0.612152	0.162122
	H6	H	0.275877	0.610585	0.847047
	H7	H	0.278166	0.401321	0.164229
	H8	H	0.839934	0.724645	0.401574
	H9	H	0.155018	0.727005	0.610129
	H10	H	0.838378	0.289542	0.604988
	H11	H	0.153309	0.282314	0.397393
	H12	H	0.838900	0.405481	0.721696
	H13	H	0.155926	0.609161	0.725078
	H14	H	0.840110	0.607538	0.285119
	H15	H	0.154052	0.398804	0.282465
	H16	H	0.392909	0.725989	0.846520
	H17	H	0.601412	0.726363	0.162861
	H18	H	0.600062	0.286039	0.847072
	H19	H	0.395740	0.286145	0.164246
	H20	H	0.717755	0.847090	0.400029
	H21	H	0.719700	0.160956	0.611198
	H22	H	0.275891	0.847619	0.608895
	H23	H	0.274105	0.162518	0.396961
	H24	H	0.894823	0.345855	0.223300
	H25	H	0.097438	0.663796	0.222676
	H26	H	0.100084	0.345628	0.786973
	H27	H	0.898983	0.665039	0.789261
	H28	H	0.216387	0.901146	0.346365
	H29	H	0.215444	0.108205	0.663347
	H30	H	0.776412	0.108388	0.345825
	H31	H	0.780098	0.904090	0.663813
	H32	H	0.338858	0.225224	0.902702
	H33	H	0.655139	0.225244	0.109829
	H34	H	0.340382	0.784798	0.108304
	H35	H	0.654959	0.786985	0.902445
	H36	H	0.339252	0.902990	0.223705
	H37	H	0.654625	0.109418	0.226671
	H38	H	0.338925	0.108505	0.786084
	H39	H	0.656754	0.905698	0.788925
	H40	H	0.893266	0.224651	0.345420
	H41	H	0.098448	0.222774	0.664141
	H42	H	0.098569	0.785025	0.346979
	H43	H	0.894905	0.786583	0.663658
	H44	H	0.217148	0.346684	0.902406
	H45	H	0.215579	0.663896	0.106448
	H46	H	0.777551	0.347223	0.108693
	H47	H	0.781746	0.665002	0.905080
	H48	H	0.404966	0.119040	0.593891
	H49	H	0.582387	0.894200	0.594008
	H50	H	0.583463	0.116506	0.413500
	H51	H	0.412179	0.895321	0.416539
	H52	H	0.583258	0.410407	0.118219
	H53	H	0.589727	0.598082	0.891260
	H54	H	0.403675	0.594633	0.118702
	H55	H	0.406171	0.417306	0.892524
	H56	H	0.109284	0.594595	0.415364
	H57	H	0.885745	0.590574	0.601560
	H58	H	0.112291	0.412982	0.597483
	H59	H	0.883037	0.413751	0.409277
	H60	H	0.111095	0.414201	0.593980
	H61	H	0.881714	0.602979	0.600527
	H62	H	0.108955	0.595173	0.417511
	H63	H	0.885196	0.410940	0.420043
	H64	H	0.410038	0.591505	0.115330
	H65	H	0.589742	0.593156	0.891727
	H66	H	0.594479	0.414359	0.121442
	H67	H	0.409461	0.416472	0.893866
	H68	H	0.585340	0.115144	0.419771
	H69	H	0.591818	0.891537	0.590511
	H70	H	0.405892	0.118246	0.596250
	H71	H	0.402678	0.893672	0.419692
	H72	H	0.901658	0.617115	0.085126
	H73	H	0.088076	0.391555	0.096100
	H74	H	0.097435	0.618623	0.922526
	H75	H	0.907962	0.392013	0.913493
	H76	H	0.084641	0.913004	0.618287
	H77	H	0.083780	0.098253	0.390651
	H78	H	0.902379	0.093722	0.617980
	H79	H	0.904838	0.919262	0.391529
	H80	H	0.609610	0.091811	0.912156
	H81	H	0.387865	0.092448	0.087474
	H82	H	0.604693	0.925136	0.086379
	H83	H	0.383125	0.915107	0.913123
	H84	H	0.612303	0.919835	0.107446
	H85	H	0.383991	0.090712	0.101261
	H86	H	0.612120	0.100410	0.912305
	H87	H	0.384954	0.914498	0.916426
	H88	H	0.911171	0.093179	0.615495
	H89	H	0.090620	0.094540	0.390453
	H90	H	0.091531	0.917090	0.619011
	H91	H	0.910787	0.913234	0.392361
	H92	H	0.089905	0.622116	0.904693
	H93	H	0.087129	0.392704	0.093111
	H94	H	0.904371	0.622793	0.105168
	H95	H	0.906487	0.391784	0.915149
	H96	H	0.407475	0.118188	0.594305
	H97	H	0.588985	0.888922	0.600185
	H98	H	0.589660	0.118476	0.415860
	H99	H	0.405554	0.890997	0.410682
	H100	H	0.586223	0.422470	0.116023
	H101	H	0.585253	0.595351	0.892911
	H102	H	0.410294	0.598801	0.118121
	H103	H	0.407294	0.414035	0.891986
	H104	H	0.109462	0.593222	0.417243
	H105	H	0.886691	0.596723	0.589906
	H106	H	0.111187	0.416464	0.596079
	H107	H	0.887364	0.421058	0.416316
	H108	H	0.920153	0.613657	0.094570
	H109	H	0.090841	0.390855	0.093252
	H110	H	0.078439	0.614036	0.918354
	H111	H	0.905791	0.391360	0.913087
	H112	H	0.084884	0.920445	0.615495
	H113	H	0.083997	0.090704	0.393434
	H114	H	0.907608	0.101198	0.618976
	H115	H	0.903870	0.911597	0.389507
	H116	H	0.608313	0.096674	0.919661
	H117	H	0.382158	0.103256	0.094671
	H118	H	0.612739	0.904218	0.090598
	H119	H	0.384537	0.917851	0.915358
	C120	C	0.375350	0.013888	0.626154
	C121	C	0.618931	0.995834	0.626487
	C122	C	0.617945	0.012748	0.384036
	C123	C	0.374642	0.997026	0.382744
	C124	C	0.618937	0.384679	0.013592
	C125	C	0.619394	0.627133	0.996395
	C126	C	0.376031	0.627118	0.012973
	C127	C	0.376542	0.384468	0.997475
	C128	C	0.005506	0.625767	0.384640
	C129	C	0.989124	0.627916	0.627996
	C130	C	0.006363	0.384512	0.626036
	C131	C	0.988873	0.382836	0.382659
	C132	C	0.876947	0.513582	0.126362
	C133	C	0.119042	0.496447	0.125766
	C134	C	0.120041	0.513433	0.883520
	C135	C	0.876971	0.497165	0.883981
	C136	C	0.117938	0.884525	0.513080
	C137	C	0.117449	0.126049	0.496247
	C138	C	0.875211	0.127144	0.512862
	C139	C	0.875910	0.884153	0.496133
	C140	C	0.505472	0.127672	0.883466
	C141	C	0.488863	0.126488	0.126545
	C142	C	0.505738	0.884555	0.126061
	C143	C	0.488818	0.884852	0.883938
	C144	C	0.374079	0.894692	0.685243
	C145	C	0.620049	0.114871	0.685688
	C146	C	0.618606	0.893793	0.324915
	C147	C	0.373114	0.115481	0.322612
	C148	C	0.677977	0.383120	0.894796
	C149	C	0.679529	0.629978	0.115003
	C150	C	0.316058	0.628870	0.894491
	C151	C	0.317673	0.382890	0.116635
	C152	C	0.886869	0.684573	0.383118
	C153	C	0.107591	0.687386	0.629031
	C154	C	0.886662	0.327654	0.625254
	C155	C	0.106546	0.322563	0.379729
	C156	C	0.886772	0.385499	0.683165
	C157	C	0.108372	0.628698	0.686160
	C158	C	0.887074	0.626699	0.325196
	C159	C	0.106984	0.380524	0.322480
	C160	C	0.374221	0.686409	0.894109
	C161	C	0.620843	0.687091	0.115124
	C162	C	0.619363	0.325688	0.894564
	C163	C	0.375755	0.325322	0.116683
	C164	C	0.677485	0.894218	0.381833
	C165	C	0.678878	0.114236	0.628968
	C166	C	0.315776	0.895191	0.627793
	C167	C	0.314477	0.115265	0.379537
	C168	C	0.876044	0.393944	0.184549
	C169	C	0.118215	0.616358	0.183748
	C170	C	0.119488	0.393656	0.825822
	C171	C	0.879002	0.617417	0.827987
	C172	C	0.176339	0.882787	0.393800
	C173	C	0.176061	0.126913	0.615846
	C174	C	0.816070	0.127668	0.393574
	C175	C	0.818448	0.884081	0.615921
	C176	C	0.386492	0.186189	0.883099
	C177	C	0.607808	0.185495	0.128263
	C178	C	0.387291	0.824853	0.127114
	C179	C	0.607854	0.826775	0.883583
	C180	C	0.386666	0.883267	0.184457
	C181	C	0.607635	0.127976	0.186444
	C182	C	0.386390	0.128111	0.825099
	C183	C	0.608541	0.885404	0.826829
	C184	C	0.874455	0.185234	0.393169
	C185	C	0.117686	0.183961	0.616124
	C186	C	0.117976	0.825178	0.393899
	C187	C	0.875875	0.826093	0.615922
	C188	C	0.177682	0.393949	0.883138
	C189	C	0.176499	0.616366	0.126233
	C190	C	0.817421	0.394674	0.127626
	C191	C	0.820622	0.617150	0.885237
	C192	C	0.399481	0.096856	0.601798
	C193	C	0.594691	0.913042	0.601864
	C194	C	0.593270	0.095348	0.409250
	C195	C	0.399724	0.914691	0.408357
	C196	C	0.594975	0.409000	0.096946
	C197	C	0.595069	0.602459	0.913658
	C198	C	0.400951	0.602321	0.095651
	C199	C	0.400685	0.408881	0.914427
	C200	C	0.087894	0.601364	0.409618
	C201	C	0.906181	0.603810	0.603983
	C202	C	0.089778	0.407860	0.602518
	C203	C	0.906669	0.407919	0.407823
	C204	C	0.901512	0.596536	0.101900
	C205	C	0.095625	0.413384	0.101342
	C206	C	0.095830	0.596682	0.908103
	C207	C	0.899881	0.413450	0.907384
	C208	C	0.093706	0.909371	0.596117
	C209	C	0.093220	0.101592	0.413075
	C210	C	0.899952	0.102936	0.595956
	C211	C	0.899579	0.907839	0.412750
	C212	C	0.588475	0.103409	0.907716
	C213	C	0.406265	0.102275	0.101750
	C214	C	0.588453	0.909385	0.101877
	C215	C	0.405669	0.908852	0.907980
	Zn216	Zn	0.496922	0.005111	0.754817
	Zn217	Zn	0.497020	0.005578	0.255197
	Zn218	Zn	0.748151	0.505568	0.005644
	Zn219	Zn	0.247937	0.504731	0.005248
	Zn220	Zn	-0.003073	0.755624	0.505080
	Zn221	Zn	-0.002940	0.255512	0.504451
	Zn222	Zn	-0.001490	0.505557	0.755428
	Zn223	Zn	-0.001942	0.504783	0.255105
	Zn224	Zn	0.497704	0.755818	0.004744
	Zn225	Zn	0.497277	0.255686	0.005959
	Zn226	Zn	0.747070	0.004589	0.504725
	Zn227	Zn	0.246830	0.005781	0.504346
	N228	N	0.410241	0.969663	0.684554
	N229	N	0.583308	0.040306	0.684324
	N230	N	0.582333	0.968490	0.326189
	N231	N	0.409668	0.040922	0.324356
	N232	N	0.677842	0.418910	0.970004
	N233	N	0.678852	0.593318	0.040245
	N234	N	0.317045	0.592632	0.969422
	N235	N	0.317985	0.418781	0.041348
	N236	N	0.961634	0.684085	0.419582
	N237	N	0.032257	0.687204	0.593660
	N238	N	0.962122	0.326687	0.590649
	N239	N	0.032057	0.323737	0.416487
	N240	N	0.962468	0.419833	0.684113
	N241	N	0.033587	0.592675	0.685865
	N242	N	0.961850	0.590921	0.325978
	N243	N	0.032818	0.417176	0.324010
	N244	N	0.410776	0.685653	0.968941
	N245	N	0.584172	0.685567	0.040458
	N246	N	0.583478	0.326518	0.969516
	N247	N	0.411726	0.326245	0.041723
	N248	N	0.677289	0.969398	0.417824
	N249	N	0.678209	0.039319	0.592824
	N250	N	0.316267	0.970282	0.591868
	N251	N	0.315115	0.040418	0.416190
	N252	N	0.912167	0.469000	0.183949
	N253	N	0.083311	0.540716	0.183658
	N254	N	0.084661	0.469329	0.825742
	N255	N	0.913029	0.541551	0.826799
	N256	N	0.176563	0.918735	0.469066
	N257	N	0.176205	0.091850	0.540104
	N258	N	0.816085	0.092394	0.469150
	N259	N	0.818474	0.919395	0.540589
	N260	N	0.461698	0.185914	0.918735
	N261	N	0.533006	0.184946	0.091871
	N262	N	0.462440	0.825434	0.091755
	N263	N	0.532274	0.826110	0.918186
	N264	N	0.461350	0.919534	0.183948
	N265	N	0.532714	0.092128	0.185612
	N266	N	0.461430	0.092741	0.824953
	N267	N	0.533392	0.920592	0.826850
	N268	N	0.910097	0.185218	0.468499
	N269	N	0.081990	0.183660	0.540757
	N270	N	0.082679	0.826080	0.469158
	N271	N	0.910593	0.825602	0.540162
	N272	N	0.178189	0.469539	0.918130
	N273	N	0.177350	0.540817	0.091224
	N274	N	0.817618	0.470092	0.092422
	N275	N	0.819167	0.541260	0.919293
	O276	O	0.531668	0.637746	0.451517
	H277	H	0.518925	0.649735	0.458550
	H278	H	0.530195	0.637450	0.470799
	O279	O	0.685633	0.321168	0.694095
	H280	H	0.661812	0.335720	0.674269
	H281	H	0.670475	0.341574	0.675767
	O282	O	1.021198	1.212168	0.206435
	H283	H	1.009126	1.214963	0.223137
	H284	H	1.014014	1.226643	0.186604
	O285	O	0.294276	0.711665	0.298635
	H286	H	0.275817	0.738762	0.268235
	H287	H	0.299313	0.683282	0.289535
	O288	O	-0.038468	0.011653	-0.044868
	H289	H	-0.043595	0.009068	-0.059939
	H290	H	-0.036824	0.025581	-0.053458
	O291	O	1.044189	0.885607	-0.024498
	H292	H	1.042450	0.905516	-0.023010
	H293	H	1.038843	0.894412	-0.023387
	O294	O	-0.474325	1.302431	-0.681753
	H295	H	-0.464617	1.288232	-0.692452
	H296	H	-0.473989	1.304385	-0.668014
	O297	O	0.700836	0.563761	0.718239
	H298	H	0.693202	0.562084	0.716427
	H299	H	0.723323	0.571012	0.737839
	O300	O	0.607892	0.504316	0.286807
	H301	H	0.600328	0.511763	0.280677
	H302	H	0.606123	0.499118	0.280689
	O303	O	0.323680	0.555534	0.292658
	H304	H	0.321667	0.539292	0.300097
	H305	H	0.307177	0.557199	0.280542
	O306	O	0.208511	0.927705	0.799927
	H307	H	0.201576	0.917000	0.791214
	H308	H	0.218243	0.901637	0.790773
	O309	O	0.697103	0.417983	0.534073
	H310	H	0.714822	0.405316	0.536178
	H311	H	0.688060	0.425162	0.503721
	O312	O	0.452832	0.291611	0.430363
	H313	H	0.431818	0.294054	0.425717
	H314	H	0.448425	0.295275	0.424657
	O315	O	-0.288291	0.725683	0.669360
	H316	H	-0.299009	0.732794	0.675992
	H317	H	-0.281275	0.728716	0.675739
	O318	O	0.554376	0.717513	-0.445173
	H319	H	0.563760	0.717838	-0.445382
	H320	H	0.556169	0.725635	-0.420257
	O321	O	0.789674	0.212147	0.796855
	H322	H	0.803234	0.191767	0.799585
	H323	H	0.757578	0.240297	0.763802
	O324	O	1.557077	0.720026	1.718777
	H325	H	1.564888	0.719931	1.714657
	H326	H	1.564452	0.739375	1.734610
	O327	O	1.164959	-0.180824	0.995305
	H328	H	1.169074	-0.178952	0.985552
	H329	H	1.158646	-0.182037	0.992176
	O330	O	0.825407	0.002302	0.203384
	H331	H	0.827684	-0.038455	0.201747
	H332	H	0.825663	0.001107	0.222579
	O333	O	0.931751	0.959665	0.996592
	H334	H	0.940112	0.966474	0.997939
	H335	H	0.944909	0.959885	0.985908
	O336	O	0.835174	-0.285107	1.244460
	H337	H	0.830616	-0.296990	1.236232
	H338	H	0.830588	-0.268739	1.264220
	O339	O	0.376976	0.408460	0.304760
	H340	H	0.384929	0.424934	0.328078
	H341	H	0.376352	0.411725	0.309449
	O342	O	0.841963	-0.173270	-0.087642
	H343	H	0.850127	-0.160355	-0.087294
	H344	H	0.833297	-0.161497	-0.072176
	O345	O	-0.194155	-0.187956	0.195332
	H346	H	-0.193710	-0.204013	0.192364
	H347	H	-0.177599	-0.208144	0.210588
	O348	O	1.194851	0.204403	1.194526
	H349	H	1.170790	0.211525	1.209565
	H350	H	1.203700	0.218690	1.177403
	O351	O	0.282755	0.479331	0.722472
	H352	H	0.284708	0.461935	0.722552
	H353	H	0.269779	0.482930	0.745577
	O354	O	0.498942	0.692220	0.317173
	H355	H	0.480417	0.683662	0.314862
	H356	H	0.497114	0.705247	0.306448
	O357	O	1.288362	0.509526	0.505294
	H358	H	1.280595	0.510833	0.512890
	H359	H	1.287678	0.532038	0.519790
	O360	O	0.631906	0.401890	0.558228
	H361	H	0.621476	0.399743	0.552219
	H362	H	0.614741	0.393775	0.555177
	O363	O	-0.149940	1.155855	0.991038
	H364	H	-0.160833	1.173022	0.976045
	H365	H	-0.159144	1.145655	0.994511
	O366	O	1.101698	0.947725	0.094026
	H367	H	1.108521	0.945665	0.094042
	H368	H	1.095755	0.956146	0.087059
	O369	O	0.277829	0.284487	0.532892
	H370	H	0.244486	0.255919	0.540070
	H371	H	0.286913	0.297124	0.571453
	O372	O	0.294465	0.303310	0.704814
	H373	H	0.279531	0.311819	0.723851
	H374	H	0.334704	0.292543	0.714782
	O375	O	-0.193779	1.031778	0.988956
	H376	H	-0.181752	1.021963	0.988459
	H377	H	-0.207404	1.033094	1.002439
	O378	O	0.857509	0.073632	0.019505
	H379	H	0.851253	0.065102	0.031111
	H380	H	0.852618	0.079144	0.003255
	O381	O	0.415054	0.568364	-0.412757
	H382	H	0.417011	0.567293	-0.416298
	H383	H	0.405709	0.549488	-0.431222
	O384	O	-0.191473	-0.829613	1.076132
	H385	H	-0.196844	-0.841199	1.069434
	H386	H	-0.186337	-0.829500	1.063459
	O387	O	-0.173668	0.813936	0.904712
	H388	H	-0.184036	0.819288	0.908510
	H389	H	-0.162120	0.802564	0.910975
	O390	O	0.003049	-0.000540	1.218535
	H391	H	0.009644	0.015056	1.228874
	H392	H	0.011279	0.007996	1.217529
	O393	O	1.203385	1.027225	0.201967
	H394	H	1.211864	1.056474	0.211299
	H395	H	1.212843	1.037946	0.199949
	O396	O	0.705506	0.571699	0.498922
	H397	H	0.713133	0.566491	0.491875
	H398	H	0.705457	0.576246	0.497852
	O399	O	0.280175	0.718573	0.478572
	H400	H	0.276551	0.725257	0.452501
	H401	H	0.271529	0.734953	0.457789
	O402	O	0.025079	-0.197892	0.808154
	H403	H	0.026070	-0.183286	0.817994
	H404	H	0.017546	-0.219809	0.782971
	O405	O	-0.498053	-0.291395	0.465196
	H406	H	-0.498035	-0.289827	0.465835
	H407	H	-0.503745	-0.283070	0.446262
	O408	O	0.467352	0.294150	0.716072
	H409	H	0.475756	0.282828	0.718857
	H410	H	0.480902	0.290115	0.716317
	O411	O	0.366582	0.443244	0.514210
	H412	H	0.359765	0.450312	0.503427
	H413	H	0.369019	0.440686	0.517062
	O414	O	0.961266	1.220651	0.791609
	H415	H	0.960634	1.233792	0.777955
	H416	H	0.942821	1.224377	0.791910
	O417	O	0.664092	0.379847	0.323073
	H418	H	0.665740	0.395811	0.336192
	H419	H	0.662672	0.372984	0.300534
	O420	O	0.960029	0.951389	0.995585
	H421	H	0.975373	0.940914	0.998106
	H422	H	0.946330	0.932046	1.015526
	O423	O	-0.016384	1.044699	-0.171849
	H424	H	-0.014410	1.040210	-0.195292
	H425	H	-0.024472	1.051734	-0.173084
	O426	O	1.180636	0.819569	1.188154
	H427	H	1.160938	0.829176	1.165546
	H428	H	1.171853	0.846745	1.170773
	O429	O	0.509455	0.385865	0.517001
	H430	H	0.516152	0.380464	0.506635
	H431	H	0.503364	0.387817	0.498424
	O432	O	0.111548	0.173826	-0.116173
	H433	H	0.106542	0.174173	-0.108107
	H434	H	0.095959	0.156341	-0.108107
	O435	O	0.051371	-0.172035	-0.030479
	H436	H	0.051933	-0.167875	-0.039049
	H437	H	0.050776	-0.169655	-0.028372
	O438	O	1.121829	0.153805	-0.026749
	H439	H	1.111592	0.162763	-0.022138
	H440	H	1.141236	0.162575	-0.022152
	O441	O	0.709604	0.297146	0.442953
	H442	H	0.717158	0.291616	0.426058
	H443	H	0.717322	0.294368	0.444143
	O444	O	-0.010042	1.196432	1.033437
	H445	H	-0.026315	1.203956	1.016348
	H446	H	-0.015869	1.190971	1.027712
	O447	O	0.604366	0.648786	0.329641
	H448	H	0.603963	0.628127	0.342935
	H449	H	0.595507	0.643844	0.335583
	O450	O	0.450822	0.569555	0.658056
	H451	H	0.453401	0.557864	0.646598
	H452	H	0.458641	0.576482	0.659032
	O453	O	0.532543	0.457462	0.713293
	H454	H	0.526060	0.460316	0.707972
	H455	H	0.527203	0.460105	0.699605
	O456	O	1.127785	-0.110109	-0.194660
	H457	H	1.146304	-0.122632	-0.207343
	H458	H	1.127744	-0.114600	-0.169116
	O459	O	0.520844	0.427774	0.354931
	H460	H	0.522258	0.418161	0.349667
	H461	H	0.523636	0.434098	0.359032
	O462	O	0.325367	0.603359	0.624934
	H463	H	0.339864	0.604720	0.640546
	H464	H	0.332436	0.613203	0.604856
	O465	O	1.187514	0.135227	-0.010240
	H466	H	1.181625	0.142496	-0.011507
	H467	H	1.195411	0.130404	-0.004093
