data_Molecule from HDF5

_cell_length_a		16.530640
_cell_length_b		16.667004
_cell_length_c		16.605109
_cell_angle_alpha	90.074285
_cell_angle_beta	89.777991
_cell_angle_gamma	89.847023
_symmetry_space_group_name_H-M	'P 1'
_symmetry_Int_Tables_number		1

loop_
	_symmetry_equiv_pos_as_xyz
	x,y,z

loop_
	_atom_site_label
	_atom_site_type_symbol
	_atom_site_fract_x
	_atom_site_fract_y
	_atom_site_fract_z
	H0	H	0.391690	0.868741	0.725299
	H1	H	0.596971	0.182210	0.728782
	H2	H	0.600184	0.872342	0.284097
	H3	H	0.388571	0.182049	0.286104
	H4	H	0.714552	0.423382	0.851546
	H5	H	0.710502	0.628750	0.165258
	H6	H	0.273124	0.631413	0.851069
	H7	H	0.272301	0.423983	0.162902
	H8	H	0.836457	0.747487	0.405644
	H9	H	0.150511	0.748604	0.611733
	H10	H	0.837500	0.307389	0.615365
	H11	H	0.151726	0.309091	0.405671
	H12	H	0.836937	0.424063	0.730638
	H13	H	0.151538	0.631799	0.726042
	H14	H	0.836887	0.631811	0.288689
	H15	H	0.151405	0.425747	0.289897
	H16	H	0.387258	0.749782	0.851902
	H17	H	0.595104	0.746530	0.164991
	H18	H	0.598809	0.307130	0.850892
	H19	H	0.387537	0.306079	0.162482
	H20	H	0.714272	0.871239	0.402185
	H21	H	0.712397	0.183344	0.611208
	H22	H	0.275189	0.869589	0.608298
	H23	H	0.270739	0.181610	0.401746
	H24	H	0.889155	0.372137	0.229294
	H25	H	0.097939	0.683369	0.229335
	H26	H	0.101475	0.376049	0.783309
	H27	H	0.890768	0.685378	0.790969
	H28	H	0.215100	0.922364	0.351559
	H29	H	0.210019	0.127144	0.665687
	H30	H	0.776128	0.130387	0.349714
	H31	H	0.772690	0.925049	0.663044
	H32	H	0.335624	0.246609	0.903366
	H33	H	0.647996	0.247236	0.112146
	H34	H	0.336832	0.805589	0.114551
	H35	H	0.651055	0.807871	0.904408
	H36	H	0.337648	0.920900	0.230637
	H37	H	0.649342	0.129960	0.225449
	H38	H	0.334510	0.128629	0.789598
	H39	H	0.650481	0.923280	0.787194
	H40	H	0.891150	0.247933	0.351330
	H41	H	0.095292	0.245953	0.665629
	H42	H	0.099975	0.806101	0.351296
	H43	H	0.887180	0.805576	0.662108
	H44	H	0.215522	0.373916	0.902454
	H45	H	0.212846	0.684423	0.110944
	H46	H	0.773904	0.371650	0.112178
	H47	H	0.773453	0.683978	0.907458
	H48	H	0.401514	0.138810	0.597019
	H49	H	0.584404	0.913474	0.600124
	H50	H	0.584426	0.138263	0.418747
	H51	H	0.408998	0.919512	0.426122
	H52	H	0.584081	0.437521	0.120337
	H53	H	0.580953	0.614588	0.896844
	H54	H	0.408831	0.620061	0.118146
	H55	H	0.407398	0.428840	0.892441
	H56	H	0.107965	0.622654	0.420097
	H57	H	0.881214	0.619912	0.599591
	H58	H	0.106672	0.432394	0.593251
	H59	H	0.881176	0.434847	0.422736
	H60	H	0.102589	0.442830	0.593383
	H61	H	0.881439	0.618459	0.595647
	H62	H	0.104111	0.612970	0.420504
	H63	H	0.881450	0.441302	0.418040
	H64	H	0.400118	0.620156	0.121431
	H65	H	0.582413	0.620762	0.895242
	H66	H	0.578722	0.435941	0.119350
	H67	H	0.397587	0.441719	0.893560
	H68	H	0.585196	0.140755	0.413922
	H69	H	0.578994	0.917352	0.595461
	H70	H	0.400715	0.139092	0.600318
	H71	H	0.398757	0.913292	0.417959
	H72	H	0.904321	0.637710	0.094112
	H73	H	0.086723	0.416337	0.094889
	H74	H	0.082017	0.641632	0.913927
	H75	H	0.909118	0.418669	0.919234
	H76	H	0.087289	0.936256	0.620644
	H77	H	0.079960	0.121142	0.396104
	H78	H	0.901976	0.122294	0.621264
	H79	H	0.906267	0.936605	0.394649
	H80	H	0.604659	0.113235	0.917409
	H81	H	0.381553	0.113814	0.093244
	H82	H	0.603716	0.940097	0.095105
	H83	H	0.379923	0.938137	0.915215
	H84	H	0.605997	0.935746	0.097157
	H85	H	0.379643	0.114543	0.098295
	H86	H	0.607042	0.117218	0.912573
	H87	H	0.379413	0.933887	0.917541
	H88	H	0.900321	0.114558	0.620109
	H89	H	0.086469	0.120285	0.394112
	H90	H	0.080688	0.942573	0.617312
	H91	H	0.903583	0.936208	0.393579
	H92	H	0.079220	0.638649	0.921200
	H93	H	0.083151	0.414799	0.102054
	H94	H	0.899075	0.640882	0.099840
	H95	H	0.901201	0.415596	0.921366
	H96	H	0.403819	0.137944	0.599238
	H97	H	0.586403	0.915509	0.592365
	H98	H	0.580350	0.139006	0.415466
	H99	H	0.412043	0.916056	0.412288
	H100	H	0.582636	0.432769	0.121460
	H101	H	0.586812	0.616215	0.894914
	H102	H	0.403993	0.612556	0.117939
	H103	H	0.412849	0.442711	0.899141
	H104	H	0.108296	0.616231	0.412021
	H105	H	0.881457	0.615826	0.598582
	H106	H	0.108015	0.438819	0.602725
	H107	H	0.878773	0.434552	0.415349
	H108	H	0.907230	0.638948	0.102239
	H109	H	0.078973	0.418415	0.096059
	H110	H	0.086733	0.641669	0.920427
	H111	H	0.904379	0.414718	0.912963
	H112	H	0.077803	0.933580	0.619608
	H113	H	0.083296	0.115017	0.396792
	H114	H	0.907224	0.117251	0.617872
	H115	H	0.904234	0.938807	0.395059
	H116	H	0.606307	0.120068	0.918735
	H117	H	0.379107	0.118651	0.094752
	H118	H	0.604697	0.936006	0.091973
	H119	H	0.381383	0.937689	0.919319
	C120	C	0.371778	0.034628	0.628999
	C121	C	0.614402	1.018699	0.627920
	C122	C	0.615346	0.036103	0.384359
	C123	C	0.372762	1.018587	0.386323
	C124	C	0.614726	0.404401	0.016676
	C125	C	0.613941	0.647881	0.999531
	C126	C	0.372037	0.649350	0.016057
	C127	C	0.372987	0.406298	0.998486
	C128	C	0.002494	0.648976	0.386473
	C129	C	0.985211	0.649409	0.628608
	C130	C	0.002101	0.406957	0.629529
	C131	C	0.984814	0.406290	0.387289
	C132	C	0.871920	0.536193	0.130636
	C133	C	0.114802	0.519527	0.129032
	C134	C	0.115338	0.537763	0.886197
	C135	C	0.872829	0.519541	0.887267
	C136	C	0.114200	0.906001	0.515595
	C137	C	0.114388	0.148613	0.499707
	C138	C	0.872433	0.149295	0.515816
	C139	C	0.872261	0.905811	0.497897
	C140	C	0.501430	0.147729	0.885531
	C141	C	0.483590	0.147366	0.127377
	C142	C	0.501639	0.905562	0.128024
	C143	C	0.484534	0.905265	0.885993
	C144	C	0.372068	0.916138	0.686163
	C145	C	0.615599	0.135729	0.688127
	C146	C	0.617798	0.918771	0.324815
	C147	C	0.370030	0.135514	0.326175
	C148	C	0.674845	0.404081	0.898863
	C149	C	0.671500	0.647959	0.118248
	C150	C	0.312399	0.650734	0.898202
	C151	C	0.312632	0.405115	0.115961
	C152	C	0.883787	0.707693	0.386096
	C153	C	0.103599	0.708736	0.630030
	C154	C	0.884342	0.347470	0.632866
	C155	C	0.104324	0.348724	0.386850
	C156	C	0.884339	0.405431	0.690406
	C157	C	0.103909	0.651036	0.687190
	C158	C	0.883881	0.650197	0.328284
	C159	C	0.104133	0.406301	0.329098
	C160	C	0.368916	0.709481	0.898564
	C161	C	0.614292	0.706534	0.117731
	C162	C	0.617360	0.345993	0.898404
	C163	C	0.369681	0.346415	0.115657
	C164	C	0.674909	0.918515	0.383272
	C165	C	0.672986	0.136220	0.629766
	C166	C	0.314129	0.916428	0.628339
	C167	C	0.311429	0.135106	0.383441
	C168	C	0.870576	0.418838	0.189614
	C169	C	0.116044	0.636839	0.188623
	C170	C	0.118819	0.421593	0.824888
	C171	C	0.871525	0.637896	0.829683
	C172	C	0.174808	0.903999	0.398177
	C173	C	0.171346	0.147262	0.618471
	C174	C	0.814955	0.149867	0.397262
	C175	C	0.812237	0.905283	0.615941
	C176	C	0.382821	0.206818	0.884678
	C177	C	0.601155	0.207032	0.129957
	C178	C	0.383834	0.845721	0.131735
	C179	C	0.603495	0.847084	0.884977
	C180	C	0.384455	0.902825	0.189859
	C181	C	0.601844	0.148616	0.186360
	C182	C	0.382417	0.148285	0.827830
	C183	C	0.603279	0.904399	0.826952
	C184	C	0.871899	0.208379	0.398200
	C185	C	0.114376	0.206161	0.618451
	C186	C	0.117627	0.846062	0.398123
	C187	C	0.869245	0.846352	0.615569
	C188	C	0.175657	0.420749	0.883590
	C189	C	0.173403	0.637361	0.130065
	C190	C	0.813258	0.418451	0.131553
	C191	C	0.813405	0.637292	0.887785
	C192	C	0.395450	0.117110	0.605660
	C193	C	0.590196	0.936764	0.603156
	C194	C	0.590432	0.117970	0.408993
	C195	C	0.398968	0.937442	0.411711
	C196	C	0.589087	0.428394	0.099070
	C197	C	0.590152	0.623993	0.917214
	C198	C	0.397098	0.624669	0.097791
	C199	C	0.398808	0.430806	0.916378
	C200	C	0.085226	0.624407	0.410746
	C201	C	0.902936	0.625005	0.604941
	C202	C	0.084478	0.431141	0.603801
	C203	C	0.902155	0.430099	0.411511
	C204	C	0.896488	0.617904	0.105686
	C205	C	0.090188	0.437745	0.104489
	C206	C	0.089939	0.619387	0.911440
	C207	C	0.897693	0.437569	0.911017
	C208	C	0.088909	0.930472	0.597836
	C209	C	0.090249	0.125340	0.417130
	C210	C	0.896234	0.124877	0.598225
	C211	C	0.897565	0.930271	0.415831
	C212	C	0.584610	0.123877	0.909376
	C213	C	0.401288	0.122596	0.102427
	C214	C	0.583581	0.930211	0.102034
	C215	C	0.401811	0.929446	0.910349
	Zn216	Zn	0.492896	0.026160	0.757290
	Zn217	Zn	0.493224	0.026824	0.256082
	Zn218	Zn	0.743199	0.526552	0.008902
	Zn219	Zn	0.243640	0.528292	0.007371
	Zn220	Zn	-0.005498	0.777269	0.507341
	Zn221	Zn	-0.006419	0.277988	0.508553
	Zn222	Zn	-0.006090	0.529505	0.757281
	Zn223	Zn	-0.006449	0.527318	0.258647
	Zn224	Zn	0.493029	0.777149	0.007184
	Zn225	Zn	0.493073	0.275865	0.006587
	Zn226	Zn	0.743653	0.028245	0.506320
	Zn227	Zn	0.243334	0.026643	0.507542
	N228	N	0.406762	0.990818	0.686927
	N229	N	0.580033	0.061365	0.687341
	N230	N	0.581952	0.993198	0.324873
	N231	N	0.407377	0.062046	0.327701
	N232	N	0.673646	0.439554	0.973629
	N233	N	0.671557	0.612194	0.043789
	N234	N	0.314008	0.614173	0.972222
	N235	N	0.314458	0.441816	0.041934
	N236	N	0.958715	0.707181	0.421345
	N237	N	0.028782	0.708117	0.594356
	N238	N	0.958691	0.348084	0.595932
	N239	N	0.029081	0.348176	0.422194
	N240	N	0.958792	0.441772	0.688641
	N241	N	0.029412	0.614814	0.686517
	N242	N	0.958856	0.614404	0.328346
	N243	N	0.028974	0.441365	0.329168
	N244	N	0.405077	0.708955	0.972940
	N245	N	0.579543	0.706917	0.042810
	N246	N	0.580871	0.345964	0.972862
	N247	N	0.406093	0.346933	0.041406
	N248	N	0.673615	0.992577	0.419582
	N249	N	0.672565	0.062381	0.593007
	N250	N	0.313765	0.991247	0.593570
	N251	N	0.312871	0.061341	0.420085
	N252	N	0.906009	0.493146	0.189242
	N253	N	0.080496	0.562447	0.188309
	N254	N	0.082042	0.495510	0.826268
	N255	N	0.907574	0.563575	0.828997
	N256	N	0.172766	0.940778	0.472167
	N257	N	0.171790	0.112474	0.543347
	N258	N	0.815026	0.113925	0.471522
	N259	N	0.813769	0.941330	0.541687
	N260	N	0.458044	0.206790	0.919532
	N261	N	0.526613	0.206477	0.093832
	N262	N	0.457717	0.847272	0.093878
	N263	N	0.528489	0.847222	0.920719
	N264	N	0.458831	0.939211	0.187722
	N265	N	0.527640	0.112156	0.184915
	N266	N	0.457239	0.112086	0.828272
	N267	N	0.528212	0.939866	0.827421
	N268	N	0.906960	0.208216	0.473195
	N269	N	0.080083	0.207416	0.543419
	N270	N	0.080652	0.847247	0.472225
	N271	N	0.905713	0.846370	0.541104
	N272	N	0.173550	0.494009	0.920971
	N273	N	0.172885	0.563285	0.093792
	N274	N	0.813783	0.492542	0.095412
	N275	N	0.813708	0.562516	0.922499
	O276	O	0.066513	1.213374	0.225461
	H277	H	0.068171	1.202777	0.212145
	H278	H	0.057756	1.230167	0.243184
	O279	O	0.022538	0.123925	-0.043524
	H280	H	0.027912	0.120035	-0.036010
	H281	H	0.021805	0.129818	-0.025259
	O282	O	1.208766	0.248819	1.040894
	H283	H	1.223943	0.259623	1.063306
	H284	H	1.218298	0.255965	1.058638
	O285	O	0.199078	-0.131455	0.801454
	H286	H	0.195391	-0.134631	0.800669
	H287	H	0.191604	-0.141558	0.828964
	O288	O	0.471085	0.548633	0.466936
	H289	H	0.478499	0.546164	0.466480
	H290	H	0.466688	0.550025	0.480088
	O291	O	-0.235053	0.249194	0.228880
	H292	H	-0.257630	0.259700	0.241865
	H293	H	-0.246842	0.248201	0.228329
	O294	O	1.043162	-0.155361	1.024405
	H295	H	1.047728	-0.157478	1.019651
	H296	H	1.042771	-0.153423	1.025601
	O297	O	0.330966	0.606294	0.610123
	H298	H	0.341429	0.589553	0.591292
	H299	H	0.342681	0.600092	0.614602
	O300	O	-0.361987	-0.687778	0.464114
	H301	H	-0.357298	-0.695881	0.455820
	H302	H	-0.376669	-0.693985	0.479258
	O303	O	0.512862	0.532324	0.545309
	H304	H	0.508655	0.526244	0.557936
	H305	H	0.510304	0.538426	0.548815
	O306	O	0.414168	0.552103	0.477452
	H307	H	0.408743	0.560724	0.481131
	H308	H	0.426258	0.539663	0.483702
	O309	O	0.709992	0.534854	0.531281
	H310	H	0.707041	0.521454	0.548299
	H311	H	0.716874	0.540387	0.543028
	O312	O	0.297506	0.728121	0.354255
	H313	H	0.285090	0.746583	0.345807
	H314	H	0.301103	0.731279	0.400037
	O315	O	1.598736	0.334402	1.371356
	H316	H	1.594655	0.345155	1.385861
	H317	H	1.568065	0.337672	1.385331
	O318	O	0.277127	0.561855	0.288252
	H319	H	0.276788	0.583108	0.275721
	H320	H	0.264277	0.583278	0.272617
	O321	O	0.207528	1.005413	0.820520
	H322	H	0.228535	0.990191	0.802408
	H323	H	0.201898	0.988335	0.821028
	O324	O	0.990803	1.015604	-0.220690
	H325	H	0.988105	1.024278	-0.218556
	H326	H	0.987684	1.030890	-0.214345
	O327	O	0.130533	0.019798	1.215828
	H328	H	0.137222	0.030743	1.228436
	H329	H	0.099425	0.023328	1.224815
	O330	O	0.733719	0.689102	0.354386
	H331	H	0.713444	0.676055	0.358115
	H332	H	0.731999	0.707815	0.360283
	O333	O	0.468941	0.736963	0.565166
	H334	H	0.473739	0.727954	0.572867
	H335	H	0.469590	0.736721	0.590650
	O336	O	0.259608	0.293672	0.269526
	H337	H	0.254654	0.292773	0.284371
	H338	H	0.286469	0.316114	0.296498
	O339	O	0.780041	0.057710	0.796261
	H340	H	0.783468	0.056009	0.801708
	H341	H	0.763235	0.053718	0.792961
	O342	O	-0.134807	-0.100308	0.102131
	H343	H	-0.150509	-0.112159	0.127994
	H344	H	-0.093766	-0.108448	0.110031
	O345	O	-0.106201	1.131781	0.933956
	H346	H	-0.104732	1.142848	0.927748
	H347	H	-0.102420	1.135766	0.927775
	O348	O	0.914703	-0.008507	0.916999
	H349	H	0.905770	-0.017449	0.923714
	H350	H	0.925940	-0.009964	0.931077
	O351	O	0.333041	0.677982	0.530321
	H352	H	0.337081	0.680353	0.541336
	H353	H	0.341322	0.662920	0.532573
	O354	O	-0.196842	-0.163022	0.812794
	H355	H	-0.186744	-0.143211	0.842364
	H356	H	-0.170062	-0.143244	0.819905
	O357	O	0.445144	0.585405	0.706488
	H358	H	0.461825	0.595050	0.709523
	H359	H	0.470916	0.580538	0.711082
	O360	O	0.528158	-0.263494	1.305161
	H361	H	0.511060	-0.278840	1.301921
	H362	H	0.521741	-0.265168	1.297107
	O363	O	0.015687	0.068786	0.231810
	H364	H	0.002122	0.072024	0.244130
	H365	H	0.001363	0.055417	0.230199
	O366	O	0.700154	0.732718	0.718232
	H367	H	0.734841	0.767437	0.746531
	H368	H	0.705126	0.739565	0.666461
	O369	O	1.092695	0.070138	0.051261
	H370	H	1.103637	0.076368	0.054088
	H371	H	1.072787	0.072023	0.068130
	O372	O	0.935988	0.811439	-0.042308
	H373	H	0.938466	0.803349	-0.045910
	H374	H	0.936879	0.823549	-0.045432
	O375	O	1.179150	-0.023875	0.048912
	H376	H	1.177256	0.004034	0.051244
	H377	H	1.180842	-0.011556	0.071065
	O378	O	0.326510	0.600071	0.416894
	H379	H	0.318098	0.582211	0.423848
	H380	H	0.324874	0.620835	0.391871
	O381	O	0.549917	0.365837	0.536463
	H382	H	0.551700	0.363597	0.561180
	H383	H	0.542989	0.366260	0.522045
	O384	O	1.195188	-0.204055	1.210010
	H385	H	1.185478	-0.193338	1.189107
	H386	H	1.181694	-0.187064	1.218361
	O387	O	0.777909	0.983477	-0.039685
	H388	H	0.778767	1.001256	-0.017880
	H389	H	0.774033	0.975313	-0.042441
	O390	O	0.710578	0.510186	0.300159
	H391	H	0.728428	0.495327	0.289781
	H392	H	0.716462	0.495063	0.311226
	O393	O	0.708905	0.425023	0.522316
	H394	H	0.712005	0.410691	0.531348
	H395	H	0.706334	0.417803	0.537315
	O396	O	0.029827	0.827092	1.210712
	H397	H	0.042830	0.829052	1.196284
	H398	H	0.030425	0.817634	1.220528
	O399	O	-0.230784	0.248995	0.979630
	H400	H	-0.235746	0.262970	0.960825
	H401	H	-0.244841	0.258838	0.950116
	O402	O	0.524490	0.450635	0.451385
	H403	H	0.536389	0.454863	0.447697
	H404	H	0.514572	0.436558	0.451229
	O405	O	1.529163	-0.681892	1.306788
	H406	H	1.511191	-0.693090	1.302003
	H407	H	1.505624	-0.667751	1.315034
	O408	O	-0.287583	-0.435928	-0.272017
	H409	H	-0.268533	-0.415458	-0.249133
	H410	H	-0.282448	-0.410076	-0.268385
	O411	O	0.288891	0.313149	0.714134
	H412	H	0.282880	0.366057	0.718577
	H413	H	0.254640	0.287682	0.749391
	O414	O	0.367223	0.406910	0.302464
	H415	H	0.381319	0.429217	0.306645
	H416	H	0.384387	0.419854	0.310506
	O417	O	0.194871	0.152099	0.133885
	H418	H	0.189248	0.138244	0.124770
	H419	H	0.210432	0.167519	0.161297
	O420	O	0.502324	0.524177	0.283426
	H421	H	0.498891	0.540728	0.292855
	H422	H	0.517676	0.531133	0.276159
	O423	O	0.018858	-0.185250	0.789946
	H424	H	0.025863	-0.193830	0.775755
	H425	H	0.014391	-0.175633	0.779633
	O426	O	0.288796	0.482225	0.722385
	H427	H	0.292170	0.508264	0.717126
	H428	H	0.284422	0.500680	0.741413
	O429	O	0.780562	0.811999	1.046352
	H430	H	0.783092	0.815947	1.068442
	H431	H	0.767692	0.784588	1.051260
	O432	O	0.548910	0.464640	0.733134
	H433	H	0.560704	0.450028	0.726956
	H434	H	0.563358	0.449986	0.740320
	O435	O	-0.106865	1.209060	0.146989
	H436	H	-0.125173	1.210388	0.138395
	H437	H	-0.107009	1.219861	0.169215
	O438	O	0.209281	-0.188571	-0.021490
	H439	H	0.227481	-0.191520	-0.016411
	H440	H	0.224359	-0.178319	-0.009394
	O441	O	0.174023	-0.776467	-0.180070
	H442	H	0.156536	-0.806142	-0.170452
	H443	H	0.153371	-0.780765	-0.150716
	O444	O	0.708689	0.745896	-0.448681
	H445	H	0.702175	0.745078	-0.472638
	H446	H	0.720013	0.766249	-0.461009
	O447	O	0.526003	0.745540	0.731827
	H448	H	0.556160	0.744908	0.732594
	H449	H	0.544069	0.770156	0.753792
	O450	O	0.281952	0.742816	0.712683
	H451	H	0.288170	0.721378	0.702824
	H452	H	0.281415	0.741336	0.741403
	O453	O	0.367580	0.366749	0.454157
	H454	H	0.373232	0.365673	0.466824
	H455	H	0.351181	0.365003	0.459835
	O456	O	0.274246	0.299207	0.541750
	H457	H	0.244291	0.276319	0.554121
	H458	H	0.275448	0.306676	0.581265
	O459	O	0.771750	0.993983	0.223287
	H460	H	0.764381	0.963991	0.226028
	H461	H	0.745339	0.999927	0.234021
	O462	O	0.678939	0.340040	-0.308580
	H463	H	0.693806	0.320937	-0.308126
	H464	H	0.655474	0.344795	-0.327535
	O465	O	0.783077	0.231636	-0.204090
	H466	H	0.829463	0.234239	-0.202785
	H467	H	0.767953	0.209234	-0.217166
	O468	O	0.552523	0.747760	0.438801
	H469	H	0.524329	0.750424	0.430683
	H470	H	0.529895	0.748528	0.439611
	O471	O	0.963274	0.248845	0.793573
	H472	H	0.964157	0.280408	0.767908
	H473	H	0.990250	0.249157	0.825717
	O474	O	-0.154425	1.060204	0.126256
	H475	H	-0.173337	1.066903	0.143147
	H476	H	-0.160748	1.073358	0.123438
	O477	O	1.005011	1.223296	1.974451
	H478	H	0.991117	1.218385	1.990252
	H479	H	1.017007	1.229873	2.005187
	O480	O	0.800387	0.762258	0.274437
	H481	H	0.772741	0.746278	0.287883
	H482	H	0.781695	0.749983	0.285377
	O483	O	0.465549	0.305927	0.722671
	H484	H	0.435747	0.295845	0.734298
	H485	H	0.444455	0.296265	0.734915
	O486	O	0.965733	-0.031269	1.081127
	H487	H	0.957224	-0.010898	1.084226
	H488	H	0.955860	-0.047529	1.088453
	O489	O	1.144032	1.108866	-0.035218
	H490	H	1.146715	1.104508	-0.037348
	H491	H	1.147157	1.112527	-0.036476
