data_Molecule from HDF5

_cell_length_a		16.551440
_cell_length_b		16.484942
_cell_length_c		16.609737
_cell_angle_alpha	89.972870
_cell_angle_beta	89.982113
_cell_angle_gamma	89.969582
_symmetry_space_group_name_H-M	'P 1'
_symmetry_Int_Tables_number		1

loop_
	_symmetry_equiv_pos_as_xyz
	x,y,z

loop_
	_atom_site_label
	_atom_site_type_symbol
	_atom_site_fract_x
	_atom_site_fract_y
	_atom_site_fract_z
	H0	H	0.393131	0.860047	0.700616
	H1	H	0.602702	0.175527	0.697864
	H2	H	0.603358	0.861643	0.256524
	H3	H	0.395595	0.175434	0.258193
	H4	H	0.721566	0.411891	0.822062
	H5	H	0.716372	0.618518	0.136015
	H6	H	0.274579	0.627159	0.823415
	H7	H	0.275786	0.410448	0.133125
	H8	H	0.842401	0.735354	0.377084
	H9	H	0.158542	0.737278	0.581781
	H10	H	0.842706	0.296797	0.581514
	H11	H	0.156112	0.296018	0.372899
	H12	H	0.843936	0.410636	0.700399
	H13	H	0.156772	0.622812	0.699701
	H14	H	0.843326	0.622765	0.258188
	H15	H	0.155020	0.410099	0.254517
	H16	H	0.394760	0.740229	0.821436
	H17	H	0.598242	0.734611	0.136339
	H18	H	0.603248	0.298075	0.820329
	H19	H	0.392085	0.293535	0.132810
	H20	H	0.717983	0.860054	0.375352
	H21	H	0.719006	0.175708	0.581517
	H22	H	0.277787	0.860197	0.583784
	H23	H	0.280732	0.176108	0.375049
	H24	H	0.895231	0.359869	0.198576
	H25	H	0.106322	0.674952	0.201090
	H26	H	0.107117	0.361597	0.755998
	H27	H	0.894338	0.674266	0.756528
	H28	H	0.222373	0.911330	0.320859
	H29	H	0.221747	0.122974	0.632982
	H30	H	0.777865	0.123120	0.321077
	H31	H	0.777844	0.912869	0.633691
	H32	H	0.341902	0.236458	0.875727
	H33	H	0.655792	0.241428	0.084916
	H34	H	0.344179	0.792673	0.087376
	H35	H	0.657807	0.799612	0.876602
	H36	H	0.344126	0.907867	0.203859
	H37	H	0.655020	0.126962	0.202267
	H38	H	0.342467	0.120486	0.758588
	H39	H	0.656703	0.912413	0.757228
	H40	H	0.895498	0.238153	0.320468
	H41	H	0.103228	0.238126	0.634051
	H42	H	0.105422	0.795376	0.320629
	H43	H	0.894991	0.795939	0.633703
	H44	H	0.222416	0.361871	0.874160
	H45	H	0.221267	0.675036	0.085059
	H46	H	0.779264	0.359615	0.082940
	H47	H	0.780458	0.674793	0.875417
	H48	H	0.411205	0.131036	0.570645
	H49	H	0.589301	0.904283	0.569765
	H50	H	0.584799	0.129960	0.389575
	H51	H	0.414170	0.905704	0.388733
	H52	H	0.587188	0.424511	0.089823
	H53	H	0.589229	0.610072	0.864525
	H54	H	0.408410	0.608390	0.090337
	H55	H	0.410681	0.432880	0.866905
	H56	H	0.113891	0.609821	0.388955
	H57	H	0.888350	0.608499	0.565913
	H58	H	0.111812	0.431467	0.568510
	H59	H	0.886137	0.426343	0.385997
	H60	H	0.111892	0.425795	0.566477
	H61	H	0.889029	0.603711	0.567162
	H62	H	0.111900	0.602945	0.390251
	H63	H	0.888138	0.428100	0.391732
	H64	H	0.409398	0.601840	0.088168
	H65	H	0.593141	0.608990	0.864225
	H66	H	0.592300	0.428442	0.090959
	H67	H	0.412975	0.429425	0.867947
	H68	H	0.592141	0.131764	0.392582
	H69	H	0.588352	0.905144	0.568144
	H70	H	0.413858	0.127777	0.566338
	H71	H	0.413089	0.906817	0.392720
	H72	H	0.909624	0.631670	0.071707
	H73	H	0.084884	0.407031	0.066285
	H74	H	0.086804	0.629274	0.892462
	H75	H	0.908325	0.405500	0.893047
	H76	H	0.089412	0.932673	0.587086
	H77	H	0.084985	0.107528	0.366988
	H78	H	0.908167	0.102519	0.588125
	H79	H	0.905863	0.927637	0.364050
	H80	H	0.613057	0.110892	0.888626
	H81	H	0.392231	0.099199	0.061039
	H82	H	0.609348	0.929343	0.063579
	H83	H	0.386933	0.920545	0.895212
	H84	H	0.609721	0.932545	0.067991
	H85	H	0.387119	0.102717	0.074256
	H86	H	0.611155	0.104888	0.888763
	H87	H	0.391141	0.938598	0.890807
	H88	H	0.913713	0.107412	0.587826
	H89	H	0.092134	0.110268	0.363571
	H90	H	0.086776	0.925328	0.588850
	H91	H	0.910689	0.931281	0.367228
	H92	H	0.087209	0.630824	0.887818
	H93	H	0.088354	0.406415	0.064203
	H94	H	0.911219	0.628802	0.065948
	H95	H	0.908363	0.401606	0.884431
	H96	H	0.407940	0.128903	0.565557
	H97	H	0.590167	0.903548	0.567833
	H98	H	0.590499	0.133522	0.384578
	H99	H	0.410120	0.904790	0.390036
	H100	H	0.586531	0.431302	0.088123
	H101	H	0.590797	0.606204	0.866409
	H102	H	0.414676	0.606003	0.087823
	H103	H	0.409450	0.429439	0.866054
	H104	H	0.114524	0.605081	0.383970
	H105	H	0.886620	0.607121	0.570233
	H106	H	0.109817	0.430538	0.562754
	H107	H	0.887904	0.432853	0.386903
	H108	H	0.905475	0.631208	0.067130
	H109	H	0.088163	0.405723	0.068217
	H110	H	0.083371	0.628952	0.889817
	H111	H	0.916190	0.405783	0.887487
	H112	H	0.093906	0.927841	0.590330
	H113	H	0.091373	0.102111	0.366070
	H114	H	0.907320	0.109270	0.590744
	H115	H	0.911986	0.924922	0.365110
	H116	H	0.614014	0.107476	0.883533
	H117	H	0.386321	0.112970	0.063412
	H118	H	0.611164	0.928164	0.067966
	H119	H	0.383319	0.927329	0.877665
	C120	C	0.378422	0.025289	0.599767
	C121	C	0.620563	1.008850	0.599560
	C122	C	0.620492	0.027032	0.356948
	C123	C	0.379395	1.009577	0.357667
	C124	C	0.620842	0.396036	-0.013864
	C125	C	0.620854	0.638894	0.969360
	C126	C	0.377806	0.639531	-0.013989
	C127	C	0.378042	0.396877	0.969717
	C128	C	0.009032	0.637839	0.357185
	C129	C	0.991928	0.638904	0.599789
	C130	C	0.007777	0.396457	0.598437
	C131	C	0.991003	0.396355	0.356036
	C132	C	0.877858	0.526166	0.099666
	C133	C	0.120400	0.509740	0.099526
	C134	C	0.120181	0.526509	0.857197
	C135	C	0.878680	0.508524	0.856644
	C136	C	0.122108	0.895904	0.485367
	C137	C	0.121208	0.138903	0.468769
	C138	C	0.877651	0.139049	0.485749
	C139	C	0.877877	0.895961	0.468922
	C140	C	0.508633	0.139260	0.856146
	C141	C	0.491772	0.138812	0.098894
	C142	C	0.507178	0.896608	0.099734
	C143	C	0.491400	0.896893	0.856810
	C144	C	0.375443	0.907182	0.660232
	C145	C	0.621569	0.128068	0.658313
	C146	C	0.622187	0.908531	0.296916
	C147	C	0.377142	0.128306	0.298213
	C148	C	0.681105	0.393866	0.868758
	C149	C	0.677430	0.637959	0.088839
	C150	C	0.315911	0.644069	0.869398
	C151	C	0.316508	0.392793	0.086429
	C152	C	0.890072	0.696552	0.357548
	C153	C	0.110626	0.697949	0.600902
	C154	C	0.889804	0.336395	0.600566
	C155	C	0.109023	0.336261	0.354335
	C156	C	0.890486	0.393093	0.659529
	C157	C	0.110011	0.640957	0.659594
	C158	C	0.890669	0.640504	0.298228
	C159	C	0.108463	0.392976	0.295411
	C160	C	0.375295	0.700608	0.868640
	C161	C	0.619028	0.695713	0.088766
	C162	C	0.622176	0.337191	0.867814
	C163	C	0.374355	0.334548	0.086092
	C164	C	0.678960	0.907602	0.355787
	C165	C	0.679408	0.128164	0.600545
	C166	C	0.317957	0.907270	0.602052
	C167	C	0.320050	0.128503	0.356213
	C168	C	0.876390	0.407464	0.159047
	C169	C	0.124294	0.627605	0.160942
	C170	C	0.124656	0.408542	0.796605
	C171	C	0.876227	0.626880	0.796651
	C172	C	0.182073	0.893203	0.367705
	C173	C	0.181269	0.141296	0.586395
	C174	C	0.817829	0.141334	0.368134
	C175	C	0.818194	0.894101	0.586895
	C176	C	0.389476	0.197541	0.856040
	C177	C	0.608946	0.200602	0.102424
	C178	C	0.390648	0.833922	0.104374
	C179	C	0.610106	0.838126	0.856596
	C180	C	0.390868	0.891215	0.162567
	C181	C	0.608415	0.143606	0.161020
	C182	C	0.389617	0.139789	0.798168
	C183	C	0.609688	0.894424	0.797345
	C184	C	0.876573	0.198411	0.367579
	C185	C	0.122372	0.198488	0.586819
	C186	C	0.123533	0.835713	0.367573
	C187	C	0.876380	0.836235	0.586937
	C188	C	0.181834	0.408654	0.855130
	C189	C	0.181083	0.627971	0.102801
	C190	C	0.818889	0.407152	0.101274
	C191	C	0.819666	0.627253	0.855769
	C192	C	0.403737	0.107767	0.574722
	C193	C	0.596266	0.925835	0.575491
	C194	C	0.596122	0.110075	0.381691
	C195	C	0.405031	0.927167	0.383138
	C196	C	0.595756	0.420819	0.068371
	C197	C	0.597744	0.615218	0.886603
	C198	C	0.403375	0.613069	0.067345
	C199	C	0.403700	0.423298	0.888223
	C200	C	0.091822	0.613109	0.380865
	C201	C	0.909514	0.613646	0.574992
	C202	C	0.089939	0.422084	0.573211
	C203	C	0.908826	0.421746	0.381058
	C204	C	0.901931	0.609054	0.075187
	C205	C	0.094396	0.427791	0.073616
	C206	C	0.093468	0.608294	0.882644
	C207	C	0.903709	0.425693	0.881362
	C208	C	0.097265	0.921379	0.567384
	C209	C	0.096494	0.113820	0.387002
	C210	C	0.902633	0.113709	0.567507
	C211	C	0.902545	0.920800	0.386822
	C212	C	0.591342	0.114811	0.880102
	C213	C	0.409964	0.112432	0.073397
	C214	C	0.588831	0.922696	0.073842
	C215	C	0.408747	0.921575	0.880944
	Zn216	Zn	0.499642	0.017105	0.727980
	Zn217	Zn	0.499129	0.018255	0.228434
	Zn218	Zn	0.749858	0.517031	-0.021465
	Zn219	Zn	0.248381	0.519001	-0.021351
	Zn220	Zn	0.000623	0.767334	0.477883
	Zn221	Zn	-0.000947	0.267759	0.477189
	Zn222	Zn	0.000075	0.517073	0.727770
	Zn223	Zn	-0.000390	0.517763	0.227260
	Zn224	Zn	0.499068	0.768454	-0.021695
	Zn225	Zn	0.499655	0.267542	-0.022499
	Zn226	Zn	0.748780	0.017829	0.478011
	Zn227	Zn	0.250791	0.017341	0.477415
	N228	N	0.412238	0.981752	0.658961
	N229	N	0.586081	0.052797	0.658026
	N230	N	0.586924	0.983957	0.297369
	N231	N	0.413105	0.053183	0.298821
	N232	N	0.680560	0.429525	0.943451
	N233	N	0.678980	0.603659	0.013510
	N234	N	0.317345	0.607029	0.943465
	N235	N	0.318697	0.431109	0.013035
	N236	N	0.964836	0.695158	0.393383
	N237	N	0.036058	0.696825	0.564440
	N238	N	0.963933	0.338348	0.563346
	N239	N	0.034839	0.338055	0.391226
	N240	N	0.964938	0.429717	0.658268
	N241	N	0.035005	0.605299	0.659222
	N242	N	0.965549	0.604745	0.297795
	N243	N	0.033940	0.429613	0.296335
	N244	N	0.413086	0.698031	0.942131
	N245	N	0.584895	0.696650	0.013387
	N246	N	0.585640	0.338339	0.942046
	N247	N	0.411886	0.336984	0.012489
	N248	N	0.678142	0.982318	0.392241
	N249	N	0.679141	0.052919	0.564794
	N250	N	0.319791	0.981765	0.565044
	N251	N	0.321346	0.053632	0.392383
	N252	N	0.912347	0.482530	0.158266
	N253	N	0.087236	0.553010	0.159105
	N254	N	0.087299	0.482856	0.797580
	N255	N	0.912273	0.551874	0.797004
	N256	N	0.181382	0.929852	0.442002
	N257	N	0.180881	0.105034	0.512032
	N258	N	0.818349	0.105197	0.442591
	N259	N	0.818975	0.930552	0.512617
	N260	N	0.464562	0.197319	0.891226
	N261	N	0.535291	0.197770	0.064432
	N262	N	0.463847	0.837387	0.065715
	N263	N	0.535476	0.839417	0.892803
	N264	N	0.464380	0.929853	0.159722
	N265	N	0.534470	0.105803	0.159035
	N266	N	0.464831	0.104444	0.797787
	N267	N	0.534709	0.930209	0.797415
	N268	N	0.913116	0.197190	0.441743
	N269	N	0.086034	0.197478	0.512541
	N270	N	0.087131	0.837273	0.441881
	N271	N	0.912708	0.837085	0.512645
	N272	N	0.179197	0.483111	0.891996
	N273	N	0.178948	0.553710	0.065430
	N274	N	0.819862	0.481853	0.064655
	N275	N	0.820714	0.552350	0.891978
	O276	O	1.007974	1.032022	-0.053931
	H277	H	0.999678	1.035844	-0.059238
	H278	H	0.995627	1.021100	-0.046359
	O279	O	0.209673	0.049409	0.840796
	H280	H	0.198442	0.042008	0.839274
	H281	H	0.208014	0.067706	0.856159
	O282	O	0.522687	0.319798	0.276374
	H283	H	0.517175	0.350811	0.273004
	H284	H	0.516642	0.301255	0.267658
	O285	O	0.361220	0.453199	0.602588
	H286	H	0.357351	0.476533	0.594965
	H287	H	0.335375	0.440311	0.619049
	O288	O	1.512742	-0.291957	0.692289
	H289	H	1.519730	-0.288039	0.694923
	H290	H	1.520720	-0.293059	0.701148
	O291	O	0.879732	1.110271	0.993761
	H292	H	0.886066	1.102213	0.990867
	H293	H	0.874815	1.104550	0.989075
	O294	O	0.005160	0.031096	-0.251209
	H295	H	0.007597	0.033634	-0.252566
	H296	H	-0.005852	0.007743	-0.256174
	O297	O	0.798344	0.120812	0.092061
	H298	H	0.791850	0.126789	0.084931
	H299	H	0.807689	0.121244	0.090864
	O300	O	0.585130	0.488863	0.354910
	H301	H	0.575777	0.492294	0.362630
	H302	H	0.592779	0.503321	0.356360
	O303	O	-0.550332	-0.453006	-0.302999
	H304	H	-0.543636	-0.442350	-0.308505
	H305	H	-0.539089	-0.443998	-0.302254
	O306	O	0.792554	-0.192791	0.186860
	H307	H	0.759072	-0.222221	0.221466
	H308	H	0.791126	-0.144906	0.195435
	O309	O	0.711679	0.555534	0.676124
	H310	H	0.712390	0.540926	0.665329
	H311	H	0.718331	0.565038	0.697036
	O312	O	0.030655	0.799355	0.754183
	H313	H	0.052811	0.798759	0.759850
	H314	H	0.035467	0.769938	0.738739
	O315	O	0.608008	0.437639	0.678851
	H316	H	0.602655	0.437481	0.674145
	H317	H	0.606167	0.444136	0.665973
	O318	O	0.699759	0.314735	0.312897
	H319	H	0.690587	0.308616	0.331724
	H320	H	0.696440	0.317930	0.313875
	O321	O	0.163767	0.869986	1.087703
	H322	H	0.146604	0.879367	1.089796
	H323	H	0.178567	0.863315	1.065142
	O324	O	0.874700	0.216076	0.778474
	H325	H	0.870909	0.217825	0.769119
	H326	H	0.895480	0.212053	0.773015
	O327	O	0.526632	0.731937	0.467137
	H328	H	0.544884	0.733121	0.484706
	H329	H	0.528530	0.736109	0.495691
	O330	O	1.245869	1.262914	-0.267645
	H331	H	1.261907	1.251263	-0.250665
	H332	H	1.224126	1.234674	-0.246049
	O333	O	0.984999	0.230104	0.853061
	H334	H	0.986268	0.213784	0.869066
	H335	H	0.973097	0.248834	0.842389
	O336	O	0.122380	1.217028	-0.148036
	H337	H	0.120119	1.207633	-0.122539
	H338	H	0.096712	1.210094	-0.140691
	O339	O	0.555237	0.558316	0.387947
	H340	H	0.568097	0.563131	0.380843
	H341	H	0.560941	0.571619	0.376926
	O342	O	-0.324186	0.721783	0.684671
	H343	H	-0.334919	0.694072	0.690334
	H344	H	-0.303212	0.746825	0.709613
	O345	O	0.788060	0.224861	0.875208
	H346	H	0.792196	0.238789	0.861445
	H347	H	0.783566	0.234638	0.840249
	O348	O	0.328186	0.502543	0.497028
	H349	H	0.328546	0.510336	0.498502
	H350	H	0.328766	0.500242	0.519088
	O351	O	-0.221728	0.014328	0.974087
	H352	H	-0.225323	0.015273	0.964300
	H353	H	-0.223292	0.015012	0.976061
	O354	O	1.025494	0.226860	1.183900
	H355	H	1.031555	0.225479	1.183484
	H356	H	1.015840	0.235490	1.189875
	O357	O	0.688958	0.706689	0.289194
	H358	H	0.665790	0.693886	0.307693
	H359	H	0.674892	0.682947	0.306860
	O360	O	0.525774	0.594999	0.485415
	H361	H	0.525840	0.595032	0.461697
	H362	H	0.513392	0.598699	0.492161
	O363	O	0.197607	0.819011	0.779447
	H364	H	0.195973	0.836520	0.797488
	H365	H	0.201324	0.835019	0.775794
	O366	O	0.468008	0.307712	1.692348
	H367	H	0.470693	0.302584	1.700863
	H368	H	0.454319	0.309121	1.698526
	O369	O	0.213723	-0.198135	0.953045
	H370	H	0.230271	-0.209610	0.946669
	H371	H	0.219990	-0.198780	0.951465
	O372	O	-0.065822	0.939090	1.000543
	H373	H	-0.055435	0.933972	1.005879
	H374	H	-0.083847	0.929421	1.006163
	O375	O	1.218365	0.055228	0.193812
	H376	H	1.241602	0.048471	0.213321
	H377	H	1.205858	0.032944	0.182831
	O378	O	0.286821	0.732550	0.449772
	H379	H	0.265204	0.758139	0.441461
	H380	H	0.290080	0.723072	0.443888
	O381	O	-0.037750	0.803286	0.164351
	H382	H	-0.054251	0.786435	0.180753
	H383	H	-0.064750	0.808487	0.168396
	O384	O	0.372453	0.708142	0.609120
	H385	H	0.375180	0.700562	0.603989
	H386	H	0.366999	0.719902	0.615825
	O387	O	0.199967	1.223089	1.180316
	H388	H	0.186871	1.237987	1.197659
	H389	H	0.207821	1.177564	1.187735
	O390	O	-0.210573	1.042333	0.763738
	H391	H	-0.206310	1.034449	0.773082
	H392	H	-0.231848	1.053233	0.751652
	O393	O	0.822558	-0.170364	-0.206362
	H394	H	0.849817	-0.155270	-0.202360
	H395	H	0.836274	-0.161868	-0.176717
	O396	O	0.321407	0.314743	0.486811
	H397	H	0.309012	0.307205	0.509448
	H398	H	0.316686	0.304529	0.496413
	O399	O	0.684578	0.342098	0.464449
	H400	H	0.688339	0.337020	0.468613
	H401	H	0.676938	0.323497	0.475872
	O402	O	0.996067	0.011546	1.199606
	H403	H	0.997541	0.003659	1.189643
	H404	H	0.966374	-0.004559	1.206610
	O405	O	0.373027	0.344630	0.441499
	H406	H	0.358505	0.345767	0.445510
	H407	H	0.358897	0.336235	0.448496
	O408	O	0.781456	0.978108	1.197650
	H409	H	0.761862	0.988805	1.212365
	H410	H	0.771727	0.999183	1.179949
	O411	O	1.151658	1.011754	-0.215262
	H412	H	1.143910	1.021863	-0.204204
	H413	H	1.139405	1.022528	-0.224261
	O414	O	-0.011339	-0.110945	-0.152342
	H415	H	0.005857	-0.114138	-0.161039
	H416	H	-0.018116	-0.121361	-0.146059
	O417	O	0.177729	0.189969	0.980436
	H418	H	0.178801	0.194777	1.008259
	H419	H	0.179116	0.200333	1.003930
	O420	O	1.026177	-0.145958	1.078910
	H421	H	1.021505	-0.141483	1.071384
	H422	H	1.011202	-0.156987	1.098951
	O423	O	1.613525	0.413578	0.581029
	H424	H	1.602330	0.412338	0.583870
	H425	H	1.607423	0.421054	0.576243
	O426	O	0.298797	0.539519	0.258651
	H427	H	0.288804	0.516522	0.268176
	H428	H	0.277773	0.531707	0.249346
	O429	O	0.860335	1.169849	0.066975
	H430	H	0.871010	1.184777	0.058171
	H431	H	0.858021	1.177921	0.039460
	O432	O	1.319655	-0.292984	1.288877
	H433	H	1.309338	-0.308118	1.287132
	H434	H	1.322671	-0.314563	1.292607
	O435	O	-0.512627	-0.280599	0.281863
	H436	H	-0.533588	-0.268967	0.278824
	H437	H	-0.510661	-0.265641	0.304678
	O438	O	0.645083	0.411022	0.559020
	H439	H	0.635491	0.412394	0.556867
	H440	H	0.636365	0.415840	0.549810
	O441	O	0.485074	0.506827	0.261191
	H442	H	0.479037	0.514756	0.267985
	H443	H	0.493137	0.520203	0.259082
	O444	O	0.312975	0.348833	0.306091
	H445	H	0.311848	0.358866	0.313483
	H446	H	0.329156	0.353343	0.315931
	O447	O	0.402916	0.464336	0.451014
	H448	H	0.399047	0.454411	0.454823
	H449	H	0.400621	0.474924	0.460253
	O450	O	1.709672	-0.267221	0.507977
	H451	H	1.728843	-0.251172	0.524085
	H452	H	1.715251	-0.267747	0.531182
	O453	O	1.222579	-0.019211	1.026042
	H454	H	1.224042	0.008982	1.020668
	H455	H	1.223198	-0.034605	1.031998
	O456	O	-0.029000	0.900698	1.020226
	H457	H	-0.029620	0.897693	1.030775
	H458	H	-0.021815	0.893728	1.031283
	O459	O	0.395680	0.466711	0.505150
	H460	H	0.385437	0.454178	0.505366
	H461	H	0.390273	0.473533	0.500384
	O462	O	0.700350	0.521779	0.462768
	H463	H	0.692439	0.509689	0.451410
	H464	H	0.703897	0.511828	0.458361
	O465	O	0.709188	0.458604	0.268834
	H466	H	0.721031	0.432878	0.254459
	H467	H	0.702781	0.446980	0.272542
	O468	O	0.126600	1.114455	0.078767
	H469	H	0.109162	1.111684	0.101256
	H470	H	0.132324	1.120328	0.090297
	O471	O	0.281975	0.485017	0.692823
	H472	H	0.294649	0.488283	0.697778
	H473	H	0.264191	0.473929	0.716474
	O474	O	0.774127	0.796697	0.017526
	H475	H	0.750868	0.771430	0.033187
	H476	H	0.773520	0.792419	0.054252
	O477	O	0.008814	0.059930	0.934591
	H478	H	-0.000838	0.062729	0.946129
	H479	H	0.003091	0.042105	0.924813
