data_Molecule from HDF5

_cell_length_a		16.361954
_cell_length_b		16.439305
_cell_length_c		16.417517
_cell_angle_alpha	90.187477
_cell_angle_beta	89.730759
_cell_angle_gamma	89.893581
_symmetry_space_group_name_H-M	'P 1'
_symmetry_Int_Tables_number		1

loop_
	_symmetry_equiv_pos_as_xyz
	x,y,z

loop_
	_atom_site_label
	_atom_site_type_symbol
	_atom_site_fract_x
	_atom_site_fract_y
	_atom_site_fract_z
	H0	H	0.382426	0.837702	0.721025
	H1	H	0.594667	0.153904	0.723016
	H2	H	0.594349	0.839145	0.276729
	H3	H	0.379242	0.153875	0.277875
	H4	H	0.713082	0.388348	0.842374
	H5	H	0.704926	0.599909	0.159937
	H6	H	0.265482	0.603429	0.841308
	H7	H	0.266033	0.392026	0.158034
	H8	H	0.828012	0.715656	0.397481
	H9	H	0.144522	0.720930	0.608562
	H10	H	0.829078	0.275191	0.606475
	H11	H	0.145762	0.273328	0.392615
	H12	H	0.830020	0.388756	0.724317
	H13	H	0.145537	0.603195	0.721954
	H14	H	0.826122	0.596986	0.284273
	H15	H	0.146377	0.389934	0.277618
	H16	H	0.381968	0.718158	0.840882
	H17	H	0.592874	0.718888	0.157748
	H18	H	0.597744	0.271764	0.842437
	H19	H	0.380653	0.274612	0.157424
	H20	H	0.708606	0.838063	0.394945
	H21	H	0.709139	0.154717	0.606957
	H22	H	0.265667	0.838003	0.605771
	H23	H	0.265408	0.154829	0.395630
	H24	H	0.883080	0.337390	0.219605
	H25	H	0.090556	0.655179	0.221669
	H26	H	0.096968	0.339910	0.775636
	H27	H	0.880905	0.654943	0.777917
	H28	H	0.207709	0.891699	0.340348
	H29	H	0.207451	0.102101	0.659196
	H30	H	0.767671	0.099368	0.341483
	H31	H	0.761610	0.887715	0.656313
	H32	H	0.330119	0.218862	0.892950
	H33	H	0.646122	0.219196	0.106822
	H34	H	0.328340	0.776408	0.105197
	H35	H	0.647645	0.776219	0.895351
	H36	H	0.328484	0.891944	0.221216
	H37	H	0.644506	0.103732	0.223091
	H38	H	0.329014	0.100642	0.779885
	H39	H	0.647098	0.888259	0.776876
	H40	H	0.883429	0.216016	0.340721
	H41	H	0.095057	0.220535	0.657104
	H42	H	0.094634	0.774063	0.341182
	H43	H	0.878173	0.773236	0.657218
	H44	H	0.211911	0.339797	0.891836
	H45	H	0.207912	0.655616	0.106282
	H46	H	0.765752	0.339184	0.106415
	H47	H	0.768488	0.656837	0.897320
	H48	H	0.392068	0.110746	0.588790
	H49	H	0.579042	0.884955	0.579147
	H50	H	0.570663	0.110904	0.402546
	H51	H	0.400638	0.883919	0.410657
	H52	H	0.571243	0.402590	0.112994
	H53	H	0.579437	0.580171	0.887714
	H54	H	0.402555	0.593796	0.113114
	H55	H	0.408196	0.403556	0.887800
	H56	H	0.100973	0.587517	0.414869
	H57	H	0.872801	0.584800	0.592061
	H58	H	0.104440	0.403297	0.592388
	H59	H	0.874832	0.404408	0.417186
	H60	H	0.098230	0.406268	0.577667
	H61	H	0.874565	0.587755	0.585198
	H62	H	0.099610	0.580089	0.409359
	H63	H	0.873137	0.412034	0.406198
	H64	H	0.390699	0.587880	0.115861
	H65	H	0.571832	0.586222	0.887562
	H66	H	0.581585	0.408748	0.114115
	H67	H	0.394410	0.404222	0.883765
	H68	H	0.570093	0.105294	0.419369
	H69	H	0.578862	0.880089	0.594332
	H70	H	0.401371	0.110293	0.595434
	H71	H	0.396307	0.882675	0.411723
	H72	H	0.894103	0.609511	0.085003
	H73	H	0.066741	0.386112	0.089944
	H74	H	0.074208	0.606044	0.918749
	H75	H	0.897207	0.383335	0.909488
	H76	H	0.075681	0.904907	0.613929
	H77	H	0.079077	0.084619	0.385937
	H78	H	0.893971	0.086192	0.614821
	H79	H	0.900850	0.903047	0.386579
	H80	H	0.602651	0.078390	0.903130
	H81	H	0.372304	0.085401	0.091769
	H82	H	0.600946	0.908322	0.087544
	H83	H	0.372904	0.902989	0.911140
	H84	H	0.601215	0.907998	0.088933
	H85	H	0.373491	0.087996	0.084933
	H86	H	0.604425	0.092841	0.911274
	H87	H	0.376207	0.910063	0.913986
	H88	H	0.899098	0.080889	0.611986
	H89	H	0.075476	0.083124	0.388106
	H90	H	0.077590	0.909523	0.613334
	H91	H	0.895735	0.906352	0.385310
	H92	H	0.082913	0.612759	0.909497
	H93	H	0.079877	0.386295	0.078739
	H94	H	0.891869	0.614319	0.097978
	H95	H	0.904454	0.384540	0.910682
	H96	H	0.401639	0.105632	0.584654
	H97	H	0.565940	0.886978	0.588010
	H98	H	0.585300	0.112769	0.412891
	H99	H	0.397911	0.882062	0.407874
	H100	H	0.572603	0.413564	0.109049
	H101	H	0.580326	0.589243	0.883463
	H102	H	0.400404	0.581071	0.109935
	H103	H	0.400941	0.415917	0.888996
	H104	H	0.103633	0.587570	0.406150
	H105	H	0.875988	0.579891	0.587053
	H106	H	0.098311	0.418009	0.589020
	H107	H	0.869701	0.399017	0.406394
	H108	H	0.903871	0.609302	0.094212
	H109	H	0.082285	0.379269	0.094457
	H110	H	0.068725	0.609546	0.906010
	H111	H	0.898818	0.385709	0.915928
	H112	H	0.072852	0.908162	0.612450
	H113	H	0.075387	0.087393	0.385716
	H114	H	0.901385	0.088346	0.613347
	H115	H	0.900419	0.908860	0.387599
	H116	H	0.597050	0.080096	0.919273
	H117	H	0.376140	0.081144	0.086821
	H118	H	0.601584	0.907459	0.088347
	H119	H	0.373173	0.909099	0.906149
	C120	C	0.365792	0.004540	0.621653
	C121	C	0.608422	0.988079	0.620856
	C122	C	0.608143	0.005212	0.378491
	C123	C	0.365257	0.987673	0.378286
	C124	C	0.610030	0.374213	0.008530
	C125	C	0.608627	0.617644	0.991268
	C126	C	0.365772	0.619457	0.008140
	C127	C	0.367150	0.375270	0.991234
	C128	C	-0.004100	0.616364	0.379392
	C129	C	0.978671	0.617567	0.621127
	C130	C	-0.004142	0.375738	0.620622
	C131	C	0.978048	0.373231	0.377174
	C132	C	0.865199	0.505778	0.123053
	C133	C	0.108314	0.488471	0.121011
	C134	C	0.109364	0.505637	0.877699
	C135	C	0.866918	0.488816	0.879401
	C136	C	0.108465	0.874794	0.508284
	C137	C	0.109388	0.118059	0.491223
	C138	C	0.866441	0.117281	0.508588
	C139	C	0.865567	0.874184	0.491097
	C140	C	0.496823	0.116830	0.878603
	C141	C	0.478732	0.117789	0.120960
	C142	C	0.496176	0.875818	0.120552
	C143	C	0.479462	0.874612	0.877781
	C144	C	0.363706	0.885296	0.681178
	C145	C	0.611898	0.106803	0.682260
	C146	C	0.611805	0.886268	0.317383
	C147	C	0.361955	0.106613	0.318109
	C148	C	0.672395	0.370656	0.889884
	C149	C	0.666302	0.618863	0.111674
	C150	C	0.305764	0.621265	0.888953
	C151	C	0.305962	0.373381	0.110305
	C152	C	0.875441	0.675624	0.378722
	C153	C	0.097650	0.679347	0.624987
	C154	C	0.876938	0.314768	0.624404
	C155	C	0.098072	0.313571	0.374590
	C156	C	0.877444	0.371495	0.683237
	C157	C	0.097958	0.620942	0.681867
	C158	C	0.874614	0.616985	0.322310
	C159	C	0.098298	0.371545	0.317166
	C160	C	0.363504	0.678807	0.888812
	C161	C	0.610708	0.678241	0.110618
	C162	C	0.615013	0.312370	0.889714
	C163	C	0.363314	0.314950	0.110064
	C164	C	0.668717	0.885819	0.376021
	C165	C	0.669187	0.107066	0.624444
	C166	C	0.305750	0.885360	0.623628
	C167	C	0.305045	0.107045	0.376767
	C168	C	0.864394	0.385432	0.180697
	C169	C	0.109596	0.607779	0.181578
	C170	C	0.113866	0.387287	0.815909
	C171	C	0.863333	0.607757	0.818867
	C172	C	0.168463	0.872992	0.388511
	C173	C	0.168819	0.120749	0.610851
	C174	C	0.807242	0.118523	0.388775
	C175	C	0.803066	0.870816	0.609264
	C176	C	0.377451	0.178203	0.875388
	C177	C	0.598249	0.178706	0.124461
	C178	C	0.376308	0.815881	0.123263
	C179	C	0.599601	0.815230	0.876267
	C180	C	0.376255	0.873453	0.181091
	C181	C	0.597418	0.121592	0.182688
	C182	C	0.376906	0.119221	0.819110
	C183	C	0.599153	0.871061	0.817189
	C184	C	0.865007	0.176289	0.388696
	C185	C	0.112694	0.179722	0.609881
	C186	C	0.112128	0.814050	0.388943
	C187	C	0.861442	0.813648	0.609821
	C188	C	0.171188	0.387257	0.874062
	C189	C	0.168195	0.607591	0.124421
	C190	C	0.805992	0.386275	0.124149
	C191	C	0.806956	0.608552	0.878142
	C192	C	0.391039	0.087342	0.596769
	C193	C	0.582247	0.905543	0.594611
	C194	C	0.582534	0.087999	0.404123
	C195	C	0.390904	0.904692	0.403026
	C196	C	0.582927	0.400558	0.090672
	C197	C	0.584146	0.592510	0.907989
	C198	C	0.390703	0.594609	0.091372
	C199	C	0.393675	0.400617	0.908350
	C200	C	0.079557	0.592087	0.403070
	C201	C	0.895994	0.591624	0.595432
	C202	C	0.078926	0.401776	0.594029
	C203	C	0.894413	0.398014	0.402554
	C204	C	0.889601	0.589298	0.099325
	C205	C	0.083404	0.405529	0.095205
	C206	C	0.082941	0.588138	0.903940
	C207	C	0.892641	0.406168	0.904666
	C208	C	0.082734	0.900103	0.591465
	C209	C	0.084179	0.092359	0.408202
	C210	C	0.891348	0.092552	0.591690
	C211	C	0.891604	0.898997	0.408113
	C212	C	0.579802	0.091150	0.903901
	C213	C	0.395629	0.092228	0.095223
	C214	C	0.579594	0.900760	0.095497
	C215	C	0.395953	0.899898	0.903102
	Zn216	Zn	0.488356	-0.004352	0.749958
	Zn217	Zn	0.486963	-0.003279	0.249759
	Zn218	Zn	0.737724	0.497241	0.000420
	Zn219	Zn	0.237916	0.496988	-0.000481
	Zn220	Zn	-0.012787	0.745706	0.499780
	Zn221	Zn	-0.012393	0.246099	0.499975
	Zn222	Zn	-0.012445	0.496841	0.749468
	Zn223	Zn	-0.013106	0.496067	0.250420
	Zn224	Zn	0.488340	0.746962	-0.000585
	Zn225	Zn	0.488135	0.245541	-0.000585
	Zn226	Zn	0.736964	-0.003546	0.499926
	Zn227	Zn	0.237065	-0.003523	0.500358
	N228	N	0.400250	0.960422	0.680318
	N229	N	0.575039	0.031802	0.680315
	N230	N	0.575012	0.961560	0.318673
	N231	N	0.398573	0.031282	0.318914
	N232	N	0.669727	0.408157	0.964799
	N233	N	0.665195	0.581817	0.036419
	N234	N	0.306981	0.585061	0.964390
	N235	N	0.308317	0.410280	0.035276
	N236	N	0.951744	0.675672	0.413241
	N237	N	0.022543	0.677416	0.587931
	N238	N	0.951798	0.317236	0.586317
	N239	N	0.022452	0.314587	0.411368
	N240	N	0.952649	0.408614	0.680997
	N241	N	0.023009	0.583333	0.679657
	N242	N	0.950426	0.580756	0.322684
	N243	N	0.022613	0.408001	0.318643
	N244	N	0.400009	0.677973	0.964022
	N245	N	0.575390	0.677607	0.034818
	N246	N	0.576646	0.314590	0.964379
	N247	N	0.400609	0.316081	0.034920
	N248	N	0.666461	0.960710	0.413400
	N249	N	0.666963	0.032251	0.586934
	N250	N	0.307087	0.960499	0.587258
	N251	N	0.307193	0.032222	0.413550
	N252	N	0.900487	0.460824	0.180129
	N253	N	0.073278	0.532491	0.179884
	N254	N	0.076052	0.462030	0.818109
	N255	N	0.899606	0.532206	0.819179
	N256	N	0.166796	0.909629	0.463877
	N257	N	0.166941	0.083194	0.535780
	N258	N	0.807864	0.082549	0.464210
	N259	N	0.805812	0.908080	0.534470
	N260	N	0.453068	0.177043	0.911381
	N261	N	0.523415	0.176468	0.086820
	N262	N	0.451906	0.817222	0.086411
	N263	N	0.524223	0.817485	0.913284
	N264	N	0.451629	0.910082	0.179592
	N265	N	0.522105	0.084656	0.180618
	N266	N	0.452155	0.081897	0.820825
	N267	N	0.523250	0.907386	0.817953
	N268	N	0.901018	0.175635	0.464246
	N269	N	0.076486	0.178181	0.534608
	N270	N	0.075681	0.814825	0.464626
	N271	N	0.899879	0.815742	0.535265
	N272	N	0.168575	0.461860	0.911765
	N273	N	0.167541	0.532369	0.087586
	N274	N	0.806109	0.462088	0.089189
	N275	N	0.809117	0.533550	0.915008
	O276	O	0.396565	0.584395	0.366777
	H277	H	0.384852	0.598699	0.381110
	H278	H	0.386167	0.562028	0.366609
	O279	O	0.300856	0.340860	0.666297
	H280	H	0.309913	0.345770	0.667878
	H281	H	0.290662	0.323315	0.639464
	O282	O	0.680695	0.525029	0.311431
	H283	H	0.687574	0.537514	0.297492
	H284	H	0.666044	0.534022	0.302282
	O285	O	0.874929	1.110368	0.024742
	H286	H	0.885767	1.107624	0.020836
	H287	H	0.859623	1.121392	0.011779
	O288	O	0.552468	0.502862	0.389718
	H289	H	0.542668	0.496768	0.392277
	H290	H	0.569871	0.497803	0.396490
	O291	O	0.854394	-0.118090	0.888152
	H292	H	0.858305	-0.123799	0.892849
	H293	H	0.850433	-0.097424	0.865218
	O294	O	0.807991	1.165564	0.820123
	H295	H	0.798289	1.179882	0.871713
	H296	H	0.859495	1.180476	0.808810
	O297	O	0.527248	0.664747	0.404169
	H298	H	0.529568	0.667168	0.399256
	H299	H	0.529407	0.661305	0.394676
	O300	O	0.704178	0.521218	0.712727
	H301	H	0.739605	0.528808	0.746217
	H302	H	0.691017	0.546853	0.697857
	O303	O	0.461395	0.497147	0.704650
	H304	H	0.477074	0.507663	0.708931
	H305	H	0.448339	0.475745	0.702121
	O306	O	0.280888	-0.526951	1.375276
	H307	H	0.281660	-0.521054	1.353593
	H308	H	0.286099	-0.520238	1.370196
	O309	O	0.968765	0.161597	0.198825
	H310	H	0.958393	0.161263	0.218251
	H311	H	0.960346	0.138111	0.203315
	O312	O	0.372499	0.690703	0.446938
	H313	H	0.359786	0.687725	0.432529
	H314	H	0.362485	0.690519	0.454346
	O315	O	-0.069364	-0.150574	1.119947
	H316	H	-0.063249	-0.159811	1.102590
	H317	H	-0.071392	-0.142309	1.123026
	O318	O	-0.123443	0.005744	-0.112765
	H319	H	-0.109659	0.039471	-0.112134
	H320	H	-0.137238	0.001703	-0.129685
	O321	O	1.106203	-0.098632	0.000825
	H322	H	1.102764	-0.079914	0.006070
	H323	H	1.104675	-0.103777	-0.033835
	O324	O	1.081976	-0.005355	1.157201
	H325	H	1.091691	-0.010968	1.156152
	H326	H	1.089830	-0.013747	1.151523
	O327	O	0.677277	0.422484	0.525783
	H328	H	0.683002	0.441364	0.545608
	H329	H	0.664073	0.426756	0.526056
	O330	O	-0.047713	0.788876	1.025939
	H331	H	-0.045321	0.771407	1.023551
	H332	H	-0.045897	0.794163	1.018515
	O333	O	0.148215	0.810559	-0.004296
	H334	H	0.141753	0.824962	0.001655
	H335	H	0.162321	0.801144	-0.015957
	O336	O	1.098729	1.037368	-0.046525
	H337	H	1.124700	1.044533	-0.031285
	H338	H	1.076065	1.035229	-0.026460
	O339	O	-0.018284	0.880488	1.167858
	H340	H	-0.028989	0.875088	1.162288
	H341	H	-0.031457	0.883656	1.175989
	O342	O	0.682271	0.423972	0.430813
	H343	H	0.684992	0.437073	0.427654
	H344	H	0.682129	0.424198	0.436767
	O345	O	0.173648	-0.020522	0.787697
	H346	H	0.197969	-0.036094	0.764867
	H347	H	0.168078	-0.050924	0.794479
	O348	O	0.570463	0.311762	0.600973
	H349	H	0.577461	0.308115	0.605511
	H350	H	0.563390	0.308709	0.619252
	O351	O	1.429768	1.661656	-0.360743
	H352	H	1.422731	1.658455	-0.366048
	H353	H	1.418010	1.654682	-0.359770
	O354	O	0.870386	0.961607	0.789222
	H355	H	0.881873	0.996405	0.784106
	H356	H	0.851796	0.985171	0.780084
	O357	O	-0.104793	0.127772	-0.049571
	H358	H	-0.110124	0.142707	-0.049527
	H359	H	-0.083406	0.147872	-0.037194
	O360	O	0.360640	0.605784	0.544375
	H361	H	0.356063	0.611109	0.529656
	H362	H	0.359133	0.599650	0.521726
	O363	O	1.289418	0.508103	0.658968
	H364	H	1.303804	0.505475	0.644911
	H365	H	1.273814	0.502006	0.684233
	O366	O	0.178692	-0.003475	1.067540
	H367	H	0.187990	0.002738	1.059747
	H368	H	0.171901	0.010554	1.065417
	O369	O	0.951703	0.958170	1.157353
	H370	H	0.951604	0.942272	1.156267
	H371	H	0.937153	0.944958	1.158216
	O372	O	0.383429	0.554530	0.363215
	H373	H	0.367650	0.550435	0.365155
	H374	H	0.379857	0.536642	0.378824
	O375	O	-0.204121	0.031017	1.087550
	H376	H	-0.214514	0.033889	1.103776
	H377	H	-0.206583	0.008615	1.067311
	O378	O	0.084733	0.072369	-0.195962
	H379	H	0.104366	0.079526	-0.191603
	H380	H	0.094438	0.090057	-0.194358
	O381	O	0.138484	0.812373	-0.182596
	H382	H	0.144934	0.803285	-0.136383
	H383	H	0.093442	0.803812	-0.189066
	O384	O	0.018211	1.028756	1.109121
	H385	H	0.016954	1.019398	1.111206
	H386	H	0.014513	1.018219	1.090146
	O387	O	0.298772	0.292531	0.539653
	H388	H	0.297036	0.287435	0.526236
	H389	H	0.306597	0.292909	0.525850
	O390	O	0.966383	1.202010	-0.209388
	H391	H	0.985633	1.213572	-0.212900
	H392	H	0.984765	1.220141	-0.202718
	O393	O	0.506942	0.648846	0.398554
	H394	H	0.501281	0.653098	0.393968
	H395	H	0.473055	0.657258	0.399411
	O396	O	0.831055	-0.145071	0.129601
	H397	H	0.855587	-0.143102	0.122794
	H398	H	0.832035	-0.138094	0.112091
	O399	O	0.394335	0.381556	0.529074
	H400	H	0.416888	0.375733	0.523685
	H401	H	0.385726	0.364784	0.557579
	O402	O	0.790707	1.017984	0.080314
	H403	H	0.773070	1.028873	0.079424
	H404	H	0.778522	0.999006	0.083747
	O405	O	0.481360	0.321150	0.714266
	H406	H	0.486834	0.295162	0.734687
	H407	H	0.479553	0.338965	0.704233
	O408	O	0.386563	0.581940	0.405953
	H409	H	0.401085	0.577378	0.408957
	H410	H	0.382434	0.578459	0.423550
	O411	O	1.017031	1.199026	0.995672
	H412	H	1.013060	1.193381	1.009651
	H413	H	1.028864	1.197650	1.029644
	O414	O	0.675430	0.308281	0.314010
	H415	H	0.675699	0.306905	0.353083
	H416	H	0.680539	0.343787	0.313995
	O417	O	0.125001	1.168818	1.180084
	H418	H	0.086983	1.176286	1.194887
	H419	H	0.133967	1.131600	1.192339
	O420	O	0.182872	1.205260	1.046076
	H421	H	0.185154	1.201010	1.070329
	H422	H	0.197265	1.217251	1.067541
	O423	O	0.425057	1.575312	0.418555
	H424	H	0.434792	1.562574	0.427251
	H425	H	0.409468	1.575172	0.415625
	O426	O	0.542954	0.444636	0.577111
	H427	H	0.537271	0.462328	0.572088
	H428	H	0.542306	0.449798	0.594702
	O429	O	0.520793	0.340063	0.504015
	H430	H	0.512044	0.348752	0.497973
	H431	H	0.544120	0.334913	0.505837
	O432	O	0.506825	0.286931	0.287756
	H433	H	0.527540	0.273097	0.274784
	H434	H	0.520898	0.278977	0.284551
	O435	O	-0.030182	-0.192652	-0.174824
	H436	H	-0.038147	-0.206493	-0.207889
	H437	H	-0.052816	-0.164734	-0.181937
	O438	O	0.581812	0.640785	0.516241
	H439	H	0.588072	0.635660	0.530201
	H440	H	0.578057	0.632052	0.516359
	O441	O	0.612200	0.688276	0.689055
	H442	H	0.601646	0.690868	0.674561
	H443	H	0.599183	0.700787	0.698534
