data_Molecule from HDF5

_cell_length_a		16.647424
_cell_length_b		16.663340
_cell_length_c		16.504737
_cell_angle_alpha	90.087435
_cell_angle_beta	90.012010
_cell_angle_gamma	89.867035
_symmetry_space_group_name_H-M	'P 1'
_symmetry_Int_Tables_number		1

loop_
	_symmetry_equiv_pos_as_xyz
	x,y,z

loop_
	_atom_site_label
	_atom_site_type_symbol
	_atom_site_fract_x
	_atom_site_fract_y
	_atom_site_fract_z
	H0	H	0.405936	0.867700	0.712400
	H1	H	0.610480	0.179722	0.715264
	H2	H	0.616360	0.869575	0.268633
	H3	H	0.402273	0.178318	0.272223
	H4	H	0.731337	0.414506	0.839226
	H5	H	0.725843	0.626290	0.151650
	H6	H	0.284684	0.630375	0.837838
	H7	H	0.286809	0.419800	0.150133
	H8	H	0.852178	0.747936	0.387067
	H9	H	0.159321	0.751231	0.604762
	H10	H	0.851816	0.303059	0.599922
	H11	H	0.162431	0.303009	0.388943
	H12	H	0.851900	0.420376	0.715763
	H13	H	0.160841	0.632786	0.718321
	H14	H	0.850483	0.627806	0.273717
	H15	H	0.163229	0.420738	0.273971
	H16	H	0.402172	0.744463	0.837440
	H17	H	0.610055	0.743079	0.150388
	H18	H	0.613982	0.300128	0.838856
	H19	H	0.402086	0.303575	0.150141
	H20	H	0.735069	0.872200	0.382606
	H21	H	0.727894	0.179279	0.599569
	H22	H	0.286805	0.868117	0.597915
	H23	H	0.284464	0.177546	0.386871
	H24	H	0.906122	0.367705	0.212966
	H25	H	0.110226	0.680902	0.214249
	H26	H	0.113242	0.369171	0.771188
	H27	H	0.901458	0.679474	0.772805
	H28	H	0.225520	0.921108	0.335700
	H29	H	0.226139	0.127727	0.651512
	H30	H	0.788249	0.127240	0.336365
	H31	H	0.785081	0.918877	0.649056
	H32	H	0.351612	0.245184	0.889102
	H33	H	0.660324	0.246457	0.102295
	H34	H	0.352492	0.799272	0.102155
	H35	H	0.662243	0.802047	0.889369
	H36	H	0.351334	0.918700	0.215437
	H37	H	0.661516	0.128035	0.216216
	H38	H	0.350611	0.127242	0.774696
	H39	H	0.663258	0.921423	0.775438
	H40	H	0.905764	0.241468	0.335450
	H41	H	0.110850	0.243870	0.651371
	H42	H	0.111839	0.803656	0.337157
	H43	H	0.901120	0.803830	0.649696
	H44	H	0.229952	0.369799	0.886992
	H45	H	0.226558	0.681130	0.098201
	H46	H	0.786685	0.368902	0.099729
	H47	H	0.783523	0.678166	0.887389
	H48	H	0.419175	0.136516	0.587201
	H49	H	0.601482	0.911464	0.582600
	H50	H	0.593126	0.135258	0.400463
	H51	H	0.419796	0.910890	0.398661
	H52	H	0.597787	0.431118	0.108523
	H53	H	0.593077	0.610805	0.882414
	H54	H	0.412281	0.607795	0.106235
	H55	H	0.412186	0.435789	0.880226
	H56	H	0.118058	0.613195	0.404588
	H57	H	0.896470	0.614729	0.580491
	H58	H	0.116025	0.440027	0.580552
	H59	H	0.892935	0.433404	0.398186
	H60	H	0.120169	0.433887	0.586695
	H61	H	0.898544	0.612469	0.579005
	H62	H	0.118473	0.615741	0.405959
	H63	H	0.893871	0.428254	0.406586
	H64	H	0.424259	0.610983	0.103026
	H65	H	0.596326	0.614223	0.879855
	H66	H	0.599057	0.438311	0.106321
	H67	H	0.421898	0.440219	0.884101
	H68	H	0.589239	0.130823	0.410700
	H69	H	0.595807	0.912067	0.586641
	H70	H	0.416298	0.134809	0.579805
	H71	H	0.421253	0.914250	0.411121
	H72	H	0.915709	0.636800	0.083349
	H73	H	0.098910	0.411968	0.085409
	H74	H	0.095390	0.637937	0.898544
	H75	H	0.917007	0.411568	0.902399
	H76	H	0.098295	0.940112	0.606582
	H77	H	0.096469	0.114505	0.380428
	H78	H	0.919557	0.116315	0.606620
	H79	H	0.916231	0.939967	0.381025
	H80	H	0.619562	0.115894	0.904048
	H81	H	0.393912	0.118199	0.081987
	H82	H	0.619141	0.929685	0.081145
	H83	H	0.394883	0.931736	0.905401
	H84	H	0.615698	0.936535	0.077294
	H85	H	0.396941	0.110984	0.079050
	H86	H	0.617358	0.113104	0.909781
	H87	H	0.395590	0.934341	0.905805
	H88	H	0.914588	0.116608	0.608421
	H89	H	0.097460	0.115561	0.380407
	H90	H	0.092563	0.937022	0.604937
	H91	H	0.924653	0.941470	0.385190
	H92	H	0.089153	0.630986	0.909820
	H93	H	0.095606	0.414247	0.082459
	H94	H	0.915224	0.636930	0.083599
	H95	H	0.923554	0.415704	0.905833
	H96	H	0.411548	0.137921	0.585718
	H97	H	0.595472	0.914033	0.579773
	H98	H	0.600081	0.134461	0.409794
	H99	H	0.410011	0.910206	0.406860
	H100	H	0.592078	0.434966	0.105514
	H101	H	0.598121	0.609618	0.881253
	H102	H	0.417011	0.619129	0.108771
	H103	H	0.421623	0.429498	0.879954
	H104	H	0.117752	0.613285	0.407323
	H105	H	0.896540	0.611800	0.581966
	H106	H	0.118158	0.430900	0.577740
	H107	H	0.896372	0.437798	0.406081
	H108	H	0.915745	0.636358	0.083941
	H109	H	0.099946	0.413178	0.080671
	H110	H	0.102725	0.636197	0.910692
	H111	H	0.917036	0.413703	0.910712
	H112	H	0.097692	0.933057	0.607348
	H113	H	0.097447	0.114330	0.380211
	H114	H	0.916286	0.112203	0.606650
	H115	H	0.922837	0.932555	0.381545
	H116	H	0.617786	0.109476	0.904259
	H117	H	0.393795	0.111026	0.086934
	H118	H	0.617569	0.936981	0.085458
	H119	H	0.394509	0.933435	0.903657
	C120	C	0.385304	0.032510	0.615019
	C121	C	0.628869	1.015449	0.615303
	C122	C	0.628380	0.031836	0.372369
	C123	C	0.385324	1.014564	0.372442
	C124	C	0.629141	0.401352	0.003673
	C125	C	0.627379	0.643534	0.985149
	C126	C	0.385570	0.645266	0.002588
	C127	C	0.386386	0.403487	0.985062
	C128	C	0.015045	0.645781	0.373340
	C129	C	0.998626	0.646456	0.614932
	C130	C	0.015429	0.403233	0.614809
	C131	C	0.998098	0.402420	0.372130
	C132	C	0.885471	0.533014	0.115375
	C133	C	0.128919	0.516414	0.114876
	C134	C	0.128715	0.532613	0.872547
	C135	C	0.886127	0.515815	0.873478
	C136	C	0.127861	0.903854	0.502340
	C137	C	0.128577	0.146083	0.484896
	C138	C	0.886081	0.145639	0.502581
	C139	C	0.887171	0.904874	0.484962
	C140	C	0.515286	0.144868	0.873502
	C141	C	0.497358	0.145288	0.115793
	C142	C	0.515023	0.901821	0.114607
	C143	C	0.498481	0.901940	0.873214
	C144	C	0.385883	0.914431	0.673136
	C145	C	0.629510	0.132806	0.675254
	C146	C	0.633679	0.916226	0.309490
	C147	C	0.383288	0.131434	0.312118
	C148	C	0.690371	0.397330	0.886025
	C149	C	0.686362	0.645398	0.104010
	C150	C	0.324884	0.648523	0.884820
	C151	C	0.326496	0.401521	0.103018
	C152	C	0.898380	0.706756	0.369727
	C153	C	0.113421	0.709553	0.621090
	C154	C	0.898472	0.343336	0.617995
	C155	C	0.115548	0.343119	0.370445
	C156	C	0.898453	0.401453	0.675659
	C157	C	0.114273	0.650487	0.677574
	C158	C	0.897529	0.647210	0.313388
	C159	C	0.116083	0.401617	0.313331
	C160	C	0.383299	0.704991	0.884481
	C161	C	0.629037	0.703367	0.103536
	C162	C	0.632415	0.340182	0.886061
	C163	C	0.383895	0.343764	0.103147
	C164	C	0.692664	0.917366	0.366106
	C165	C	0.687904	0.132664	0.617838
	C166	C	0.327020	0.914755	0.616201
	C167	C	0.324958	0.131359	0.369328
	C168	C	0.886052	0.415140	0.174124
	C169	C	0.129435	0.634021	0.174500
	C170	C	0.131389	0.415938	0.811495
	C171	C	0.883131	0.632604	0.813024
	C172	C	0.186550	0.902275	0.383462
	C173	C	0.187370	0.147002	0.603593
	C174	C	0.827840	0.146264	0.383520
	C175	C	0.825888	0.901474	0.602362
	C176	C	0.398171	0.204844	0.871086
	C177	C	0.614115	0.205560	0.119336
	C178	C	0.398748	0.840501	0.119158
	C179	C	0.615802	0.842530	0.871251
	C180	C	0.398159	0.899613	0.175717
	C181	C	0.614626	0.146757	0.176083
	C182	C	0.397589	0.145919	0.814376
	C183	C	0.616164	0.901626	0.814682
	C184	C	0.886198	0.202904	0.383130
	C185	C	0.129695	0.204579	0.603861
	C186	C	0.129884	0.843962	0.384189
	C187	C	0.883674	0.844210	0.602646
	C188	C	0.189660	0.416264	0.868908
	C189	C	0.187277	0.634060	0.116651
	C190	C	0.827017	0.415348	0.117617
	C191	C	0.824390	0.631994	0.869951
	C192	C	0.408858	0.114863	0.591031
	C193	C	0.604639	0.933709	0.590006
	C194	C	0.601615	0.112464	0.399489
	C195	C	0.410092	0.932917	0.398131
	C196	C	0.603590	0.427393	0.085531
	C197	C	0.602908	0.618611	0.902758
	C198	C	0.410685	0.619846	0.084697
	C199	C	0.411502	0.428140	0.902905
	C200	C	0.096818	0.620939	0.398677
	C201	C	0.918124	0.620278	0.588077
	C202	C	0.096877	0.427871	0.589038
	C203	C	0.915809	0.426374	0.396429
	C204	C	0.908896	0.615272	0.090596
	C205	C	0.105039	0.434443	0.090105
	C206	C	0.102925	0.614020	0.898774
	C207	C	0.911819	0.434704	0.899114
	C208	C	0.103198	0.929396	0.584908
	C209	C	0.104098	0.121953	0.401946
	C210	C	0.909919	0.121865	0.585588
	C211	C	0.913481	0.930786	0.403705
	C212	C	0.596957	0.119934	0.898737
	C213	C	0.416038	0.120482	0.090031
	C214	C	0.596175	0.927144	0.088676
	C215	C	0.416387	0.926196	0.897833
	Zn216	Zn	0.506979	0.023854	0.744217
	Zn217	Zn	0.506926	0.022820	0.243807
	Zn218	Zn	0.756536	0.523306	-0.005877
	Zn219	Zn	0.257913	0.524708	-0.005917
	Zn220	Zn	0.006953	0.775613	0.493429
	Zn221	Zn	0.006758	0.273773	0.494159
	Zn222	Zn	0.007190	0.524627	0.743638
	Zn223	Zn	0.007395	0.525166	0.243753
	Zn224	Zn	0.506761	0.772603	-0.006001
	Zn225	Zn	0.506630	0.274402	-0.005798
	Zn226	Zn	0.757717	0.024898	0.493115
	Zn227	Zn	0.256319	0.023945	0.494061
	N228	N	0.421250	0.988713	0.672805
	N229	N	0.593640	0.058728	0.674034
	N230	N	0.594304	0.988561	0.313234
	N231	N	0.419998	0.057541	0.313741
	N232	N	0.688666	0.434670	0.960271
	N233	N	0.685597	0.608949	0.029362
	N234	N	0.326143	0.612105	0.959323
	N235	N	0.327761	0.437965	0.028580
	N236	N	0.972500	0.705993	0.406198
	N237	N	0.040368	0.707366	0.582812
	N238	N	0.972275	0.344195	0.580933
	N239	N	0.041095	0.343328	0.406201
	N240	N	0.972224	0.437839	0.673941
	N241	N	0.041726	0.611782	0.673972
	N242	N	0.971090	0.609840	0.315569
	N243	N	0.041932	0.437749	0.313903
	N244	N	0.420439	0.703009	0.958675
	N245	N	0.593356	0.702560	0.028540
	N246	N	0.595019	0.342479	0.960213
	N247	N	0.420477	0.344795	0.028858
	N248	N	0.689418	0.990435	0.404474
	N249	N	0.687836	0.058628	0.581369
	N250	N	0.326322	0.989351	0.581147
	N251	N	0.325872	0.057608	0.406010
	N252	N	0.921642	0.489348	0.172851
	N253	N	0.093880	0.559822	0.173678
	N254	N	0.094381	0.489643	0.813509
	N255	N	0.920837	0.559408	0.815000
	N256	N	0.185764	0.938622	0.458313
	N257	N	0.187050	0.111380	0.528494
	N258	N	0.827692	0.111453	0.458854
	N259	N	0.827841	0.938602	0.528190
	N260	N	0.472419	0.204341	0.907198
	N261	N	0.540156	0.205209	0.082840
	N262	N	0.472350	0.841891	0.081767
	N263	N	0.541349	0.842431	0.906890
	N264	N	0.471471	0.937113	0.173177
	N265	N	0.541012	0.109869	0.174123
	N266	N	0.471571	0.109529	0.815420
	N267	N	0.542163	0.937805	0.815757
	N268	N	0.921370	0.203128	0.458400
	N269	N	0.094073	0.204350	0.528809
	N270	N	0.094536	0.844517	0.459261
	N271	N	0.921214	0.846225	0.528677
	N272	N	0.188167	0.490054	0.906174
	N273	N	0.187396	0.559785	0.080638
	N274	N	0.826388	0.489726	0.081949
	N275	N	0.826078	0.558181	0.906826
	O276	O	0.122463	1.198594	0.109442
	H277	H	0.132531	1.171971	0.113118
	H278	H	0.143449	1.210788	0.133844
	O279	O	0.228325	0.015577	0.139985
	H280	H	0.228762	0.033977	0.120268
	H281	H	0.234021	0.002212	0.144816
	O282	O	0.798022	0.244046	0.979388
	H283	H	0.779731	0.272510	0.975553
	H284	H	0.807504	0.242256	0.954658
	O285	O	0.123205	0.156141	0.952757
	H286	H	0.130853	0.165870	0.944003
	H287	H	0.129172	0.156314	0.959577
	O288	O	0.446226	0.693191	0.489851
	H289	H	0.445583	0.686973	0.494692
	H290	H	0.445650	0.679141	0.476104
	O291	O	-0.443442	0.297094	0.554703
	H292	H	-0.420313	0.300032	0.548512
	H293	H	-0.434547	0.295639	0.581483
	O294	O	0.952388	-0.008578	0.774746
	H295	H	0.962911	-0.016656	0.783777
	H296	H	0.958757	-0.006983	0.767277
	O297	O	0.660856	0.720800	0.360452
	H298	H	0.645569	0.700387	0.365581
	H299	H	0.644393	0.720683	0.377741
	O300	O	-0.351823	-0.425954	0.458483
	H301	H	-0.345692	-0.447581	0.468361
	H302	H	-0.345171	-0.428721	0.448221
	O303	O	0.633738	0.564870	0.501146
	H304	H	0.627513	0.568044	0.502118
	H305	H	0.634066	0.577191	0.500769
	O306	O	0.308815	0.337317	0.680055
	H307	H	0.298182	0.367822	0.682020
	H308	H	0.339692	0.339569	0.670676
	O309	O	0.732349	0.298896	0.462663
	H310	H	0.746979	0.282488	0.445391
	H311	H	0.739207	0.288265	0.431361
	O312	O	0.425527	0.503273	0.444256
	H313	H	0.449946	0.493592	0.445542
	H314	H	0.420358	0.501148	0.432484
	O315	O	1.725293	0.485074	1.279652
	H316	H	1.717974	0.473881	1.280650
	H317	H	1.747129	0.491246	1.268161
	O318	O	0.445029	0.558194	0.623500
	H319	H	0.452505	0.556660	0.629415
	H320	H	0.438249	0.555226	0.630833
	O321	O	0.163916	1.039640	0.787553
	H322	H	0.154432	1.006732	0.791751
	H323	H	0.180683	1.049020	0.767796
	O324	O	0.960722	1.091368	0.066608
	H325	H	0.960110	1.096576	0.076426
	H326	H	0.956974	1.091740	0.076700
	O327	O	0.212502	0.148679	1.198627
	H328	H	0.228046	0.149169	1.203136
	H329	H	0.216576	0.135812	1.198966
	O330	O	0.469353	0.680534	0.339014
	H331	H	0.450505	0.676129	0.335448
	H332	H	0.457768	0.679423	0.331647
	O333	O	0.288271	0.496326	0.708451
	H334	H	0.267010	0.499873	0.725017
	H335	H	0.287760	0.510701	0.700376
	O336	O	0.311904	0.325651	0.300703
	H337	H	0.330354	0.337739	0.325253
	H338	H	0.332511	0.349265	0.315181
	O339	O	0.824245	-0.164546	0.809367
	H340	H	0.814148	-0.174646	0.793026
	H341	H	0.833026	-0.147270	0.830159
	O342	O	-0.149310	-0.118587	0.203010
	H343	H	-0.160812	-0.118099	0.196695
	H344	H	-0.162799	-0.125898	0.212460
	O345	O	-0.207906	1.057163	0.780157
	H346	H	-0.210759	1.043399	0.768118
	H347	H	-0.203216	1.048990	0.775398
	O348	O	1.210864	0.121759	0.918325
	H349	H	1.214760	0.127271	0.928500
	H350	H	1.217150	0.125676	0.919691
	O351	O	0.293621	0.495782	0.386593
	H352	H	0.286272	0.498502	0.400100
	H353	H	0.296168	0.504393	0.398845
	O354	O	-0.278573	-0.274197	0.708363
	H355	H	-0.290705	-0.274457	0.677395
	H356	H	-0.280671	-0.270213	0.711620
	O357	O	0.464298	0.547630	0.663443
	H358	H	0.459067	0.557024	0.671690
	H359	H	0.483588	0.541953	0.661990
	O360	O	0.300347	-0.393610	1.282685
	H361	H	0.289846	-0.397446	1.297720
	H362	H	0.291755	-0.397886	1.281884
	O363	O	-0.098135	-0.013994	-0.056246
	H364	H	-0.108248	-0.006667	-0.058936
	H365	H	-0.100518	-0.022434	-0.072150
	O366	O	0.340812	0.723955	0.299360
	H367	H	0.337516	0.712846	0.290723
	H368	H	0.328543	0.725612	0.282480
	O369	O	0.732060	0.460729	0.546047
	H370	H	0.734915	0.436589	0.552716
	H371	H	0.733171	0.447975	0.549701
	O372	O	0.804561	0.873565	0.190805
	H373	H	0.802578	0.884641	0.177974
	H374	H	0.781970	0.863740	0.211764
	O375	O	0.936889	0.110253	-0.056222
	H376	H	0.947217	0.106153	-0.045498
	H377	H	0.936419	0.098597	-0.046069
	O378	O	0.320980	0.709579	0.678841
	H379	H	0.334366	0.696127	0.662959
	H380	H	0.313625	0.718240	0.678757
	O381	O	0.691635	0.336446	0.669688
	H382	H	0.693552	0.331995	0.681660
	H383	H	0.700652	0.330971	0.676930
	O384	O	0.912282	0.067597	1.203095
	H385	H	0.912888	0.059276	1.200254
	H386	H	0.912103	0.073394	1.195211
	O387	O	0.721914	1.311311	0.285617
	H388	H	0.701160	1.334249	0.281714
	H389	H	0.752171	1.280419	0.249898
	O390	O	0.280530	0.744850	0.464317
	H391	H	0.286185	0.750324	0.440886
	H392	H	0.263118	0.765835	0.465422
	O393	O	0.472143	0.308869	0.707339
	H394	H	0.478293	0.300190	0.722647
	H395	H	0.476319	0.317726	0.707583
	O396	O	0.017896	0.925432	1.049392
	H397	H	0.003320	0.930757	1.048589
	H398	H	0.014011	0.913251	1.050289
	O399	O	-0.182619	0.211370	1.177609
	H400	H	-0.174658	0.185639	1.159274
	H401	H	-0.157576	0.199151	1.160258
	O402	O	0.220336	0.815079	0.785392
	H403	H	0.225232	0.821451	0.816095
	H404	H	0.214396	0.801073	0.783339
	O405	O	1.447974	-0.580038	1.300382
	H406	H	1.459491	-0.576427	1.309865
	H407	H	1.453243	-0.587834	1.302075
	O408	O	-0.318055	-0.253279	-0.480723
	H409	H	-0.328159	-0.246397	-0.488916
	H410	H	-0.325135	-0.246671	-0.487240
	O411	O	0.226237	0.179935	0.823648
	H412	H	0.242088	0.198308	0.804511
	H413	H	0.214719	0.181591	0.824744
	O414	O	0.560976	0.318035	0.307190
	H415	H	0.572030	0.326547	0.317883
	H416	H	0.558596	0.309744	0.283708
	O417	O	0.155505	-0.159264	-0.015625
	H418	H	0.149716	-0.156095	-0.014542
	H419	H	0.148287	-0.168746	-0.008504
	O420	O	0.504145	0.695954	0.450227
	H421	H	0.488440	0.688010	0.440474
	H422	H	0.498357	0.692205	0.439016
	O423	O	0.151148	-0.031531	0.962695
	H424	H	0.160283	-0.018105	0.957627
	H425	H	0.158229	-0.020975	0.957281
	O426	O	0.444369	0.297924	0.429810
	H427	H	0.465026	0.291713	0.441653
	H428	H	0.450396	0.299067	0.436922
	O429	O	0.791692	0.810306	1.017384
	H430	H	0.776151	0.786018	1.015189
	H431	H	0.801663	0.815844	1.034268
	O432	O	0.274735	0.592317	0.555340
	H433	H	0.271592	0.605890	0.537079
	H434	H	0.277067	0.592870	0.552777
	O435	O	-0.123101	0.911696	-0.048093
	H436	H	-0.117615	0.916648	-0.055767
	H437	H	-0.113593	0.906542	-0.047396
	O438	O	0.143040	-0.163513	0.181326
	H439	H	0.130026	-0.145390	0.172052
	H440	H	0.124743	-0.156930	0.164299
	O441	O	0.047188	-0.769722	-0.026806
	H442	H	0.056606	-0.774312	-0.021074
	H443	H	0.042561	-0.766688	0.003003
	O444	O	0.718059	0.547860	-0.296499
	H445	H	0.746198	0.550470	-0.279780
	H446	H	0.721592	0.577372	-0.309928
	O447	O	0.543300	0.735514	0.709673
	H448	H	0.534381	0.751401	0.725237
	H449	H	0.549398	0.737513	0.697908
	O450	O	-0.022651	1.076730	0.942021
	H451	H	-0.010707	1.083778	0.937612
	H452	H	-0.009952	1.093525	0.928520
	O453	O	0.663912	0.586884	0.474263
	H454	H	0.671014	0.586721	0.489254
	H455	H	0.665677	0.578987	0.482877
	O456	O	0.288083	0.302052	0.520314
	H457	H	0.310257	0.305526	0.533439
	H458	H	0.262022	0.271042	0.529511
	O459	O	1.004309	0.964355	0.188493
	H460	H	1.004123	0.958885	0.191103
	H461	H	0.999361	0.954928	0.195045
	O462	O	0.803967	0.228022	-0.207904
	H463	H	0.831175	0.221660	-0.197658
	H464	H	0.814861	0.196921	-0.203189
	O465	O	0.996969	-0.043093	0.091820
	H466	H	0.991521	-0.041029	0.084931
	H467	H	0.985470	-0.032449	0.091363
	O468	O	0.553549	0.601653	0.293636
	H469	H	0.543863	0.579384	0.287394
	H470	H	0.551881	0.605037	0.299208
	O471	O	0.971555	0.242010	0.782156
	H472	H	0.988155	0.253155	0.795353
	H473	H	0.977861	0.264361	0.775379
	O474	O	0.039734	0.846325	-0.047142
	H475	H	0.025275	0.844828	-0.037659
	H476	H	0.025239	0.847481	-0.051615
	O477	O	1.116453	0.946457	1.973179
	H478	H	1.121801	0.938889	1.974444
	H479	H	1.118593	0.952511	1.979043
	O480	O	0.540524	0.534184	0.388305
	H481	H	0.539655	0.530482	0.373950
	H482	H	0.536162	0.516621	0.401370
	O483	O	0.569001	0.460023	0.722557
	H484	H	0.588478	0.467559	0.718199
	H485	H	0.571725	0.466969	0.720555
	O486	O	1.009996	-0.103979	0.869370
	H487	H	1.022343	-0.098567	0.862683
	H488	H	1.019004	-0.110915	0.858574
	O489	O	1.039470	1.243226	0.206186
	H490	H	1.055626	1.262203	0.225940
	H491	H	1.057276	1.232700	0.213800
