data_Molecule from HDF5

_cell_length_a		16.274542
_cell_length_b		16.279075
_cell_length_c		16.376298
_cell_angle_alpha	90.204425
_cell_angle_beta	90.130597
_cell_angle_gamma	89.880415
_symmetry_space_group_name_H-M	'P 1'
_symmetry_Int_Tables_number		1

loop_
	_symmetry_equiv_pos_as_xyz
	x,y,z

loop_
	_atom_site_label
	_atom_site_type_symbol
	_atom_site_fract_x
	_atom_site_fract_y
	_atom_site_fract_z
	H0	H	0.404867	0.834950	0.713107
	H1	H	0.603395	0.161617	0.716026
	H2	H	0.603167	0.834227	0.284906
	H3	H	0.404330	0.161679	0.284677
	H4	H	0.717418	0.398993	0.836708
	H5	H	0.719003	0.597336	0.162987
	H6	H	0.287591	0.595817	0.837738
	H7	H	0.290273	0.401811	0.164143
	H8	H	0.839806	0.712487	0.403370
	H9	H	0.167121	0.713638	0.601535
	H10	H	0.839270	0.286164	0.597584
	H11	H	0.167206	0.283496	0.402460
	H12	H	0.839934	0.399994	0.715148
	H13	H	0.166318	0.599924	0.719092
	H14	H	0.840102	0.597707	0.285466
	H15	H	0.166655	0.397644	0.284593
	H16	H	0.404234	0.712637	0.837369
	H17	H	0.602191	0.713639	0.162889
	H18	H	0.600984	0.283212	0.836631
	H19	H	0.406342	0.284034	0.163326
	H20	H	0.717859	0.834564	0.402127
	H21	H	0.716504	0.163229	0.598083
	H22	H	0.291752	0.834280	0.595914
	H23	H	0.288468	0.162013	0.401677
	H24	H	0.904646	0.335160	0.214664
	H25	H	0.102838	0.661838	0.216945
	H26	H	0.103264	0.335414	0.785148
	H27	H	0.903792	0.662216	0.786860
	H28	H	0.218548	0.898569	0.337711
	H29	H	0.218751	0.097794	0.663735
	H30	H	0.788043	0.097091	0.337186
	H31	H	0.789678	0.902577	0.664008
	H32	H	0.339329	0.210578	0.903085
	H33	H	0.668214	0.210481	0.096905
	H34	H	0.339112	0.787169	0.095234
	H35	H	0.668129	0.783562	0.901965
	H36	H	0.341101	0.898763	0.214089
	H37	H	0.667209	0.097112	0.215684
	H38	H	0.339875	0.095794	0.785201
	H39	H	0.667237	0.898110	0.783888
	H40	H	0.903535	0.214157	0.337361
	H41	H	0.101694	0.214103	0.663855
	H42	H	0.102456	0.781607	0.338538
	H43	H	0.906270	0.785705	0.664205
	H44	H	0.217010	0.334877	0.902807
	H45	H	0.217469	0.662353	0.099950
	H46	H	0.791249	0.333740	0.096366
	H47	H	0.788252	0.661542	0.903536
	H48	H	0.413985	0.114210	0.593744
	H49	H	0.602910	0.881637	0.588261
	H50	H	0.596782	0.115798	0.404378
	H51	H	0.414805	0.882596	0.403856
	H52	H	0.585709	0.405067	0.111313
	H53	H	0.596072	0.588683	0.884835
	H54	H	0.416964	0.596890	0.115500
	H55	H	0.411595	0.406083	0.886327
	H56	H	0.120778	0.592505	0.406473
	H57	H	0.888162	0.592570	0.591525
	H58	H	0.120390	0.402218	0.592393
	H59	H	0.889225	0.401808	0.416809
	H60	H	0.117857	0.410232	0.591016
	H61	H	0.887809	0.588925	0.595628
	H62	H	0.119457	0.590595	0.410221
	H63	H	0.890470	0.417587	0.406632
	H64	H	0.403358	0.596611	0.119061
	H65	H	0.594506	0.590954	0.884680
	H66	H	0.602028	0.393923	0.120663
	H67	H	0.409242	0.400929	0.883201
	H68	H	0.592023	0.113665	0.407403
	H69	H	0.596233	0.879922	0.598545
	H70	H	0.409604	0.114710	0.590046
	H71	H	0.409674	0.883142	0.409968
	H72	H	0.911399	0.615539	0.096659
	H73	H	0.094017	0.381223	0.097696
	H74	H	0.086260	0.611794	0.909724
	H75	H	0.918226	0.384820	0.909574
	H76	H	0.103293	0.906857	0.617192
	H77	H	0.097745	0.082766	0.387864
	H78	H	0.903155	0.100228	0.619355
	H79	H	0.914271	0.905644	0.387063
	H80	H	0.624076	0.093021	0.895053
	H81	H	0.385595	0.091883	0.098753
	H82	H	0.620184	0.909143	0.095338
	H83	H	0.388267	0.902224	0.908482
	H84	H	0.622147	0.900864	0.094711
	H85	H	0.387233	0.094969	0.088519
	H86	H	0.620076	0.098881	0.915415
	H87	H	0.389092	0.909518	0.906674
	H88	H	0.907104	0.083568	0.613804
	H89	H	0.088009	0.093371	0.387033
	H90	H	0.094855	0.908668	0.614837
	H91	H	0.910383	0.900364	0.383845
	H92	H	0.100387	0.615003	0.915983
	H93	H	0.094170	0.384104	0.089253
	H94	H	0.912011	0.613435	0.092492
	H95	H	0.903592	0.381208	0.911103
	H96	H	0.409410	0.116873	0.595511
	H97	H	0.591410	0.885287	0.589260
	H98	H	0.596765	0.114012	0.409604
	H99	H	0.407201	0.880138	0.402557
	H100	H	0.604722	0.414352	0.114785
	H101	H	0.597232	0.591014	0.884356
	H102	H	0.409705	0.584896	0.113518
	H103	H	0.406025	0.406208	0.884393
	H104	H	0.119569	0.587734	0.406543
	H105	H	0.886173	0.594295	0.596252
	H106	H	0.120538	0.407442	0.598527
	H107	H	0.883694	0.401601	0.399232
	H108	H	0.907947	0.615386	0.093403
	H109	H	0.101224	0.381044	0.092992
	H110	H	0.098075	0.617772	0.901787
	H111	H	0.910546	0.378741	0.897909
	H112	H	0.096741	0.900272	0.617592
	H113	H	0.101896	0.096386	0.382663
	H114	H	0.919737	0.095899	0.614178
	H115	H	0.906917	0.906801	0.385087
	H116	H	0.616404	0.078365	0.908724
	H117	H	0.389879	0.085242	0.091627
	H118	H	0.618960	0.905492	0.087997
	H119	H	0.386477	0.904179	0.900868
	C120	C	0.382716	0.006883	0.620804
	C121	C	0.625013	0.990576	0.620795
	C122	C	0.624618	0.006433	0.378578
	C123	C	0.381916	0.990324	0.377468
	C124	C	0.625638	0.375632	0.008008
	C125	C	0.624530	0.619318	0.992080
	C126	C	0.381429	0.620604	0.008495
	C127	C	0.381217	0.376403	0.992199
	C128	C	0.012136	0.619405	0.379661
	C129	C	0.995582	0.620342	0.623248
	C130	C	0.011374	0.378224	0.622044
	C131	C	0.995307	0.377236	0.378751
	C132	C	0.881959	0.506620	0.122015
	C133	C	0.124908	0.490429	0.122347
	C134	C	0.124016	0.506727	0.879921
	C135	C	0.881470	0.489900	0.878302
	C136	C	0.125932	0.876487	0.508877
	C137	C	0.124947	0.120031	0.492905
	C138	C	0.881312	0.121231	0.508310
	C139	C	0.882232	0.876844	0.493007
	C140	C	0.511870	0.118972	0.878094
	C141	C	0.495699	0.119175	0.121370
	C142	C	0.512437	0.876824	0.120903
	C143	C	0.495915	0.876097	0.877448
	C144	C	0.384684	0.883817	0.675380
	C145	C	0.623098	0.113065	0.677444
	C146	C	0.623298	0.883279	0.323016
	C147	C	0.384260	0.113171	0.322808
	C148	C	0.680175	0.378182	0.885315
	C149	C	0.680286	0.617150	0.114592
	C150	C	0.325692	0.617082	0.886180
	C151	C	0.327154	0.380042	0.115172
	C152	C	0.888638	0.674690	0.382577
	C153	C	0.118422	0.675321	0.621192
	C154	C	0.888360	0.323459	0.618617
	C155	C	0.118461	0.321581	0.381615
	C156	C	0.888624	0.380335	0.676832
	C157	C	0.117916	0.619204	0.680081
	C158	C	0.888740	0.617839	0.324197
	C159	C	0.117932	0.378229	0.323069
	C160	C	0.383793	0.674836	0.885954
	C161	C	0.622405	0.675241	0.114399
	C162	C	0.621910	0.320850	0.885210
	C163	C	0.385144	0.321851	0.114875
	C164	C	0.680351	0.883348	0.381028
	C165	C	0.679106	0.114090	0.618481
	C166	C	0.328675	0.883464	0.616884
	C167	C	0.326605	0.113166	0.380671
	C168	C	0.884402	0.383800	0.176838
	C169	C	0.122874	0.613270	0.178546
	C170	C	0.123019	0.384258	0.823478
	C171	C	0.883734	0.613086	0.824377
	C172	C	0.180767	0.878383	0.386471
	C173	C	0.180943	0.118261	0.615127
	C174	C	0.825725	0.118059	0.385827
	C175	C	0.827450	0.881197	0.615504
	C176	C	0.388538	0.173709	0.881499
	C177	C	0.619041	0.173551	0.118270
	C178	C	0.388582	0.823274	0.116841
	C179	C	0.618943	0.820785	0.880428
	C180	C	0.389570	0.878662	0.176005
	C181	C	0.618731	0.116925	0.177001
	C182	C	0.388531	0.116389	0.823304
	C183	C	0.618546	0.877902	0.822092
	C184	C	0.883400	0.176001	0.385740
	C185	C	0.122634	0.175866	0.615358
	C186	C	0.123124	0.820243	0.386760
	C187	C	0.885870	0.823546	0.615737
	C188	C	0.179685	0.383994	0.881871
	C189	C	0.179660	0.613502	0.120316
	C190	C	0.827858	0.383098	0.118138
	C191	C	0.826223	0.612889	0.882106
	C192	C	0.404640	0.093133	0.599416
	C193	C	0.603260	0.904650	0.598557
	C194	C	0.601867	0.092186	0.400588
	C195	C	0.404081	0.904256	0.398916
	C196	C	0.604094	0.397986	0.093367
	C197	C	0.602475	0.596932	0.906613
	C198	C	0.403637	0.599160	0.094062
	C199	C	0.402636	0.397991	0.906755
	C200	C	0.097613	0.596830	0.401543
	C201	C	0.909567	0.598301	0.600982
	C202	C	0.097438	0.400251	0.600327
	C203	C	0.909846	0.400249	0.401094
	C204	C	0.903858	0.592737	0.100557
	C205	C	0.102834	0.404572	0.099924
	C206	C	0.101511	0.592814	0.902584
	C207	C	0.904150	0.403718	0.899900
	C208	C	0.104537	0.898814	0.594396
	C209	C	0.102437	0.097537	0.407795
	C210	C	0.903489	0.099715	0.593646
	C211	C	0.903988	0.898013	0.407376
	C212	C	0.597989	0.096529	0.899810
	C213	C	0.409825	0.097176	0.099485
	C214	C	0.598290	0.898675	0.099004
	C215	C	0.409960	0.898526	0.899109
	Zn216	Zn	0.503859	-0.002086	0.748821
	Zn217	Zn	0.503804	-0.002392	0.249377
	Zn218	Zn	0.753720	0.497819	0.000349
	Zn219	Zn	0.252471	0.498728	0.000974
	Zn220	Zn	0.003705	0.747541	0.501598
	Zn221	Zn	0.003497	0.249680	0.500548
	Zn222	Zn	0.003731	0.498729	0.750883
	Zn223	Zn	0.003725	0.498430	0.250574
	Zn224	Zn	0.503538	0.748607	-0.000082
	Zn225	Zn	0.503653	0.247248	-0.000316
	Zn226	Zn	0.752963	-0.001342	0.499957
	Zn227	Zn	0.254281	-0.001468	0.500603
	N228	N	0.417732	0.961497	0.677828
	N229	N	0.590111	0.035159	0.678928
	N230	N	0.589507	0.960776	0.321248
	N231	N	0.417848	0.035571	0.320896
	N232	N	0.682234	0.411905	0.962479
	N233	N	0.681763	0.583334	0.037573
	N234	N	0.324489	0.583807	0.963300
	N235	N	0.324663	0.413351	0.037978
	N236	N	0.966224	0.675981	0.416283
	N237	N	0.041328	0.676088	0.586766
	N238	N	0.965782	0.322196	0.585129
	N239	N	0.041125	0.320698	0.415520
	N240	N	0.966245	0.413703	0.679121
	N241	N	0.040389	0.585569	0.681372
	N242	N	0.966352	0.584142	0.322070
	N243	N	0.040458	0.411918	0.321193
	N244	N	0.417546	0.677212	0.963041
	N245	N	0.588389	0.676457	0.037295
	N246	N	0.588908	0.319059	0.962405
	N247	N	0.417816	0.319305	0.037449
	N248	N	0.681346	0.960889	0.414988
	N249	N	0.680369	0.037028	0.583991
	N250	N	0.327486	0.961009	0.583615
	N251	N	0.324934	0.035734	0.413985
	N252	N	0.917427	0.461426	0.179190
	N253	N	0.089540	0.535566	0.179880
	N254	N	0.089139	0.461802	0.822247
	N255	N	0.917410	0.535416	0.821982
	N256	N	0.182522	0.912762	0.463442
	N257	N	0.182591	0.084230	0.538052
	N258	N	0.824275	0.084569	0.462915
	N259	N	0.825209	0.913725	0.538134
	N260	N	0.466341	0.175261	0.914714
	N261	N	0.541619	0.175045	0.084404
	N262	N	0.465969	0.822113	0.083124
	N263	N	0.541601	0.819670	0.914103
	N264	N	0.467432	0.911200	0.178772
	N265	N	0.540955	0.084006	0.179243
	N266	N	0.466266	0.083098	0.821088
	N267	N	0.541002	0.911613	0.819996
	N268	N	0.917108	0.178384	0.462935
	N269	N	0.088567	0.177204	0.538499
	N270	N	0.089978	0.818725	0.463866
	N271	N	0.919051	0.820775	0.538606
	N272	N	0.180247	0.461177	0.916160
	N273	N	0.180954	0.536177	0.086196
	N274	N	0.826287	0.460639	0.084623
	N275	N	0.824923	0.535256	0.914925
	O276	O	0.477329	0.532047	0.523095
	H277	H	0.489401	0.535889	0.525312
	H278	H	0.477369	0.534026	0.523720
	O279	O	0.040389	0.039116	0.054123
	H280	H	0.042849	0.043522	0.063618
	H281	H	0.039845	0.036989	0.044926
	O282	O	0.508757	0.502650	0.515225
	H283	H	0.504701	0.505769	0.512817
	H284	H	0.504066	0.507819	0.515985
	O285	O	0.544800	0.471685	0.550252
	H286	H	0.546036	0.467654	0.546855
	H287	H	0.544848	0.466977	0.557280
	O288	O	1.055757	0.006316	0.079205
	H289	H	1.068112	0.009717	0.081154
	H290	H	1.060315	-0.002626	0.084911
	O291	O	-0.477663	0.483882	-0.513014
	H292	H	-0.480213	0.480512	-0.517617
	H293	H	-0.474637	0.489489	-0.509661
	O294	O	0.050348	1.020819	0.041023
	H295	H	0.049151	1.023926	0.043079
	H296	H	0.047208	1.023334	0.037542
	O297	O	-0.022533	1.036927	0.039809
	H298	H	-0.018663	1.033109	0.037484
	H299	H	-0.024677	1.037317	0.044094
	O300	O	1.020893	0.064171	1.024325
	H301	H	1.024157	0.055394	1.032827
	H302	H	1.013942	0.073200	1.029487
	O303	O	0.563772	0.477803	0.504683
	H304	H	0.564545	0.473130	0.509032
	H305	H	0.570041	0.475871	0.506254
	O306	O	0.554395	1.467023	1.533077
	H307	H	0.552062	1.468951	1.532118
	H308	H	0.559449	1.466875	1.533642
	O309	O	0.505002	0.519612	0.563198
	H310	H	0.510248	0.519171	0.564791
	H311	H	0.506489	0.508310	0.562657
