data_Molecule from HDF5

_cell_length_a		16.629645
_cell_length_b		16.394327
_cell_length_c		16.490888
_cell_angle_alpha	90.071302
_cell_angle_beta	89.987588
_cell_angle_gamma	89.829980
_symmetry_space_group_name_H-M	'P 1'
_symmetry_Int_Tables_number		1

loop_
	_symmetry_equiv_pos_as_xyz
	x,y,z

loop_
	_atom_site_label
	_atom_site_type_symbol
	_atom_site_fract_x
	_atom_site_fract_y
	_atom_site_fract_z
	H0	H	0.389234	0.843192	0.726797
	H1	H	0.600557	0.159959	0.729953
	H2	H	0.597177	0.842790	0.286595
	H3	H	0.390441	0.159128	0.286054
	H4	H	0.719363	0.390145	0.848179
	H5	H	0.714658	0.603814	0.162706
	H6	H	0.270628	0.610287	0.848412
	H7	H	0.271130	0.393271	0.159585
	H8	H	0.837526	0.724535	0.398830
	H9	H	0.150170	0.723702	0.610206
	H10	H	0.837358	0.279590	0.611672
	H11	H	0.150552	0.281264	0.403078
	H12	H	0.839459	0.391348	0.732050
	H13	H	0.149880	0.607555	0.727633
	H14	H	0.837906	0.607921	0.281658
	H15	H	0.151043	0.398157	0.285621
	H16	H	0.390859	0.721924	0.846424
	H17	H	0.595772	0.717626	0.164212
	H18	H	0.602295	0.276388	0.848123
	H19	H	0.393009	0.282435	0.162975
	H20	H	0.717681	0.845397	0.398465
	H21	H	0.719085	0.159134	0.616956
	H22	H	0.270415	0.845150	0.614768
	H23	H	0.272970	0.159749	0.402115
	H24	H	0.893809	0.341311	0.222355
	H25	H	0.096547	0.660975	0.222421
	H26	H	0.102478	0.343393	0.780798
	H27	H	0.891548	0.659192	0.785101
	H28	H	0.213863	0.898212	0.348734
	H29	H	0.218470	0.112975	0.661899
	H30	H	0.770314	0.109194	0.349400
	H31	H	0.768842	0.892726	0.661406
	H32	H	0.339101	0.225570	0.899537
	H33	H	0.652373	0.220886	0.110573
	H34	H	0.337997	0.782076	0.107039
	H35	H	0.651653	0.779933	0.900742
	H36	H	0.337430	0.897888	0.224866
	H37	H	0.650965	0.104985	0.228486
	H38	H	0.339136	0.109186	0.782795
	H39	H	0.649809	0.892374	0.780322
	H40	H	0.888184	0.223146	0.347230
	H41	H	0.097684	0.224300	0.663413
	H42	H	0.094055	0.786827	0.346339
	H43	H	0.887405	0.778543	0.662105
	H44	H	0.218314	0.343378	0.897043
	H45	H	0.216127	0.659252	0.109644
	H46	H	0.775779	0.342419	0.109861
	H47	H	0.771922	0.657843	0.897678
	H48	H	0.399966	0.115312	0.591377
	H49	H	0.582818	0.890897	0.591948
	H50	H	0.578586	0.114194	0.416551
	H51	H	0.407521	0.887778	0.416040
	H52	H	0.588838	0.414826	0.117063
	H53	H	0.584534	0.592417	0.890460
	H54	H	0.406138	0.584256	0.114697
	H55	H	0.408629	0.416976	0.893226
	H56	H	0.108018	0.597702	0.414108
	H57	H	0.881831	0.587578	0.600441
	H58	H	0.106619	0.405540	0.591474
	H59	H	0.881807	0.411480	0.416609
	H60	H	0.100302	0.416668	0.586200
	H61	H	0.881633	0.596139	0.590516
	H62	H	0.103933	0.589851	0.417434
	H63	H	0.882318	0.416186	0.412910
	H64	H	0.409298	0.595947	0.117193
	H65	H	0.588805	0.586094	0.891546
	H66	H	0.582820	0.412557	0.116330
	H67	H	0.409708	0.413131	0.893240
	H68	H	0.581764	0.113783	0.421641
	H69	H	0.580140	0.891855	0.591645
	H70	H	0.407880	0.114755	0.599335
	H71	H	0.399177	0.886998	0.420529
	H72	H	0.903664	0.615492	0.094896
	H73	H	0.083663	0.388177	0.093396
	H74	H	0.083510	0.614150	0.915247
	H75	H	0.908571	0.387192	0.913607
	H76	H	0.082385	0.915447	0.618307
	H77	H	0.086821	0.090255	0.392406
	H78	H	0.903215	0.092642	0.619346
	H79	H	0.899468	0.915519	0.392106
	H80	H	0.607287	0.090381	0.913130
	H81	H	0.384601	0.091479	0.092194
	H82	H	0.608173	0.912559	0.100970
	H83	H	0.381031	0.911234	0.910403
	H84	H	0.609618	0.905926	0.097971
	H85	H	0.383346	0.088572	0.098219
	H86	H	0.604007	0.089482	0.924355
	H87	H	0.382242	0.908319	0.918832
	H88	H	0.904088	0.085420	0.616469
	H89	H	0.082999	0.086372	0.394985
	H90	H	0.082748	0.911335	0.619687
	H91	H	0.907113	0.920769	0.396379
	H92	H	0.081797	0.612760	0.917246
	H93	H	0.086503	0.387552	0.091686
	H94	H	0.906282	0.614227	0.093482
	H95	H	0.911562	0.390265	0.920775
	H96	H	0.410175	0.111242	0.588524
	H97	H	0.582083	0.891682	0.589795
	H98	H	0.584354	0.116484	0.417318
	H99	H	0.399373	0.884944	0.411447
	H100	H	0.587726	0.408570	0.118195
	H101	H	0.581412	0.586298	0.893778
	H102	H	0.397798	0.592261	0.119465
	H103	H	0.405763	0.414232	0.891735
	H104	H	0.107181	0.589940	0.408318
	H105	H	0.886870	0.584047	0.589085
	H106	H	0.105089	0.417329	0.599068
	H107	H	0.880027	0.410949	0.411265
	H108	H	0.903683	0.614927	0.091312
	H109	H	0.086149	0.385923	0.094709
	H110	H	0.084426	0.613413	0.917797
	H111	H	0.903468	0.387318	0.920813
	H112	H	0.085675	0.914352	0.620070
	H113	H	0.081438	0.092152	0.393959
	H114	H	0.909661	0.090976	0.616943
	H115	H	0.907960	0.911167	0.394214
	H116	H	0.602889	0.080304	0.917442
	H117	H	0.381033	0.095030	0.097802
	H118	H	0.606239	0.911235	0.093861
	H119	H	0.385187	0.916890	0.916831
	C120	C	0.373068	0.009992	0.626397
	C121	C	0.615529	0.994390	0.626798
	C122	C	0.614200	0.010270	0.385884
	C123	C	0.371410	0.992012	0.384675
	C124	C	0.618653	0.378162	0.013650
	C125	C	0.615882	0.620443	0.996504
	C126	C	0.372628	0.623256	0.013162
	C127	C	0.375245	0.381242	0.996217
	C128	C	0.002675	0.624459	0.381671
	C129	C	0.986291	0.622443	0.626041
	C130	C	0.001645	0.379743	0.626609
	C131	C	0.984985	0.380422	0.382903
	C132	C	0.873788	0.509569	0.125363
	C133	C	0.116590	0.492475	0.125500
	C134	C	0.116589	0.509448	0.882933
	C135	C	0.874622	0.492347	0.884541
	C136	C	0.114365	0.882037	0.514645
	C137	C	0.115397	0.123427	0.497783
	C138	C	0.872642	0.123018	0.513733
	C139	C	0.871819	0.881209	0.497452
	C140	C	0.502673	0.121880	0.884741
	C141	C	0.486523	0.123248	0.128159
	C142	C	0.503547	0.879213	0.127541
	C143	C	0.486097	0.879290	0.882940
	C144	C	0.370608	0.891068	0.687253
	C145	C	0.618669	0.112609	0.689281
	C146	C	0.616212	0.890499	0.326277
	C147	C	0.370942	0.111882	0.325653
	C148	C	0.679142	0.373299	0.895584
	C149	C	0.674523	0.622019	0.115611
	C150	C	0.311751	0.627086	0.895132
	C151	C	0.313438	0.377006	0.113630
	C152	C	0.884751	0.684345	0.380270
	C153	C	0.103343	0.683241	0.628716
	C154	C	0.884353	0.319202	0.629808
	C155	C	0.103326	0.320678	0.382905
	C156	C	0.885527	0.375081	0.689841
	C157	C	0.103340	0.625330	0.686921
	C158	C	0.884844	0.626426	0.321787
	C159	C	0.103641	0.378761	0.324607
	C160	C	0.371563	0.682762	0.894195
	C161	C	0.615596	0.678804	0.116099
	C162	C	0.620608	0.316608	0.895428
	C163	C	0.373600	0.321498	0.115190
	C164	C	0.675910	0.891877	0.381806
	C165	C	0.677521	0.112276	0.632685
	C166	C	0.311764	0.891884	0.631088
	C167	C	0.312928	0.112039	0.383414
	C168	C	0.874096	0.389523	0.183918
	C169	C	0.116344	0.612698	0.183821
	C170	C	0.120228	0.390685	0.821264
	C171	C	0.872472	0.611479	0.824359
	C172	C	0.173648	0.879974	0.395921
	C173	C	0.176791	0.128830	0.615301
	C174	C	0.811266	0.126657	0.395985
	C175	C	0.810099	0.875993	0.614636
	C176	C	0.385936	0.184539	0.881821
	C177	C	0.605004	0.181475	0.129473
	C178	C	0.385019	0.821259	0.126651
	C179	C	0.604178	0.819048	0.881083
	C180	C	0.384790	0.878942	0.185287
	C181	C	0.604244	0.124187	0.188339
	C182	C	0.385724	0.126807	0.823498
	C183	C	0.603311	0.875663	0.821521
	C184	C	0.870017	0.183222	0.394968
	C185	C	0.116864	0.184559	0.616005
	C186	C	0.114010	0.824607	0.394426
	C187	C	0.869357	0.819326	0.615218
	C188	C	0.177986	0.390847	0.878999
	C189	C	0.175694	0.611820	0.127712
	C190	C	0.815414	0.390021	0.127663
	C191	C	0.813174	0.610741	0.880502
	C192	C	0.398632	0.092377	0.600484
	C193	C	0.589378	0.912760	0.599124
	C194	C	0.588753	0.093230	0.411259
	C195	C	0.395248	0.908574	0.408963
	C196	C	0.593501	0.404498	0.095949
	C197	C	0.591936	0.595508	0.913464
	C198	C	0.397302	0.598069	0.095803
	C199	C	0.400680	0.407355	0.914184
	C200	C	0.084797	0.599460	0.406297
	C201	C	0.904629	0.596541	0.600509
	C202	C	0.082898	0.405919	0.600122
	C203	C	0.902880	0.405542	0.406732
	C204	C	0.897575	0.593042	0.100304
	C205	C	0.092458	0.409045	0.100506
	C206	C	0.090685	0.591770	0.909211
	C207	C	0.900604	0.409759	0.910915
	C208	C	0.090377	0.906541	0.597677
	C209	C	0.090815	0.097097	0.415341
	C210	C	0.898367	0.097001	0.596083
	C211	C	0.897554	0.908202	0.415531
	C212	C	0.583713	0.094371	0.910755
	C213	C	0.404393	0.098798	0.103209
	C214	C	0.586426	0.903024	0.104147
	C215	C	0.404156	0.904802	0.908171
	Zn216	Zn	0.494171	0.001509	0.754435
	Zn217	Zn	0.494415	0.000871	0.257113
	Zn218	Zn	0.745823	0.500370	0.004496
	Zn219	Zn	0.245093	0.501167	0.004053
	Zn220	Zn	-0.005746	0.752542	0.505329
	Zn221	Zn	-0.006644	0.251095	0.505171
	Zn222	Zn	-0.005076	0.500727	0.755370
	Zn223	Zn	-0.005278	0.501696	0.253285
	Zn224	Zn	0.495102	0.750363	0.004886
	Zn225	Zn	0.496057	0.251840	0.005484
	Zn226	Zn	0.743504	0.003103	0.505617
	Zn227	Zn	0.243675	0.001965	0.506803
	N228	N	0.408356	0.965401	0.684381
	N229	N	0.580838	0.038376	0.685739
	N230	N	0.578550	0.965046	0.328742
	N231	N	0.406552	0.036260	0.326186
	N232	N	0.678140	0.410887	0.970070
	N233	N	0.675065	0.586749	0.040041
	N234	N	0.312144	0.590900	0.970269
	N235	N	0.314140	0.413237	0.038544
	N236	N	0.959087	0.683406	0.416668
	N237	N	0.029403	0.681565	0.591659
	N238	N	0.957460	0.322004	0.591261
	N239	N	0.028581	0.321339	0.418230
	N240	N	0.959628	0.412040	0.687927
	N241	N	0.029450	0.588132	0.685313
	N242	N	0.959385	0.590235	0.322236
	N243	N	0.029129	0.414886	0.324296
	N244	N	0.408735	0.680514	0.968467
	N245	N	0.579805	0.677888	0.041047
	N246	N	0.583702	0.319489	0.969850
	N247	N	0.411480	0.324042	0.041345
	N248	N	0.674834	0.967407	0.418140
	N249	N	0.675654	0.037665	0.594462
	N250	N	0.312922	0.966968	0.594207
	N251	N	0.312936	0.036472	0.419072
	N252	N	0.909682	0.465077	0.182787
	N253	N	0.080537	0.537389	0.182521
	N254	N	0.082969	0.465504	0.823398
	N255	N	0.909737	0.536639	0.826611
	N256	N	0.174222	0.914916	0.471660
	N257	N	0.175839	0.091339	0.540668
	N258	N	0.812719	0.090194	0.470988
	N259	N	0.811783	0.913823	0.540507
	N260	N	0.459787	0.181762	0.918914
	N261	N	0.530797	0.181111	0.092799
	N262	N	0.459883	0.821237	0.091632
	N263	N	0.530369	0.821065	0.918459
	N264	N	0.459692	0.914118	0.186038
	N265	N	0.529363	0.089060	0.187768
	N266	N	0.459412	0.088668	0.825075
	N267	N	0.528901	0.912347	0.822469
	N268	N	0.907369	0.181095	0.469318
	N269	N	0.079316	0.181232	0.542015
	N270	N	0.077813	0.825675	0.469285
	N271	N	0.907067	0.822331	0.541116
	N272	N	0.176065	0.465780	0.916428
	N273	N	0.176369	0.535795	0.092424
	N274	N	0.815042	0.465817	0.092122
	N275	N	0.814167	0.535364	0.916660
	O276	O	0.316767	0.317994	0.330986
	H277	H	0.327752	0.331862	0.351466
	H278	H	0.342680	0.335976	0.340947
	O279	O	0.693069	0.688515	0.695557
	H280	H	0.677516	0.683864	0.682619
	H281	H	0.675954	0.711738	0.716741
	O282	O	1.058996	1.198871	-0.010401
	H283	H	1.063460	1.183654	0.010860
	H284	H	1.047260	1.192059	-0.006068
	O285	O	0.411283	0.577488	0.615281
	H286	H	0.404789	0.578361	0.600937
	H287	H	0.400254	0.599091	0.611186
	O288	O	-0.181159	0.079676	0.184953
	H289	H	-0.160351	0.078027	0.182950
	H290	H	-0.176628	0.092810	0.177555
	O291	O	1.079513	1.100257	-0.139985
	H292	H	1.053874	1.081290	-0.132092
	H293	H	1.079032	1.119141	-0.127641
	O294	O	0.036277	0.972047	-0.064509
	H295	H	0.051541	0.978585	-0.070364
	H296	H	0.044526	0.965235	-0.058658
	O297	O	0.667480	0.512361	0.481107
	H298	H	0.679070	0.495433	0.475544
	H299	H	0.669813	0.513374	0.497388
	O300	O	0.391588	0.590240	0.505547
	H301	H	0.395752	0.572134	0.493152
	H302	H	0.385741	0.603515	0.506646
	O303	O	0.677334	0.652960	0.365859
	H304	H	0.663111	0.656022	0.372833
	H305	H	0.666509	0.641349	0.395522
	O306	O	-0.120124	0.863656	0.943338
	H307	H	-0.137334	0.874682	0.954034
	H308	H	-0.118816	0.857204	0.953766
	O309	O	0.472474	0.388111	0.283804
	H310	H	0.490159	0.394713	0.305465
	H311	H	0.486895	0.369750	0.263498
	O312	O	0.388575	0.584658	0.541618
	H313	H	0.380488	0.598793	0.544890
	H314	H	0.376030	0.602342	0.547339
	O315	O	-0.106793	0.019992	0.802619
	H316	H	-0.086516	0.043391	0.794346
	H317	H	-0.129145	0.014446	0.800058
	O318	O	-0.004231	1.160091	-0.150717
	H319	H	0.010205	1.153432	-0.131588
	H320	H	0.002596	1.175377	-0.172661
	O321	O	0.537465	0.287473	0.416585
	H322	H	0.526313	0.291801	0.433553
	H323	H	0.540881	0.272992	0.409391
	O324	O	1.084658	0.205987	1.033782
	H325	H	1.107467	0.229312	1.046427
	H326	H	1.093410	0.209951	1.003957
	O327	O	1.170444	0.093671	0.886690
	H328	H	1.180910	0.087756	0.911925
	H329	H	1.174041	0.077849	0.879301
	O330	O	1.117553	0.208241	0.210024
	H331	H	1.150809	0.220437	0.220300
	H332	H	1.119911	0.208537	0.210717
	O333	O	0.847440	0.945908	1.043549
	H334	H	0.842684	0.947069	1.047376
	H335	H	0.862115	0.930677	1.062266
	O336	O	1.009752	-0.165108	1.071490
	H337	H	0.999982	-0.168195	1.055064
	H338	H	1.006479	-0.175357	1.070272
	O339	O	0.310967	0.320212	0.685729
	H340	H	0.338624	0.314593	0.690347
	H341	H	0.307688	0.314989	0.653281
	O342	O	0.705794	0.291359	0.445857
	H343	H	0.716511	0.274568	0.439495
	H344	H	0.714206	0.298358	0.434694
	O345	O	0.030508	0.139626	0.154713
	H346	H	0.050108	0.144418	0.154899
	H347	H	0.035765	0.155402	0.148833
	O348	O	1.205961	-0.015384	0.801356
	H349	H	1.212902	-0.019083	0.780732
	H350	H	1.203658	-0.007213	0.811932
	O351	O	0.872902	1.090720	0.178054
	H352	H	0.872245	1.100950	0.176039
	H353	H	0.879841	1.075238	0.173571
	O354	O	0.282646	0.478823	0.708961
	H355	H	0.283869	0.446499	0.702597
	H356	H	0.262847	0.473764	0.727902
	O357	O	1.044717	0.963014	1.168995
	H358	H	1.064460	0.946133	1.168052
	H359	H	1.048749	0.953642	1.159979
	O360	O	0.501692	0.389428	0.537370
	H361	H	0.519454	0.400572	0.553183
	H362	H	0.493137	0.382164	0.544564
	O363	O	0.543717	0.398787	0.717201
	H364	H	0.534501	0.412148	0.718902
	H365	H	0.556619	0.410907	0.722028
	O366	O	0.711115	0.715237	0.533238
	H367	H	0.731507	0.741219	0.529819
	H368	H	0.710843	0.706184	0.553498
	O369	O	0.341987	0.697134	0.530687
	H370	H	0.336322	0.690527	0.509397
	H371	H	0.332760	0.705723	0.532840
	O372	O	0.343932	0.473277	0.396232
	H373	H	0.359143	0.476677	0.385829
	H374	H	0.361020	0.476896	0.401664
	O375	O	0.151038	0.847736	1.203562
	H376	H	0.127429	0.864885	1.203581
	H377	H	0.167768	0.858933	1.200704
	O378	O	0.779569	0.019803	-0.207733
	H379	H	0.761221	0.020284	-0.194528
	H380	H	0.761592	0.040441	-0.216310
	O381	O	0.742883	0.265661	-0.220191
	H382	H	0.733319	0.273740	-0.206264
	H383	H	0.785023	0.278622	-0.224878
	O384	O	0.291012	-0.701754	0.524601
	H385	H	0.289983	-0.700070	0.524272
	H386	H	0.282765	-0.689857	0.510087
	O387	O	0.176857	0.900209	1.054553
	H388	H	0.169036	0.901606	1.076990
	H389	H	0.181405	0.891822	1.052921
	O390	O	0.069128	0.169156	1.022928
	H391	H	0.066328	0.164853	1.049917
	H392	H	0.050021	0.168282	1.026231
	O393	O	0.786680	1.206837	-0.013769
	H394	H	0.751873	1.230266	-0.019142
	H395	H	0.794541	1.192700	-0.024045
	O396	O	0.291712	0.614672	0.629928
	H397	H	0.284022	0.634250	0.634572
	H398	H	0.278613	0.609900	0.634298
	O399	O	0.555392	0.362388	0.588930
	H400	H	0.563760	0.363040	0.576095
	H401	H	0.550545	0.371849	0.608795
	O402	O	0.092698	0.107648	1.025510
	H403	H	0.094293	0.099773	1.010393
	H404	H	0.092925	0.124771	1.020009
	O405	O	0.209987	0.027935	0.219729
	H406	H	0.219180	0.050762	0.234829
	H407	H	0.212541	0.033951	0.226675
	O408	O	0.715753	0.523720	0.726119
	H409	H	0.704581	0.545919	0.731538
	H410	H	0.741062	0.536780	0.752784
	O411	O	0.289709	0.705631	0.300151
	H412	H	0.309853	0.686009	0.297152
	H413	H	0.273546	0.696286	0.288297
	O414	O	0.274986	0.532624	0.291810
	H415	H	0.251667	0.531231	0.258521
	H416	H	0.314008	0.513877	0.284213
	O417	O	0.525724	0.623290	0.474725
	H418	H	0.531900	0.612115	0.484730
	H419	H	0.519929	0.628753	0.489977
	O420	O	0.956850	0.788415	1.156765
	H421	H	0.954306	0.772817	1.175604
	H422	H	0.930464	0.789787	1.147639
	O423	O	0.184848	0.811648	-0.189812
	H424	H	0.186847	0.835175	-0.180106
	H425	H	0.153362	0.814845	-0.197017
	O426	O	0.855360	0.878875	0.844939
	H427	H	0.858333	0.896596	0.838335
	H428	H	0.859155	0.881377	0.863266
	O429	O	0.468267	0.638578	0.676962
	H430	H	0.444066	0.634528	0.685650
	H431	H	0.464381	0.627290	0.652142
	O432	O	0.683980	0.342028	0.358624
	H433	H	0.685935	0.350489	0.368568
	H434	H	0.658778	0.338950	0.356976
	O435	O	-0.161378	-0.183129	0.205162
	H436	H	-0.148305	-0.163041	0.210703
	H437	H	-0.173564	-0.184405	0.225524
	O438	O	1.205248	-0.177808	-0.019873
	H439	H	1.189916	-0.175438	-0.032875
	H440	H	1.230314	-0.203397	-0.023187
	O441	O	0.657073	0.422601	0.551858
	H442	H	0.674227	0.400015	0.555453
	H443	H	0.652750	0.440342	0.572652
	O444	O	-0.202715	0.800113	1.065735
	H445	H	-0.206143	0.808323	1.078936
	H446	H	-0.194308	0.785890	1.087665
	O447	O	0.455156	0.286993	0.456512
	H448	H	0.445801	0.298348	0.469828
	H449	H	0.475006	0.281506	0.473446
	O450	O	0.703905	0.478336	0.298008
	H451	H	0.699539	0.478434	0.327203
	H452	H	0.731173	0.475900	0.274452
	O453	O	0.546375	0.710453	0.573109
	H454	H	0.531342	0.707690	0.593267
	H455	H	0.557655	0.716142	0.584310
	O456	O	1.021386	-0.200757	-0.198649
	H457	H	1.009127	-0.201842	-0.205392
	H458	H	1.005900	-0.194855	-0.207495
	O459	O	0.523694	0.530376	0.369447
	H460	H	0.531344	0.526212	0.388878
	H461	H	0.532507	0.543667	0.355690
	O462	O	0.467222	0.712505	0.302511
	H463	H	0.467199	0.730210	0.304484
	H464	H	0.465111	0.710434	0.296327
	O465	O	0.780586	-0.022299	0.043430
	H466	H	0.783627	-0.017761	0.054780
	H467	H	0.785314	-0.032294	0.041379
