data_Molecule from HDF5

_cell_length_a		16.322205
_cell_length_b		16.340997
_cell_length_c		16.282076
_cell_angle_alpha	90.002699
_cell_angle_beta	89.871224
_cell_angle_gamma	89.856437
_symmetry_space_group_name_H-M	'P 1'
_symmetry_Int_Tables_number		1

loop_
	_symmetry_equiv_pos_as_xyz
	x,y,z

loop_
	_atom_site_label
	_atom_site_type_symbol
	_atom_site_fract_x
	_atom_site_fract_y
	_atom_site_fract_z
	H0	H	0.403670	0.847021	0.722370
	H1	H	0.596468	0.174654	0.719316
	H2	H	0.598565	0.846933	0.292139
	H3	H	0.402740	0.174028	0.292743
	H4	H	0.716342	0.412829	0.842838
	H5	H	0.714998	0.608417	0.170262
	H6	H	0.287348	0.608658	0.842582
	H7	H	0.287717	0.412848	0.170436
	H8	H	0.838616	0.725080	0.408892
	H9	H	0.165298	0.723555	0.603913
	H10	H	0.838566	0.295517	0.606092
	H11	H	0.164443	0.294243	0.407238
	H12	H	0.838938	0.411212	0.722015
	H13	H	0.165420	0.605810	0.719320
	H14	H	0.837104	0.607851	0.293671
	H15	H	0.164900	0.411266	0.291763
	H16	H	0.404475	0.724661	0.841685
	H17	H	0.598868	0.725077	0.169672
	H18	H	0.601404	0.296255	0.843019
	H19	H	0.402701	0.295643	0.169784
	H20	H	0.715849	0.846526	0.408309
	H21	H	0.716093	0.173878	0.605986
	H22	H	0.287355	0.846552	0.605081
	H23	H	0.286665	0.174064	0.410083
	H24	H	0.904850	0.346905	0.220186
	H25	H	0.099281	0.673248	0.221341
	H26	H	0.099480	0.345972	0.792695
	H27	H	0.904166	0.673231	0.793040
	H28	H	0.216125	0.911614	0.342122
	H29	H	0.213810	0.107945	0.670985
	H30	H	0.787528	0.108874	0.342815
	H31	H	0.786763	0.912271	0.669970
	H32	H	0.338553	0.226255	0.908937
	H33	H	0.665001	0.224428	0.105418
	H34	H	0.338021	0.795410	0.105611
	H35	H	0.665663	0.795877	0.906280
	H36	H	0.337729	0.912459	0.220860
	H37	H	0.664608	0.107785	0.220792
	H38	H	0.337468	0.108426	0.794192
	H39	H	0.665572	0.913582	0.791847
	H40	H	0.903092	0.224949	0.343205
	H41	H	0.097927	0.224245	0.670209
	H42	H	0.099799	0.795329	0.342567
	H43	H	0.902511	0.795346	0.670491
	H44	H	0.217385	0.346858	0.908299
	H45	H	0.215448	0.673926	0.104712
	H46	H	0.787396	0.347125	0.105595
	H47	H	0.788432	0.673434	0.909867
	H48	H	0.411930	0.126310	0.604305
	H49	H	0.593716	0.893143	0.606419
	H50	H	0.591863	0.122574	0.422502
	H51	H	0.408179	0.894620	0.413235
	H52	H	0.591862	0.409975	0.124785
	H53	H	0.593117	0.604726	0.890026
	H54	H	0.407542	0.597429	0.119934
	H55	H	0.407849	0.420939	0.891204
	H56	H	0.118649	0.606116	0.412401
	H57	H	0.882410	0.606641	0.607441
	H58	H	0.117709	0.406768	0.591980
	H59	H	0.885800	0.419316	0.413143
	H60	H	0.114029	0.425785	0.595033
	H61	H	0.885868	0.609025	0.593999
	H62	H	0.115888	0.600975	0.415580
	H63	H	0.883826	0.415016	0.410283
	H64	H	0.414632	0.606255	0.121337
	H65	H	0.597792	0.605571	0.888889
	H66	H	0.602308	0.417735	0.124997
	H67	H	0.413594	0.418215	0.891122
	H68	H	0.603870	0.129148	0.412084
	H69	H	0.589853	0.897594	0.595750
	H70	H	0.407452	0.123753	0.594479
	H71	H	0.409014	0.896050	0.413147
	H72	H	0.903736	0.626919	0.096908
	H73	H	0.089061	0.397839	0.094833
	H74	H	0.096681	0.625503	0.915684
	H75	H	0.910214	0.393295	0.912512
	H76	H	0.084309	0.915949	0.619616
	H77	H	0.099436	0.095176	0.391054
	H78	H	0.899213	0.101874	0.624857
	H79	H	0.913302	0.920107	0.392850
	H80	H	0.621432	0.121766	0.917090
	H81	H	0.385203	0.110344	0.093558
	H82	H	0.619051	0.910307	0.098437
	H83	H	0.388042	0.922553	0.915538
	H84	H	0.614112	0.919854	0.094682
	H85	H	0.387294	0.097012	0.099908
	H86	H	0.611032	0.093290	0.924798
	H87	H	0.385067	0.916899	0.909487
	H88	H	0.912931	0.097097	0.619694
	H89	H	0.086323	0.102004	0.393520
	H90	H	0.098653	0.907663	0.626540
	H91	H	0.908781	0.910307	0.388381
	H92	H	0.095717	0.627332	0.909387
	H93	H	0.103160	0.393404	0.095594
	H94	H	0.907055	0.627781	0.105821
	H95	H	0.908674	0.393890	0.915619
	H96	H	0.401138	0.128358	0.602446
	H97	H	0.601171	0.894151	0.597111
	H98	H	0.588094	0.125833	0.406178
	H99	H	0.408141	0.894610	0.414319
	H100	H	0.591044	0.422161	0.120124
	H101	H	0.596132	0.600944	0.890459
	H102	H	0.404305	0.607011	0.124872
	H103	H	0.407930	0.415082	0.889053
	H104	H	0.117628	0.600405	0.409154
	H105	H	0.887358	0.596328	0.600003
	H106	H	0.122419	0.414716	0.609586
	H107	H	0.885504	0.415327	0.415273
	H108	H	0.912797	0.624850	0.098841
	H109	H	0.094471	0.392250	0.107399
	H110	H	0.091489	0.624086	0.912662
	H111	H	0.906377	0.393228	0.912798
	H112	H	0.099439	0.924926	0.621679
	H113	H	0.097485	0.109390	0.387293
	H114	H	0.910945	0.110979	0.624938
	H115	H	0.902188	0.919445	0.388584
	H116	H	0.621240	0.098748	0.895167
	H117	H	0.381735	0.108761	0.107814
	H118	H	0.618083	0.918997	0.105049
	H119	H	0.386100	0.914103	0.918426
	C120	C	0.378909	0.018439	0.628967
	C121	C	0.622669	1.002785	0.628049
	C122	C	0.623035	0.018158	0.384765
	C123	C	0.379669	1.002648	0.385801
	C124	C	0.623754	0.388778	0.015020
	C125	C	0.623537	0.632325	0.997929
	C126	C	0.380144	0.632516	0.014509
	C127	C	0.380619	0.389310	0.998377
	C128	C	0.009478	0.631105	0.384868
	C129	C	0.993157	0.631630	0.628135
	C130	C	0.009935	0.388277	0.627564
	C131	C	0.993239	0.387974	0.384728
	C132	C	0.879906	0.518591	0.128402
	C133	C	0.123607	0.502144	0.128170
	C134	C	0.123491	0.517832	0.884296
	C135	C	0.880551	0.501676	0.885640
	C136	C	0.123090	0.887701	0.514619
	C137	C	0.122405	0.130921	0.498596
	C138	C	0.879442	0.131851	0.514872
	C139	C	0.879786	0.888368	0.498378
	C140	C	0.509827	0.132983	0.884780
	C141	C	0.493196	0.132353	0.128284
	C142	C	0.509187	0.888411	0.127915
	C143	C	0.494057	0.889459	0.885260
	C144	C	0.382708	0.895614	0.684202
	C145	C	0.618881	0.125725	0.682634
	C146	C	0.619906	0.895504	0.329894
	C147	C	0.382496	0.125424	0.331114
	C148	C	0.678657	0.392003	0.891881
	C149	C	0.677202	0.628941	0.121448
	C150	C	0.325289	0.629607	0.891100
	C151	C	0.325055	0.391884	0.121379
	C152	C	0.886851	0.686664	0.388258
	C153	C	0.116402	0.685924	0.624799
	C154	C	0.887102	0.333769	0.625631
	C155	C	0.115857	0.332364	0.386786
	C156	C	0.887206	0.390939	0.683604
	C157	C	0.116586	0.627656	0.682164
	C158	C	0.886188	0.628399	0.330938
	C159	C	0.116297	0.390944	0.329851
	C160	C	0.383047	0.687322	0.890841
	C161	C	0.619559	0.686783	0.121151
	C162	C	0.621474	0.334087	0.891903
	C163	C	0.382734	0.334224	0.121428
	C164	C	0.677857	0.895387	0.387694
	C165	C	0.677809	0.125309	0.625973
	C166	C	0.325067	0.895347	0.625850
	C167	C	0.324516	0.125366	0.389058
	C168	C	0.883779	0.395367	0.182439
	C169	C	0.119734	0.624781	0.183125
	C170	C	0.121075	0.394845	0.829863
	C171	C	0.883813	0.624466	0.830880
	C172	C	0.178344	0.890844	0.391221
	C173	C	0.176355	0.128491	0.621972
	C174	C	0.825063	0.129267	0.391794
	C175	C	0.824918	0.891314	0.621357
	C176	C	0.387135	0.188168	0.888122
	C177	C	0.616358	0.186342	0.125300
	C178	C	0.386679	0.833325	0.125881
	C179	C	0.616835	0.834164	0.886692
	C180	C	0.386332	0.891841	0.182778
	C181	C	0.616304	0.128346	0.182600
	C182	C	0.386570	0.129878	0.830881
	C183	C	0.616931	0.892564	0.829775
	C184	C	0.882535	0.186774	0.391868
	C185	C	0.118955	0.186300	0.621571
	C186	C	0.120530	0.833104	0.391250
	C187	C	0.882430	0.833400	0.621352
	C188	C	0.179499	0.395439	0.887384
	C189	C	0.177616	0.625063	0.125315
	C190	C	0.825300	0.395679	0.125617
	C191	C	0.825935	0.624576	0.888553
	C192	C	0.400522	0.104193	0.606946
	C193	C	0.601023	0.917140	0.606286
	C194	C	0.600929	0.103810	0.407006
	C195	C	0.401951	0.917178	0.407253
	C196	C	0.601706	0.410368	0.101227
	C197	C	0.601985	0.610243	0.912003
	C198	C	0.402206	0.610109	0.099880
	C199	C	0.403176	0.411566	0.912674
	C200	C	0.095220	0.608994	0.406213
	C201	C	0.907411	0.610311	0.606795
	C202	C	0.095835	0.409649	0.605415
	C203	C	0.907404	0.409872	0.406496
	C204	C	0.901474	0.604344	0.106847
	C205	C	0.101894	0.416500	0.105898
	C206	C	0.101180	0.603504	0.906165
	C207	C	0.902079	0.415699	0.907339
	C208	C	0.100838	0.909659	0.600530
	C209	C	0.100789	0.108651	0.412834
	C210	C	0.901266	0.109723	0.600963
	C211	C	0.901684	0.910218	0.412143
	C212	C	0.595762	0.111107	0.905997
	C213	C	0.407113	0.111458	0.106862
	C214	C	0.595121	0.909964	0.105797
	C215	C	0.408396	0.911524	0.907792
	Zn216	Zn	0.501426	0.010931	0.757136
	Zn217	Zn	0.501081	0.010363	0.256250
	Zn218	Zn	0.751673	0.510101	0.007037
	Zn219	Zn	0.252019	0.510483	0.006369
	Zn220	Zn	0.001619	0.759870	0.506218
	Zn221	Zn	0.001259	0.259380	0.506410
	Zn222	Zn	0.001981	0.509115	0.755854
	Zn223	Zn	0.001395	0.509557	0.256479
	Zn224	Zn	0.501722	0.760566	0.005766
	Zn225	Zn	0.502185	0.261104	0.006784
	Zn226	Zn	0.751551	0.010491	0.506992
	Zn227	Zn	0.250454	0.010076	0.507081
	N228	N	0.415397	0.973242	0.686254
	N229	N	0.585103	0.048707	0.683833
	N230	N	0.586521	0.972699	0.328070
	N231	N	0.416237	0.048171	0.328949
	N232	N	0.680156	0.425272	0.969439
	N233	N	0.679903	0.595838	0.043830
	N234	N	0.323151	0.596245	0.968854
	N235	N	0.324033	0.425722	0.043962
	N236	N	0.964301	0.688178	0.421099
	N237	N	0.038726	0.688677	0.592200
	N238	N	0.964370	0.331840	0.591735
	N239	N	0.038449	0.330584	0.420241
	N240	N	0.964563	0.424272	0.684658
	N241	N	0.039179	0.594558	0.684341
	N242	N	0.963542	0.594528	0.328608
	N243	N	0.039051	0.424885	0.328409
	N244	N	0.416477	0.689037	0.968294
	N245	N	0.586972	0.688828	0.043337
	N246	N	0.587838	0.332144	0.969531
	N247	N	0.416710	0.332690	0.044061
	N248	N	0.680001	0.972742	0.421111
	N249	N	0.680034	0.047945	0.592501
	N250	N	0.322688	0.972597	0.592341
	N251	N	0.322983	0.048139	0.422426
	N252	N	0.916728	0.472701	0.184580
	N253	N	0.086971	0.547165	0.185120
	N254	N	0.086882	0.471820	0.828182
	N255	N	0.917128	0.546866	0.828792
	N256	N	0.179924	0.924160	0.469031
	N257	N	0.178525	0.094834	0.544687
	N258	N	0.823162	0.095681	0.469459
	N259	N	0.823385	0.924780	0.543982
	N260	N	0.464746	0.190222	0.920766
	N261	N	0.538848	0.188972	0.092223
	N262	N	0.464021	0.831325	0.092342
	N263	N	0.539544	0.832235	0.920539
	N264	N	0.463690	0.925250	0.184324
	N265	N	0.538647	0.095728	0.184713
	N266	N	0.463902	0.096307	0.828648
	N267	N	0.539536	0.926224	0.828797
	N268	N	0.915627	0.188496	0.469303
	N269	N	0.086190	0.187998	0.543759
	N270	N	0.087191	0.830911	0.468825
	N271	N	0.915970	0.831555	0.543616
	N272	N	0.181197	0.473036	0.920406
	N273	N	0.179981	0.547843	0.091945
	N274	N	0.822664	0.473465	0.092945
	N275	N	0.823922	0.547330	0.921732
	O276	O	0.069700	-0.109606	0.968452
	H277	H	0.065901	-0.111151	0.969547
	H278	H	0.069266	-0.116506	0.972321
	O279	O	1.053953	-0.118526	-0.062063
	H280	H	1.052536	-0.122689	-0.066574
	H281	H	1.056871	-0.120275	-0.066392
	O282	O	0.449738	0.520512	0.480686
	H283	H	0.457756	0.528892	0.479127
	H284	H	0.450737	0.511086	0.471366
	O285	O	0.428319	0.525395	0.510059
	H286	H	0.430355	0.527036	0.519140
	H287	H	0.431872	0.519115	0.517003
	O288	O	0.486557	0.514458	0.465709
	H289	H	0.481802	0.511573	0.469836
	H290	H	0.479478	0.522124	0.467061
	O291	O	-0.534566	0.541924	0.494608
	H292	H	-0.537246	0.543758	0.496176
	H293	H	-0.538199	0.543175	0.493126
	O294	O	0.418190	0.517977	0.496477
	H295	H	0.418266	0.520684	0.486020
	H296	H	0.414333	0.517138	0.492312
	O297	O	1.059270	-0.128508	-0.053970
	H298	H	1.061958	-0.134300	-0.055530
	H299	H	1.061197	-0.126198	-0.057766
