data_Molecule from HDF5

_cell_length_a		16.393519
_cell_length_b		16.225856
_cell_length_c		16.265148
_cell_angle_alpha	89.969640
_cell_angle_beta	90.041397
_cell_angle_gamma	90.045643
_symmetry_space_group_name_H-M	'P 1'
_symmetry_Int_Tables_number		1

loop_
	_symmetry_equiv_pos_as_xyz
	x,y,z

loop_
	_atom_site_label
	_atom_site_type_symbol
	_atom_site_fract_x
	_atom_site_fract_y
	_atom_site_fract_z
	H0	H	0.405401	0.838042	0.716598
	H1	H	0.600377	0.167596	0.715482
	H2	H	0.600742	0.837329	0.291014
	H3	H	0.407094	0.166921	0.290249
	H4	H	0.719697	0.401635	0.840837
	H5	H	0.719308	0.602707	0.166696
	H6	H	0.286272	0.603664	0.841049
	H7	H	0.288875	0.402207	0.167450
	H8	H	0.840062	0.716321	0.406720
	H9	H	0.166185	0.718625	0.603797
	H10	H	0.840946	0.285951	0.603390
	H11	H	0.167107	0.288906	0.406963
	H12	H	0.840252	0.403524	0.719391
	H13	H	0.165317	0.602723	0.721189
	H14	H	0.841041	0.601619	0.288778
	H15	H	0.166459	0.404487	0.290100
	H16	H	0.405817	0.716564	0.839366
	H17	H	0.601462	0.716160	0.167213
	H18	H	0.600320	0.289915	0.839680
	H19	H	0.405885	0.288435	0.167509
	H20	H	0.718724	0.838778	0.404313
	H21	H	0.719452	0.166130	0.603236
	H22	H	0.288570	0.839541	0.601885
	H23	H	0.288875	0.166058	0.402232
	H24	H	0.907473	0.338095	0.217193
	H25	H	0.102082	0.667220	0.218345
	H26	H	0.101552	0.337831	0.791404
	H27	H	0.904230	0.666097	0.789346
	H28	H	0.217241	0.904259	0.338911
	H29	H	0.221126	0.104695	0.665769
	H30	H	0.788338	0.103251	0.340119
	H31	H	0.787198	0.901511	0.666402
	H32	H	0.341724	0.217819	0.904901
	H33	H	0.667154	0.216251	0.100797
	H34	H	0.340708	0.787085	0.101169
	H35	H	0.666544	0.787574	0.904487
	H36	H	0.340871	0.903422	0.218378
	H37	H	0.666785	0.099641	0.217557
	H38	H	0.341165	0.102229	0.787566
	H39	H	0.666596	0.904463	0.788352
	H40	H	0.907175	0.216568	0.339771
	H41	H	0.100448	0.215002	0.668244
	H42	H	0.099734	0.789670	0.339398
	H43	H	0.905582	0.788642	0.667941
	H44	H	0.219686	0.339514	0.904306
	H45	H	0.220113	0.665994	0.105578
	H46	H	0.788670	0.338484	0.104000
	H47	H	0.787588	0.665309	0.903783
	H48	H	0.405677	0.121168	0.594421
	H49	H	0.593365	0.885865	0.597485
	H50	H	0.594728	0.119523	0.408195
	H51	H	0.413929	0.886577	0.408822
	H52	H	0.597888	0.406280	0.121804
	H53	H	0.598315	0.592255	0.887371
	H54	H	0.416679	0.597766	0.118643
	H55	H	0.402806	0.417074	0.887565
	H56	H	0.121768	0.610160	0.415749
	H57	H	0.889322	0.594335	0.596259
	H58	H	0.117642	0.400764	0.586143
	H59	H	0.886781	0.408372	0.407101
	H60	H	0.113972	0.423648	0.597342
	H61	H	0.887894	0.595077	0.598119
	H62	H	0.113303	0.586122	0.420447
	H63	H	0.888516	0.406227	0.414245
	H64	H	0.405142	0.598643	0.123491
	H65	H	0.594009	0.592560	0.887978
	H66	H	0.599653	0.411555	0.120538
	H67	H	0.417929	0.416044	0.891505
	H68	H	0.597259	0.118285	0.413836
	H69	H	0.595845	0.886570	0.592262
	H70	H	0.415398	0.120025	0.600199
	H71	H	0.408602	0.885850	0.415588
	H72	H	0.910918	0.618253	0.093177
	H73	H	0.099674	0.386909	0.090240
	H74	H	0.099254	0.621269	0.910236
	H75	H	0.912356	0.386748	0.915430
	H76	H	0.102177	0.911525	0.621616
	H77	H	0.098676	0.106871	0.383165
	H78	H	0.906076	0.098333	0.622277
	H79	H	0.905062	0.912897	0.386605
	H80	H	0.619041	0.100117	0.915700
	H81	H	0.386100	0.104248	0.097232
	H82	H	0.616871	0.916524	0.098262
	H83	H	0.386610	0.912581	0.902093
	H84	H	0.622450	0.904407	0.103075
	H85	H	0.390661	0.093033	0.090865
	H86	H	0.617719	0.089652	0.908653
	H87	H	0.387645	0.902528	0.913225
	H88	H	0.907614	0.088195	0.618944
	H89	H	0.105893	0.089678	0.385932
	H90	H	0.095644	0.915344	0.617707
	H91	H	0.913919	0.912350	0.389574
	H92	H	0.090413	0.617749	0.911107
	H93	H	0.100358	0.383193	0.102371
	H94	H	0.905994	0.620837	0.097687
	H95	H	0.906511	0.384300	0.912048
	H96	H	0.414138	0.116017	0.589325
	H97	H	0.599578	0.885420	0.596346
	H98	H	0.600649	0.120392	0.409263
	H99	H	0.405460	0.883889	0.407438
	H100	H	0.594682	0.410681	0.119962
	H101	H	0.596556	0.595712	0.887054
	H102	H	0.409250	0.587780	0.118001
	H103	H	0.410760	0.403359	0.885317
	H104	H	0.121277	0.593267	0.397389
	H105	H	0.888607	0.596137	0.596154
	H106	H	0.123697	0.404201	0.610891
	H107	H	0.889322	0.413060	0.411743
	H108	H	0.912351	0.619865	0.099820
	H109	H	0.089973	0.388485	0.097707
	H110	H	0.096129	0.617357	0.918460
	H111	H	0.913251	0.384391	0.908928
	H112	H	0.094134	0.906584	0.619953
	H113	H	0.088185	0.092532	0.390540
	H114	H	0.915789	0.095437	0.618232
	H115	H	0.910460	0.904547	0.385085
	H116	H	0.622948	0.100306	0.903327
	H117	H	0.386760	0.091973	0.104057
	H118	H	0.617933	0.905354	0.089706
	H119	H	0.392103	0.916383	0.915743
	C120	C	0.382430	0.011238	0.624292
	C121	C	0.624949	0.994526	0.624307
	C122	C	0.625326	0.010407	0.382093
	C123	C	0.382022	0.994042	0.381979
	C124	C	0.625225	0.381138	0.012411
	C125	C	0.625159	0.623322	0.995138
	C126	C	0.381300	0.624209	0.012202
	C127	C	0.381694	0.381956	0.995716
	C128	C	0.011464	0.624910	0.382444
	C129	C	0.995210	0.624810	0.626465
	C130	C	0.011146	0.380425	0.626545
	C131	C	0.995651	0.381210	0.383224
	C132	C	0.881977	0.510858	0.125692
	C133	C	0.125694	0.494381	0.126129
	C134	C	0.124403	0.510710	0.883803
	C135	C	0.881784	0.493619	0.883124
	C136	C	0.125097	0.882351	0.511368
	C137	C	0.125751	0.124755	0.495037
	C138	C	0.881903	0.123762	0.512204
	C139	C	0.881431	0.881254	0.495552
	C140	C	0.512398	0.125085	0.880727
	C141	C	0.495619	0.124312	0.125685
	C142	C	0.511544	0.880161	0.125225
	C143	C	0.495712	0.881411	0.881526
	C144	C	0.384927	0.887508	0.679212
	C145	C	0.621859	0.118136	0.678962
	C146	C	0.621878	0.886653	0.328151
	C147	C	0.385946	0.117683	0.327269
	C148	C	0.680926	0.382452	0.889491
	C149	C	0.680766	0.622115	0.118056
	C150	C	0.324985	0.623320	0.889586
	C151	C	0.326697	0.382732	0.118665
	C152	C	0.888932	0.679311	0.385573
	C153	C	0.117535	0.680480	0.624256
	C154	C	0.889191	0.324364	0.623965
	C155	C	0.118248	0.326570	0.386097
	C156	C	0.888772	0.382653	0.681566
	C157	C	0.117181	0.622908	0.682624
	C158	C	0.889277	0.621909	0.327268
	C159	C	0.117889	0.383877	0.327853
	C160	C	0.384449	0.679226	0.888720
	C161	C	0.622180	0.678692	0.118264
	C162	C	0.621398	0.327092	0.888712
	C163	C	0.384888	0.326066	0.118557
	C164	C	0.680778	0.887453	0.384108
	C165	C	0.680795	0.117555	0.622897
	C166	C	0.326555	0.888231	0.622576
	C167	C	0.327142	0.117416	0.383194
	C168	C	0.885917	0.387135	0.179866
	C169	C	0.123001	0.617899	0.181080
	C170	C	0.122209	0.387291	0.828492
	C171	C	0.884181	0.617179	0.827758
	C172	C	0.179286	0.884186	0.388048
	C173	C	0.182307	0.123833	0.617439
	C174	C	0.826924	0.122638	0.388823
	C175	C	0.825460	0.882270	0.617983
	C176	C	0.389893	0.179960	0.883778
	C177	C	0.618359	0.178656	0.122068
	C178	C	0.389175	0.825061	0.122108
	C179	C	0.617915	0.825619	0.884088
	C180	C	0.389133	0.882917	0.180141
	C181	C	0.618221	0.120628	0.179985
	C182	C	0.389989	0.122608	0.825362
	C183	C	0.618027	0.883595	0.826291
	C184	C	0.885533	0.179088	0.388792
	C185	C	0.122382	0.178722	0.618771
	C186	C	0.121133	0.827113	0.388365
	C187	C	0.884446	0.826292	0.618841
	C188	C	0.180897	0.387921	0.884904
	C189	C	0.181430	0.617442	0.124877
	C190	C	0.827116	0.387325	0.123507
	C191	C	0.826142	0.616759	0.884558
	C192	C	0.405120	0.096910	0.601415
	C193	C	0.602843	0.908230	0.601732
	C194	C	0.603787	0.097016	0.404073
	C195	C	0.403041	0.907720	0.404159
	C196	C	0.603831	0.403243	0.098535
	C197	C	0.602847	0.600294	0.909483
	C198	C	0.403590	0.601316	0.097885
	C199	C	0.403955	0.405308	0.910213
	C200	C	0.096877	0.603056	0.404725
	C201	C	0.910303	0.602066	0.603580
	C202	C	0.096438	0.403038	0.604670
	C203	C	0.910292	0.402814	0.404870
	C204	C	0.903339	0.597391	0.103542
	C205	C	0.103433	0.408481	0.103469
	C206	C	0.101897	0.596630	0.906545
	C207	C	0.904054	0.407481	0.905585
	C208	C	0.103674	0.904607	0.597632
	C209	C	0.103971	0.102713	0.408868
	C210	C	0.903596	0.100700	0.597783
	C211	C	0.903468	0.903456	0.409345
	C212	C	0.597644	0.103251	0.902785
	C213	C	0.409949	0.102695	0.103928
	C214	C	0.597001	0.902314	0.103326
	C215	C	0.410793	0.903906	0.903819
	Zn216	Zn	0.503889	0.002678	0.752367
	Zn217	Zn	0.503668	0.001887	0.254378
	Zn218	Zn	0.753680	0.502026	0.004194
	Zn219	Zn	0.252943	0.502492	0.004469
	Zn220	Zn	0.003481	0.753674	0.504024
	Zn221	Zn	0.003514	0.251859	0.504464
	Zn222	Zn	0.003040	0.502502	0.755414
	Zn223	Zn	0.003897	0.502947	0.253573
	Zn224	Zn	0.503710	0.751836	0.002975
	Zn225	Zn	0.503505	0.253792	0.003604
	Zn226	Zn	0.753362	0.002635	0.503203
	Zn227	Zn	0.253793	0.003191	0.502995
	N228	N	0.418764	0.965184	0.680628
	N229	N	0.588119	0.040545	0.679961
	N230	N	0.588035	0.964211	0.326963
	N231	N	0.419415	0.039959	0.326497
	N232	N	0.683329	0.415273	0.967423
	N233	N	0.682627	0.588273	0.040516
	N234	N	0.323013	0.589803	0.967413
	N235	N	0.324870	0.416919	0.041373
	N236	N	0.965764	0.680886	0.419351
	N237	N	0.040608	0.681841	0.590159
	N238	N	0.966325	0.322883	0.590590
	N239	N	0.041320	0.324682	0.419942
	N240	N	0.965531	0.416914	0.683094
	N241	N	0.040362	0.588868	0.683938
	N242	N	0.966563	0.589065	0.324996
	N243	N	0.040762	0.417159	0.325935
	N244	N	0.418751	0.679875	0.965848
	N245	N	0.588411	0.679595	0.040806
	N246	N	0.587427	0.326245	0.966067
	N247	N	0.418606	0.325713	0.041143
	N248	N	0.683036	0.965583	0.416880
	N249	N	0.682685	0.039546	0.589547
	N250	N	0.324793	0.965988	0.589070
	N251	N	0.324846	0.039635	0.416756
	N252	N	0.919329	0.464846	0.181270
	N253	N	0.088820	0.540479	0.181729
	N254	N	0.087918	0.464611	0.827589
	N255	N	0.918136	0.539588	0.826890
	N256	N	0.181901	0.917600	0.465806
	N257	N	0.184432	0.090874	0.539469
	N258	N	0.824544	0.088840	0.466326
	N259	N	0.823772	0.915703	0.540169
	N260	N	0.466842	0.181705	0.917547
	N261	N	0.541094	0.181071	0.088877
	N262	N	0.466193	0.823426	0.088783
	N263	N	0.540849	0.823995	0.917664
	N264	N	0.466386	0.916416	0.182260
	N265	N	0.540978	0.087624	0.182249
	N266	N	0.467220	0.089532	0.823105
	N267	N	0.541253	0.917548	0.824700
	N268	N	0.919296	0.179639	0.466287
	N269	N	0.087983	0.179343	0.541639
	N270	N	0.088137	0.825960	0.466152
	N271	N	0.918638	0.825660	0.541731
	N272	N	0.182448	0.465725	0.918513
	N273	N	0.183263	0.539625	0.091358
	N274	N	0.824578	0.465461	0.090594
	N275	N	0.824588	0.539038	0.918219
	O276	O	0.524023	0.492708	-0.521783
	H277	H	0.528609	0.492334	-0.520692
	H278	H	0.527440	0.493872	-0.528958
	O279	O	0.036524	-0.060057	-0.064143
	H280	H	0.035585	-0.060919	-0.069998
	H281	H	0.028212	-0.052265	-0.065452
	O282	O	-0.006746	-0.008238	0.926325
	H283	H	-0.010233	-0.008309	0.928922
	H284	H	-0.004795	-0.009750	0.933571
	O285	O	0.500994	0.515818	0.531117
	H286	H	0.492949	0.511629	0.529605
	H287	H	0.499588	0.514988	0.536438
	O288	O	0.466815	0.524980	0.505775
	H289	H	0.466854	0.518662	0.507360
	H290	H	0.472114	0.523758	0.506702
	O291	O	0.485699	0.451959	0.532528
	H292	H	0.487118	0.453253	0.529324
	H293	H	0.480628	0.454753	0.537764
	O294	O	-0.003693	-0.003308	-0.029543
	H295	H	-0.007478	0.000236	-0.030973
	H296	H	-0.006294	-0.009636	-0.030112
	O297	O	0.460735	0.469517	0.593852
	H298	H	0.458181	0.471103	0.600891
	H299	H	0.452121	0.465017	0.596943
	O300	O	0.522141	1.531384	0.522643
	H301	H	0.518798	1.545306	0.527047
	H302	H	0.528299	1.534872	0.517044
	O303	O	0.480473	0.492983	0.519216
	H304	H	0.483969	0.493343	0.525498
	H305	H	0.469737	0.493183	0.509027
	O306	O	0.041336	-0.066180	0.914055
	H307	H	0.043237	-0.052486	0.909098
	H308	H	0.053690	-0.072534	0.911635
	O309	O	1.053892	0.943559	0.978341
	H310	H	1.054414	0.935873	0.976080
	H311	H	1.056281	0.939081	0.982983
	O312	O	0.467776	0.484481	0.490217
	H313	H	0.476318	0.478280	0.489953
	H314	H	0.462002	0.485542	0.490175
	O315	O	0.552680	0.528074	0.496057
	H316	H	0.553759	0.525073	0.505057
	H317	H	0.559962	0.526410	0.493948
	O318	O	0.014478	0.983393	-0.048841
	H319	H	0.013663	0.976973	-0.052860
	H320	H	0.018142	0.977331	-0.049646
	O321	O	0.523321	0.461912	0.525807
	H322	H	0.535109	0.449540	0.526327
	H323	H	0.515011	0.464479	0.531127
