data_Molecule from HDF5

_cell_length_a		16.527092
_cell_length_b		16.657191
_cell_length_c		16.772698
_cell_angle_alpha	90.158071
_cell_angle_beta	89.948734
_cell_angle_gamma	89.975694
_symmetry_space_group_name_H-M	'P 1'
_symmetry_Int_Tables_number		1

loop_
	_symmetry_equiv_pos_as_xyz
	x,y,z

loop_
	_atom_site_label
	_atom_site_type_symbol
	_atom_site_fract_x
	_atom_site_fract_y
	_atom_site_fract_z
	H0	H	0.372932	0.823254	0.697118
	H1	H	0.581833	0.134035	0.697204
	H2	H	0.584598	0.823990	0.253857
	H3	H	0.369800	0.132082	0.253984
	H4	H	0.703019	0.367996	0.825487
	H5	H	0.700920	0.585112	0.128858
	H6	H	0.252113	0.584976	0.824418
	H7	H	0.256361	0.374918	0.132518
	H8	H	0.819463	0.696039	0.377307
	H9	H	0.130878	0.703899	0.586465
	H10	H	0.820862	0.260203	0.579635
	H11	H	0.134115	0.259399	0.373385
	H12	H	0.822570	0.374045	0.697279
	H13	H	0.130406	0.589790	0.702838
	H14	H	0.819174	0.580990	0.260356
	H15	H	0.134208	0.375353	0.257497
	H16	H	0.368473	0.701113	0.823502
	H17	H	0.585124	0.702341	0.128787
	H18	H	0.585727	0.253297	0.825023
	H19	H	0.369585	0.255353	0.130563
	H20	H	0.697452	0.822807	0.373297
	H21	H	0.694864	0.134684	0.578549
	H22	H	0.259036	0.822839	0.579300
	H23	H	0.255700	0.132892	0.372184
	H24	H	0.869642	0.323924	0.199522
	H25	H	0.079343	0.635212	0.195482
	H26	H	0.086546	0.325146	0.752637
	H27	H	0.865013	0.628474	0.750642
	H28	H	0.201525	0.870237	0.324702
	H29	H	0.201387	0.086193	0.629908
	H30	H	0.756143	0.082964	0.322178
	H31	H	0.754744	0.873245	0.630455
	H32	H	0.319991	0.197346	0.873466
	H33	H	0.633836	0.198353	0.080916
	H34	H	0.322626	0.757609	0.081165
	H35	H	0.635517	0.760466	0.874632
	H36	H	0.322356	0.872497	0.197617
	H37	H	0.633607	0.084256	0.197177
	H38	H	0.321330	0.083452	0.756026
	H39	H	0.635789	0.876548	0.759624
	H40	H	0.872249	0.198989	0.321286
	H41	H	0.086530	0.204085	0.628990
	H42	H	0.085356	0.753489	0.324943
	H43	H	0.867803	0.754074	0.628621
	H44	H	0.198845	0.323649	0.872527
	H45	H	0.194375	0.634734	0.078199
	H46	H	0.755866	0.322861	0.081524
	H47	H	0.755088	0.631513	0.871421
	H48	H	0.390561	0.089177	0.567530
	H49	H	0.567122	0.862095	0.579038
	H50	H	0.567867	0.090080	0.388170
	H51	H	0.391800	0.866613	0.384166
	H52	H	0.562113	0.388182	0.086617
	H53	H	0.563915	0.567168	0.866723
	H54	H	0.387378	0.571990	0.088723
	H55	H	0.395156	0.388575	0.869648
	H56	H	0.088820	0.560566	0.382580
	H57	H	0.862739	0.573678	0.565499
	H58	H	0.089842	0.395692	0.568046
	H59	H	0.862972	0.392594	0.379779
	H60	H	0.092432	0.385967	0.566490
	H61	H	0.871837	0.561763	0.554864
	H62	H	0.093517	0.573965	0.382340
	H63	H	0.861924	0.381527	0.387856
	H64	H	0.385088	0.565014	0.086711
	H65	H	0.566495	0.568618	0.865116
	H66	H	0.568167	0.388109	0.087956
	H67	H	0.385163	0.381967	0.864264
	H68	H	0.565421	0.090765	0.384104
	H69	H	0.557080	0.870303	0.564866
	H70	H	0.388018	0.091063	0.566393
	H71	H	0.393473	0.869682	0.389481
	H72	H	0.885065	0.590640	0.066883
	H73	H	0.066749	0.364385	0.072711
	H74	H	0.065981	0.588510	0.893544
	H75	H	0.892212	0.367629	0.888791
	H76	H	0.068044	0.887328	0.588949
	H77	H	0.068985	0.067488	0.365760
	H78	H	0.885751	0.071517	0.588108
	H79	H	0.890291	0.891815	0.367023
	H80	H	0.589330	0.062429	0.884769
	H81	H	0.366706	0.067748	0.062568
	H82	H	0.588536	0.890746	0.060840
	H83	H	0.364302	0.882910	0.891994
	H84	H	0.590151	0.894486	0.068983
	H85	H	0.366467	0.062555	0.065958
	H86	H	0.591776	0.070987	0.885758
	H87	H	0.366717	0.895655	0.888035
	H88	H	0.886595	0.068205	0.587113
	H89	H	0.064628	0.064504	0.368271
	H90	H	0.066410	0.896496	0.584923
	H91	H	0.891307	0.886356	0.366453
	H92	H	0.063467	0.590283	0.886117
	H93	H	0.063427	0.367079	0.068053
	H94	H	0.888726	0.590434	0.072394
	H95	H	0.892199	0.367077	0.888712
	H96	H	0.389208	0.090737	0.569253
	H97	H	0.575766	0.864575	0.561577
	H98	H	0.562870	0.088466	0.387851
	H99	H	0.387212	0.867410	0.388628
	H100	H	0.565354	0.393119	0.086346
	H101	H	0.566585	0.565314	0.866055
	H102	H	0.392499	0.568026	0.084934
	H103	H	0.383891	0.394557	0.867438
	H104	H	0.088244	0.568667	0.394420
	H105	H	0.866608	0.557100	0.571872
	H106	H	0.087973	0.391289	0.559099
	H107	H	0.867213	0.392703	0.392777
	H108	H	0.891127	0.587632	0.066584
	H109	H	0.069323	0.364747	0.067001
	H110	H	0.058126	0.586311	0.890569
	H111	H	0.892676	0.366905	0.888817
	H112	H	0.058640	0.890095	0.585664
	H113	H	0.063503	0.069922	0.366908
	H114	H	0.888969	0.070960	0.586614
	H115	H	0.886193	0.888232	0.365286
	H116	H	0.587281	0.066758	0.892542
	H117	H	0.364281	0.067548	0.068801
	H118	H	0.592914	0.885766	0.066949
	H119	H	0.362113	0.887014	0.879266
	C120	C	0.357061	-0.012679	0.598522
	C121	C	0.598119	0.969328	0.598638
	C122	C	0.598239	-0.012928	0.355242
	C123	C	0.357070	0.970015	0.355486
	C124	C	0.598766	0.356329	-0.013996
	C125	C	0.599093	0.599742	0.967283
	C126	C	0.355337	0.600398	-0.014978
	C127	C	0.355073	0.356140	0.968855
	C128	C	-0.014039	0.599368	0.356402
	C129	C	0.968559	0.599262	0.598518
	C130	C	-0.013276	0.358449	0.596773
	C131	C	0.968128	0.357634	0.355399
	C132	C	0.855181	0.486975	0.099595
	C133	C	0.097371	0.469453	0.098997
	C134	C	0.097509	0.486822	0.856330
	C135	C	0.857070	0.468530	0.855816
	C136	C	0.098442	0.857176	0.485747
	C137	C	0.099432	0.100384	0.468201
	C138	C	0.855508	0.101150	0.484968
	C139	C	0.856068	0.857063	0.468102
	C140	C	0.485597	0.098837	0.856203
	C141	C	0.468932	0.098704	0.097660
	C142	C	0.486883	0.857685	0.097534
	C143	C	0.468906	0.858139	0.855932
	C144	C	0.354787	0.869938	0.657323
	C145	C	0.599958	0.086995	0.657226
	C146	C	0.602111	0.870433	0.294739
	C147	C	0.352564	0.086051	0.294734
	C148	C	0.661391	0.351485	0.871143
	C149	C	0.660589	0.603216	0.082793
	C150	C	0.293077	0.603060	0.870214
	C151	C	0.295628	0.355262	0.085546
	C152	C	0.866664	0.656796	0.357481
	C153	C	0.084272	0.662789	0.603677
	C154	C	0.868495	0.299369	0.598470
	C155	C	0.087064	0.299180	0.354398
	C156	C	0.869128	0.355987	0.656857
	C157	C	0.084377	0.605757	0.661369
	C158	C	0.866640	0.599913	0.299355
	C159	C	0.087022	0.356414	0.296875
	C160	C	0.351000	0.660778	0.869817
	C161	C	0.602972	0.661375	0.082713
	C162	C	0.603208	0.294149	0.871102
	C163	C	0.352255	0.296185	0.084738
	C164	C	0.658193	0.869838	0.353912
	C165	C	0.656217	0.087511	0.598429
	C166	C	0.298401	0.869690	0.598654
	C167	C	0.296176	0.086496	0.353470
	C168	C	0.851853	0.370347	0.159412
	C169	C	0.098048	0.587907	0.156188
	C170	C	0.103212	0.371197	0.793975
	C171	C	0.849876	0.583376	0.793159
	C172	C	0.160531	0.852816	0.370625
	C173	C	0.160724	0.103987	0.583765
	C174	C	0.796330	0.101765	0.368539
	C175	C	0.794693	0.854565	0.583755
	C176	C	0.367643	0.158332	0.854432
	C177	C	0.586668	0.158612	0.099456
	C178	C	0.369476	0.797605	0.099666
	C179	C	0.588246	0.800207	0.855861
	C180	C	0.369373	0.854931	0.157342
	C181	C	0.586822	0.101796	0.157151
	C182	C	0.368139	0.101290	0.796419
	C183	C	0.588290	0.857631	0.798534
	C184	C	0.854094	0.159626	0.368349
	C185	C	0.103638	0.162703	0.583246
	C186	C	0.102802	0.794745	0.370732
	C187	C	0.851386	0.795611	0.583062
	C188	C	0.158775	0.370262	0.853534
	C189	C	0.155566	0.587569	0.098294
	C190	C	0.795604	0.369806	0.100535
	C191	C	0.794798	0.584505	0.852891
	C192	C	0.382089	0.069020	0.574572
	C193	C	0.573717	0.887178	0.575051
	C194	C	0.572753	0.068515	0.379716
	C195	C	0.383323	0.889090	0.380449
	C196	C	0.572717	0.382478	0.066058
	C197	C	0.573144	0.574102	0.886871
	C198	C	0.381026	0.575445	0.065835
	C199	C	0.380601	0.381085	0.888077
	C200	C	0.068700	0.574815	0.379681
	C201	C	0.887883	0.571689	0.571886
	C202	C	0.068701	0.383782	0.571612
	C203	C	0.885617	0.381945	0.379654
	C204	C	0.880864	0.568320	0.075276
	C205	C	0.073223	0.386929	0.075883
	C206	C	0.070138	0.567483	0.882555
	C207	C	0.884808	0.388173	0.881549
	C208	C	0.071860	0.883632	0.565600
	C209	C	0.073157	0.074525	0.387849
	C210	C	0.880202	0.077168	0.566150
	C211	C	0.881935	0.881948	0.387205
	C212	C	0.568022	0.073955	0.880768
	C213	C	0.387087	0.073242	0.073062
	C214	C	0.569241	0.882988	0.072615
	C215	C	0.386073	0.881755	0.879504
	Zn216	Zn	0.477601	-0.021847	0.727352
	Zn217	Zn	0.477991	-0.021451	0.225938
	Zn218	Zn	0.727969	0.477412	-0.023336
	Zn219	Zn	0.226304	0.478495	-0.022424
	Zn220	Zn	-0.022655	0.727555	0.477678
	Zn221	Zn	-0.022000	0.229888	0.476029
	Zn222	Zn	-0.022195	0.478577	0.726497
	Zn223	Zn	-0.023506	0.478666	0.228093
	Zn224	Zn	0.477481	0.729014	-0.024155
	Zn225	Zn	0.476757	0.227309	-0.022767
	Zn226	Zn	0.726735	-0.021172	0.476572
	Zn227	Zn	0.228726	-0.021652	0.477167
	N228	N	0.390179	0.944287	0.657772
	N229	N	0.565062	0.012363	0.658035
	N230	N	0.565522	0.944423	0.295210
	N231	N	0.389832	0.012508	0.295557
	N232	N	0.658707	0.389762	0.943399
	N233	N	0.658556	0.565467	0.009977
	N234	N	0.295893	0.565761	0.942958
	N235	N	0.297068	0.391862	0.012406
	N236	N	0.942012	0.656749	0.392063
	N237	N	0.011243	0.658858	0.565062
	N238	N	0.942723	0.300698	0.561810
	N239	N	0.012015	0.299337	0.389504
	N240	N	0.943974	0.391667	0.656247
	N241	N	0.011286	0.566874	0.658277
	N242	N	0.941965	0.564987	0.298493
	N243	N	0.011926	0.391804	0.296939
	N244	N	0.389315	0.659232	0.942291
	N245	N	0.565464	0.659478	0.009891
	N246	N	0.564782	0.296897	0.943445
	N247	N	0.388622	0.296576	0.011115
	N248	N	0.656136	0.943454	0.390648
	N249	N	0.655605	0.013127	0.562824
	N250	N	0.299499	0.943769	0.562879
	N251	N	0.298646	0.013222	0.390471
	N252	N	0.888135	0.444432	0.159273
	N253	N	0.062942	0.513163	0.157281
	N254	N	0.065839	0.444827	0.795555
	N255	N	0.887980	0.510308	0.794630
	N256	N	0.157919	0.891073	0.442965
	N257	N	0.158374	0.065860	0.511039
	N258	N	0.796777	0.066022	0.442079
	N259	N	0.797482	0.892368	0.511156
	N260	N	0.441975	0.156945	0.890962
	N261	N	0.512252	0.157135	0.063229
	N262	N	0.443849	0.798982	0.063171
	N263	N	0.512921	0.799900	0.890774
	N264	N	0.443674	0.891455	0.156200
	N265	N	0.512569	0.065143	0.156381
	N266	N	0.442569	0.065045	0.797306
	N267	N	0.513057	0.892654	0.798182
	N268	N	0.890357	0.159429	0.441909
	N269	N	0.066030	0.160625	0.510400
	N270	N	0.064827	0.797088	0.443407
	N271	N	0.889042	0.797126	0.510141
	N272	N	0.155520	0.443265	0.891598
	N273	N	0.155409	0.512800	0.063593
	N274	N	0.797406	0.443422	0.064159
	N275	N	0.799060	0.511932	0.891196
	O276	O	-0.079672	0.940365	-0.263934
	H277	H	-0.074970	0.900892	-0.268577
	H278	H	-0.072178	0.959004	-0.266035
	O279	O	0.458683	0.649687	0.549531
	H280	H	0.452894	0.650631	0.538943
	H281	H	0.466064	0.644561	0.564030
	O282	O	0.943559	-0.245761	1.206105
	H283	H	0.911010	-0.253417	1.213695
	H284	H	0.923526	-0.263805	1.225643
	O285	O	0.290608	0.289598	0.287986
	H286	H	0.294850	0.288854	0.308618
	H287	H	0.263323	0.257757	0.266418
	O288	O	0.686583	0.685851	0.525477
	H289	H	0.669169	0.675492	0.504017
	H290	H	0.697256	0.703705	0.509978
	O291	O	0.681948	0.687871	0.692960
	H292	H	0.698410	0.698752	0.667677
	H293	H	0.709181	0.712003	0.693999
	O294	O	1.039194	0.052316	0.747618
	H295	H	1.062737	0.053939	0.737018
	H296	H	1.032045	0.061095	0.756616
	O297	O	0.948399	1.089108	-0.060608
	H298	H	0.945915	1.088684	-0.068220
	H299	H	0.938976	1.079055	-0.059266
	O300	O	-0.097464	-0.123310	1.042885
	H301	H	-0.102846	-0.121157	1.040088
	H302	H	-0.113798	-0.136862	1.065963
	O303	O	0.518248	0.524065	0.243203
	H304	H	0.526581	0.500209	0.246233
	H305	H	0.516250	0.502127	0.240823
	O306	O	0.505211	0.328883	0.540558
	H307	H	0.495182	0.335397	0.546235
	H308	H	0.509907	0.318662	0.526261
	O309	O	0.270336	0.271902	0.503420
	H310	H	0.272486	0.273905	0.502360
	H311	H	0.262115	0.265871	0.519736
	O312	O	0.359393	0.422857	0.558545
	H313	H	0.357809	0.428652	0.558661
	H314	H	0.360327	0.437303	0.564982
	O315	O	1.509537	1.696935	1.702386
	H316	H	1.530512	1.712419	1.713507
	H317	H	1.536876	1.705854	1.712176
	O318	O	0.266749	0.685810	0.263584
	H319	H	0.235433	0.719074	0.233671
	H320	H	0.296855	0.683717	0.271242
	O321	O	-0.014021	0.755431	0.753706
	H322	H	0.002959	0.722108	0.718427
	H323	H	0.024442	0.770698	0.774589
	O324	O	0.929499	1.207811	0.053445
	H325	H	0.916039	1.204058	0.038288
	H326	H	0.945393	1.210852	0.038065
	O327	O	-0.227627	-0.060249	1.184193
	H328	H	-0.239870	-0.051430	1.201302
	H329	H	-0.229985	-0.087615	1.178511
	O330	O	0.294985	0.660559	0.662340
	H331	H	0.309865	0.655552	0.638852
	H332	H	0.296131	0.652349	0.653356
	O333	O	0.660623	0.471125	0.387337
	H334	H	0.662632	0.474196	0.384722
	H335	H	0.655688	0.478670	0.397836
	O336	O	0.693399	0.257446	0.440664
	H337	H	0.703745	0.250683	0.425585
	H338	H	0.701923	0.255463	0.435304
	O339	O	1.168440	-0.210523	1.169353
	H340	H	1.168745	-0.196393	1.133343
	H341	H	1.130389	-0.187182	1.170849
	O342	O	0.666945	0.492020	-0.295984
	H343	H	0.681714	0.501514	-0.291630
	H344	H	0.676897	0.528616	-0.289600
	O345	O	-0.178849	0.989720	0.993043
	H346	H	-0.193320	0.991140	0.993058
	H347	H	-0.171727	1.008007	0.985210
	O348	O	0.690343	0.453653	0.251501
	H349	H	0.694334	0.427809	0.258894
	H350	H	0.711987	0.432302	0.239535
	O351	O	0.687941	1.269732	0.263053
	H352	H	0.653235	1.264605	0.276115
	H353	H	0.712146	1.249592	0.246142
	O354	O	0.118733	-0.177500	0.846314
	H355	H	0.132305	-0.164567	0.833988
	H356	H	0.130277	-0.183410	0.874114
	O357	O	1.193031	-0.025035	0.787425
	H358	H	1.191635	-0.014815	0.793224
	H359	H	1.210819	-0.025279	0.791557
	O360	O	0.982516	0.900350	0.879991
	H361	H	0.983302	0.894068	0.875874
	H362	H	1.004757	0.907017	0.867619
	O363	O	0.067619	-0.114002	0.065005
	H364	H	0.059795	-0.109213	0.070161
	H365	H	0.071546	-0.094429	0.070560
	O366	O	0.573931	0.520289	0.530450
	H367	H	0.567129	0.523176	0.517087
	H368	H	0.582597	0.526185	0.524792
	O369	O	0.259757	0.427375	0.405260
	H370	H	0.259788	0.420992	0.400616
	H371	H	0.258690	0.429618	0.388614
	O372	O	1.094448	0.972683	0.024055
	H373	H	1.086129	0.975008	0.020480
	H374	H	1.097323	0.985071	0.042125
	O375	O	1.184944	0.187773	0.192670
	H376	H	1.143087	0.191034	0.183686
	H377	H	1.188383	0.159009	0.169012
	O378	O	0.252918	0.569326	0.528475
	H379	H	0.246775	0.568074	0.518102
	H380	H	0.266148	0.570625	0.520605
	O381	O	-0.179634	0.930919	0.962050
	H382	H	-0.191142	0.925149	0.946465
	H383	H	-0.176100	0.922245	0.975285
	O384	O	0.919123	-0.251068	0.965399
	H385	H	0.928824	-0.242062	0.946654
	H386	H	0.931891	-0.242498	0.980792
	O387	O	1.508754	0.422077	0.712951
	H388	H	1.525781	0.443131	0.711874
	H389	H	1.501496	0.447316	0.709871
	O390	O	0.255401	0.515084	0.252914
	H391	H	0.250091	0.540688	0.252316
	H392	H	0.240696	0.521807	0.231243
	O393	O	0.444381	0.262776	0.693297
	H394	H	0.462528	0.285510	0.708963
	H395	H	0.457044	0.254224	0.704765
	O396	O	0.169959	1.175974	0.778351
	H397	H	0.174657	1.176181	0.775887
	H398	H	0.191587	1.191794	0.766451
	O399	O	-0.229522	-0.233705	1.192366
	H400	H	-0.259399	-0.254008	1.205979
	H401	H	-0.234962	-0.223568	1.154336
	O402	O	0.699965	0.420305	0.551273
	H403	H	0.703374	0.439547	0.561617
	H404	H	0.697597	0.413279	0.543357
	O405	O	1.013332	0.201636	1.203368
	H406	H	1.003115	0.203437	1.200973
	H407	H	1.009614	0.226875	1.211915
	O408	O	-0.227004	0.190313	-0.232285
	H409	H	-0.261837	0.220710	-0.264341
	H410	H	-0.211984	0.167398	-0.235105
	O411	O	1.032151	0.923621	1.207096
	H412	H	1.015950	0.925346	1.205116
	H413	H	1.011491	0.920389	1.210527
	O414	O	0.760060	0.019071	0.752016
	H415	H	0.759587	0.030765	0.741383
	H416	H	0.753914	0.015268	0.732117
	O417	O	0.419151	0.417174	0.260465
	H418	H	0.388538	0.410124	0.256146
	H419	H	0.416039	0.398015	0.260419
	O420	O	0.432394	0.536265	0.406052
	H421	H	0.415178	0.533734	0.397656
	H422	H	0.441790	0.529815	0.398295
	O423	O	0.186586	0.187002	1.030482
	H424	H	0.165024	0.180003	1.034371
	H425	H	0.197491	0.212563	1.018178
	O426	O	0.278615	0.270266	0.684438
	H427	H	0.309309	0.279989	0.677558
	H428	H	0.294456	0.294547	0.676473
	O429	O	1.018966	1.013844	1.033112
	H430	H	1.020660	1.014090	1.044031
	H431	H	1.018665	1.001616	1.014960
	O432	O	0.197727	0.818804	0.754977
	H433	H	0.232435	0.797239	0.723368
	H434	H	0.201634	0.852548	0.767847
	O435	O	0.769063	1.197308	0.951196
	H436	H	0.754906	1.214240	0.940589
	H437	H	0.763972	1.199109	0.921806
	O438	O	0.273937	-0.322194	0.423261
	H439	H	0.254963	-0.300445	0.419171
	H440	H	0.278526	-0.335658	0.402933
	O441	O	-0.331354	0.284704	-0.330162
	H442	H	-0.345542	0.308349	-0.349609
	H443	H	-0.356127	0.297030	-0.347241
	O444	O	0.254167	0.464800	0.672450
	H445	H	0.246314	0.468784	0.671175
	H446	H	0.243835	0.462519	0.677874
	O447	O	-0.337599	1.663288	0.286101
	H448	H	-0.356859	1.660926	0.305727
	H449	H	-0.349813	1.642911	0.285255
	O450	O	-0.541848	0.691605	1.447554
	H451	H	-0.551858	0.683774	1.439344
	H452	H	-0.551281	0.696512	1.447618
	O453	O	0.488272	0.320560	0.404773
	H454	H	0.474245	0.328403	0.402040
	H455	H	0.488128	0.318677	0.406563
	O456	O	0.791023	-0.214668	0.781831
	H457	H	0.813115	-0.196998	0.799557
	H458	H	0.813065	-0.203281	0.800630
	O459	O	0.763764	0.757914	0.015058
	H460	H	0.774730	0.746885	0.001499
	H461	H	0.761579	0.734742	0.001233
	O462	O	0.507505	0.260081	0.252079
	H463	H	0.507413	0.265401	0.270345
	H464	H	0.507557	0.232424	0.231041
	O465	O	1.072830	0.195635	-0.080056
	H466	H	1.069438	0.199695	-0.087876
	H467	H	1.056326	0.192330	-0.097958
	O468	O	0.499299	0.456009	0.523717
	H469	H	0.504346	0.470378	0.517683
	H470	H	0.504030	0.470536	0.521810
	O471	O	0.902764	1.024536	1.204258
	H472	H	0.916875	1.033501	1.191902
	H473	H	0.878038	1.030585	1.198487
	O474	O	0.472826	0.536503	0.677799
	H475	H	0.477926	0.556996	0.687691
	H476	H	0.454239	0.545940	0.675699
	O477	O	1.174183	0.775001	0.974607
	H478	H	1.182210	0.799699	0.980902
	H479	H	1.157452	0.764585	0.981919
	O480	O	0.455702	0.251483	0.464335
	H481	H	0.438620	0.250367	0.458145
	H482	H	0.447769	0.261088	0.481756
	O483	O	0.449238	0.700618	0.251852
	H484	H	0.457437	0.682042	0.238117
	H485	H	0.444341	0.715312	0.227526
	O486	O	0.791447	0.162221	1.164537
	H487	H	0.803438	0.151491	1.137330
	H488	H	0.801203	0.151934	1.158837
	O489	O	1.156103	1.028379	-0.035097
	H490	H	1.161351	1.048509	-0.032415
	H491	H	1.151692	1.038403	-0.027611
	O492	O	-0.113249	-0.025239	-0.105692
	H493	H	-0.103726	-0.011373	-0.106023
	H494	H	-0.114434	-0.013823	-0.117349
	O495	O	0.194867	1.009240	1.198918
	H496	H	0.202713	1.016452	1.214565
	H497	H	0.189537	1.007411	1.211608
	O498	O	0.945985	1.204237	0.750442
	H499	H	0.935313	1.217440	0.730016
	H500	H	0.940540	1.200915	0.738482
	O501	O	0.599136	0.665202	0.426248
	H502	H	0.589256	0.651443	0.417545
	H503	H	0.565371	0.662559	0.434915
