data_Molecule from HDF5

_cell_length_a		16.635770
_cell_length_b		16.650832
_cell_length_c		16.535648
_cell_angle_alpha	90.029366
_cell_angle_beta	89.907302
_cell_angle_gamma	89.935716
_symmetry_space_group_name_H-M	'P 1'
_symmetry_Int_Tables_number		1

loop_
	_symmetry_equiv_pos_as_xyz
	x,y,z

loop_
	_atom_site_label
	_atom_site_type_symbol
	_atom_site_fract_x
	_atom_site_fract_y
	_atom_site_fract_z
	H0	H	0.385595	0.869852	0.725311
	H1	H	0.591020	0.182813	0.726092
	H2	H	0.595477	0.871840	0.284569
	H3	H	0.384966	0.182858	0.286285
	H4	H	0.710621	0.420035	0.850356
	H5	H	0.708254	0.629249	0.163480
	H6	H	0.267454	0.631260	0.851225
	H7	H	0.268055	0.419869	0.163271
	H8	H	0.833558	0.748216	0.400753
	H9	H	0.142149	0.748626	0.612496
	H10	H	0.834147	0.304277	0.614117
	H11	H	0.142226	0.301344	0.397427
	H12	H	0.834460	0.421204	0.730175
	H13	H	0.142079	0.633334	0.729677
	H14	H	0.832559	0.630308	0.285521
	H15	H	0.143961	0.419058	0.283769
	H16	H	0.382451	0.747583	0.851615
	H17	H	0.594761	0.747126	0.162284
	H18	H	0.594473	0.304529	0.850229
	H19	H	0.383427	0.304515	0.163381
	H20	H	0.711948	0.872049	0.401071
	H21	H	0.709376	0.181922	0.611857
	H22	H	0.266487	0.871526	0.611495
	H23	H	0.266466	0.181766	0.400670
	H24	H	0.883048	0.369436	0.228235
	H25	H	0.093246	0.680095	0.227507
	H26	H	0.097809	0.371630	0.780887
	H27	H	0.883399	0.680877	0.785461
	H28	H	0.209859	0.921364	0.350386
	H29	H	0.212778	0.135901	0.661395
	H30	H	0.765772	0.132801	0.351486
	H31	H	0.768905	0.922251	0.663147
	H32	H	0.332647	0.248616	0.900085
	H33	H	0.644342	0.248814	0.112803
	H34	H	0.336439	0.801658	0.116224
	H35	H	0.642941	0.803635	0.900026
	H36	H	0.334916	0.920623	0.229256
	H37	H	0.644488	0.133583	0.229739
	H38	H	0.332202	0.131376	0.785070
	H39	H	0.643874	0.922374	0.785739
	H40	H	0.882819	0.248310	0.350836
	H41	H	0.096758	0.251500	0.661470
	H42	H	0.095262	0.803669	0.350949
	H43	H	0.882776	0.803999	0.661382
	H44	H	0.214057	0.370810	0.896785
	H45	H	0.213707	0.678205	0.114783
	H46	H	0.766361	0.370374	0.113637
	H47	H	0.764125	0.678447	0.898597
	H48	H	0.397616	0.139821	0.599049
	H49	H	0.574297	0.914731	0.598831
	H50	H	0.574595	0.138903	0.413335
	H51	H	0.396130	0.913379	0.414953
	H52	H	0.571610	0.437487	0.116660
	H53	H	0.575279	0.615546	0.894131
	H54	H	0.400518	0.610773	0.118452
	H55	H	0.403631	0.434206	0.894683
	H56	H	0.101018	0.617723	0.417837
	H57	H	0.875067	0.612733	0.600092
	H58	H	0.099065	0.438146	0.590771
	H59	H	0.875998	0.440662	0.412575
	H60	H	0.098096	0.440182	0.590952
	H61	H	0.874572	0.619876	0.594784
	H62	H	0.099014	0.613486	0.418081
	H63	H	0.875004	0.431674	0.417613
	H64	H	0.403579	0.614821	0.118585
	H65	H	0.580318	0.615187	0.892731
	H66	H	0.578681	0.431691	0.120394
	H67	H	0.397048	0.436003	0.892534
	H68	H	0.571855	0.134086	0.424077
	H69	H	0.579722	0.915082	0.590901
	H70	H	0.404848	0.135724	0.594399
	H71	H	0.402598	0.916461	0.416740
	H72	H	0.897754	0.636816	0.098449
	H73	H	0.075633	0.415643	0.091586
	H74	H	0.084158	0.636057	0.921714
	H75	H	0.904348	0.414351	0.913576
	H76	H	0.075929	0.940567	0.617173
	H77	H	0.078699	0.115957	0.394451
	H78	H	0.900805	0.115795	0.618945
	H79	H	0.900423	0.940023	0.394932
	H80	H	0.598606	0.113945	0.918873
	H81	H	0.378064	0.112449	0.100287
	H82	H	0.599111	0.939560	0.092575
	H83	H	0.378057	0.937385	0.920196
	H84	H	0.601964	0.938040	0.098536
	H85	H	0.376133	0.120397	0.094737
	H86	H	0.599691	0.114111	0.915410
	H87	H	0.376474	0.937593	0.916496
	H88	H	0.899414	0.116088	0.619008
	H89	H	0.076401	0.110264	0.397202
	H90	H	0.073632	0.935921	0.618711
	H91	H	0.902622	0.937383	0.394389
	H92	H	0.076343	0.637280	0.913567
	H93	H	0.081891	0.413022	0.093095
	H94	H	0.901600	0.635498	0.095378
	H95	H	0.903355	0.417976	0.923880
	H96	H	0.396405	0.136886	0.590096
	H97	H	0.583573	0.911836	0.599449
	H98	H	0.583108	0.138686	0.422369
	H99	H	0.397249	0.915872	0.421371
	H100	H	0.580456	0.441355	0.118502
	H101	H	0.577855	0.611078	0.895466
	H102	H	0.399384	0.614915	0.120329
	H103	H	0.401027	0.440772	0.896589
	H104	H	0.100377	0.614901	0.413363
	H105	H	0.878085	0.612435	0.591816
	H106	H	0.099037	0.439314	0.593156
	H107	H	0.880285	0.439551	0.422269
	H108	H	0.897567	0.636337	0.092843
	H109	H	0.076773	0.413263	0.098221
	H110	H	0.073775	0.632112	0.922844
	H111	H	0.895097	0.412653	0.919423
	H112	H	0.078751	0.936801	0.619466
	H113	H	0.072567	0.115447	0.396280
	H114	H	0.899169	0.115137	0.617789
	H115	H	0.899230	0.937421	0.393503
	H116	H	0.599188	0.117404	0.917332
	H117	H	0.381459	0.112494	0.091170
	H118	H	0.602038	0.933544	0.093380
	H119	H	0.376175	0.934645	0.918692
	C120	C	0.367209	0.034841	0.627265
	C121	C	0.610275	1.017380	0.628266
	C122	C	0.609816	0.034791	0.386585
	C123	C	0.366928	1.018074	0.385163
	C124	C	0.609455	0.404472	0.014978
	C125	C	0.609723	0.646131	0.997875
	C126	C	0.368261	0.646161	0.015903
	C127	C	0.368043	0.404334	0.998175
	C128	C	-0.002954	0.647386	0.384520
	C129	C	0.978861	0.647575	0.628042
	C130	C	-0.002953	0.405911	0.626615
	C131	C	0.979705	0.404492	0.384522
	C132	C	0.866834	0.533431	0.128067
	C133	C	0.110283	0.516645	0.127297
	C134	C	0.111759	0.533604	0.884474
	C135	C	0.867788	0.516975	0.885751
	C136	C	0.109308	0.905027	0.515070
	C137	C	0.109955	0.148159	0.498313
	C138	C	0.866585	0.148355	0.515578
	C139	C	0.867824	0.905718	0.497571
	C140	C	0.496402	0.147658	0.884615
	C141	C	0.481312	0.147594	0.127951
	C142	C	0.498640	0.904455	0.128586
	C143	C	0.479337	0.904271	0.885266
	C144	C	0.366309	0.916914	0.686025
	C145	C	0.610452	0.135523	0.686847
	C146	C	0.613182	0.918302	0.325276
	C147	C	0.365778	0.135726	0.325726
	C148	C	0.670222	0.401853	0.897318
	C149	C	0.668818	0.647858	0.115952
	C150	C	0.307721	0.648931	0.898349
	C151	C	0.308187	0.402157	0.116252
	C152	C	0.879954	0.707599	0.382365
	C153	C	0.095670	0.708190	0.630640
	C154	C	0.880681	0.344823	0.631459
	C155	C	0.096027	0.342516	0.380412
	C156	C	0.880822	0.402751	0.689169
	C157	C	0.095892	0.650744	0.688698
	C158	C	0.879707	0.649294	0.324920
	C159	C	0.096846	0.401167	0.323720
	C160	C	0.364998	0.706889	0.898372
	C161	C	0.612261	0.706448	0.115481
	C162	C	0.612464	0.344446	0.897226
	C163	C	0.365345	0.344421	0.116065
	C164	C	0.671105	0.918317	0.383039
	C165	C	0.669424	0.135042	0.630269
	C166	C	0.307121	0.917727	0.629546
	C167	C	0.306804	0.135215	0.382569
	C168	C	0.864684	0.416550	0.188496
	C169	C	0.112510	0.633386	0.187951
	C170	C	0.115173	0.417798	0.822154
	C171	C	0.864933	0.633944	0.825384
	C172	C	0.169984	0.902872	0.397609
	C173	C	0.171775	0.152912	0.614815
	C174	C	0.806084	0.151056	0.398109
	C175	C	0.808108	0.903482	0.615780
	C176	C	0.379531	0.208205	0.882182
	C177	C	0.597820	0.208475	0.131017
	C178	C	0.382494	0.843050	0.133199
	C179	C	0.596485	0.844184	0.882234
	C180	C	0.381795	0.902167	0.189578
	C181	C	0.597780	0.151109	0.189063
	C182	C	0.379019	0.149801	0.824876
	C183	C	0.596880	0.903173	0.825535
	C184	C	0.864252	0.208310	0.397856
	C185	C	0.114377	0.210776	0.614609
	C186	C	0.113044	0.844350	0.397769
	C187	C	0.864866	0.844994	0.615245
	C188	C	0.173372	0.417548	0.879685
	C189	C	0.171916	0.632593	0.131609
	C190	C	0.806594	0.416816	0.131193
	C191	C	0.805522	0.632766	0.881578
	C192	C	0.392363	0.116319	0.601876
	C193	C	0.586141	0.935167	0.603369
	C194	C	0.583897	0.116066	0.412530
	C195	C	0.391620	0.936523	0.410443
	C196	C	0.584142	0.429695	0.097174
	C197	C	0.584726	0.621215	0.915544
	C198	C	0.393893	0.621040	0.097832
	C199	C	0.393479	0.429616	0.916096
	C200	C	0.078791	0.622515	0.409509
	C201	C	0.897376	0.622122	0.602867
	C202	C	0.077689	0.431852	0.599361
	C203	C	0.898322	0.429902	0.410339
	C204	C	0.891696	0.615027	0.102513
	C205	C	0.085186	0.435044	0.101805
	C206	C	0.085448	0.614274	0.911633
	C207	C	0.893704	0.435990	0.911693
	C208	C	0.083269	0.930511	0.597259
	C209	C	0.083439	0.121525	0.417080
	C210	C	0.892539	0.122973	0.597354
	C211	C	0.893518	0.931009	0.415790
	C212	C	0.577966	0.122320	0.909908
	C213	C	0.399729	0.122386	0.102454
	C214	C	0.579915	0.929936	0.102292
	C215	C	0.397876	0.929398	0.910938
	Zn216	Zn	0.487688	0.025953	0.756409
	Zn217	Zn	0.489602	0.026859	0.256648
	Zn218	Zn	0.738129	0.524999	0.006412
	Zn219	Zn	0.239816	0.524689	0.006726
	Zn220	Zn	-0.011974	0.776026	0.506448
	Zn221	Zn	-0.011511	0.276326	0.506517
	Zn222	Zn	-0.011060	0.526071	0.756482
	Zn223	Zn	-0.011542	0.525046	0.255900
	Zn224	Zn	0.488878	0.775377	0.006997
	Zn225	Zn	0.488672	0.275888	0.006667
	Zn226	Zn	0.739295	0.026598	0.506716
	Zn227	Zn	0.237838	0.026420	0.506839
	N228	N	0.402754	0.990715	0.684832
	N229	N	0.574687	0.061160	0.686158
	N230	N	0.575820	0.991833	0.327353
	N231	N	0.402383	0.061716	0.326931
	N232	N	0.668440	0.438567	0.971584
	N233	N	0.667580	0.611168	0.041578
	N234	N	0.309447	0.611982	0.972430
	N235	N	0.309566	0.438616	0.041837
	N236	N	0.953995	0.706591	0.418624
	N237	N	0.021864	0.706452	0.593840
	N238	N	0.954002	0.346516	0.593438
	N239	N	0.022302	0.344366	0.417602
	N240	N	0.954181	0.439986	0.686412
	N241	N	0.022201	0.613827	0.687386
	N242	N	0.953574	0.612550	0.325935
	N243	N	0.023421	0.438907	0.326041
	N244	N	0.401877	0.705705	0.972602
	N245	N	0.576227	0.705573	0.040754
	N246	N	0.575610	0.345706	0.971586
	N247	N	0.401865	0.345602	0.041574
	N248	N	0.669190	0.991868	0.420370
	N249	N	0.669798	0.060392	0.594832
	N250	N	0.307337	0.992091	0.593944
	N251	N	0.307066	0.060912	0.418479
	N252	N	0.901540	0.490190	0.186712
	N253	N	0.074961	0.560137	0.185387
	N254	N	0.077722	0.491190	0.824849
	N255	N	0.902997	0.560890	0.827670
	N256	N	0.167697	0.940080	0.471655
	N257	N	0.169342	0.114895	0.541245
	N258	N	0.807431	0.114477	0.472513
	N259	N	0.809927	0.940793	0.541803
	N260	N	0.453637	0.207037	0.918687
	N261	N	0.524245	0.206343	0.093544
	N262	N	0.456086	0.844356	0.095699
	N263	N	0.522301	0.844547	0.918753
	N264	N	0.455094	0.939665	0.186804
	N265	N	0.524173	0.114062	0.187458
	N266	N	0.452741	0.113014	0.826106
	N267	N	0.523049	0.939686	0.827306
	N268	N	0.900940	0.206915	0.472061
	N269	N	0.076408	0.207939	0.541136
	N270	N	0.076044	0.845453	0.472127
	N271	N	0.901478	0.846303	0.540765
	N272	N	0.171438	0.490843	0.917854
	N273	N	0.170641	0.558886	0.094603
	N274	N	0.807735	0.490656	0.094340
	N275	N	0.807395	0.559051	0.918664
	O276	O	-0.078269	1.236475	0.189843
	H277	H	-0.059920	1.228403	0.187571
	H278	H	-0.057568	1.238917	0.192928
	O279	O	0.082587	0.193861	-0.057684
	H280	H	0.087618	0.183744	-0.038767
	H281	H	0.087958	0.191337	-0.053781
	O282	O	1.202581	0.247857	1.041364
	H283	H	1.215287	0.237649	1.024920
	H284	H	1.219416	0.255212	1.036707
	O285	O	0.124836	-0.043724	0.902891
	H286	H	0.124684	-0.045809	0.902902
	H287	H	0.127209	-0.054816	0.907098
	O288	O	0.261913	0.467236	0.467388
	H289	H	0.257889	0.471506	0.457926
	H290	H	0.277233	0.479978	0.463232
	O291	O	-0.117729	0.135030	0.068367
	H292	H	-0.105838	0.127934	0.061272
	H293	H	-0.109068	0.119226	0.055458
	O294	O	0.846738	-0.204112	1.027251
	H295	H	0.847953	-0.188650	1.052813
	H296	H	0.824632	-0.230695	1.030064
	O297	O	0.470187	0.617716	0.545632
	H298	H	0.461257	0.628354	0.546223
	H299	H	0.478143	0.616169	0.562518
	O300	O	-0.310187	-0.672885	0.305510
	H301	H	-0.284583	-0.702812	0.291305
	H302	H	-0.342761	-0.672122	0.310228
	O303	O	0.490833	0.476423	0.575492
	H304	H	0.480924	0.464337	0.584222
	H305	H	0.495622	0.483418	0.585132
	O306	O	0.524356	0.567993	0.441065
	H307	H	0.542689	0.586400	0.439983
	H308	H	0.532915	0.549525	0.451874
	O309	O	0.703510	0.445000	0.595560
	H310	H	0.686046	0.430402	0.598103
	H311	H	0.700777	0.436009	0.592901
	O312	O	0.266130	0.614782	0.555090
	H313	H	0.282840	0.607801	0.563559
	H314	H	0.267380	0.614422	0.545925
	O315	O	1.429164	0.305764	1.446422
	H316	H	1.433267	0.302773	1.467324
	H317	H	1.420712	0.301627	1.452538
	O318	O	0.271703	0.552062	0.297000
	H319	H	0.243841	0.549958	0.275849
	H320	H	0.292909	0.570054	0.305165
	O321	O	0.144927	1.093546	1.001310
	H322	H	0.152657	1.086002	0.997629
	H323	H	0.139463	1.081365	1.005183
	O324	O	0.980403	0.902187	-0.060941
	H325	H	0.994904	0.920191	-0.057410
	H326	H	0.976089	0.894818	-0.051397
	O327	O	0.210955	0.062377	1.230716
	H328	H	0.216367	0.082952	1.230695
	H329	H	0.231561	0.076276	1.254344
	O330	O	0.774910	0.817246	0.214703
	H331	H	0.754113	0.812763	0.238773
	H332	H	0.803079	0.817011	0.199659
	O333	O	0.551245	0.627879	0.320915
	H334	H	0.550129	0.608766	0.317870
	H335	H	0.563970	0.617074	0.326028
	O336	O	0.371784	0.386503	0.386406
	H337	H	0.380990	0.404689	0.389712
	H338	H	0.383161	0.382286	0.394329
	O339	O	0.766596	0.063287	0.789146
	H340	H	0.778559	0.060037	0.784211
	H341	H	0.748229	0.064743	0.765897
	O342	O	0.196295	-0.185861	-0.202739
	H343	H	0.198147	-0.170987	-0.171402
	H344	H	0.174376	-0.193913	-0.217928
	O345	O	0.011148	1.100754	0.838167
	H346	H	0.003611	1.091108	0.838578
	H347	H	0.011913	1.108264	0.824395
	O348	O	0.928874	-0.013346	0.783747
	H349	H	0.921694	-0.004848	0.783684
	H350	H	0.942863	-0.022957	0.791346
	O351	O	0.304356	0.709465	0.690936
	H352	H	0.292184	0.719084	0.698922
	H353	H	0.315619	0.699351	0.670813
	O354	O	-0.234570	-0.193867	0.783623
	H355	H	-0.221553	-0.200168	0.768149
	H356	H	-0.219381	-0.188366	0.796266
	O357	O	0.445075	0.571034	0.680838
	H358	H	0.445679	0.587127	0.684749
	H359	H	0.448655	0.584244	0.676748
	O360	O	0.538738	-0.260110	1.422383
	H361	H	0.521789	-0.261410	1.432122
	H362	H	0.538038	-0.265748	1.417807
	O363	O	-0.072437	0.085825	0.230810
	H364	H	-0.067859	0.067476	0.230276
	H365	H	-0.079537	0.079732	0.234949
	O366	O	0.572908	0.687287	0.591110
	H367	H	0.579049	0.661733	0.586999
	H368	H	0.566893	0.684815	0.566491
	O369	O	1.030509	-0.144129	0.106426
	H370	H	1.036799	-0.144880	0.098136
	H371	H	1.026337	-0.148266	0.119995
	O372	O	0.875713	0.830010	-0.121777
	H373	H	0.890646	0.838743	-0.090409
	H374	H	0.861351	0.837477	-0.125937
	O375	O	0.955888	-0.025661	0.048614
	H376	H	0.955423	-0.020301	0.049980
	H377	H	0.952504	-0.023759	0.037788
	O378	O	0.318127	0.748546	0.480722
	H379	H	0.300201	0.764776	0.477248
	H380	H	0.321107	0.740555	0.487538
	O381	O	0.537935	0.370149	0.582441
	H382	H	0.538318	0.378249	0.614223
	H383	H	0.552870	0.380069	0.578618
	O384	O	1.278584	-0.265288	1.298775
	H385	H	1.288899	-0.283270	1.321162
	H386	H	1.300494	-0.267752	1.315973
	O387	O	0.760794	1.072765	0.058432
	H388	H	0.763272	1.065353	0.049833
	H389	H	0.765146	1.085643	0.052794
	O390	O	0.698767	0.493947	0.294427
	H391	H	0.721700	0.478623	0.276654
	H392	H	0.703285	0.475810	0.302220
	O393	O	0.718292	0.548678	0.472048
	H394	H	0.723634	0.533834	0.476800
	H395	H	0.723070	0.540568	0.481244
	O396	O	0.178460	0.837619	1.182587
	H397	H	0.169242	0.838367	1.167155
	H398	H	0.199077	0.815245	1.207335
	O399	O	-0.166749	0.242790	0.969836
	H400	H	-0.173740	0.253831	0.963219
	H401	H	-0.168008	0.246009	0.953209
	O402	O	0.709316	0.306656	0.476479
	H403	H	0.709731	0.297548	0.476957
	H404	H	0.722704	0.289283	0.458219
	O405	O	1.521266	-0.689531	1.294787
	H406	H	1.515873	-0.709501	1.289350
	H407	H	1.519161	-0.688228	1.305400
	O408	O	-0.302662	-0.409526	-0.286947
	H409	H	-0.308222	-0.416943	-0.294788
	H410	H	-0.292814	-0.408969	-0.276876
	O411	O	0.323161	0.345948	0.694847
	H412	H	0.321004	0.356636	0.670073
	H413	H	0.311661	0.366917	0.701108
	O414	O	0.434554	0.457742	0.296776
	H415	H	0.415282	0.456229	0.293472
	H416	H	0.452626	0.444801	0.300966
	O417	O	0.208965	0.247325	0.233038
	H418	H	0.224273	0.265547	0.239696
	H419	H	0.192315	0.248074	0.206902
	O420	O	0.459570	0.717390	0.320747
	H421	H	0.469158	0.717940	0.305106
	H422	H	0.479859	0.708195	0.313961
	O423	O	0.016746	-0.188332	0.791019
	H424	H	0.009639	-0.198368	0.786189
	H425	H	0.013047	-0.199072	0.796994
	O426	O	0.267890	0.498522	0.720578
	H427	H	0.243621	0.501728	0.748781
	H428	H	0.283439	0.507492	0.712441
	O429	O	0.962199	0.932719	1.042683
	H430	H	0.963744	0.912034	1.042628
	H431	H	0.956178	0.939578	1.048538
	O432	O	0.562774	0.488303	0.706384
	H433	H	0.554693	0.493532	0.709202
	H434	H	0.546119	0.471488	0.712939
	O435	O	0.023215	0.995780	0.210135
	H436	H	0.021845	1.005121	0.207637
	H437	H	0.044041	0.988909	0.213817
	O438	O	0.208264	-0.193876	-0.017461
	H439	H	0.213465	-0.200102	-0.017872
	H440	H	0.207870	-0.206476	-0.017405
	O441	O	0.152694	-0.836384	-0.086315
	H442	H	0.155600	-0.863735	-0.072731
	H443	H	0.139646	-0.839953	-0.080404
	O444	O	0.689453	0.730567	-0.471068
	H445	H	0.686145	0.730888	-0.477696
	H446	H	0.681379	0.734051	-0.482782
	O447	O	0.521660	0.740832	0.726346
	H448	H	0.540223	0.767113	0.747094
	H449	H	0.558240	0.736079	0.720845
	O450	O	0.211318	0.992926	0.783743
	H451	H	0.209377	0.991575	0.772224
	H452	H	0.218986	0.969193	0.771062
	O453	O	0.485691	0.540160	0.550615
	H454	H	0.488890	0.550057	0.554571
	H455	H	0.492589	0.532930	0.558965
	O456	O	0.278168	0.307685	0.524260
	H457	H	0.252407	0.292724	0.538527
	H458	H	0.271388	0.325769	0.520771
	O459	O	0.776986	0.998718	0.222572
	H460	H	0.767773	0.994525	0.216318
	H461	H	0.762081	0.991281	0.228090
	O462	O	0.703603	0.311969	-0.267497
	H463	H	0.702323	0.310933	-0.263681
	H464	H	0.703655	0.316886	-0.249693
	O465	O	0.814898	0.232188	-0.143237
	H466	H	0.839474	0.233067	-0.128773
	H467	H	0.824591	0.205386	-0.145948
	O468	O	0.648298	0.687557	0.318893
	H469	H	0.643662	0.678548	0.331417
	H470	H	0.651018	0.680353	0.325721
	O471	O	0.950271	0.245234	0.797034
	H472	H	0.965674	0.243285	0.818980
	H473	H	0.950027	0.271799	0.775080
	O474	O	-0.147832	1.037888	-0.007156
	H475	H	-0.138842	1.037496	0.001310
	H476	H	-0.148038	1.040631	-0.015431
	O477	O	0.852010	1.034523	1.947986
	H478	H	0.845065	1.041830	1.952785
	H479	H	0.849552	1.041959	1.949224
	O480	O	0.966061	0.815356	0.215031
	H481	H	0.956143	0.821945	0.228347
	H482	H	0.968425	0.801897	0.220629
	O483	O	0.436580	0.305265	0.723108
	H484	H	0.406890	0.312464	0.721022
	H485	H	0.425038	0.274947	0.752640
	O486	O	1.191364	0.023196	1.122008
	H487	H	1.197755	0.025270	1.140099
	H488	H	1.186983	0.001602	1.127085
	O489	O	0.992849	1.243510	0.136645
	H490	H	0.982321	1.231267	0.145212
	H491	H	0.991590	1.251369	0.147294
