data_Molecule from HDF5

_cell_length_a		16.625816
_cell_length_b		16.445351
_cell_length_c		16.587180
_cell_angle_alpha	89.967281
_cell_angle_beta	89.861927
_cell_angle_gamma	89.862090
_symmetry_space_group_name_H-M	'P 1'
_symmetry_Int_Tables_number		1

loop_
	_symmetry_equiv_pos_as_xyz
	x,y,z

loop_
	_atom_site_label
	_atom_site_type_symbol
	_atom_site_fract_x
	_atom_site_fract_y
	_atom_site_fract_z
	H0	H	0.391985	0.848164	0.725274
	H1	H	0.598714	0.165394	0.723068
	H2	H	0.605457	0.851719	0.279201
	H3	H	0.391790	0.163968	0.284386
	H4	H	0.720033	0.399830	0.848385
	H5	H	0.720131	0.614829	0.158585
	H6	H	0.271795	0.616856	0.848007
	H7	H	0.276937	0.405700	0.161422
	H8	H	0.838261	0.727689	0.400421
	H9	H	0.152298	0.728568	0.608022
	H10	H	0.840765	0.285525	0.607735
	H11	H	0.153504	0.287269	0.401540
	H12	H	0.841983	0.399327	0.726903
	H13	H	0.152629	0.612339	0.724646
	H14	H	0.838243	0.612092	0.282986
	H15	H	0.153225	0.403626	0.283492
	H16	H	0.391789	0.729323	0.846595
	H17	H	0.599522	0.727107	0.160852
	H18	H	0.600266	0.286537	0.846862
	H19	H	0.393813	0.289500	0.161852
	H20	H	0.720955	0.851049	0.394585
	H21	H	0.717108	0.164164	0.608759
	H22	H	0.275069	0.848007	0.611436
	H23	H	0.276651	0.163827	0.401312
	H24	H	0.894745	0.346723	0.220229
	H25	H	0.095929	0.666694	0.221181
	H26	H	0.099336	0.348002	0.785696
	H27	H	0.890161	0.663771	0.779841
	H28	H	0.216420	0.902969	0.347057
	H29	H	0.217258	0.112788	0.660320
	H30	H	0.775612	0.110463	0.347293
	H31	H	0.772994	0.899970	0.659391
	H32	H	0.338544	0.226282	0.902887
	H33	H	0.653618	0.226558	0.106112
	H34	H	0.340534	0.787521	0.107287
	H35	H	0.653135	0.785510	0.899294
	H36	H	0.341131	0.904086	0.224375
	H37	H	0.652729	0.111276	0.224660
	H38	H	0.339438	0.112396	0.783475
	H39	H	0.651653	0.899199	0.779638
	H40	H	0.896270	0.223025	0.344775
	H41	H	0.099122	0.226646	0.660089
	H42	H	0.096405	0.789473	0.345519
	H43	H	0.889646	0.783497	0.659612
	H44	H	0.215861	0.348878	0.901622
	H45	H	0.212114	0.667013	0.105314
	H46	H	0.779501	0.346933	0.103492
	H47	H	0.774163	0.664218	0.895547
	H48	H	0.409697	0.118216	0.594934
	H49	H	0.580917	0.896180	0.591061
	H50	H	0.582759	0.119582	0.412645
	H51	H	0.408855	0.894512	0.418921
	H52	H	0.593925	0.415975	0.119004
	H53	H	0.580171	0.594403	0.893873
	H54	H	0.405017	0.601986	0.116908
	H55	H	0.401636	0.416869	0.889689
	H56	H	0.106887	0.597669	0.412642
	H57	H	0.885108	0.593283	0.594288
	H58	H	0.108086	0.414230	0.589020
	H59	H	0.884692	0.420228	0.412049
	H60	H	0.107379	0.421596	0.594469
	H61	H	0.885707	0.596191	0.590404
	H62	H	0.106718	0.594827	0.411784
	H63	H	0.880623	0.413127	0.406189
	H64	H	0.399797	0.596351	0.116667
	H65	H	0.586821	0.597417	0.890223
	H66	H	0.586890	0.425227	0.111807
	H67	H	0.405706	0.422869	0.893382
	H68	H	0.583075	0.118046	0.419220
	H69	H	0.586277	0.895552	0.588227
	H70	H	0.404887	0.117533	0.589277
	H71	H	0.403744	0.891761	0.414264
	H72	H	0.907733	0.621100	0.097710
	H73	H	0.084725	0.392767	0.099585
	H74	H	0.082467	0.619449	0.914696
	H75	H	0.903639	0.393736	0.915609
	H76	H	0.078728	0.912102	0.615476
	H77	H	0.085014	0.090704	0.393804
	H78	H	0.905459	0.096542	0.616405
	H79	H	0.907574	0.922175	0.393309
	H80	H	0.607186	0.094845	0.916502
	H81	H	0.386745	0.088993	0.096288
	H82	H	0.608693	0.911730	0.088599
	H83	H	0.381801	0.915767	0.908643
	H84	H	0.605896	0.925047	0.089378
	H85	H	0.379762	0.102573	0.102383
	H86	H	0.607930	0.093757	0.909941
	H87	H	0.386456	0.914939	0.921900
	H88	H	0.905014	0.094506	0.615952
	H89	H	0.085567	0.101498	0.389786
	H90	H	0.093241	0.913606	0.619869
	H91	H	0.909664	0.916770	0.392036
	H92	H	0.084503	0.619819	0.915180
	H93	H	0.084770	0.394956	0.090551
	H94	H	0.909593	0.617561	0.090221
	H95	H	0.912005	0.394971	0.911530
	H96	H	0.402736	0.121132	0.595970
	H97	H	0.585492	0.893365	0.593925
	H98	H	0.588285	0.120094	0.415753
	H99	H	0.410370	0.892466	0.411713
	H100	H	0.580930	0.413644	0.116060
	H101	H	0.587082	0.589875	0.893966
	H102	H	0.406858	0.595251	0.113626
	H103	H	0.409123	0.416174	0.892176
	H104	H	0.108354	0.596684	0.410160
	H105	H	0.887078	0.591629	0.590241
	H106	H	0.111013	0.413897	0.597476
	H107	H	0.883768	0.410960	0.415271
	H108	H	0.901589	0.621160	0.091651
	H109	H	0.092650	0.391481	0.094519
	H110	H	0.083842	0.620911	0.913663
	H111	H	0.910407	0.397122	0.919965
	H112	H	0.086418	0.925369	0.613940
	H113	H	0.094617	0.094608	0.389443
	H114	H	0.906981	0.095341	0.615507
	H115	H	0.904403	0.918069	0.391192
	H116	H	0.608718	0.099726	0.912090
	H117	H	0.385288	0.102129	0.086831
	H118	H	0.611889	0.918425	0.099918
	H119	H	0.388266	0.926475	0.915024
	C120	C	0.374366	0.014532	0.626103
	C121	C	0.616509	0.998896	0.623881
	C122	C	0.617845	0.015651	0.382566
	C123	C	0.376060	0.997422	0.383673
	C124	C	0.618692	0.385679	0.012205
	C125	C	0.617407	0.627456	0.995560
	C126	C	0.372661	0.630576	0.012088
	C127	C	0.374683	0.387182	0.995667
	C128	C	0.003379	0.628005	0.381359
	C129	C	0.988769	0.627065	0.623827
	C130	C	0.005773	0.384061	0.625570
	C131	C	0.987369	0.384313	0.380811
	C132	C	0.875040	0.514716	0.123972
	C133	C	0.116773	0.498936	0.124879
	C134	C	0.116351	0.515356	0.883287
	C135	C	0.875766	0.498817	0.882085
	C136	C	0.117098	0.885567	0.512252
	C137	C	0.118333	0.127262	0.494944
	C138	C	0.875079	0.127124	0.512038
	C139	C	0.874665	0.885722	0.495645
	C140	C	0.504333	0.128581	0.882316
	C141	C	0.487768	0.129222	0.125990
	C142	C	0.505481	0.886334	0.124928
	C143	C	0.488199	0.885717	0.882218
	C144	C	0.372898	0.895895	0.686211
	C145	C	0.617936	0.117755	0.683384
	C146	C	0.622534	0.898381	0.320092
	C147	C	0.373722	0.116421	0.324358
	C148	C	0.679129	0.382297	0.894626
	C149	C	0.678917	0.631918	0.112302
	C150	C	0.312344	0.634465	0.894853
	C151	C	0.316352	0.386479	0.114181
	C152	C	0.885329	0.687792	0.381195
	C153	C	0.105510	0.688173	0.626269
	C154	C	0.887941	0.324688	0.626815
	C155	C	0.106337	0.326580	0.381297
	C156	C	0.888609	0.381175	0.686076
	C157	C	0.105803	0.630224	0.684315
	C158	C	0.885258	0.630014	0.322928
	C159	C	0.105859	0.384150	0.322653
	C160	C	0.371979	0.690466	0.894151
	C161	C	0.618975	0.687778	0.113434
	C162	C	0.619900	0.325795	0.894204
	C163	C	0.374646	0.328817	0.114376
	C164	C	0.679926	0.898056	0.377643
	C165	C	0.676551	0.117430	0.626520
	C166	C	0.315125	0.895595	0.628867
	C167	C	0.316298	0.116335	0.382396
	C168	C	0.875568	0.394640	0.181142
	C169	C	0.115455	0.618817	0.182410
	C170	C	0.118104	0.395800	0.825023
	C171	C	0.872172	0.616663	0.820308
	C172	C	0.176331	0.884172	0.393981
	C173	C	0.177241	0.130248	0.612964
	C174	C	0.816404	0.128594	0.393714
	C175	C	0.813392	0.881976	0.612763
	C176	C	0.385887	0.187464	0.882850
	C177	C	0.606312	0.187407	0.125856
	C178	C	0.387437	0.827239	0.126199
	C179	C	0.605942	0.825369	0.880158
	C180	C	0.387752	0.884820	0.184549
	C181	C	0.605981	0.130166	0.184706
	C182	C	0.386415	0.130649	0.823595
	C183	C	0.605242	0.882141	0.821071
	C184	C	0.876043	0.184561	0.392705
	C185	C	0.118323	0.186960	0.613165
	C186	C	0.116939	0.827794	0.393149
	C187	C	0.871747	0.824386	0.612899
	C188	C	0.175950	0.396220	0.882481
	C189	C	0.173540	0.618942	0.125041
	C190	C	0.817993	0.394773	0.123463
	C191	C	0.814862	0.617029	0.878315
	C192	C	0.398893	0.097353	0.600739
	C193	C	0.591284	0.916434	0.598484
	C194	C	0.592038	0.097815	0.408635
	C195	C	0.400929	0.914330	0.408110
	C196	C	0.594056	0.410987	0.094424
	C197	C	0.591928	0.601364	0.914016
	C198	C	0.396965	0.605070	0.094315
	C199	C	0.398639	0.411688	0.913300
	C200	C	0.085706	0.603364	0.404797
	C201	C	0.907099	0.600983	0.598757
	C202	C	0.087624	0.409284	0.600662
	C203	C	0.904623	0.407931	0.404361
	C204	C	0.899243	0.598332	0.099989
	C205	C	0.093987	0.414975	0.101589
	C206	C	0.091001	0.598393	0.907693
	C207	C	0.901595	0.416658	0.908126
	C208	C	0.092964	0.909921	0.594891
	C209	C	0.095105	0.102563	0.412374
	C210	C	0.898938	0.102496	0.594470
	C211	C	0.900056	0.911647	0.413502
	C212	C	0.586440	0.103511	0.906043
	C213	C	0.405517	0.104815	0.102127
	C214	C	0.587470	0.911231	0.099862
	C215	C	0.406694	0.911787	0.907720
	Zn216	Zn	0.496383	0.007186	0.753371
	Zn217	Zn	0.496868	0.007068	0.254708
	Zn218	Zn	0.746981	0.507040	0.002792
	Zn219	Zn	0.245207	0.508231	0.003256
	Zn220	Zn	-0.004107	0.756700	0.503331
	Zn221	Zn	-0.003553	0.256166	0.503180
	Zn222	Zn	-0.003105	0.506441	0.753625
	Zn223	Zn	-0.004803	0.506527	0.252607
	Zn224	Zn	0.496723	0.757011	0.003606
	Zn225	Zn	0.496806	0.258031	0.003923
	Zn226	Zn	0.745525	0.006611	0.503574
	Zn227	Zn	0.246899	0.005533	0.504687
	N228	N	0.408813	0.971022	0.684875
	N229	N	0.581503	0.042988	0.682005
	N230	N	0.584289	0.972361	0.323214
	N231	N	0.410271	0.041517	0.325010
	N232	N	0.678612	0.418545	0.969213
	N233	N	0.678059	0.595216	0.037959
	N234	N	0.312719	0.597942	0.969356
	N235	N	0.315872	0.421842	0.039203
	N236	N	0.959805	0.686916	0.416700
	N237	N	0.031790	0.686185	0.589340
	N238	N	0.961926	0.326310	0.589851
	N239	N	0.031613	0.326536	0.416707
	N240	N	0.962756	0.417399	0.685531
	N241	N	0.031910	0.593045	0.683032
	N242	N	0.959692	0.593639	0.322841
	N243	N	0.030763	0.419039	0.322183
	N244	N	0.408735	0.688252	0.968249
	N245	N	0.581600	0.685428	0.039691
	N246	N	0.583137	0.327692	0.968388
	N247	N	0.410123	0.329003	0.039605
	N248	N	0.676986	0.971956	0.416006
	N249	N	0.675786	0.042362	0.590366
	N250	N	0.315665	0.970619	0.592409
	N251	N	0.317763	0.041333	0.418833
	N252	N	0.909785	0.470626	0.182086
	N253	N	0.081184	0.542867	0.182732
	N254	N	0.081997	0.470938	0.825286
	N255	N	0.909281	0.542075	0.822313
	N256	N	0.176799	0.918971	0.469204
	N257	N	0.177393	0.093892	0.538522
	N258	N	0.815352	0.094042	0.469007
	N259	N	0.815014	0.919293	0.538671
	N260	N	0.460245	0.186406	0.918679
	N261	N	0.531781	0.187242	0.090411
	N262	N	0.461782	0.827892	0.090101
	N263	N	0.532269	0.827453	0.917476
	N264	N	0.462260	0.920620	0.184007
	N265	N	0.531079	0.095150	0.185232
	N266	N	0.460954	0.094802	0.823134
	N267	N	0.530806	0.918644	0.821912
	N268	N	0.911650	0.184115	0.467333
	N269	N	0.082249	0.185371	0.538670
	N270	N	0.080883	0.828576	0.467710
	N271	N	0.909007	0.826540	0.539032
	N272	N	0.175082	0.471815	0.917896
	N273	N	0.174652	0.543213	0.090191
	N274	N	0.817421	0.470715	0.089009
	N275	N	0.816723	0.542587	0.915804
	O276	O	0.878193	1.138468	0.148161
	H277	H	0.888159	1.116369	0.150069
	H278	H	0.894176	1.133264	0.126810
	O279	O	-0.204721	0.200263	0.805574
	H280	H	-0.215875	0.228494	0.779821
	H281	H	-0.165890	0.206885	0.814016
	O282	O	0.709427	0.530078	0.712284
	H283	H	0.705552	0.538942	0.720567
	H284	H	0.718635	0.548751	0.704497
	O285	O	0.484689	0.521535	0.470701
	H286	H	0.475969	0.513474	0.472363
	H287	H	0.490007	0.504893	0.451567
	O288	O	1.521842	-0.414989	0.633578
	H289	H	1.511712	-0.413523	0.637848
	H290	H	1.523979	-0.410235	0.630035
	O291	O	0.694205	0.532221	0.436005
	H292	H	0.678836	0.529354	0.430155
	H293	H	0.695324	0.521640	0.426917
	O294	O	0.207212	0.195145	0.115754
	H295	H	0.221366	0.203078	0.139275
	H296	H	0.218575	0.185000	0.128058
	O297	O	1.164311	0.077077	0.173681
	H298	H	1.161618	0.063130	0.189752
	H299	H	1.155599	0.072984	0.167905
	O300	O	0.289140	0.300428	0.542850
	H301	H	0.306235	0.304101	0.520000
	H302	H	0.273985	0.296616	0.524585
	O303	O	-0.298511	-0.290555	-0.291857
	H304	H	-0.317668	-0.286783	-0.312067
	H305	H	-0.293593	-0.301982	-0.310266
	O306	O	1.099312	-0.087184	-0.048679
	H307	H	1.086691	-0.088177	-0.037254
	H308	H	1.111300	-0.100136	-0.039291
	O309	O	0.504297	0.432858	0.378649
	H310	H	0.491258	0.427801	0.381414
	H311	H	0.514565	0.430334	0.372373
	O312	O	0.315671	0.724586	0.494858
	H313	H	0.322801	0.719700	0.480501
	H314	H	0.302465	0.741640	0.485230
	O315	O	0.445012	0.528187	0.582096
	H316	H	0.437982	0.528003	0.585568
	H317	H	0.450110	0.535381	0.579704
	O318	O	0.930349	1.211276	-0.168810
	H319	H	0.944153	1.224390	-0.166436
	H320	H	0.953147	1.207687	-0.176249
	O321	O	-0.004036	1.198828	0.969720
	H322	H	-0.006803	1.181269	0.973517
	H323	H	0.003114	1.200373	0.961457
	O324	O	1.169987	-0.175349	0.813073
	H325	H	1.158322	-0.178878	0.834404
	H326	H	1.169626	-0.149319	0.806365
	O327	O	0.543586	0.540390	0.470779
	H328	H	0.546960	0.530364	0.486860
	H329	H	0.530182	0.540689	0.472005
	O330	O	1.200923	1.146493	0.026500
	H331	H	1.195566	1.141830	0.052045
	H332	H	1.209837	1.170267	0.027483
	O333	O	0.573444	0.711512	0.314160
	H334	H	0.568657	0.694524	0.316254
	H335	H	0.551902	0.714146	0.317756
	O336	O	-0.117812	0.922331	0.072850
	H337	H	-0.125170	0.933499	0.050466
	H338	H	-0.112418	0.927144	0.068730
	O339	O	0.286574	0.540704	0.596136
	H340	H	0.277505	0.544335	0.615550
	H341	H	0.290446	0.559101	0.601255
	O342	O	-0.137445	0.860157	0.026983
	H343	H	-0.158393	0.850645	0.043559
	H344	H	-0.149390	0.855667	0.001762
	O345	O	0.291217	0.659731	0.370097
	H346	H	0.289042	0.667091	0.376989
	H347	H	0.276548	0.679041	0.342526
	O348	O	0.272095	0.490428	0.692452
	H349	H	0.252711	0.476864	0.707306
	H350	H	0.268781	0.470998	0.697842
	O351	O	0.024594	-0.209749	0.786988
	H352	H	0.027480	-0.227853	0.763046
	H353	H	0.026456	-0.206011	0.790087
	O354	O	0.879641	-0.072280	0.851666
	H355	H	0.869893	-0.053734	0.847426
	H356	H	0.886341	-0.082664	0.842656
	O357	O	0.717619	0.474682	0.279413
	H358	H	0.730982	0.466327	0.269583
	H359	H	0.733048	0.448261	0.273726
	O360	O	0.281533	0.429132	0.412656
	H361	H	0.278683	0.452366	0.438387
	H362	H	0.283007	0.449357	0.394631
	O363	O	0.527889	0.286660	0.282546
	H364	H	0.536607	0.257963	0.251951
	H365	H	0.564739	0.297022	0.287663
	O366	O	0.877172	-0.201156	1.136176
	H367	H	0.860330	-0.198644	1.112652
	H368	H	0.861389	-0.227957	1.146404
	O369	O	0.033535	0.041983	0.781050
	H370	H	0.052512	0.020791	0.779354
	H371	H	0.020119	0.030265	0.779150
	O372	O	-0.024181	0.796573	0.976903
	H373	H	-0.026634	0.797828	0.963201
	H374	H	-0.038542	0.801354	0.987591
	O375	O	0.821982	-0.090133	0.182650
	H376	H	0.809767	-0.103816	0.159966
	H377	H	0.821163	-0.075224	0.190817
	O378	O	0.489046	0.300467	0.528315
	H379	H	0.477258	0.319687	0.546379
	H380	H	0.490117	0.295620	0.544621
	O381	O	0.541157	0.546473	0.459479
	H382	H	0.547089	0.534819	0.455358
	H383	H	0.527638	0.543741	0.464910
	O384	O	0.411381	0.558265	0.646212
	H385	H	0.405279	0.564345	0.650021
	H386	H	0.399639	0.566078	0.636141
	O387	O	-0.180843	0.976225	0.959462
	H388	H	-0.185766	0.985469	0.950355
	H389	H	-0.168830	0.985926	0.954984
	O390	O	-0.178212	1.215968	0.996866
	H391	H	-0.169883	1.212496	0.979515
	H392	H	-0.195084	1.236067	0.989855
	O393	O	1.033752	0.216363	0.197833
	H394	H	1.046475	0.212127	0.186319
	H395	H	1.041951	0.242515	0.218106
	O396	O	0.406477	0.682196	0.570133
	H397	H	0.412029	0.680756	0.563521
	H398	H	0.406323	0.679537	0.561825
	O399	O	0.508226	0.475666	0.710474
	H400	H	0.500808	0.478142	0.712433
	H401	H	0.503711	0.468455	0.715333
	O402	O	1.160073	0.025158	0.965399
	H403	H	1.155807	0.038758	0.982687
	H404	H	1.156277	0.020531	0.980265
	O405	O	0.709140	0.293611	0.461861
	H406	H	0.724954	0.287357	0.474452
	H407	H	0.700154	0.299151	0.492852
	O408	O	0.778514	1.028969	0.791602
	H409	H	0.769821	1.057259	0.780070
	H410	H	0.770046	1.053865	0.785341
	O411	O	1.025049	1.094691	-0.022895
	H412	H	1.030178	1.095161	-0.022156
	H413	H	1.013514	1.097005	-0.031352
	O414	O	0.092593	-0.198038	0.088678
	H415	H	0.095202	-0.221459	0.106018
	H416	H	0.074868	-0.201302	0.063958
	O417	O	0.288686	0.301547	0.712642
	H418	H	0.287240	0.294339	0.662278
	H419	H	0.260059	0.284526	0.735981
	O420	O	1.198538	-0.114768	1.121152
	H421	H	1.190218	-0.112739	1.106442
	H422	H	1.177893	-0.097179	1.115870
	O423	O	1.240438	0.761704	0.247259
	H424	H	1.227113	0.778256	0.230108
	H425	H	1.246865	0.775022	0.227453
	O426	O	0.701739	0.715354	0.534675
	H427	H	0.688096	0.722812	0.517523
	H428	H	0.707519	0.725354	0.521992
	O429	O	1.096707	0.939080	0.090642
	H430	H	1.086583	0.947149	0.099118
	H431	H	1.096870	0.938196	0.086982
	O432	O	0.765561	0.122982	1.106683
	H433	H	0.760760	0.139603	1.111648
	H434	H	0.762436	0.129284	1.101791
	O435	O	0.257023	0.263479	0.270067
	H436	H	0.255170	0.279546	0.288003
	H437	H	0.275582	0.262021	0.292378
	O438	O	0.275251	0.542703	0.285639
	H439	H	0.269799	0.559630	0.269002
	H440	H	0.266300	0.557343	0.275351
	O441	O	0.511224	0.713753	0.714878
	H442	H	0.511253	0.703405	0.714100
	H443	H	0.512030	0.730800	0.725988
	O444	O	0.670342	0.324188	0.306379
	H445	H	0.675701	0.312288	0.352244
	H446	H	0.684657	0.302892	0.286977
	O447	O	0.479839	0.446375	0.440638
	H448	H	0.487211	0.444917	0.439330
	H449	H	0.486259	0.438274	0.448944
	O450	O	1.035106	-0.044062	0.211195
	H451	H	1.018950	-0.073201	0.218302
	H452	H	1.014893	-0.029415	0.206939
	O453	O	0.692184	0.331744	0.679173
	H454	H	0.689547	0.353290	0.651288
	H455	H	0.670839	0.350770	0.683841
	O456	O	-0.054522	1.037023	1.165838
	H457	H	-0.072421	1.045331	1.174059
	H458	H	-0.051178	1.041038	1.148946
	O459	O	0.649588	0.424902	0.520247
	H460	H	0.623286	0.428854	0.521355
	H461	H	0.653751	0.454154	0.511346
	O462	O	0.521425	0.716357	0.341466
	H463	H	0.517072	0.714620	0.328210
	H464	H	0.524044	0.713933	0.343599
	O465	O	0.520169	0.515078	0.343050
	H466	H	0.508081	0.517101	0.338747
	H467	H	0.529224	0.500166	0.328117
	O468	O	-0.183042	0.860428	-0.010157
	H469	H	-0.186069	0.868489	-0.015910
	H470	H	-0.179728	0.861581	-0.032593
	O471	O	0.464023	0.294200	0.722335
	H472	H	0.431631	0.292116	0.731903
	H473	H	0.453108	0.285746	0.740961
	O474	O	1.182437	0.979497	-0.193045
	H475	H	1.199815	0.990990	-0.180504
	H476	H	1.201910	0.971601	-0.191767
	O477	O	0.184094	0.162247	0.810382
	H478	H	0.173566	0.138105	0.820825
	H479	H	0.172111	0.154243	0.824331
