data_Molecule from HDF5

_cell_length_a		16.375280
_cell_length_b		16.445847
_cell_length_c		16.221658
_cell_angle_alpha	89.828419
_cell_angle_beta	89.842984
_cell_angle_gamma	89.934625
_symmetry_space_group_name_H-M	'P 1'
_symmetry_Int_Tables_number		1

loop_
	_symmetry_equiv_pos_as_xyz
	x,y,z

loop_
	_atom_site_label
	_atom_site_type_symbol
	_atom_site_fract_x
	_atom_site_fract_y
	_atom_site_fract_z
	H0	H	0.404576	0.843608	0.732385
	H1	H	0.608622	0.164210	0.726088
	H2	H	0.608040	0.843403	0.291020
	H3	H	0.405346	0.165844	0.293925
	H4	H	0.724800	0.404244	0.847462
	H5	H	0.725274	0.607250	0.172071
	H6	H	0.289807	0.606279	0.847540
	H7	H	0.289877	0.401263	0.172503
	H8	H	0.847931	0.723229	0.407475
	H9	H	0.167393	0.721523	0.615385
	H10	H	0.847353	0.280788	0.617831
	H11	H	0.167028	0.280649	0.407107
	H12	H	0.845957	0.401428	0.729336
	H13	H	0.168988	0.601890	0.727317
	H14	H	0.844878	0.601994	0.295879
	H15	H	0.168550	0.399081	0.292734
	H16	H	0.403641	0.723228	0.848118
	H17	H	0.608737	0.721606	0.171759
	H18	H	0.611659	0.287576	0.848130
	H19	H	0.405199	0.286026	0.172041
	H20	H	0.726576	0.843455	0.405496
	H21	H	0.727998	0.161415	0.613677
	H22	H	0.288687	0.842255	0.615509
	H23	H	0.285154	0.162445	0.406808
	H24	H	0.905361	0.341653	0.228870
	H25	H	0.106675	0.663815	0.228841
	H26	H	0.108813	0.341466	0.794439
	H27	H	0.906845	0.662996	0.791503
	H28	H	0.225360	0.899049	0.349888
	H29	H	0.224407	0.102896	0.673064
	H30	H	0.791268	0.104366	0.347872
	H31	H	0.788341	0.898807	0.672988
	H32	H	0.347337	0.226425	0.905632
	H33	H	0.667843	0.223700	0.112990
	H34	H	0.347208	0.782938	0.116404
	H35	H	0.666189	0.782398	0.902786
	H36	H	0.344286	0.903591	0.227056
	H37	H	0.667975	0.105494	0.227146
	H38	H	0.345114	0.106686	0.793306
	H39	H	0.668476	0.904138	0.792560
	H40	H	0.903452	0.222276	0.350173
	H41	H	0.111417	0.219826	0.673014
	H42	H	0.111179	0.784191	0.349777
	H43	H	0.906362	0.785719	0.674075
	H44	H	0.227671	0.344030	0.907865
	H45	H	0.225317	0.664013	0.114265
	H46	H	0.786562	0.343892	0.114555
	H47	H	0.788747	0.664003	0.905843
	H48	H	0.414116	0.115881	0.596954
	H49	H	0.601442	0.888481	0.599469
	H50	H	0.603312	0.119129	0.416148
	H51	H	0.416963	0.889875	0.418254
	H52	H	0.593831	0.415621	0.124257
	H53	H	0.601900	0.598167	0.892326
	H54	H	0.415218	0.599030	0.126839
	H55	H	0.419305	0.414145	0.894872
	H56	H	0.120269	0.591849	0.421116
	H57	H	0.893356	0.593299	0.602785
	H58	H	0.117577	0.417623	0.596823
	H59	H	0.894111	0.410394	0.424051
	H60	H	0.125156	0.408867	0.611028
	H61	H	0.892239	0.595419	0.599971
	H62	H	0.122890	0.593222	0.418844
	H63	H	0.893467	0.412461	0.420839
	H64	H	0.412860	0.590019	0.124933
	H65	H	0.598323	0.588211	0.896098
	H66	H	0.596984	0.410283	0.126492
	H67	H	0.415727	0.412899	0.892585
	H68	H	0.595314	0.116641	0.416733
	H69	H	0.594582	0.888942	0.604977
	H70	H	0.412001	0.117813	0.601870
	H71	H	0.416668	0.890828	0.421383
	H72	H	0.907573	0.619477	0.102802
	H73	H	0.098318	0.388272	0.105277
	H74	H	0.093453	0.616195	0.916747
	H75	H	0.916414	0.390191	0.922710
	H76	H	0.098653	0.907081	0.628993
	H77	H	0.096422	0.085210	0.398453
	H78	H	0.913079	0.094671	0.628643
	H79	H	0.918724	0.912151	0.396553
	H80	H	0.621677	0.096305	0.917579
	H81	H	0.394544	0.093966	0.096857
	H82	H	0.619760	0.913025	0.100165
	H83	H	0.393003	0.912126	0.922138
	H84	H	0.620127	0.913218	0.099350
	H85	H	0.391710	0.095248	0.104275
	H86	H	0.622334	0.098787	0.917833
	H87	H	0.394154	0.914578	0.923506
	H88	H	0.914686	0.085159	0.624295
	H89	H	0.089807	0.091426	0.398231
	H90	H	0.100666	0.911760	0.627944
	H91	H	0.916998	0.908803	0.394520
	H92	H	0.097856	0.615383	0.924627
	H93	H	0.095205	0.391789	0.098526
	H94	H	0.921534	0.617137	0.108468
	H95	H	0.913593	0.389256	0.922431
	H96	H	0.417446	0.116216	0.601763
	H97	H	0.593977	0.891384	0.596779
	H98	H	0.599659	0.116785	0.424145
	H99	H	0.414220	0.889839	0.419582
	H100	H	0.599392	0.415690	0.125884
	H101	H	0.591082	0.597328	0.895658
	H102	H	0.421472	0.592556	0.123529
	H103	H	0.415906	0.415860	0.894676
	H104	H	0.121724	0.594473	0.421774
	H105	H	0.893674	0.592254	0.599701
	H106	H	0.122904	0.400595	0.595406
	H107	H	0.892590	0.408883	0.421155
	H108	H	0.918646	0.613890	0.094282
	H109	H	0.102525	0.389041	0.098736
	H110	H	0.102052	0.619104	0.917310
	H111	H	0.915412	0.389482	0.920332
	H112	H	0.095192	0.910721	0.626489
	H113	H	0.098360	0.094057	0.394990
	H114	H	0.921943	0.092538	0.625171
	H115	H	0.915034	0.912883	0.395026
	H116	H	0.621144	0.097203	0.920721
	H117	H	0.391283	0.100946	0.098843
	H118	H	0.620524	0.914045	0.099225
	H119	H	0.393315	0.915403	0.920746
	C120	C	0.384505	0.011073	0.632656
	C121	C	0.627996	0.994809	0.631071
	C122	C	0.629310	0.011821	0.387717
	C123	C	0.384650	0.995668	0.388741
	C124	C	0.627941	0.383713	0.018434
	C125	C	0.628441	0.625559	1.001420
	C126	C	0.385658	0.625286	0.018088
	C127	C	0.386618	0.383333	1.001538
	C128	C	0.015666	0.623896	0.390058
	C129	C	0.999287	0.623239	0.631760
	C130	C	0.015776	0.378462	0.633072
	C131	C	0.999191	0.379798	0.390283
	C132	C	0.885003	0.511155	0.133086
	C133	C	0.129226	0.495099	0.132557
	C134	C	0.129058	0.511317	0.889143
	C135	C	0.885321	0.495033	0.889490
	C136	C	0.128802	0.880114	0.520425
	C137	C	0.126883	0.121771	0.503399
	C138	C	0.885940	0.122705	0.519521
	C139	C	0.886105	0.880462	0.502586
	C140	C	0.515432	0.127541	0.887704
	C141	C	0.498493	0.126819	0.130886
	C142	C	0.514447	0.882495	0.131444
	C143	C	0.499222	0.883395	0.889851
	C144	C	0.384988	0.891196	0.692483
	C145	C	0.628194	0.115667	0.687956
	C146	C	0.628116	0.891277	0.329858
	C147	C	0.385127	0.116970	0.331820
	C148	C	0.685969	0.384545	0.896169
	C149	C	0.686284	0.626172	0.123363
	C150	C	0.327981	0.625922	0.896225
	C151	C	0.328908	0.382611	0.123821
	C152	C	0.895204	0.682833	0.389159
	C153	C	0.119626	0.681828	0.633504
	C154	C	0.895133	0.320343	0.635622
	C155	C	0.119493	0.320763	0.388635
	C156	C	0.894547	0.380263	0.691315
	C157	C	0.120514	0.622107	0.689199
	C158	C	0.893787	0.622575	0.333522
	C159	C	0.120108	0.379724	0.331751
	C160	C	0.385211	0.683676	0.896484
	C161	C	0.628602	0.683216	0.123257
	C162	C	0.629636	0.326413	0.896451
	C163	C	0.386071	0.325166	0.123612
	C164	C	0.687170	0.891357	0.386636
	C165	C	0.687527	0.114452	0.631797
	C166	C	0.327260	0.890477	0.634148
	C167	C	0.325386	0.115375	0.388037
	C168	C	0.885527	0.390341	0.190663
	C169	C	0.127330	0.615757	0.190199
	C170	C	0.128962	0.390069	0.832519
	C171	C	0.886781	0.615377	0.830574
	C172	C	0.186856	0.879988	0.398550
	C173	C	0.185241	0.122079	0.624966
	C174	C	0.828978	0.123655	0.397134
	C175	C	0.827815	0.879949	0.624556
	C176	C	0.395002	0.186159	0.887008
	C177	C	0.619743	0.184178	0.131491
	C178	C	0.394603	0.823363	0.133698
	C179	C	0.618899	0.823247	0.886049
	C180	C	0.393227	0.883223	0.189261
	C181	C	0.619633	0.125592	0.188617
	C182	C	0.394073	0.126643	0.830835
	C183	C	0.620121	0.883756	0.831106
	C184	C	0.884970	0.182237	0.398292
	C185	C	0.128904	0.180197	0.624739
	C186	C	0.129481	0.823139	0.398318
	C187	C	0.886315	0.823403	0.625151
	C188	C	0.187951	0.391307	0.889103
	C189	C	0.186552	0.615778	0.133247
	C190	C	0.826149	0.391403	0.133896
	C191	C	0.828094	0.615744	0.887640
	C192	C	0.407726	0.094923	0.607464
	C193	C	0.603611	0.911328	0.607402
	C194	C	0.606093	0.095742	0.411873
	C195	C	0.408869	0.911840	0.412923
	C196	C	0.603645	0.407115	0.103473
	C197	C	0.604299	0.601457	0.916710
	C198	C	0.409600	0.600976	0.103099
	C199	C	0.410211	0.407359	0.916474
	C200	C	0.099791	0.600170	0.413856
	C201	C	0.914837	0.600137	0.607686
	C202	C	0.099985	0.402024	0.608254
	C203	C	0.915242	0.403695	0.414826
	C204	C	0.908997	0.595105	0.108771
	C205	C	0.105564	0.411385	0.107956
	C206	C	0.104717	0.594989	0.912692
	C207	C	0.908552	0.411268	0.914516
	C208	C	0.105129	0.903248	0.605473
	C209	C	0.102002	0.097383	0.419131
	C210	C	0.909619	0.097938	0.604070
	C211	C	0.909913	0.904166	0.417449
	C212	C	0.599685	0.104162	0.911684
	C213	C	0.414274	0.103595	0.106671
	C214	C	0.598528	0.906399	0.106659
	C215	C	0.415225	0.907360	0.915048
	Zn216	Zn	0.506894	0.004409	0.760604
	Zn217	Zn	0.506143	0.004788	0.259698
	Zn218	Zn	0.755869	0.504105	0.010372
	Zn219	Zn	0.258496	0.504249	0.010393
	Zn220	Zn	0.007660	0.752814	0.511487
	Zn221	Zn	0.007134	0.250486	0.511843
	Zn222	Zn	0.007634	0.502095	0.760493
	Zn223	Zn	0.007363	0.502206	0.261628
	Zn224	Zn	0.506826	0.753293	0.010128
	Zn225	Zn	0.507606	0.255920	0.009453
	Zn226	Zn	0.758041	0.001904	0.510211
	Zn227	Zn	0.255365	0.002168	0.511094
	N228	N	0.419496	0.967340	0.691823
	N229	N	0.591744	0.040389	0.687614
	N230	N	0.593030	0.967329	0.330208
	N231	N	0.421314	0.041578	0.332115
	N232	N	0.685027	0.419488	0.973041
	N233	N	0.686241	0.591278	0.046454
	N234	N	0.328273	0.590413	0.972912
	N235	N	0.329207	0.418190	0.046968
	N236	N	0.972034	0.683893	0.423340
	N237	N	0.043270	0.682455	0.598362
	N238	N	0.971602	0.319161	0.600349
	N239	N	0.043278	0.320596	0.424211
	N240	N	0.970677	0.415435	0.690237
	N241	N	0.044736	0.586312	0.687946
	N242	N	0.969570	0.586572	0.334055
	N243	N	0.044293	0.415689	0.332527
	N244	N	0.420177	0.683620	0.973581
	N245	N	0.593449	0.683249	0.046429
	N246	N	0.594392	0.325666	0.973501
	N247	N	0.421212	0.325413	0.046516
	N248	N	0.688261	0.967298	0.421687
	N249	N	0.687735	0.038370	0.597032
	N250	N	0.326723	0.966168	0.597819
	N251	N	0.324853	0.038874	0.422603
	N252	N	0.921046	0.466013	0.190597
	N253	N	0.092644	0.539679	0.189995
	N254	N	0.092834	0.465527	0.832560
	N255	N	0.921596	0.539250	0.831472
	N256	N	0.186867	0.914381	0.475542
	N257	N	0.183952	0.086246	0.548527
	N258	N	0.829501	0.087058	0.473510
	N259	N	0.827426	0.914502	0.547244
	N260	N	0.471529	0.186968	0.921459
	N261	N	0.543282	0.185196	0.096380
	N262	N	0.471084	0.822721	0.098532
	N263	N	0.542720	0.822979	0.922100
	N264	N	0.468911	0.919388	0.188008
	N265	N	0.543480	0.090629	0.188307
	N266	N	0.470142	0.091066	0.831119
	N267	N	0.544695	0.920470	0.833395
	N268	N	0.919539	0.181798	0.475342
	N269	N	0.093500	0.180228	0.547999
	N270	N	0.093973	0.823034	0.475076
	N271	N	0.922003	0.823758	0.548361
	N272	N	0.188161	0.467621	0.923637
	N273	N	0.187872	0.539602	0.098163
	N274	N	0.825798	0.467535	0.098618
	N275	N	0.827127	0.540017	0.923631
	O276	O	0.090530	-0.004396	-0.008240
	H277	H	0.079685	0.003702	-0.001037
	H278	H	0.091369	-0.007363	-0.011794
	O279	O	0.439696	0.568634	0.349008
	H280	H	0.437588	0.593854	0.355394
	H281	H	0.452882	0.567975	0.348488
	O282	O	0.464649	-0.358964	0.455241
	H283	H	0.476173	-0.347031	0.449513
	H284	H	0.460265	-0.364572	0.458370
	O285	O	0.636311	0.449765	0.414661
	H286	H	0.643792	0.453558	0.419540
	H287	H	0.631753	0.444658	0.421080
	O288	O	1.168044	1.114871	1.005040
	H289	H	1.173112	1.115594	1.002460
	H290	H	1.162417	1.114006	1.006237
	O291	O	0.078410	1.155229	0.006838
	H292	H	0.082261	1.153173	0.005207
	H293	H	0.077249	1.157763	-0.002368
	O294	O	0.625641	0.386517	0.462798
	H295	H	0.625865	0.372715	0.459303
	H296	H	0.621730	0.374131	0.469282
	O297	O	0.526742	0.349316	0.690896
	H298	H	0.516564	0.346436	0.700272
	H299	H	0.530083	0.347676	0.680364
	O300	O	0.364231	0.363114	0.521180
	H301	H	0.392900	0.363933	0.515457
	H302	H	0.353475	0.381157	0.501203
	O303	O	0.490121	0.587106	0.392985
	H304	H	0.499928	0.594015	0.406458
	H305	H	0.487345	0.604218	0.400976
	O306	O	0.448653	0.602262	0.507680
	H307	H	0.446973	0.606501	0.509917
	H308	H	0.447247	0.603345	0.498055
	O309	O	0.541140	0.433573	0.557266
	H310	H	0.553285	0.429090	0.561177
	H311	H	0.533961	0.422689	0.561634
	O312	O	-0.091494	0.121137	0.084450
	H313	H	-0.091988	0.126742	0.080331
	H314	H	-0.090693	0.127497	0.067819
	O315	O	1.046223	0.097730	1.109046
	H316	H	1.055300	0.099875	1.112936
	H317	H	1.049379	0.101930	1.112083
	O318	O	0.094288	1.018427	1.078287
	H319	H	0.087223	1.022107	1.089616
	H320	H	0.089320	1.010884	1.087547
	O321	O	0.540743	0.540216	0.679107
	H322	H	0.535394	0.513434	0.678907
	H323	H	0.526981	0.524168	0.686479
	O324	O	-0.036847	1.017069	-0.114629
	H325	H	-0.025272	1.021741	-0.101123
	H326	H	-0.019377	1.026260	-0.114840
	O327	O	-0.128571	-0.175797	0.055574
	H328	H	-0.141601	-0.181663	0.055349
	H329	H	-0.123917	-0.179589	0.043649
	O330	O	-0.170993	-0.041155	1.010522
	H331	H	-0.174073	-0.029858	1.001556
	H332	H	-0.178890	-0.040774	0.999868
	O333	O	0.036140	-0.132751	0.974766
	H334	H	0.031663	-0.122458	0.977702
	H335	H	0.039855	-0.132754	0.964249
	O336	O	0.554861	0.627186	0.551152
	H337	H	0.554093	0.628769	0.579979
	H338	H	0.568338	0.645027	0.551090
	O339	O	0.914930	0.055898	0.077088
	H340	H	0.924745	0.058397	0.088041
	H341	H	0.911571	0.045101	0.082150
	O342	O	-0.533031	-0.462310	0.523535
	H343	H	-0.521175	-0.455572	0.528505
	H344	H	-0.540506	-0.465804	0.501213
	O345	O	0.420403	0.584997	0.531780
	H346	H	0.426156	0.580799	0.541094
	H347	H	0.425732	0.586329	0.535958
	O348	O	0.936677	0.955624	-0.003434
	H349	H	0.940905	0.964573	-0.002627
	H350	H	0.943120	0.960241	-0.008541
	O351	O	0.398672	0.529714	0.570104
	H352	H	0.398623	0.522868	0.573751
	H353	H	0.383055	0.534726	0.567018
	O354	O	1.060646	-0.062871	1.094473
	H355	H	1.069679	-0.059866	1.078661
	H356	H	1.061586	-0.063874	1.103485
	O357	O	0.632766	0.453468	0.510049
	H358	H	0.634340	0.459957	0.502537
	H359	H	0.628153	0.449054	0.490827
	O360	O	0.566920	0.658194	0.389924
	H361	H	0.575658	0.647478	0.396820
	H362	H	0.579194	0.665526	0.393339
	O363	O	0.042263	1.049025	1.153688
	H364	H	0.054802	1.047732	1.161384
	H365	H	0.030595	1.053200	1.155235
	O366	O	0.394903	0.638181	0.560558
	H367	H	0.399367	0.634814	0.568474
	H368	H	0.401078	0.623780	0.558754
	O369	O	0.092276	1.104623	-0.135453
	H370	H	0.095131	1.099853	-0.143947
	H371	H	0.081387	1.097568	-0.140315
	O372	O	0.456447	0.347767	0.504414
	H373	H	0.457387	0.350298	0.502025
	H374	H	0.447329	0.355227	0.487921
	O375	O	0.489003	0.526336	0.495931
	H376	H	0.486207	0.528280	0.493656
	H377	H	0.492326	0.530127	0.492124
	O378	O	1.570459	0.598084	-0.467944
	H379	H	1.564865	0.599476	-0.471671
	H380	H	1.566407	0.589466	-0.468953
	O381	O	0.889951	0.172515	-0.103567
	H382	H	0.893062	0.158794	-0.118242
	H383	H	0.887666	0.176198	-0.095255
	O384	O	0.956949	1.025482	0.085231
	H385	H	0.950432	1.014158	0.085084
	H386	H	0.946714	1.024267	0.103275
	O387	O	0.044844	-0.106454	0.070096
	H388	H	0.042180	-0.111432	0.074454
	H389	H	0.036365	-0.095724	0.061574
	O390	O	0.029531	0.865255	-0.103922
	H391	H	0.026104	0.868091	-0.102115
	H392	H	0.024927	0.858152	-0.088375
	O393	O	0.850509	0.966066	1.169878
	H394	H	0.847104	0.959653	1.173068
	H395	H	0.843381	0.964766	1.167788
	O396	O	0.626676	0.453575	0.407156
	H397	H	0.630007	0.456666	0.423069
	H398	H	0.631663	0.464273	0.408121
	O399	O	0.013117	0.891101	1.062745
	H400	H	0.033782	0.893476	1.057342
	H401	H	0.016842	0.902984	1.064701
	O402	O	0.516531	0.496593	0.325860
	H403	H	0.520839	0.485931	0.320070
	H404	H	0.527804	0.502556	0.327273
	O405	O	1.079842	0.958211	0.059585
	H406	H	1.078731	0.937088	0.066721
	H407	H	1.092218	0.964102	0.054125
	O408	O	0.937866	0.976381	-0.131088
	H409	H	0.954109	0.986570	-0.130050
	H410	H	0.934054	0.973457	-0.129130
	O411	O	1.067482	0.021755	0.871646
	H412	H	1.065604	0.033811	0.874608
	H413	H	1.074198	0.025682	0.872939
	O414	O	0.564231	0.312474	0.590896
	H415	H	0.571827	0.309971	0.590886
	H416	H	0.554631	0.308518	0.577270
	O417	O	0.347161	0.339782	0.625183
	H418	H	0.345205	0.356870	0.608483
	H419	H	0.333135	0.331559	0.620914
