data_Molecule from HDF5

_cell_length_a		16.472188
_cell_length_b		16.516103
_cell_length_c		16.389478
_cell_angle_alpha	89.985813
_cell_angle_beta	89.899795
_cell_angle_gamma	89.988583
_symmetry_space_group_name_H-M	'P 1'
_symmetry_Int_Tables_number		1

loop_
	_symmetry_equiv_pos_as_xyz
	x,y,z

loop_
	_atom_site_label
	_atom_site_type_symbol
	_atom_site_fract_x
	_atom_site_fract_y
	_atom_site_fract_z
	H0	H	0.396233	0.841136	0.725271
	H1	H	0.609345	0.155986	0.723450
	H2	H	0.612003	0.842931	0.276643
	H3	H	0.394265	0.154886	0.278922
	H4	H	0.727959	0.389597	0.846545
	H5	H	0.726331	0.608473	0.159641
	H6	H	0.279602	0.602563	0.845899
	H7	H	0.277852	0.387570	0.160612
	H8	H	0.845951	0.722517	0.396928
	H9	H	0.160222	0.720546	0.611869
	H10	H	0.846267	0.273015	0.613733
	H11	H	0.157829	0.274295	0.392980
	H12	H	0.845693	0.390761	0.727671
	H13	H	0.160716	0.602640	0.725513
	H14	H	0.845285	0.608989	0.279612
	H15	H	0.158150	0.392624	0.279305
	H16	H	0.393377	0.720074	0.845240
	H17	H	0.613121	0.726977	0.157163
	H18	H	0.611163	0.275798	0.844875
	H19	H	0.392360	0.270397	0.158310
	H20	H	0.728068	0.842249	0.392321
	H21	H	0.728077	0.154293	0.609850
	H22	H	0.277387	0.841998	0.612331
	H23	H	0.277124	0.153811	0.393301
	H24	H	0.891956	0.344187	0.230183
	H25	H	0.109980	0.655089	0.226649
	H26	H	0.110064	0.342667	0.780280
	H27	H	0.893466	0.653694	0.778151
	H28	H	0.229179	0.887409	0.346160
	H29	H	0.225493	0.106204	0.658687
	H30	H	0.779125	0.107067	0.344830
	H31	H	0.776780	0.888062	0.658111
	H32	H	0.348245	0.223079	0.892791
	H33	H	0.657964	0.225624	0.113298
	H34	H	0.346051	0.774211	0.112348
	H35	H	0.656576	0.770664	0.890506
	H36	H	0.347083	0.889808	0.228575
	H37	H	0.658450	0.109162	0.228456
	H38	H	0.347122	0.105322	0.779024
	H39	H	0.659176	0.889688	0.777915
	H40	H	0.888378	0.227324	0.348252
	H41	H	0.110760	0.223295	0.657642
	H42	H	0.112093	0.773416	0.346360
	H43	H	0.894547	0.774836	0.659879
	H44	H	0.227669	0.342592	0.893983
	H45	H	0.230405	0.652041	0.115803
	H46	H	0.775332	0.343873	0.115195
	H47	H	0.778536	0.654125	0.895310
	H48	H	0.420276	0.107462	0.589658
	H49	H	0.591196	0.887954	0.585013
	H50	H	0.595556	0.110549	0.418480
	H51	H	0.422218	0.888642	0.414239
	H52	H	0.589075	0.415695	0.113410
	H53	H	0.583982	0.590409	0.889354
	H54	H	0.417693	0.586533	0.115772
	H55	H	0.414474	0.407905	0.889214
	H56	H	0.115815	0.584450	0.410662
	H57	H	0.888922	0.586998	0.596951
	H58	H	0.117484	0.404753	0.594660
	H59	H	0.891439	0.413983	0.420375
	H60	H	0.111938	0.408836	0.582727
	H61	H	0.889988	0.591838	0.587395
	H62	H	0.114969	0.591210	0.417366
	H63	H	0.890162	0.414532	0.416101
	H64	H	0.414943	0.587633	0.116849
	H65	H	0.596825	0.584835	0.888349
	H66	H	0.583245	0.411584	0.113695
	H67	H	0.411582	0.413441	0.890710
	H68	H	0.589618	0.110668	0.411056
	H69	H	0.593715	0.885080	0.590672
	H70	H	0.408121	0.109660	0.583935
	H71	H	0.414511	0.889188	0.422714
	H72	H	0.921925	0.610886	0.098825
	H73	H	0.088236	0.387481	0.090403
	H74	H	0.085834	0.609878	0.915074
	H75	H	0.916033	0.386967	0.916681
	H76	H	0.088002	0.910105	0.614541
	H77	H	0.099275	0.080298	0.386284
	H78	H	0.918533	0.084525	0.612423
	H79	H	0.917332	0.910507	0.389797
	H80	H	0.616328	0.086374	0.913953
	H81	H	0.392032	0.086341	0.084789
	H82	H	0.614155	0.915052	0.092983
	H83	H	0.390471	0.910199	0.915976
	H84	H	0.614918	0.906616	0.086312
	H85	H	0.393534	0.081639	0.088724
	H86	H	0.616423	0.086474	0.913919
	H87	H	0.389755	0.912271	0.912398
	H88	H	0.916034	0.085890	0.614696
	H89	H	0.079985	0.078305	0.394353
	H90	H	0.091677	0.907801	0.616165
	H91	H	0.916789	0.909893	0.389683
	H92	H	0.090303	0.608731	0.922031
	H93	H	0.090793	0.385812	0.090323
	H94	H	0.916873	0.605305	0.079575
	H95	H	0.913282	0.386365	0.917799
	H96	H	0.410779	0.113903	0.596685
	H97	H	0.587088	0.887312	0.590776
	H98	H	0.586889	0.107121	0.419160
	H99	H	0.411969	0.884675	0.412572
	H100	H	0.589259	0.409850	0.116111
	H101	H	0.586735	0.577783	0.894005
	H102	H	0.415364	0.584672	0.115901
	H103	H	0.417686	0.412255	0.892427
	H104	H	0.111743	0.582717	0.418657
	H105	H	0.893278	0.581644	0.589076
	H106	H	0.112742	0.417575	0.593168
	H107	H	0.889450	0.410425	0.418219
	H108	H	0.902804	0.614768	0.091198
	H109	H	0.089327	0.385731	0.092894
	H110	H	0.094125	0.611646	0.915244
	H111	H	0.913851	0.385953	0.914867
	H112	H	0.091806	0.912175	0.614814
	H113	H	0.086292	0.096616	0.386513
	H114	H	0.915964	0.082611	0.613376
	H115	H	0.916754	0.910537	0.390342
	H116	H	0.616129	0.086770	0.913586
	H117	H	0.390598	0.086563	0.090838
	H118	H	0.611022	0.915572	0.082472
	H119	H	0.388591	0.908108	0.913151
	C120	C	0.380101	0.006902	0.624000
	C121	C	0.625041	0.989940	0.622937
	C122	C	0.624855	0.006763	0.380735
	C123	C	0.381684	0.990073	0.381659
	C124	C	0.622960	0.377774	0.011201
	C125	C	0.623024	0.619765	0.993967
	C126	C	0.381431	0.618863	0.011803
	C127	C	0.380866	0.376358	0.994385
	C128	C	0.010999	0.620822	0.381625
	C129	C	0.994521	0.619630	0.625064
	C130	C	0.011000	0.376157	0.624770
	C131	C	0.993055	0.378105	0.382325
	C132	C	0.879590	0.507929	0.125356
	C133	C	0.124038	0.489311	0.125521
	C134	C	0.123407	0.506653	0.883545
	C135	C	0.880508	0.489428	0.881908
	C136	C	0.124905	0.876136	0.511783
	C137	C	0.122595	0.119099	0.493119
	C138	C	0.881372	0.119376	0.510396
	C139	C	0.882495	0.876830	0.493804
	C140	C	0.512675	0.119806	0.880341
	C141	C	0.494456	0.120510	0.123700
	C142	C	0.510888	0.877357	0.122974
	C143	C	0.493100	0.875971	0.879576
	C144	C	0.377738	0.888724	0.685464
	C145	C	0.627673	0.108226	0.683767
	C146	C	0.629229	0.889760	0.317788
	C147	C	0.377326	0.107865	0.319516
	C148	C	0.686732	0.372714	0.893611
	C149	C	0.685509	0.625599	0.112189
	C150	C	0.319768	0.621382	0.893364
	C151	C	0.318671	0.370703	0.112937
	C152	C	0.893026	0.682584	0.378389
	C153	C	0.113013	0.680199	0.628939
	C154	C	0.893394	0.314004	0.630176
	C155	C	0.110444	0.315173	0.376035
	C156	C	0.893104	0.372497	0.687412
	C157	C	0.113402	0.621378	0.685590
	C158	C	0.892838	0.625787	0.319995
	C159	C	0.110983	0.374410	0.319681
	C160	C	0.376685	0.679688	0.892913
	C161	C	0.629049	0.684710	0.110802
	C162	C	0.628328	0.316069	0.892678
	C163	C	0.375600	0.312245	0.111639
	C164	C	0.687361	0.889436	0.375389
	C165	C	0.686738	0.107634	0.626923
	C166	C	0.318544	0.889155	0.628848
	C167	C	0.318144	0.106808	0.376051
	C168	C	0.874477	0.391103	0.189212
	C169	C	0.128172	0.607265	0.187166
	C170	C	0.127054	0.389157	0.821462
	C171	C	0.876280	0.606724	0.819342
	C172	C	0.187860	0.870928	0.393402
	C173	C	0.184571	0.123684	0.611187
	C174	C	0.818869	0.124457	0.392754
	C175	C	0.818767	0.872029	0.611587
	C176	C	0.395002	0.182061	0.875968
	C177	C	0.611214	0.184101	0.129947
	C178	C	0.393357	0.814724	0.128993
	C179	C	0.609915	0.812337	0.874153
	C180	C	0.393814	0.872532	0.186998
	C181	C	0.611286	0.126256	0.187611
	C182	C	0.394416	0.123468	0.819151
	C183	C	0.611436	0.871678	0.817906
	C184	C	0.873571	0.184551	0.394203
	C185	C	0.127458	0.182143	0.610742
	C186	C	0.129720	0.813815	0.393487
	C187	C	0.877444	0.815479	0.612467
	C188	C	0.185891	0.389419	0.878115
	C189	C	0.188240	0.605690	0.131690
	C190	C	0.816477	0.390860	0.131651
	C191	C	0.818640	0.606784	0.877334
	C192	C	0.405744	0.088882	0.597578
	C193	C	0.598407	0.908177	0.596372
	C194	C	0.598349	0.088227	0.408179
	C195	C	0.408614	0.908727	0.408574
	C196	C	0.595211	0.404441	0.093011
	C197	C	0.596729	0.592212	0.911950
	C198	C	0.408162	0.593461	0.094682
	C199	C	0.407094	0.403354	0.912450
	C200	C	0.092859	0.593967	0.407961
	C201	C	0.912327	0.594381	0.598818
	C202	C	0.092609	0.402720	0.597888
	C203	C	0.911574	0.405199	0.410061
	C204	C	0.906195	0.589051	0.097954
	C205	C	0.097183	0.407810	0.098792
	C206	C	0.097455	0.588688	0.910047
	C207	C	0.906749	0.407663	0.908783
	C208	C	0.098369	0.902488	0.593764
	C209	C	0.096055	0.092594	0.410624
	C210	C	0.908993	0.091992	0.592162
	C211	C	0.909187	0.902873	0.411620
	C212	C	0.594711	0.093964	0.906311
	C213	C	0.413384	0.092938	0.096078
	C214	C	0.592099	0.904377	0.095060
	C215	C	0.411116	0.902764	0.906082
	Zn216	Zn	0.503307	-0.001492	0.751804
	Zn217	Zn	0.502933	-0.001294	0.252108
	Zn218	Zn	0.751514	0.498406	0.003622
	Zn219	Zn	0.252609	0.497581	0.004196
	Zn220	Zn	0.003376	0.748440	0.503695
	Zn221	Zn	0.001332	0.248133	0.501886
	Zn222	Zn	0.003031	0.498187	0.753794
	Zn223	Zn	0.001290	0.499541	0.253540
	Zn224	Zn	0.501433	0.748032	0.001776
	Zn225	Zn	0.503384	0.248694	0.001953
	Zn226	Zn	0.754067	-0.001977	0.501666
	Zn227	Zn	0.251729	-0.001940	0.502078
	N228	N	0.415484	0.962949	0.682606
	N229	N	0.590185	0.033859	0.681576
	N230	N	0.591154	0.963669	0.320957
	N231	N	0.416193	0.034202	0.322691
	N232	N	0.683893	0.410188	0.968476
	N233	N	0.681721	0.585757	0.038701
	N234	N	0.322471	0.584448	0.968510
	N235	N	0.321842	0.409996	0.039064
	N236	N	0.967699	0.679950	0.415560
	N237	N	0.038176	0.679225	0.591812
	N238	N	0.967634	0.316099	0.591902
	N239	N	0.036012	0.317267	0.414167
	N240	N	0.967140	0.410721	0.684074
	N241	N	0.038685	0.584500	0.683466
	N242	N	0.967332	0.588046	0.321867
	N243	N	0.036946	0.412586	0.323192
	N244	N	0.414227	0.678227	0.967779
	N245	N	0.591099	0.681406	0.036139
	N246	N	0.589348	0.319277	0.966842
	N247	N	0.413292	0.315139	0.036822
	N248	N	0.684757	0.963350	0.413783
	N249	N	0.685303	0.032928	0.590091
	N250	N	0.319604	0.963734	0.591710
	N251	N	0.320495	0.032583	0.413740
	N252	N	0.912908	0.464814	0.185543
	N253	N	0.088702	0.534017	0.183399
	N254	N	0.088747	0.462976	0.824820
	N255	N	0.913857	0.532480	0.821857
	N256	N	0.185055	0.908941	0.467920
	N257	N	0.181564	0.085034	0.536973
	N258	N	0.823783	0.084574	0.466080
	N259	N	0.821721	0.909589	0.536826
	N260	N	0.469504	0.179844	0.913482
	N261	N	0.537617	0.180448	0.090875
	N262	N	0.467268	0.817713	0.089880
	N263	N	0.535337	0.814925	0.911778
	N264	N	0.467775	0.910878	0.183371
	N265	N	0.537480	0.087397	0.184020
	N266	N	0.468560	0.085562	0.821559
	N267	N	0.537679	0.910497	0.821052
	N268	N	0.911740	0.181594	0.468588
	N269	N	0.089735	0.179366	0.536045
	N270	N	0.091185	0.816894	0.467892
	N271	N	0.916298	0.818229	0.538286
	N272	N	0.183623	0.463531	0.916323
	N273	N	0.185985	0.531207	0.094391
	N274	N	0.819550	0.464433	0.092569
	N275	N	0.821151	0.532807	0.915588
	O276	O	0.067521	0.830803	0.109132
	H277	H	0.043904	0.848732	0.101592
	H278	H	0.049597	0.824939	0.117696
	O279	O	1.192196	0.126524	0.881622
	H280	H	1.177209	0.112045	0.869692
	H281	H	1.183467	0.112018	0.884226
	O282	O	0.523550	0.564951	0.467990
	H283	H	0.530289	0.564196	0.479235
	H284	H	0.497398	0.565841	0.451733
	O285	O	0.788288	0.784502	0.022906
	H286	H	0.761785	0.787004	0.011163
	H287	H	0.771510	0.798210	0.005190
	O288	O	0.707356	0.702195	0.522820
	H289	H	0.707212	0.715403	0.506766
	H290	H	0.702949	0.702765	0.506340
	O291	O	0.479262	0.314440	0.711918
	H292	H	0.470374	0.309312	0.707177
	H293	H	0.479815	0.311721	0.717410
	O294	O	-0.013465	-0.056755	1.137711
	H295	H	0.004967	-0.042588	1.151699
	H296	H	-0.009313	-0.069034	1.112600
	O297	O	0.285508	0.471830	0.475476
	H298	H	0.280956	0.490109	0.457950
	H299	H	0.291180	0.498838	0.481266
	O300	O	0.451087	0.552189	0.702848
	H301	H	0.465555	0.556520	0.703509
	H302	H	0.471276	0.574364	0.694121
	O303	O	0.643464	0.556874	0.461611
	H304	H	0.645992	0.535296	0.431129
	H305	H	0.627696	0.554073	0.465231
	O306	O	0.679303	0.329060	0.326117
	H307	H	0.652333	0.316448	0.343630
	H308	H	0.661208	0.315643	0.350268
	O309	O	0.293354	0.657900	0.500514
	H310	H	0.307924	0.678514	0.512989
	H311	H	0.279339	0.669082	0.506779
	O312	O	-0.068883	0.868164	0.800656
	H313	H	-0.092767	0.870681	0.798041
	H314	H	-0.081888	0.856367	0.794127
	O315	O	0.298510	0.484980	0.681406
	H316	H	0.306782	0.488304	0.693474
	H317	H	0.305891	0.492416	0.680247
	O318	O	0.987223	0.219707	0.017610
	H319	H	1.009576	0.211418	0.015955
	H320	H	1.006449	0.221885	0.027554
	O321	O	0.067283	0.011522	-0.016337
	H322	H	0.072150	-0.007800	-0.022920
	H323	H	0.057969	0.001803	-0.007013
	O324	O	0.438512	0.439558	0.284758
	H325	H	0.476564	0.476965	0.282748
	H326	H	0.441671	0.413035	0.291601
	O327	O	0.517815	0.646042	0.291310
	H328	H	0.535867	0.663395	0.266718
	H329	H	0.485827	0.654247	0.302955
	O330	O	-0.038982	0.921678	0.040485
	H331	H	-0.053473	0.919361	0.034943
	H332	H	-0.055177	0.939258	0.041760
	O333	O	0.682868	0.446972	0.544509
	H334	H	0.671666	0.452366	0.521033
	H335	H	0.676968	0.459916	0.548977
	O336	O	0.214562	0.210683	0.021313
	H337	H	0.236744	0.224665	0.012835
	H338	H	0.223899	0.187567	0.001312
	O339	O	0.053994	0.925458	0.800101
	H340	H	0.018903	0.929297	0.787377
	H341	H	0.044040	0.903327	0.823678
	O342	O	0.100923	0.869053	1.116404
	H343	H	0.090594	0.864729	1.122664
	H344	H	0.084139	0.865730	1.114168
	O345	O	1.028831	1.135265	-0.066023
	H346	H	1.034132	1.125727	-0.059273
	H347	H	1.043583	1.121905	-0.063813
	O348	O	0.330396	0.677250	0.325274
	H349	H	0.315881	0.624909	0.314133
	H350	H	0.324724	0.685220	0.371959
	O351	O	-0.215516	1.016507	0.783990
	H352	H	-0.247477	1.029264	0.750622
	H353	H	-0.205711	1.061286	0.796641
	O354	O	-0.173556	0.820219	0.182983
	H355	H	-0.184910	0.807058	0.129631
	H356	H	-0.151365	0.837827	0.193181
	O357	O	-0.181064	0.172418	0.821954
	H358	H	-0.192439	0.184913	0.875396
	H359	H	-0.127759	0.185636	0.812946
	O360	O	0.520353	0.283402	0.290625
	H361	H	0.522552	0.243313	0.255956
	H362	H	0.496791	0.293761	0.318675
	O363	O	-0.018802	0.209180	0.793323
	H364	H	0.003500	0.186669	0.788633
	H365	H	-0.014483	0.233104	0.778827
	O366	O	0.580187	0.306785	0.584542
	H367	H	0.560067	0.322287	0.573216
	H368	H	0.583411	0.296584	0.577789
	O369	O	0.457197	0.283967	0.493990
	H370	H	0.435335	0.292412	0.499910
	H371	H	0.459159	0.283295	0.499533
	O372	O	1.174214	0.180379	1.181780
	H373	H	1.187760	0.128373	1.190606
	H374	H	1.190229	0.191899	1.131448
	O375	O	0.596601	0.459800	0.707339
	H376	H	0.608329	0.444461	0.708248
	H377	H	0.588280	0.442450	0.692618
	O378	O	1.119684	0.888066	1.139623
	H379	H	1.116551	0.904151	1.133021
	H380	H	1.115069	0.851358	1.140713
	O381	O	0.697270	0.304206	0.484886
	H382	H	0.715228	0.288724	0.498017
	H383	H	0.695986	0.332267	0.500403
	O384	O	0.521950	0.715430	0.717902
	H385	H	0.551434	0.727833	0.731370
	H386	H	0.550331	0.726505	0.728481
	O387	O	0.086073	0.003833	0.847836
	H388	H	0.097418	-0.000846	0.834701
	H389	H	0.070711	0.005776	0.849438
	O390	O	0.216224	0.022890	0.214106
	H391	H	0.204327	0.005262	0.232943
	H392	H	0.221027	0.008649	0.227453
	O393	O	1.000349	1.031306	1.184973
	H394	H	0.996265	1.027395	1.179000
	H395	H	0.993432	1.031534	1.197342
	O396	O	1.213805	0.018902	-0.167146
	H397	H	1.227249	0.009341	-0.188413
	H398	H	1.205714	-0.015956	-0.171043
	O399	O	0.780526	-0.066079	0.943757
	H400	H	0.784650	-0.041098	0.914338
	H401	H	0.777987	-0.030296	0.960209
	O402	O	1.183645	0.839338	1.008070
	H403	H	1.202830	0.819453	1.017217
	H404	H	1.174484	0.853524	1.023736
	O405	O	0.984924	0.782094	-0.132702
	H406	H	0.987659	0.781219	-0.151682
	H407	H	0.982362	0.781988	-0.117968
	O408	O	0.980217	0.021051	-0.004236
	H409	H	0.993203	0.022521	0.006038
	H410	H	0.956673	0.028216	-0.015821
	O411	O	0.783340	1.052197	0.056348
	H412	H	0.781739	1.080910	0.058023
	H413	H	0.788194	1.063391	0.079569
	O414	O	0.403333	0.589424	0.508340
	H415	H	0.398216	0.613700	0.496651
	H416	H	0.408108	0.587747	0.521998
	O417	O	0.294484	0.281134	0.524178
	H418	H	0.267340	0.261707	0.535497
	H419	H	0.285421	0.305894	0.524177
	O420	O	0.019283	0.216647	0.224775
	H421	H	0.028927	0.252147	0.263476
	H422	H	0.068576	0.200724	0.208558
	O423	O	0.472540	0.530974	0.446193
	H424	H	0.457893	0.527234	0.437046
	H425	H	0.459067	0.530368	0.459722
	O426	O	0.714696	0.519116	0.662278
	H427	H	0.732967	0.519081	0.676838
	H428	H	0.706448	0.508481	0.649817
	O429	O	0.526210	0.621768	0.288661
	H430	H	0.502894	0.647794	0.288036
	H431	H	0.554556	0.625459	0.274918
	O432	O	0.720335	0.483266	0.284444
	H433	H	0.759930	0.477024	0.246466
	H434	H	0.706406	0.430096	0.298585
	O435	O	0.290396	0.517005	0.294427
	H436	H	0.304861	0.497561	0.288629
	H437	H	0.277618	0.507552	0.265991
	O438	O	-0.209769	-0.019673	0.212500
	H439	H	-0.197516	-0.036276	0.206491
	H440	H	-0.235850	-0.019669	0.237577
	O441	O	0.784455	0.212697	-0.016901
	H442	H	0.788126	0.239990	-0.003908
	H443	H	0.795872	0.234416	-0.003234
	O444	O	0.180299	0.813699	0.867433
	H445	H	0.176148	0.804013	0.902890
	H446	H	0.182039	0.819330	0.871704
	O447	O	0.311366	0.327098	0.691419
	H448	H	0.303920	0.357982	0.704192
	H449	H	0.333002	0.318665	0.674700
	O450	O	0.678938	0.678709	0.684261
	H451	H	0.692244	0.627204	0.695353
	H452	H	0.691967	0.687124	0.632807
	O453	O	0.445856	0.716449	0.555862
	H454	H	0.462646	0.706657	0.568544
	H455	H	0.467782	0.719448	0.563590
