data_Molecule from HDF5

_cell_length_a		16.456302
_cell_length_b		16.511530
_cell_length_c		16.410020
_cell_angle_alpha	89.983220
_cell_angle_beta	89.808508
_cell_angle_gamma	90.008106
_symmetry_space_group_name_H-M	'P 1'
_symmetry_Int_Tables_number		1

loop_
	_symmetry_equiv_pos_as_xyz
	x,y,z

loop_
	_atom_site_label
	_atom_site_type_symbol
	_atom_site_fract_x
	_atom_site_fract_y
	_atom_site_fract_z
	H0	H	0.402709	0.840400	0.724889
	H1	H	0.611676	0.156509	0.726317
	H2	H	0.612580	0.841302	0.283512
	H3	H	0.405627	0.157572	0.286045
	H4	H	0.726033	0.395952	0.846022
	H5	H	0.725365	0.604216	0.163993
	H6	H	0.284337	0.605156	0.846978
	H7	H	0.286480	0.394835	0.164345
	H8	H	0.849098	0.720458	0.401608
	H9	H	0.164464	0.721960	0.612225
	H10	H	0.848729	0.278011	0.612062
	H11	H	0.163333	0.276910	0.397949
	H12	H	0.847963	0.396159	0.726198
	H13	H	0.165078	0.604779	0.727740
	H14	H	0.848228	0.603739	0.286244
	H15	H	0.162863	0.393007	0.282851
	H16	H	0.399330	0.721602	0.846887
	H17	H	0.611067	0.720523	0.162729
	H18	H	0.610510	0.279790	0.845611
	H19	H	0.401144	0.277256	0.163117
	H20	H	0.730135	0.842492	0.397960
	H21	H	0.728389	0.156550	0.608979
	H22	H	0.285680	0.841080	0.609746
	H23	H	0.285488	0.156195	0.399316
	H24	H	0.898895	0.342297	0.229070
	H25	H	0.111218	0.657116	0.227388
	H26	H	0.113070	0.341671	0.783367
	H27	H	0.903393	0.657291	0.786735
	H28	H	0.229501	0.892498	0.347152
	H29	H	0.229912	0.106930	0.662933
	H30	H	0.786688	0.106046	0.346520
	H31	H	0.784156	0.894625	0.662983
	H32	H	0.348306	0.221310	0.898602
	H33	H	0.664821	0.218749	0.107466
	H34	H	0.348191	0.776420	0.112173
	H35	H	0.664658	0.778536	0.899847
	H36	H	0.349535	0.890985	0.229503
	H37	H	0.666546	0.101464	0.221853
	H38	H	0.347994	0.104119	0.782936
	H39	H	0.665767	0.895975	0.784049
	H40	H	0.900189	0.223829	0.348289
	H41	H	0.114325	0.223490	0.662703
	H42	H	0.116216	0.774843	0.348608
	H43	H	0.899442	0.777553	0.663087
	H44	H	0.229541	0.342004	0.898233
	H45	H	0.229824	0.656233	0.112961
	H46	H	0.782854	0.342167	0.113041
	H47	H	0.785986	0.657464	0.902155
	H48	H	0.412399	0.114445	0.596517
	H49	H	0.595923	0.888201	0.589209
	H50	H	0.595595	0.110529	0.415371
	H51	H	0.415188	0.884617	0.416368
	H52	H	0.593632	0.405916	0.119633
	H53	H	0.596176	0.588943	0.891378
	H54	H	0.412307	0.583384	0.118104
	H55	H	0.421534	0.410525	0.892791
	H56	H	0.117383	0.585244	0.423915
	H57	H	0.892148	0.592360	0.597826
	H58	H	0.119144	0.407984	0.590153
	H59	H	0.895008	0.416025	0.418063
	H60	H	0.118814	0.415076	0.594507
	H61	H	0.894977	0.590225	0.591903
	H62	H	0.119755	0.583076	0.412578
	H63	H	0.890898	0.408244	0.413981
	H64	H	0.423748	0.584723	0.114904
	H65	H	0.595909	0.587063	0.891803
	H66	H	0.597004	0.410112	0.118349
	H67	H	0.416420	0.406607	0.890210
	H68	H	0.599373	0.112979	0.416125
	H69	H	0.597923	0.885571	0.593447
	H70	H	0.423007	0.110664	0.596294
	H71	H	0.419972	0.886071	0.413902
	H72	H	0.915699	0.608003	0.085584
	H73	H	0.092629	0.385563	0.103584
	H74	H	0.094887	0.609447	0.922391
	H75	H	0.911878	0.382865	0.909468
	H76	H	0.093293	0.908378	0.618106
	H77	H	0.097349	0.096534	0.389147
	H78	H	0.919200	0.096624	0.620913
	H79	H	0.920717	0.908847	0.391708
	H80	H	0.620855	0.088306	0.909340
	H81	H	0.393031	0.087662	0.093879
	H82	H	0.617657	0.909900	0.090762
	H83	H	0.394952	0.911708	0.917707
	H84	H	0.618631	0.910519	0.094605
	H85	H	0.393495	0.087257	0.094342
	H86	H	0.619867	0.093945	0.916204
	H87	H	0.393182	0.911135	0.913406
	H88	H	0.909565	0.083915	0.619658
	H89	H	0.101369	0.080887	0.393216
	H90	H	0.098014	0.910603	0.618976
	H91	H	0.917425	0.909349	0.391021
	H92	H	0.098676	0.612267	0.916578
	H93	H	0.087722	0.391987	0.088675
	H94	H	0.906910	0.615677	0.099522
	H95	H	0.925085	0.388654	0.916180
	H96	H	0.415813	0.109553	0.586777
	H97	H	0.592971	0.887514	0.593555
	H98	H	0.597149	0.113277	0.411623
	H99	H	0.418614	0.888346	0.419549
	H100	H	0.591779	0.410187	0.117598
	H101	H	0.594836	0.588688	0.892391
	H102	H	0.417937	0.594141	0.119553
	H103	H	0.414629	0.413172	0.892557
	H104	H	0.121464	0.594007	0.417104
	H105	H	0.894926	0.585859	0.597730
	H106	H	0.121583	0.408467	0.598161
	H107	H	0.894209	0.408011	0.423051
	H108	H	0.924031	0.611248	0.100905
	H109	H	0.103353	0.385294	0.090650
	H110	H	0.091057	0.610574	0.915703
	H111	H	0.911474	0.386683	0.924905
	H112	H	0.093697	0.913930	0.617160
	H113	H	0.086313	0.086697	0.396775
	H114	H	0.924336	0.083136	0.614380
	H115	H	0.919451	0.911429	0.392919
	H116	H	0.617442	0.085242	0.916803
	H117	H	0.394090	0.087904	0.094377
	H118	H	0.619442	0.907258	0.092667
	H119	H	0.392713	0.907690	0.916661
	C120	C	0.384498	0.007520	0.626106
	C121	C	0.627530	0.991114	0.624855
	C122	C	0.629590	0.007828	0.382239
	C123	C	0.386205	0.990617	0.384199
	C124	C	0.626822	0.377731	0.013728
	C125	C	0.627360	0.620297	0.996630
	C126	C	0.384456	0.620841	0.013410
	C127	C	0.385071	0.377691	0.996583
	C128	C	0.015200	0.620147	0.385456
	C129	C	0.998461	0.621621	0.628273
	C130	C	0.015246	0.378190	0.626885
	C131	C	0.997494	0.378143	0.384906
	C132	C	0.883411	0.507842	0.127987
	C133	C	0.127261	0.491371	0.127209
	C134	C	0.128215	0.507248	0.884573
	C135	C	0.884865	0.490905	0.885238
	C136	C	0.127828	0.878121	0.513648
	C137	C	0.128083	0.120879	0.497405
	C138	C	0.885909	0.120575	0.513540
	C139	C	0.885909	0.878041	0.496623
	C140	C	0.514865	0.121327	0.882065
	C141	C	0.498307	0.119649	0.125417
	C142	C	0.514485	0.876709	0.126207
	C143	C	0.498407	0.878146	0.883511
	C144	C	0.383257	0.888250	0.685685
	C145	C	0.629588	0.109709	0.685496
	C146	C	0.631159	0.888915	0.323006
	C147	C	0.385739	0.110006	0.325145
	C148	C	0.686785	0.376663	0.893881
	C149	C	0.685961	0.622373	0.116300
	C150	C	0.323985	0.623406	0.894643
	C151	C	0.325872	0.375727	0.116344
	C152	C	0.896351	0.680442	0.382991
	C153	C	0.117169	0.681939	0.630563
	C154	C	0.896201	0.318388	0.629900
	C155	C	0.116105	0.317408	0.380798
	C156	C	0.895710	0.377022	0.686830
	C157	C	0.117611	0.623391	0.687707
	C158	C	0.895890	0.622332	0.325777
	C159	C	0.115753	0.375147	0.323350
	C160	C	0.381519	0.681326	0.894520
	C161	C	0.629128	0.680393	0.115548
	C162	C	0.629210	0.318923	0.893688
	C163	C	0.382962	0.317306	0.115725
	C164	C	0.689910	0.889510	0.379831
	C165	C	0.687638	0.109743	0.627265
	C166	C	0.324931	0.888520	0.628678
	C167	C	0.326376	0.109359	0.381774
	C168	C	0.880922	0.389465	0.188754
	C169	C	0.129861	0.609708	0.187853
	C170	C	0.131137	0.389065	0.823473
	C171	C	0.883991	0.609873	0.825943
	C172	C	0.188829	0.874863	0.394712
	C173	C	0.189328	0.124389	0.615693
	C174	C	0.826235	0.123507	0.394292
	C175	C	0.824655	0.876077	0.615570
	C176	C	0.395680	0.181203	0.880306
	C177	C	0.617532	0.178830	0.126360
	C178	C	0.395786	0.816387	0.129928
	C179	C	0.617613	0.818735	0.881340
	C180	C	0.396511	0.873613	0.188461
	C181	C	0.618305	0.120383	0.183364
	C182	C	0.395515	0.122887	0.822688
	C183	C	0.618031	0.877243	0.824018
	C184	C	0.882478	0.182572	0.395356
	C185	C	0.131931	0.182607	0.615462
	C186	C	0.132466	0.816070	0.395545
	C187	C	0.882031	0.817942	0.615706
	C188	C	0.189053	0.389145	0.880945
	C189	C	0.188373	0.609465	0.130187
	C190	C	0.822649	0.389488	0.131365
	C191	C	0.825476	0.609672	0.883269
	C192	C	0.409643	0.089963	0.600645
	C193	C	0.602584	0.908651	0.599449
	C194	C	0.604719	0.090740	0.407067
	C195	C	0.410807	0.907921	0.409462
	C196	C	0.601496	0.401983	0.096935
	C197	C	0.602684	0.595260	0.913424
	C198	C	0.410522	0.594971	0.095904
	C199	C	0.410234	0.402885	0.913488
	C200	C	0.097887	0.594868	0.410551
	C201	C	0.915698	0.596645	0.603168
	C202	C	0.098117	0.403098	0.601503
	C203	C	0.914791	0.403427	0.411069
	C204	C	0.908424	0.590220	0.102577
	C205	C	0.101959	0.409253	0.101564
	C206	C	0.102289	0.589388	0.910707
	C207	C	0.909256	0.407756	0.909847
	C208	C	0.102170	0.903779	0.596677
	C209	C	0.102499	0.095222	0.414649
	C210	C	0.910642	0.095237	0.596641
	C211	C	0.911805	0.902895	0.413597
	C212	C	0.597904	0.096321	0.906951
	C213	C	0.415215	0.094983	0.101028
	C214	C	0.597077	0.902047	0.100111
	C215	C	0.415231	0.902956	0.908722
	Zn216	Zn	0.506180	-0.000970	0.754220
	Zn217	Zn	0.507225	-0.001060	0.254650
	Zn218	Zn	0.754943	0.499171	0.006126
	Zn219	Zn	0.256714	0.498601	0.005637
	Zn220	Zn	0.007352	0.749600	0.505814
	Zn221	Zn	0.006821	0.249567	0.505804
	Zn222	Zn	0.006938	0.499208	0.756056
	Zn223	Zn	0.005652	0.499447	0.256532
	Zn224	Zn	0.506336	0.748787	0.004429
	Zn225	Zn	0.506071	0.248976	0.004222
	Zn226	Zn	0.757506	-0.000658	0.504193
	Zn227	Zn	0.256468	-0.001050	0.504947
	N228	N	0.419451	0.963180	0.684372
	N229	N	0.593047	0.034966	0.684204
	N230	N	0.594555	0.963628	0.324291
	N231	N	0.421671	0.035008	0.326103
	N232	N	0.685687	0.412364	0.969571
	N233	N	0.684965	0.585615	0.041353
	N234	N	0.325571	0.586574	0.969757
	N235	N	0.326940	0.412346	0.041201
	N236	N	0.971627	0.679470	0.419047
	N237	N	0.041920	0.681164	0.594531
	N238	N	0.971468	0.318954	0.593432
	N239	N	0.041303	0.318963	0.418212
	N240	N	0.970836	0.413352	0.685377
	N241	N	0.042709	0.586745	0.686541
	N242	N	0.970741	0.585643	0.327008
	N243	N	0.040951	0.412023	0.325637
	N244	N	0.418192	0.679986	0.969491
	N245	N	0.593201	0.679087	0.040021
	N246	N	0.592699	0.319353	0.968999
	N247	N	0.418761	0.318175	0.039962
	N248	N	0.689135	0.964641	0.415726
	N249	N	0.686456	0.035183	0.590312
	N250	N	0.325516	0.963678	0.592511
	N251	N	0.326284	0.034008	0.417379
	N252	N	0.917932	0.464074	0.186943
	N253	N	0.092611	0.535181	0.186085
	N254	N	0.093690	0.463490	0.825830
	N255	N	0.920281	0.534959	0.827011
	N256	N	0.186120	0.912937	0.469171
	N257	N	0.187225	0.086635	0.540977
	N258	N	0.828043	0.085869	0.469012
	N259	N	0.826738	0.912540	0.540350
	N260	N	0.471095	0.180445	0.916152
	N261	N	0.542049	0.178574	0.091012
	N262	N	0.470282	0.818192	0.092086
	N263	N	0.542098	0.818966	0.917453
	N264	N	0.471520	0.910388	0.186584
	N265	N	0.543030	0.084267	0.182975
	N266	N	0.470543	0.086469	0.823709
	N267	N	0.542882	0.913380	0.825412
	N268	N	0.919133	0.180738	0.470434
	N269	N	0.094471	0.180313	0.541021
	N270	N	0.095136	0.818268	0.470534
	N271	N	0.919094	0.818770	0.540647
	N272	N	0.187332	0.463653	0.918122
	N273	N	0.187060	0.534767	0.093274
	N274	N	0.824005	0.464051	0.094244
	N275	N	0.826056	0.534599	0.919526
	O276	O	0.082926	0.879928	0.103961
	H277	H	0.076317	0.877815	0.092118
	H278	H	0.074401	0.902318	0.098022
	O279	O	0.795337	-0.042499	1.217536
	H280	H	0.770878	-0.044252	1.246787
	H281	H	0.811363	-0.040648	1.215539
	O282	O	0.371636	0.413658	0.571080
	H283	H	0.367335	0.408308	0.583828
	H284	H	0.366756	0.416500	0.580278
	O285	O	0.887645	1.126279	0.192231
	H286	H	0.901213	1.130365	0.193397
	H287	H	0.907952	1.117187	0.184335
	O288	O	0.381517	0.499590	0.485296
	H289	H	0.366032	0.502729	0.494528
	H290	H	0.378055	0.502049	0.483218
	O291	O	0.507642	0.393923	0.700534
	H292	H	0.500481	0.391088	0.695618
	H293	H	0.522070	0.386731	0.683356
	O294	O	-0.035552	-0.212764	1.201190
	H295	H	-0.033394	-0.226297	1.221964
	H296	H	-0.011755	-0.208540	1.194975
	O297	O	0.526317	0.426443	0.593194
	H298	H	0.522900	0.413651	0.587625
	H299	H	0.514783	0.421030	0.599311
	O300	O	0.509543	0.699663	0.623517
	H301	H	0.528902	0.697610	0.626273
	H302	H	0.524603	0.703312	0.633801
	O303	O	0.354873	0.434215	0.729670
	H304	H	0.377092	0.440593	0.737636
	H305	H	0.363017	0.428528	0.735458
	O306	O	0.607035	0.480287	0.479127
	H307	H	0.590898	0.483926	0.489158
	H308	H	0.613916	0.477543	0.466987
	O309	O	0.505123	0.592319	0.425311
	H310	H	0.501831	0.595101	0.436254
	H311	H	0.514119	0.587810	0.428747
	O312	O	0.016107	0.785199	0.983096
	H313	H	0.020705	0.783689	0.972486
	H314	H	0.004063	0.781249	0.987228
	O315	O	0.416463	0.337505	0.418015
	H316	H	0.423594	0.354361	0.423559
	H317	H	0.420012	0.342637	0.410167
	O318	O	1.034728	0.163858	-0.119657
	H319	H	1.032425	0.168270	-0.106665
	H320	H	1.010039	0.165369	-0.145997
	O321	O	-0.006263	-0.044928	-0.201503
	H322	H	-0.000673	-0.033592	-0.194759
	H323	H	0.007438	-0.056796	-0.201525
	O324	O	0.491942	0.393482	0.348918
	H325	H	0.504205	0.408471	0.340339
	H326	H	0.474508	0.409605	0.348035
	O327	O	0.619752	0.370091	0.536100
	H328	H	0.612684	0.375206	0.535848
	H329	H	0.612755	0.366601	0.511494
	O330	O	-0.194830	1.030720	0.019537
	H331	H	-0.202319	1.024629	0.018382
	H332	H	-0.191609	1.031660	0.013810
	O333	O	0.407670	0.693872	0.327440
	H334	H	0.425296	0.694514	0.341102
	H335	H	0.404629	0.709355	0.345030
	O336	O	0.213282	0.011324	0.208501
	H337	H	0.240397	0.019499	0.233859
	H338	H	0.210401	0.051328	0.200212
	O339	O	-0.001651	1.170800	1.063068
	H340	H	0.000861	1.167407	1.049895
	H341	H	-0.013381	1.182081	1.077461
	O342	O	0.189649	1.076181	0.912998
	H343	H	0.173400	1.072417	0.895702
	H344	H	0.194509	1.082539	0.925294
	O345	O	1.009954	0.965727	0.061648
	H346	H	1.010749	0.963731	0.074310
	H347	H	1.020309	0.974665	0.067512
	O348	O	0.445084	0.548938	0.315386
	H349	H	0.464536	0.559603	0.301308
	H350	H	0.452527	0.554793	0.344592
	O351	O	-0.110085	1.091550	0.984465
	H352	H	-0.127969	1.085918	0.986131
	H353	H	-0.107332	1.076523	0.994413
	O354	O	-0.204113	0.787470	0.212467
	H355	H	-0.198657	0.808285	0.211818
	H356	H	-0.185964	0.777639	0.208733
	O357	O	-0.494732	0.372285	0.591896
	H358	H	-0.492421	0.377691	0.575502
	H359	H	-0.501787	0.348160	0.620654
	O360	O	0.478553	0.667746	0.445886
	H361	H	0.469702	0.652375	0.445622
	H362	H	0.467722	0.678472	0.457139
	O363	O	0.057651	0.209046	1.193799
	H364	H	0.059003	0.218214	1.193650
	H365	H	0.054203	0.223816	1.197386
	O366	O	0.690841	0.377499	0.326979
	H367	H	0.670398	0.373921	0.321879
	H368	H	0.696142	0.392166	0.306824
	O369	O	0.617486	0.511323	0.402006
	H370	H	0.634161	0.515607	0.391322
	H371	H	0.619830	0.518625	0.413494
	O372	O	0.826162	0.086903	0.888627
	H373	H	0.823160	0.097448	0.885513
	H374	H	0.814914	0.078115	0.868439
	O375	O	0.573752	0.468889	0.643690
	H376	H	0.589272	0.477894	0.634973
	H377	H	0.577330	0.481254	0.653621
	O378	O	0.829437	0.903882	0.961839
	H379	H	0.836017	0.895771	0.960656
	H380	H	0.841651	0.907863	0.959626
	O381	O	0.333394	0.536266	0.579482
	H382	H	0.324865	0.525416	0.584075
	H383	H	0.348239	0.523249	0.574321
	O384	O	0.674521	0.684453	0.648911
	H385	H	0.690586	0.693811	0.653185
	H386	H	0.694582	0.668282	0.650788
	O387	O	0.063743	-0.207205	0.798755
	H388	H	0.064326	-0.232655	0.774891
	H389	H	0.076382	-0.202498	0.814633
	O390	O	-0.101071	-0.145475	-0.013292
	H391	H	-0.098388	-0.133174	0.003924
	H392	H	-0.102494	-0.152765	-0.004771
	O393	O	1.213586	0.794792	0.982852
	H394	H	1.242999	0.768910	0.987607
	H395	H	1.197280	0.804716	1.007964
	O396	O	1.169035	0.039662	0.056185
	H397	H	1.168381	0.037661	0.060711
	H398	H	1.162519	0.048930	0.069754
	O399	O	1.185927	0.209414	1.027332
	H400	H	1.207598	0.223960	1.017656
	H401	H	1.175889	0.205027	1.015144
	O402	O	0.834187	1.029615	1.026914
	H403	H	0.827062	1.019263	1.038131
	H404	H	0.837030	1.017143	1.019199
	O405	O	1.675047	0.643672	-0.530637
	H406	H	1.681905	0.656328	-0.534757
	H407	H	1.663966	0.639614	-0.531837
	O408	O	0.850390	-0.152633	-0.173587
	H409	H	0.861615	-0.148345	-0.152219
	H410	H	0.871404	-0.132802	-0.167497
	O411	O	1.099980	1.068039	-0.061977
	H412	H	1.097759	1.078300	-0.071794
	H413	H	1.101318	1.053931	-0.071608
	O414	O	0.223496	0.777454	0.783263
	H415	H	0.225316	0.775057	0.808675
	H416	H	0.229091	0.801121	0.787596
	O417	O	0.525254	0.494428	0.458526
	H418	H	0.521771	0.481072	0.450653
	H419	H	0.527457	0.512797	0.457188
	O420	O	0.065456	-0.046575	0.198660
	H421	H	0.079239	-0.049010	0.179946
	H422	H	0.093283	-0.027049	0.208952
	O423	O	0.686017	0.301981	0.428543
	H424	H	0.696848	0.285331	0.419594
	H425	H	0.673614	0.309461	0.407936
	O426	O	0.448913	0.577799	0.528118
	H427	H	0.443385	0.583534	0.538532
	H428	H	0.438752	0.555481	0.534378
	O429	O	0.301973	0.475304	0.709566
	H430	H	0.302987	0.484205	0.720308
	H431	H	0.302706	0.484447	0.723165
	O432	O	0.326203	0.234488	0.246906
	H433	H	0.320827	0.255969	0.252008
	H434	H	0.328563	0.238214	0.227252
	O435	O	0.295213	0.529530	0.296939
	H436	H	0.277214	0.549466	0.273992
	H437	H	0.297232	0.552107	0.304830
	O438	O	-0.063837	0.195922	-0.061001
	H439	H	-0.083590	0.207770	-0.062923
	H440	H	-0.063786	0.190156	-0.068789
	O441	O	0.893608	0.200619	-0.179737
	H442	H	0.873673	0.204284	-0.181735
	H443	H	0.888244	0.208314	-0.183022
	O444	O	0.220169	0.974985	0.794123
	H445	H	0.222366	0.972994	0.776913
	H446	H	0.222307	0.977636	0.775789
	O447	O	0.313940	0.307315	0.611297
	H448	H	0.309441	0.334099	0.629697
	H449	H	0.320888	0.300010	0.603022
	O450	O	0.706404	0.596533	0.706127
	H451	H	0.716053	0.598833	0.698824
	H452	H	0.722146	0.583124	0.714715
	O453	O	0.682348	0.580983	0.426222
	H454	H	0.680131	0.557471	0.421918
	H455	H	0.688236	0.602677	0.422350
