data_Molecule from HDF5

_cell_length_a		16.249728
_cell_length_b		16.245493
_cell_length_c		16.374485
_cell_angle_alpha	89.937089
_cell_angle_beta	90.189086
_cell_angle_gamma	89.340987
_symmetry_space_group_name_H-M	'P 1'
_symmetry_Int_Tables_number		1

loop_
	_symmetry_equiv_pos_as_xyz
	x,y,z

loop_
	_atom_site_label
	_atom_site_type_symbol
	_atom_site_fract_x
	_atom_site_fract_y
	_atom_site_fract_z
	H0	H	0.398196	0.836425	0.709145
	H1	H	0.595424	0.162794	0.711215
	H2	H	0.599080	0.836193	0.280147
	H3	H	0.392078	0.162031	0.274390
	H4	H	0.713890	0.398505	0.831029
	H5	H	0.712735	0.594702	0.156479
	H6	H	0.279375	0.599924	0.833280
	H7	H	0.283301	0.397352	0.156923
	H8	H	0.832352	0.717133	0.395610
	H9	H	0.160813	0.712842	0.591277
	H10	H	0.831784	0.289377	0.592210
	H11	H	0.158127	0.283706	0.394907
	H12	H	0.833552	0.402171	0.711052
	H13	H	0.160159	0.600540	0.710693
	H14	H	0.834229	0.605545	0.274828
	H15	H	0.159972	0.398711	0.280457
	H16	H	0.396000	0.715280	0.832257
	H17	H	0.599981	0.713940	0.155628
	H18	H	0.597495	0.281509	0.831154
	H19	H	0.402019	0.283135	0.157395
	H20	H	0.712925	0.837339	0.396628
	H21	H	0.705878	0.165923	0.589481
	H22	H	0.284049	0.836236	0.591249
	H23	H	0.279113	0.164054	0.392469
	H24	H	0.897513	0.337810	0.211549
	H25	H	0.096407	0.663532	0.209972
	H26	H	0.101276	0.337213	0.776233
	H27	H	0.893747	0.663788	0.778406
	H28	H	0.213860	0.899484	0.331503
	H29	H	0.213899	0.103001	0.654778
	H30	H	0.777427	0.103507	0.331259
	H31	H	0.783820	0.904805	0.657097
	H32	H	0.334565	0.217809	0.893561
	H33	H	0.663000	0.207931	0.091081
	H34	H	0.334154	0.784427	0.092914
	H35	H	0.661124	0.781176	0.895711
	H36	H	0.334541	0.898385	0.211153
	H37	H	0.659257	0.098449	0.211957
	H38	H	0.333851	0.102265	0.777237
	H39	H	0.660273	0.895072	0.777072
	H40	H	0.891222	0.221120	0.331806
	H41	H	0.094609	0.217299	0.655407
	H42	H	0.097961	0.782524	0.331943
	H43	H	0.896910	0.786151	0.656086
	H44	H	0.214139	0.335113	0.896062
	H45	H	0.212394	0.662712	0.094770
	H46	H	0.787994	0.334060	0.090825
	H47	H	0.777871	0.661422	0.892781
	H48	H	0.408523	0.115665	0.588266
	H49	H	0.590780	0.882722	0.589536
	H50	H	0.586042	0.114847	0.408043
	H51	H	0.398604	0.881425	0.400669
	H52	H	0.588541	0.412631	0.105098
	H53	H	0.585775	0.585087	0.880264
	H54	H	0.403062	0.593785	0.111896
	H55	H	0.411174	0.407991	0.881220
	H56	H	0.111523	0.587190	0.400017
	H57	H	0.879457	0.593795	0.590654
	H58	H	0.109738	0.414503	0.582818
	H59	H	0.881273	0.415544	0.404391
	H60	H	0.113610	0.408968	0.591895
	H61	H	0.879165	0.598875	0.586360
	H62	H	0.114466	0.594462	0.398354
	H63	H	0.878938	0.415834	0.395662
	H64	H	0.404827	0.587318	0.108360
	H65	H	0.584958	0.593826	0.879207
	H66	H	0.587979	0.390655	0.111887
	H67	H	0.405104	0.405133	0.878411
	H68	H	0.592050	0.119449	0.396977
	H69	H	0.588737	0.884519	0.584947
	H70	H	0.404282	0.115212	0.582211
	H71	H	0.411671	0.884186	0.396208
	H72	H	0.901330	0.615470	0.084149
	H73	H	0.084692	0.385960	0.083836
	H74	H	0.083763	0.616057	0.895536
	H75	H	0.910136	0.386457	0.907962
	H76	H	0.090722	0.914862	0.606970
	H77	H	0.088864	0.094991	0.376820
	H78	H	0.902829	0.093271	0.607079
	H79	H	0.904253	0.910280	0.378582
	H80	H	0.612784	0.086201	0.899828
	H81	H	0.379899	0.095299	0.086455
	H82	H	0.612995	0.911803	0.091548
	H83	H	0.382323	0.915149	0.894656
	H84	H	0.616239	0.899964	0.089437
	H85	H	0.382946	0.091861	0.079127
	H86	H	0.614202	0.090728	0.899672
	H87	H	0.378385	0.900152	0.900200
	H88	H	0.904591	0.098280	0.609109
	H89	H	0.087708	0.088259	0.379680
	H90	H	0.083343	0.904890	0.607643
	H91	H	0.905248	0.910942	0.379039
	H92	H	0.083510	0.610993	0.909355
	H93	H	0.098098	0.382314	0.084806
	H94	H	0.905850	0.616342	0.088060
	H95	H	0.901158	0.380850	0.899201
	H96	H	0.400792	0.117347	0.588712
	H97	H	0.593905	0.882983	0.585567
	H98	H	0.579107	0.115580	0.396784
	H99	H	0.407605	0.886796	0.408885
	H100	H	0.607576	0.402954	0.113772
	H101	H	0.593042	0.589688	0.877328
	H102	H	0.410095	0.593109	0.108689
	H103	H	0.404802	0.411463	0.881217
	H104	H	0.111907	0.592671	0.406220
	H105	H	0.881663	0.593252	0.584585
	H106	H	0.112368	0.403384	0.581771
	H107	H	0.877831	0.408005	0.400439
	H108	H	0.906879	0.614454	0.082782
	H109	H	0.090086	0.381581	0.095830
	H110	H	0.096468	0.616786	0.903556
	H111	H	0.913908	0.383238	0.895038
	H112	H	0.095425	0.904471	0.610638
	H113	H	0.082098	0.093452	0.379034
	H114	H	0.898967	0.096908	0.609385
	H115	H	0.905273	0.909616	0.378921
	H116	H	0.612760	0.088106	0.903816
	H117	H	0.382336	0.085999	0.086079
	H118	H	0.610412	0.905830	0.080635
	H119	H	0.385060	0.911018	0.910367
	C120	C	0.375480	0.008264	0.615045
	C121	C	0.618399	0.991960	0.615393
	C122	C	0.617334	0.008814	0.372241
	C123	C	0.374955	0.991850	0.371831
	C124	C	0.622673	0.373815	0.002550
	C125	C	0.618431	0.618268	0.985757
	C126	C	0.375199	0.621589	0.003140
	C127	C	0.378385	0.377763	0.986894
	C128	C	0.004818	0.622451	0.371977
	C129	C	0.988236	0.623056	0.616056
	C130	C	0.004148	0.380578	0.614705
	C131	C	0.987304	0.380834	0.371951
	C132	C	0.876700	0.507704	0.114439
	C133	C	0.119503	0.491329	0.116686
	C134	C	0.118971	0.507031	0.873126
	C135	C	0.876189	0.491090	0.871646
	C136	C	0.119371	0.878105	0.501572
	C137	C	0.116428	0.122256	0.485231
	C138	C	0.872159	0.125366	0.501634
	C139	C	0.875934	0.881196	0.485893
	C140	C	0.505661	0.120215	0.871884
	C141	C	0.489348	0.119125	0.114258
	C142	C	0.505918	0.877043	0.116473
	C143	C	0.489615	0.877612	0.872839
	C144	C	0.377615	0.885298	0.670813
	C145	C	0.615421	0.114539	0.671848
	C146	C	0.617808	0.885443	0.317615
	C147	C	0.373739	0.113940	0.313930
	C148	C	0.676502	0.377285	0.879763
	C149	C	0.675292	0.615885	0.107766
	C150	C	0.317911	0.620244	0.881565
	C151	C	0.322672	0.378405	0.109059
	C152	C	0.881622	0.679642	0.373733
	C153	C	0.111740	0.676349	0.612871
	C154	C	0.880848	0.326663	0.612547
	C155	C	0.109741	0.322484	0.374784
	C156	C	0.881833	0.382664	0.671586
	C157	C	0.111220	0.620721	0.672406
	C158	C	0.882492	0.623863	0.314134
	C159	C	0.110708	0.379931	0.317956
	C160	C	0.375886	0.677720	0.881053
	C161	C	0.618725	0.674925	0.107460
	C162	C	0.618872	0.319208	0.879810
	C163	C	0.381468	0.321575	0.109063
	C164	C	0.674622	0.885872	0.375554
	C165	C	0.670438	0.116049	0.611722
	C166	C	0.320813	0.885500	0.612245
	C167	C	0.317446	0.114815	0.372506
	C168	C	0.878521	0.385665	0.171786
	C169	C	0.116685	0.614398	0.171865
	C170	C	0.119895	0.385413	0.815599
	C171	C	0.874911	0.614148	0.816029
	C172	C	0.175539	0.879535	0.379943
	C173	C	0.174119	0.121820	0.606521
	C174	C	0.815295	0.123863	0.379855
	C175	C	0.821112	0.883909	0.608188
	C176	C	0.383331	0.178695	0.873366
	C177	C	0.613103	0.172054	0.112312
	C178	C	0.383040	0.821880	0.113863
	C179	C	0.612329	0.819892	0.875032
	C180	C	0.383278	0.878780	0.172319
	C181	C	0.611267	0.117407	0.172401
	C182	C	0.382987	0.121586	0.815235
	C183	C	0.611847	0.876594	0.816293
	C184	C	0.872441	0.181869	0.379819
	C185	C	0.114983	0.178817	0.606821
	C186	C	0.117868	0.821343	0.380008
	C187	C	0.877624	0.825020	0.607781
	C188	C	0.176251	0.384434	0.875061
	C189	C	0.174454	0.613983	0.114432
	C190	C	0.824034	0.383938	0.111711
	C191	C	0.817024	0.613180	0.872891
	C192	C	0.397882	0.093931	0.592823
	C193	C	0.597290	0.905619	0.593136
	C194	C	0.592902	0.094587	0.394061
	C195	C	0.398880	0.906397	0.395191
	C196	C	0.601104	0.395470	0.087966
	C197	C	0.594755	0.595918	0.900869
	C198	C	0.398875	0.598300	0.087732
	C199	C	0.400464	0.401424	0.902291
	C200	C	0.090182	0.598466	0.394768
	C201	C	0.902520	0.601717	0.593646
	C202	C	0.089795	0.402399	0.592076
	C203	C	0.901586	0.405768	0.393765
	C204	C	0.898478	0.593324	0.091714
	C205	C	0.097549	0.405454	0.094663
	C206	C	0.094952	0.592476	0.896176
	C207	C	0.901348	0.405563	0.894106
	C208	C	0.096400	0.901107	0.586412
	C209	C	0.092939	0.099087	0.400477
	C210	C	0.895305	0.102808	0.586507
	C211	C	0.898539	0.903633	0.400825
	C212	C	0.591155	0.095590	0.894471
	C213	C	0.403801	0.097364	0.090832
	C214	C	0.591121	0.899335	0.093769
	C215	C	0.404082	0.901809	0.895309
	Zn216	Zn	0.497055	-0.001087	0.743790
	Zn217	Zn	0.496439	-0.000570	0.243943
	Zn218	Zn	0.748929	0.497832	-0.006715
	Zn219	Zn	0.247955	0.498540	-0.004516
	Zn220	Zn	-0.003766	0.750619	0.493826
	Zn221	Zn	-0.005396	0.252568	0.492689
	Zn222	Zn	-0.002842	0.500931	0.744002
	Zn223	Zn	-0.002998	0.500630	0.244059
	Zn224	Zn	0.497860	0.748740	-0.005651
	Zn225	Zn	0.498644	0.247676	-0.005682
	Zn226	Zn	0.745849	0.001831	0.493238
	Zn227	Zn	0.246818	0.001121	0.492986
	N228	N	0.410994	0.962564	0.672586
	N229	N	0.583903	0.036218	0.674350
	N230	N	0.582892	0.962908	0.315422
	N231	N	0.408809	0.036458	0.313393
	N232	N	0.678938	0.410412	0.956912
	N233	N	0.674963	0.581206	0.031106
	N234	N	0.317167	0.586158	0.958491
	N235	N	0.320261	0.412684	0.032236
	N236	N	0.958466	0.678748	0.409088
	N237	N	0.034309	0.678179	0.578728
	N238	N	0.957878	0.325128	0.577924
	N239	N	0.031990	0.323028	0.407687
	N240	N	0.959674	0.415356	0.673114
	N241	N	0.033448	0.588408	0.674479
	N242	N	0.960158	0.589213	0.312755
	N243	N	0.033402	0.415423	0.316011
	N244	N	0.410492	0.678695	0.957793
	N245	N	0.583907	0.676401	0.030792
	N246	N	0.586128	0.316944	0.957156
	N247	N	0.415212	0.321340	0.032131
	N248	N	0.674455	0.963608	0.408696
	N249	N	0.672293	0.038714	0.577544
	N250	N	0.319250	0.963153	0.578468
	N251	N	0.318024	0.037985	0.407643
	N252	N	0.910725	0.463667	0.173554
	N253	N	0.083456	0.536971	0.173606
	N254	N	0.085070	0.462905	0.814262
	N255	N	0.911092	0.537223	0.815327
	N256	N	0.176438	0.914126	0.456461
	N257	N	0.175205	0.087530	0.529843
	N258	N	0.815086	0.089360	0.456473
	N259	N	0.819878	0.918076	0.531371
	N260	N	0.460552	0.177940	0.907792
	N261	N	0.536337	0.173128	0.076759
	N262	N	0.460244	0.820695	0.079543
	N263	N	0.535277	0.820419	0.909364
	N264	N	0.460538	0.912156	0.174111
	N265	N	0.533279	0.085185	0.173642
	N266	N	0.460110	0.085867	0.814232
	N267	N	0.534329	0.911685	0.814635
	N268	N	0.907083	0.183105	0.456517
	N269	N	0.079769	0.179144	0.530234
	N270	N	0.083842	0.820053	0.456872
	N271	N	0.911013	0.823306	0.530730
	N272	N	0.175648	0.461241	0.910277
	N273	N	0.176402	0.536375	0.080898
	N274	N	0.823043	0.460701	0.076439
	N275	N	0.817549	0.535513	0.906557
	O276	O	1.072410	0.120049	1.039497
	H277	H	1.088346	0.113898	1.038870
	H278	H	1.064111	0.119282	1.029661
	O279	O	0.503071	0.459358	0.427154
	H280	H	0.497545	0.459837	0.421691
	H281	H	0.512823	0.464934	0.424047
	O282	O	0.864270	1.014478	-0.056431
	H283	H	0.860265	1.000243	-0.047579
	H284	H	0.857280	1.010036	-0.071678
	O285	O	0.947526	0.100530	0.924220
	H286	H	0.940170	0.107937	0.913310
	H287	H	0.949191	0.099577	0.911541
	O288	O	0.398977	0.504538	0.451723
	H289	H	0.401815	0.504884	0.460556
	H290	H	0.395327	0.500075	0.439416
	O291	O	0.525066	0.512458	0.448779
	H292	H	0.522556	0.520156	0.438025
	H293	H	0.513615	0.511673	0.449329
	O294	O	0.453110	0.580094	0.585209
	H295	H	0.456617	0.584302	0.576751
	H296	H	0.450061	0.569053	0.593186
	O297	O	-0.023177	0.099264	0.969897
	H298	H	-0.031515	0.089106	0.989906
	H299	H	-0.019950	0.109497	0.970690
	O300	O	0.154704	0.896814	0.079936
	H301	H	0.171181	0.897474	0.089750
	H302	H	0.148005	0.906003	0.064336
	O303	O	0.922952	0.961817	0.112361
	H304	H	0.934455	0.961552	0.112772
	H305	H	0.921401	0.955528	0.101877
	O306	O	-0.018201	1.027740	1.153805
	H307	H	-0.022587	1.032772	1.142678
	H308	H	-0.028916	1.022536	1.152683
	O309	O	0.446574	0.553946	0.507140
	H310	H	0.446852	0.539686	0.506696
	H311	H	0.449832	0.559765	0.509901
	O312	O	0.004954	-0.103837	-0.159465
	H313	H	0.000926	-0.089152	-0.154394
	H314	H	0.015245	-0.115679	-0.162406
	O315	O	1.060737	-0.031263	0.134443
	H316	H	1.059856	-0.027037	0.137894
	H317	H	1.054154	-0.026816	0.138000
	O318	O	0.909135	1.143931	1.035045
	H319	H	0.904509	1.148950	1.032423
	H320	H	0.910843	1.140956	1.034079
	O321	O	0.465114	0.515637	1.558527
	H322	H	0.464741	0.505848	1.561608
	H323	H	0.463134	0.517353	1.561209
	O324	O	0.425772	0.431495	0.546273
	H325	H	0.434551	0.440576	0.551882
	H326	H	0.431649	0.424636	0.547249
	O327	O	-0.077963	-0.062293	-0.019045
	H328	H	-0.076993	-0.067762	-0.024121
	H329	H	-0.077505	-0.048274	-0.027079
	O330	O	0.528243	0.447675	0.491236
	H331	H	0.528877	0.444449	0.479264
	H332	H	0.534243	0.457959	0.497915
	O333	O	-0.030007	1.063780	0.862354
	H334	H	-0.036519	1.067470	0.852421
	H335	H	-0.032091	1.060838	0.865800
	O336	O	0.026616	0.048726	-0.119229
	H337	H	0.022990	0.047591	-0.098769
	H338	H	0.017181	0.060369	-0.119315
	O339	O	0.405033	0.555192	0.539970
	H340	H	0.405075	0.548891	0.541514
	H341	H	0.404217	0.548754	0.546494
	O342	O	1.064324	0.973172	0.978059
	H343	H	1.058503	0.970795	0.977935
	H344	H	1.069915	0.963959	0.981229
	O345	O	1.094857	1.028893	0.013932
	H346	H	1.105652	1.042771	0.014781
	H347	H	1.093669	1.025137	0.008392
	O348	O	0.446212	0.435879	0.499909
	H349	H	0.444042	0.435123	0.487920
	H350	H	0.453156	0.447550	0.504858
	O351	O	1.056584	-0.043213	0.962128
	H352	H	1.055361	-0.043600	0.964096
	H353	H	1.047079	-0.051645	0.957249
	O354	O	0.573111	0.502878	0.385276
	H355	H	0.562695	0.501632	0.379886
	H356	H	0.582196	0.510929	0.377137
	O357	O	0.995900	-0.078121	1.035264
	H358	H	1.006170	-0.078855	1.036785
	H359	H	1.007538	-0.073770	1.019544
	O360	O	0.461399	0.474988	0.493872
	H361	H	0.461090	0.475502	0.483662
	H362	H	0.450508	0.479479	0.485128
	O363	O	0.545097	0.505314	0.583366
	H364	H	0.541764	0.497057	0.592646
	H365	H	0.551155	0.509296	0.580256
	O366	O	1.170929	0.883691	0.847873
	H367	H	1.179484	0.886532	0.858373
	H368	H	1.167590	0.894588	0.835944
	O369	O	1.097946	0.005004	0.955287
	H370	H	1.099316	0.010753	0.955713
	H371	H	1.100253	-0.005125	0.948727
	O372	O	-0.062457	-0.090054	-0.115747
	H373	H	-0.070218	-0.091518	-0.118663
	H374	H	-0.046936	-0.094897	-0.121265
	O375	O	0.880816	-0.020360	0.152416
	H376	H	0.876810	-0.024571	0.167241
	H377	H	0.876698	-0.029419	0.149698
	O378	O	0.478181	0.581224	0.468638
	H379	H	0.461493	0.588906	0.468292
	H380	H	0.471878	0.588954	0.465158
	O381	O	0.280835	0.637537	0.583670
	H382	H	0.281347	0.640058	0.582690
	H383	H	0.280008	0.630420	0.588556
