data_Molecule from HDF5

_cell_length_a		16.327584
_cell_length_b		16.298239
_cell_length_c		16.346554
_cell_angle_alpha	90.044726
_cell_angle_beta	90.006618
_cell_angle_gamma	90.084636
_symmetry_space_group_name_H-M	'P 1'
_symmetry_Int_Tables_number		1

loop_
	_symmetry_equiv_pos_as_xyz
	x,y,z

loop_
	_atom_site_label
	_atom_site_type_symbol
	_atom_site_fract_x
	_atom_site_fract_y
	_atom_site_fract_z
	H0	H	0.402660	0.836234	0.713730
	H1	H	0.599248	0.162889	0.714653
	H2	H	0.599439	0.837391	0.284236
	H3	H	0.401474	0.162986	0.284329
	H4	H	0.714212	0.402541	0.836960
	H5	H	0.714799	0.599396	0.163088
	H6	H	0.285292	0.597761	0.836547
	H7	H	0.285430	0.402792	0.163001
	H8	H	0.836732	0.713935	0.403485
	H9	H	0.164740	0.713321	0.597211
	H10	H	0.836764	0.285197	0.598056
	H11	H	0.164416	0.286779	0.403231
	H12	H	0.836746	0.401337	0.714865
	H13	H	0.164009	0.597771	0.715054
	H14	H	0.836522	0.596887	0.286666
	H15	H	0.163550	0.401354	0.285278
	H16	H	0.402231	0.713543	0.836690
	H17	H	0.597576	0.714661	0.162961
	H18	H	0.597354	0.286435	0.836742
	H19	H	0.400989	0.285492	0.163052
	H20	H	0.712975	0.835963	0.402482
	H21	H	0.714632	0.163396	0.597371
	H22	H	0.286740	0.835759	0.596104
	H23	H	0.286691	0.163714	0.402247
	H24	H	0.900968	0.336518	0.214905
	H25	H	0.098680	0.663399	0.215180
	H26	H	0.098053	0.336550	0.785893
	H27	H	0.901154	0.663655	0.785572
	H28	H	0.213786	0.902206	0.336734
	H29	H	0.214692	0.098804	0.662660
	H30	H	0.785974	0.097902	0.336558
	H31	H	0.784371	0.901898	0.662679
	H32	H	0.336285	0.213701	0.902311
	H33	H	0.663790	0.214141	0.097022
	H34	H	0.336621	0.786889	0.095966
	H35	H	0.663129	0.785932	0.901621
	H36	H	0.337389	0.900554	0.214581
	H37	H	0.663372	0.098002	0.213976
	H38	H	0.336164	0.097172	0.785896
	H39	H	0.663795	0.903260	0.786353
	H40	H	0.902414	0.214053	0.336290
	H41	H	0.096906	0.213632	0.663335
	H42	H	0.096828	0.786796	0.336190
	H43	H	0.902914	0.787304	0.664108
	H44	H	0.214004	0.336149	0.902095
	H45	H	0.215079	0.663226	0.098994
	H46	H	0.785160	0.336506	0.097720
	H47	H	0.786658	0.664679	0.903540
	H48	H	0.409095	0.114997	0.590646
	H49	H	0.601068	0.881916	0.589666
	H50	H	0.586582	0.116152	0.402293
	H51	H	0.414248	0.882381	0.394778
	H52	H	0.590587	0.409161	0.114174
	H53	H	0.591971	0.587733	0.886457
	H54	H	0.396523	0.591164	0.117963
	H55	H	0.410167	0.397033	0.882599
	H56	H	0.117576	0.600068	0.409335
	H57	H	0.883794	0.595503	0.595278
	H58	H	0.114171	0.403555	0.585490
	H59	H	0.884952	0.404713	0.409994
	H60	H	0.113467	0.415551	0.594940
	H61	H	0.885015	0.594131	0.591138
	H62	H	0.113189	0.588346	0.411579
	H63	H	0.886011	0.409988	0.407461
	H64	H	0.412743	0.585681	0.111503
	H65	H	0.589233	0.597691	0.884470
	H66	H	0.591987	0.403110	0.117034
	H67	H	0.395890	0.409586	0.881873
	H68	H	0.592746	0.113704	0.414175
	H69	H	0.593470	0.880821	0.602168
	H70	H	0.403291	0.117318	0.592866
	H71	H	0.412463	0.889290	0.417417
	H72	H	0.911088	0.615907	0.096281
	H73	H	0.097135	0.381220	0.095852
	H74	H	0.091139	0.616034	0.906798
	H75	H	0.905694	0.384816	0.909278
	H76	H	0.099750	0.909767	0.617278
	H77	H	0.088782	0.088192	0.386785
	H78	H	0.911186	0.092695	0.613987
	H79	H	0.908350	0.898082	0.382718
	H80	H	0.615471	0.087237	0.901265
	H81	H	0.385521	0.087002	0.094686
	H82	H	0.612125	0.912422	0.083604
	H83	H	0.381845	0.902496	0.903027
	H84	H	0.617379	0.913092	0.101951
	H85	H	0.382168	0.096393	0.095967
	H86	H	0.618908	0.100930	0.902519
	H87	H	0.384906	0.905505	0.910020
	H88	H	0.904597	0.097811	0.617568
	H89	H	0.091709	0.100115	0.382033
	H90	H	0.089350	0.908971	0.613688
	H91	H	0.898725	0.909247	0.382295
	H92	H	0.093394	0.615179	0.909510
	H93	H	0.089405	0.384126	0.096476
	H94	H	0.907333	0.615105	0.089220
	H95	H	0.904593	0.383882	0.905769
	H96	H	0.408373	0.117038	0.596852
	H97	H	0.587013	0.885635	0.589537
	H98	H	0.599692	0.119152	0.404078
	H99	H	0.393471	0.879653	0.405788
	H100	H	0.596814	0.407890	0.116293
	H101	H	0.599412	0.593881	0.882528
	H102	H	0.410476	0.603051	0.117437
	H103	H	0.413115	0.414737	0.887960
	H104	H	0.117444	0.591514	0.399826
	H105	H	0.884940	0.591064	0.594526
	H106	H	0.119419	0.402358	0.600105
	H107	H	0.883382	0.405653	0.404231
	H108	H	0.903187	0.617485	0.096101
	H109	H	0.093131	0.385004	0.089562
	H110	H	0.094407	0.616633	0.906491
	H111	H	0.908488	0.384660	0.906117
	H112	H	0.094494	0.900420	0.618317
	H113	H	0.101211	0.090887	0.382363
	H114	H	0.903115	0.088855	0.615552
	H115	H	0.912373	0.912169	0.387537
	H116	H	0.613692	0.093488	0.913584
	H117	H	0.385755	0.093356	0.087063
	H118	H	0.619009	0.897021	0.092322
	H119	H	0.384396	0.910462	0.903296
	C120	C	0.378503	0.008194	0.621464
	C121	C	0.621542	0.991402	0.621455
	C122	C	0.621185	0.008158	0.378412
	C123	C	0.378565	0.991778	0.377869
	C124	C	0.621613	0.378478	0.008189
	C125	C	0.621679	0.621839	0.991934
	C126	C	0.378308	0.621556	0.007994
	C127	C	0.377837	0.378443	0.991822
	C128	C	0.008084	0.621376	0.378906
	C129	C	0.992481	0.621629	0.622040
	C130	C	0.008001	0.378157	0.621907
	C131	C	0.992393	0.378033	0.378528
	C132	C	0.878238	0.508073	0.121920
	C133	C	0.121256	0.491708	0.121778
	C134	C	0.121255	0.507872	0.879050
	C135	C	0.878006	0.492407	0.878760
	C136	C	0.121926	0.878263	0.508258
	C137	C	0.121665	0.121484	0.491741
	C138	C	0.878272	0.121765	0.507772
	C139	C	0.878134	0.878418	0.491924
	C140	C	0.507821	0.121706	0.877930
	C141	C	0.492254	0.121279	0.121400
	C142	C	0.508505	0.878988	0.120992
	C143	C	0.491584	0.878396	0.877638
	C144	C	0.381687	0.884873	0.675913
	C145	C	0.619298	0.114374	0.676401
	C146	C	0.618827	0.885518	0.323087
	C147	C	0.380988	0.114446	0.322624
	C148	C	0.676265	0.381786	0.885419
	C149	C	0.676444	0.619442	0.114431
	C150	C	0.323483	0.618464	0.885357
	C151	C	0.323089	0.381681	0.114487
	C152	C	0.885400	0.675946	0.382273
	C153	C	0.115629	0.676133	0.618676
	C154	C	0.885478	0.322966	0.618821
	C155	C	0.115364	0.323548	0.381602
	C156	C	0.885385	0.380598	0.676762
	C157	C	0.115221	0.618829	0.677156
	C158	C	0.885179	0.618043	0.324267
	C159	C	0.114924	0.380737	0.323291
	C160	C	0.381429	0.676126	0.885479
	C161	C	0.618484	0.676959	0.114372
	C162	C	0.618480	0.324007	0.885392
	C163	C	0.380424	0.323402	0.114299
	C164	C	0.675565	0.885030	0.381427
	C165	C	0.676471	0.114562	0.618223
	C166	C	0.324122	0.884895	0.617832
	C167	C	0.324053	0.114861	0.381238
	C168	C	0.880647	0.385154	0.176838
	C169	C	0.118879	0.614763	0.176893
	C170	C	0.118790	0.385190	0.823633
	C171	C	0.880927	0.615081	0.823635
	C172	C	0.175929	0.881439	0.385216
	C173	C	0.176470	0.119050	0.614310
	C174	C	0.823637	0.118798	0.385073
	C175	C	0.822928	0.881447	0.614481
	C176	C	0.384868	0.176116	0.881434
	C177	C	0.614844	0.176619	0.118432
	C178	C	0.385367	0.824213	0.117632
	C179	C	0.614525	0.823542	0.880616
	C180	C	0.385795	0.880772	0.176346
	C181	C	0.614649	0.118915	0.176368
	C182	C	0.385024	0.118348	0.823494
	C183	C	0.614771	0.881536	0.823173
	C184	C	0.881792	0.176306	0.385193
	C185	C	0.118153	0.176253	0.614461
	C186	C	0.117982	0.824012	0.385144
	C187	C	0.881747	0.824464	0.615060
	C188	C	0.176256	0.384933	0.881618
	C189	C	0.176496	0.614744	0.119216
	C190	C	0.822873	0.385271	0.118865
	C191	C	0.823778	0.615452	0.882090
	C192	C	0.400421	0.094046	0.599976
	C193	C	0.600106	0.905070	0.600186
	C194	C	0.599467	0.094114	0.400572
	C195	C	0.400276	0.905830	0.399536
	C196	C	0.599659	0.400243	0.093840
	C197	C	0.599767	0.599622	0.906359
	C198	C	0.400125	0.599716	0.093577
	C199	C	0.399819	0.400514	0.906286
	C200	C	0.093914	0.599567	0.400699
	C201	C	0.906848	0.599726	0.600174
	C202	C	0.093629	0.400688	0.600083
	C203	C	0.906702	0.400232	0.400722
	C204	C	0.900495	0.593926	0.100149
	C205	C	0.099775	0.405757	0.100227
	C206	C	0.099329	0.593835	0.901245
	C207	C	0.899884	0.406399	0.900732
	C208	C	0.100835	0.899885	0.594185
	C209	C	0.100199	0.099431	0.405944
	C210	C	0.899796	0.099474	0.593601
	C211	C	0.899893	0.900113	0.406312
	C212	C	0.593845	0.100180	0.899505
	C213	C	0.406416	0.098903	0.098959
	C214	C	0.594018	0.900948	0.099034
	C215	C	0.406040	0.899880	0.899153
	Zn216	Zn	0.500247	-0.000213	0.749537
	Zn217	Zn	0.500524	-0.000149	0.250049
	Zn218	Zn	0.749909	0.500375	0.000123
	Zn219	Zn	0.249242	0.500200	0.000152
	Zn220	Zn	0.000528	0.750323	0.500606
	Zn221	Zn	0.000417	0.249956	0.499986
	Zn222	Zn	-0.000173	0.500063	0.750818
	Zn223	Zn	0.000196	0.499800	0.250000
	Zn224	Zn	0.499902	0.750500	-0.000046
	Zn225	Zn	0.499635	0.250162	-0.000164
	Zn226	Zn	0.749417	-0.000359	0.499553
	Zn227	Zn	0.250192	0.000001	0.499902
	N228	N	0.414570	0.962569	0.678452
	N229	N	0.585856	0.036819	0.678309
	N230	N	0.585883	0.963098	0.321205
	N231	N	0.414359	0.037012	0.320630
	N232	N	0.678238	0.415007	0.962772
	N233	N	0.678485	0.586019	0.037450
	N234	N	0.321467	0.585179	0.962546
	N235	N	0.321454	0.415282	0.037317
	N236	N	0.962718	0.677955	0.415569
	N237	N	0.038270	0.678072	0.585337
	N238	N	0.962770	0.321521	0.585419
	N239	N	0.038205	0.321990	0.415263
	N240	N	0.962523	0.414314	0.678739
	N241	N	0.037827	0.585536	0.679246
	N242	N	0.962642	0.585060	0.321953
	N243	N	0.037470	0.413780	0.321242
	N244	N	0.415034	0.677871	0.962521
	N245	N	0.584995	0.678586	0.037082
	N246	N	0.585111	0.322021	0.962611
	N247	N	0.413953	0.321507	0.037159
	N248	N	0.676933	0.962252	0.415250
	N249	N	0.677926	0.037166	0.584729
	N250	N	0.322317	0.962348	0.584527
	N251	N	0.322541	0.037594	0.414929
	N252	N	0.914525	0.462398	0.178540
	N253	N	0.085272	0.537505	0.178509
	N254	N	0.085334	0.462518	0.822203
	N255	N	0.913843	0.537439	0.821485
	N256	N	0.178393	0.914469	0.462571
	N257	N	0.178831	0.085673	0.536997
	N258	N	0.821477	0.085407	0.462450
	N259	N	0.820809	0.914420	0.537170
	N260	N	0.462287	0.178354	0.914464
	N261	N	0.537466	0.178150	0.084927
	N262	N	0.462533	0.822945	0.083999
	N263	N	0.537235	0.821518	0.913781
	N264	N	0.463236	0.914120	0.178606
	N265	N	0.537463	0.085339	0.178128
	N266	N	0.462549	0.085443	0.821175
	N267	N	0.537501	0.914841	0.821202
	N268	N	0.914956	0.178159	0.462389
	N269	N	0.084732	0.177562	0.537267
	N270	N	0.085151	0.821885	0.462682
	N271	N	0.915209	0.822469	0.537885
	N272	N	0.177820	0.462352	0.915269
	N273	N	0.178377	0.537194	0.085874
	N274	N	0.821369	0.462719	0.085407
	N275	N	0.821813	0.538039	0.915413
