data_Molecule from HDF5

_cell_length_a		16.333609
_cell_length_b		16.289773
_cell_length_c		16.286503
_cell_angle_alpha	90.268718
_cell_angle_beta	90.053150
_cell_angle_gamma	89.899022
_symmetry_space_group_name_H-M	'P 1'
_symmetry_Int_Tables_number		1

loop_
	_symmetry_equiv_pos_as_xyz
	x,y,z

loop_
	_atom_site_label
	_atom_site_type_symbol
	_atom_site_fract_x
	_atom_site_fract_y
	_atom_site_fract_z
	H0	H	0.403291	0.838679	0.718876
	H1	H	0.599992	0.165847	0.719420
	H2	H	0.601629	0.839608	0.288198
	H3	H	0.401662	0.165892	0.290838
	H4	H	0.715383	0.401118	0.840782
	H5	H	0.715632	0.603237	0.166601
	H6	H	0.284493	0.599849	0.840365
	H7	H	0.284557	0.404039	0.167089
	H8	H	0.838930	0.717773	0.405535
	H9	H	0.164631	0.716008	0.603772
	H10	H	0.837331	0.287851	0.600342
	H11	H	0.164895	0.286153	0.405027
	H12	H	0.837299	0.404233	0.717148
	H13	H	0.164621	0.599021	0.718970
	H14	H	0.837872	0.600537	0.290370
	H15	H	0.164372	0.402447	0.289056
	H16	H	0.401499	0.715450	0.839944
	H17	H	0.597694	0.716533	0.167891
	H18	H	0.597363	0.287784	0.840197
	H19	H	0.401202	0.288535	0.167754
	H20	H	0.716123	0.838417	0.404667
	H21	H	0.716730	0.165008	0.604818
	H22	H	0.288131	0.837840	0.602807
	H23	H	0.285077	0.164069	0.406164
	H24	H	0.901643	0.337267	0.217876
	H25	H	0.098356	0.664260	0.219929
	H26	H	0.097774	0.337723	0.790035
	H27	H	0.901911	0.665616	0.790889
	H28	H	0.217196	0.900332	0.341652
	H29	H	0.216053	0.101079	0.668016
	H30	H	0.787048	0.098920	0.341595
	H31	H	0.787593	0.904373	0.668192
	H32	H	0.337881	0.216432	0.906847
	H33	H	0.664355	0.218964	0.103199
	H34	H	0.336919	0.789330	0.102220
	H35	H	0.662490	0.784266	0.903562
	H36	H	0.338522	0.904888	0.219487
	H37	H	0.665577	0.102104	0.219478
	H38	H	0.338559	0.101553	0.789316
	H39	H	0.664366	0.903595	0.790384
	H40	H	0.903181	0.214269	0.340825
	H41	H	0.099486	0.216269	0.668374
	H42	H	0.100537	0.785092	0.341454
	H43	H	0.903643	0.788988	0.668830
	H44	H	0.215376	0.338823	0.903659
	H45	H	0.214524	0.665346	0.104538
	H46	H	0.785122	0.338042	0.101278
	H47	H	0.784948	0.665102	0.905966
	H48	H	0.400145	0.118813	0.593334
	H49	H	0.586022	0.888338	0.597379
	H50	H	0.594077	0.121585	0.402241
	H51	H	0.406304	0.885350	0.413868
	H52	H	0.588187	0.411512	0.118081
	H53	H	0.594410	0.604884	0.883342
	H54	H	0.411957	0.594742	0.118082
	H55	H	0.416938	0.404651	0.890219
	H56	H	0.119845	0.595122	0.403324
	H57	H	0.885847	0.600276	0.592220
	H58	H	0.119330	0.397848	0.595627
	H59	H	0.888629	0.413093	0.418932
	H60	H	0.113637	0.413474	0.589638
	H61	H	0.887854	0.589486	0.596975
	H62	H	0.116772	0.599745	0.418191
	H63	H	0.884764	0.412513	0.402606
	H64	H	0.405407	0.600731	0.121942
	H65	H	0.601163	0.586263	0.887505
	H66	H	0.594127	0.408264	0.121363
	H67	H	0.399113	0.402495	0.882972
	H68	H	0.585445	0.114711	0.417887
	H69	H	0.601411	0.886209	0.590292
	H70	H	0.409963	0.120264	0.606076
	H71	H	0.408685	0.884128	0.406883
	H72	H	0.903830	0.618720	0.099841
	H73	H	0.092730	0.386871	0.092627
	H74	H	0.087812	0.616032	0.913749
	H75	H	0.904157	0.383146	0.903175
	H76	H	0.092026	0.907660	0.620261
	H77	H	0.092907	0.096511	0.388125
	H78	H	0.912483	0.084368	0.617426
	H79	H	0.910577	0.912693	0.390117
	H80	H	0.618807	0.097776	0.909313
	H81	H	0.385380	0.098658	0.097608
	H82	H	0.617280	0.912177	0.101066
	H83	H	0.388720	0.919660	0.912822
	H84	H	0.617998	0.903153	0.095450
	H85	H	0.387028	0.093577	0.097734
	H86	H	0.616689	0.096166	0.914203
	H87	H	0.381513	0.907283	0.901293
	H88	H	0.914954	0.104836	0.621731
	H89	H	0.098521	0.091810	0.387861
	H90	H	0.097983	0.905147	0.622757
	H91	H	0.911038	0.904050	0.388580
	H92	H	0.095614	0.618148	0.915311
	H93	H	0.097061	0.384017	0.096642
	H94	H	0.909219	0.617134	0.099758
	H95	H	0.913592	0.387888	0.910446
	H96	H	0.416343	0.114554	0.592413
	H97	H	0.598444	0.881417	0.606685
	H98	H	0.604341	0.119474	0.418326
	H99	H	0.413969	0.887542	0.411982
	H100	H	0.594424	0.416040	0.119563
	H101	H	0.582818	0.591033	0.891628
	H102	H	0.402347	0.591714	0.119849
	H103	H	0.405076	0.418864	0.890111
	H104	H	0.114494	0.585098	0.413602
	H105	H	0.881880	0.598187	0.603936
	H106	H	0.118493	0.412181	0.606347
	H107	H	0.882957	0.398560	0.412015
	H108	H	0.906236	0.616449	0.095174
	H109	H	0.090811	0.384767	0.098532
	H110	H	0.092545	0.619497	0.908031
	H111	H	0.902366	0.385087	0.915868
	H112	H	0.097303	0.912030	0.620652
	H113	H	0.091751	0.089384	0.389526
	H114	H	0.897057	0.096254	0.625189
	H115	H	0.904333	0.908381	0.387266
	H116	H	0.617178	0.092418	0.910319
	H117	H	0.385316	0.096285	0.102458
	H118	H	0.614487	0.911902	0.090763
	H119	H	0.384785	0.902804	0.918722
	C120	C	0.380286	0.010017	0.626059
	C121	C	0.623238	0.993745	0.626641
	C122	C	0.623085	0.010426	0.383305
	C123	C	0.380607	0.993713	0.382999
	C124	C	0.621023	0.381487	0.011975
	C125	C	0.621332	0.623552	0.995645
	C126	C	0.377726	0.623907	0.011979
	C127	C	0.378483	0.380256	0.995761
	C128	C	0.009492	0.622406	0.383199
	C129	C	0.993005	0.623848	0.626574
	C130	C	0.009131	0.380071	0.625076
	C131	C	0.993059	0.379101	0.382127
	C132	C	0.878065	0.509468	0.125863
	C133	C	0.121979	0.493085	0.125555
	C134	C	0.121104	0.510058	0.882991
	C135	C	0.878057	0.493311	0.881771
	C136	C	0.123877	0.879339	0.513072
	C137	C	0.122858	0.122061	0.496421
	C138	C	0.879694	0.123004	0.513294
	C139	C	0.880216	0.880392	0.496722
	C140	C	0.509654	0.123899	0.883123
	C141	C	0.493556	0.124687	0.127167
	C142	C	0.509118	0.881455	0.124869
	C143	C	0.492399	0.880467	0.882204
	C144	C	0.383025	0.887138	0.680910
	C145	C	0.620333	0.116992	0.681474
	C146	C	0.621269	0.888081	0.326742
	C147	C	0.381876	0.116648	0.328278
	C148	C	0.676519	0.382211	0.889218
	C149	C	0.676947	0.622590	0.118119
	C150	C	0.322128	0.620985	0.889230
	C151	C	0.322941	0.383564	0.118450
	C152	C	0.887136	0.678753	0.385656
	C153	C	0.116006	0.678064	0.623994
	C154	C	0.886211	0.325591	0.621455
	C155	C	0.115992	0.323929	0.384563
	C156	C	0.886084	0.383351	0.679572
	C157	C	0.115860	0.620349	0.681626
	C158	C	0.886625	0.620583	0.328220
	C159	C	0.115664	0.381736	0.326862
	C160	C	0.380347	0.678208	0.888942
	C161	C	0.618658	0.679430	0.118524
	C162	C	0.618190	0.325652	0.888957
	C163	C	0.380846	0.326013	0.118837
	C164	C	0.678026	0.887404	0.384998
	C165	C	0.678548	0.116489	0.624560
	C166	C	0.325482	0.887016	0.623419
	C167	C	0.323969	0.115938	0.385571
	C168	C	0.881475	0.386200	0.179935
	C169	C	0.118990	0.616000	0.181585
	C170	C	0.118713	0.386732	0.827500
	C171	C	0.881123	0.616789	0.828314
	C172	C	0.179259	0.880528	0.390373
	C173	C	0.178068	0.120967	0.619301
	C174	C	0.824878	0.119722	0.390194
	C175	C	0.825153	0.883229	0.619428
	C176	C	0.386764	0.179057	0.885816
	C177	C	0.616115	0.180651	0.124343
	C178	C	0.385887	0.827002	0.122735
	C179	C	0.614556	0.823878	0.884078
	C180	C	0.386574	0.884443	0.180929
	C181	C	0.616494	0.122791	0.182251
	C182	C	0.387020	0.121775	0.827740
	C183	C	0.615272	0.882731	0.827594
	C184	C	0.882339	0.177170	0.389944
	C185	C	0.119865	0.178134	0.619490
	C186	C	0.121371	0.823354	0.390223
	C187	C	0.883088	0.826011	0.619751
	C188	C	0.176853	0.387326	0.884323
	C189	C	0.176923	0.616157	0.124273
	C190	C	0.823272	0.386594	0.122276
	C191	C	0.822642	0.616345	0.885159
	C192	C	0.402347	0.095802	0.603917
	C193	C	0.601633	0.907627	0.604519
	C194	C	0.601044	0.096473	0.406169
	C195	C	0.403183	0.907816	0.404699
	C196	C	0.598733	0.405028	0.097592
	C197	C	0.599319	0.600727	0.909570
	C198	C	0.400001	0.602086	0.097927
	C199	C	0.400705	0.402214	0.909879
	C200	C	0.094927	0.599751	0.405232
	C201	C	0.907260	0.602295	0.604271
	C202	C	0.095144	0.401541	0.603597
	C203	C	0.907554	0.401534	0.404504
	C204	C	0.899968	0.595192	0.104709
	C205	C	0.099979	0.407266	0.102675
	C206	C	0.098559	0.595678	0.905635
	C207	C	0.900223	0.407597	0.903429
	C208	C	0.102229	0.901890	0.598938
	C209	C	0.100686	0.099142	0.410613
	C210	C	0.901655	0.101519	0.599256
	C211	C	0.902171	0.902049	0.410785
	C212	C	0.595410	0.101936	0.904867
	C213	C	0.407916	0.102809	0.105529
	C214	C	0.594381	0.902880	0.102335
	C215	C	0.407145	0.903192	0.904369
	Zn216	Zn	0.501455	0.002672	0.754550
	Zn217	Zn	0.501863	0.002536	0.255004
	Zn218	Zn	0.749556	0.501710	0.003633
	Zn219	Zn	0.249943	0.502089	0.003715
	Zn220	Zn	0.001889	0.751653	0.504523
	Zn221	Zn	0.001699	0.250530	0.503624
	Zn222	Zn	0.000549	0.501944	0.754149
	Zn223	Zn	0.000822	0.501224	0.253802
	Zn224	Zn	0.499881	0.751975	0.003836
	Zn225	Zn	0.500891	0.252628	0.004634
	Zn226	Zn	0.751535	0.001371	0.504742
	Zn227	Zn	0.252026	0.001125	0.504506
	N228	N	0.416421	0.964648	0.682728
	N229	N	0.586651	0.039658	0.682916
	N230	N	0.587833	0.965584	0.325855
	N231	N	0.416314	0.039475	0.326609
	N232	N	0.678368	0.416264	0.966726
	N233	N	0.678873	0.588805	0.040691
	N234	N	0.320589	0.588035	0.966757
	N235	N	0.321582	0.416673	0.040898
	N236	N	0.964470	0.680011	0.419133
	N237	N	0.038727	0.680536	0.590671
	N238	N	0.963614	0.323423	0.588421
	N239	N	0.038675	0.322067	0.418176
	N240	N	0.963570	0.416592	0.681791
	N241	N	0.038406	0.587178	0.683158
	N242	N	0.963791	0.586586	0.326352
	N243	N	0.038376	0.415244	0.325272
	N244	N	0.414114	0.680283	0.966372
	N245	N	0.584567	0.679915	0.041279
	N246	N	0.584583	0.325122	0.966382
	N247	N	0.414717	0.323888	0.041509
	N248	N	0.679247	0.964779	0.419559
	N249	N	0.680636	0.038768	0.591299
	N250	N	0.323948	0.964334	0.589902
	N251	N	0.323013	0.038570	0.418828
	N252	N	0.914740	0.463689	0.182375
	N253	N	0.085458	0.538684	0.182270
	N254	N	0.084484	0.464039	0.826600
	N255	N	0.915004	0.539482	0.826111
	N256	N	0.181007	0.914534	0.467852
	N257	N	0.179887	0.086646	0.541941
	N258	N	0.823114	0.086794	0.467778
	N259	N	0.823402	0.916229	0.542066
	N260	N	0.464001	0.180274	0.919653
	N261	N	0.538773	0.182026	0.090962
	N262	N	0.462939	0.824777	0.088641
	N263	N	0.537313	0.822392	0.917357
	N264	N	0.463938	0.917579	0.182442
	N265	N	0.539349	0.088886	0.184142
	N266	N	0.464260	0.088276	0.825957
	N267	N	0.538416	0.917346	0.826420
	N268	N	0.915855	0.179219	0.467413
	N269	N	0.086500	0.179010	0.541884
	N270	N	0.087472	0.822640	0.467418
	N271	N	0.916680	0.824083	0.542172
	N272	N	0.178541	0.464942	0.917798
	N273	N	0.178857	0.538661	0.090160
	N274	N	0.820978	0.464203	0.089522
	N275	N	0.820681	0.538539	0.917687
	O276	O	0.507918	0.457210	-0.543556
	H277	H	0.502187	0.455338	-0.548395
	H278	H	0.517646	0.450759	-0.528571
	O279	O	0.100847	-0.027524	-0.052860
	H280	H	0.101345	-0.026057	-0.051130
	H281	H	0.107560	-0.034429	-0.058605
	O282	O	0.086256	-0.044484	1.018392
	H283	H	0.078823	-0.033132	1.018031
	H284	H	0.083114	-0.044696	1.013627
	O285	O	0.548801	0.534109	0.472629
	H286	H	0.541285	0.536935	0.465747
	H287	H	0.548545	0.527063	0.477553
	O288	O	0.500782	0.490725	0.513297
	H289	H	0.495435	0.489555	0.509600
	H290	H	0.502901	0.487044	0.513762
	O291	O	0.563788	0.448116	0.415374
	H292	H	0.571124	0.460458	0.423090
	H293	H	0.560582	0.444125	0.414723
	O294	O	0.008513	0.009953	0.067278
	H295	H	0.011391	0.003638	0.071484
	H296	H	0.009769	0.008523	0.078164
	O297	O	0.481106	0.490293	0.438324
	H298	H	0.482618	0.490550	0.445328
	H299	H	0.483491	0.486994	0.434140
	O300	O	0.484842	1.537087	0.472145
	H301	H	0.498675	1.538601	0.471704
	H302	H	0.487775	1.527064	0.464141
	O303	O	0.495359	0.581302	0.440146
	H304	H	0.487234	0.578336	0.444276
	H305	H	0.495376	0.572581	0.440169
	O306	O	0.065518	-0.022336	1.036044
	H307	H	0.075133	-0.029364	1.041044
	H308	H	0.069888	-0.020395	1.032352
	O309	O	1.068855	0.931187	1.048448
	H310	H	1.073206	0.925575	1.045429
	H311	H	1.074311	0.925503	1.046021
	O312	O	0.539372	0.519900	0.486552
	H313	H	0.549356	0.515183	0.476918
	H314	H	0.538912	0.533075	0.490992
	O315	O	0.519014	0.497850	0.494158
	H316	H	0.511225	0.502194	0.489909
	H317	H	0.527773	0.502415	0.492148
	O318	O	0.021741	0.979716	0.051991
	H319	H	0.016509	0.984795	0.062243
	H320	H	0.021366	0.985340	0.046514
	O321	O	0.527424	0.483470	0.440679
	H322	H	0.527253	0.500140	0.428204
	H323	H	0.520775	0.480373	0.443181
