data_Molecule from HDF5

_cell_length_a		16.325509
_cell_length_b		16.307968
_cell_length_c		16.322673
_cell_angle_alpha	89.951980
_cell_angle_beta	90.079863
_cell_angle_gamma	89.941780
_symmetry_space_group_name_H-M	'P 1'
_symmetry_Int_Tables_number		1

loop_
	_symmetry_equiv_pos_as_xyz
	x,y,z

loop_
	_atom_site_label
	_atom_site_type_symbol
	_atom_site_fract_x
	_atom_site_fract_y
	_atom_site_fract_z
	H0	H	0.407850	0.828777	0.709757
	H1	H	0.603649	0.156117	0.709710
	H2	H	0.603899	0.829521	0.281223
	H3	H	0.407373	0.156419	0.281695
	H4	H	0.719777	0.394679	0.831931
	H5	H	0.719655	0.590183	0.159295
	H6	H	0.291489	0.590558	0.831805
	H7	H	0.291550	0.395116	0.158995
	H8	H	0.842281	0.707975	0.397637
	H9	H	0.169360	0.705934	0.592784
	H10	H	0.842174	0.278070	0.593883
	H11	H	0.168947	0.279421	0.399179
	H12	H	0.841990	0.395126	0.709996
	H13	H	0.168677	0.590781	0.710215
	H14	H	0.842187	0.591494	0.281054
	H15	H	0.169292	0.394943	0.282587
	H16	H	0.407465	0.707360	0.831769
	H17	H	0.603693	0.707044	0.159101
	H18	H	0.604165	0.277356	0.832615
	H19	H	0.407456	0.278374	0.159171
	H20	H	0.719474	0.829347	0.397720
	H21	H	0.719393	0.156550	0.593220
	H22	H	0.291027	0.829069	0.594195
	H23	H	0.290269	0.155936	0.396417
	H24	H	0.906127	0.329318	0.211373
	H25	H	0.102450	0.656573	0.209333
	H26	H	0.103330	0.329292	0.781842
	H27	H	0.907307	0.656609	0.781220
	H28	H	0.218852	0.895139	0.332186
	H29	H	0.220159	0.091454	0.659015
	H30	H	0.791358	0.091270	0.331764
	H31	H	0.792189	0.895923	0.659367
	H32	H	0.342175	0.208555	0.896740
	H33	H	0.668650	0.206844	0.093826
	H34	H	0.341992	0.778819	0.092888
	H35	H	0.668854	0.779163	0.897437
	H36	H	0.342000	0.894289	0.210171
	H37	H	0.668404	0.091554	0.210970
	H38	H	0.341777	0.093385	0.779051
	H39	H	0.668411	0.894487	0.781252
	H40	H	0.907628	0.207206	0.331662
	H41	H	0.102991	0.206386	0.658338
	H42	H	0.103748	0.778057	0.332368
	H43	H	0.908786	0.779205	0.659705
	H44	H	0.219317	0.328804	0.898228
	H45	H	0.218758	0.656928	0.093308
	H46	H	0.791358	0.329103	0.093574
	H47	H	0.790754	0.656719	0.896787
	H48	H	0.413166	0.110346	0.594834
	H49	H	0.593427	0.877866	0.589266
	H50	H	0.606768	0.111597	0.403755
	H51	H	0.407621	0.874897	0.400923
	H52	H	0.601811	0.398329	0.113017
	H53	H	0.596720	0.585985	0.880126
	H54	H	0.404801	0.580776	0.112916
	H55	H	0.412789	0.401386	0.880208
	H56	H	0.124776	0.591703	0.396726
	H57	H	0.889731	0.580713	0.592480
	H58	H	0.119585	0.400272	0.583263
	H59	H	0.887371	0.397775	0.397950
	H60	H	0.121913	0.404398	0.594752
	H61	H	0.886632	0.592512	0.590928
	H62	H	0.119938	0.588329	0.409740
	H63	H	0.889846	0.396893	0.408072
	H64	H	0.419898	0.583196	0.107946
	H65	H	0.599529	0.587613	0.879611
	H66	H	0.598561	0.402125	0.110332
	H67	H	0.412807	0.399709	0.879110
	H68	H	0.594160	0.110114	0.394287
	H69	H	0.602923	0.877372	0.584317
	H70	H	0.418699	0.105497	0.583686
	H71	H	0.416494	0.876587	0.399433
	H72	H	0.914326	0.608182	0.090254
	H73	H	0.115681	0.372695	0.087759
	H74	H	0.101411	0.608034	0.908586
	H75	H	0.909150	0.376348	0.904139
	H76	H	0.103547	0.904721	0.612114
	H77	H	0.102822	0.082404	0.379057
	H78	H	0.922909	0.092282	0.609778
	H79	H	0.904426	0.899126	0.377575
	H80	H	0.618952	0.081178	0.904232
	H81	H	0.388215	0.087821	0.090338
	H82	H	0.623951	0.895241	0.092380
	H83	H	0.390483	0.900477	0.907005
	H84	H	0.620130	0.898429	0.082655
	H85	H	0.389755	0.086925	0.087143
	H86	H	0.622303	0.085641	0.898700
	H87	H	0.390047	0.904511	0.898329
	H88	H	0.901801	0.090347	0.615269
	H89	H	0.093389	0.083700	0.381087
	H90	H	0.091943	0.899623	0.609509
	H91	H	0.915381	0.907128	0.382868
	H92	H	0.101081	0.610896	0.897449
	H93	H	0.092168	0.374803	0.104660
	H94	H	0.912910	0.607994	0.086193
	H95	H	0.913392	0.376989	0.898964
	H96	H	0.405610	0.109003	0.583694
	H97	H	0.601979	0.874227	0.595124
	H98	H	0.593195	0.105723	0.409956
	H99	H	0.412844	0.878018	0.407522
	H100	H	0.596338	0.397499	0.111587
	H101	H	0.599411	0.584189	0.879510
	H102	H	0.410983	0.594976	0.113965
	H103	H	0.410991	0.400694	0.879797
	H104	H	0.120680	0.578684	0.399509
	H105	H	0.891666	0.585944	0.581840
	H106	H	0.124381	0.392814	0.592143
	H107	H	0.891106	0.406015	0.403155
	H108	H	0.910332	0.609408	0.089017
	H109	H	0.089675	0.382738	0.076526
	H110	H	0.092016	0.607337	0.903016
	H111	H	0.914950	0.379108	0.905388
	H112	H	0.101685	0.892306	0.614143
	H113	H	0.098562	0.090939	0.377835
	H114	H	0.912770	0.073394	0.607251
	H115	H	0.917243	0.893290	0.379379
	H116	H	0.620337	0.088343	0.905659
	H117	H	0.388827	0.084279	0.089666
	H118	H	0.619632	0.905329	0.091594
	H119	H	0.386805	0.895350	0.899391
	C120	C	0.384039	0.000519	0.616516
	C121	C	0.627482	0.984593	0.617600
	C122	C	0.627038	0.001091	0.374039
	C123	C	0.383493	0.984301	0.374053
	C124	C	0.627190	0.371106	0.003740
	C125	C	0.627300	0.614334	0.987524
	C126	C	0.383705	0.614480	0.003444
	C127	C	0.384382	0.372051	0.987602
	C128	C	0.013682	0.614922	0.373666
	C129	C	0.997357	0.614439	0.616924
	C130	C	0.013907	0.370829	0.618134
	C131	C	0.997454	0.371740	0.374606
	C132	C	0.883962	0.500822	0.117410
	C133	C	0.127484	0.484685	0.117851
	C134	C	0.126665	0.500632	0.874511
	C135	C	0.883566	0.485020	0.874037
	C136	C	0.127105	0.871084	0.504023
	C137	C	0.127078	0.113885	0.487031
	C138	C	0.883763	0.114640	0.503306
	C139	C	0.884255	0.871222	0.487557
	C140	C	0.513010	0.114306	0.873742
	C141	C	0.497302	0.114237	0.117178
	C142	C	0.513396	0.871228	0.117216
	C143	C	0.496854	0.871698	0.873805
	C144	C	0.386597	0.877877	0.672331
	C145	C	0.624511	0.107390	0.672248
	C146	C	0.624511	0.878293	0.319214
	C147	C	0.386759	0.107564	0.319369
	C148	C	0.682792	0.373188	0.880943
	C149	C	0.682178	0.611323	0.110497
	C150	C	0.328804	0.611729	0.880601
	C151	C	0.329580	0.374602	0.110464
	C152	C	0.891065	0.670095	0.376888
	C153	C	0.120562	0.668342	0.613794
	C154	C	0.891007	0.315726	0.614715
	C155	C	0.120206	0.316580	0.377515
	C156	C	0.890635	0.374027	0.672036
	C157	C	0.120259	0.610912	0.671844
	C158	C	0.890974	0.612550	0.318834
	C159	C	0.120388	0.374552	0.320234
	C160	C	0.386917	0.669207	0.880527
	C161	C	0.624713	0.669340	0.110312
	C162	C	0.624908	0.315430	0.881079
	C163	C	0.387378	0.317023	0.110531
	C164	C	0.681923	0.878221	0.377121
	C165	C	0.681809	0.107607	0.613946
	C166	C	0.328851	0.877767	0.614663
	C167	C	0.328115	0.107148	0.376165
	C168	C	0.886286	0.378071	0.172809
	C169	C	0.123706	0.607820	0.172029
	C170	C	0.124260	0.377943	0.819466
	C171	C	0.886346	0.607879	0.818814
	C172	C	0.181645	0.873752	0.381032
	C173	C	0.181968	0.110994	0.610152
	C174	C	0.829262	0.111827	0.380383
	C175	C	0.829506	0.874356	0.610665
	C176	C	0.390570	0.170463	0.875823
	C177	C	0.619895	0.169255	0.114459
	C178	C	0.390572	0.816645	0.113926
	C179	C	0.619879	0.816639	0.876725
	C180	C	0.390665	0.873605	0.172321
	C181	C	0.619850	0.111715	0.172527
	C182	C	0.390355	0.112845	0.817752
	C183	C	0.619828	0.874170	0.819101
	C184	C	0.886877	0.169480	0.380340
	C185	C	0.124225	0.168735	0.609906
	C186	C	0.124097	0.816168	0.381078
	C187	C	0.887796	0.816827	0.610878
	C188	C	0.181750	0.377737	0.877465
	C189	C	0.181464	0.607796	0.114261
	C190	C	0.828895	0.377921	0.114588
	C191	C	0.828559	0.607893	0.876428
	C192	C	0.406019	0.086169	0.593957
	C193	C	0.605908	0.898471	0.595955
	C194	C	0.604665	0.087036	0.396244
	C195	C	0.405752	0.898551	0.396196
	C196	C	0.605408	0.392847	0.089497
	C197	C	0.605230	0.592366	0.901832
	C198	C	0.405528	0.592624	0.089426
	C199	C	0.405889	0.393943	0.901867
	C200	C	0.099521	0.592760	0.395519
	C201	C	0.911521	0.592701	0.595006
	C202	C	0.099724	0.392766	0.596654
	C203	C	0.911590	0.393874	0.396453
	C204	C	0.905936	0.586418	0.094993
	C205	C	0.105543	0.398755	0.096028
	C206	C	0.104585	0.586491	0.896363
	C207	C	0.906055	0.399412	0.896242
	C208	C	0.105493	0.892625	0.589620
	C209	C	0.104804	0.092076	0.401332
	C210	C	0.905906	0.092110	0.588810
	C211	C	0.905844	0.893402	0.402172
	C212	C	0.598420	0.091635	0.896290
	C213	C	0.411158	0.092653	0.095603
	C214	C	0.598948	0.893328	0.095445
	C215	C	0.411381	0.893514	0.895437
	Zn216	Zn	0.505229	-0.007051	0.745415
	Zn217	Zn	0.505294	-0.007413	0.245762
	Zn218	Zn	0.755417	0.492842	-0.004344
	Zn219	Zn	0.255561	0.492755	-0.004337
	Zn220	Zn	0.005964	0.742832	0.495792
	Zn221	Zn	0.005586	0.242643	0.495475
	Zn222	Zn	0.005199	0.492867	0.745854
	Zn223	Zn	0.005480	0.492621	0.245841
	Zn224	Zn	0.505277	0.743218	-0.004414
	Zn225	Zn	0.505080	0.242704	-0.004523
	Zn226	Zn	0.755366	-0.007091	0.495318
	Zn227	Zn	0.255414	-0.007769	0.495556
	N228	N	0.420140	0.955256	0.673615
	N229	N	0.591512	0.029805	0.674502
	N230	N	0.591051	0.955677	0.317236
	N231	N	0.420478	0.030224	0.317819
	N232	N	0.684271	0.407041	0.958160
	N233	N	0.683719	0.577708	0.033296
	N234	N	0.326726	0.578488	0.958137
	N235	N	0.327842	0.408176	0.033152
	N236	N	0.968536	0.671584	0.410242
	N237	N	0.043267	0.670572	0.580597
	N238	N	0.968700	0.313546	0.581829
	N239	N	0.042977	0.315190	0.410941
	N240	N	0.967875	0.407192	0.674529
	N241	N	0.042511	0.578005	0.673896
	N242	N	0.968107	0.578946	0.316760
	N243	N	0.042921	0.407892	0.318160
	N244	N	0.420330	0.670944	0.957933
	N245	N	0.591239	0.671366	0.032839
	N246	N	0.591160	0.313941	0.958154
	N247	N	0.420740	0.315332	0.033119
	N248	N	0.683395	0.955640	0.410390
	N249	N	0.683644	0.030170	0.580825
	N250	N	0.327109	0.954979	0.580802
	N251	N	0.326383	0.029673	0.409636
	N252	N	0.919603	0.455465	0.174877
	N253	N	0.090607	0.530275	0.174240
	N254	N	0.090621	0.455231	0.817654
	N255	N	0.919803	0.530539	0.817320
	N256	N	0.183622	0.907154	0.458176
	N257	N	0.183567	0.077532	0.532761
	N258	N	0.827128	0.078507	0.457692
	N259	N	0.827112	0.907644	0.533217
	N260	N	0.467425	0.171108	0.910282
	N261	N	0.542591	0.170911	0.080689
	N262	N	0.467866	0.814959	0.080514
	N263	N	0.542631	0.814992	0.910180
	N264	N	0.467965	0.907265	0.174178
	N265	N	0.542580	0.078201	0.174059
	N266	N	0.467534	0.078683	0.816469
	N267	N	0.542574	0.907638	0.817147
	N268	N	0.920102	0.171392	0.457899
	N269	N	0.090719	0.170711	0.532707
	N270	N	0.090795	0.814422	0.458474
	N271	N	0.920682	0.814603	0.533388
	N272	N	0.183499	0.455149	0.910776
	N273	N	0.183864	0.530245	0.081346
	N274	N	0.827489	0.455088	0.080618
	N275	N	0.826606	0.530497	0.910028
	O276	O	0.917788	0.029437	0.911510
	H277	H	0.914080	0.023509	0.906006
	H278	H	0.919889	0.030914	0.902993
	O279	O	-0.074297	1.021809	0.960504
	H280	H	-0.079193	1.028837	0.953222
	H281	H	-0.074503	1.018701	0.958116
	O282	O	0.920245	0.998761	-0.014309
	H283	H	0.911995	0.992412	-0.013129
	H284	H	0.923069	1.012918	-0.017630
	O285	O	-0.077973	0.989647	0.950796
	H286	H	-0.077374	0.986407	0.961546
	H287	H	-0.080200	0.990283	0.956001
