data_Molecule from HDF5

_cell_length_a		16.569045
_cell_length_b		16.646521
_cell_length_c		16.596398
_cell_angle_alpha	89.918643
_cell_angle_beta	90.097002
_cell_angle_gamma	90.045905
_symmetry_space_group_name_H-M	'P 1'
_symmetry_Int_Tables_number		1

loop_
	_symmetry_equiv_pos_as_xyz
	x,y,z

loop_
	_atom_site_label
	_atom_site_type_symbol
	_atom_site_fract_x
	_atom_site_fract_y
	_atom_site_fract_z
	H0	H	0.378433	0.866411	0.724555
	H1	H	0.587026	0.178005	0.720908
	H2	H	0.588387	0.863005	0.282179
	H3	H	0.375206	0.173055	0.275972
	H4	H	0.704408	0.416958	0.847394
	H5	H	0.704851	0.625590	0.158632
	H6	H	0.265692	0.620739	0.845410
	H7	H	0.262746	0.411924	0.159678
	H8	H	0.826997	0.739866	0.399311
	H9	H	0.141012	0.740646	0.607387
	H10	H	0.828015	0.299545	0.607369
	H11	H	0.140850	0.300299	0.398762
	H12	H	0.828332	0.416517	0.723158
	H13	H	0.141421	0.623473	0.722715
	H14	H	0.827708	0.624837	0.282601
	H15	H	0.143130	0.420304	0.286889
	H16	H	0.382098	0.737306	0.844338
	H17	H	0.589505	0.742488	0.157609
	H18	H	0.588615	0.298872	0.847265
	H19	H	0.378211	0.295768	0.158670
	H20	H	0.705461	0.863915	0.398249
	H21	H	0.703022	0.177644	0.604813
	H22	H	0.262390	0.865282	0.606946
	H23	H	0.260164	0.174401	0.393335
	H24	H	0.880157	0.365350	0.225126
	H25	H	0.087266	0.677723	0.221592
	H26	H	0.087006	0.363118	0.784668
	H27	H	0.876160	0.673421	0.777862
	H28	H	0.209361	0.910218	0.349275
	H29	H	0.204349	0.123992	0.658187
	H30	H	0.759459	0.128008	0.348106
	H31	H	0.764019	0.917048	0.659509
	H32	H	0.328107	0.241489	0.897866
	H33	H	0.638646	0.243590	0.110976
	H34	H	0.327569	0.798316	0.107098
	H35	H	0.640453	0.801535	0.897516
	H36	H	0.328979	0.911315	0.225237
	H37	H	0.639570	0.125849	0.224881
	H38	H	0.327870	0.126258	0.781078
	H39	H	0.640923	0.920089	0.784171
	H40	H	0.876681	0.243690	0.347756
	H41	H	0.088651	0.240181	0.658164
	H42	H	0.092479	0.794898	0.349352
	H43	H	0.880150	0.801461	0.659825
	H44	H	0.202146	0.362240	0.903310
	H45	H	0.204204	0.677276	0.105462
	H46	H	0.762046	0.365642	0.109941
	H47	H	0.760037	0.673447	0.893674
	H48	H	0.392456	0.131722	0.587985
	H49	H	0.574573	0.908443	0.594728
	H50	H	0.574994	0.130986	0.415802
	H51	H	0.402984	0.912953	0.415565
	H52	H	0.571402	0.426792	0.115595
	H53	H	0.581600	0.610039	0.887348
	H54	H	0.398280	0.615267	0.114604
	H55	H	0.386233	0.436651	0.891159
	H56	H	0.095990	0.615644	0.421157
	H57	H	0.872402	0.607066	0.593980
	H58	H	0.095343	0.435410	0.591891
	H59	H	0.874131	0.436343	0.413522
	H60	H	0.098852	0.428091	0.598521
	H61	H	0.870986	0.613656	0.593216
	H62	H	0.093455	0.602372	0.414407
	H63	H	0.871014	0.429806	0.411362
	H64	H	0.390224	0.610648	0.117503
	H65	H	0.570720	0.604328	0.892849
	H66	H	0.575675	0.434373	0.116111
	H67	H	0.403474	0.434749	0.896381
	H68	H	0.571411	0.131752	0.409049
	H69	H	0.573007	0.909467	0.593410
	H70	H	0.392854	0.133507	0.593383
	H71	H	0.392550	0.910484	0.421334
	H72	H	0.897856	0.629986	0.088734
	H73	H	0.077483	0.406908	0.096882
	H74	H	0.075761	0.631180	0.913340
	H75	H	0.898701	0.409928	0.913913
	H76	H	0.075636	0.931123	0.615419
	H77	H	0.065823	0.111515	0.392211
	H78	H	0.900624	0.109492	0.612703
	H79	H	0.897801	0.932279	0.393057
	H80	H	0.594212	0.103743	0.914786
	H81	H	0.373750	0.107696	0.085489
	H82	H	0.595218	0.934898	0.094212
	H83	H	0.370142	0.924072	0.914683
	H84	H	0.597890	0.926147	0.092202
	H85	H	0.374948	0.102924	0.087517
	H86	H	0.598650	0.110774	0.907264
	H87	H	0.372755	0.934709	0.915058
	H88	H	0.892116	0.115687	0.617347
	H89	H	0.074526	0.113754	0.387699
	H90	H	0.070824	0.937203	0.611697
	H91	H	0.894237	0.927369	0.389398
	H92	H	0.074981	0.631934	0.912408
	H93	H	0.074732	0.407860	0.097577
	H94	H	0.892110	0.632438	0.090858
	H95	H	0.896540	0.410818	0.918379
	H96	H	0.397134	0.131193	0.591204
	H97	H	0.574877	0.908324	0.592580
	H98	H	0.568055	0.128140	0.414769
	H99	H	0.393895	0.907089	0.409685
	H100	H	0.567449	0.433737	0.111990
	H101	H	0.570324	0.617176	0.888728
	H102	H	0.397062	0.605983	0.112602
	H103	H	0.395056	0.421228	0.888923
	H104	H	0.100087	0.613601	0.407284
	H105	H	0.872861	0.609860	0.588102
	H106	H	0.097459	0.425722	0.588498
	H107	H	0.872808	0.430300	0.418845
	H108	H	0.897014	0.631984	0.095155
	H109	H	0.075867	0.408148	0.094778
	H110	H	0.074226	0.631324	0.913721
	H111	H	0.894231	0.408421	0.914743
	H112	H	0.067201	0.929011	0.613037
	H113	H	0.073097	0.104280	0.391321
	H114	H	0.890285	0.104639	0.613865
	H115	H	0.891600	0.933429	0.390080
	H116	H	0.595308	0.114995	0.917001
	H117	H	0.373820	0.106266	0.090909
	H118	H	0.593105	0.931618	0.085496
	H119	H	0.368951	0.930396	0.905973
	C120	C	0.362012	0.029630	0.623726
	C121	C	0.605061	1.012768	0.623697
	C122	C	0.604811	0.027607	0.381244
	C123	C	0.362167	1.011401	0.380455
	C124	C	0.604525	0.399106	0.011619
	C125	C	0.605961	0.642444	0.993429
	C126	C	0.363722	0.640877	0.010770
	C127	C	0.363161	0.398297	0.995629
	C128	C	-0.007405	0.641921	0.382236
	C129	C	0.975857	0.641460	0.624022
	C130	C	-0.006603	0.398359	0.624209
	C131	C	0.976434	0.400627	0.382886
	C132	C	0.863222	0.528868	0.124342
	C133	C	0.107140	0.511639	0.126175
	C134	C	0.106045	0.528019	0.882490
	C135	C	0.863457	0.511685	0.882010
	C136	C	0.104937	0.899102	0.511285
	C137	C	0.104347	0.141360	0.493537
	C138	C	0.861802	0.142479	0.511359
	C139	C	0.862871	0.899698	0.494472
	C140	C	0.492794	0.142039	0.880930
	C141	C	0.476205	0.139832	0.122819
	C142	C	0.492591	0.897854	0.123361
	C143	C	0.474972	0.899488	0.880787
	C144	C	0.359695	0.912872	0.684368
	C145	C	0.605600	0.130930	0.681316
	C146	C	0.607068	0.910079	0.321814
	C147	C	0.357875	0.126921	0.317412
	C148	C	0.664645	0.397495	0.894176
	C149	C	0.665165	0.644145	0.111377
	C150	C	0.305229	0.640332	0.892378
	C151	C	0.302939	0.394689	0.112836
	C152	C	0.874369	0.700499	0.380632
	C153	C	0.093910	0.700606	0.625849
	C154	C	0.875175	0.339333	0.625920
	C155	C	0.094299	0.340994	0.381264
	C156	C	0.875348	0.397359	0.683295
	C157	C	0.093951	0.642531	0.683367
	C158	C	0.874733	0.643252	0.322679
	C159	C	0.095138	0.400341	0.325201
	C160	C	0.362864	0.698289	0.891881
	C161	C	0.607986	0.702450	0.110782
	C162	C	0.607320	0.338922	0.894263
	C163	C	0.360256	0.336689	0.112359
	C164	C	0.665222	0.910540	0.379589
	C165	C	0.663614	0.130521	0.623811
	C166	C	0.302293	0.912139	0.625855
	C167	C	0.300429	0.127599	0.375582
	C168	C	0.861323	0.412059	0.184808
	C169	C	0.107077	0.630487	0.182933
	C170	C	0.106146	0.410029	0.824412
	C171	C	0.859081	0.627227	0.819365
	C172	C	0.167527	0.893833	0.395405
	C173	C	0.164621	0.142775	0.611025
	C174	C	0.800492	0.145745	0.394435
	C175	C	0.803547	0.898271	0.612249
	C176	C	0.374942	0.201840	0.879008
	C177	C	0.592313	0.202160	0.127645
	C178	C	0.375024	0.837649	0.125790
	C179	C	0.593236	0.841043	0.879293
	C180	C	0.375482	0.894305	0.184256
	C181	C	0.592737	0.143379	0.184364
	C182	C	0.374741	0.144486	0.821170
	C183	C	0.593445	0.899806	0.822622
	C184	C	0.858676	0.203154	0.394286
	C185	C	0.107199	0.200770	0.610910
	C186	C	0.109734	0.836105	0.395403
	C187	C	0.861296	0.840602	0.612545
	C188	C	0.163111	0.409471	0.883473
	C189	C	0.165402	0.629959	0.125470
	C190	C	0.802528	0.412206	0.127701
	C191	C	0.801431	0.627386	0.877179
	C192	C	0.387020	0.111039	0.598248
	C193	C	0.581089	0.930202	0.600154
	C194	C	0.578983	0.109118	0.406100
	C195	C	0.388797	0.931044	0.407671
	C196	C	0.578846	0.424279	0.093296
	C197	C	0.581200	0.617791	0.911100
	C198	C	0.388190	0.617290	0.093295
	C199	C	0.387871	0.423677	0.913612
	C200	C	0.075117	0.617530	0.407054
	C201	C	0.893511	0.617133	0.599043
	C202	C	0.075674	0.422740	0.599858
	C203	C	0.894124	0.425071	0.407473
	C204	C	0.888482	0.610350	0.098895
	C205	C	0.083062	0.429118	0.103141
	C206	C	0.081973	0.610213	0.906279
	C207	C	0.889367	0.430697	0.908333
	C208	C	0.078591	0.925140	0.592296
	C209	C	0.078623	0.116776	0.411616
	C210	C	0.887194	0.117131	0.593342
	C211	C	0.887487	0.924121	0.412082
	C212	C	0.574596	0.116918	0.905776
	C213	C	0.395264	0.113024	0.095578
	C214	C	0.574275	0.923528	0.097897
	C215	C	0.392320	0.922948	0.904820
	Zn216	Zn	0.483569	0.021546	0.752600
	Zn217	Zn	0.483621	0.018886	0.251887
	Zn218	Zn	0.733815	0.520312	0.003064
	Zn219	Zn	0.235202	0.519418	0.004036
	Zn220	Zn	-0.016437	0.770539	0.503172
	Zn221	Zn	-0.016266	0.270528	0.502461
	Zn222	Zn	-0.015556	0.519604	0.752618
	Zn223	Zn	-0.015257	0.520866	0.253657
	Zn224	Zn	0.484092	0.770402	0.001509
	Zn225	Zn	0.483659	0.269706	0.003206
	Zn226	Zn	0.734121	0.020627	0.502703
	Zn227	Zn	0.233289	0.020603	0.501992
	N228	N	0.395926	0.986823	0.683236
	N229	N	0.569765	0.056548	0.681483
	N230	N	0.570273	0.983990	0.322503
	N231	N	0.395344	0.053476	0.320056
	N232	N	0.663248	0.433862	0.968321
	N233	N	0.664102	0.607661	0.037285
	N234	N	0.305367	0.605530	0.967421
	N235	N	0.304719	0.432407	0.039250
	N236	N	0.949095	0.700385	0.416578
	N237	N	0.019207	0.700423	0.589916
	N238	N	0.949709	0.339591	0.589930
	N239	N	0.019197	0.340818	0.416127
	N240	N	0.949928	0.433169	0.682429
	N241	N	0.019182	0.606996	0.682872
	N242	N	0.949475	0.607801	0.323324
	N243	N	0.020872	0.436706	0.325938
	N244	N	0.398329	0.698956	0.966662
	N245	N	0.572101	0.701724	0.036203
	N246	N	0.570884	0.339502	0.968365
	N247	N	0.397156	0.339005	0.038443
	N248	N	0.664035	0.984665	0.415704
	N249	N	0.663333	0.055935	0.588678
	N250	N	0.303490	0.985936	0.588900
	N251	N	0.302741	0.054657	0.413988
	N252	N	0.898154	0.485743	0.182990
	N253	N	0.071705	0.555888	0.183600
	N254	N	0.071662	0.484995	0.823338
	N255	N	0.897271	0.554338	0.822325
	N256	N	0.164511	0.932495	0.468212
	N257	N	0.163020	0.106546	0.536810
	N258	N	0.802344	0.108776	0.468283
	N259	N	0.804250	0.934039	0.537725
	N260	N	0.449404	0.200839	0.915161
	N261	N	0.518770	0.199792	0.089744
	N262	N	0.448838	0.839563	0.088483
	N263	N	0.518461	0.840535	0.914541
	N264	N	0.449598	0.931086	0.182948
	N265	N	0.519357	0.105314	0.181475
	N266	N	0.449060	0.107991	0.822167
	N267	N	0.518720	0.935305	0.823005
	N268	N	0.896139	0.201163	0.468162
	N269	N	0.070604	0.200156	0.536755
	N270	N	0.071179	0.839283	0.468518
	N271	N	0.897433	0.841168	0.538036
	N272	N	0.163246	0.483880	0.918823
	N273	N	0.165849	0.554897	0.091177
	N274	N	0.803549	0.485937	0.090816
	N275	N	0.804159	0.554569	0.915844
	O276	O	-0.201607	1.203556	0.183053
	H277	H	-0.190056	1.182010	0.167178
	H278	H	-0.177755	1.191421	0.167770
	O279	O	0.019974	-0.062728	0.102759
	H280	H	0.030444	-0.068935	0.115310
	H281	H	0.024407	-0.066647	0.098660
	O282	O	1.193987	0.222157	1.019697
	H283	H	1.200283	0.225146	1.019687
	H284	H	1.181529	0.224579	1.016096
	O285	O	0.028366	0.025317	0.892055
	H286	H	0.046699	0.018765	0.899095
	H287	H	0.047010	0.025099	0.889596
	O288	O	0.290511	0.584305	0.444762
	H289	H	0.294453	0.595946	0.439858
	H290	H	0.296334	0.577358	0.447911
	O291	O	-0.131838	0.243763	0.029615
	H292	H	-0.135068	0.246726	0.038456
	H293	H	-0.149648	0.244310	0.030241
	O294	O	0.768712	-0.204247	1.032135
	H295	H	0.764291	-0.187528	1.036690
	H296	H	0.745787	-0.219735	1.030685
	O297	O	0.511086	0.357848	0.522939
	H298	H	0.515198	0.364658	0.534903
	H299	H	0.530768	0.357292	0.533794
	O300	O	-0.307357	-0.685949	0.294867
	H301	H	-0.326891	-0.697496	0.305871
	H302	H	-0.289420	-0.711971	0.278677
	O303	O	0.431282	0.573407	0.716592
	H304	H	0.422678	0.575375	0.713692
	H305	H	0.429561	0.582372	0.702545
	O306	O	0.702214	0.531888	0.447488
	H307	H	0.689781	0.551534	0.437041
	H308	H	0.709532	0.517916	0.422701
	O309	O	0.685706	0.550404	0.709699
	H310	H	0.685758	0.549487	0.687916
	H311	H	0.695807	0.553184	0.724073
	O312	O	0.287996	0.477931	0.520486
	H313	H	0.275387	0.475775	0.529512
	H314	H	0.288953	0.487657	0.507345
	O315	O	1.516697	0.501013	1.693599
	H316	H	1.522284	0.511497	1.690189
	H317	H	1.506312	0.510677	1.697460
	O318	O	0.265190	0.553430	0.277417
	H319	H	0.232716	0.558925	0.240080
	H320	H	0.292969	0.559891	0.279939
	O321	O	0.194695	1.066429	0.939738
	H322	H	0.185590	1.056257	0.922230
	H323	H	0.201756	1.062295	0.944072
	O324	O	1.196460	0.935258	0.059241
	H325	H	1.199713	0.934725	0.076679
	H326	H	1.206040	0.933565	0.060119
	O327	O	0.202477	0.039408	1.226903
	H328	H	0.201732	0.062005	1.211013
	H329	H	0.231999	0.054816	1.255226
	O330	O	0.784388	0.821815	0.203288
	H331	H	0.817150	0.806936	0.220443
	H332	H	0.795485	0.822530	0.164554
	O333	O	0.626292	0.658061	0.360186
	H334	H	0.630412	0.669347	0.362796
	H335	H	0.628194	0.638592	0.366559
	O336	O	0.697511	0.476873	0.581765
	H337	H	0.701742	0.481503	0.564182
	H338	H	0.700551	0.484728	0.557909
	O339	O	0.887202	0.079297	0.827867
	H340	H	0.887010	0.076269	0.841699
	H341	H	0.886555	0.080561	0.827690
	O342	O	0.187248	-0.184471	-0.198750
	H343	H	0.154575	-0.186772	-0.189963
	H344	H	0.197665	-0.204645	-0.207681
	O345	O	0.131266	1.039428	0.781714
	H346	H	0.127157	1.005734	0.783181
	H347	H	0.150364	1.024190	0.769671
	O348	O	0.855717	0.004162	0.798608
	H349	H	0.851335	0.013168	0.798543
	H350	H	0.870174	0.008266	0.791312
	O351	O	0.330338	0.720551	0.653106
	H352	H	0.359194	0.712680	0.643953
	H353	H	0.338052	0.711422	0.642922
	O354	O	-0.137903	0.105203	0.796762
	H355	H	-0.124984	0.129744	0.788078
	H356	H	-0.163662	0.103840	0.801066
	O357	O	0.532385	0.586814	0.309252
	H358	H	0.542330	0.591081	0.309788
	H359	H	0.557097	0.574212	0.313287
	O360	O	0.407829	-0.251118	1.493939
	H361	H	0.413924	-0.249315	1.495325
	H362	H	0.421404	-0.244312	1.494908
	O363	O	-0.054766	0.106111	0.200737
	H364	H	-0.069132	0.093914	0.201782
	H365	H	-0.055706	0.108486	0.200587
	O366	O	0.448942	0.664010	0.484824
	H367	H	0.451920	0.661700	0.490350
	H368	H	0.444419	0.643074	0.485230
	O369	O	0.947458	-0.195167	0.224307
	H370	H	0.960537	-0.207512	0.243871
	H371	H	0.970151	-0.182976	0.230345
	O372	O	0.909293	0.903161	-0.117188
	H373	H	0.923194	0.900941	-0.117369
	H374	H	0.894222	0.908297	-0.110875
	O375	O	0.950144	-0.203674	-0.025981
	H376	H	0.954932	-0.206546	-0.006101
	H377	H	0.964603	-0.198388	-0.013882
	O378	O	0.433554	0.530478	0.358046
	H379	H	0.423423	0.527112	0.372901
	H380	H	0.435359	0.528694	0.354721
	O381	O	0.312154	0.546273	0.650604
	H382	H	0.320526	0.551798	0.662803
	H383	H	0.304163	0.535542	0.664711
	O384	O	1.279226	-0.271449	1.298415
	H385	H	1.287651	-0.289410	1.321507
	H386	H	1.302852	-0.277004	1.315618
	O387	O	0.748119	1.066149	0.027968
	H388	H	0.743877	1.070864	0.027155
	H389	H	0.747089	1.046405	0.048008
	O390	O	0.706057	0.494949	0.280042
	H391	H	0.725803	0.479609	0.258187
	H392	H	0.710116	0.457881	0.280684
	O393	O	0.688398	0.325986	0.486207
	H394	H	0.677364	0.322717	0.486143
	H395	H	0.701253	0.315848	0.490378
	O396	O	0.164268	0.832886	1.189536
	H397	H	0.175326	0.828961	1.191317
	H398	H	0.175103	0.842952	1.214773
	O399	O	-0.006465	0.227268	0.840347
	H400	H	0.006262	0.232223	0.823239
	H401	H	-0.005479	0.223396	0.829524
	O402	O	0.487416	0.297259	0.476969
	H403	H	0.476430	0.297724	0.490510
	H404	H	0.498916	0.301683	0.502597
	O405	O	1.421543	-0.540287	1.370787
	H406	H	1.445948	-0.525743	1.369441
	H407	H	1.420111	-0.544352	1.371285
	O408	O	-0.215659	-0.182008	-0.196636
	H409	H	-0.199818	-0.146158	-0.187949
	H410	H	-0.200141	-0.178920	-0.167438
	O411	O	0.459714	0.359298	0.715502
	H412	H	0.469776	0.374653	0.706679
	H413	H	0.466103	0.341615	0.736567
	O414	O	0.519260	0.309751	0.299643
	H415	H	0.519452	0.307578	0.300966
	H416	H	0.509250	0.296674	0.297408
	O417	O	0.309200	0.333578	0.326358
	H418	H	0.319892	0.356434	0.337589
	H419	H	0.327175	0.338529	0.354441
	O420	O	0.443923	0.733348	0.294576
	H421	H	0.438898	0.735811	0.285435
	H422	H	0.459666	0.736887	0.292605
	O423	O	0.018417	-0.199325	0.787146
	H424	H	0.012964	-0.206109	0.794009
	H425	H	0.003404	-0.218602	0.780769
	O426	O	0.289907	0.475988	0.704375
	H427	H	0.280773	0.455408	0.718405
	H428	H	0.279293	0.458479	0.707522
	O429	O	1.011915	1.045029	1.022529
	H430	H	1.017607	1.065348	1.014744
	H431	H	1.024879	1.050719	1.027310
	O432	O	0.504509	0.597261	0.528607
	H433	H	0.501937	0.594599	0.530547
	H434	H	0.519129	0.595205	0.512249
	O435	O	0.017238	0.983594	0.163374
	H436	H	0.032186	0.999206	0.171172
	H437	H	0.027221	0.992942	0.158069
	O438	O	0.203512	-0.199428	-0.033541
	H439	H	0.217255	-0.207608	-0.036515
	H440	H	0.214211	-0.196157	-0.038245
	O441	O	0.195829	-0.767992	-0.210690
	H442	H	0.173666	-0.776664	-0.204116
	H443	H	0.191572	-0.772978	-0.197785
	O444	O	0.698810	0.741599	-0.467368
	H445	H	0.704826	0.755227	-0.452201
	H446	H	0.699472	0.754797	-0.457142
	O447	O	0.685691	0.719887	0.699754
	H448	H	0.717641	0.749672	0.733096
	H449	H	0.682830	0.694960	0.691815
	O450	O	0.108681	0.904940	0.911918
	H451	H	0.110323	0.881472	0.915652
	H452	H	0.123579	0.907958	0.904524
	O453	O	0.509910	0.704819	0.647819
	H454	H	0.528625	0.692952	0.651533
	H455	H	0.519847	0.714741	0.655505
	O456	O	0.269658	0.298193	0.537190
	H457	H	0.254317	0.305874	0.541857
	H458	H	0.258838	0.285182	0.547861
	O459	O	0.761913	0.991696	0.226530
	H460	H	0.761097	0.957452	0.221934
	H461	H	0.737744	0.972592	0.250439
	O462	O	0.768575	0.144019	-0.013963
	H463	H	0.763973	0.131675	-0.009777
	H464	H	0.755942	0.160128	-0.022289
	O465	O	0.793108	0.219601	-0.180676
	H466	H	0.789228	0.226310	-0.196129
	H467	H	0.798812	0.220136	-0.156213
	O468	O	0.559734	0.549570	0.426363
	H469	H	0.552698	0.539392	0.420148
	H470	H	0.562520	0.551962	0.421171
	O471	O	0.680607	0.326517	0.699036
	H472	H	0.677860	0.326622	0.694877
	H473	H	0.680125	0.350357	0.692211
	O474	O	-0.002259	1.243525	-0.012362
	H475	H	-0.000080	1.251828	-0.018328
	H476	H	-0.020513	1.237591	-0.011699
	O477	O	0.901561	0.951859	2.090809
	H478	H	0.922609	0.943782	2.089026
	H479	H	0.910053	0.971630	2.098637
	O480	O	1.065640	1.077955	0.049459
	H481	H	1.068401	1.084118	0.046462
	H482	H	1.065908	1.071631	0.041671
	O483	O	0.312394	0.311408	0.708741
	H484	H	0.331087	0.300352	0.717830
	H485	H	0.293095	0.290782	0.715108
	O486	O	1.186161	0.228858	1.210286
	H487	H	1.200782	0.243205	1.224073
	H488	H	1.179964	0.235111	1.202806
	O489	O	1.011399	1.232175	0.222704
	H490	H	1.017429	1.229135	0.229462
	H491	H	1.012525	1.236940	0.234380
