data_Molecule from HDF5

_cell_length_a		16.270928
_cell_length_b		16.270079
_cell_length_c		16.266205
_cell_angle_alpha	90.169985
_cell_angle_beta	90.186309
_cell_angle_gamma	89.679084
_symmetry_space_group_name_H-M	'P 1'
_symmetry_Int_Tables_number		1

loop_
	_symmetry_equiv_pos_as_xyz
	x,y,z

loop_
	_atom_site_label
	_atom_site_type_symbol
	_atom_site_fract_x
	_atom_site_fract_y
	_atom_site_fract_z
	H0	H	0.402388	0.832194	0.715447
	H1	H	0.602650	0.157657	0.717578
	H2	H	0.602213	0.832171	0.283764
	H3	H	0.400573	0.158606	0.285131
	H4	H	0.717177	0.395329	0.837722
	H5	H	0.716277	0.596948	0.163912
	H6	H	0.285319	0.594031	0.836868
	H7	H	0.287176	0.398766	0.164903
	H8	H	0.837881	0.709339	0.401943
	H9	H	0.165124	0.710031	0.601989
	H10	H	0.838000	0.280882	0.596818
	H11	H	0.164720	0.277199	0.399403
	H12	H	0.838454	0.394277	0.715224
	H13	H	0.165042	0.592209	0.716210
	H14	H	0.838689	0.594804	0.284915
	H15	H	0.165516	0.394962	0.285626
	H16	H	0.399639	0.710129	0.836360
	H17	H	0.599113	0.711991	0.163545
	H18	H	0.601949	0.279337	0.837959
	H19	H	0.402000	0.281496	0.164803
	H20	H	0.718934	0.832207	0.399381
	H21	H	0.717009	0.157650	0.600580
	H22	H	0.288166	0.831643	0.598923
	H23	H	0.283118	0.157764	0.398751
	H24	H	0.903100	0.331643	0.215267
	H25	H	0.101150	0.658465	0.217396
	H26	H	0.102949	0.331311	0.784943
	H27	H	0.899601	0.657580	0.784308
	H28	H	0.218846	0.892134	0.337353
	H29	H	0.217608	0.094239	0.662705
	H30	H	0.785111	0.094471	0.336746
	H31	H	0.786874	0.895123	0.663021
	H32	H	0.338253	0.212368	0.900588
	H33	H	0.664519	0.210819	0.103212
	H34	H	0.336114	0.783561	0.097713
	H35	H	0.662261	0.776785	0.898402
	H36	H	0.338312	0.897514	0.215532
	H37	H	0.664843	0.094098	0.216944
	H38	H	0.338183	0.096833	0.783848
	H39	H	0.663375	0.893367	0.785829
	H40	H	0.900505	0.210031	0.336284
	H41	H	0.104416	0.211609	0.662031
	H42	H	0.102686	0.776443	0.337242
	H43	H	0.903444	0.780600	0.664087
	H44	H	0.218679	0.332406	0.901141
	H45	H	0.214497	0.660102	0.099893
	H46	H	0.784480	0.333297	0.102945
	H47	H	0.784711	0.658871	0.901200
	H48	H	0.410023	0.109799	0.587425
	H49	H	0.593148	0.878875	0.593275
	H50	H	0.590719	0.111854	0.406083
	H51	H	0.408302	0.880770	0.412396
	H52	H	0.590867	0.405191	0.115682
	H53	H	0.601722	0.584645	0.882460
	H54	H	0.403679	0.581898	0.116209
	H55	H	0.418859	0.404270	0.888508
	H56	H	0.121087	0.591694	0.407096
	H57	H	0.888851	0.580207	0.588965
	H58	H	0.119567	0.405277	0.600938
	H59	H	0.883005	0.401205	0.398660
	H60	H	0.120046	0.393116	0.590406
	H61	H	0.883506	0.587449	0.600346
	H62	H	0.116510	0.585170	0.415818
	H63	H	0.885672	0.396127	0.413489
	H64	H	0.417233	0.592832	0.114773
	H65	H	0.587810	0.580580	0.888247
	H66	H	0.595210	0.401101	0.118610
	H67	H	0.406558	0.395459	0.881326
	H68	H	0.592534	0.109961	0.412187
	H69	H	0.594993	0.879505	0.590578
	H70	H	0.405439	0.113260	0.593649
	H71	H	0.407451	0.876750	0.403069
	H72	H	0.919426	0.609736	0.098103
	H73	H	0.094750	0.382320	0.083688
	H74	H	0.103485	0.615305	0.907445
	H75	H	0.908540	0.378033	0.904701
	H76	H	0.095712	0.905728	0.615983
	H77	H	0.092777	0.088226	0.382432
	H78	H	0.918927	0.090292	0.612949
	H79	H	0.911277	0.894962	0.381514
	H80	H	0.619929	0.093403	0.910167
	H81	H	0.386032	0.084989	0.096084
	H82	H	0.611760	0.909679	0.081171
	H83	H	0.385297	0.908666	0.906447
	H84	H	0.618247	0.909436	0.103570
	H85	H	0.382542	0.094630	0.094785
	H86	H	0.614731	0.083146	0.914050
	H87	H	0.382356	0.902134	0.903898
	H88	H	0.904321	0.094854	0.620168
	H89	H	0.094271	0.082401	0.383874
	H90	H	0.092193	0.901047	0.615844
	H91	H	0.903795	0.905523	0.383201
	H92	H	0.085922	0.611677	0.899898
	H93	H	0.104128	0.376001	0.095980
	H94	H	0.908753	0.608460	0.082013
	H95	H	0.914750	0.381145	0.909230
	H96	H	0.412974	0.110187	0.594872
	H97	H	0.596698	0.877586	0.593842
	H98	H	0.597128	0.112402	0.408039
	H99	H	0.416401	0.880343	0.406464
	H100	H	0.596311	0.407053	0.117367
	H101	H	0.589508	0.595095	0.882755
	H102	H	0.402222	0.598668	0.121254
	H103	H	0.403799	0.411368	0.885954
	H104	H	0.117826	0.580612	0.404944
	H105	H	0.884511	0.594762	0.588616
	H106	H	0.114102	0.407611	0.586498
	H107	H	0.888711	0.411479	0.409022
	H108	H	0.900673	0.615687	0.099295
	H109	H	0.087777	0.379464	0.098085
	H110	H	0.089336	0.607745	0.918023
	H111	H	0.907078	0.379074	0.911679
	H112	H	0.097517	0.900406	0.617553
	H113	H	0.089384	0.084580	0.385235
	H114	H	0.906953	0.079141	0.614001
	H115	H	0.915882	0.906032	0.387212
	H116	H	0.618534	0.084591	0.902458
	H117	H	0.387262	0.088882	0.087851
	H118	H	0.620718	0.890385	0.090416
	H119	H	0.384783	0.903068	0.911257
	C120	C	0.380283	0.003702	0.621325
	C121	C	0.623996	0.986304	0.622570
	C122	C	0.623353	0.003411	0.378705
	C123	C	0.379880	0.987023	0.378224
	C124	C	0.623484	0.374348	0.009630
	C125	C	0.622060	0.617409	0.992176
	C126	C	0.378382	0.618665	0.008739
	C127	C	0.380348	0.374820	0.993255
	C128	C	0.010512	0.615611	0.379432
	C129	C	0.993339	0.616315	0.622508
	C130	C	0.009947	0.372905	0.621265
	C131	C	0.993722	0.372940	0.377994
	C132	C	0.880269	0.503785	0.122391
	C133	C	0.123720	0.487375	0.121945
	C134	C	0.123081	0.503549	0.879118
	C135	C	0.879942	0.486840	0.879121
	C136	C	0.124507	0.872117	0.508695
	C137	C	0.122961	0.115385	0.490978
	C138	C	0.880263	0.116923	0.508228
	C139	C	0.880992	0.873202	0.491698
	C140	C	0.509906	0.117166	0.879140
	C141	C	0.492805	0.117758	0.122749
	C142	C	0.508948	0.874623	0.120942
	C143	C	0.491703	0.873713	0.878210
	C144	C	0.382497	0.880850	0.677223
	C145	C	0.622318	0.108691	0.679301
	C146	C	0.622071	0.880838	0.322098
	C147	C	0.380421	0.109710	0.322789
	C148	C	0.678994	0.375499	0.886517
	C149	C	0.678276	0.616487	0.115019
	C150	C	0.323177	0.614741	0.885705
	C151	C	0.325187	0.377965	0.116183
	C152	C	0.887178	0.671554	0.381522
	C153	C	0.116265	0.671613	0.621657
	C154	C	0.887119	0.318107	0.617870
	C155	C	0.116215	0.316086	0.379684
	C156	C	0.887194	0.374556	0.676824
	C157	C	0.116233	0.613101	0.678406
	C158	C	0.887392	0.614662	0.323378
	C159	C	0.116572	0.374256	0.322777
	C160	C	0.380065	0.672467	0.885479
	C161	C	0.619988	0.673763	0.114843
	C162	C	0.621884	0.317600	0.886820
	C163	C	0.382190	0.319652	0.115976
	C164	C	0.679972	0.880788	0.379694
	C165	C	0.679567	0.108799	0.621122
	C166	C	0.325537	0.880477	0.619300
	C167	C	0.322148	0.109258	0.379460
	C168	C	0.882503	0.380793	0.177737
	C169	C	0.120979	0.610112	0.178595
	C170	C	0.122678	0.380502	0.823227
	C171	C	0.880162	0.609159	0.822613
	C172	C	0.180320	0.872666	0.386126
	C173	C	0.179766	0.114355	0.613893
	C174	C	0.823490	0.114927	0.385382
	C175	C	0.825264	0.875099	0.614405
	C176	C	0.387009	0.173867	0.880677
	C177	C	0.615851	0.172995	0.122489
	C178	C	0.385581	0.820475	0.118558
	C179	C	0.613821	0.815853	0.879270
	C180	C	0.386417	0.877309	0.177011
	C181	C	0.615847	0.115003	0.179161
	C182	C	0.387078	0.116414	0.822456
	C183	C	0.614363	0.874074	0.823135
	C184	C	0.880811	0.172473	0.385229
	C185	C	0.123189	0.172751	0.613353
	C186	C	0.122654	0.815046	0.386193
	C187	C	0.883290	0.818192	0.614879
	C188	C	0.180173	0.380899	0.881045
	C189	C	0.177897	0.610630	0.120561
	C190	C	0.823671	0.381492	0.121592
	C191	C	0.823035	0.609725	0.880821
	C192	C	0.402862	0.088938	0.598588
	C193	C	0.601573	0.900814	0.599403
	C194	C	0.600132	0.089234	0.402097
	C195	C	0.403796	0.901322	0.400871
	C196	C	0.600814	0.397520	0.094872
	C197	C	0.599512	0.593852	0.906623
	C198	C	0.401018	0.597286	0.095204
	C199	C	0.403075	0.397123	0.907436
	C200	C	0.096118	0.592557	0.402373
	C201	C	0.907906	0.594201	0.599492
	C202	C	0.095754	0.395476	0.599323
	C203	C	0.907991	0.396274	0.400591
	C204	C	0.902874	0.589254	0.099721
	C205	C	0.101767	0.401483	0.099306
	C206	C	0.099671	0.589248	0.901613
	C207	C	0.903345	0.401585	0.901976
	C208	C	0.101872	0.895637	0.594320
	C209	C	0.099271	0.091743	0.405941
	C210	C	0.903172	0.094655	0.593445
	C211	C	0.903701	0.895634	0.406168
	C212	C	0.595330	0.093844	0.902068
	C213	C	0.407340	0.095940	0.099814
	C214	C	0.594574	0.896901	0.098452
	C215	C	0.406120	0.897652	0.900706
	Zn216	Zn	0.501329	-0.004945	0.750526
	Zn217	Zn	0.501554	-0.004164	0.250176
	Zn218	Zn	0.751920	0.495741	0.001077
	Zn219	Zn	0.251706	0.496428	0.000842
	Zn220	Zn	0.001996	0.744529	0.500805
	Zn221	Zn	0.002375	0.244587	0.499294
	Zn222	Zn	0.001265	0.494501	0.750436
	Zn223	Zn	0.001957	0.494977	0.250342
	Zn224	Zn	0.499872	0.745672	-0.000310
	Zn225	Zn	0.501910	0.245574	0.001659
	Zn226	Zn	0.752504	-0.005202	0.499989
	Zn227	Zn	0.251947	-0.005216	0.499385
	N228	N	0.415816	0.958365	0.678689
	N229	N	0.588539	0.031447	0.680236
	N230	N	0.587583	0.958221	0.321418
	N231	N	0.415767	0.032873	0.322139
	N232	N	0.680235	0.410110	0.963834
	N233	N	0.679749	0.581986	0.037685
	N234	N	0.322109	0.582006	0.963581
	N235	N	0.324079	0.411710	0.038695
	N236	N	0.964602	0.672115	0.415905
	N237	N	0.038901	0.673752	0.587646
	N238	N	0.964524	0.317004	0.584233
	N239	N	0.038774	0.315199	0.412978
	N240	N	0.964681	0.407955	0.678989
	N241	N	0.038835	0.579517	0.679042
	N242	N	0.964954	0.580552	0.321991
	N243	N	0.039220	0.408793	0.321519
	N244	N	0.413573	0.674827	0.963191
	N245	N	0.585940	0.674419	0.037476
	N246	N	0.588096	0.316646	0.964189
	N247	N	0.415705	0.317632	0.038442
	N248	N	0.680743	0.958149	0.414040
	N249	N	0.680934	0.031603	0.586613
	N250	N	0.323969	0.957765	0.585168
	N251	N	0.321671	0.031639	0.413134
	N252	N	0.916765	0.457921	0.178536
	N253	N	0.087973	0.532446	0.179679
	N254	N	0.087790	0.457707	0.821814
	N255	N	0.914687	0.531807	0.821356
	N256	N	0.181559	0.907366	0.463370
	N257	N	0.179526	0.079155	0.536871
	N258	N	0.823070	0.080875	0.462705
	N259	N	0.823744	0.908660	0.536819
	N260	N	0.464376	0.174649	0.915110
	N261	N	0.538453	0.174796	0.088146
	N262	N	0.462821	0.818641	0.084495
	N263	N	0.536343	0.815497	0.912715
	N264	N	0.464150	0.910228	0.178639
	N265	N	0.538541	0.081276	0.179455
	N266	N	0.464421	0.081960	0.821379
	N267	N	0.537435	0.909476	0.822443
	N268	N	0.915433	0.174020	0.462414
	N269	N	0.088385	0.173427	0.536170
	N270	N	0.088725	0.814479	0.463612
	N271	N	0.917113	0.816807	0.537508
	N272	N	0.180682	0.458448	0.914963
	N273	N	0.179418	0.533526	0.085861
	N274	N	0.822119	0.459022	0.088008
	N275	N	0.822749	0.532668	0.915314
	O276	O	0.509091	0.415972	0.499720
	H277	H	0.505836	0.417165	0.505158
	H278	H	0.495890	0.415914	0.504539
	O279	O	0.485350	0.523872	0.399967
	H280	H	0.486225	0.520396	0.404491
	H281	H	0.483921	0.529123	0.395162
	O282	O	1.125745	0.926670	-0.030151
	H283	H	1.135340	0.918721	-0.035261
	H284	H	1.126159	0.934129	-0.027302
	O285	O	0.957706	-0.061631	1.007538
	H286	H	0.963974	-0.062040	1.008199
	H287	H	0.969011	-0.067299	1.006209
	O288	O	0.518715	0.449664	0.466217
	H289	H	0.526626	0.469051	0.466016
	H290	H	0.509642	0.442342	0.469174
	O291	O	0.490790	0.548390	0.462207
	H292	H	0.485522	0.546120	0.460166
	H293	H	0.487351	0.553072	0.461170
	O294	O	0.491099	0.489466	0.487462
	H295	H	0.491165	0.478251	0.486150
	H296	H	0.502469	0.489366	0.490023
	O297	O	-0.045138	0.072349	0.993519
	H298	H	-0.036810	0.059986	1.004198
	H299	H	-0.042937	0.068459	0.984765
	O300	O	0.035070	0.836497	0.041928
	H301	H	0.030524	0.833589	0.042538
	H302	H	0.019239	0.835934	0.036606
	O303	O	0.992553	1.119550	0.026994
	H304	H	0.999681	1.116295	0.027358
	H305	H	0.989667	1.128373	0.012553
	O306	O	-0.094620	0.915447	1.056021
	H307	H	-0.101433	0.919167	1.040410
	H308	H	-0.109574	0.911335	1.054966
	O309	O	0.586545	0.580983	0.561353
	H310	H	0.591427	0.593417	0.563970
	H311	H	0.578567	0.574242	0.561673
	O312	O	0.047165	0.090162	0.095312
	H313	H	0.055660	0.079491	0.103138
	H314	H	0.055744	0.083615	0.102626
	O315	O	1.013240	-0.138544	0.007381
	H316	H	1.018342	-0.133610	0.002595
	H317	H	1.008369	-0.143617	-0.004035
	O318	O	0.900807	1.031270	1.002966
	H319	H	0.891509	1.026252	1.003260
	H320	H	0.897553	1.043424	1.011388
	O321	O	0.489264	0.395700	1.620777
	H322	H	0.483438	0.387156	1.618423
	H323	H	0.493218	0.404985	1.624553
	O324	O	0.565721	0.548906	0.589223
	H325	H	0.571673	0.532757	0.588173
	H326	H	0.563601	0.546908	0.587733
	O327	O	-0.064201	0.121773	-0.146158
	H328	H	-0.066851	0.134039	-0.149084
	H329	H	-0.050887	0.119106	-0.141894
	O330	O	0.458205	0.616742	0.477721
	H331	H	0.446723	0.618829	0.483075
	H332	H	0.466757	0.618707	0.476461
	O333	O	-0.061449	1.029269	0.915178
	H334	H	-0.087795	1.039748	0.908310
	H335	H	-0.061893	1.042614	0.918029
	O336	O	-0.087849	0.109421	-0.020190
	H337	H	-0.082041	0.104007	0.003826
	H338	H	-0.064307	0.119228	-0.015402
	O339	O	0.567103	0.414104	0.460667
	H340	H	0.580039	0.414745	0.462952
	H341	H	0.575055	0.397406	0.453264
	O342	O	0.930962	0.916862	0.937556
	H343	H	0.929161	0.931387	0.933571
	H344	H	0.945231	0.923398	0.924943
	O345	O	1.099430	1.004741	-0.013555
	H346	H	1.093435	1.006749	-0.010734
	H347	H	1.103595	0.997409	-0.009955
	O348	O	0.542638	0.517774	0.574338
	H349	H	0.555172	0.528074	0.567345
	H350	H	0.554679	0.522451	0.579714
	O351	O	0.504314	0.578966	0.410118
	H352	H	0.499261	0.595995	0.401200
	H353	H	0.500590	0.583273	0.409713
	O354	O	0.560081	0.434741	0.490727
	H355	H	0.559863	0.426149	0.500688
	H356	H	0.558466	0.441270	0.491525
	O357	O	0.984915	-0.034809	1.128945
	H358	H	0.990157	-0.031077	1.129157
	H359	H	0.970790	-0.049551	1.120270
	O360	O	0.492516	0.381555	0.571492
	H361	H	0.485242	0.388950	0.576075
	H362	H	0.488590	0.368051	0.567971
	O363	O	0.350450	0.454508	0.526267
	H364	H	0.345410	0.448491	0.510732
	H365	H	0.349388	0.471830	0.536734
	O366	O	1.065551	1.084677	1.016901
	H367	H	1.056853	1.088916	1.013831
	H368	H	1.062312	1.080872	1.017046
	O369	O	1.009166	0.007522	0.945824
	H370	H	1.010690	0.011014	0.943611
	H371	H	1.014480	0.018313	0.943869
	O372	O	-0.027092	-0.099021	-0.101568
	H373	H	-0.023441	-0.098897	-0.102761
	H374	H	-0.043291	-0.113476	-0.105190
	O375	O	1.088904	0.090509	-0.013235
	H376	H	1.078421	0.097372	-0.011581
	H377	H	1.086225	0.092274	-0.017320
	O378	O	0.412955	0.519404	0.467382
	H379	H	0.416165	0.513545	0.456305
	H380	H	0.407417	0.517414	0.458937
	O381	O	0.463799	0.455580	0.445609
	H382	H	0.456068	0.449167	0.440644
	H383	H	0.466650	0.452242	0.445688
