data_Molecule from HDF5

_cell_length_a		16.216633
_cell_length_b		16.327959
_cell_length_c		16.270586
_cell_angle_alpha	90.166794
_cell_angle_beta	89.588822
_cell_angle_gamma	89.901310
_symmetry_space_group_name_H-M	'P 1'
_symmetry_Int_Tables_number		1

loop_
	_symmetry_equiv_pos_as_xyz
	x,y,z

loop_
	_atom_site_label
	_atom_site_type_symbol
	_atom_site_fract_x
	_atom_site_fract_y
	_atom_site_fract_z
	H0	H	0.401360	0.831171	0.714182
	H1	H	0.600338	0.157091	0.715163
	H2	H	0.603084	0.831872	0.282248
	H3	H	0.401864	0.157378	0.283965
	H4	H	0.716495	0.395904	0.836666
	H5	H	0.712245	0.592627	0.164445
	H6	H	0.287438	0.591485	0.835627
	H7	H	0.282368	0.394026	0.163474
	H8	H	0.837779	0.712624	0.400367
	H9	H	0.164418	0.710606	0.599996
	H10	H	0.837395	0.280321	0.601280
	H11	H	0.164097	0.279918	0.398882
	H12	H	0.836556	0.396619	0.715746
	H13	H	0.164806	0.592846	0.713931
	H14	H	0.836440	0.594896	0.287210
	H15	H	0.163238	0.393956	0.282953
	H16	H	0.401274	0.708727	0.836373
	H17	H	0.601730	0.712678	0.162010
	H18	H	0.602095	0.278038	0.835874
	H19	H	0.398636	0.277290	0.163308
	H20	H	0.720650	0.833288	0.397191
	H21	H	0.714623	0.158820	0.596368
	H22	H	0.285006	0.831727	0.598530
	H23	H	0.287170	0.158581	0.401771
	H24	H	0.899238	0.331574	0.216667
	H25	H	0.099905	0.657564	0.216744
	H26	H	0.101588	0.331628	0.782875
	H27	H	0.900609	0.657082	0.787270
	H28	H	0.217893	0.896218	0.335259
	H29	H	0.212286	0.092718	0.663671
	H30	H	0.788227	0.095944	0.335144
	H31	H	0.784172	0.897984	0.661956
	H32	H	0.337175	0.209227	0.900658
	H33	H	0.664332	0.208803	0.097706
	H34	H	0.336180	0.781101	0.099226
	H35	H	0.664332	0.777303	0.897023
	H36	H	0.337695	0.895247	0.215998
	H37	H	0.665311	0.093411	0.211201
	H38	H	0.336585	0.093237	0.785502
	H39	H	0.665609	0.895151	0.783295
	H40	H	0.901258	0.212007	0.336253
	H41	H	0.099808	0.210922	0.662067
	H42	H	0.104947	0.776431	0.336617
	H43	H	0.898596	0.780978	0.662737
	H44	H	0.217060	0.331466	0.900208
	H45	H	0.216934	0.657289	0.099836
	H46	H	0.784102	0.331524	0.100553
	H47	H	0.785171	0.656837	0.903256
	H48	H	0.411716	0.109602	0.592750
	H49	H	0.592472	0.878535	0.595254
	H50	H	0.596715	0.111073	0.406437
	H51	H	0.411406	0.880680	0.411474
	H52	H	0.598709	0.397140	0.119737
	H53	H	0.586444	0.589312	0.884807
	H54	H	0.405117	0.589639	0.117212
	H55	H	0.412355	0.401285	0.886335
	H56	H	0.117887	0.587130	0.404865
	H57	H	0.886005	0.580841	0.592455
	H58	H	0.117088	0.402159	0.589493
	H59	H	0.883277	0.405101	0.406079
	H60	H	0.116429	0.404807	0.592269
	H61	H	0.880750	0.590161	0.601329
	H62	H	0.116281	0.586685	0.411515
	H63	H	0.881923	0.398667	0.409541
	H64	H	0.407186	0.584400	0.115262
	H65	H	0.598994	0.589126	0.881811
	H66	H	0.590094	0.407892	0.112876
	H67	H	0.409380	0.397761	0.883582
	H68	H	0.595595	0.111870	0.401975
	H69	H	0.590161	0.881842	0.586386
	H70	H	0.404401	0.110828	0.590423
	H71	H	0.406872	0.878971	0.406089
	H72	H	0.901926	0.610508	0.091739
	H73	H	0.101079	0.376213	0.092409
	H74	H	0.082063	0.608407	0.902674
	H75	H	0.912274	0.379501	0.910973
	H76	H	0.085754	0.903955	0.612146
	H77	H	0.098469	0.096234	0.379388
	H78	H	0.912379	0.084553	0.612659
	H79	H	0.919491	0.903496	0.385834
	H80	H	0.618163	0.088200	0.905407
	H81	H	0.382862	0.086211	0.092588
	H82	H	0.614805	0.902549	0.082709
	H83	H	0.387727	0.911841	0.907963
	H84	H	0.617602	0.905965	0.093994
	H85	H	0.385513	0.085604	0.090468
	H86	H	0.616612	0.085355	0.908171
	H87	H	0.379677	0.897759	0.896842
	H88	H	0.909509	0.094806	0.616936
	H89	H	0.100152	0.081155	0.383400
	H90	H	0.092998	0.895124	0.617253
	H91	H	0.910593	0.897176	0.381163
	H92	H	0.096835	0.607102	0.919341
	H93	H	0.083644	0.379951	0.099303
	H94	H	0.906109	0.612295	0.099294
	H95	H	0.903682	0.376865	0.910288
	H96	H	0.406216	0.113080	0.598224
	H97	H	0.599252	0.878187	0.587534
	H98	H	0.592510	0.110009	0.405271
	H99	H	0.413475	0.880465	0.404631
	H100	H	0.584684	0.394231	0.115830
	H101	H	0.593028	0.578262	0.885747
	H102	H	0.410652	0.588370	0.115570
	H103	H	0.407831	0.402307	0.884320
	H104	H	0.115122	0.581591	0.407672
	H105	H	0.883391	0.594078	0.588967
	H106	H	0.118759	0.400993	0.592529
	H107	H	0.885010	0.404847	0.412819
	H108	H	0.911138	0.608555	0.092945
	H109	H	0.087791	0.383726	0.082233
	H110	H	0.103553	0.615974	0.898639
	H111	H	0.909115	0.376824	0.902723
	H112	H	0.098151	0.907509	0.615175
	H113	H	0.085154	0.088287	0.384697
	H114	H	0.901251	0.087061	0.616301
	H115	H	0.909032	0.908952	0.384338
	H116	H	0.617664	0.084353	0.903530
	H117	H	0.384820	0.083682	0.092354
	H118	H	0.619739	0.894914	0.090439
	H119	H	0.384848	0.894031	0.915554
	C120	C	0.378419	0.003455	0.622015
	C121	C	0.622590	0.986727	0.619248
	C122	C	0.625062	0.003520	0.375136
	C123	C	0.380425	0.986947	0.378046
	C124	C	0.622006	0.371250	0.008302
	C125	C	0.621434	0.615104	0.991758
	C126	C	0.379097	0.615454	0.007906
	C127	C	0.379203	0.371545	0.992189
	C128	C	0.008664	0.615304	0.379527
	C129	C	0.992342	0.616861	0.622493
	C130	C	0.009168	0.373725	0.621366
	C131	C	0.991598	0.373449	0.379147
	C132	C	0.877203	0.502946	0.123669
	C133	C	0.121456	0.486773	0.121739
	C134	C	0.123084	0.502908	0.877492
	C135	C	0.879282	0.485654	0.879801
	C136	C	0.123192	0.872743	0.507402
	C137	C	0.122659	0.117031	0.490594
	C138	C	0.879414	0.118086	0.507549
	C139	C	0.881132	0.874573	0.491178
	C140	C	0.509282	0.115377	0.877336
	C141	C	0.492478	0.114613	0.120166
	C142	C	0.509428	0.872660	0.119964
	C143	C	0.492515	0.871875	0.876848
	C144	C	0.380828	0.880028	0.676702
	C145	C	0.620322	0.109058	0.676115
	C146	C	0.623486	0.880978	0.319634
	C147	C	0.381916	0.109086	0.322347
	C148	C	0.678775	0.374393	0.885447
	C149	C	0.675373	0.613060	0.115179
	C150	C	0.324639	0.612412	0.884604
	C151	C	0.321505	0.373917	0.114741
	C152	C	0.886321	0.673349	0.380766
	C153	C	0.115291	0.672529	0.620252
	C154	C	0.886119	0.318140	0.620892
	C155	C	0.115093	0.317778	0.379413
	C156	C	0.885844	0.375700	0.678254
	C157	C	0.115598	0.613996	0.677029
	C158	C	0.885605	0.615185	0.324188
	C159	C	0.114315	0.373959	0.321164
	C160	C	0.381081	0.670875	0.885029
	C161	C	0.620423	0.672855	0.113799
	C162	C	0.621884	0.315854	0.885170
	C163	C	0.379238	0.315777	0.114816
	C164	C	0.681938	0.881525	0.376949
	C165	C	0.677038	0.109974	0.616948
	C166	C	0.322901	0.880470	0.619240
	C167	C	0.324575	0.109477	0.380623
	C168	C	0.879014	0.380468	0.178853
	C169	C	0.120112	0.608963	0.178286
	C170	C	0.121694	0.380250	0.821272
	C171	C	0.880984	0.608196	0.825077
	C172	C	0.179757	0.875231	0.384274
	C173	C	0.176418	0.114138	0.614037
	C174	C	0.825278	0.116015	0.384247
	C175	C	0.823118	0.877525	0.613432
	C176	C	0.386166	0.171205	0.880261
	C177	C	0.615680	0.170356	0.117469
	C178	C	0.385600	0.818311	0.118934
	C179	C	0.615450	0.815653	0.877260
	C180	C	0.386444	0.874890	0.177262
	C181	C	0.616123	0.113084	0.174304
	C182	C	0.385820	0.113243	0.823280
	C183	C	0.616036	0.874321	0.820734
	C184	C	0.881378	0.174130	0.385049
	C185	C	0.120462	0.173031	0.613439
	C186	C	0.123676	0.815521	0.384975
	C187	C	0.880122	0.819268	0.613700
	C188	C	0.179092	0.380182	0.879373
	C189	C	0.178070	0.608864	0.119910
	C190	C	0.821982	0.380358	0.120918
	C191	C	0.823308	0.608275	0.882677
	C192	C	0.400872	0.088899	0.600199
	C193	C	0.600527	0.901647	0.596499
	C194	C	0.601843	0.088911	0.397884
	C195	C	0.403942	0.901946	0.400803
	C196	C	0.598232	0.393245	0.094024
	C197	C	0.599343	0.592170	0.906355
	C198	C	0.401160	0.593916	0.093938
	C199	C	0.403023	0.393988	0.906788
	C200	C	0.094292	0.591954	0.401694
	C201	C	0.905795	0.594843	0.600598
	C202	C	0.095165	0.395987	0.598068
	C203	C	0.905899	0.396163	0.402694
	C204	C	0.899739	0.588329	0.101183
	C205	C	0.097810	0.401969	0.098217
	C206	C	0.100541	0.588406	0.900184
	C207	C	0.901734	0.399968	0.901572
	C208	C	0.099304	0.895576	0.592733
	C209	C	0.100972	0.094987	0.404806
	C210	C	0.901414	0.095567	0.593204
	C211	C	0.905830	0.896768	0.405611
	C212	C	0.595456	0.092692	0.899292
	C213	C	0.406776	0.091797	0.098179
	C214	C	0.595256	0.894706	0.096127
	C215	C	0.406363	0.894340	0.900093
	Zn216	Zn	0.500779	-0.005654	0.748914
	Zn217	Zn	0.501749	-0.005660	0.247943
	Zn218	Zn	0.750038	0.494041	0.001061
	Zn219	Zn	0.251050	0.494418	-0.000401
	Zn220	Zn	0.001021	0.744574	0.500011
	Zn221	Zn	0.000907	0.245696	0.499484
	Zn222	Zn	0.000302	0.494398	0.750033
	Zn223	Zn	-0.000916	0.494650	0.251158
	Zn224	Zn	0.500380	0.743911	-0.000898
	Zn225	Zn	0.500891	0.242384	-0.000199
	Zn226	Zn	0.752513	-0.004006	0.497897
	Zn227	Zn	0.250864	-0.004671	0.499218
	N228	N	0.414705	0.957490	0.678609
	N229	N	0.587204	0.031622	0.677626
	N230	N	0.588922	0.958000	0.318475
	N231	N	0.415930	0.031767	0.320549
	N232	N	0.679269	0.408017	0.963155
	N233	N	0.676266	0.577822	0.038356
	N234	N	0.323416	0.578852	0.961940
	N235	N	0.321435	0.407906	0.037477
	N236	N	0.963953	0.673715	0.414326
	N237	N	0.037562	0.674397	0.587130
	N238	N	0.963893	0.316552	0.586425
	N239	N	0.037939	0.317258	0.414642
	N240	N	0.963397	0.409595	0.678437
	N241	N	0.037757	0.580314	0.678607
	N242	N	0.962596	0.579610	0.323443
	N243	N	0.036570	0.407883	0.320880
	N244	N	0.414272	0.673000	0.962679
	N245	N	0.587482	0.674252	0.036196
	N246	N	0.587068	0.314054	0.962499
	N247	N	0.414180	0.313915	0.037561
	N248	N	0.683062	0.958859	0.410436
	N249	N	0.678594	0.033077	0.582133
	N250	N	0.321014	0.957944	0.586354
	N251	N	0.323764	0.032589	0.414583
	N252	N	0.912619	0.457752	0.180652
	N253	N	0.085601	0.532050	0.179482
	N254	N	0.087633	0.457597	0.819784
	N255	N	0.915025	0.531039	0.823336
	N256	N	0.179574	0.909960	0.461343
	N257	N	0.177690	0.079894	0.536745
	N258	N	0.823632	0.081795	0.461377
	N259	N	0.823807	0.911282	0.536003
	N260	N	0.464266	0.172524	0.913040
	N261	N	0.537827	0.171517	0.084670
	N262	N	0.463164	0.816827	0.083976
	N263	N	0.537647	0.814075	0.911499
	N264	N	0.464389	0.907712	0.178267
	N265	N	0.538430	0.079316	0.176292
	N266	N	0.463418	0.079211	0.821289
	N267	N	0.538346	0.908594	0.820266
	N268	N	0.914510	0.175347	0.462663
	N269	N	0.087730	0.175184	0.535634
	N270	N	0.089232	0.813785	0.462524
	N271	N	0.915706	0.817720	0.536730
	N272	N	0.180090	0.457306	0.913474
	N273	N	0.178986	0.531804	0.085592
	N274	N	0.820684	0.457543	0.087138
	N275	N	0.822009	0.530924	0.916062
	O276	O	0.494018	0.441366	0.475081
	H277	H	0.496358	0.450188	0.475069
	H278	H	0.497211	0.447649	0.466762
	O279	O	0.576862	0.519603	0.490032
	H280	H	0.579676	0.523463	0.494743
	H281	H	0.578232	0.525199	0.489173
	O282	O	1.036452	1.025034	-0.007563
	H283	H	1.032726	1.023550	0.002139
	H284	H	1.036482	1.031202	0.002584
	O285	O	1.045455	-0.023147	0.882623
	H286	H	1.041469	-0.024859	0.878792
	H287	H	1.045538	-0.035700	0.867597
	O288	O	0.415142	0.572462	0.430126
	H289	H	0.417579	0.574807	0.431097
	H290	H	0.413304	0.572543	0.429707
	O291	O	0.572682	0.538601	0.486877
	H292	H	0.573706	0.537502	0.487111
	H293	H	0.576911	0.541575	0.481919
	O294	O	0.347438	0.582907	0.405218
	H295	H	0.346207	0.574438	0.390055
	H296	H	0.339842	0.589324	0.409064
	O297	O	0.077808	0.004923	0.862926
	H298	H	0.081160	-0.001813	0.860190
	H299	H	0.087137	-0.011551	0.856084
	O300	O	0.070133	0.969658	0.049470
	H301	H	0.066300	0.969399	0.050592
	H302	H	0.068690	0.973804	0.043992
	O303	O	1.073602	1.048385	0.147546
	H304	H	1.077161	1.059652	0.155397
	H305	H	1.078373	1.063131	0.139935
	O306	O	-0.057441	0.939053	1.030318
	H307	H	-0.061252	0.933143	1.037849
	H308	H	-0.055323	0.930852	1.028769
	O309	O	0.519338	0.381054	0.489130
	H310	H	0.525305	0.382690	0.504229
	H311	H	0.526831	0.377632	0.486687
	O312	O	-0.113802	0.025574	-0.084285
	H313	H	-0.105256	0.027937	-0.085233
	H314	H	-0.112123	0.031715	-0.079407
	O315	O	1.031835	0.050958	0.110437
	H316	H	1.021109	0.052336	0.113875
	H317	H	1.040701	0.057706	0.097174
	O318	O	0.974088	1.076746	1.076798
	H319	H	0.972532	1.074467	1.066108
	H320	H	0.971842	1.092385	1.072144
	O321	O	0.440860	0.460013	1.642549
	H322	H	0.438412	0.441953	1.643571
	H323	H	0.432745	0.469089	1.635668
	O324	O	0.405421	0.521606	0.540342
	H325	H	0.400583	0.526767	0.535846
	H326	H	0.405650	0.526449	0.532198
	O327	O	0.022367	-0.074310	0.012086
	H328	H	0.017327	-0.085519	0.022494
	H329	H	0.023949	-0.067763	0.010100
	O330	O	0.552209	0.561616	0.595413
	H331	H	0.550874	0.548813	0.591920
	H332	H	0.554202	0.562386	0.602281
	O333	O	0.007158	1.009790	1.031840
	H334	H	0.010575	1.012697	1.027334
	H335	H	0.013982	1.013999	1.036829
	O336	O	0.038259	-0.086045	-0.039161
	H337	H	0.059922	-0.090907	-0.034706
	H338	H	0.040348	-0.096838	-0.027994
	O339	O	0.460050	0.570965	0.436792
	H340	H	0.465244	0.574722	0.436040
	H341	H	0.472615	0.570562	0.435115
	O342	O	1.004692	0.881734	1.059624
	H343	H	1.007021	0.882719	1.069313
	H344	H	1.013176	0.873515	1.054728
	O345	O	1.035251	0.916704	-0.009517
	H346	H	1.019505	0.924994	-0.006103
	H347	H	1.031892	0.914611	-0.012672
	O348	O	0.531513	0.519370	0.549932
	H349	H	0.530184	0.517416	0.543785
	H350	H	0.530879	0.510241	0.557473
	O351	O	0.609156	0.553758	0.535541
	H352	H	0.608066	0.545392	0.531333
	H353	H	0.609659	0.553495	0.531173
	O354	O	0.419629	0.468651	0.396169
	H355	H	0.415096	0.473841	0.383472
	H356	H	0.426377	0.467498	0.413190
	O357	O	0.966717	-0.020640	0.966250
	H358	H	0.960622	-0.017940	0.964275
	H359	H	0.975816	-0.039014	0.968329
	O360	O	0.584864	0.366851	0.483364
	H361	H	0.573713	0.365177	0.488381
	H362	H	0.579182	0.369982	0.480523
	O363	O	0.444099	0.423255	0.500395
	H364	H	0.449253	0.415711	0.514041
	H365	H	0.438899	0.418248	0.504766
	O366	O	0.951369	0.941828	1.140028
	H367	H	0.956189	0.952246	1.140354
	H368	H	0.940268	0.938449	1.150193
	O369	O	1.067357	0.088465	0.969423
	H370	H	1.070244	0.098140	0.963406
	H371	H	1.068830	0.071083	0.958124
	O372	O	-0.082675	-0.037535	0.010620
	H373	H	-0.090387	-0.020101	0.002761
	H374	H	-0.093316	-0.044587	0.018516
	O375	O	0.959917	0.112036	-0.114463
	H376	H	0.969637	0.099251	-0.127437
	H377	H	0.950388	0.116164	-0.115153
	O378	O	0.503780	0.573161	0.409702
	H379	H	0.493222	0.570048	0.411830
	H380	H	0.498313	0.570602	0.406620
	O381	O	0.488522	0.546297	0.522651
	H382	H	0.477793	0.541320	0.520822
	H383	H	0.486185	0.558151	0.516382
