data_Molecule from HDF5

_cell_length_a		16.349373
_cell_length_b		16.326429
_cell_length_c		16.156769
_cell_angle_alpha	89.832170
_cell_angle_beta	89.937435
_cell_angle_gamma	90.066161
_symmetry_space_group_name_H-M	'P 1'
_symmetry_Int_Tables_number		1

loop_
	_symmetry_equiv_pos_as_xyz
	x,y,z

loop_
	_atom_site_label
	_atom_site_type_symbol
	_atom_site_fract_x
	_atom_site_fract_y
	_atom_site_fract_z
	H0	H	0.405510	0.845590	0.713375
	H1	H	0.601557	0.171956	0.710695
	H2	H	0.599534	0.844276	0.283903
	H3	H	0.406414	0.173162	0.284504
	H4	H	0.713504	0.412039	0.833913
	H5	H	0.714610	0.609645	0.163075
	H6	H	0.285636	0.610083	0.834076
	H7	H	0.285216	0.410852	0.163498
	H8	H	0.837776	0.724628	0.399899
	H9	H	0.163328	0.723463	0.597799
	H10	H	0.838535	0.291274	0.599386
	H11	H	0.163788	0.291883	0.397461
	H12	H	0.836809	0.410217	0.712682
	H13	H	0.163479	0.606871	0.713489
	H14	H	0.835848	0.605211	0.286307
	H15	H	0.164357	0.411709	0.283016
	H16	H	0.400163	0.725750	0.834609
	H17	H	0.596478	0.722220	0.163173
	H18	H	0.598601	0.298012	0.833410
	H19	H	0.399823	0.292982	0.162419
	H20	H	0.718738	0.845106	0.397255
	H21	H	0.718762	0.170348	0.597050
	H22	H	0.285623	0.846032	0.600434
	H23	H	0.284937	0.171099	0.396680
	H24	H	0.901677	0.344806	0.212307
	H25	H	0.095435	0.673048	0.210760
	H26	H	0.096298	0.345283	0.786452
	H27	H	0.902151	0.672419	0.783833
	H28	H	0.217207	0.908955	0.334477
	H29	H	0.217659	0.107722	0.663285
	H30	H	0.789496	0.106460	0.333770
	H31	H	0.786805	0.907604	0.662501
	H32	H	0.339050	0.225609	0.896957
	H33	H	0.664255	0.226550	0.097113
	H34	H	0.338910	0.793213	0.100378
	H35	H	0.663289	0.792204	0.897873
	H36	H	0.338054	0.911805	0.213465
	H37	H	0.665971	0.106930	0.210738
	H38	H	0.338670	0.106717	0.782594
	H39	H	0.666931	0.914023	0.786896
	H40	H	0.903772	0.222864	0.334910
	H41	H	0.102182	0.223495	0.663828
	H42	H	0.101088	0.794513	0.334015
	H43	H	0.903099	0.794260	0.663624
	H44	H	0.217236	0.347899	0.897182
	H45	H	0.215747	0.671883	0.100462
	H46	H	0.782508	0.346945	0.099006
	H47	H	0.785393	0.672836	0.899553
	H48	H	0.412228	0.121597	0.583376
	H49	H	0.587083	0.895528	0.588430
	H50	H	0.595255	0.123405	0.404799
	H51	H	0.408305	0.894378	0.410619
	H52	H	0.584831	0.411047	0.115680
	H53	H	0.600007	0.599615	0.880137
	H54	H	0.408126	0.606419	0.116854
	H55	H	0.415926	0.417683	0.883512
	H56	H	0.118954	0.608061	0.402114
	H57	H	0.882851	0.605230	0.591905
	H58	H	0.115173	0.414537	0.589100
	H59	H	0.888342	0.413169	0.414583
	H60	H	0.116219	0.418025	0.593064
	H61	H	0.885722	0.602258	0.587126
	H62	H	0.114362	0.601396	0.410630
	H63	H	0.886232	0.421606	0.403391
	H64	H	0.401174	0.601591	0.117451
	H65	H	0.586884	0.597285	0.883812
	H66	H	0.599207	0.416445	0.118779
	H67	H	0.402443	0.410393	0.877456
	H68	H	0.598544	0.123235	0.407192
	H69	H	0.603934	0.891223	0.585711
	H70	H	0.403732	0.125171	0.588084
	H71	H	0.405732	0.891533	0.403486
	H72	H	0.903578	0.627402	0.096274
	H73	H	0.084682	0.397024	0.084588
	H74	H	0.088234	0.624866	0.903128
	H75	H	0.905510	0.393948	0.909957
	H76	H	0.099449	0.916629	0.616813
	H77	H	0.086594	0.096665	0.386315
	H78	H	0.913329	0.104170	0.616988
	H79	H	0.908106	0.915483	0.381163
	H80	H	0.621947	0.114643	0.899487
	H81	H	0.386050	0.104843	0.087584
	H82	H	0.617840	0.913100	0.089473
	H83	H	0.388513	0.919230	0.911381
	H84	H	0.616174	0.916293	0.088690
	H85	H	0.387847	0.098232	0.090141
	H86	H	0.614664	0.106100	0.914156
	H87	H	0.386751	0.921503	0.901964
	H88	H	0.903417	0.099497	0.617887
	H89	H	0.094199	0.108292	0.379973
	H90	H	0.091447	0.918887	0.613924
	H91	H	0.910377	0.916801	0.380674
	H92	H	0.091936	0.623638	0.910597
	H93	H	0.100615	0.392707	0.085357
	H94	H	0.909483	0.624045	0.091742
	H95	H	0.901310	0.391134	0.905503
	H96	H	0.413143	0.124898	0.593442
	H97	H	0.596297	0.888517	0.601416
	H98	H	0.598936	0.124993	0.403615
	H99	H	0.412858	0.893204	0.404748
	H100	H	0.588368	0.425558	0.112375
	H101	H	0.590437	0.609422	0.879877
	H102	H	0.408848	0.598295	0.114400
	H103	H	0.402240	0.426676	0.883114
	H104	H	0.116240	0.596547	0.400446
	H105	H	0.884524	0.599586	0.592407
	H106	H	0.117794	0.413174	0.593078
	H107	H	0.882376	0.407980	0.402954
	H108	H	0.902510	0.625812	0.088313
	H109	H	0.091516	0.390999	0.099119
	H110	H	0.096016	0.627411	0.904648
	H111	H	0.907146	0.392876	0.903419
	H112	H	0.092480	0.911101	0.616879
	H113	H	0.100905	0.094160	0.382150
	H114	H	0.911903	0.094370	0.613510
	H115	H	0.910309	0.913977	0.380571
	H116	H	0.617227	0.096450	0.898946
	H117	H	0.384898	0.102721	0.094595
	H118	H	0.617752	0.915906	0.091626
	H119	H	0.384782	0.912526	0.904726
	C120	C	0.380514	0.016909	0.619500
	C121	C	0.624414	0.999481	0.619937
	C122	C	0.625282	0.016263	0.376102
	C123	C	0.380713	1.000899	0.377082
	C124	C	0.620433	0.389455	0.007091
	C125	C	0.620806	0.630342	0.990167
	C126	C	0.377712	0.631558	0.007687
	C127	C	0.377773	0.388304	0.989968
	C128	C	0.008418	0.630256	0.376703
	C129	C	0.991921	0.630573	0.620134
	C130	C	0.008976	0.386135	0.620972
	C131	C	0.993143	0.386113	0.376762
	C132	C	0.876574	0.517832	0.121007
	C133	C	0.120628	0.501052	0.119217
	C134	C	0.121161	0.517748	0.877104
	C135	C	0.877117	0.500802	0.876991
	C136	C	0.123297	0.886939	0.507074
	C137	C	0.123042	0.129379	0.491161
	C138	C	0.881151	0.128788	0.507710
	C139	C	0.880917	0.886469	0.489901
	C140	C	0.510236	0.133050	0.874897
	C141	C	0.493918	0.131192	0.119268
	C142	C	0.509662	0.887178	0.120029
	C143	C	0.494050	0.888603	0.876966
	C144	C	0.383611	0.894383	0.675996
	C145	C	0.621917	0.122761	0.673709
	C146	C	0.621599	0.893427	0.320523
	C147	C	0.384819	0.123994	0.322091
	C148	C	0.675602	0.391982	0.883050
	C149	C	0.676348	0.629016	0.113929
	C150	C	0.322750	0.630184	0.883495
	C151	C	0.322675	0.390070	0.113940
	C152	C	0.886292	0.686048	0.379567
	C153	C	0.114795	0.685401	0.618113
	C154	C	0.886749	0.329707	0.619384
	C155	C	0.115297	0.330663	0.377780
	C156	C	0.885763	0.389164	0.675347
	C157	C	0.114743	0.627204	0.675457
	C158	C	0.885030	0.626503	0.323290
	C159	C	0.115457	0.390029	0.320751
	C160	C	0.379767	0.687755	0.883809
	C161	C	0.617686	0.684923	0.114111
	C162	C	0.618335	0.335460	0.882642
	C163	C	0.379622	0.331438	0.113433
	C164	C	0.680110	0.893412	0.377647
	C165	C	0.680209	0.121977	0.617195
	C166	C	0.324209	0.894635	0.619895
	C167	C	0.324326	0.122803	0.377671
	C168	C	0.880076	0.394405	0.175651
	C169	C	0.117113	0.624038	0.174068
	C170	C	0.117769	0.394616	0.823072
	C171	C	0.880574	0.623525	0.821209
	C172	C	0.179240	0.888802	0.383573
	C173	C	0.179348	0.127932	0.614549
	C174	C	0.826734	0.126741	0.383253
	C175	C	0.825068	0.887678	0.613632
	C176	C	0.387542	0.187284	0.876912
	C177	C	0.615839	0.187815	0.116887
	C178	C	0.387404	0.831738	0.119565
	C179	C	0.615478	0.831578	0.878426
	C180	C	0.387189	0.890733	0.176014
	C181	C	0.616801	0.128431	0.173684
	C182	C	0.387721	0.128646	0.819548
	C183	C	0.617202	0.891924	0.822871
	C184	C	0.883374	0.184786	0.383958
	C185	C	0.121859	0.185452	0.614718
	C186	C	0.121176	0.832000	0.383263
	C187	C	0.883134	0.831555	0.613978
	C188	C	0.177898	0.395956	0.878200
	C189	C	0.176850	0.623395	0.119089
	C190	C	0.820657	0.395280	0.119563
	C191	C	0.823002	0.623929	0.879244
	C192	C	0.403116	0.102087	0.595221
	C193	C	0.602204	0.913794	0.597996
	C194	C	0.603925	0.101800	0.398713
	C195	C	0.402507	0.915263	0.399689
	C196	C	0.597499	0.411382	0.093359
	C197	C	0.598963	0.608357	0.903623
	C198	C	0.399590	0.608704	0.093786
	C199	C	0.400255	0.411336	0.903751
	C200	C	0.094254	0.608398	0.398010
	C201	C	0.906538	0.608707	0.597357
	C202	C	0.094233	0.408686	0.598456
	C203	C	0.907734	0.407832	0.400182
	C204	C	0.898737	0.603561	0.098691
	C205	C	0.098794	0.415728	0.096345
	C206	C	0.098606	0.603271	0.899589
	C207	C	0.898273	0.414859	0.899685
	C208	C	0.100900	0.909064	0.593611
	C209	C	0.100455	0.106591	0.405114
	C210	C	0.903055	0.105990	0.593895
	C211	C	0.903016	0.908831	0.403349
	C212	C	0.595873	0.111998	0.897454
	C213	C	0.408278	0.108642	0.097264
	C214	C	0.595117	0.908767	0.096695
	C215	C	0.408585	0.911000	0.899579
	Zn216	Zn	0.502878	0.009258	0.747262
	Zn217	Zn	0.502868	0.008900	0.248168
	Zn218	Zn	0.748526	0.509380	-0.001334
	Zn219	Zn	0.249792	0.510188	-0.001550
	Zn220	Zn	0.001703	0.759300	0.498729
	Zn221	Zn	0.001748	0.257208	0.499849
	Zn222	Zn	-0.000458	0.508737	0.748807
	Zn223	Zn	-0.000030	0.508847	0.247735
	Zn224	Zn	0.500144	0.758410	-0.001992
	Zn225	Zn	0.500956	0.261165	-0.002413
	Zn226	Zn	0.753373	0.007051	0.498420
	Zn227	Zn	0.251039	0.008319	0.498842
	N228	N	0.417914	0.971413	0.675744
	N229	N	0.587931	0.045794	0.675378
	N230	N	0.588000	0.970682	0.319725
	N231	N	0.419027	0.047046	0.321384
	N232	N	0.676937	0.424984	0.961320
	N233	N	0.678201	0.595695	0.035890
	N234	N	0.321209	0.596067	0.961385
	N235	N	0.321466	0.424589	0.036267
	N236	N	0.964082	0.688386	0.412115
	N237	N	0.037613	0.687628	0.584489
	N238	N	0.964426	0.327779	0.586216
	N239	N	0.038246	0.328106	0.411867
	N240	N	0.962565	0.423720	0.676312
	N241	N	0.037411	0.593966	0.676788
	N242	N	0.961975	0.592693	0.321222
	N243	N	0.038406	0.423863	0.320028
	N244	N	0.413350	0.688909	0.961896
	N245	N	0.583879	0.685975	0.036195
	N246	N	0.584449	0.333816	0.960582
	N247	N	0.413232	0.330231	0.035238
	N248	N	0.683055	0.970854	0.410936
	N249	N	0.681976	0.044313	0.584360
	N250	N	0.322300	0.971839	0.585380
	N251	N	0.321748	0.045215	0.411076
	N252	N	0.914183	0.471571	0.176637
	N253	N	0.082647	0.547139	0.174027
	N254	N	0.083290	0.471387	0.822257
	N255	N	0.913563	0.546087	0.819798
	N256	N	0.180611	0.922154	0.461715
	N257	N	0.180031	0.093661	0.536786
	N258	N	0.824971	0.092631	0.461303
	N259	N	0.823604	0.921300	0.535580
	N260	N	0.464750	0.190276	0.910473
	N261	N	0.538076	0.189672	0.083842
	N262	N	0.464488	0.829362	0.085434
	N263	N	0.537692	0.829346	0.911244
	N264	N	0.464315	0.924551	0.176376
	N265	N	0.540104	0.093946	0.175141
	N266	N	0.465107	0.095671	0.818379
	N267	N	0.540705	0.926619	0.821950
	N268	N	0.916401	0.186128	0.462118
	N269	N	0.087860	0.186599	0.536919
	N270	N	0.086939	0.830953	0.461168
	N271	N	0.916940	0.830553	0.535925
	N272	N	0.179904	0.473653	0.911138
	N273	N	0.179190	0.545981	0.085650
	N274	N	0.818300	0.472935	0.086497
	N275	N	0.820686	0.546481	0.913028
	O276	O	0.075556	0.047311	0.031305
	H277	H	0.081772	0.038911	0.031087
	H278	H	0.077657	0.049327	0.025977
	O279	O	0.417795	0.469788	0.442568
	H280	H	0.414766	0.469606	0.424127
	H281	H	0.415748	0.471162	0.454734
	O282	O	0.434941	0.538528	0.436069
	H283	H	0.437561	0.543688	0.433786
	H284	H	0.432419	0.541019	0.429417
	O285	O	0.987769	0.018475	1.060973
	H286	H	0.991045	0.014083	1.073534
	H287	H	0.985938	0.005101	1.060837
	O288	O	1.065242	-0.038817	0.005399
	H289	H	1.060462	-0.043082	0.000629
	H290	H	1.066645	-0.031627	0.007808
	O291	O	0.494573	0.525858	0.506712
	H292	H	0.493967	0.526807	0.517999
	H293	H	0.511043	0.522940	0.517912
	O294	O	1.039032	0.077322	1.079191
	H295	H	1.038603	0.079631	1.075266
	H296	H	1.040464	0.074250	1.083295
	O297	O	0.070228	-0.033718	-0.007165
	H298	H	0.079334	-0.042891	-0.004003
	H299	H	0.077500	-0.030560	-0.016729
	O300	O	1.152040	0.039351	-0.047987
	H301	H	1.144859	0.042580	-0.044897
	H302	H	1.148502	0.055658	-0.048746
	O303	O	0.500772	0.373486	0.627455
	H304	H	0.482043	0.374879	0.616066
	H305	H	0.496919	0.358353	0.637399
	O306	O	1.035572	0.051583	0.024793
	H307	H	1.045914	0.055435	0.025535
	H308	H	1.028013	0.054669	0.025927
	O309	O	-0.012731	-0.016737	0.942580
	H310	H	-0.008595	-0.013256	0.944013
	H311	H	-0.010458	-0.019435	0.937533
	O312	O	0.967955	1.075316	1.028599
	H313	H	0.962009	1.078208	1.023993
	H314	H	0.964328	1.079777	1.026536
	O315	O	0.536665	0.463094	0.391077
	H316	H	0.536158	0.463251	0.385699
	H317	H	0.540756	0.468839	0.385440
	O318	O	0.532623	0.517283	0.517816
	H319	H	0.523126	0.510059	0.523007
	H320	H	0.533775	0.510518	0.520181
	O321	O	-0.002237	0.975784	1.004953
	H322	H	-0.006338	0.984875	1.007900
	H323	H	0.006276	0.970575	1.005760
	O324	O	0.507024	0.427579	0.459840
	H325	H	0.506193	0.426192	0.457969
	H326	H	0.505423	0.430124	0.464728
	O327	O	0.433512	0.528954	0.530331
	H328	H	0.445946	0.530713	0.525147
	H329	H	0.441155	0.525876	0.530838
	O330	O	0.413935	0.516670	0.511022
	H331	H	0.408072	0.513680	0.503839
	H332	H	0.411580	0.524660	0.515203
	O333	O	0.588046	0.473324	0.535900
	H334	H	0.594452	0.475714	0.541307
	H335	H	0.590547	0.460249	0.530441
	O336	O	0.508629	0.537953	0.559809
	H337	H	0.512841	0.536289	0.563295
	H338	H	0.523628	0.534480	0.557428
	O339	O	1.040367	1.025992	0.070419
	H340	H	1.043216	1.029307	0.060489
	H341	H	1.039631	1.012101	0.078954
	O342	O	0.586716	0.508078	0.496050
	H343	H	0.591625	0.507718	0.488592
	H344	H	0.590285	0.500271	0.506259
	O345	O	0.461735	0.450445	0.472425
	H346	H	0.459938	0.454522	0.470486
	H347	H	0.458765	0.446559	0.467709
	O348	O	-0.028915	-0.031107	-0.032356
	H349	H	-0.022477	-0.035437	-0.025424
	H350	H	-0.025308	-0.028598	-0.025116
	O351	O	-0.018958	1.054376	0.977186
	H352	H	-0.027690	1.060907	0.991923
	H353	H	-0.027002	1.060437	0.974040
	O354	O	0.387516	0.463089	0.580574
	H355	H	0.380004	0.464377	0.579171
	H356	H	0.386874	0.470616	0.576607
	O357	O	0.033456	0.924698	0.986462
	H358	H	0.044268	0.909579	0.984111
	H359	H	0.033240	0.927453	0.972180
