data_Molecule from HDF5

_cell_length_a		16.307958
_cell_length_b		16.269207
_cell_length_c		16.387344
_cell_angle_alpha	89.933895
_cell_angle_beta	89.953696
_cell_angle_gamma	90.064548
_symmetry_space_group_name_H-M	'P 1'
_symmetry_Int_Tables_number		1

loop_
	_symmetry_equiv_pos_as_xyz
	x,y,z

loop_
	_atom_site_label
	_atom_site_type_symbol
	_atom_site_fract_x
	_atom_site_fract_y
	_atom_site_fract_z
	H0	H	0.400821	0.836957	0.715291
	H1	H	0.598075	0.163881	0.714062
	H2	H	0.597264	0.836639	0.286021
	H3	H	0.400943	0.163697	0.285173
	H4	H	0.714748	0.402772	0.837474
	H5	H	0.715199	0.598458	0.162792
	H6	H	0.285548	0.598648	0.837421
	H7	H	0.285590	0.402394	0.163643
	H8	H	0.836470	0.712849	0.403682
	H9	H	0.163927	0.714558	0.597592
	H10	H	0.835468	0.286571	0.597234
	H11	H	0.163323	0.285602	0.403169
	H12	H	0.836875	0.400595	0.715255
	H13	H	0.163847	0.598901	0.714980
	H14	H	0.837294	0.600115	0.284534
	H15	H	0.163248	0.400981	0.285126
	H16	H	0.402746	0.714315	0.836967
	H17	H	0.597663	0.713868	0.163525
	H18	H	0.598618	0.285614	0.837255
	H19	H	0.402030	0.285533	0.163111
	H20	H	0.712820	0.835929	0.402936
	H21	H	0.713094	0.164519	0.596469
	H22	H	0.286277	0.836666	0.597286
	H23	H	0.287162	0.164337	0.403048
	H24	H	0.899654	0.337134	0.216066
	H25	H	0.100117	0.663422	0.215820
	H26	H	0.099319	0.335625	0.785303
	H27	H	0.901902	0.663155	0.784905
	H28	H	0.215453	0.901072	0.336590
	H29	H	0.214511	0.097650	0.662938
	H30	H	0.786626	0.097765	0.337494
	H31	H	0.785408	0.902116	0.663112
	H32	H	0.336104	0.213362	0.904102
	H33	H	0.663529	0.214096	0.097627
	H34	H	0.335650	0.786433	0.096402
	H35	H	0.664065	0.788392	0.903952
	H36	H	0.336512	0.901100	0.215325
	H37	H	0.663381	0.097396	0.214304
	H38	H	0.336851	0.100017	0.784746
	H39	H	0.662045	0.900882	0.783586
	H40	H	0.903214	0.213652	0.337328
	H41	H	0.096383	0.213249	0.663732
	H42	H	0.098089	0.785483	0.336713
	H43	H	0.903312	0.786718	0.663197
	H44	H	0.214335	0.335748	0.902954
	H45	H	0.213011	0.664728	0.095984
	H46	H	0.786281	0.336451	0.097727
	H47	H	0.785936	0.663608	0.901201
	H48	H	0.405727	0.116674	0.589525
	H49	H	0.581951	0.889402	0.583423
	H50	H	0.590634	0.117139	0.402556
	H51	H	0.408279	0.882830	0.403635
	H52	H	0.588022	0.410614	0.113270
	H53	H	0.589281	0.600560	0.884456
	H54	H	0.410663	0.598548	0.116133
	H55	H	0.404310	0.402168	0.881923
	H56	H	0.118829	0.597347	0.403667
	H57	H	0.883624	0.593728	0.592515
	H58	H	0.119745	0.403941	0.600124
	H59	H	0.881930	0.396584	0.412127
	H60	H	0.116136	0.402009	0.587485
	H61	H	0.884908	0.591621	0.594625
	H62	H	0.114786	0.592659	0.413127
	H63	H	0.888805	0.417287	0.413460
	H64	H	0.399193	0.595269	0.118523
	H65	H	0.602357	0.594121	0.882151
	H66	H	0.591951	0.399550	0.117773
	H67	H	0.403544	0.410167	0.884620
	H68	H	0.592443	0.115737	0.409719
	H69	H	0.607813	0.880632	0.588953
	H70	H	0.405185	0.117978	0.595351
	H71	H	0.410161	0.885034	0.409321
	H72	H	0.906584	0.618470	0.099317
	H73	H	0.085761	0.387350	0.087897
	H74	H	0.097206	0.618740	0.901579
	H75	H	0.908395	0.384172	0.907473
	H76	H	0.085325	0.904424	0.613619
	H77	H	0.083455	0.092382	0.387949
	H78	H	0.905523	0.090243	0.615339
	H79	H	0.907485	0.913895	0.386695
	H80	H	0.613748	0.087640	0.907362
	H81	H	0.382730	0.092283	0.097321
	H82	H	0.615972	0.905164	0.092619
	H83	H	0.383410	0.902792	0.910593
	H84	H	0.614738	0.909031	0.093401
	H85	H	0.382964	0.096427	0.090767
	H86	H	0.617713	0.093474	0.900429
	H87	H	0.385070	0.912317	0.907877
	H88	H	0.908471	0.094886	0.616653
	H89	H	0.096955	0.102791	0.380467
	H90	H	0.099315	0.900645	0.618437
	H91	H	0.911421	0.900261	0.384294
	H92	H	0.086468	0.614328	0.904941
	H93	H	0.102360	0.382468	0.090541
	H94	H	0.914120	0.613640	0.090921
	H95	H	0.906679	0.383769	0.907081
	H96	H	0.410654	0.116491	0.593651
	H97	H	0.588828	0.880462	0.608390
	H98	H	0.597191	0.118359	0.405358
	H99	H	0.403758	0.882832	0.408562
	H100	H	0.599942	0.409562	0.116487
	H101	H	0.591501	0.586416	0.888227
	H102	H	0.406907	0.587219	0.114046
	H103	H	0.411194	0.406435	0.885937
	H104	H	0.115331	0.586688	0.403263
	H105	H	0.883703	0.593882	0.595085
	H106	H	0.113105	0.413725	0.593341
	H107	H	0.881045	0.409449	0.394681
	H108	H	0.903029	0.616779	0.087565
	H109	H	0.090860	0.381484	0.102888
	H110	H	0.095744	0.614623	0.912694
	H111	H	0.907983	0.382981	0.906445
	H112	H	0.096340	0.915061	0.613393
	H113	H	0.100055	0.084987	0.385654
	H114	H	0.903132	0.094363	0.617551
	H115	H	0.897736	0.904883	0.381531
	H116	H	0.616644	0.096935	0.909656
	H117	H	0.385145	0.088846	0.091458
	H118	H	0.617026	0.907269	0.096351
	H119	H	0.382021	0.905791	0.901088
	C120	C	0.378917	0.008645	0.621091
	C121	C	0.621182	0.991599	0.621741
	C122	C	0.621445	0.008482	0.378186
	C123	C	0.378520	0.991797	0.378441
	C124	C	0.621902	0.378421	0.008252
	C125	C	0.622558	0.622037	0.992390
	C126	C	0.378257	0.621612	0.008203
	C127	C	0.378219	0.378312	0.992155
	C128	C	0.008533	0.621211	0.378426
	C129	C	0.992284	0.621710	0.621885
	C130	C	0.007923	0.378165	0.621719
	C131	C	0.991950	0.378977	0.378774
	C132	C	0.879262	0.508428	0.120844
	C133	C	0.121518	0.492059	0.121589
	C134	C	0.121636	0.507717	0.878750
	C135	C	0.879149	0.491697	0.878603
	C136	C	0.121831	0.878250	0.507408
	C137	C	0.121674	0.121792	0.492083
	C138	C	0.877941	0.121596	0.508970
	C139	C	0.877737	0.878216	0.491797
	C140	C	0.508324	0.121424	0.877874
	C141	C	0.491680	0.121311	0.121720
	C142	C	0.507819	0.878355	0.122050
	C143	C	0.491273	0.878817	0.878439
	C144	C	0.380892	0.885582	0.676529
	C145	C	0.618386	0.115136	0.676117
	C146	C	0.618032	0.885237	0.323971
	C147	C	0.380277	0.114774	0.322884
	C148	C	0.677023	0.381737	0.885970
	C149	C	0.677072	0.618990	0.114603
	C150	C	0.323495	0.618975	0.885761
	C151	C	0.324021	0.382199	0.115023
	C152	C	0.885355	0.675902	0.382038
	C153	C	0.115221	0.676755	0.618368
	C154	C	0.884661	0.323726	0.618527
	C155	C	0.114789	0.323812	0.382132
	C156	C	0.885243	0.380630	0.676885
	C157	C	0.115308	0.619206	0.676447
	C158	C	0.885964	0.619879	0.322886
	C159	C	0.114654	0.381062	0.323619
	C160	C	0.381980	0.676144	0.885650
	C161	C	0.618631	0.676391	0.114768
	C162	C	0.619279	0.323624	0.885984
	C163	C	0.381397	0.323658	0.114691
	C164	C	0.675609	0.885086	0.381882
	C165	C	0.675389	0.115549	0.617788
	C166	C	0.324349	0.885113	0.617657
	C167	C	0.324150	0.115254	0.381644
	C168	C	0.880400	0.385575	0.176859
	C169	C	0.119531	0.615077	0.176834
	C170	C	0.119883	0.384524	0.823374
	C171	C	0.881600	0.614646	0.823322
	C172	C	0.177261	0.880647	0.385082
	C173	C	0.176063	0.118152	0.614637
	C174	C	0.823921	0.118377	0.386163
	C175	C	0.823221	0.881071	0.614489
	C176	C	0.385125	0.176052	0.881989
	C177	C	0.614807	0.175847	0.118255
	C178	C	0.384502	0.823847	0.118159
	C179	C	0.614703	0.824729	0.881832
	C180	C	0.384858	0.880595	0.177043
	C181	C	0.614624	0.118244	0.176330
	C182	C	0.385445	0.119870	0.822831
	C183	C	0.614056	0.881194	0.822750
	C184	C	0.881573	0.176256	0.386094
	C185	C	0.117848	0.175862	0.614941
	C186	C	0.118734	0.823349	0.385114
	C187	C	0.881925	0.824019	0.614605
	C188	C	0.176942	0.384460	0.881723
	C189	C	0.175868	0.615699	0.117624
	C190	C	0.823932	0.385098	0.118319
	C191	C	0.824174	0.614789	0.881212
	C192	C	0.400810	0.094717	0.599285
	C193	C	0.599411	0.905630	0.600023
	C194	C	0.599753	0.094881	0.399515
	C195	C	0.400931	0.905743	0.400596
	C196	C	0.599744	0.400120	0.093794
	C197	C	0.600807	0.600187	0.906892
	C198	C	0.399433	0.600164	0.094051
	C199	C	0.399940	0.399861	0.906277
	C200	C	0.094266	0.598666	0.400178
	C201	C	0.906254	0.599539	0.600479
	C202	C	0.094025	0.400176	0.599914
	C203	C	0.905973	0.401152	0.400413
	C204	C	0.901622	0.594173	0.099042
	C205	C	0.099550	0.405898	0.100153
	C206	C	0.099585	0.593744	0.900161
	C207	C	0.901328	0.405714	0.900522
	C208	C	0.100112	0.900240	0.592886
	C209	C	0.099882	0.099862	0.406691
	C210	C	0.899418	0.099699	0.594369
	C211	C	0.899131	0.899855	0.406287
	C212	C	0.593932	0.099290	0.899451
	C213	C	0.405705	0.098944	0.099685
	C214	C	0.593648	0.900534	0.100600
	C215	C	0.405467	0.900610	0.900078
	Zn216	Zn	0.499330	0.000041	0.749521
	Zn217	Zn	0.499112	0.000115	0.250630
	Zn218	Zn	0.750842	0.499985	0.000012
	Zn219	Zn	0.249322	0.499886	-0.000430
	Zn220	Zn	0.000111	0.749548	0.499483
	Zn221	Zn	-0.000388	0.250268	0.500493
	Zn222	Zn	0.000502	0.499382	0.749903
	Zn223	Zn	-0.000058	0.500137	0.249614
	Zn224	Zn	0.500279	0.750438	0.000088
	Zn225	Zn	0.500027	0.249421	-0.000254
	Zn226	Zn	0.749045	-0.000076	0.500228
	Zn227	Zn	0.250816	0.000087	0.499383
	N228	N	0.413998	0.963261	0.678415
	N229	N	0.585309	0.037218	0.678573
	N230	N	0.584969	0.962921	0.321818
	N231	N	0.413486	0.037114	0.321250
	N232	N	0.678718	0.414944	0.963143
	N233	N	0.679362	0.585786	0.037461
	N234	N	0.321195	0.585730	0.963050
	N235	N	0.321639	0.415228	0.037626
	N236	N	0.962459	0.676681	0.415905
	N237	N	0.037794	0.678069	0.585021
	N238	N	0.962014	0.322243	0.584907
	N239	N	0.037427	0.322529	0.415659
	N240	N	0.962854	0.413726	0.678788
	N241	N	0.037828	0.585734	0.678807
	N242	N	0.963590	0.586733	0.320363
	N243	N	0.037222	0.414714	0.321600
	N244	N	0.415354	0.677823	0.962684
	N245	N	0.585430	0.678234	0.037663
	N246	N	0.585327	0.321842	0.962878
	N247	N	0.414521	0.321488	0.037365
	N248	N	0.677707	0.962856	0.414729
	N249	N	0.677387	0.037876	0.584830
	N250	N	0.322846	0.962695	0.584045
	N251	N	0.322949	0.037683	0.415420
	N252	N	0.914315	0.463076	0.178589
	N253	N	0.086598	0.537263	0.179387
	N254	N	0.085901	0.461954	0.821670
	N255	N	0.915059	0.537068	0.821493
	N256	N	0.179204	0.914224	0.462202
	N257	N	0.178576	0.085205	0.537415
	N258	N	0.821499	0.085089	0.463377
	N259	N	0.820715	0.914222	0.537282
	N260	N	0.462419	0.177046	0.915568
	N261	N	0.537258	0.177805	0.085168
	N262	N	0.461754	0.822430	0.084679
	N263	N	0.537482	0.823179	0.915698
	N264	N	0.462455	0.913921	0.179461
	N265	N	0.536992	0.084920	0.178280
	N266	N	0.462968	0.086438	0.820317
	N267	N	0.536332	0.914049	0.820540
	N268	N	0.914699	0.178261	0.463272
	N269	N	0.084693	0.178087	0.537726
	N270	N	0.084988	0.821988	0.462084
	N271	N	0.915002	0.822039	0.537326
	N272	N	0.178007	0.461941	0.915238
	N273	N	0.177088	0.538213	0.083914
	N274	N	0.823031	0.462425	0.084374
	N275	N	0.822589	0.537329	0.914842
