data_Molecule from HDF5

_cell_length_a		16.233443
_cell_length_b		16.322680
_cell_length_c		16.491897
_cell_angle_alpha	89.960745
_cell_angle_beta	89.799462
_cell_angle_gamma	90.286724
_symmetry_space_group_name_H-M	'P 1'
_symmetry_Int_Tables_number		1

loop_
	_symmetry_equiv_pos_as_xyz
	x,y,z

loop_
	_atom_site_label
	_atom_site_type_symbol
	_atom_site_fract_x
	_atom_site_fract_y
	_atom_site_fract_z
	H0	H	0.401042	0.837479	0.729685
	H1	H	0.617230	0.156276	0.734938
	H2	H	0.612639	0.835843	0.292197
	H3	H	0.403650	0.156975	0.288866
	H4	H	0.730326	0.391445	0.855500
	H5	H	0.723372	0.599483	0.173611
	H6	H	0.290965	0.594927	0.851113
	H7	H	0.284269	0.392428	0.171551
	H8	H	0.843081	0.715149	0.413259
	H9	H	0.168245	0.719704	0.612774
	H10	H	0.845710	0.280213	0.615964
	H11	H	0.169329	0.286310	0.411748
	H12	H	0.845468	0.395034	0.732038
	H13	H	0.166720	0.607730	0.732286
	H14	H	0.844974	0.605535	0.293420
	H15	H	0.167975	0.400090	0.294162
	H16	H	0.404371	0.714949	0.852588
	H17	H	0.607879	0.716426	0.171856
	H18	H	0.612698	0.275527	0.853595
	H19	H	0.400635	0.275532	0.171178
	H20	H	0.726222	0.837068	0.409780
	H21	H	0.721321	0.161257	0.609152
	H22	H	0.287164	0.838731	0.611116
	H23	H	0.292892	0.161669	0.409300
	H24	H	0.899925	0.341122	0.236114
	H25	H	0.112694	0.660811	0.229944
	H26	H	0.116166	0.342022	0.786624
	H27	H	0.902429	0.660061	0.794006
	H28	H	0.223907	0.901798	0.350241
	H29	H	0.228394	0.105187	0.670495
	H30	H	0.788803	0.103574	0.351324
	H31	H	0.784938	0.895261	0.670001
	H32	H	0.344307	0.213083	0.908982
	H33	H	0.664985	0.220534	0.119258
	H34	H	0.342605	0.780804	0.110829
	H35	H	0.668425	0.777923	0.909125
	H36	H	0.345622	0.889827	0.231861
	H37	H	0.667497	0.101651	0.230617
	H38	H	0.346119	0.099983	0.791963
	H39	H	0.667378	0.888894	0.789315
	H40	H	0.906054	0.220893	0.352180
	H41	H	0.114037	0.223100	0.669980
	H42	H	0.111871	0.781133	0.351794
	H43	H	0.902667	0.780818	0.670857
	H44	H	0.220151	0.335367	0.910498
	H45	H	0.223652	0.660237	0.108818
	H46	H	0.785562	0.338657	0.119236
	H47	H	0.787774	0.659544	0.912029
	H48	H	0.415960	0.115467	0.604091
	H49	H	0.590598	0.884682	0.603327
	H50	H	0.591554	0.110500	0.419253
	H51	H	0.410572	0.881664	0.418976
	H52	H	0.593868	0.400353	0.128291
	H53	H	0.589179	0.584945	0.902259
	H54	H	0.418978	0.593375	0.126788
	H55	H	0.419888	0.405725	0.900435
	H56	H	0.123324	0.588961	0.412513
	H57	H	0.891599	0.584031	0.606524
	H58	H	0.119745	0.414962	0.597485
	H59	H	0.891380	0.410578	0.424582
	H60	H	0.121610	0.417280	0.604022
	H61	H	0.888520	0.594184	0.607202
	H62	H	0.124042	0.599227	0.421610
	H63	H	0.891142	0.412795	0.423261
	H64	H	0.406834	0.590377	0.128800
	H65	H	0.598480	0.592254	0.897049
	H66	H	0.599223	0.412047	0.124609
	H67	H	0.413538	0.398202	0.895984
	H68	H	0.599593	0.112389	0.421204
	H69	H	0.596661	0.885353	0.596160
	H70	H	0.423924	0.112812	0.606980
	H71	H	0.421150	0.884212	0.417849
	H72	H	0.913341	0.614854	0.103978
	H73	H	0.086783	0.385849	0.107927
	H74	H	0.095138	0.612924	0.920573
	H75	H	0.923589	0.386232	0.923015
	H76	H	0.098404	0.912310	0.623948
	H77	H	0.090603	0.096235	0.399924
	H78	H	0.912913	0.096663	0.627145
	H79	H	0.919192	0.915631	0.400343
	H80	H	0.621769	0.084900	0.921012
	H81	H	0.396765	0.075123	0.095120
	H82	H	0.622603	0.905847	0.102022
	H83	H	0.390421	0.904735	0.916914
	H84	H	0.621769	0.905293	0.101775
	H85	H	0.389458	0.080419	0.112213
	H86	H	0.620199	0.086043	0.925919
	H87	H	0.391049	0.903513	0.921138
	H88	H	0.912299	0.084938	0.624244
	H89	H	0.104470	0.098729	0.394404
	H90	H	0.094319	0.910162	0.623376
	H91	H	0.922230	0.904362	0.397443
	H92	H	0.098611	0.613085	0.925388
	H93	H	0.094884	0.385075	0.098991
	H94	H	0.918217	0.614111	0.105425
	H95	H	0.916611	0.385443	0.925688
	H96	H	0.421385	0.111143	0.598871
	H97	H	0.599373	0.881715	0.604216
	H98	H	0.596874	0.114055	0.413803
	H99	H	0.416117	0.885633	0.427184
	H100	H	0.586098	0.409013	0.120825
	H101	H	0.601045	0.579914	0.901077
	H102	H	0.415257	0.581065	0.124413
	H103	H	0.409664	0.407972	0.898382
	H104	H	0.118992	0.586518	0.425748
	H105	H	0.892894	0.590728	0.598684
	H106	H	0.122685	0.410367	0.601715
	H107	H	0.890761	0.410582	0.422486
	H108	H	0.917074	0.613188	0.100624
	H109	H	0.097635	0.381488	0.110077
	H110	H	0.100871	0.615266	0.920211
	H111	H	0.917936	0.384277	0.918793
	H112	H	0.097793	0.907635	0.626423
	H113	H	0.100697	0.084977	0.399992
	H114	H	0.922440	0.090819	0.622089
	H115	H	0.910926	0.908265	0.395711
	H116	H	0.619736	0.080936	0.923642
	H117	H	0.389747	0.093314	0.097857
	H118	H	0.622253	0.906500	0.101971
	H119	H	0.391750	0.907926	0.920287
	C120	C	0.386944	0.007169	0.632858
	C121	C	0.628538	0.989454	0.632851
	C122	C	0.628429	0.006159	0.388252
	C123	C	0.386127	0.990070	0.390041
	C124	C	0.627779	0.374533	0.020730
	C125	C	0.627279	0.618120	1.004783
	C126	C	0.384311	0.617591	0.020643
	C127	C	0.382666	0.373302	1.003518
	C128	C	0.015059	0.622251	0.390178
	C129	C	0.997647	0.622086	0.634057
	C130	C	0.015345	0.380279	0.633511
	C131	C	0.998517	0.381469	0.392462
	C132	C	0.884507	0.508120	0.135335
	C133	C	0.126916	0.490423	0.134774
	C134	C	0.128845	0.507417	0.890116
	C135	C	0.886741	0.490876	0.892011
	C136	C	0.128238	0.879525	0.519261
	C137	C	0.130253	0.124001	0.502980
	C138	C	0.885550	0.122072	0.519377
	C139	C	0.884984	0.878297	0.502996
	C140	C	0.514491	0.115941	0.891689
	C141	C	0.498027	0.116374	0.132878
	C142	C	0.514908	0.874874	0.132576
	C143	C	0.497823	0.874113	0.888849
	C144	C	0.383472	0.885862	0.690323
	C145	C	0.632687	0.109222	0.693403
	C146	C	0.630645	0.884516	0.331094
	C147	C	0.385221	0.109823	0.329351
	C148	C	0.689754	0.372771	0.902401
	C149	C	0.684817	0.618949	0.125222
	C150	C	0.328529	0.615769	0.899437
	C151	C	0.323918	0.373217	0.123670
	C152	C	0.892116	0.677863	0.392682
	C153	C	0.119637	0.680651	0.632824
	C154	C	0.894319	0.319986	0.634867
	C155	C	0.120603	0.324442	0.392143
	C156	C	0.894191	0.377030	0.692897
	C157	C	0.118820	0.625222	0.692519
	C158	C	0.893159	0.623321	0.332838
	C159	C	0.119833	0.380991	0.333730
	C160	C	0.385163	0.675063	0.900065
	C161	C	0.627358	0.677174	0.124367
	C162	C	0.631022	0.314806	0.901800
	C163	C	0.381568	0.314983	0.123512
	C164	C	0.687007	0.885045	0.389769
	C165	C	0.685322	0.111647	0.631023
	C166	C	0.326758	0.886634	0.631479
	C167	C	0.330282	0.112236	0.389526
	C168	C	0.881708	0.388536	0.196107
	C169	C	0.130093	0.612178	0.190817
	C170	C	0.131779	0.388599	0.828688
	C171	C	0.884531	0.611954	0.833676
	C172	C	0.185867	0.880915	0.398721
	C173	C	0.189461	0.124640	0.622677
	C174	C	0.828072	0.122680	0.399227
	C175	C	0.824937	0.876974	0.622471
	C176	C	0.393043	0.174503	0.890101
	C177	C	0.617808	0.178498	0.135555
	C178	C	0.391895	0.818383	0.131274
	C179	C	0.619528	0.815795	0.889022
	C180	C	0.393514	0.872607	0.191523
	C181	C	0.619122	0.119547	0.191314
	C182	C	0.393996	0.117936	0.832064
	C183	C	0.619078	0.871399	0.829452
	C184	C	0.886113	0.181210	0.399735
	C185	C	0.132339	0.183193	0.622566
	C186	C	0.129958	0.820861	0.399459
	C187	C	0.883215	0.819595	0.622913
	C188	C	0.183991	0.385114	0.890392
	C189	C	0.185661	0.611705	0.130853
	C190	C	0.825194	0.386972	0.137463
	C191	C	0.827415	0.611588	0.892315
	C192	C	0.412811	0.091383	0.609967
	C193	C	0.602890	0.905414	0.608451
	C194	C	0.603493	0.090302	0.411237
	C195	C	0.409288	0.905831	0.414298
	C196	C	0.601080	0.399935	0.103395
	C197	C	0.603383	0.593007	0.921700
	C198	C	0.406967	0.594834	0.104805
	C199	C	0.407220	0.397122	0.920045
	C200	C	0.100049	0.598427	0.413133
	C201	C	0.913028	0.596886	0.610758
	C202	C	0.099613	0.406759	0.608393
	C203	C	0.913354	0.404577	0.416599
	C204	C	0.909286	0.592203	0.110407
	C205	C	0.100796	0.405986	0.112230
	C206	C	0.105030	0.591829	0.914915
	C207	C	0.912043	0.407087	0.915737
	C208	C	0.103897	0.903154	0.602916
	C209	C	0.105641	0.100238	0.419835
	C210	C	0.909249	0.097830	0.602728
	C211	C	0.910134	0.902490	0.419623
	C212	C	0.598624	0.091262	0.916410
	C213	C	0.413870	0.090307	0.108698
	C214	C	0.599978	0.898889	0.108758
	C215	C	0.413186	0.898449	0.912592
	Zn216	Zn	0.507789	-0.003189	0.761668
	Zn217	Zn	0.507077	-0.004803	0.260585
	Zn218	Zn	0.757212	0.497879	0.013415
	Zn219	Zn	0.254569	0.496380	0.012226
	Zn220	Zn	0.006591	0.749398	0.511329
	Zn221	Zn	0.007609	0.252006	0.512222
	Zn222	Zn	0.007147	0.500240	0.762471
	Zn223	Zn	0.005670	0.501387	0.263260
	Zn224	Zn	0.505713	0.747551	0.011968
	Zn225	Zn	0.505273	0.244878	0.011875
	Zn226	Zn	0.755712	-0.000614	0.510274
	Zn227	Zn	0.257677	0.001118	0.511132
	N228	N	0.420117	0.961892	0.691192
	N229	N	0.598297	0.031946	0.694885
	N230	N	0.595045	0.960786	0.329981
	N231	N	0.419271	0.032828	0.329599
	N232	N	0.688140	0.408757	0.977654
	N233	N	0.684971	0.582841	0.049818
	N234	N	0.327997	0.580585	0.975177
	N235	N	0.324204	0.408574	0.048045
	N236	N	0.968917	0.677418	0.427563
	N237	N	0.043153	0.678865	0.597244
	N238	N	0.970882	0.321524	0.599072
	N239	N	0.043963	0.324607	0.428074
	N240	N	0.970725	0.413788	0.692193
	N241	N	0.042191	0.589259	0.693142
	N242	N	0.970732	0.589697	0.331014
	N243	N	0.042839	0.415478	0.333794
	N244	N	0.419090	0.676321	0.976272
	N245	N	0.592237	0.676804	0.048609
	N246	N	0.593347	0.315862	0.976561
	N247	N	0.417198	0.314574	0.047794
	N248	N	0.685972	0.961602	0.424351
	N249	N	0.682779	0.036162	0.594153
	N250	N	0.328653	0.963035	0.596413
	N251	N	0.330957	0.036960	0.426962
	N252	N	0.917695	0.464848	0.194777
	N253	N	0.094402	0.535684	0.193322
	N254	N	0.097934	0.465716	0.828410
	N255	N	0.920574	0.535878	0.833293
	N256	N	0.185113	0.916327	0.474197
	N257	N	0.188437	0.088674	0.547225
	N258	N	0.827731	0.086483	0.474403
	N259	N	0.825938	0.912838	0.546990
	N260	N	0.469188	0.173464	0.926448
	N261	N	0.541566	0.176599	0.099659
	N262	N	0.468433	0.819733	0.095344
	N263	N	0.543084	0.817146	0.925077
	N264	N	0.471111	0.906845	0.192782
	N265	N	0.543714	0.081180	0.189458
	N266	N	0.470612	0.082433	0.832696
	N267	N	0.542464	0.906961	0.829053
	N268	N	0.921072	0.181042	0.475557
	N269	N	0.096162	0.183072	0.547446
	N270	N	0.094916	0.819604	0.475622
	N271	N	0.920132	0.820443	0.547797
	N272	N	0.182244	0.460155	0.927916
	N273	N	0.183803	0.534899	0.096752
	N274	N	0.826730	0.462349	0.100283
	N275	N	0.828502	0.535322	0.927931
	O276	O	0.081751	0.090253	0.176535
	H277	H	0.058488	0.092104	0.185305
	H278	H	0.081926	0.098551	0.174111
	O279	O	0.633956	0.580828	0.615900
	H280	H	0.637932	0.570159	0.613256
	H281	H	0.635712	0.586239	0.599353
	O282	O	0.426582	-0.476790	0.536937
	H283	H	0.424302	-0.479689	0.531383
	H284	H	0.422778	-0.472124	0.528080
	O285	O	0.579579	0.360292	0.574078
	H286	H	0.575006	0.355524	0.577329
	H287	H	0.587246	0.364747	0.589915
	O288	O	1.057340	0.981188	1.169468
	H289	H	1.043171	0.973521	1.165308
	H290	H	1.045509	0.992864	1.163385
	O291	O	-0.146750	0.914191	0.208839
	H292	H	-0.145608	0.883509	0.206571
	H293	H	-0.152714	0.919930	0.217881
	O294	O	0.554493	0.397151	0.468216
	H295	H	0.538136	0.389205	0.473954
	H296	H	0.559920	0.403691	0.476476
	O297	O	0.633810	0.473038	0.680553
	H298	H	0.630909	0.484388	0.680550
	H299	H	0.614759	0.465127	0.682992
	O300	O	0.365368	0.330162	0.590029
	H301	H	0.367224	0.340315	0.586501
	H302	H	0.362262	0.351500	0.589083
	O303	O	0.450297	0.647978	0.345307
	H304	H	0.434464	0.663585	0.343484
	H305	H	0.461569	0.636378	0.349132
	O306	O	0.560365	0.597774	0.640389
	H307	H	0.562758	0.607869	0.659242
	H308	H	0.561142	0.594441	0.633797
	O309	O	0.554025	0.534538	0.438626
	H310	H	0.554996	0.539283	0.453297
	H311	H	0.560143	0.530507	0.446797
	O312	O	0.153181	-0.011329	-0.069164
	H313	H	0.149965	-0.003601	-0.076205
	H314	H	0.155732	-0.008201	-0.066121
	O315	O	0.338192	0.488380	0.625648
	H316	H	0.334641	0.493425	0.625542
	H317	H	0.347430	0.494161	0.619724
	O318	O	0.092615	0.988548	1.019271
	H319	H	0.093213	0.987684	1.038979
	H320	H	0.099120	0.996822	1.032420
	O321	O	0.618616	0.327168	0.407906
	H322	H	0.619400	0.324624	0.411581
	H323	H	0.607320	0.317380	0.416120
	O324	O	-0.091435	0.966961	-0.064969
	H325	H	-0.095751	0.970836	-0.056376
	H326	H	-0.094560	0.954589	-0.070257
	O327	O	0.117479	0.199498	0.104579
	H328	H	0.110911	0.194371	0.097274
	H329	H	0.112362	0.195272	0.090030
	O330	O	0.001619	-0.098831	0.857866
	H331	H	0.014187	-0.108890	0.854803
	H332	H	0.007388	-0.101891	0.865434
	O333	O	0.141888	-0.097220	1.114953
	H334	H	0.139440	-0.080201	1.117497
	H335	H	0.153157	-0.087495	1.109010
	O336	O	0.370489	0.449693	0.379839
	H337	H	0.377015	0.448363	0.377466
	H338	H	0.367962	0.454059	0.391100
	O339	O	0.834256	-0.175388	0.130615
	H340	H	0.833752	-0.183776	0.114108
	H341	H	0.855287	-0.176159	0.135440
	O342	O	-0.126529	-0.149357	0.088366
	H343	H	-0.129820	-0.144889	0.089721
	H344	H	-0.114371	-0.158984	0.094769
	O345	O	1.091982	-0.031001	0.874425
	H346	H	1.078654	-0.030904	0.874618
	H347	H	1.091879	-0.031428	0.866890
	O348	O	1.092408	1.046371	-0.006779
	H349	H	1.085000	1.044976	-0.012648
	H350	H	1.084832	1.048527	-0.004818
	O351	O	0.560850	0.564594	0.499296
	H352	H	0.552959	0.562280	0.500347
	H353	H	0.562244	0.562242	0.493390
	O354	O	1.133653	-0.095824	0.860756
	H355	H	1.140047	-0.084118	0.866039
	H356	H	1.138310	-0.088123	0.858141
	O357	O	0.462742	0.493433	0.447042
	H358	H	0.455479	0.511381	0.428996
	H359	H	0.465788	0.491240	0.449435
	O360	O	0.528960	0.497467	0.451327
	H361	H	0.530501	0.494535	0.439846
	H362	H	0.525537	0.492310	0.437022
	O363	O	-0.177753	1.032256	0.878678
	H364	H	-0.181758	1.020629	0.883284
	H365	H	-0.185535	1.028141	0.876621
	O366	O	0.357554	0.481661	0.649760
	H367	H	0.343840	0.495351	0.651581
	H368	H	0.344444	0.493398	0.638379
	O369	O	-0.075015	0.924875	-0.171597
	H370	H	-0.073270	0.925647	-0.167637
	H371	H	-0.085814	0.917484	-0.171598
	O372	O	0.440533	0.503020	0.598918
	H373	H	0.442105	0.490358	0.610401
	H374	H	0.454972	0.494114	0.601443
	O375	O	0.515154	0.382734	0.708762
	H376	H	0.483874	0.385472	0.698437
	H377	H	0.506945	0.359179	0.721608
	O378	O	1.288606	0.731818	-0.342004
	H379	H	1.280272	0.740619	-0.345474
	H380	H	1.307867	0.731724	-0.327180
	O381	O	1.059921	0.129856	0.077120
	H382	H	1.077621	0.130308	0.080016
	H383	H	1.042553	0.131658	0.079655
	O384	O	0.911779	1.137258	-0.174456
	H385	H	0.939177	1.152245	-0.187666
	H386	H	0.899704	1.104588	-0.182072
	O387	O	-0.049841	0.093970	0.166654
	H388	H	-0.059290	0.091920	0.163826
	H389	H	-0.043273	0.085984	0.165283
	O390	O	-0.207672	1.212241	-0.010320
	H391	H	-0.219100	1.224035	-0.037998
	H392	H	-0.213703	1.229990	-0.019105
	O393	O	0.904490	1.004978	0.981959
	H394	H	0.896557	1.005004	0.990558
	H395	H	0.904245	1.003935	0.997295
	O396	O	0.659405	0.472555	0.432171
	H397	H	0.654644	0.454272	0.425515
	H398	H	0.658943	0.465562	0.443920
	O399	O	-0.016894	1.077308	0.857734
	H400	H	-0.014700	1.078446	0.850229
	H401	H	-0.000606	1.069406	0.850822
	O402	O	0.430704	0.510107	0.387872
	H403	H	0.435912	0.516555	0.386697
	H404	H	0.431616	0.513426	0.395731
	O405	O	1.161981	1.071466	0.127856
	H406	H	1.136230	1.084894	0.112042
	H407	H	1.179776	1.095244	0.135333
	O408	O	1.071201	0.886385	0.069940
	H409	H	1.066785	0.900711	0.072600
	H410	H	1.073577	0.891087	0.080026
	O411	O	0.867588	0.119382	0.995140
	H412	H	0.843085	0.124385	1.009512
	H413	H	0.866596	0.147677	0.992222
	O414	O	0.528740	0.598772	0.551067
	H415	H	0.550453	0.597093	0.543498
	H416	H	0.534862	0.607750	0.562617
	O417	O	0.423766	0.599840	0.374226
	H418	H	0.411538	0.620260	0.377326
	H419	H	0.421294	0.599338	0.354037
