data_Molecule from HDF5

_cell_length_a		16.274762
_cell_length_b		16.388395
_cell_length_c		16.260220
_cell_angle_alpha	89.976213
_cell_angle_beta	90.241603
_cell_angle_gamma	89.896841
_symmetry_space_group_name_H-M	'P 1'
_symmetry_Int_Tables_number		1

loop_
	_symmetry_equiv_pos_as_xyz
	x,y,z

loop_
	_atom_site_label
	_atom_site_type_symbol
	_atom_site_fract_x
	_atom_site_fract_y
	_atom_site_fract_z
	H0	H	0.396956	0.834504	0.714221
	H1	H	0.601500	0.156992	0.712784
	H2	H	0.600363	0.831893	0.281298
	H3	H	0.400949	0.157282	0.278618
	H4	H	0.716606	0.394321	0.832024
	H5	H	0.717160	0.593600	0.157617
	H6	H	0.282804	0.596192	0.832209
	H7	H	0.283616	0.391928	0.156393
	H8	H	0.836912	0.713557	0.390903
	H9	H	0.162232	0.713377	0.598063
	H10	H	0.837204	0.279422	0.594767
	H11	H	0.161510	0.277292	0.392490
	H12	H	0.837036	0.395677	0.709580
	H13	H	0.163081	0.594555	0.711165
	H14	H	0.836729	0.595877	0.276655
	H15	H	0.163674	0.396128	0.280239
	H16	H	0.397031	0.713684	0.832957
	H17	H	0.604627	0.711589	0.157458
	H18	H	0.605077	0.275995	0.834081
	H19	H	0.401082	0.278758	0.158121
	H20	H	0.717610	0.833683	0.397191
	H21	H	0.716837	0.156927	0.597862
	H22	H	0.282675	0.833676	0.595939
	H23	H	0.283546	0.157506	0.393425
	H24	H	0.900419	0.333571	0.209926
	H25	H	0.102070	0.656796	0.211822
	H26	H	0.100928	0.333096	0.777393
	H27	H	0.899237	0.656653	0.777374
	H28	H	0.215716	0.894723	0.331621
	H29	H	0.217571	0.096479	0.657290
	H30	H	0.782933	0.094778	0.333039
	H31	H	0.786860	0.897448	0.659141
	H32	H	0.339244	0.215495	0.892022
	H33	H	0.664577	0.210860	0.097108
	H34	H	0.339280	0.776161	0.098018
	H35	H	0.663549	0.779027	0.894930
	H36	H	0.337365	0.896449	0.209554
	H37	H	0.664678	0.092389	0.211140
	H38	H	0.337927	0.098408	0.777564
	H39	H	0.663367	0.895795	0.780430
	H40	H	0.896419	0.211682	0.332748
	H41	H	0.102077	0.213068	0.656864
	H42	H	0.100736	0.778516	0.332343
	H43	H	0.897940	0.776796	0.656240
	H44	H	0.218607	0.333396	0.892595
	H45	H	0.220703	0.655035	0.098567
	H46	H	0.785680	0.333370	0.094088
	H47	H	0.782314	0.656017	0.893262
	H48	H	0.411526	0.109799	0.588561
	H49	H	0.603922	0.874071	0.596233
	H50	H	0.593268	0.108544	0.411657
	H51	H	0.407117	0.882709	0.411832
	H52	H	0.596092	0.400559	0.112713
	H53	H	0.590057	0.584507	0.880213
	H54	H	0.417029	0.594649	0.110527
	H55	H	0.417337	0.402676	0.881658
	H56	H	0.113987	0.595213	0.413043
	H57	H	0.884879	0.586969	0.583388
	H58	H	0.117699	0.405089	0.595173
	H59	H	0.883758	0.400979	0.403802
	H60	H	0.117648	0.394682	0.581895
	H61	H	0.884688	0.586281	0.585025
	H62	H	0.110364	0.575973	0.404507
	H63	H	0.885288	0.407140	0.402805
	H64	H	0.400777	0.585448	0.112746
	H65	H	0.588936	0.588880	0.878557
	H66	H	0.594705	0.406094	0.110592
	H67	H	0.406415	0.399115	0.876894
	H68	H	0.598730	0.113881	0.397984
	H69	H	0.578319	0.883731	0.593752
	H70	H	0.410498	0.108164	0.581674
	H71	H	0.400300	0.877319	0.398031
	H72	H	0.912925	0.607769	0.080394
	H73	H	0.097651	0.380558	0.081676
	H74	H	0.091008	0.608880	0.905827
	H75	H	0.900095	0.378299	0.905547
	H76	H	0.089253	0.901808	0.610363
	H77	H	0.089741	0.094544	0.376825
	H78	H	0.907165	0.084852	0.611230
	H79	H	0.917849	0.901694	0.381455
	H80	H	0.619423	0.091233	0.898936
	H81	H	0.385489	0.089709	0.083046
	H82	H	0.617606	0.899945	0.086553
	H83	H	0.385993	0.908306	0.906655
	H84	H	0.615566	0.903738	0.086368
	H85	H	0.386662	0.085266	0.085741
	H86	H	0.614223	0.089492	0.911585
	H87	H	0.384688	0.903724	0.901399
	H88	H	0.913963	0.090688	0.610642
	H89	H	0.096869	0.083722	0.377931
	H90	H	0.093892	0.903158	0.611809
	H91	H	0.901942	0.897977	0.375377
	H92	H	0.092713	0.609864	0.902889
	H93	H	0.091964	0.378682	0.092591
	H94	H	0.902409	0.612265	0.082785
	H95	H	0.909834	0.377469	0.892530
	H96	H	0.404974	0.110787	0.585673
	H97	H	0.595702	0.884248	0.572127
	H98	H	0.584205	0.108387	0.398818
	H99	H	0.415584	0.881370	0.398195
	H100	H	0.590740	0.402006	0.110152
	H101	H	0.593795	0.587440	0.878576
	H102	H	0.416144	0.577098	0.106301
	H103	H	0.408485	0.410448	0.880631
	H104	H	0.119813	0.590719	0.392863
	H105	H	0.884667	0.587734	0.584757
	H106	H	0.111142	0.411142	0.580140
	H107	H	0.882476	0.403690	0.398304
	H108	H	0.910435	0.611664	0.090646
	H109	H	0.085475	0.383070	0.083312
	H110	H	0.089257	0.608395	0.903061
	H111	H	0.915140	0.383961	0.907024
	H112	H	0.090972	0.906878	0.608922
	H113	H	0.084457	0.083541	0.382403
	H114	H	0.906210	0.092750	0.614159
	H115	H	0.905700	0.914518	0.381411
	H116	H	0.614463	0.079659	0.903242
	H117	H	0.384158	0.089548	0.088472
	H118	H	0.618034	0.902623	0.090098
	H119	H	0.385005	0.901441	0.907717
	C120	C	0.378404	0.003360	0.616308
	C121	C	0.622114	0.987100	0.617543
	C122	C	0.622290	0.003363	0.373789
	C123	C	0.377665	0.986977	0.372300
	C124	C	0.623419	0.372882	0.003945
	C125	C	0.622162	0.616097	0.986525
	C126	C	0.379452	0.616663	0.003003
	C127	C	0.380229	0.373421	0.986706
	C128	C	0.007555	0.617244	0.372206
	C129	C	0.991847	0.616856	0.615458
	C130	C	0.008220	0.373958	0.615379
	C131	C	0.991379	0.373881	0.372283
	C132	C	0.879108	0.503865	0.114878
	C133	C	0.122429	0.486854	0.116264
	C134	C	0.121596	0.502638	0.873300
	C135	C	0.878113	0.486556	0.871798
	C136	C	0.120923	0.874463	0.503001
	C137	C	0.121191	0.117166	0.486222
	C138	C	0.878418	0.117936	0.504138
	C139	C	0.878844	0.874611	0.486760
	C140	C	0.509127	0.117773	0.873818
	C141	C	0.493246	0.116434	0.116057
	C142	C	0.509441	0.872923	0.117006
	C143	C	0.492288	0.874433	0.874897
	C144	C	0.378156	0.882545	0.674678
	C145	C	0.620824	0.108722	0.674129
	C146	C	0.620552	0.881030	0.318811
	C147	C	0.380129	0.108858	0.316529
	C148	C	0.679207	0.374328	0.881083
	C149	C	0.679290	0.614344	0.108936
	C150	C	0.321528	0.615881	0.880963
	C151	C	0.322832	0.373197	0.108424
	C152	C	0.885586	0.674645	0.372147
	C153	C	0.113753	0.674233	0.616677
	C154	C	0.885939	0.317564	0.614611
	C155	C	0.113445	0.316760	0.373612
	C156	C	0.885664	0.375501	0.671648
	C157	C	0.114151	0.615341	0.673161
	C158	C	0.885435	0.616136	0.315141
	C159	C	0.114336	0.375671	0.317449
	C160	C	0.378267	0.674562	0.881424
	C161	C	0.622997	0.672831	0.108863
	C162	C	0.623609	0.315413	0.882041
	C163	C	0.381344	0.316935	0.109068
	C164	C	0.678813	0.881577	0.376523
	C165	C	0.678482	0.108659	0.617044
	C166	C	0.321169	0.882166	0.615699
	C167	C	0.321852	0.108958	0.373852
	C168	C	0.880378	0.382160	0.171821
	C169	C	0.121953	0.608304	0.173736
	C170	C	0.120888	0.381362	0.816298
	C171	C	0.879405	0.608321	0.815759
	C172	C	0.177327	0.875192	0.380527
	C173	C	0.178985	0.116210	0.608403
	C174	C	0.821132	0.115327	0.381690
	C175	C	0.823856	0.876403	0.609878
	C176	C	0.387340	0.175609	0.873638
	C177	C	0.615812	0.172232	0.115971
	C178	C	0.387450	0.815632	0.116844
	C179	C	0.614894	0.817735	0.875649
	C180	C	0.386563	0.875143	0.172465
	C181	C	0.615987	0.113395	0.172548
	C182	C	0.386798	0.117515	0.816299
	C183	C	0.614695	0.875695	0.818452
	C184	C	0.877717	0.173416	0.381427
	C185	C	0.121712	0.174431	0.608311
	C186	C	0.120358	0.817352	0.380676
	C187	C	0.879163	0.816657	0.608304
	C188	C	0.179412	0.381559	0.873534
	C189	C	0.181074	0.607293	0.117438
	C190	C	0.823437	0.381836	0.114005
	C191	C	0.821313	0.608067	0.873239
	C192	C	0.402072	0.087766	0.592378
	C193	C	0.599400	0.902519	0.594164
	C194	C	0.598963	0.088235	0.396009
	C195	C	0.400752	0.902343	0.395872
	C196	C	0.600458	0.396024	0.089088
	C197	C	0.597971	0.593653	0.901292
	C198	C	0.403948	0.592574	0.087977
	C199	C	0.403845	0.397146	0.901688
	C200	C	0.092745	0.594067	0.396430
	C201	C	0.907013	0.593730	0.591380
	C202	C	0.093355	0.396835	0.592318
	C203	C	0.906031	0.396929	0.395064
	C204	C	0.901865	0.588483	0.091525
	C205	C	0.098758	0.402798	0.092592
	C206	C	0.097989	0.587073	0.897100
	C207	C	0.901594	0.401806	0.894835
	C208	C	0.097994	0.897307	0.588199
	C209	C	0.097149	0.094020	0.401113
	C210	C	0.902128	0.095772	0.589726
	C211	C	0.901706	0.898129	0.401534
	C212	C	0.594036	0.093747	0.897729
	C213	C	0.407747	0.094593	0.092661
	C214	C	0.594822	0.895666	0.094384
	C215	C	0.407471	0.897740	0.898455
	Zn216	Zn	0.500583	-0.004507	0.745711
	Zn217	Zn	0.500641	-0.005174	0.244563
	Zn218	Zn	0.750085	0.495005	-0.005808
	Zn219	Zn	0.251513	0.494356	-0.005202
	Zn220	Zn	-0.000072	0.745826	0.494166
	Zn221	Zn	-0.000713	0.245961	0.494064
	Zn222	Zn	0.000207	0.495224	0.743684
	Zn223	Zn	-0.000388	0.495238	0.243907
	Zn224	Zn	0.501139	0.744742	-0.004757
	Zn225	Zn	0.501762	0.246019	-0.004736
	Zn226	Zn	0.750782	-0.003871	0.496368
	Zn227	Zn	0.249192	-0.004704	0.494390
	N228	N	0.412829	0.959031	0.675350
	N229	N	0.586310	0.032135	0.674625
	N230	N	0.586082	0.957795	0.317120
	N231	N	0.414080	0.031981	0.315292
	N232	N	0.679417	0.409328	0.958058
	N233	N	0.678765	0.579648	0.031991
	N234	N	0.321956	0.580740	0.957965
	N235	N	0.322082	0.407694	0.031356
	N236	N	0.962815	0.675397	0.407044
	N237	N	0.036700	0.675495	0.581643
	N238	N	0.963112	0.316587	0.580391
	N239	N	0.035705	0.315343	0.406786
	N240	N	0.962702	0.409938	0.672414
	N241	N	0.037425	0.580365	0.672636
	N242	N	0.962220	0.581165	0.315157
	N243	N	0.037400	0.410466	0.316408
	N244	N	0.413404	0.675056	0.958343
	N245	N	0.588274	0.674219	0.031546
	N246	N	0.589617	0.314573	0.959191
	N247	N	0.416172	0.316952	0.032158
	N248	N	0.680016	0.958549	0.409913
	N249	N	0.679326	0.032155	0.582301
	N250	N	0.321209	0.958312	0.580184
	N251	N	0.320278	0.032082	0.407762
	N252	N	0.914473	0.458948	0.172411
	N253	N	0.086180	0.532415	0.173276
	N254	N	0.085597	0.457636	0.816110
	N255	N	0.913911	0.531650	0.814756
	N256	N	0.177924	0.909770	0.457461
	N257	N	0.178618	0.081495	0.531493
	N258	N	0.821590	0.081538	0.459040
	N259	N	0.823739	0.911903	0.533259
	N260	N	0.464475	0.176184	0.908295
	N261	N	0.538270	0.174392	0.081698
	N262	N	0.464887	0.813718	0.083398
	N263	N	0.537770	0.816530	0.909758
	N264	N	0.463422	0.909931	0.172695
	N265	N	0.538799	0.079512	0.172857
	N266	N	0.463507	0.081997	0.816398
	N267	N	0.537572	0.910150	0.817598
	N268	N	0.912728	0.175126	0.458563
	N269	N	0.086427	0.175256	0.531240
	N270	N	0.086033	0.816552	0.457906
	N271	N	0.912492	0.815386	0.530785
	N272	N	0.180035	0.458028	0.908206
	N273	N	0.181606	0.531072	0.082375
	N274	N	0.822631	0.458358	0.079282
	N275	N	0.820361	0.531343	0.907224
	O276	O	0.015313	-0.024238	-0.154439
	H277	H	0.023233	-0.023659	-0.156660
	H278	H	0.011870	-0.025567	-0.151426
	O279	O	0.512081	0.548613	0.470293
	H280	H	0.492999	0.557561	0.465606
	H281	H	0.492078	0.551338	0.463639
	O282	O	0.919421	0.007648	0.023344
	H283	H	0.919514	0.017610	0.025660
	H284	H	0.921794	0.017507	0.023879
	O285	O	-0.130752	1.064471	0.000393
	H286	H	-0.125471	1.079292	0.008212
	H287	H	-0.130835	1.073813	-0.004725
	O288	O	0.521464	0.502413	0.494747
	H289	H	0.509663	0.500113	0.501184
	H290	H	0.515358	0.502274	0.480243
	O291	O	0.370028	0.577560	0.340176
	H292	H	0.374508	0.572072	0.335079
	H293	H	0.361753	0.573115	0.345671
	O294	O	1.024927	1.075361	1.118380
	H295	H	1.043144	1.074444	1.125466
	H296	H	1.015138	1.071393	1.122748
	O297	O	-0.086763	0.008875	0.042818
	H298	H	-0.086215	0.001371	0.056635
	H299	H	-0.090249	0.011031	0.043739
	O300	O	0.410481	0.404550	0.451370
	H301	H	0.414853	0.396033	0.442420
	H302	H	0.416728	0.406015	0.455952
	O303	O	0.094368	1.078811	1.003502
	H304	H	0.102163	1.083458	1.010643
	H305	H	0.094355	1.071722	1.002862
	O306	O	0.567782	0.395317	0.424946
	H307	H	0.574401	0.402984	0.423703
	H308	H	0.566592	0.395040	0.424988
	O309	O	1.061930	-0.014227	0.131399
	H310	H	1.058273	-0.016831	0.129084
	H311	H	1.070151	-0.024486	0.137381
	O312	O	0.081826	-0.186986	0.876337
	H313	H	0.078034	-0.194436	0.874813
	H314	H	0.076754	-0.185708	0.866594
	O315	O	0.521783	0.414771	0.420802
	H316	H	0.537356	0.408906	0.413781
	H317	H	0.517894	0.413766	0.424841
	O318	O	0.461997	0.511433	0.592845
	H319	H	0.450655	0.524998	0.588377
	H320	H	0.454542	0.510044	0.587569
	O321	O	0.560619	0.441041	0.498661
	H322	H	0.554193	0.437062	0.492664
	H323	H	0.559765	0.452864	0.500213
	O324	O	0.423999	0.454929	0.522381
	H325	H	0.425709	0.442781	0.538421
	H326	H	0.416794	0.468909	0.508998
	O327	O	0.081525	0.973917	0.832375
	H328	H	0.088266	0.969989	0.844964
	H329	H	0.086114	0.967237	0.823643
	O330	O	0.400596	0.480350	0.556056
	H331	H	0.391082	0.477742	0.559034
	H332	H	0.405893	0.489803	0.563606
	O333	O	-0.052749	0.884081	0.995093
	H334	H	-0.061688	0.886710	0.997042
	H335	H	-0.056565	0.894241	1.000705
	O336	O	0.947911	0.934940	0.879545
	H337	H	0.951499	0.932146	0.877421
	H338	H	0.951610	0.938474	0.875942
	O339	O	0.408303	0.554238	0.372044
	H340	H	0.411188	0.554545	0.378850
	H341	H	0.402863	0.572301	0.351675
	O342	O	0.921289	-0.025258	0.007196
	H343	H	0.925157	-0.026296	-0.013498
	H344	H	0.905412	-0.018312	0.001996
	O345	O	0.393696	0.511928	0.550850
	H346	H	0.395248	0.510174	0.540940
	H347	H	0.404333	0.513699	0.556669
	O348	O	0.928496	1.038785	0.976443
	H349	H	0.916701	1.045494	0.974610
	H350	H	0.931572	1.049978	0.976011
	O351	O	1.050895	0.983166	-0.024692
	H352	H	1.047233	0.984992	-0.021953
	H353	H	1.060808	0.988623	-0.029588
	O354	O	0.677599	0.609195	0.636132
	H355	H	0.691284	0.601995	0.650527
	H356	H	0.678168	0.600435	0.649632
	O357	O	0.549973	0.484948	0.501221
	H358	H	0.542511	0.488166	0.517376
	H359	H	0.546868	0.484170	0.511000
	O360	O	-0.005625	0.170486	0.094232
	H361	H	0.005363	0.177892	0.111040
	H362	H	0.023482	0.171193	0.101806
	O363	O	0.425060	0.431831	0.623997
	H364	H	0.414693	0.434411	0.605666
	H365	H	0.410791	0.428660	0.615758
	O366	O	0.580307	0.388788	0.417962
	H367	H	0.578632	0.398234	0.416418
	H368	H	0.595456	0.383815	0.427419
	O369	O	0.659915	0.548227	0.491660
	H370	H	0.667835	0.540819	0.506372
	H371	H	0.654355	0.550697	0.494616
	O372	O	0.535189	0.373303	0.383079
	H373	H	0.534177	0.365184	0.379681
	H374	H	0.545652	0.394256	0.389115
	O375	O	0.498025	0.580666	0.532835
	H376	H	0.501822	0.588745	0.521172
	H377	H	0.493376	0.568106	0.540208
	O378	O	0.493835	0.592705	0.507191
	H379	H	0.492379	0.597774	0.519847
	H380	H	0.497333	0.606312	0.514183
	O381	O	0.141747	1.013441	1.042584
	H382	H	0.133376	0.992348	1.048398
	H383	H	0.137519	1.014459	1.029463
	O384	O	0.121552	0.979125	0.054167
	H385	H	0.119332	0.977514	0.063417
	H386	H	0.129280	0.968597	0.059041
	O387	O	0.942869	-0.194922	1.160185
	H388	H	0.929523	-0.204543	1.180143
	H389	H	0.909839	-0.195583	1.157352
	O390	O	0.112731	1.023955	0.055249
	H391	H	0.114076	1.028252	0.037236
	H392	H	0.110157	1.026558	0.056542
	O393	O	1.063492	0.904418	-0.081417
	H394	H	1.046233	0.916165	-0.080757
	H395	H	1.086358	0.895604	-0.084875
	O396	O	0.469350	0.563478	0.507727
	H397	H	0.471661	0.565141	0.497596
	H398	H	0.463578	0.551266	0.510385
	O399	O	0.066186	0.990146	0.915357
	H400	H	0.057703	0.983914	0.931126
	H401	H	0.062557	1.002621	0.901130
	O402	O	1.005227	1.076204	1.011763
	H403	H	1.001845	1.078691	1.016287
	H404	H	1.009020	1.079477	1.002816
	O405	O	0.442545	0.640404	0.624493
	H406	H	0.447529	0.653613	0.619796
	H407	H	0.452047	0.641307	0.625397
