data_Molecule from HDF5

_cell_length_a		16.540719
_cell_length_b		16.611956
_cell_length_c		16.513481
_cell_angle_alpha	90.097091
_cell_angle_beta	89.832567
_cell_angle_gamma	90.086549
_symmetry_space_group_name_H-M	'P 1'
_symmetry_Int_Tables_number		1

loop_
	_symmetry_equiv_pos_as_xyz
	x,y,z

loop_
	_atom_site_label
	_atom_site_type_symbol
	_atom_site_fract_x
	_atom_site_fract_y
	_atom_site_fract_z
	H0	H	0.391872	0.860968	0.709633
	H1	H	0.607729	0.170905	0.706270
	H2	H	0.607782	0.859307	0.261040
	H3	H	0.399839	0.172560	0.264543
	H4	H	0.721266	0.412942	0.824736
	H5	H	0.719242	0.617618	0.141537
	H6	H	0.277683	0.624691	0.827442
	H7	H	0.279454	0.409973	0.139159
	H8	H	0.846965	0.738868	0.378502
	H9	H	0.158625	0.739361	0.590953
	H10	H	0.844900	0.296127	0.587744
	H11	H	0.159855	0.297122	0.381227
	H12	H	0.843942	0.413592	0.702931
	H13	H	0.160188	0.621171	0.704569
	H14	H	0.844924	0.618963	0.265509
	H15	H	0.159523	0.413339	0.264477
	H16	H	0.392607	0.741117	0.827642
	H17	H	0.605791	0.735902	0.140868
	H18	H	0.606118	0.295293	0.826015
	H19	H	0.397451	0.295654	0.140566
	H20	H	0.726077	0.860459	0.375687
	H21	H	0.723093	0.171349	0.588119
	H22	H	0.274760	0.861727	0.594345
	H23	H	0.283411	0.172504	0.381481
	H24	H	0.900053	0.358015	0.202169
	H25	H	0.110017	0.669800	0.208206
	H26	H	0.107605	0.359468	0.761986
	H27	H	0.898103	0.673158	0.762246
	H28	H	0.224291	0.910394	0.328070
	H29	H	0.224480	0.121993	0.641761
	H30	H	0.784154	0.118613	0.326703
	H31	H	0.778196	0.909268	0.640206
	H32	H	0.348712	0.241043	0.874744
	H33	H	0.660855	0.234623	0.086345
	H34	H	0.344692	0.796016	0.085104
	H35	H	0.657924	0.792717	0.873780
	H36	H	0.343095	0.914996	0.199831
	H37	H	0.660288	0.117972	0.201522
	H38	H	0.346935	0.122070	0.760642
	H39	H	0.657872	0.908228	0.758558
	H40	H	0.901868	0.234038	0.326112
	H41	H	0.107898	0.237553	0.641912
	H42	H	0.110584	0.792023	0.329326
	H43	H	0.892954	0.792702	0.640160
	H44	H	0.223593	0.359891	0.878086
	H45	H	0.226293	0.670551	0.091036
	H46	H	0.782832	0.358187	0.086317
	H47	H	0.781457	0.673065	0.878773
	H48	H	0.421462	0.124209	0.575510
	H49	H	0.589827	0.904421	0.570199
	H50	H	0.594857	0.128580	0.391036
	H51	H	0.414730	0.905766	0.398742
	H52	H	0.585146	0.423839	0.094345
	H53	H	0.590803	0.602366	0.871426
	H54	H	0.413748	0.601071	0.093601
	H55	H	0.414308	0.431699	0.872366
	H56	H	0.112943	0.598311	0.393298
	H57	H	0.890083	0.610375	0.568261
	H58	H	0.119142	0.418091	0.576996
	H59	H	0.890187	0.426336	0.395758
	H60	H	0.112844	0.425647	0.565600
	H61	H	0.894503	0.598341	0.568169
	H62	H	0.116768	0.608835	0.393392
	H63	H	0.886864	0.423594	0.389290
	H64	H	0.418603	0.603633	0.092163
	H65	H	0.590070	0.607682	0.870336
	H66	H	0.596947	0.419871	0.099927
	H67	H	0.419079	0.426724	0.871620
	H68	H	0.590449	0.126971	0.392629
	H69	H	0.589762	0.904341	0.570664
	H70	H	0.413595	0.122894	0.564298
	H71	H	0.405493	0.900663	0.393538
	H72	H	0.913951	0.628283	0.076746
	H73	H	0.087790	0.403382	0.079047
	H74	H	0.093427	0.627798	0.896015
	H75	H	0.912195	0.405952	0.895969
	H76	H	0.082956	0.926692	0.594766
	H77	H	0.090781	0.107524	0.372617
	H78	H	0.917107	0.101839	0.594541
	H79	H	0.915760	0.926052	0.372340
	H80	H	0.614647	0.105339	0.894948
	H81	H	0.389143	0.106323	0.075731
	H82	H	0.618339	0.915856	0.072229
	H83	H	0.392416	0.931910	0.897524
	H84	H	0.611430	0.929529	0.064930
	H85	H	0.388660	0.108399	0.073823
	H86	H	0.613662	0.103479	0.897478
	H87	H	0.390263	0.926783	0.895082
	H88	H	0.913986	0.113419	0.599843
	H89	H	0.095600	0.107313	0.370733
	H90	H	0.091450	0.927034	0.598472
	H91	H	0.914624	0.928366	0.372314
	H92	H	0.088376	0.627500	0.894101
	H93	H	0.087842	0.406632	0.066473
	H94	H	0.911537	0.627209	0.071819
	H95	H	0.908898	0.402874	0.892698
	H96	H	0.408973	0.129590	0.575393
	H97	H	0.589545	0.904269	0.569962
	H98	H	0.594550	0.126983	0.395576
	H99	H	0.415236	0.902164	0.387400
	H100	H	0.595794	0.432131	0.095491
	H101	H	0.594709	0.605259	0.869084
	H102	H	0.414338	0.606684	0.094584
	H103	H	0.412385	0.425048	0.870808
	H104	H	0.112149	0.604395	0.402507
	H105	H	0.889737	0.603501	0.578768
	H106	H	0.114863	0.432361	0.578621
	H107	H	0.887958	0.419337	0.395713
	H108	H	0.908854	0.629219	0.075590
	H109	H	0.098702	0.401673	0.071649
	H110	H	0.089427	0.625751	0.899095
	H111	H	0.913914	0.404064	0.890917
	H112	H	0.088093	0.934409	0.593971
	H113	H	0.093183	0.102740	0.372691
	H114	H	0.904856	0.104011	0.599783
	H115	H	0.916624	0.927808	0.374591
	H116	H	0.613452	0.102595	0.894555
	H117	H	0.389945	0.106185	0.072705
	H118	H	0.616866	0.930480	0.081075
	H119	H	0.392618	0.926776	0.900982
	C120	C	0.380158	0.023615	0.606193
	C121	C	0.622875	1.007215	0.603872
	C122	C	0.625174	0.024264	0.360726
	C123	C	0.380970	1.006979	0.362422
	C124	C	0.624165	0.394415	-0.008147
	C125	C	0.623257	0.636960	0.974498
	C126	C	0.381352	0.637206	-0.009175
	C127	C	0.381970	0.394891	0.974673
	C128	C	0.010802	0.636696	0.363464
	C129	C	0.994605	0.637130	0.605041
	C130	C	0.010851	0.394832	0.604897
	C131	C	0.992813	0.393362	0.362523
	C132	C	0.880688	0.524040	0.105351
	C133	C	0.124055	0.506710	0.105103
	C134	C	0.123400	0.524356	0.862687
	C135	C	0.880234	0.507961	0.861484
	C136	C	0.122251	0.895843	0.492969
	C137	C	0.124601	0.137653	0.476273
	C138	C	0.881456	0.137148	0.493197
	C139	C	0.881327	0.894446	0.475957
	C140	C	0.510988	0.136761	0.862320
	C141	C	0.493891	0.137565	0.104572
	C142	C	0.510787	0.894815	0.103540
	C143	C	0.494289	0.894707	0.862631
	C144	C	0.374566	0.907410	0.668700
	C145	C	0.625790	0.124218	0.665212
	C146	C	0.626633	0.906513	0.300786
	C147	C	0.380366	0.125292	0.303876
	C148	C	0.682249	0.393935	0.872469
	C149	C	0.680945	0.637288	0.093657
	C150	C	0.318825	0.641768	0.874133
	C151	C	0.320792	0.392209	0.092640
	C152	C	0.893402	0.697740	0.360433
	C153	C	0.111911	0.698454	0.608505
	C154	C	0.891948	0.336063	0.606089
	C155	C	0.112424	0.336161	0.361813
	C156	C	0.891791	0.394513	0.663399
	C157	C	0.112526	0.639732	0.665238
	C158	C	0.892580	0.638380	0.304193
	C159	C	0.112075	0.393969	0.304027
	C160	C	0.376291	0.699698	0.874301
	C161	C	0.624114	0.695867	0.093427
	C162	C	0.625121	0.335346	0.873090
	C163	C	0.379141	0.335196	0.093081
	C164	C	0.685413	0.906969	0.357941
	C165	C	0.683359	0.124515	0.606746
	C166	C	0.316306	0.907913	0.611316
	C167	C	0.322690	0.125311	0.362314
	C168	C	0.880662	0.405252	0.162870
	C169	C	0.127596	0.623458	0.167106
	C170	C	0.126039	0.406804	0.801753
	C171	C	0.879100	0.625919	0.801892
	C172	C	0.184042	0.892340	0.375161
	C173	C	0.184576	0.140145	0.594545
	C174	C	0.823846	0.137637	0.373860
	C175	C	0.819036	0.891364	0.593216
	C176	C	0.394656	0.199182	0.857960
	C177	C	0.613060	0.195780	0.105255
	C178	C	0.391658	0.836209	0.104221
	C179	C	0.611105	0.832939	0.856956
	C180	C	0.391038	0.894846	0.161565
	C181	C	0.613113	0.137438	0.162357
	C182	C	0.393917	0.140189	0.801079
	C183	C	0.611029	0.890502	0.799436
	C184	C	0.882052	0.195083	0.373855
	C185	C	0.126391	0.197449	0.594757
	C186	C	0.127700	0.833294	0.375980
	C187	C	0.876246	0.833360	0.593385
	C188	C	0.183768	0.406870	0.859546
	C189	C	0.185586	0.623628	0.108974
	C190	C	0.822144	0.405589	0.105573
	C191	C	0.820931	0.625878	0.859814
	C192	C	0.407185	0.104453	0.579492
	C193	C	0.596972	0.925498	0.577768
	C194	C	0.600208	0.106435	0.385939
	C195	C	0.405003	0.924469	0.386319
	C196	C	0.599666	0.418510	0.075132
	C197	C	0.598784	0.612282	0.891679
	C198	C	0.407940	0.610964	0.072283
	C199	C	0.407859	0.420475	0.893020
	C200	C	0.092676	0.611286	0.389241
	C201	C	0.912679	0.611480	0.579210
	C202	C	0.093989	0.418400	0.580783
	C203	C	0.909918	0.416487	0.386778
	C204	C	0.904744	0.606515	0.081668
	C205	C	0.098768	0.425108	0.079601
	C206	C	0.097707	0.605780	0.888742
	C207	C	0.904794	0.425731	0.886208
	C208	C	0.095272	0.922035	0.574494
	C209	C	0.100139	0.112976	0.393541
	C210	C	0.904968	0.113211	0.576416
	C211	C	0.908130	0.920201	0.394274
	C212	C	0.592629	0.110857	0.888273
	C213	C	0.411075	0.113796	0.080863
	C214	C	0.593691	0.918464	0.079557
	C215	C	0.412953	0.921097	0.889954
	Zn216	Zn	0.502098	0.014679	0.733985
	Zn217	Zn	0.502578	0.015844	0.232872
	Zn218	Zn	0.751878	0.516272	-0.016270
	Zn219	Zn	0.253131	0.515757	-0.016764
	Zn220	Zn	0.002095	0.765917	0.484326
	Zn221	Zn	0.003153	0.265177	0.484745
	Zn222	Zn	0.002866	0.515871	0.733576
	Zn223	Zn	0.001819	0.515559	0.234440
	Zn224	Zn	0.502822	0.765651	-0.017612
	Zn225	Zn	0.502627	0.265858	-0.016490
	Zn226	Zn	0.753150	0.015255	0.483079
	Zn227	Zn	0.252023	0.016067	0.484678
	N228	N	0.413558	0.980237	0.665644
	N229	N	0.588985	0.050048	0.663651
	N230	N	0.589899	0.980647	0.302264
	N231	N	0.415618	0.050561	0.303637
	N232	N	0.682050	0.429594	0.947623
	N233	N	0.680475	0.601503	0.018700
	N234	N	0.321952	0.603340	0.947684
	N235	N	0.322362	0.428757	0.018105
	N236	N	0.968059	0.696882	0.396467
	N237	N	0.037546	0.696952	0.571895
	N238	N	0.967330	0.335696	0.570812
	N239	N	0.037194	0.335407	0.397404
	N240	N	0.966654	0.430094	0.662768
	N241	N	0.038429	0.602144	0.663172
	N242	N	0.966621	0.601034	0.305882
	N243	N	0.036716	0.428407	0.303907
	N244	N	0.414662	0.696900	0.947921
	N245	N	0.588911	0.695861	0.018087
	N246	N	0.590240	0.335272	0.948611
	N247	N	0.416370	0.336438	0.018800
	N248	N	0.684531	0.981237	0.394443
	N249	N	0.681692	0.050667	0.569462
	N250	N	0.319858	0.981071	0.572964
	N251	N	0.322812	0.050581	0.397867
	N252	N	0.915948	0.480053	0.163189
	N253	N	0.089805	0.549913	0.164839
	N254	N	0.089211	0.480918	0.803432
	N255	N	0.915029	0.551492	0.802618
	N256	N	0.180870	0.930597	0.448885
	N257	N	0.183481	0.103663	0.519682
	N258	N	0.823466	0.102276	0.449047
	N259	N	0.821949	0.928654	0.519181
	N260	N	0.468627	0.197161	0.895313
	N261	N	0.537893	0.195946	0.070065
	N262	N	0.467078	0.835801	0.069368
	N263	N	0.537345	0.834945	0.895219
	N264	N	0.466330	0.930301	0.161643
	N265	N	0.537977	0.102157	0.162403
	N266	N	0.467346	0.102043	0.803682
	N267	N	0.537313	0.928250	0.802937
	N268	N	0.916949	0.195016	0.449340
	N269	N	0.089992	0.196111	0.520137
	N270	N	0.089910	0.835377	0.450182
	N271	N	0.914465	0.835172	0.519504
	N272	N	0.182620	0.481055	0.896494
	N273	N	0.183522	0.550025	0.071293
	N274	N	0.822011	0.480492	0.070404
	N275	N	0.821264	0.551302	0.895833
	O276	O	0.953502	1.113491	-0.002684
	H277	H	0.936613	1.106448	-0.029063
	H278	H	0.964486	1.123353	-0.005830
	O279	O	0.207335	-0.007939	0.779230
	H280	H	0.219636	-0.006095	0.780143
	H281	H	0.215935	0.000122	0.775909
	O282	O	0.577536	0.442802	0.478123
	H283	H	0.588111	0.443773	0.469887
	H284	H	0.574095	0.449711	0.480220
	O285	O	0.464254	0.745559	0.523873
	H286	H	0.456306	0.750352	0.524482
	H287	H	0.455309	0.745036	0.514899
	O288	O	1.514104	-0.491221	0.699291
	H289	H	1.536543	-0.470354	0.706073
	H290	H	1.504336	-0.479793	0.686030
	O291	O	0.687196	0.703736	0.668101
	H292	H	0.682994	0.686436	0.656844
	H293	H	0.650280	0.710910	0.661766
	O294	O	-0.179088	-0.062098	-0.044457
	H295	H	-0.170506	-0.061884	-0.053450
	H296	H	-0.186121	-0.066980	-0.052556
	O297	O	0.976837	0.041025	0.115970
	H298	H	0.971069	0.043785	0.116622
	H299	H	0.983221	0.025157	0.118589
	O300	O	0.465344	0.741962	0.259757
	H301	H	0.423622	0.741104	0.257267
	H302	H	0.464340	0.765273	0.231772
	O303	O	-0.531777	-0.641966	-0.537453
	H304	H	-0.513047	-0.633552	-0.562952
	H305	H	-0.520242	-0.648780	-0.526821
	O306	O	0.810852	-0.174204	0.178076
	H307	H	0.839039	-0.163979	0.168976
	H308	H	0.801441	-0.185137	0.175417
	O309	O	0.507153	0.428557	0.274366
	H310	H	0.518124	0.443556	0.273096
	H311	H	0.516172	0.417199	0.256156
	O312	O	-0.137651	0.850603	0.846800
	H313	H	-0.134927	0.854329	0.828993
	H314	H	-0.117836	0.853919	0.835028
	O315	O	0.330327	0.537415	0.369797
	H316	H	0.327566	0.547609	0.351616
	H317	H	0.329722	0.524202	0.380567
	O318	O	0.713296	0.300667	0.442316
	H319	H	0.720423	0.304749	0.462102
	H320	H	0.724872	0.301432	0.459566
	O321	O	0.032676	0.796196	0.763791
	H322	H	0.040366	0.788721	0.761626
	H323	H	0.053856	0.782171	0.747969
	O324	O	0.969670	0.238202	0.762175
	H325	H	0.927332	0.231499	0.768144
	H326	H	0.957151	0.268451	0.732430
	O327	O	0.630274	0.379445	0.661312
	H328	H	0.618380	0.390007	0.655908
	H329	H	0.607962	0.389083	0.657854
	O330	O	1.312813	1.322229	-0.325088
	H331	H	1.311730	1.314155	-0.341976
	H332	H	1.314340	1.344340	-0.310878
	O333	O	1.117346	0.177437	0.827489
	H334	H	1.097926	0.171250	0.827691
	H335	H	1.112676	0.181104	0.842568
	O336	O	0.042669	1.037458	-0.222926
	H337	H	0.051668	1.071925	-0.231680
	H338	H	0.064120	1.036831	-0.220232
	O339	O	0.296514	0.723965	0.278724
	H340	H	0.275233	0.727269	0.274736
	H341	H	0.285081	0.715421	0.272788
	O342	O	-0.473950	0.719209	0.687416
	H343	H	-0.491679	0.721062	0.672524
	H344	H	-0.488270	0.733457	0.704110
	O345	O	0.804858	0.212947	0.781811
	H346	H	0.780360	0.229053	0.773547
	H347	H	0.795182	0.161857	0.779632
	O348	O	0.537945	0.497558	0.369291
	H349	H	0.541347	0.512351	0.378202
	H350	H	0.558911	0.489208	0.366268
	O351	O	0.140024	-0.168670	1.088684
	H352	H	0.115115	-0.163022	1.078514
	H353	H	0.128095	-0.159923	1.093316
	O354	O	1.064660	0.206160	0.951858
	H355	H	1.075923	0.213795	0.945523
	H356	H	1.065803	0.204657	0.950087
	O357	O	0.307763	0.338387	0.308823
	H358	H	0.332597	0.345781	0.324654
	H359	H	0.317844	0.361867	0.323479
	O360	O	0.719929	0.546921	0.703216
	H361	H	0.748287	0.550859	0.725741
	H362	H	0.705840	0.562718	0.701191
	O363	O	0.193164	0.823907	0.791236
	H364	H	0.203226	0.815931	0.835414
	H365	H	0.183718	0.859243	0.782185
	O366	O	0.579116	0.306446	1.342174
	H367	H	0.596782	0.296176	1.336873
	H368	H	0.596038	0.295017	1.354007
	O369	O	0.209485	-0.020471	0.919564
	H370	H	0.206967	-0.025710	0.934411
	H371	H	0.204226	-0.021429	0.940167
	O372	O	-0.179332	1.177012	1.156479
	H373	H	-0.164503	1.161254	1.129715
	H374	H	-0.166916	1.155373	1.152531
	O375	O	1.222994	0.055921	0.202455
	H376	H	1.223994	0.092995	0.203028
	H377	H	1.251154	0.068457	0.229885
	O378	O	0.292702	0.724104	0.453546
	H379	H	0.283168	0.721393	0.444627
	H380	H	0.285437	0.725274	0.447230
	O381	O	0.172551	0.882259	0.138193
	H382	H	0.165542	0.902430	0.117135
	H383	H	0.161825	0.895795	0.143100
	O384	O	0.398539	0.623624	0.655540
	H385	H	0.406257	0.623590	0.650030
	H386	H	0.382616	0.619100	0.643645
	O387	O	0.208867	1.219810	1.187594
	H388	H	0.227562	1.253443	1.219903
	H389	H	0.160201	1.227036	1.189593
	O390	O	-0.219102	1.229605	0.929911
	H391	H	-0.234172	1.239673	0.916061
	H392	H	-0.233469	1.237442	0.921902
	O393	O	0.989830	-0.129407	0.171326
	H394	H	0.998397	-0.131485	0.179068
	H395	H	0.986952	-0.103066	0.167752
	O396	O	0.707642	0.417522	0.590549
	H397	H	0.706585	0.433412	0.581330
	H398	H	0.700301	0.441105	0.598064
	O399	O	0.485959	0.314607	0.693515
	H400	H	0.487569	0.314917	0.712351
	H401	H	0.467961	0.322698	0.694594
	O402	O	1.043454	0.227716	1.197252
	H403	H	1.024678	0.230205	1.215173
	H404	H	1.020819	0.230615	1.182130
	O405	O	0.508144	0.368162	0.474205
	H406	H	0.501511	0.381504	0.482767
	H407	H	0.509065	0.365543	0.491069
	O408	O	0.787315	1.039894	0.835078
	H409	H	0.790105	1.014346	0.839184
	H410	H	0.777903	1.023497	0.829782
	O411	O	0.985412	1.174970	0.029411
	H412	H	0.981438	1.175458	0.019179
	H413	H	0.998070	1.180506	0.017130
	O414	O	-0.028432	-0.208618	0.076233
	H415	H	-0.031625	-0.198838	0.075077
	H416	H	-0.041142	-0.221312	0.076556
	O417	O	-0.155046	0.054748	0.993447
	H418	H	-0.145519	0.053905	0.981030
	H419	H	-0.154954	0.066127	0.983454
	O420	O	0.809822	-0.001666	1.193886
	H421	H	0.793423	-0.005373	1.198976
	H422	H	0.812741	-0.023380	1.190490
	O423	O	1.558179	0.537353	0.468268
	H424	H	1.560052	0.534955	0.465665
	H425	H	1.565760	0.530474	0.452283
	O426	O	0.383116	0.539547	0.268781
	H427	H	0.388641	0.530422	0.263589
	H428	H	0.389729	0.529221	0.259782
	O429	O	1.188502	0.950272	-0.079101
	H430	H	1.184506	0.952632	-0.062631
	H431	H	1.202068	0.950700	-0.081834
	O432	O	1.172862	0.008218	1.008143
	H433	H	1.160968	0.007814	1.009317
	H434	H	1.174537	0.027082	1.007348
	O435	O	-0.399234	-0.279663	0.389972
	H436	H	-0.422953	-0.282147	0.401158
	H437	H	-0.412716	-0.278968	0.384213
	O438	O	0.317662	0.476024	0.432563
	H439	H	0.328662	0.478437	0.447104
	H440	H	0.325780	0.455308	0.433436
	O441	O	0.700471	0.630862	0.351837
	H442	H	0.699618	0.637142	0.335469
	H443	H	0.686344	0.643013	0.353198
	O444	O	0.304535	0.580744	0.565331
	H445	H	0.299561	0.585233	0.569212
	H446	H	0.304149	0.568066	0.560592
	O447	O	0.716189	0.479765	0.395912
	H448	H	0.727235	0.482046	0.386168
	H449	H	0.710346	0.482041	0.384221
	O450	O	1.711828	-0.272158	0.505295
	H451	H	1.731182	-0.255656	0.500313
	H452	H	1.691918	-0.271531	0.511707
	O453	O	0.907041	-0.032677	0.779358
	H454	H	0.931337	-0.037750	0.782660
	H455	H	0.917262	-0.030830	0.775954
	O456	O	0.026779	0.868960	0.974866
	H457	H	0.020063	0.872419	0.968793
	H458	H	0.014040	0.861925	0.979997
	O459	O	0.315506	0.357790	0.520730
	H460	H	0.322604	0.356543	0.523827
	H461	H	0.315505	0.334001	0.511369
	O462	O	0.508281	0.502977	0.342732
	H463	H	0.505595	0.484595	0.321337
	H464	H	0.518752	0.511894	0.341400
	O465	O	0.715677	0.391631	0.271222
	H466	H	0.722077	0.374766	0.288859
	H467	H	0.736264	0.370814	0.257391
	O468	O	0.219095	1.225397	0.011292
	H469	H	0.226215	1.232001	0.033670
	H470	H	0.229171	1.238449	0.030354
	O471	O	0.291292	0.485490	0.696466
	H472	H	0.285227	0.491282	0.707303
	H473	H	0.285233	0.484433	0.704006
	O474	O	0.788225	0.803648	0.017032
	H475	H	0.788140	0.798658	0.013495
	H476	H	0.786782	0.782612	0.015641
	O477	O	0.004561	0.015141	1.182121
	H478	H	0.008054	0.018900	1.186959
	H479	H	0.015773	0.026570	1.170335
