data_Molecule from HDF5

_cell_length_a		16.247960
_cell_length_b		16.312992
_cell_length_c		16.314795
_cell_angle_alpha	89.945961
_cell_angle_beta	89.964998
_cell_angle_gamma	89.748615
_symmetry_space_group_name_H-M	'P 1'
_symmetry_Int_Tables_number		1

loop_
	_symmetry_equiv_pos_as_xyz
	x,y,z

loop_
	_atom_site_label
	_atom_site_type_symbol
	_atom_site_fract_x
	_atom_site_fract_y
	_atom_site_fract_z
	H0	H	0.394487	0.836390	0.717538
	H1	H	0.591507	0.163004	0.719216
	H2	H	0.593332	0.836901	0.288787
	H3	H	0.392602	0.162523	0.287428
	H4	H	0.709384	0.400818	0.841553
	H5	H	0.706011	0.597820	0.168037
	H6	H	0.277202	0.599148	0.841446
	H7	H	0.278821	0.402218	0.167841
	H8	H	0.829540	0.716741	0.405619
	H9	H	0.156564	0.715964	0.603194
	H10	H	0.828926	0.286433	0.605104
	H11	H	0.155958	0.285788	0.406626
	H12	H	0.828261	0.404397	0.718007
	H13	H	0.157310	0.598190	0.718170
	H14	H	0.829610	0.601572	0.290174
	H15	H	0.156789	0.402201	0.291267
	H16	H	0.392606	0.716321	0.841459
	H17	H	0.592020	0.714862	0.166883
	H18	H	0.592692	0.284669	0.840512
	H19	H	0.395312	0.285824	0.167315
	H20	H	0.708705	0.837977	0.406032
	H21	H	0.704949	0.164712	0.601623
	H22	H	0.277887	0.837297	0.601457
	H23	H	0.277310	0.163676	0.403843
	H24	H	0.894036	0.338178	0.221397
	H25	H	0.091336	0.664634	0.218562
	H26	H	0.093248	0.337403	0.789461
	H27	H	0.891191	0.663549	0.788250
	H28	H	0.206455	0.902835	0.339895
	H29	H	0.207823	0.099078	0.666588
	H30	H	0.777931	0.101866	0.340184
	H31	H	0.779756	0.906330	0.667428
	H32	H	0.329311	0.214951	0.904265
	H33	H	0.656411	0.211919	0.101339
	H34	H	0.328685	0.786529	0.102156
	H35	H	0.656537	0.783714	0.905175
	H36	H	0.329019	0.900729	0.218789
	H37	H	0.656205	0.095774	0.216752
	H38	H	0.329182	0.098439	0.789371
	H39	H	0.656756	0.899952	0.788662
	H40	H	0.892596	0.219086	0.341536
	H41	H	0.090172	0.213910	0.667791
	H42	H	0.092201	0.785485	0.341030
	H43	H	0.892906	0.786267	0.666186
	H44	H	0.206317	0.336845	0.908012
	H45	H	0.207574	0.663454	0.103260
	H46	H	0.780060	0.336433	0.102998
	H47	H	0.776948	0.663564	0.906037
	H48	H	0.395214	0.117237	0.595539
	H49	H	0.586741	0.882911	0.601884
	H50	H	0.588503	0.118504	0.406807
	H51	H	0.397915	0.883769	0.413511
	H52	H	0.585507	0.396621	0.122338
	H53	H	0.586821	0.597252	0.885644
	H54	H	0.399606	0.591322	0.120107
	H55	H	0.396669	0.408163	0.886855
	H56	H	0.109492	0.593812	0.412163
	H57	H	0.875905	0.599471	0.594018
	H58	H	0.108761	0.407374	0.594480
	H59	H	0.872310	0.393641	0.417797
	H60	H	0.108176	0.409763	0.599584
	H61	H	0.877960	0.589664	0.595737
	H62	H	0.109735	0.593799	0.411804
	H63	H	0.883641	0.421837	0.426339
	H64	H	0.401695	0.594556	0.120067
	H65	H	0.588207	0.586540	0.888732
	H66	H	0.593368	0.410358	0.121240
	H67	H	0.401061	0.408447	0.888977
	H68	H	0.580520	0.116763	0.406555
	H69	H	0.582340	0.885453	0.593844
	H70	H	0.402094	0.116794	0.600997
	H71	H	0.398069	0.882224	0.406939
	H72	H	0.894619	0.618044	0.097504
	H73	H	0.076696	0.387057	0.098955
	H74	H	0.088813	0.619110	0.908078
	H75	H	0.897504	0.381689	0.903360
	H76	H	0.088174	0.902234	0.622512
	H77	H	0.078903	0.095643	0.389387
	H78	H	0.892123	0.082036	0.617661
	H79	H	0.900897	0.914439	0.389259
	H80	H	0.608087	0.084872	0.909969
	H81	H	0.374705	0.092074	0.097943
	H82	H	0.610924	0.898422	0.095208
	H83	H	0.377765	0.913680	0.908462
	H84	H	0.607198	0.910581	0.091262
	H85	H	0.373198	0.095603	0.097312
	H86	H	0.613210	0.096038	0.904278
	H87	H	0.373917	0.903148	0.906499
	H88	H	0.913121	0.096638	0.616925
	H89	H	0.087825	0.099893	0.384900
	H90	H	0.089101	0.915873	0.618765
	H91	H	0.905147	0.904491	0.387267
	H92	H	0.079592	0.616523	0.907671
	H93	H	0.090231	0.385673	0.091989
	H94	H	0.898911	0.618177	0.102596
	H95	H	0.909592	0.387585	0.911074
	H96	H	0.402744	0.114004	0.592715
	H97	H	0.591247	0.883639	0.593307
	H98	H	0.584845	0.115606	0.414044
	H99	H	0.403524	0.885455	0.410164
	H100	H	0.578510	0.408281	0.116076
	H101	H	0.578232	0.591663	0.890637
	H102	H	0.398571	0.594615	0.121267
	H103	H	0.399986	0.404390	0.886965
	H104	H	0.110600	0.594550	0.411954
	H105	H	0.874270	0.595983	0.603192
	H106	H	0.110782	0.404241	0.598503
	H107	H	0.873588	0.417286	0.396650
	H108	H	0.901011	0.615433	0.096484
	H109	H	0.089403	0.381147	0.106772
	H110	H	0.084654	0.615252	0.915711
	H111	H	0.896316	0.384977	0.918538
	H112	H	0.076738	0.909352	0.616724
	H113	H	0.087644	0.089577	0.388435
	H114	H	0.890682	0.106557	0.625600
	H115	H	0.894257	0.906553	0.384657
	H116	H	0.609414	0.096374	0.916881
	H117	H	0.376187	0.093509	0.094572
	H118	H	0.611096	0.908222	0.104182
	H119	H	0.377246	0.906521	0.916869
	C120	C	0.371123	0.008206	0.625211
	C121	C	0.614606	0.992105	0.625040
	C122	C	0.614021	0.009155	0.381386
	C123	C	0.370631	0.991467	0.381383
	C124	C	0.615075	0.376831	0.012202
	C125	C	0.613496	0.620493	0.996300
	C126	C	0.370585	0.622296	0.012913
	C127	C	0.370970	0.378461	0.995354
	C128	C	0.001610	0.623086	0.383372
	C129	C	0.984607	0.623104	0.625935
	C130	C	0.001009	0.379224	0.626607
	C131	C	0.984174	0.380772	0.384434
	C132	C	0.870497	0.509136	0.127242
	C133	C	0.114489	0.492537	0.127089
	C134	C	0.114137	0.508883	0.882690
	C135	C	0.871142	0.492346	0.882539
	C136	C	0.114104	0.879756	0.511819
	C137	C	0.113618	0.122861	0.495721
	C138	C	0.870035	0.124160	0.512087
	C139	C	0.871060	0.880198	0.494670
	C140	C	0.501606	0.121075	0.882041
	C141	C	0.483564	0.120818	0.124743
	C142	C	0.501405	0.877836	0.125240
	C143	C	0.484703	0.878321	0.882278
	C144	C	0.373906	0.885531	0.680007
	C145	C	0.611628	0.114507	0.680893
	C146	C	0.613087	0.886004	0.326724
	C147	C	0.372746	0.114365	0.326016
	C148	C	0.670908	0.380030	0.889834
	C149	C	0.668655	0.618372	0.118925
	C150	C	0.315109	0.619903	0.890048
	C151	C	0.316455	0.381354	0.118842
	C152	C	0.878355	0.678657	0.385512
	C153	C	0.107858	0.677715	0.623251
	C154	C	0.877672	0.324711	0.624684
	C155	C	0.107354	0.324337	0.386364
	C156	C	0.877395	0.383188	0.680871
	C157	C	0.108133	0.619588	0.680507
	C158	C	0.878345	0.621203	0.328307
	C159	C	0.107835	0.382202	0.329165
	C160	C	0.372485	0.678041	0.890132
	C161	C	0.611443	0.676337	0.118460
	C162	C	0.613132	0.322244	0.889480
	C163	C	0.374361	0.323639	0.118590
	C164	C	0.670481	0.886350	0.384740
	C165	C	0.667733	0.115664	0.622074
	C166	C	0.316092	0.885729	0.622097
	C167	C	0.315157	0.114788	0.383695
	C168	C	0.873665	0.386550	0.182718
	C169	C	0.112276	0.615521	0.181613
	C170	C	0.112712	0.386171	0.827555
	C171	C	0.872005	0.615041	0.827062
	C172	C	0.168993	0.882254	0.388935
	C173	C	0.169420	0.119701	0.618063
	C174	C	0.815526	0.122023	0.389178
	C175	C	0.816636	0.884222	0.618272
	C176	C	0.378071	0.176762	0.884201
	C177	C	0.607417	0.174143	0.121644
	C178	C	0.377704	0.823512	0.122789
	C179	C	0.607788	0.822224	0.884668
	C180	C	0.377715	0.880485	0.180306
	C181	C	0.607116	0.116741	0.179173
	C182	C	0.378037	0.118944	0.827155
	C183	C	0.607951	0.880054	0.826969
	C184	C	0.872672	0.180297	0.389848
	C185	C	0.110983	0.176943	0.618733
	C186	C	0.112453	0.823897	0.389592
	C187	C	0.873035	0.824992	0.617658
	C188	C	0.169283	0.385802	0.886359
	C189	C	0.169654	0.615038	0.123889
	C190	C	0.816952	0.385674	0.124051
	C191	C	0.815094	0.615046	0.885717
	C192	C	0.393276	0.094037	0.602833
	C193	C	0.593237	0.906118	0.602788
	C194	C	0.591169	0.094786	0.402667
	C195	C	0.392955	0.905970	0.403748
	C196	C	0.592536	0.398639	0.097793
	C197	C	0.590925	0.598309	0.910340
	C198	C	0.393163	0.599972	0.098272
	C199	C	0.392724	0.400453	0.909888
	C200	C	0.087675	0.600589	0.405481
	C201	C	0.898480	0.601482	0.604099
	C202	C	0.087064	0.400797	0.604313
	C203	C	0.898726	0.404114	0.407021
	C204	C	0.891727	0.594908	0.105267
	C205	C	0.092112	0.406879	0.105675
	C206	C	0.091211	0.594715	0.904199
	C207	C	0.894349	0.406809	0.904574
	C208	C	0.091368	0.902600	0.597230
	C209	C	0.091144	0.101547	0.409606
	C210	C	0.892089	0.101571	0.598094
	C211	C	0.893433	0.902051	0.409087
	C212	C	0.587690	0.098893	0.903976
	C213	C	0.397173	0.099800	0.103051
	C214	C	0.587261	0.899239	0.103284
	C215	C	0.398613	0.901049	0.904136
	Zn216	Zn	0.493069	-0.000351	0.753755
	Zn217	Zn	0.492050	-0.000581	0.252598
	Zn218	Zn	0.742612	0.500020	0.004678
	Zn219	Zn	0.242005	0.500277	0.004529
	Zn220	Zn	-0.007054	0.751587	0.504087
	Zn221	Zn	-0.008225	0.252174	0.504743
	Zn222	Zn	-0.007102	0.501005	0.754073
	Zn223	Zn	-0.006652	0.501602	0.255556
	Zn224	Zn	0.492788	0.750186	0.004048
	Zn225	Zn	0.492479	0.248943	0.003559
	Zn226	Zn	0.742347	0.001987	0.503055
	Zn227	Zn	0.242576	0.000663	0.503212
	N228	N	0.407306	0.962833	0.682020
	N229	N	0.579237	0.036668	0.682839
	N230	N	0.578664	0.963181	0.324498
	N231	N	0.406383	0.036933	0.324345
	N232	N	0.672342	0.413396	0.967196
	N233	N	0.670026	0.584306	0.041751
	N234	N	0.313398	0.586156	0.967471
	N235	N	0.314274	0.414870	0.041412
	N236	N	0.955864	0.679663	0.419092
	N237	N	0.030000	0.680102	0.590210
	N238	N	0.955481	0.322288	0.591544
	N239	N	0.029709	0.323319	0.419899
	N240	N	0.955050	0.416314	0.682179
	N241	N	0.030534	0.586294	0.682248
	N242	N	0.956025	0.587288	0.326734
	N243	N	0.030294	0.416649	0.327800
	N244	N	0.406144	0.679640	0.967332
	N245	N	0.577822	0.677510	0.041129
	N246	N	0.579240	0.320111	0.966694
	N247	N	0.407543	0.321606	0.040996
	N248	N	0.671183	0.963788	0.418044
	N249	N	0.669788	0.038473	0.588195
	N250	N	0.314373	0.963202	0.588684
	N251	N	0.314030	0.037549	0.417648
	N252	N	0.906252	0.464108	0.184911
	N253	N	0.078540	0.538380	0.183551
	N254	N	0.079223	0.463763	0.825203
	N255	N	0.906143	0.537792	0.824990
	N256	N	0.170053	0.916384	0.466023
	N257	N	0.170931	0.086784	0.540509
	N258	N	0.813567	0.088235	0.466474
	N259	N	0.815431	0.917934	0.541054
	N260	N	0.455873	0.178499	0.917234
	N261	N	0.529576	0.176827	0.088588
	N262	N	0.455393	0.821849	0.088936
	N263	N	0.530081	0.821064	0.918244
	N264	N	0.455480	0.913320	0.182289
	N265	N	0.529138	0.084335	0.181058
	N266	N	0.455760	0.084938	0.825589
	N267	N	0.530351	0.913932	0.825350
	N268	N	0.905628	0.181782	0.467468
	N269	N	0.077090	0.179134	0.541382
	N270	N	0.078975	0.822275	0.466986
	N271	N	0.906404	0.822557	0.540078
	N272	N	0.170091	0.463079	0.919962
	N273	N	0.171186	0.537521	0.090660
	N274	N	0.814878	0.462942	0.090227
	N275	N	0.814384	0.537636	0.919407
	O276	O	0.503633	0.516006	0.489938
	H277	H	0.503237	0.527612	0.491406
	H278	H	0.499927	0.508177	0.487934
	O279	O	0.511095	0.410724	0.453956
	H280	H	0.513545	0.407513	0.450914
	H281	H	0.520427	0.408021	0.457423
	O282	O	0.530722	0.503478	0.482611
	H283	H	0.543311	0.505247	0.481845
	H284	H	0.529027	0.506404	0.484233
	O285	O	0.034612	0.956050	0.965426
	H286	H	0.032673	0.959872	0.961685
	H287	H	0.039331	0.955616	0.954622
	O288	O	0.466628	0.466494	0.491870
	H289	H	0.462626	0.463341	0.499261
	H290	H	0.448728	0.464597	0.491219
	O291	O	0.022377	0.032083	0.987438
	H292	H	0.016623	0.030707	0.997524
	H293	H	0.019327	0.032625	0.982906
	O294	O	0.506017	0.515053	0.516864
	H295	H	0.505830	0.506740	0.522113
	H296	H	0.506470	0.523723	0.509153
	O297	O	0.450849	0.550232	0.475358
	H298	H	0.452934	0.543789	0.470575
	H299	H	0.452910	0.561975	0.476886
	O300	O	0.521375	0.492526	0.433832
	H301	H	0.524303	0.491612	0.442129
	H302	H	0.517353	0.494493	0.430769
	O303	O	0.496144	0.526206	0.529545
	H304	H	0.495194	0.525051	0.523818
	H305	H	0.494504	0.512208	0.521046
	O306	O	1.011025	-0.007181	0.918537
	H307	H	1.020335	-0.009929	0.919083
	H308	H	1.009587	-0.006859	0.918444
	O309	O	0.423917	0.440545	0.523540
	H310	H	0.426917	0.440815	0.517542
	H311	H	0.424398	0.440670	0.525286
	O312	O	0.494507	0.569484	0.552907
	H313	H	0.494022	0.568388	0.549877
	H314	H	0.490841	0.571614	0.558129
	O315	O	1.036482	-0.065558	0.933806
	H316	H	1.046336	-0.076798	0.921459
	H317	H	1.040900	-0.062822	0.923462
	O318	O	0.058277	-0.004331	-0.027613
	H319	H	0.053643	0.002768	-0.030392
	H320	H	0.053514	-0.005082	-0.016312
	O321	O	0.583451	0.452863	0.512979
	H322	H	0.592479	0.458491	0.500791
	H323	H	0.586712	0.452621	0.518578
	O324	O	0.991277	0.016398	-0.008716
	H325	H	0.991900	0.021738	-0.014887
	H326	H	0.978688	0.010118	-0.010194
	O327	O	1.045597	0.961698	-0.070845
	H328	H	1.054474	0.955319	-0.066823
	H329	H	1.043766	0.969788	-0.066419
	O330	O	1.026419	0.998637	-0.024173
	H331	H	1.029095	0.998694	-0.013530
	H332	H	1.030874	0.990711	-0.027664
	O333	O	0.466844	0.453855	0.503528
	H334	H	0.472328	0.458297	0.501501
	H335	H	0.461058	0.443161	0.510518
