data_Molecule from HDF5

_cell_length_a		16.535986
_cell_length_b		16.644339
_cell_length_c		16.465664
_cell_angle_alpha	89.939128
_cell_angle_beta	89.984618
_cell_angle_gamma	90.002932
_symmetry_space_group_name_H-M	'P 1'
_symmetry_Int_Tables_number		1

loop_
	_symmetry_equiv_pos_as_xyz
	x,y,z

loop_
	_atom_site_label
	_atom_site_type_symbol
	_atom_site_fract_x
	_atom_site_fract_y
	_atom_site_fract_z
	H0	H	0.389769	0.857703	0.696988
	H1	H	0.599941	0.171533	0.699833
	H2	H	0.598550	0.859031	0.255870
	H3	H	0.390840	0.172572	0.256364
	H4	H	0.713484	0.412729	0.818355
	H5	H	0.711758	0.617698	0.136719
	H6	H	0.272615	0.620590	0.819729
	H7	H	0.273573	0.411046	0.134078
	H8	H	0.837003	0.739034	0.369208
	H9	H	0.149200	0.738265	0.583663
	H10	H	0.836109	0.293313	0.586517
	H11	H	0.150544	0.296610	0.376310
	H12	H	0.834772	0.412551	0.698655
	H13	H	0.149821	0.621188	0.698938
	H14	H	0.834970	0.619365	0.257665
	H15	H	0.151113	0.414125	0.260238
	H16	H	0.388493	0.736362	0.820048
	H17	H	0.597821	0.735031	0.135846
	H18	H	0.599592	0.294804	0.819010
	H19	H	0.388053	0.293309	0.133298
	H20	H	0.716203	0.859830	0.370932
	H21	H	0.716562	0.170488	0.584336
	H22	H	0.274494	0.857739	0.579026
	H23	H	0.273489	0.172533	0.373438
	H24	H	0.889417	0.359194	0.198844
	H25	H	0.099642	0.670577	0.200608
	H26	H	0.097991	0.360914	0.755725
	H27	H	0.888321	0.672030	0.755535
	H28	H	0.214517	0.910642	0.320023
	H29	H	0.212215	0.117363	0.636366
	H30	H	0.771354	0.122354	0.321501
	H31	H	0.768487	0.907372	0.632236
	H32	H	0.338580	0.237440	0.871264
	H33	H	0.649468	0.239195	0.084933
	H34	H	0.337332	0.793213	0.083963
	H35	H	0.650581	0.794404	0.871447
	H36	H	0.335217	0.912958	0.196079
	H37	H	0.649529	0.120404	0.199288
	H38	H	0.335639	0.117493	0.759781
	H39	H	0.650874	0.913072	0.757484
	H40	H	0.885906	0.240134	0.323552
	H41	H	0.097237	0.234440	0.637096
	H42	H	0.101361	0.792170	0.321309
	H43	H	0.883252	0.789621	0.631296
	H44	H	0.218442	0.362561	0.869608
	H45	H	0.218239	0.669328	0.086084
	H46	H	0.771943	0.359573	0.082262
	H47	H	0.771894	0.672183	0.872492
	H48	H	0.398669	0.127201	0.564144
	H49	H	0.576171	0.905877	0.567320
	H50	H	0.579625	0.125969	0.388264
	H51	H	0.403195	0.903692	0.386279
	H52	H	0.585752	0.424922	0.090302
	H53	H	0.586284	0.607017	0.862500
	H54	H	0.409614	0.612614	0.091761
	H55	H	0.398919	0.436232	0.864864
	H56	H	0.103137	0.608303	0.397439
	H57	H	0.881398	0.609171	0.560048
	H58	H	0.104405	0.426861	0.567227
	H59	H	0.878731	0.425755	0.385625
	H60	H	0.105786	0.424694	0.568553
	H61	H	0.884875	0.596831	0.562657
	H62	H	0.102689	0.596777	0.387517
	H63	H	0.879876	0.422047	0.392955
	H64	H	0.396029	0.601525	0.092829
	H65	H	0.583138	0.601605	0.866347
	H66	H	0.581712	0.428345	0.088833
	H67	H	0.417790	0.428799	0.868776
	H68	H	0.583188	0.125628	0.390027
	H69	H	0.580249	0.906728	0.560796
	H70	H	0.399682	0.130128	0.572949
	H71	H	0.402415	0.904108	0.388170
	H72	H	0.903002	0.627929	0.069758
	H73	H	0.082620	0.403591	0.066866
	H74	H	0.076601	0.625373	0.888275
	H75	H	0.906736	0.403193	0.882170
	H76	H	0.079499	0.928556	0.588103
	H77	H	0.082094	0.108590	0.364971
	H78	H	0.904565	0.099284	0.589715
	H79	H	0.908433	0.929611	0.366978
	H80	H	0.608087	0.107554	0.888051
	H81	H	0.383136	0.103400	0.063155
	H82	H	0.607186	0.923976	0.066986
	H83	H	0.383872	0.927384	0.892519
	H84	H	0.605567	0.924878	0.064296
	H85	H	0.381375	0.104602	0.066556
	H86	H	0.604954	0.104195	0.891586
	H87	H	0.379784	0.926156	0.883435
	H88	H	0.908959	0.105594	0.590145
	H89	H	0.083269	0.107236	0.364629
	H90	H	0.080075	0.924972	0.589857
	H91	H	0.907409	0.926065	0.364486
	H92	H	0.083407	0.625728	0.895534
	H93	H	0.083301	0.403814	0.066905
	H94	H	0.904544	0.626465	0.066618
	H95	H	0.908318	0.407387	0.895261
	H96	H	0.406756	0.125973	0.568391
	H97	H	0.583953	0.904108	0.567263
	H98	H	0.582700	0.127245	0.386906
	H99	H	0.401466	0.903280	0.386805
	H100	H	0.580364	0.423017	0.089895
	H101	H	0.579676	0.607652	0.864806
	H102	H	0.410875	0.596829	0.085270
	H103	H	0.403880	0.416664	0.859957
	H104	H	0.108899	0.610615	0.383448
	H105	H	0.878443	0.603856	0.571641
	H106	H	0.104929	0.423951	0.565612
	H107	H	0.882185	0.430370	0.391627
	H108	H	0.900771	0.627888	0.066484
	H109	H	0.082684	0.403900	0.067355
	H110	H	0.085351	0.629351	0.887010
	H111	H	0.895858	0.402602	0.890754
	H112	H	0.083357	0.926946	0.590433
	H113	H	0.081313	0.106365	0.364883
	H114	H	0.901724	0.105311	0.592681
	H115	H	0.904391	0.929697	0.364859
	H116	H	0.606849	0.102588	0.886819
	H117	H	0.381478	0.107038	0.063277
	H118	H	0.604944	0.926505	0.067293
	H119	H	0.379368	0.919493	0.890037
	C120	C	0.370873	0.023722	0.599384
	C121	C	0.613872	1.007914	0.598239
	C122	C	0.614873	0.023618	0.355312
	C123	C	0.371049	1.007349	0.355309
	C124	C	0.615224	0.394033	-0.014754
	C125	C	0.614528	0.636614	0.969335
	C126	C	0.372610	0.636244	-0.013967
	C127	C	0.373622	0.394680	0.968372
	C128	C	0.001396	0.637289	0.355912
	C129	C	0.984944	0.636566	0.598106
	C130	C	0.001037	0.393809	0.600015
	C131	C	0.984553	0.394968	0.358526
	C132	C	0.871283	0.524064	0.099444
	C133	C	0.115251	0.506626	0.099674
	C134	C	0.114778	0.524693	0.856491
	C135	C	0.871660	0.507625	0.856684
	C136	C	0.113366	0.894719	0.485581
	C137	C	0.114200	0.137885	0.469596
	C138	C	0.872280	0.136547	0.487230
	C139	C	0.872322	0.894457	0.468093
	C140	C	0.503022	0.136752	0.856323
	C141	C	0.485181	0.137154	0.097717
	C142	C	0.501741	0.894112	0.098248
	C143	C	0.484774	0.893396	0.856422
	C144	C	0.370689	0.905197	0.657531
	C145	C	0.617740	0.124298	0.659725
	C146	C	0.617296	0.906174	0.295403
	C147	C	0.371275	0.125488	0.296519
	C148	C	0.674345	0.393548	0.866055
	C149	C	0.672897	0.636936	0.088851
	C150	C	0.312378	0.638785	0.867235
	C151	C	0.313557	0.392433	0.086797
	C152	C	0.883598	0.697999	0.352168
	C153	C	0.102232	0.697828	0.601485
	C154	C	0.883166	0.333662	0.603828
	C155	C	0.103414	0.336315	0.357089
	C156	C	0.882544	0.393200	0.659475
	C157	C	0.102719	0.639437	0.658758
	C158	C	0.882838	0.638500	0.296445
	C159	C	0.103485	0.394743	0.299647
	C160	C	0.370218	0.696273	0.867455
	C161	C	0.616128	0.695354	0.088548
	C162	C	0.617921	0.334615	0.866394
	C163	C	0.370373	0.333846	0.086293
	C164	C	0.675756	0.906695	0.352768
	C165	C	0.675976	0.124025	0.602131
	C166	C	0.313309	0.905080	0.598813
	C167	C	0.312723	0.125498	0.354315
	C168	C	0.870305	0.406047	0.158930
	C169	C	0.118131	0.623579	0.160581
	C170	C	0.117484	0.407691	0.795407
	C171	C	0.869549	0.625096	0.795980
	C172	C	0.174379	0.892186	0.367415
	C173	C	0.173123	0.137087	0.588929
	C174	C	0.811657	0.140127	0.368919
	C175	C	0.809628	0.889692	0.585456
	C176	C	0.385248	0.196905	0.853640
	C177	C	0.602586	0.198312	0.102332
	C178	C	0.383859	0.834104	0.101236
	C179	C	0.603296	0.834236	0.853694
	C180	C	0.382785	0.893842	0.156910
	C181	C	0.602992	0.139237	0.158826
	C182	C	0.383838	0.137352	0.798062
	C183	C	0.603456	0.893192	0.796975
	C184	C	0.868598	0.198571	0.369760
	C185	C	0.115855	0.195234	0.589263
	C186	C	0.117906	0.833335	0.368002
	C187	C	0.866741	0.831347	0.585030
	C188	C	0.176749	0.408338	0.852230
	C189	C	0.177038	0.622928	0.103473
	C190	C	0.812084	0.406178	0.101037
	C191	C	0.811484	0.625148	0.853955
	C192	C	0.394793	0.106205	0.575390
	C193	C	0.587690	0.926567	0.572115
	C194	C	0.589117	0.105126	0.380919
	C195	C	0.395257	0.925134	0.380099
	C196	C	0.589892	0.418306	0.068056
	C197	C	0.589935	0.612560	0.886276
	C198	C	0.398136	0.610834	0.068475
	C199	C	0.399440	0.419892	0.886134
	C200	C	0.083593	0.612504	0.382054
	C201	C	0.903003	0.610748	0.572207
	C202	C	0.083575	0.418169	0.574328
	C203	C	0.901859	0.419016	0.383141
	C204	C	0.895763	0.605985	0.074737
	C205	C	0.090157	0.425131	0.074236
	C206	C	0.088939	0.605717	0.882685
	C207	C	0.896612	0.425862	0.882071
	C208	C	0.088062	0.919815	0.568105
	C209	C	0.089338	0.114118	0.386544
	C210	C	0.897996	0.110600	0.569401
	C211	C	0.899129	0.920997	0.386600
	C212	C	0.585431	0.111793	0.881474
	C213	C	0.403403	0.111943	0.071794
	C214	C	0.584472	0.918279	0.073426
	C215	C	0.402362	0.917435	0.881547
	Zn216	Zn	0.492978	0.015307	0.728078
	Zn217	Zn	0.493580	0.015049	0.226432
	Zn218	Zn	0.742667	0.515679	-0.022604
	Zn219	Zn	0.244221	0.515490	-0.022536
	Zn220	Zn	-0.006821	0.765499	0.476956
	Zn221	Zn	-0.007114	0.265651	0.479454
	Zn222	Zn	-0.007175	0.516037	0.727671
	Zn223	Zn	-0.007280	0.515714	0.228717
	Zn224	Zn	0.493626	0.764798	-0.022168
	Zn225	Zn	0.494367	0.265695	-0.023617
	Zn226	Zn	0.743730	0.015592	0.477323
	Zn227	Zn	0.241758	0.015882	0.477500
	N228	N	0.405584	0.980210	0.658271
	N229	N	0.579774	0.050920	0.657552
	N230	N	0.580195	0.979961	0.296751
	N231	N	0.406595	0.050772	0.296800
	N232	N	0.673047	0.429356	0.941152
	N233	N	0.672014	0.601151	0.013792
	N234	N	0.313783	0.602118	0.942049
	N235	N	0.315388	0.429500	0.012403
	N236	N	0.958495	0.697647	0.388297
	N237	N	0.027725	0.696240	0.564492
	N238	N	0.957993	0.333980	0.567613
	N239	N	0.028201	0.336045	0.392779
	N240	N	0.957060	0.429990	0.657285
	N241	N	0.028722	0.602234	0.656811
	N242	N	0.957196	0.601617	0.298630
	N243	N	0.028622	0.430189	0.300227
	N244	N	0.406676	0.695139	0.942447
	N245	N	0.580741	0.695584	0.013000
	N246	N	0.582172	0.334512	0.941845
	N247	N	0.406958	0.334896	0.011480
	N248	N	0.674605	0.980923	0.389165
	N249	N	0.673427	0.050562	0.564383
	N250	N	0.313031	0.979921	0.563675
	N251	N	0.312369	0.051002	0.390010
	N252	N	0.906208	0.480487	0.158254
	N253	N	0.080470	0.550123	0.158573
	N254	N	0.079617	0.481052	0.798117
	N255	N	0.906173	0.551085	0.797501
	N256	N	0.171630	0.929951	0.441592
	N257	N	0.172366	0.102110	0.513360
	N258	N	0.813668	0.102327	0.443030
	N259	N	0.812923	0.928353	0.511769
	N260	N	0.460439	0.196672	0.888950
	N261	N	0.528424	0.197152	0.065035
	N262	N	0.458862	0.834182	0.065388
	N263	N	0.528332	0.833879	0.889707
	N264	N	0.457262	0.930235	0.155360
	N265	N	0.529021	0.101853	0.156186
	N266	N	0.458142	0.100553	0.799507
	N267	N	0.528721	0.929092	0.798316
	N268	N	0.905549	0.196625	0.444366
	N269	N	0.080141	0.195930	0.514047
	N270	N	0.080584	0.834941	0.442405
	N271	N	0.905156	0.834389	0.511286
	N272	N	0.175326	0.482095	0.889340
	N273	N	0.175790	0.548980	0.066620
	N274	N	0.812157	0.480633	0.065179
	N275	N	0.812644	0.551102	0.890813
	O276	O	0.905793	0.981361	0.007387
	H277	H	0.917322	0.983224	0.005254
	H278	H	0.896393	0.992077	-0.005593
	O279	O	0.183321	0.207448	0.789642
	H280	H	0.165298	0.191997	0.807124
	H281	H	0.183036	0.207430	0.806780
	O282	O	0.538360	0.379018	0.350907
	H283	H	0.532432	0.389155	0.345093
	H284	H	0.524593	0.386626	0.355329
	O285	O	0.350949	0.528965	0.522139
	H286	H	0.351707	0.523098	0.539790
	H287	H	0.344660	0.530164	0.526460
	O288	O	1.521746	-0.265712	0.696145
	H289	H	1.565713	-0.274037	0.690629
	H290	H	1.532504	-0.237281	0.725031
	O291	O	0.990085	1.009661	1.169644
	H292	H	0.999399	1.016631	1.157879
	H293	H	0.976046	1.022148	1.172659
	O294	O	0.041340	0.067229	-0.216323
	H295	H	0.067685	0.054401	-0.217502
	H296	H	0.043700	0.062696	-0.202477
	O297	O	0.810706	0.074287	0.019021
	H298	H	0.807188	0.095133	0.012629
	H299	H	0.809813	0.071178	0.013788
	O300	O	0.697603	0.313571	0.277255
	H301	H	0.709406	0.302018	0.296403
	H302	H	0.661526	0.306049	0.271130
	O303	O	-0.505198	-0.607421	-0.319292
	H304	H	-0.495474	-0.604624	-0.310264
	H305	H	-0.519516	-0.605953	-0.316473
	O306	O	0.802803	-0.180125	0.165287
	H307	H	0.809418	-0.158807	0.179619
	H308	H	0.827667	-0.168550	0.178560
	O309	O	0.676105	0.347427	0.471039
	H310	H	0.667763	0.343057	0.462813
	H311	H	0.672057	0.350499	0.472260
	O312	O	0.163146	0.812911	0.777638
	H313	H	0.126226	0.816805	0.772600
	H314	H	0.175679	0.794805	0.772827
	O315	O	0.672018	0.662817	0.664197
	H316	H	0.673799	0.661583	0.619620
	H317	H	0.689745	0.677305	0.680218
	O318	O	0.810132	0.200391	0.164544
	H319	H	0.818686	0.194621	0.139196
	H320	H	0.814123	0.203346	0.169121
	O321	O	0.115556	0.876227	1.041282
	H322	H	0.110400	0.866898	1.046015
	H323	H	0.109934	0.865859	1.031905
	O324	O	0.933154	0.229333	1.021471
	H325	H	0.935065	0.227066	1.030352
	H326	H	0.918276	0.230031	1.014798
	O327	O	0.323680	0.682750	0.600377
	H328	H	0.337391	0.677389	0.593106
	H329	H	0.327629	0.666015	0.584275
	O330	O	1.285396	1.313903	-0.317449
	H331	H	1.266903	1.308096	-0.296028
	H332	H	1.299654	1.310150	-0.333059
	O333	O	0.965801	0.229195	0.770650
	H334	H	0.973920	0.241320	0.747096
	H335	H	0.987328	0.219881	0.785901
	O336	O	0.046700	1.246009	-0.072335
	H337	H	0.062960	1.246039	-0.053923
	H338	H	0.032905	1.246046	-0.062439
	O339	O	0.271314	0.475582	0.430183
	H340	H	0.264151	0.460125	0.439751
	H341	H	0.279683	0.472229	0.431911
	O342	O	-0.198472	0.819440	0.757574
	H343	H	-0.187433	0.824783	0.774229
	H344	H	-0.179093	0.842113	0.771952
	O345	O	0.770570	0.236420	0.952869
	H346	H	0.755336	0.255389	0.930864
	H347	H	0.770689	0.243440	0.919107
	O348	O	0.405909	0.700187	0.271180
	H349	H	0.385687	0.693669	0.294243
	H350	H	0.402279	0.704872	0.254188
	O351	O	-0.209499	0.038841	0.772794
	H352	H	-0.205467	0.024027	0.766792
	H353	H	-0.206178	0.023572	0.770222
	O354	O	1.103377	0.234395	1.191366
	H355	H	1.082969	0.231873	1.204354
	H356	H	1.131815	0.254338	1.212978
	O357	O	0.569138	0.701063	0.311364
	H358	H	0.549343	0.689009	0.324885
	H359	H	0.562809	0.718416	0.295486
	O360	O	0.501348	0.652847	0.559977
	H361	H	0.523873	0.652383	0.555892
	H362	H	0.514424	0.646846	0.576512
	O363	O	0.173847	0.839912	0.943939
	H364	H	0.170332	0.842391	0.918384
	H365	H	0.189171	0.814924	0.936126
	O366	O	0.376264	0.476962	1.591170
	H367	H	0.383216	0.463316	1.604873
	H368	H	0.368944	0.465981	1.602715
	O369	O	0.110064	-0.113063	1.087191
	H370	H	0.137142	-0.116804	1.082310
	H371	H	0.089744	-0.105031	1.084157
	O372	O	0.104391	0.996547	0.992555
	H373	H	0.101909	1.008969	1.012543
	H374	H	0.102205	0.983736	0.997540
	O375	O	1.211554	0.055111	0.196995
	H376	H	1.204179	0.053812	0.193731
	H377	H	1.235043	0.059181	0.217482
	O378	O	0.387607	0.725269	0.437397
	H379	H	0.374588	0.729352	0.454553
	H380	H	0.388584	0.722049	0.439928
	O381	O	-0.035381	0.797568	0.186367
	H382	H	-0.020821	0.805491	0.196559
	H383	H	-0.032079	0.793284	0.197948
	O384	O	0.503571	0.492117	0.664493
	H385	H	0.516880	0.498125	0.663753
	H386	H	0.494467	0.485485	0.667245
	O387	O	0.263778	1.291663	1.245745
	H388	H	0.280429	1.289182	1.245121
	H389	H	0.282028	1.297787	1.263788
	O390	O	-0.197171	1.201671	0.793911
	H391	H	-0.196107	1.158319	0.784017
	H392	H	-0.155963	1.201491	0.788636
	O393	O	0.977203	-0.197572	-0.235963
	H394	H	0.966099	-0.192450	-0.212533
	H395	H	0.978726	-0.216411	-0.246657
	O396	O	0.285141	0.300837	0.509919
	H397	H	0.297147	0.303823	0.519555
	H398	H	0.271269	0.275683	0.512873
	O399	O	0.598922	0.418170	0.598811
	H400	H	0.617554	0.421215	0.595647
	H401	H	0.613896	0.416654	0.614806
	O402	O	1.091644	-0.138626	1.097681
	H403	H	1.103231	-0.151524	1.099880
	H404	H	1.071354	-0.136501	1.106142
	O405	O	0.288798	0.543060	0.269416
	H406	H	0.274692	0.538557	0.249432
	H407	H	0.293328	0.527895	0.286379
	O408	O	0.781535	0.982256	1.188606
	H409	H	0.758140	0.992106	1.199610
	H410	H	0.786997	0.997899	1.180967
	O411	O	1.213143	0.983017	-0.240279
	H412	H	1.236772	0.969530	-0.261605
	H413	H	1.219138	0.962940	-0.224172
	O414	O	-0.043558	-0.031364	-0.245105
	H415	H	-0.026314	-0.013510	-0.237482
	H416	H	-0.015261	-0.045983	-0.253373
	O417	O	0.155985	0.069319	1.009456
	H418	H	0.155396	0.064804	1.006612
	H419	H	0.138208	0.060491	1.014205
	O420	O	0.786449	-0.038241	0.918759
	H421	H	0.781045	-0.027767	0.921082
	H422	H	0.783041	-0.055943	0.933311
	O423	O	1.637106	0.586138	0.392355
	H424	H	1.640199	0.571364	0.387829
	H425	H	1.631245	0.583800	0.372650
	O426	O	0.506588	0.527283	0.255899
	H427	H	0.513900	0.547890	0.249803
	H428	H	0.518992	0.550946	0.266345
	O429	O	0.988624	1.149584	0.191816
	H430	H	0.979295	1.147503	0.190251
	H431	H	0.999470	1.152603	0.199111
	O432	O	1.350252	-0.279266	1.376485
	H433	H	1.354393	-0.282793	1.406264
	H434	H	1.353018	-0.310665	1.387715
	O435	O	-0.508650	-0.471230	0.483473
	H436	H	-0.509078	-0.469010	0.484941
	H437	H	-0.506256	-0.481714	0.496039
	O438	O	0.460093	0.354789	0.446335
	H439	H	0.462802	0.356954	0.474360
	H440	H	0.466952	0.361359	0.440555
	O441	O	0.506263	0.388757	0.359254
	H442	H	0.494365	0.390442	0.350030
	H443	H	0.512252	0.389566	0.375663
	O444	O	0.382976	0.403013	0.279310
	H445	H	0.392687	0.411647	0.289191
	H446	H	0.402030	0.427090	0.284478
	O447	O	0.643875	0.507213	0.642820
	H448	H	0.659792	0.527491	0.658571
	H449	H	0.648955	0.511408	0.639636
	O450	O	1.698513	-0.280992	0.503429
	H451	H	1.705213	-0.275554	0.492545
	H452	H	1.696862	-0.283974	0.487879
	O453	O	1.103293	-0.163559	1.059873
	H454	H	1.115483	-0.166569	1.049188
	H455	H	1.118157	-0.181780	1.081587
	O456	O	-0.046325	0.845784	0.922713
	H457	H	-0.049536	0.839584	0.943718
	H458	H	-0.054399	0.852131	0.932919
	O459	O	0.571192	0.353816	0.531444
	H460	H	0.582767	0.356025	0.533004
	H461	H	0.574680	0.346531	0.521518
	O462	O	0.702674	0.529600	0.535098
	H463	H	0.703861	0.526255	0.531343
	H464	H	0.706586	0.537457	0.537070
	O465	O	0.713614	0.486648	0.262800
	H466	H	0.726012	0.470176	0.250609
	H467	H	0.721714	0.458534	0.249864
	O468	O	0.203919	1.235882	-0.004699
	H469	H	0.226436	1.249434	0.015031
	H470	H	0.198582	1.226070	0.014713
	O471	O	0.287795	0.485884	0.688554
	H472	H	0.293874	0.489879	0.709072
	H473	H	0.280200	0.471533	0.694329
	O474	O	0.773013	0.796439	0.002706
	H475	H	0.767010	0.787312	0.036763
	H476	H	0.755564	0.788145	0.024047
	O477	O	0.106801	0.084671	0.931280
	H478	H	0.110711	0.093090	0.938622
	H479	H	0.117019	0.073824	0.943459
