data_Molecule from HDF5

_cell_length_a		16.306580
_cell_length_b		16.266388
_cell_length_c		16.262172
_cell_angle_alpha	90.111771
_cell_angle_beta	89.906965
_cell_angle_gamma	90.127066
_symmetry_space_group_name_H-M	'P 1'
_symmetry_Int_Tables_number		1

loop_
	_symmetry_equiv_pos_as_xyz
	x,y,z

loop_
	_atom_site_label
	_atom_site_type_symbol
	_atom_site_fract_x
	_atom_site_fract_y
	_atom_site_fract_z
	H0	H	0.407471	0.830235	0.706369
	H1	H	0.604566	0.158648	0.707071
	H2	H	0.603750	0.830627	0.279115
	H3	H	0.408271	0.159701	0.279838
	H4	H	0.718557	0.397708	0.828132
	H5	H	0.720537	0.594481	0.155370
	H6	H	0.292418	0.593168	0.827944
	H7	H	0.289252	0.395709	0.155161
	H8	H	0.842019	0.708638	0.394525
	H9	H	0.168834	0.709836	0.590099
	H10	H	0.842389	0.280213	0.590025
	H11	H	0.169331	0.279933	0.392228
	H12	H	0.842008	0.395684	0.706381
	H13	H	0.168371	0.595446	0.707373
	H14	H	0.841668	0.593136	0.278306
	H15	H	0.168844	0.394638	0.275066
	H16	H	0.409548	0.707993	0.827954
	H17	H	0.603670	0.708484	0.157106
	H18	H	0.603621	0.280273	0.828724
	H19	H	0.404530	0.279413	0.156119
	H20	H	0.721106	0.831493	0.392563
	H21	H	0.721959	0.157863	0.592113
	H22	H	0.289786	0.831186	0.592855
	H23	H	0.291213	0.158792	0.395089
	H24	H	0.907525	0.330827	0.204666
	H25	H	0.105585	0.658630	0.207311
	H26	H	0.104244	0.331525	0.776392
	H27	H	0.907236	0.658430	0.778303
	H28	H	0.221855	0.895299	0.329738
	H29	H	0.219634	0.094511	0.657548
	H30	H	0.791419	0.093315	0.329444
	H31	H	0.790065	0.894218	0.655473
	H32	H	0.341438	0.208413	0.893788
	H33	H	0.669376	0.208517	0.089948
	H34	H	0.341555	0.778955	0.092645
	H35	H	0.669534	0.781170	0.895671
	H36	H	0.341637	0.896497	0.208487
	H37	H	0.669433	0.094003	0.207770
	H38	H	0.342275	0.091473	0.778202
	H39	H	0.669117	0.895336	0.778028
	H40	H	0.908428	0.207600	0.328235
	H41	H	0.105398	0.211235	0.656050
	H42	H	0.105197	0.780559	0.328295
	H43	H	0.907587	0.780141	0.655991
	H44	H	0.221056	0.332285	0.890505
	H45	H	0.222612	0.657977	0.092598
	H46	H	0.790256	0.331620	0.090577
	H47	H	0.791371	0.658296	0.893530
	H48	H	0.413596	0.111763	0.589380
	H49	H	0.598756	0.878175	0.584228
	H50	H	0.609403	0.113825	0.401269
	H51	H	0.412442	0.878330	0.399143
	H52	H	0.594656	0.402574	0.108404
	H53	H	0.604239	0.575198	0.877573
	H54	H	0.414689	0.582982	0.105846
	H55	H	0.417462	0.413553	0.880627
	H56	H	0.121904	0.592868	0.402504
	H57	H	0.892788	0.579754	0.581069
	H58	H	0.122322	0.400252	0.582903
	H59	H	0.887849	0.399346	0.392891
	H60	H	0.119867	0.404636	0.582697
	H61	H	0.887074	0.587605	0.594958
	H62	H	0.118097	0.581767	0.403039
	H63	H	0.889491	0.396602	0.403361
	H64	H	0.416646	0.589913	0.108897
	H65	H	0.585789	0.591083	0.878603
	H66	H	0.600417	0.398236	0.110883
	H67	H	0.422833	0.389619	0.875274
	H68	H	0.594375	0.112601	0.391827
	H69	H	0.599790	0.877832	0.585699
	H70	H	0.414932	0.109859	0.585036
	H71	H	0.414999	0.879422	0.401336
	H72	H	0.912915	0.611613	0.082902
	H73	H	0.099329	0.380110	0.076120
	H74	H	0.090174	0.607235	0.903696
	H75	H	0.911567	0.376950	0.896266
	H76	H	0.101955	0.907196	0.608901
	H77	H	0.097706	0.086814	0.377697
	H78	H	0.909880	0.094958	0.612258
	H79	H	0.918604	0.908114	0.378812
	H80	H	0.622929	0.098025	0.904709
	H81	H	0.390155	0.088400	0.080721
	H82	H	0.624926	0.901116	0.099374
	H83	H	0.385843	0.891492	0.898978
	H84	H	0.623082	0.890406	0.080052
	H85	H	0.391471	0.080209	0.087408
	H86	H	0.617181	0.079559	0.904524
	H87	H	0.392523	0.903861	0.908848
	H88	H	0.908106	0.081815	0.609324
	H89	H	0.100149	0.088216	0.376369
	H90	H	0.091850	0.903152	0.606861
	H91	H	0.915475	0.892644	0.374204
	H92	H	0.106330	0.611734	0.905563
	H93	H	0.103596	0.376601	0.087648
	H94	H	0.909198	0.612555	0.086443
	H95	H	0.915066	0.379816	0.900368
	H96	H	0.410217	0.111481	0.585226
	H97	H	0.597106	0.878438	0.586380
	H98	H	0.594077	0.106892	0.409376
	H99	H	0.411353	0.879169	0.402522
	H100	H	0.602002	0.405115	0.109044
	H101	H	0.607340	0.597918	0.869922
	H102	H	0.410293	0.587306	0.109401
	H103	H	0.399822	0.398525	0.870959
	H104	H	0.123978	0.586233	0.393000
	H105	H	0.887813	0.595854	0.580498
	H106	H	0.122313	0.403884	0.587093
	H107	H	0.891930	0.406929	0.399864
	H108	H	0.914329	0.612468	0.088164
	H109	H	0.090660	0.379761	0.086659
	H110	H	0.098654	0.614135	0.890657
	H111	H	0.910060	0.377507	0.901858
	H112	H	0.099446	0.896580	0.611062
	H113	H	0.100064	0.085436	0.376982
	H114	H	0.919947	0.087238	0.607126
	H115	H	0.903883	0.903638	0.373415
	H116	H	0.624010	0.087229	0.889304
	H117	H	0.388091	0.089046	0.090416
	H118	H	0.617139	0.911910	0.082009
	H119	H	0.388766	0.906595	0.892165
	C120	C	0.383863	0.002734	0.615042
	C121	C	0.627741	0.986277	0.614495
	C122	C	0.627645	0.003001	0.371685
	C123	C	0.384434	0.986963	0.372282
	C124	C	0.626871	0.373717	0.000955
	C125	C	0.627144	0.616601	0.983985
	C126	C	0.384888	0.615883	0.000145
	C127	C	0.383916	0.372452	0.983918
	C128	C	0.013732	0.616112	0.370691
	C129	C	0.996840	0.616731	0.614059
	C130	C	0.013692	0.373777	0.613053
	C131	C	0.997551	0.372498	0.369771
	C132	C	0.883848	0.503919	0.113890
	C133	C	0.127374	0.486735	0.113183
	C134	C	0.127367	0.503503	0.870079
	C135	C	0.883956	0.486263	0.871104
	C136	C	0.127030	0.873338	0.500744
	C137	C	0.127878	0.116378	0.484949
	C138	C	0.884490	0.116074	0.501028
	C139	C	0.884277	0.872941	0.483721
	C140	C	0.513337	0.115952	0.871142
	C141	C	0.497646	0.115614	0.114577
	C142	C	0.513621	0.872642	0.115742
	C143	C	0.497325	0.872743	0.871639
	C144	C	0.386060	0.879506	0.669468
	C145	C	0.625316	0.109471	0.669630
	C146	C	0.624535	0.879664	0.316740
	C147	C	0.387321	0.110493	0.317266
	C148	C	0.681591	0.376449	0.877364
	C149	C	0.682441	0.614462	0.106933
	C150	C	0.330106	0.613276	0.876947
	C151	C	0.327229	0.374832	0.106538
	C152	C	0.890855	0.671379	0.373187
	C153	C	0.120014	0.672226	0.610982
	C154	C	0.891103	0.317847	0.610872
	C155	C	0.120415	0.317010	0.371467
	C156	C	0.890889	0.375540	0.668414
	C157	C	0.119779	0.615072	0.669128
	C158	C	0.890758	0.613819	0.315551
	C159	C	0.120099	0.374344	0.313301
	C160	C	0.388049	0.670498	0.876952
	C161	C	0.624659	0.671433	0.107600
	C162	C	0.623842	0.319045	0.877294
	C163	C	0.384820	0.317239	0.107015
	C164	C	0.682639	0.880053	0.373460
	C165	C	0.683518	0.109195	0.612410
	C166	C	0.327672	0.880027	0.612997
	C167	C	0.329325	0.110227	0.374630
	C168	C	0.886840	0.380044	0.167622
	C169	C	0.125559	0.609759	0.169288
	C170	C	0.124840	0.380614	0.814052
	C171	C	0.886781	0.609412	0.816064
	C172	C	0.183505	0.875090	0.378240
	C173	C	0.182227	0.114903	0.608341
	C174	C	0.829529	0.113555	0.378042
	C175	C	0.828229	0.874310	0.606694
	C176	C	0.390576	0.170814	0.873611
	C177	C	0.620559	0.171478	0.111663
	C178	C	0.390555	0.817034	0.113157
	C179	C	0.620585	0.818504	0.874410
	C180	C	0.390466	0.875273	0.170851
	C181	C	0.620762	0.114156	0.169649
	C182	C	0.390735	0.112786	0.816042
	C183	C	0.620129	0.875040	0.815741
	C184	C	0.887602	0.170489	0.377429
	C185	C	0.125482	0.172980	0.607431
	C186	C	0.125514	0.817890	0.377545
	C187	C	0.886332	0.817475	0.606970
	C188	C	0.182826	0.380920	0.870992
	C189	C	0.183796	0.609413	0.112091
	C190	C	0.828302	0.380458	0.111069
	C191	C	0.829111	0.609360	0.873358
	C192	C	0.406286	0.088804	0.592899
	C193	C	0.605067	0.900188	0.591955
	C194	C	0.605660	0.088847	0.394334
	C195	C	0.406426	0.901223	0.394557
	C196	C	0.605192	0.395527	0.087061
	C197	C	0.605287	0.594625	0.897742
	C198	C	0.407223	0.593324	0.086083
	C199	C	0.406667	0.394221	0.897933
	C200	C	0.099186	0.593784	0.393024
	C201	C	0.911316	0.594198	0.592079
	C202	C	0.099309	0.396277	0.590825
	C203	C	0.911874	0.394496	0.392193
	C204	C	0.905634	0.589846	0.092153
	C205	C	0.104648	0.401041	0.090139
	C206	C	0.104940	0.589023	0.893204
	C207	C	0.906008	0.400344	0.892993
	C208	C	0.104384	0.895724	0.586831
	C209	C	0.105878	0.093507	0.399172
	C210	C	0.906438	0.094354	0.587198
	C211	C	0.906197	0.895057	0.397938
	C212	C	0.599163	0.094540	0.893034
	C213	C	0.412094	0.092614	0.092642
	C214	C	0.599373	0.894673	0.093635
	C215	C	0.411372	0.894532	0.893411
	Zn216	Zn	0.505557	-0.006030	0.742669
	Zn217	Zn	0.505858	-0.004937	0.244025
	Zn218	Zn	0.755238	0.495117	-0.007737
	Zn219	Zn	0.256083	0.494612	-0.008280
	Zn220	Zn	0.005737	0.744895	0.491606
	Zn221	Zn	0.005879	0.244263	0.492146
	Zn222	Zn	0.005201	0.494837	0.742219
	Zn223	Zn	0.005642	0.494909	0.241572
	Zn224	Zn	0.505561	0.744738	-0.007345
	Zn225	Zn	0.505673	0.244406	-0.006642
	Zn226	Zn	0.756121	-0.005307	0.492666
	Zn227	Zn	0.255687	-0.004764	0.493575
	N228	N	0.420301	0.956707	0.670696
	N229	N	0.591172	0.031943	0.670825
	N230	N	0.591080	0.957088	0.315523
	N231	N	0.420848	0.032822	0.315816
	N232	N	0.683336	0.410099	0.955177
	N233	N	0.684281	0.581199	0.029008
	N234	N	0.327878	0.580237	0.954898
	N235	N	0.326439	0.408287	0.028930
	N236	N	0.968180	0.672961	0.406557
	N237	N	0.042647	0.673419	0.577324
	N238	N	0.968487	0.316439	0.577230
	N239	N	0.043097	0.315505	0.405697
	N240	N	0.968102	0.409698	0.669828
	N241	N	0.042280	0.581438	0.671337
	N242	N	0.968197	0.580221	0.313783
	N243	N	0.042850	0.408094	0.312195
	N244	N	0.420992	0.672336	0.954613
	N245	N	0.590907	0.672793	0.030114
	N246	N	0.591002	0.316787	0.955161
	N247	N	0.419465	0.315795	0.029822
	N248	N	0.684645	0.957784	0.406877
	N249	N	0.685182	0.031492	0.579075
	N250	N	0.325998	0.958022	0.580024
	N251	N	0.327179	0.032504	0.407942
	N252	N	0.920403	0.457696	0.169717
	N253	N	0.091341	0.532383	0.170018
	N254	N	0.090981	0.458007	0.813248
	N255	N	0.920396	0.531842	0.814574
	N256	N	0.184629	0.908754	0.455840
	N257	N	0.183672	0.080307	0.531214
	N258	N	0.827515	0.080693	0.455862
	N259	N	0.826840	0.908165	0.529145
	N260	N	0.468028	0.172987	0.907040
	N261	N	0.543090	0.172444	0.078238
	N262	N	0.468143	0.815175	0.079813
	N263	N	0.543289	0.816873	0.908332
	N264	N	0.467907	0.909019	0.172770
	N265	N	0.543329	0.080088	0.171642
	N266	N	0.468052	0.079458	0.814413
	N267	N	0.542460	0.908256	0.814074
	N268	N	0.921129	0.172157	0.455059
	N269	N	0.092158	0.173914	0.529722
	N270	N	0.090717	0.817038	0.454791
	N271	N	0.920494	0.816449	0.529681
	N272	N	0.184531	0.458231	0.905254
	N273	N	0.184828	0.532042	0.077776
	N274	N	0.826264	0.458489	0.078208
	N275	N	0.827369	0.531803	0.906822
	O276	O	0.958172	1.019318	0.050260
	H277	H	0.958764	1.039074	0.060039
	H278	H	0.965304	1.013249	0.048430
	O279	O	0.468762	0.515628	0.501160
	H280	H	0.469378	0.514369	0.504016
	H281	H	0.465154	0.518083	0.510259
	O282	O	0.039024	-0.054617	0.052038
	H283	H	0.047221	-0.044209	0.052930
	H284	H	0.037894	-0.053603	0.057811
	O285	O	0.539488	0.429412	0.473511
	H286	H	0.541905	0.433626	0.470060
	H287	H	0.537254	0.413812	0.471225
	O288	O	-0.013728	0.060846	0.015596
	H289	H	-0.013234	0.055492	0.017125
	H290	H	-0.009754	0.061541	0.016436
	O291	O	0.050635	0.994836	-0.017480
	H292	H	0.055935	0.988081	-0.010019
	H293	H	0.057278	0.995008	-0.012659
	O294	O	0.133918	0.963078	-0.016721
	H295	H	0.130006	0.956626	-0.023693
	H296	H	0.140354	0.965771	-0.020983
	O297	O	0.539213	0.474686	0.508510
	H298	H	0.534854	0.469971	0.517254
	H299	H	0.538608	0.468263	0.514034
	O300	O	0.449494	0.501548	0.516979
	H301	H	0.450956	0.498804	0.509352
	H302	H	0.456787	0.497446	0.512089
	O303	O	0.995374	-0.039629	0.977902
	H304	H	0.993072	-0.050203	0.967965
	H305	H	0.988379	-0.045332	0.972257
	O306	O	0.014555	0.991386	0.958438
	H307	H	0.025307	0.997139	0.958374
	H308	H	0.009081	0.977835	0.955310
	O309	O	-0.024632	0.946726	0.902798
	H310	H	-0.021897	0.954170	0.899496
	H311	H	-0.019969	0.944698	0.891118
	O312	O	0.064188	0.081228	1.072533
	H313	H	0.066029	0.083314	1.078442
	H314	H	0.073712	0.087302	1.071956
	O315	O	0.457710	0.516788	0.385085
	H316	H	0.456675	0.519300	0.378333
	H317	H	0.451761	0.525662	0.375023
	O318	O	-0.047804	-0.006062	1.026223
	H319	H	-0.036696	-0.003412	1.019938
	H320	H	-0.054667	-0.002504	1.019371
	O321	O	0.037283	0.052451	1.092702
	H322	H	0.035107	0.030750	1.091792
	H323	H	0.028530	0.050926	1.097122
	O324	O	1.057070	-0.009954	0.915996
	H325	H	1.067556	-0.020565	0.917543
	H326	H	1.054359	-0.012102	0.906868
	O327	O	0.925156	0.980657	0.998952
	H328	H	0.914270	0.985910	1.001935
	H329	H	0.924649	0.991552	0.993049
	O330	O	0.069145	0.953522	0.914961
	H331	H	0.064411	0.951155	0.918368
	H332	H	0.068194	0.949075	0.918567
	O333	O	0.523844	0.552338	0.492183
	H334	H	0.527592	0.559756	0.492224
	H335	H	0.527926	0.558076	0.482360
	O336	O	0.486910	0.544528	0.462474
	H337	H	0.479932	0.547031	0.460955
	H338	H	0.493183	0.553475	0.468380
	O339	O	0.465395	0.487274	0.503042
	H340	H	0.474575	0.488246	0.502855
	H341	H	0.459719	0.478298	0.499644
	O342	O	0.505410	0.496690	0.429170
	H343	H	0.505958	0.498712	0.427115
	H344	H	0.502797	0.494275	0.430990
	O345	O	0.467446	0.515806	0.514068
	H346	H	0.470965	0.518275	0.509871
	H347	H	0.465739	0.516807	0.514259
