data_Molecule from HDF5

_cell_length_a		16.423509
_cell_length_b		16.218364
_cell_length_c		16.498791
_cell_angle_alpha	89.944560
_cell_angle_beta	89.928776
_cell_angle_gamma	90.417880
_symmetry_space_group_name_H-M	'P 1'
_symmetry_Int_Tables_number		1

loop_
	_symmetry_equiv_pos_as_xyz
	x,y,z

loop_
	_atom_site_label
	_atom_site_type_symbol
	_atom_site_fract_x
	_atom_site_fract_y
	_atom_site_fract_z
	H0	H	0.389887	0.827524	0.721596
	H1	H	0.605000	0.147576	0.720144
	H2	H	0.602076	0.826834	0.278652
	H3	H	0.396048	0.148155	0.281426
	H4	H	0.718370	0.380049	0.842258
	H5	H	0.716654	0.590767	0.159193
	H6	H	0.274049	0.593713	0.841401
	H7	H	0.274311	0.381877	0.158505
	H8	H	0.835868	0.702359	0.399977
	H9	H	0.155948	0.706862	0.603062
	H10	H	0.838880	0.263654	0.602220
	H11	H	0.159270	0.272338	0.397968
	H12	H	0.839261	0.374131	0.723635
	H13	H	0.153347	0.594439	0.723439
	H14	H	0.836901	0.589520	0.281422
	H15	H	0.154974	0.381808	0.277337
	H16	H	0.396581	0.705173	0.839366
	H17	H	0.599711	0.706037	0.159271
	H18	H	0.596847	0.269815	0.840001
	H19	H	0.393820	0.268361	0.159755
	H20	H	0.715830	0.826167	0.394791
	H21	H	0.719449	0.147641	0.603058
	H22	H	0.277550	0.825617	0.603488
	H23	H	0.280585	0.147591	0.395334
	H24	H	0.890151	0.324641	0.220080
	H25	H	0.098202	0.648395	0.217749
	H26	H	0.105793	0.328474	0.775150
	H27	H	0.886049	0.643091	0.775287
	H28	H	0.217490	0.881627	0.339957
	H29	H	0.224449	0.095095	0.655990
	H30	H	0.776927	0.094416	0.342580
	H31	H	0.769275	0.874935	0.654797
	H32	H	0.336680	0.206758	0.894780
	H33	H	0.656439	0.207189	0.099622
	H34	H	0.338203	0.766182	0.103303
	H35	H	0.657454	0.769109	0.896699
	H36	H	0.339434	0.879174	0.221759
	H37	H	0.655356	0.095997	0.219995
	H38	H	0.340883	0.098039	0.773022
	H39	H	0.654105	0.878359	0.774325
	H40	H	0.898258	0.204796	0.340331
	H41	H	0.106560	0.209802	0.657255
	H42	H	0.097091	0.768078	0.339240
	H43	H	0.889460	0.762325	0.657267
	H44	H	0.218422	0.327519	0.892867
	H45	H	0.215878	0.648589	0.104750
	H46	H	0.776468	0.324043	0.103651
	H47	H	0.777795	0.646821	0.895976
	H48	H	0.408006	0.101688	0.585458
	H49	H	0.576587	0.874974	0.589354
	H50	H	0.590196	0.103622	0.407849
	H51	H	0.412333	0.871647	0.407454
	H52	H	0.581597	0.398656	0.110876
	H53	H	0.585185	0.577879	0.886949
	H54	H	0.408275	0.573834	0.110528
	H55	H	0.411581	0.396471	0.888269
	H56	H	0.111898	0.570367	0.399030
	H57	H	0.883472	0.578164	0.583222
	H58	H	0.109247	0.397381	0.584487
	H59	H	0.880790	0.392656	0.403407
	H60	H	0.106677	0.407383	0.588342
	H61	H	0.886335	0.564951	0.588118
	H62	H	0.114561	0.586962	0.407054
	H63	H	0.883690	0.390583	0.414326
	H64	H	0.406532	0.578677	0.113873
	H65	H	0.591271	0.578665	0.884582
	H66	H	0.587929	0.393562	0.114948
	H67	H	0.400449	0.394553	0.883929
	H68	H	0.586958	0.103004	0.407406
	H69	H	0.585484	0.874767	0.580282
	H70	H	0.412735	0.101541	0.590308
	H71	H	0.408126	0.871642	0.413772
	H72	H	0.907651	0.601930	0.093996
	H73	H	0.087852	0.369772	0.091732
	H74	H	0.078620	0.600117	0.907826
	H75	H	0.906277	0.372791	0.918305
	H76	H	0.084680	0.893355	0.612881
	H77	H	0.086010	0.073898	0.389470
	H78	H	0.911712	0.071446	0.610360
	H79	H	0.899072	0.900420	0.385225
	H80	H	0.611802	0.086591	0.912075
	H81	H	0.380765	0.076817	0.095816
	H82	H	0.609077	0.902766	0.086546
	H83	H	0.385090	0.899523	0.910785
	H84	H	0.613156	0.900167	0.096903
	H85	H	0.382652	0.077276	0.086774
	H86	H	0.605215	0.069896	0.916257
	H87	H	0.384700	0.898897	0.909274
	H88	H	0.909431	0.072832	0.613105
	H89	H	0.089757	0.082719	0.384570
	H90	H	0.093778	0.898442	0.613493
	H91	H	0.914096	0.900488	0.390047
	H92	H	0.081249	0.597223	0.918458
	H93	H	0.080938	0.372996	0.092431
	H94	H	0.907693	0.600596	0.090499
	H95	H	0.904260	0.369212	0.908965
	H96	H	0.413974	0.099147	0.584343
	H97	H	0.587765	0.870239	0.592231
	H98	H	0.588394	0.102276	0.410216
	H99	H	0.405068	0.869634	0.406909
	H100	H	0.589824	0.402545	0.112998
	H101	H	0.589420	0.572692	0.888495
	H102	H	0.402471	0.574412	0.112308
	H103	H	0.403853	0.405209	0.889520
	H104	H	0.106801	0.573446	0.416741
	H105	H	0.879970	0.574306	0.596421
	H106	H	0.111758	0.399976	0.594610
	H107	H	0.884965	0.400932	0.409851
	H108	H	0.904491	0.602328	0.091770
	H109	H	0.084244	0.373151	0.085498
	H110	H	0.088473	0.602300	0.911736
	H111	H	0.913537	0.372707	0.911395
	H112	H	0.085392	0.902883	0.609580
	H113	H	0.096408	0.074435	0.385473
	H114	H	0.908812	0.069867	0.611194
	H115	H	0.907618	0.887188	0.384378
	H116	H	0.611303	0.073810	0.899784
	H117	H	0.384248	0.069670	0.091850
	H118	H	0.613103	0.891897	0.088718
	H119	H	0.384478	0.898030	0.910489
	C120	C	0.376794	-0.004316	0.620303
	C121	C	0.617991	0.978709	0.619984
	C122	C	0.619243	-0.003701	0.377424
	C123	C	0.378021	0.977727	0.378247
	C124	C	0.617819	0.365638	0.008247
	C125	C	0.619837	0.608749	0.991364
	C126	C	0.374532	0.608411	0.007592
	C127	C	0.373303	0.365647	0.991593
	C128	C	0.004979	0.607049	0.378332
	C129	C	0.987574	0.607311	0.621879
	C130	C	0.005843	0.365121	0.621886
	C131	C	0.988944	0.364709	0.378137
	C132	C	0.874463	0.494725	0.122665
	C133	C	0.116330	0.478673	0.121402
	C134	C	0.116380	0.494668	0.879622
	C135	C	0.875401	0.476936	0.879892
	C136	C	0.118415	0.865780	0.507128
	C137	C	0.123185	0.109765	0.490617
	C138	C	0.878533	0.105566	0.507351
	C139	C	0.873590	0.862947	0.490531
	C140	C	0.504746	0.109139	0.877238
	C141	C	0.488080	0.108277	0.121242
	C142	C	0.506461	0.865372	0.121960
	C143	C	0.489528	0.866726	0.878304
	C144	C	0.372422	0.875457	0.681368
	C145	C	0.622438	0.099325	0.680176
	C146	C	0.620628	0.875026	0.318332
	C147	C	0.377263	0.099472	0.320075
	C148	C	0.677587	0.363004	0.889451
	C149	C	0.678251	0.609990	0.110968
	C150	C	0.315108	0.611043	0.888293
	C151	C	0.314009	0.363237	0.110915
	C152	C	0.883910	0.663797	0.379959
	C153	C	0.107370	0.668036	0.622991
	C154	C	0.886833	0.302535	0.623038
	C155	C	0.110345	0.309462	0.378322
	C156	C	0.886755	0.358343	0.682666
	C157	C	0.106076	0.612048	0.682797
	C158	C	0.884515	0.607592	0.321035
	C159	C	0.108024	0.363792	0.317800
	C160	C	0.375993	0.666684	0.887465
	C161	C	0.619262	0.666837	0.111422
	C162	C	0.617035	0.307831	0.888192
	C163	C	0.373682	0.306958	0.111624
	C164	C	0.676953	0.874703	0.376323
	C165	C	0.679253	0.099325	0.621790
	C166	C	0.316723	0.874336	0.622455
	C167	C	0.319972	0.099438	0.377169
	C168	C	0.872116	0.373123	0.180937
	C169	C	0.117904	0.599732	0.179724
	C170	C	0.121355	0.375495	0.817305
	C171	C	0.870523	0.596215	0.817209
	C172	C	0.177375	0.863362	0.387466
	C173	C	0.184030	0.112727	0.608942
	C174	C	0.817885	0.110760	0.389292
	C175	C	0.810834	0.858198	0.608110
	C176	C	0.385032	0.168105	0.875722
	C177	C	0.608223	0.168181	0.120094
	C178	C	0.386297	0.805270	0.122813
	C179	C	0.609286	0.807704	0.877160
	C180	C	0.386961	0.861597	0.181862
	C181	C	0.607735	0.112509	0.179803
	C182	C	0.387080	0.113388	0.815221
	C183	C	0.607765	0.862595	0.816645
	C184	C	0.878439	0.165907	0.388476
	C185	C	0.125174	0.169909	0.609745
	C186	C	0.117527	0.806888	0.387183
	C187	C	0.870690	0.802020	0.609431
	C188	C	0.178021	0.375337	0.875646
	C189	C	0.176064	0.599958	0.122958
	C190	C	0.815170	0.372864	0.123111
	C191	C	0.816332	0.597888	0.877325
	C192	C	0.403652	0.079161	0.594261
	C193	C	0.591098	0.895024	0.594699
	C194	C	0.595510	0.080758	0.401578
	C195	C	0.401674	0.893111	0.402438
	C196	C	0.593302	0.390819	0.091389
	C197	C	0.595682	0.583937	0.908179
	C198	C	0.398661	0.583053	0.090522
	C199	C	0.398079	0.391260	0.908799
	C200	C	0.089130	0.583739	0.401055
	C201	C	0.904898	0.580358	0.596675
	C202	C	0.087821	0.393406	0.596680
	C203	C	0.905068	0.387893	0.402411
	C204	C	0.899320	0.579573	0.098758
	C205	C	0.091587	0.394030	0.096793
	C206	C	0.090204	0.578114	0.905453
	C207	C	0.900887	0.393344	0.905482
	C208	C	0.094663	0.890829	0.590228
	C209	C	0.098024	0.084409	0.407994
	C210	C	0.903007	0.078947	0.590114
	C211	C	0.899442	0.888853	0.408058
	C212	C	0.588093	0.084057	0.902334
	C213	C	0.404454	0.082133	0.098074
	C214	C	0.589966	0.890890	0.097608
	C215	C	0.406541	0.891720	0.903103
	Zn216	Zn	0.497157	-0.012552	0.748766
	Zn217	Zn	0.497941	-0.013289	0.249919
	Zn218	Zn	0.748121	0.485882	0.000541
	Zn219	Zn	0.244367	0.487667	0.000521
	Zn220	Zn	-0.003354	0.735820	0.499317
	Zn221	Zn	-0.000497	0.236540	0.499803
	Zn222	Zn	-0.004260	0.485757	0.751536
	Zn223	Zn	-0.004066	0.486022	0.249896
	Zn224	Zn	0.497386	0.737488	-0.000395
	Zn225	Zn	0.495496	0.236984	-0.000558
	Zn226	Zn	0.746723	-0.013141	0.498647
	Zn227	Zn	0.250284	-0.014473	0.498205
	N228	N	0.408959	0.952055	0.680274
	N229	N	0.584915	0.023150	0.679099
	N230	N	0.585578	0.951720	0.318633
	N231	N	0.412960	0.023038	0.320841
	N232	N	0.677886	0.398419	0.965044
	N233	N	0.678751	0.574549	0.035358
	N234	N	0.314176	0.575746	0.963937
	N235	N	0.313164	0.398512	0.035115
	N236	N	0.959687	0.663467	0.415267
	N237	N	0.032426	0.665606	0.586132
	N238	N	0.961711	0.306404	0.586118
	N239	N	0.035283	0.309705	0.415105
	N240	N	0.961905	0.396333	0.682408
	N241	N	0.030517	0.575290	0.682417
	N242	N	0.960762	0.573201	0.319850
	N243	N	0.031359	0.397402	0.317551
	N244	N	0.412136	0.665203	0.962699
	N245	N	0.583575	0.666251	0.036038
	N246	N	0.580527	0.309327	0.963237
	N247	N	0.409846	0.308299	0.036450
	N248	N	0.676362	0.951115	0.412167
	N249	N	0.676792	0.023327	0.585289
	N250	N	0.319040	0.950221	0.585519
	N251	N	0.320092	0.022606	0.412540
	N252	N	0.908158	0.449818	0.180884
	N253	N	0.081394	0.523296	0.178791
	N254	N	0.083855	0.450878	0.819577
	N255	N	0.906753	0.519882	0.818517
	N256	N	0.177999	0.899311	0.462917
	N257	N	0.182892	0.075917	0.533921
	N258	N	0.818040	0.073738	0.464230
	N259	N	0.812440	0.895387	0.533096
	N260	N	0.459345	0.165452	0.913928
	N261	N	0.532815	0.165617	0.084191
	N262	N	0.461492	0.807355	0.086209
	N263	N	0.534745	0.810064	0.914929
	N264	N	0.462764	0.898076	0.181487
	N265	N	0.532080	0.075744	0.180444
	N266	N	0.462650	0.077452	0.816109
	N267	N	0.532297	0.898642	0.817176
	N268	N	0.915681	0.162736	0.463106
	N269	N	0.088036	0.168234	0.535225
	N270	N	0.081609	0.808156	0.462541
	N271	N	0.909032	0.804945	0.535474
	N272	N	0.174952	0.450638	0.913713
	N273	N	0.175183	0.523418	0.087397
	N274	N	0.816332	0.449555	0.087680
	N275	N	0.819406	0.522831	0.915650
	O276	O	0.485176	0.357739	0.464002
	H277	H	0.493465	0.365222	0.454910
	H278	H	0.482972	0.348517	0.454778
	O279	O	0.524137	0.423588	0.690150
	H280	H	0.511816	0.421471	0.688779
	H281	H	0.534210	0.418104	0.692520
	O282	O	0.542715	0.607777	0.553332
	H283	H	0.548934	0.596474	0.541740
	H284	H	0.532156	0.593570	0.565974
	O285	O	1.189865	-0.034265	0.013887
	H286	H	1.193636	-0.021228	0.001924
	H287	H	1.199289	-0.046944	-0.009645
	O288	O	0.563562	0.463280	0.398324
	H289	H	0.577355	0.474514	0.407763
	H290	H	0.562995	0.476565	0.396030
	O291	O	0.530361	0.508547	0.491928
	H292	H	0.535711	0.514833	0.498714
	H293	H	0.519782	0.530279	0.490898
	O294	O	0.317882	0.352238	0.577142
	H295	H	0.298266	0.344333	0.581061
	H296	H	0.325300	0.350983	0.570165
	O297	O	0.876767	0.872173	1.205086
	H298	H	0.868377	0.855617	1.208463
	H299	H	0.899754	0.866981	1.203105
	O300	O	-0.373763	0.572773	-0.595163
	H301	H	-0.386869	0.567821	-0.589408
	H302	H	-0.359547	0.577787	-0.613061
	O303	O	0.595382	0.439468	0.543180
	H304	H	0.594664	0.435794	0.548985
	H305	H	0.584774	0.433347	0.537508
	O306	O	0.788676	-0.146507	-0.010785
	H307	H	0.814500	-0.147390	-0.020449
	H308	H	0.775013	-0.165733	-0.001275
	O309	O	0.328638	0.353078	0.619741
	H310	H	0.317310	0.350074	0.604238
	H311	H	0.340831	0.347409	0.610316
	O312	O	0.813778	1.172695	-0.007382
	H313	H	0.819851	1.164775	0.005757
	H314	H	0.806128	1.163000	0.003644
	O315	O	1.205180	1.189444	0.058410
	H316	H	1.210964	1.216673	0.061303
	H317	H	1.185931	1.201937	0.041094
	O318	O	0.618976	0.457696	0.538395
	H319	H	0.619627	0.458007	0.546218
	H320	H	0.627899	0.455357	0.525023
	O321	O	0.995239	-0.105343	1.000897
	H322	H	1.003705	-0.113551	1.005369
	H323	H	0.991956	-0.097234	1.008216
	O324	O	-0.090681	0.075585	1.191559
	H325	H	-0.099840	0.054540	1.200091
	H326	H	-0.096108	0.075903	1.171394
	O327	O	0.547037	0.525707	0.341359
	H328	H	0.561146	0.530773	0.339965
	H329	H	0.536667	0.511192	0.343931
	O330	O	0.450274	0.454073	0.617932
	H331	H	0.451687	0.454850	0.621988
	H332	H	0.455305	0.447655	0.632014
	O333	O	1.154671	0.996148	0.783395
	H334	H	1.155931	1.019947	0.781382
	H335	H	1.153331	0.995957	0.791254
	O336	O	0.523012	0.311684	0.400841
	H337	H	0.515840	0.301319	0.406365
	H338	H	0.507560	0.312583	0.390012
	O339	O	1.033297	0.178163	0.862664
	H340	H	0.996191	0.182826	0.856396
	H341	H	1.017242	0.186219	0.854249
	O342	O	-0.159149	0.972294	0.801189
	H343	H	-0.160085	0.952366	0.796576
	H344	H	-0.168717	0.963737	0.804401
	O345	O	0.098316	0.970740	0.930922
	H346	H	0.100449	0.989566	0.929610
	H347	H	0.108936	0.983527	0.918564
	O348	O	0.404250	0.556644	0.598592
	H349	H	0.403538	0.556897	0.596647
	H350	H	0.406310	0.562563	0.614490
	O351	O	0.143833	0.064252	0.114672
	H352	H	0.141952	0.094000	0.101009
	H353	H	0.160337	0.047421	0.109721
	O354	O	0.810361	0.793646	0.197451
	H355	H	0.819139	0.784390	0.172725
	H356	H	0.844518	0.792716	0.188534
	O357	O	-0.029455	0.874072	-0.200805
	H358	H	-0.026612	0.872789	-0.200632
	H359	H	-0.020095	0.882128	-0.197672
	O360	O	0.373775	0.510901	0.402253
	H361	H	0.377364	0.517327	0.407347
	H362	H	0.375353	0.523272	0.413309
	O363	O	0.661430	0.608812	0.532001
	H364	H	0.674111	0.614495	0.531887
	H365	H	0.658183	0.614414	0.532827
	O366	O	0.575266	0.638968	0.655988
	H367	H	0.568116	0.650662	0.648433
	H368	H	0.584395	0.631560	0.664881
	O369	O	-0.108176	1.020028	0.117681
	H370	H	-0.112185	1.014000	0.118702
	H371	H	-0.116080	0.996775	0.110104
	O372	O	0.383961	0.678673	0.495556
	H373	H	0.369167	0.692572	0.487918
	H374	H	0.390311	0.667089	0.469782
	O375	O	0.503094	0.545272	0.457228
	H376	H	0.511136	0.547621	0.458288
	H377	H	0.518650	0.549091	0.450120
	O378	O	0.303070	0.656255	0.259917
	H379	H	0.310359	0.665524	0.242182
	H380	H	0.305330	0.650048	0.255928
	O381	O	0.577439	0.405102	0.441726
	H382	H	0.572322	0.410654	0.439437
	H383	H	0.587305	0.407720	0.430464
	O384	O	0.486815	0.444523	0.456274
	H385	H	0.472445	0.442994	0.437746
	H386	H	0.488758	0.462902	0.458521
	O387	O	1.184368	0.797293	-0.141398
	H388	H	1.161548	0.811676	-0.144009
	H389	H	1.198803	0.816468	-0.146843
	O390	O	0.419884	0.532143	0.617029
	H391	H	0.421742	0.532892	0.615969
	H392	H	0.412376	0.510236	0.621436
	O393	O	1.138702	0.127609	1.170396
	H394	H	1.133074	0.127875	1.153100
	H395	H	1.115312	0.137719	1.171209
	O396	O	0.161764	0.819177	0.965991
	H397	H	0.159568	0.820702	0.947084
	H398	H	0.178872	0.795797	0.958832
	O399	O	-0.079331	1.185884	0.797295
	H400	H	-0.113725	1.189797	0.821737
	H401	H	-0.094377	1.185175	0.775711
	O402	O	0.911237	0.083679	1.027306
	H403	H	0.919081	0.085517	1.053146
	H404	H	0.927671	0.068428	1.021536
	O405	O	-0.192564	0.102553	-0.182767
	H406	H	-0.216034	0.087568	-0.187633
	H407	H	-0.192300	0.081685	-0.154321
	O408	O	1.497443	1.403740	1.391869
	H409	H	1.509064	1.410650	1.396771
	H410	H	1.488009	1.405039	1.374634
	O411	O	0.988853	1.177976	0.128689
	H412	H	0.966203	1.183073	0.131339
	H413	H	0.982801	1.156455	0.121715
	O414	O	-0.008851	0.066620	1.179031
	H415	H	-0.002523	0.082255	1.189603
	H416	H	-0.004649	0.047039	1.170201
	O417	O	-0.100226	-0.220920	0.967533
	H418	H	-0.091260	-0.223760	0.955622
	H419	H	-0.086383	-0.210066	0.954311
	O420	O	0.105188	0.905466	0.156955
	H421	H	0.112198	0.927159	0.155652
	H422	H	0.118062	0.915274	0.146993
	O423	O	0.867723	-0.118712	0.066131
	H424	H	0.880794	-0.136056	0.071622
	H425	H	0.880905	-0.114369	0.070106
	O426	O	0.210711	0.016559	0.880761
	H427	H	0.197935	0.024627	0.859116
	H428	H	0.207902	0.047224	0.889432
	O429	O	1.052917	0.778996	0.795917
	H430	H	1.060772	0.765772	0.761911
	H431	H	1.046766	0.801721	0.799666
