data_Molecule from HDF5

_cell_length_a		16.360457
_cell_length_b		16.436607
_cell_length_c		16.576843
_cell_angle_alpha	90.210231
_cell_angle_beta	89.870195
_cell_angle_gamma	89.949646
_symmetry_space_group_name_H-M	'P 1'
_symmetry_Int_Tables_number		1

loop_
	_symmetry_equiv_pos_as_xyz
	x,y,z

loop_
	_atom_site_label
	_atom_site_type_symbol
	_atom_site_fract_x
	_atom_site_fract_y
	_atom_site_fract_z
	H0	H	0.395527	0.847025	0.720726
	H1	H	0.607021	0.162826	0.721023
	H2	H	0.609097	0.848113	0.274870
	H3	H	0.392396	0.161609	0.276917
	H4	H	0.726060	0.395223	0.841537
	H5	H	0.724038	0.609390	0.155102
	H6	H	0.284458	0.604573	0.839964
	H7	H	0.280790	0.399963	0.155899
	H8	H	0.844471	0.723689	0.392906
	H9	H	0.161806	0.722838	0.601753
	H10	H	0.842158	0.284880	0.600250
	H11	H	0.162693	0.282891	0.393709
	H12	H	0.845157	0.393937	0.722032
	H13	H	0.161539	0.607807	0.718699
	H14	H	0.845193	0.607555	0.275781
	H15	H	0.162280	0.396301	0.276551
	H16	H	0.398034	0.724658	0.841409
	H17	H	0.607839	0.727080	0.154977
	H18	H	0.609878	0.278684	0.842025
	H19	H	0.394135	0.280790	0.154948
	H20	H	0.720242	0.844853	0.396118
	H21	H	0.723032	0.163045	0.604735
	H22	H	0.280892	0.846535	0.603653
	H23	H	0.281942	0.163439	0.397984
	H24	H	0.895527	0.344200	0.219613
	H25	H	0.107796	0.660856	0.219061
	H26	H	0.107644	0.344156	0.777362
	H27	H	0.897730	0.660836	0.776759
	H28	H	0.224852	0.898733	0.341600
	H29	H	0.217848	0.104410	0.657536
	H30	H	0.778787	0.108546	0.340775
	H31	H	0.783614	0.901996	0.656826
	H32	H	0.342195	0.220946	0.899456
	H33	H	0.661253	0.225232	0.104793
	H34	H	0.341780	0.786038	0.101734
	H35	H	0.661523	0.785647	0.895844
	H36	H	0.343281	0.898337	0.221005
	H37	H	0.660005	0.110900	0.221848
	H38	H	0.342622	0.108408	0.781490
	H39	H	0.659490	0.897689	0.776644
	H40	H	0.895300	0.225139	0.340074
	H41	H	0.105043	0.225169	0.655091
	H42	H	0.107590	0.782207	0.339859
	H43	H	0.897484	0.782389	0.654646
	H44	H	0.219893	0.342956	0.898905
	H45	H	0.219271	0.663086	0.099735
	H46	H	0.780638	0.344083	0.102526
	H47	H	0.784436	0.662485	0.896899
	H48	H	0.409516	0.119988	0.593403
	H49	H	0.593078	0.893024	0.584077
	H50	H	0.589658	0.115705	0.415719
	H51	H	0.413289	0.892001	0.413185
	H52	H	0.589608	0.414750	0.109014
	H53	H	0.596212	0.589392	0.885888
	H54	H	0.408245	0.594541	0.112113
	H55	H	0.411523	0.415956	0.886244
	H56	H	0.119878	0.595681	0.405473
	H57	H	0.890169	0.588741	0.586427
	H58	H	0.113516	0.416329	0.579640
	H59	H	0.888213	0.417557	0.401837
	H60	H	0.115512	0.419477	0.591804
	H61	H	0.888453	0.591573	0.589398
	H62	H	0.115108	0.591897	0.412625
	H63	H	0.887426	0.408336	0.408122
	H64	H	0.412938	0.593889	0.110521
	H65	H	0.586544	0.592110	0.888761
	H66	H	0.591169	0.415212	0.109842
	H67	H	0.417885	0.412048	0.887604
	H68	H	0.593845	0.119392	0.408567
	H69	H	0.594306	0.888367	0.593095
	H70	H	0.415922	0.117903	0.592511
	H71	H	0.413356	0.890540	0.406774
	H72	H	0.921394	0.610857	0.083286
	H73	H	0.086640	0.389560	0.090362
	H74	H	0.099421	0.618656	0.908464
	H75	H	0.918397	0.392625	0.913331
	H76	H	0.084555	0.912539	0.607944
	H77	H	0.094532	0.090227	0.385300
	H78	H	0.911269	0.092577	0.609361
	H79	H	0.914740	0.912853	0.386788
	H80	H	0.615138	0.092003	0.914157
	H81	H	0.388615	0.093956	0.087721
	H82	H	0.614958	0.915085	0.086238
	H83	H	0.390859	0.919259	0.915739
	H84	H	0.614047	0.918591	0.087320
	H85	H	0.390112	0.089759	0.085389
	H86	H	0.615538	0.086878	0.907465
	H87	H	0.386456	0.918934	0.901488
	H88	H	0.915371	0.093041	0.608598
	H89	H	0.089879	0.091901	0.386673
	H90	H	0.093074	0.907225	0.612677
	H91	H	0.910768	0.910966	0.384164
	H92	H	0.090890	0.618860	0.899772
	H93	H	0.091311	0.391192	0.081347
	H94	H	0.907078	0.615871	0.084238
	H95	H	0.908812	0.388251	0.909483
	H96	H	0.411298	0.117627	0.587364
	H97	H	0.585490	0.892876	0.591155
	H98	H	0.584895	0.116896	0.408114
	H99	H	0.418669	0.893716	0.409075
	H100	H	0.589708	0.416341	0.108826
	H101	H	0.593022	0.599778	0.883957
	H102	H	0.411518	0.598930	0.112124
	H103	H	0.411023	0.408967	0.884755
	H104	H	0.116696	0.586995	0.404698
	H105	H	0.889815	0.592706	0.585321
	H106	H	0.118517	0.407734	0.587697
	H107	H	0.892405	0.417133	0.412560
	H108	H	0.916463	0.616719	0.096106
	H109	H	0.096315	0.386656	0.089353
	H110	H	0.087742	0.614009	0.910526
	H111	H	0.917779	0.389213	0.902819
	H112	H	0.093757	0.918089	0.610225
	H113	H	0.093180	0.095450	0.384572
	H114	H	0.912742	0.096373	0.609701
	H115	H	0.911081	0.915847	0.385212
	H116	H	0.618740	0.094627	0.906983
	H117	H	0.389024	0.090088	0.090022
	H118	H	0.616081	0.916360	0.089973
	H119	H	0.384653	0.906870	0.909782
	C120	C	0.380018	0.013422	0.621785
	C121	C	0.623562	0.995877	0.621798
	C122	C	0.622477	0.013168	0.378134
	C123	C	0.381155	0.996255	0.378162
	C124	C	0.623488	0.381994	0.006115
	C125	C	0.624037	0.625964	0.990115
	C126	C	0.380102	0.626037	0.007160
	C127	C	0.380805	0.381128	0.990142
	C128	C	0.011960	0.623395	0.376076
	C129	C	0.994435	0.623054	0.618623
	C130	C	0.010789	0.382087	0.618429
	C131	C	0.994273	0.381318	0.375726
	C132	C	0.880975	0.510689	0.120452
	C133	C	0.123357	0.494168	0.118626
	C134	C	0.124439	0.511660	0.875620
	C135	C	0.882525	0.494430	0.877126
	C136	C	0.123990	0.880883	0.506410
	C137	C	0.122899	0.124181	0.489817
	C138	C	0.879994	0.125894	0.505432
	C139	C	0.880274	0.881625	0.489396
	C140	C	0.510778	0.123629	0.879259
	C141	C	0.493658	0.125018	0.120433
	C142	C	0.510159	0.883778	0.120400
	C143	C	0.492635	0.882823	0.877196
	C144	C	0.377221	0.894465	0.680937
	C145	C	0.625882	0.114920	0.681600
	C146	C	0.626536	0.894816	0.316278
	C147	C	0.376194	0.114616	0.317869
	C148	C	0.684779	0.378105	0.888345
	C149	C	0.684071	0.627780	0.108035
	C150	C	0.322794	0.625246	0.887712
	C151	C	0.320245	0.380376	0.108368
	C152	C	0.892141	0.683543	0.374112
	C153	C	0.113962	0.682962	0.620297
	C154	C	0.890634	0.323180	0.619605
	C155	C	0.114523	0.321982	0.374571
	C156	C	0.892108	0.377704	0.680198
	C157	C	0.113821	0.625855	0.678633
	C158	C	0.892432	0.625788	0.316165
	C159	C	0.114496	0.378620	0.316422
	C160	C	0.379238	0.684928	0.888565
	C161	C	0.626253	0.686452	0.108087
	C162	C	0.627148	0.319714	0.888831
	C163	C	0.377121	0.321340	0.107974
	C164	C	0.681890	0.893190	0.376387
	C165	C	0.683493	0.115183	0.623374
	C166	C	0.320335	0.894213	0.622660
	C167	C	0.320878	0.115373	0.378122
	C168	C	0.877707	0.391913	0.180003
	C169	C	0.125552	0.613437	0.178436
	C170	C	0.125809	0.391603	0.817668
	C171	C	0.879750	0.613724	0.817297
	C172	C	0.184599	0.879883	0.388458
	C173	C	0.179727	0.124427	0.609768
	C174	C	0.818861	0.127435	0.387824
	C175	C	0.822402	0.881897	0.608764
	C176	C	0.390305	0.182510	0.879622
	C177	C	0.613447	0.185184	0.122900
	C178	C	0.389951	0.824896	0.121188
	C179	C	0.613091	0.824342	0.876457
	C180	C	0.390888	0.880723	0.180763
	C181	C	0.612913	0.128465	0.181291
	C182	C	0.390320	0.126074	0.821190
	C183	C	0.612135	0.880347	0.817267
	C184	C	0.877213	0.185240	0.387385
	C185	C	0.123456	0.184182	0.608547
	C186	C	0.126360	0.821670	0.387676
	C187	C	0.879131	0.822436	0.607727
	C188	C	0.181743	0.391034	0.877525
	C189	C	0.180940	0.614788	0.118926
	C190	C	0.820391	0.391790	0.121667
	C191	C	0.823540	0.614590	0.877042
	C192	C	0.405113	0.096715	0.597913
	C193	C	0.598270	0.912930	0.596660
	C194	C	0.596934	0.095731	0.403525
	C195	C	0.407664	0.913462	0.402566
	C196	C	0.597638	0.408029	0.087857
	C197	C	0.599021	0.600892	0.907654
	C198	C	0.404035	0.602641	0.090076
	C199	C	0.406189	0.405328	0.907675
	C200	C	0.095392	0.598677	0.400536
	C201	C	0.911092	0.598081	0.594023
	C202	C	0.094178	0.407434	0.593381
	C203	C	0.911022	0.406925	0.400492
	C204	C	0.907366	0.593085	0.095142
	C205	C	0.098606	0.410836	0.094026
	C206	C	0.099875	0.595438	0.899339
	C207	C	0.907645	0.411652	0.901408
	C208	C	0.097949	0.905469	0.588927
	C209	C	0.099181	0.099555	0.407071
	C210	C	0.905819	0.101096	0.587885
	C211	C	0.904964	0.906094	0.406783
	C212	C	0.594489	0.098461	0.902692
	C213	C	0.410849	0.098814	0.095080
	C214	C	0.593454	0.909302	0.095291
	C215	C	0.409010	0.907707	0.901941
	Zn216	Zn	0.501244	0.004631	0.749880
	Zn217	Zn	0.501410	0.005108	0.249138
	Zn218	Zn	0.753229	0.502807	-0.002016
	Zn219	Zn	0.252008	0.503398	-0.001397
	Zn220	Zn	0.002276	0.751675	0.497538
	Zn221	Zn	0.002111	0.254064	0.496882
	Zn222	Zn	0.002637	0.502488	0.747060
	Zn223	Zn	0.003568	0.501691	0.247695
	Zn224	Zn	0.501911	0.755273	-0.000892
	Zn225	Zn	0.502608	0.252086	-0.000714
	Zn226	Zn	0.751012	0.004096	0.498808
	Zn227	Zn	0.253059	0.003769	0.499492
	N228	N	0.413508	0.969755	0.680696
	N229	N	0.589613	0.039600	0.680909
	N230	N	0.590342	0.970262	0.317087
	N231	N	0.413175	0.039585	0.318095
	N232	N	0.682929	0.416021	0.962139
	N233	N	0.682692	0.590759	0.033638
	N234	N	0.322963	0.589624	0.962491
	N235	N	0.322493	0.417126	0.033995
	N236	N	0.967234	0.681997	0.410881
	N237	N	0.038673	0.681467	0.583743
	N238	N	0.965529	0.325716	0.581779
	N239	N	0.038739	0.323290	0.410513
	N240	N	0.967821	0.413534	0.679623
	N241	N	0.038213	0.589442	0.677821
	N242	N	0.967940	0.589300	0.317332
	N243	N	0.038604	0.414635	0.316743
	N244	N	0.414122	0.685635	0.963897
	N245	N	0.589612	0.685391	0.033704
	N246	N	0.589679	0.321996	0.963185
	N247	N	0.414242	0.321920	0.033748
	N248	N	0.679587	0.967715	0.414015
	N249	N	0.682306	0.039835	0.586936
	N250	N	0.321932	0.969362	0.586769
	N251	N	0.323544	0.040418	0.414519
	N252	N	0.914658	0.466914	0.179286
	N253	N	0.090603	0.537412	0.178409
	N254	N	0.090951	0.467800	0.816464
	N255	N	0.915477	0.538191	0.817160
	N256	N	0.183299	0.915882	0.463414
	N257	N	0.179489	0.087888	0.535116
	N258	N	0.820587	0.091145	0.462524
	N259	N	0.822605	0.917789	0.534043
	N260	N	0.466200	0.181205	0.914794
	N261	N	0.538346	0.183249	0.086072
	N262	N	0.465312	0.826519	0.084517
	N263	N	0.537522	0.825224	0.912522
	N264	N	0.466813	0.916530	0.180414
	N265	N	0.537401	0.091861	0.179967
	N266	N	0.466219	0.090316	0.820679
	N267	N	0.535813	0.915451	0.817121
	N268	N	0.914235	0.184397	0.461676
	N269	N	0.089102	0.184364	0.532908
	N270	N	0.089654	0.822069	0.462183
	N271	N	0.914162	0.822010	0.532251
	N272	N	0.181056	0.466766	0.912739
	N273	N	0.179735	0.539592	0.082456
	N274	N	0.822093	0.466859	0.085456
	N275	N	0.825011	0.539547	0.913333
	O276	O	0.303056	0.517605	0.300737
	H277	H	0.310955	0.507115	0.291272
	H278	H	0.291430	0.497708	0.312000
	O279	O	1.106191	0.185025	0.807183
	H280	H	1.093846	0.180021	0.798437
	H281	H	1.085087	0.183715	0.832087
	O282	O	0.502556	0.422814	0.585938
	H283	H	0.488203	0.429174	0.589608
	H284	H	0.487919	0.417865	0.587367
	O285	O	0.611537	0.698783	0.313118
	H286	H	0.599506	0.680231	0.320606
	H287	H	0.600555	0.691876	0.334042
	O288	O	0.591604	0.734548	0.259851
	H289	H	0.606184	0.755334	0.248008
	H290	H	0.594684	0.720381	0.283436
	O291	O	0.404153	0.349172	0.440015
	H292	H	0.387694	0.363452	0.459155
	H293	H	0.413145	0.331002	0.434773
	O294	O	0.170330	0.069413	0.967340
	H295	H	0.149918	0.078404	0.962947
	H296	H	0.163283	0.063083	0.972976
	O297	O	0.563507	0.546644	0.307082
	H298	H	0.536575	0.548138	0.299135
	H299	H	0.564032	0.534603	0.310173
	O300	O	0.693159	0.517250	0.697797
	H301	H	0.710854	0.540989	0.707498
	H302	H	0.697103	0.529471	0.708168
	O303	O	0.672260	0.347200	0.306102
	H304	H	0.681212	0.336729	0.349539
	H305	H	0.683409	0.391186	0.297664
	O306	O	0.322913	0.539787	0.506221
	H307	H	0.338848	0.553795	0.502689
	H308	H	0.326438	0.535456	0.514065
	O309	O	0.706029	0.510120	0.490114
	H310	H	0.698656	0.507096	0.508647
	H311	H	0.709261	0.520449	0.518868
	O312	O	0.006576	0.835758	0.959682
	H313	H	0.011377	0.833494	0.977447
	H314	H	0.006242	0.833178	0.957116
	O315	O	0.470994	0.648463	0.560722
	H316	H	0.467965	0.635715	0.561242
	H317	H	0.452797	0.638101	0.542984
	O318	O	1.034234	0.209737	0.146264
	H319	H	1.041499	0.229183	0.176040
	H320	H	1.039735	0.195276	0.139196
	O321	O	0.193649	0.136893	0.071489
	H322	H	0.197712	0.133766	0.062523
	H323	H	0.173737	0.147790	0.076311
	O324	O	0.550281	0.304486	0.278414
	H325	H	0.581331	0.303326	0.277824
	H326	H	0.570541	0.278650	0.253450
	O327	O	0.498506	0.347741	0.597976
	H328	H	0.481108	0.359847	0.611654
	H329	H	0.491292	0.325961	0.597486
	O330	O	0.106546	0.919775	0.086643
	H331	H	0.115588	0.915313	0.084514
	H332	H	0.113178	0.919753	0.088170
	O333	O	0.293658	0.469739	0.673578
	H334	H	0.286543	0.449382	0.670925
	H335	H	0.286027	0.473884	0.686527
	O336	O	-0.022132	0.078619	0.099962
	H337	H	-0.014845	0.085124	0.102731
	H338	H	-0.030188	0.087465	0.114045
	O339	O	0.205143	0.792993	0.918700
	H340	H	0.228205	0.772464	0.920920
	H341	H	0.203990	0.800692	0.910967
	O342	O	0.148694	0.906735	1.095597
	H343	H	0.158048	0.902175	1.077898
	H344	H	0.137837	0.905592	1.097238
	O345	O	0.933751	0.976381	-0.146366
	H346	H	0.937468	0.965493	-0.142095
	H347	H	0.934951	0.980214	-0.144132
	O348	O	0.290744	0.719917	0.421746
	H349	H	0.286467	0.728821	0.410759
	H350	H	0.288132	0.712779	0.396236
	O351	O	0.012735	1.142051	0.934501
	H352	H	0.008706	1.144610	0.961946
	H353	H	-0.003380	1.124681	0.930621
	O354	O	-0.019088	0.800997	0.201295
	H355	H	-0.035024	0.804736	0.205568
	H356	H	0.001342	0.786750	0.205270
	O357	O	-0.069747	-0.040393	0.943154
	H358	H	-0.075154	-0.044861	0.959354
	H359	H	-0.083537	-0.039657	0.957181
	O360	O	0.540827	0.719909	0.524857
	H361	H	0.536496	0.710743	0.527126
	H362	H	0.541338	0.721889	0.538701
	O363	O	0.190554	-0.013738	0.797992
	H364	H	0.197597	-0.020661	0.796168
	H365	H	0.196322	-0.019597	0.792248
	O366	O	0.560256	0.525119	0.403438
	H367	H	0.563566	0.496111	0.411595
	H368	H	0.567715	0.514855	0.392287
	O369	O	0.485695	0.393291	0.711839
	H370	H	0.503110	0.386646	0.706783
	H371	H	0.512365	0.404410	0.721684
	O372	O	1.075309	0.063194	0.931290
	H373	H	1.074591	0.079065	0.932285
	H374	H	1.068631	0.056096	0.929434
	O375	O	0.528485	0.313384	0.513777
	H376	H	0.517210	0.312671	0.496675
	H377	H	0.520228	0.316767	0.512128
	O378	O	0.849308	0.773641	0.840410
	H379	H	0.861034	0.783796	0.858112
	H380	H	0.837482	0.786710	0.854597
	O381	O	0.707138	0.295599	0.469474
	H382	H	0.708757	0.294654	0.489454
	H383	H	0.719989	0.284673	0.484961
	O384	O	0.712793	0.488040	0.303114
	H385	H	0.737069	0.487311	0.276101
	H386	H	0.694699	0.512546	0.315905
	O387	O	-0.098864	-0.139685	1.155018
	H388	H	-0.115908	-0.161616	1.181659
	H389	H	-0.091897	-0.120931	1.157499
	O390	O	0.193002	0.092365	0.192709
	H391	H	0.197137	0.102672	0.182671
	H392	H	0.209882	0.093081	0.199398
	O393	O	0.833550	1.083449	0.802947
	H394	H	0.817837	1.063128	0.789033
	H395	H	0.855980	1.074689	0.810948
	O396	O	1.124662	-0.143623	-0.170550
	H397	H	1.118478	-0.143826	-0.154551
	H398	H	1.123869	-0.139409	-0.187455
	O399	O	0.850404	0.138490	0.801625
	H400	H	0.857897	0.112077	0.819589
	H401	H	0.845423	0.140436	0.797701
	O402	O	0.925512	0.839089	0.817246
	H403	H	0.931692	0.838586	0.818647
	H404	H	0.917466	0.832299	0.844296
	O405	O	0.798268	0.795025	0.030958
	H406	H	0.795459	0.794224	0.050422
	H407	H	0.786325	0.780197	0.056735
	O408	O	0.864373	0.043405	-0.047749
	H409	H	0.860965	0.036298	-0.049930
	H410	H	0.873993	0.037279	-0.038868
	O411	O	0.796211	0.993871	0.181576
	H412	H	0.786977	0.984960	0.196633
	H413	H	0.799036	0.991948	0.163016
	O414	O	0.500138	0.708459	0.677206
	H415	H	0.492611	0.718261	0.684518
	H416	H	0.486020	0.711372	0.658079
	O417	O	0.458629	0.568115	0.542291
	H418	H	0.442629	0.556340	0.521996
	H419	H	0.484200	0.564640	0.553655
	O420	O	-0.110140	0.109464	0.121896
	H421	H	-0.106266	0.108751	0.120916
	H422	H	-0.106210	0.125808	0.129072
	O423	O	0.692712	0.652472	0.691302
	H424	H	0.711571	0.672430	0.686011
	H425	H	0.652417	0.669797	0.697678
	O426	O	0.639650	0.445571	0.628619
	H427	H	0.657734	0.443402	0.636385
	H428	H	0.626214	0.468173	0.647918
	O429	O	0.318042	0.672668	0.356220
	H430	H	0.351101	0.667077	0.338390
	H431	H	0.305782	0.641991	0.358160
	O432	O	0.453163	0.463800	0.372722
	H433	H	0.466567	0.454889	0.382170
	H434	H	0.445984	0.459451	0.379474
	O435	O	0.384181	0.574495	0.633915
	H436	H	0.380955	0.579607	0.625760
	H437	H	0.391203	0.577579	0.628244
	O438	O	-0.094580	0.089671	0.197572
	H439	H	-0.104697	0.084870	0.209582
	H440	H	-0.085298	0.089581	0.199599
	O441	O	0.809586	0.207174	-0.027071
	H442	H	0.804743	0.199172	-0.042319
	H443	H	0.801960	0.223472	-0.030711
	O444	O	0.110454	0.980633	1.083352
	H445	H	0.112146	0.959799	1.063968
	H446	H	0.111590	0.965762	1.100730
	O447	O	0.303550	0.322027	0.698445
	H448	H	0.330634	0.331498	0.706777
	H449	H	0.291338	0.301201	0.719501
	O450	O	0.717739	0.718013	0.527387
	H451	H	0.724362	0.721002	0.539992
	H452	H	0.737924	0.729014	0.532657
	O453	O	0.293139	0.301284	0.550865
	H454	H	0.269901	0.279150	0.567636
	H455	H	0.300047	0.310212	0.582912
