data_Molecule from HDF5

_cell_length_a		16.591004
_cell_length_b		16.593096
_cell_length_c		16.633423
_cell_angle_alpha	90.009767
_cell_angle_beta	89.964930
_cell_angle_gamma	89.952768
_symmetry_space_group_name_H-M	'P 1'
_symmetry_Int_Tables_number		1

loop_
	_symmetry_equiv_pos_as_xyz
	x,y,z

loop_
	_atom_site_label
	_atom_site_type_symbol
	_atom_site_fract_x
	_atom_site_fract_y
	_atom_site_fract_z
	H0	H	0.398743	0.850661	0.722293
	H1	H	0.610102	0.160748	0.724571
	H2	H	0.608559	0.849585	0.280120
	H3	H	0.399368	0.163726	0.282556
	H4	H	0.726491	0.399386	0.848280
	H5	H	0.723160	0.611952	0.159231
	H6	H	0.282763	0.610359	0.845865
	H7	H	0.280894	0.401866	0.157224
	H8	H	0.845800	0.729152	0.397621
	H9	H	0.157067	0.727919	0.608538
	H10	H	0.846267	0.285749	0.605656
	H11	H	0.154453	0.280533	0.391860
	H12	H	0.846075	0.400270	0.723159
	H13	H	0.157360	0.610653	0.723754
	H14	H	0.845587	0.613610	0.280944
	H15	H	0.155589	0.399304	0.278141
	H16	H	0.399019	0.726179	0.845740
	H17	H	0.605412	0.727226	0.159626
	H18	H	0.614271	0.281186	0.850209
	H19	H	0.397977	0.286172	0.157132
	H20	H	0.723719	0.849102	0.396907
	H21	H	0.723585	0.161852	0.605815
	H22	H	0.282835	0.850154	0.606302
	H23	H	0.281801	0.161806	0.397374
	H24	H	0.890411	0.355164	0.229116
	H25	H	0.109102	0.661761	0.226664
	H26	H	0.106475	0.350500	0.782663
	H27	H	0.898653	0.662993	0.782348
	H28	H	0.225386	0.898905	0.347491
	H29	H	0.226422	0.112645	0.656249
	H30	H	0.781111	0.112006	0.347134
	H31	H	0.778261	0.898310	0.656121
	H32	H	0.349453	0.231344	0.892967
	H33	H	0.657405	0.229715	0.107623
	H34	H	0.344936	0.787682	0.104951
	H35	H	0.660050	0.788954	0.900760
	H36	H	0.346825	0.901771	0.223668
	H37	H	0.658948	0.111098	0.221633
	H38	H	0.348489	0.114227	0.778556
	H39	H	0.659812	0.904650	0.783696
	H40	H	0.895650	0.229337	0.348545
	H41	H	0.113238	0.231864	0.655242
	H42	H	0.107808	0.784105	0.347047
	H43	H	0.895839	0.783970	0.657474
	H44	H	0.223798	0.351100	0.898080
	H45	H	0.224498	0.662212	0.109641
	H46	H	0.776565	0.354041	0.110873
	H47	H	0.781601	0.663439	0.897750
	H48	H	0.417104	0.117523	0.590090
	H49	H	0.590782	0.893622	0.594513
	H50	H	0.590563	0.116515	0.413769
	H51	H	0.414707	0.892720	0.407660
	H52	H	0.586396	0.420067	0.111957
	H53	H	0.591865	0.603322	0.888859
	H54	H	0.414695	0.593666	0.113194
	H55	H	0.413206	0.419613	0.891013
	H56	H	0.113069	0.596101	0.414765
	H57	H	0.889200	0.601219	0.585582
	H58	H	0.111386	0.417146	0.583907
	H59	H	0.893152	0.431113	0.409897
	H60	H	0.112506	0.425373	0.594996
	H61	H	0.892816	0.587120	0.590971
	H62	H	0.111836	0.593602	0.416108
	H63	H	0.884755	0.409528	0.409592
	H64	H	0.413738	0.601303	0.115759
	H65	H	0.598409	0.594898	0.890044
	H66	H	0.589335	0.419929	0.112460
	H67	H	0.414389	0.417861	0.889998
	H68	H	0.595403	0.118525	0.412559
	H69	H	0.589214	0.895819	0.589193
	H70	H	0.416907	0.116775	0.587253
	H71	H	0.417643	0.895732	0.413781
	H72	H	0.911250	0.618638	0.087881
	H73	H	0.091888	0.397655	0.085426
	H74	H	0.089073	0.618908	0.910225
	H75	H	0.913195	0.393184	0.907342
	H76	H	0.092767	0.916268	0.614202
	H77	H	0.093744	0.095122	0.390373
	H78	H	0.910822	0.090455	0.613356
	H79	H	0.912598	0.910767	0.388146
	H80	H	0.614074	0.094225	0.912417
	H81	H	0.390382	0.090993	0.096316
	H82	H	0.614016	0.920114	0.093394
	H83	H	0.387107	0.913056	0.907302
	H84	H	0.615930	0.914675	0.093164
	H85	H	0.388918	0.102230	0.092787
	H86	H	0.614550	0.095957	0.915013
	H87	H	0.391096	0.915403	0.917862
	H88	H	0.918369	0.093129	0.611712
	H89	H	0.089793	0.087141	0.393957
	H90	H	0.092510	0.917286	0.614207
	H91	H	0.909621	0.922590	0.391322
	H92	H	0.090187	0.617937	0.915931
	H93	H	0.092407	0.394270	0.094714
	H94	H	0.916417	0.618968	0.093380
	H95	H	0.918083	0.397474	0.916967
	H96	H	0.414558	0.117434	0.588457
	H97	H	0.594723	0.893377	0.590454
	H98	H	0.591241	0.117901	0.408518
	H99	H	0.410926	0.893796	0.414220
	H100	H	0.587721	0.422805	0.111240
	H101	H	0.588111	0.594074	0.893443
	H102	H	0.407721	0.596653	0.115824
	H103	H	0.411793	0.417932	0.889680
	H104	H	0.112302	0.593703	0.413048
	H105	H	0.885845	0.597567	0.600447
	H106	H	0.117826	0.412251	0.595105
	H107	H	0.894709	0.417873	0.428330
	H108	H	0.918476	0.616221	0.087218
	H109	H	0.083538	0.398115	0.091522
	H110	H	0.094640	0.620483	0.912455
	H111	H	0.907239	0.393833	0.917142
	H112	H	0.091816	0.916804	0.614481
	H113	H	0.084531	0.095256	0.392618
	H114	H	0.913051	0.098309	0.615339
	H115	H	0.921375	0.917995	0.393974
	H116	H	0.612894	0.093378	0.915171
	H117	H	0.393146	0.094274	0.084804
	H118	H	0.613685	0.917022	0.088560
	H119	H	0.391386	0.923661	0.909185
	C120	C	0.382839	0.014615	0.622070
	C121	C	0.624467	0.997130	0.623089
	C122	C	0.624269	0.014070	0.379813
	C123	C	0.382231	0.997654	0.380376
	C124	C	0.623118	0.386657	0.010634
	C125	C	0.623876	0.628737	0.994410
	C126	C	0.380729	0.628591	0.011278
	C127	C	0.381379	0.386020	0.993217
	C128	C	0.009553	0.627492	0.382010
	C129	C	0.992627	0.627601	0.624335
	C130	C	0.010762	0.385303	0.623542
	C131	C	0.992804	0.385641	0.381376
	C132	C	0.880838	0.516068	0.123347
	C133	C	0.122724	0.498899	0.123996
	C134	C	0.123636	0.515686	0.881171
	C135	C	0.880587	0.498070	0.881357
	C136	C	0.124577	0.884162	0.511315
	C137	C	0.123720	0.127064	0.493883
	C138	C	0.881188	0.126799	0.511129
	C139	C	0.881275	0.884365	0.493737
	C140	C	0.511834	0.128408	0.880259
	C141	C	0.493925	0.128264	0.123343
	C142	C	0.511170	0.885136	0.123488
	C143	C	0.493993	0.885791	0.880685
	C144	C	0.380503	0.897235	0.682210
	C145	C	0.627727	0.114231	0.683732
	C146	C	0.626644	0.896499	0.319932
	C147	C	0.380509	0.115962	0.321831
	C148	C	0.686024	0.382011	0.895031
	C149	C	0.682961	0.630527	0.112398
	C150	C	0.322008	0.629450	0.893204
	C151	C	0.321291	0.383445	0.110623
	C152	C	0.892459	0.688558	0.379306
	C153	C	0.110272	0.687465	0.626434
	C154	C	0.893305	0.325316	0.624879
	C155	C	0.108652	0.322321	0.375262
	C156	C	0.893138	0.382499	0.683087
	C157	C	0.110419	0.629573	0.683975
	C158	C	0.892529	0.631062	0.321267
	C159	C	0.108943	0.381329	0.318950
	C160	C	0.379702	0.687163	0.893062
	C161	C	0.624540	0.687879	0.112400
	C162	C	0.629977	0.323035	0.895927
	C163	C	0.379330	0.325853	0.110273
	C164	C	0.684052	0.896299	0.377918
	C165	C	0.684258	0.114719	0.624782
	C166	C	0.323023	0.897155	0.624394
	C167	C	0.322268	0.115346	0.379076
	C168	C	0.874782	0.400495	0.186583
	C169	C	0.126331	0.615512	0.185583
	C170	C	0.125674	0.397586	0.821994
	C171	C	0.879296	0.615813	0.821651
	C172	C	0.184940	0.880965	0.394067
	C173	C	0.186085	0.131156	0.609547
	C174	C	0.820980	0.130087	0.394221
	C175	C	0.819361	0.880799	0.609942
	C176	C	0.395604	0.190095	0.876064
	C177	C	0.610960	0.188646	0.125578
	C178	C	0.392526	0.826631	0.124556
	C179	C	0.612580	0.827799	0.880968
	C180	C	0.393405	0.883225	0.183465
	C181	C	0.611687	0.130032	0.182498
	C182	C	0.395347	0.132137	0.818742
	C183	C	0.612644	0.885256	0.822813
	C184	C	0.878114	0.188323	0.394730
	C185	C	0.129503	0.190206	0.609210
	C186	C	0.126474	0.823927	0.394071
	C187	C	0.877926	0.824010	0.610776
	C188	C	0.183671	0.398052	0.879551
	C189	C	0.183736	0.615777	0.127282
	C190	C	0.817937	0.400112	0.128207
	C191	C	0.821493	0.616253	0.879309
	C192	C	0.408775	0.096043	0.595954
	C193	C	0.598780	0.915577	0.598252
	C194	C	0.599632	0.096173	0.404546
	C195	C	0.407254	0.915519	0.404805
	C196	C	0.595726	0.413454	0.091228
	C197	C	0.599653	0.604443	0.912304
	C198	C	0.405092	0.604269	0.093450
	C199	C	0.406146	0.411361	0.911486
	C200	C	0.091293	0.601815	0.407433
	C201	C	0.910666	0.602482	0.599478
	C202	C	0.092719	0.411039	0.598266
	C203	C	0.911980	0.412026	0.408314
	C204	C	0.907797	0.596819	0.096841
	C205	C	0.096683	0.417804	0.098029
	C206	C	0.098315	0.597722	0.905934
	C207	C	0.905549	0.416178	0.906733
	C208	C	0.099611	0.909521	0.592940
	C209	C	0.096799	0.100183	0.413321
	C210	C	0.906749	0.101177	0.592322
	C211	C	0.907199	0.909858	0.412237
	C212	C	0.592853	0.102120	0.906667
	C213	C	0.411907	0.102988	0.098482
	C214	C	0.593082	0.909909	0.098652
	C215	C	0.411354	0.910297	0.904482
	Zn216	Zn	0.502762	0.006822	0.751724
	Zn217	Zn	0.503172	0.006452	0.251464
	Zn218	Zn	0.752077	0.507266	0.002919
	Zn219	Zn	0.252117	0.507360	0.002780
	Zn220	Zn	0.001914	0.756297	0.502870
	Zn221	Zn	0.002607	0.256395	0.502836
	Zn222	Zn	0.002018	0.505739	0.752635
	Zn223	Zn	0.001120	0.507044	0.252469
	Zn224	Zn	0.502011	0.756984	0.002017
	Zn225	Zn	0.502730	0.256911	0.001391
	Zn226	Zn	0.752562	0.005234	0.501463
	Zn227	Zn	0.253074	0.005830	0.501723
	N228	N	0.416901	0.971518	0.681003
	N229	N	0.591327	0.040090	0.683077
	N230	N	0.590277	0.970710	0.320919
	N231	N	0.416764	0.041557	0.322223
	N232	N	0.681873	0.421101	0.967526
	N233	N	0.682969	0.594857	0.037959
	N234	N	0.322084	0.594206	0.967932
	N235	N	0.321966	0.419875	0.036612
	N236	N	0.966259	0.686600	0.416300
	N237	N	0.036140	0.686400	0.589964
	N238	N	0.967647	0.326771	0.588655
	N239	N	0.035341	0.324652	0.413430
	N240	N	0.967456	0.418913	0.682514
	N241	N	0.036078	0.593186	0.683076
	N242	N	0.966573	0.593844	0.322839
	N243	N	0.035978	0.419974	0.322533
	N244	N	0.415364	0.686975	0.967526
	N245	N	0.588642	0.687111	0.037892
	N246	N	0.591024	0.326061	0.968667
	N247	N	0.415887	0.327289	0.036240
	N248	N	0.682731	0.970576	0.414509
	N249	N	0.682359	0.040862	0.587772
	N250	N	0.324102	0.971221	0.587719
	N251	N	0.322929	0.040645	0.414636
	N252	N	0.913108	0.473665	0.183727
	N253	N	0.089009	0.541703	0.183798
	N254	N	0.088997	0.471857	0.822735
	N255	N	0.915156	0.541211	0.822624
	N256	N	0.184239	0.917567	0.468128
	N257	N	0.182536	0.092455	0.536798
	N258	N	0.822764	0.092619	0.467655
	N259	N	0.821415	0.917770	0.536072
	N260	N	0.469058	0.187752	0.913763
	N261	N	0.536631	0.187673	0.089484
	N262	N	0.466822	0.827426	0.088176
	N263	N	0.537623	0.827655	0.915906
	N264	N	0.468107	0.918682	0.183088
	N265	N	0.537635	0.093214	0.181361
	N266	N	0.468807	0.094302	0.821233
	N267	N	0.537634	0.920281	0.822285
	N268	N	0.915117	0.186570	0.468395
	N269	N	0.091202	0.187851	0.536015
	N270	N	0.089784	0.825674	0.467986
	N271	N	0.915734	0.826266	0.537427
	N272	N	0.182367	0.472421	0.915754
	N273	N	0.181659	0.542275	0.089688
	N274	N	0.821693	0.472967	0.089382
	N275	N	0.821918	0.541825	0.915556
	O276	O	-0.185091	1.014213	-0.064296
	H277	H	-0.184025	1.015263	-0.049585
	H278	H	-0.177270	0.996441	-0.071627
	O279	O	0.226620	0.226719	0.184422
	H280	H	0.212629	0.235218	0.177632
	H281	H	0.223385	0.200825	0.166232
	O282	O	1.095552	0.186361	0.994857
	H283	H	1.095860	0.189524	0.992772
	H284	H	1.084579	0.192513	0.993660
	O285	O	0.503704	0.537833	0.341317
	H286	H	0.514569	0.523828	0.331825
	H287	H	0.492995	0.530480	0.338759
	O288	O	0.350627	0.357722	0.570141
	H289	H	0.338663	0.343935	0.578531
	H290	H	0.341657	0.351465	0.582875
	O291	O	0.329541	0.318873	0.326295
	H292	H	0.321901	0.329853	0.352743
	H293	H	0.312621	0.301425	0.312073
	O294	O	0.813896	-0.195187	1.202557
	H295	H	0.818848	-0.178088	1.218435
	H296	H	0.833410	-0.193409	1.215964
	O297	O	0.471366	0.717497	0.290233
	H298	H	0.469422	0.713296	0.284155
	H299	H	0.486489	0.723383	0.277170
	O300	O	-0.212411	-0.213073	0.788183
	H301	H	-0.203661	-0.193674	0.804831
	H302	H	-0.187470	-0.197646	0.794222
	O303	O	0.673908	0.717439	0.710284
	H304	H	0.709050	0.740220	0.737392
	H305	H	0.684880	0.684122	0.710276
	O306	O	0.545028	0.469192	0.735527
	H307	H	0.561438	0.456887	0.736025
	H308	H	0.530105	0.443868	0.733765
	O309	O	0.657306	0.311555	0.655811
	H310	H	0.637140	0.315358	0.647613
	H311	H	0.650323	0.302211	0.657300
	O312	O	0.520537	0.704130	0.727714
	H313	H	0.569272	0.696417	0.721613
	H314	H	0.522298	0.729680	0.759420
	O315	O	1.121172	0.790737	1.109845
	H316	H	1.120399	0.787849	1.110820
	H317	H	1.133155	0.782812	1.107103
	O318	O	0.339396	0.522876	0.282055
	H319	H	0.323710	0.521288	0.288565
	H320	H	0.326437	0.524805	0.273957
	O321	O	0.024957	1.033970	0.897294
	H322	H	0.021331	1.035939	0.900829
	H323	H	0.029997	1.032501	0.888675
	O324	O	0.978835	0.794213	0.217930
	H325	H	0.994008	0.791244	0.223344
	H326	H	0.977607	0.787524	0.218887
	O327	O	0.164440	-0.034073	1.060986
	H328	H	0.163083	-0.053450	1.044940
	H329	H	0.172502	-0.046853	1.078603
	O330	O	0.294861	0.429402	0.428378
	H331	H	0.289423	0.428778	0.419295
	H332	H	0.296964	0.438018	0.439527
	O333	O	0.493178	0.297505	0.633787
	H334	H	0.467788	0.289957	0.640288
	H335	H	0.491217	0.292860	0.624582
	O336	O	0.386388	0.427324	0.430771
	H337	H	0.378461	0.410795	0.436896
	H338	H	0.398348	0.425014	0.429635
	O339	O	0.947643	-0.217197	0.947112
	H340	H	0.932427	-0.223897	0.948432
	H341	H	0.937375	-0.211094	0.960095
	O342	O	-0.028543	0.232324	0.021274
	H343	H	-0.010464	0.225745	0.037617
	H344	H	-0.033827	0.234726	0.030751
	O345	O	0.126329	0.977346	1.037729
	H346	H	0.132066	0.969585	1.030830
	H347	H	0.129860	0.959479	1.041005
	O348	O	0.629298	0.368630	0.535892
	H349	H	0.630051	0.374688	0.533564
	H350	H	0.640940	0.368394	0.526334
	O351	O	0.581886	0.718276	0.427788
	H352	H	0.585837	0.712899	0.442169
	H353	H	0.572288	0.716116	0.433236
	O354	O	-0.023874	0.225260	0.781503
	H355	H	-0.040784	0.232554	0.779536
	H356	H	-0.022387	0.237769	0.768861
	O357	O	0.284533	0.720811	0.482526
	H358	H	0.296167	0.736342	0.480812
	H359	H	0.276074	0.736441	0.472376
	O360	O	-0.042212	0.074884	0.991152
	H361	H	-0.033498	0.076874	0.985604
	H362	H	-0.049277	0.070737	0.989704
	O363	O	0.108153	-0.001523	0.140291
	H364	H	0.114713	0.000222	0.142343
	H365	H	0.105273	0.016950	0.124961
	O366	O	0.324119	0.546479	0.501053
	H367	H	0.323663	0.561314	0.486996
	H368	H	0.326229	0.551557	0.481357
	O369	O	0.813611	0.191207	0.185176
	H370	H	0.810257	0.192830	0.191069
	H371	H	0.835562	0.190334	0.163390
	O372	O	1.209546	0.795846	-0.206494
	H373	H	1.240779	0.764653	-0.240925
	H374	H	1.187532	0.819717	-0.212722
	O375	O	1.042874	-0.014122	0.011230
	H376	H	1.039610	-0.014129	0.008949
	H377	H	1.047425	-0.022577	0.013141
	O378	O	0.694080	0.478357	0.538984
	H379	H	0.686161	0.481586	0.545399
	H380	H	0.697781	0.475396	0.537452
	O381	O	0.524816	0.588551	0.679103
	H382	H	0.551324	0.598291	0.690057
	H383	H	0.538103	0.593352	0.678698
	O384	O	0.783745	-0.008805	0.990910
	H385	H	0.786660	-0.007885	1.000873
	H386	H	0.781994	-0.005711	1.013157
	O387	O	1.220255	0.783378	-0.027611
	H388	H	1.225547	0.774111	-0.050277
	H389	H	1.236717	0.768664	-0.053196
	O390	O	0.540529	0.293220	0.291132
	H391	H	0.553372	0.282320	0.276627
	H392	H	0.544658	0.291550	0.279609
	O393	O	0.560366	0.474300	0.565280
	H394	H	0.560955	0.466637	0.567867
	H395	H	0.571261	0.475318	0.560917
	O396	O	-0.203402	0.999237	0.789385
	H397	H	-0.221254	1.001475	0.794133
	H398	H	-0.195510	0.992386	0.780911
	O399	O	0.036299	-0.204297	0.791413
	H400	H	0.037314	-0.218562	0.778151
	H401	H	0.038252	-0.205428	0.803889
	O402	O	0.293881	0.471577	0.715044
	H403	H	0.290608	0.494774	0.711752
	H404	H	0.285305	0.490011	0.719426
	O405	O	0.983939	-0.010832	0.771699
	H406	H	1.009041	-0.023006	0.767592
	H407	H	1.003632	-0.005260	0.774888
	O408	O	-0.028407	-0.026763	0.169560
	H409	H	-0.024847	-0.037399	0.155700
	H410	H	-0.025624	-0.025837	0.175891
	O411	O	0.613138	0.590117	0.487776
	H412	H	0.618802	0.594441	0.505024
	H413	H	0.607059	0.576927	0.488681
	O414	O	0.446552	0.328570	0.516828
	H415	H	0.449236	0.347079	0.503227
	H416	H	0.455158	0.325468	0.502386
	O417	O	0.713520	0.289214	0.466489
	H418	H	0.710808	0.286293	0.464016
	H419	H	0.723786	0.278840	0.473314
	O420	O	0.467623	0.673055	0.506737
	H421	H	0.470271	0.672976	0.504049
	H422	H	0.473253	0.672664	0.522570
	O423	O	0.047222	0.227347	1.208138
	H424	H	0.063992	0.221810	1.224028
	H425	H	0.048759	0.233372	1.226612
	O426	O	0.715963	0.678223	0.508479
	H427	H	0.727841	0.678217	0.524242
	H428	H	0.703078	0.681464	0.517158
	O429	O	0.984469	1.100077	1.121770
	H430	H	0.983558	1.104593	1.111886
	H431	H	0.980537	1.073920	1.124273
	O432	O	0.401309	0.526043	0.605369
	H433	H	0.413378	0.524911	0.600250
	H434	H	0.408943	0.527288	0.598519
	O435	O	-0.207249	0.972170	0.217906
	H436	H	-0.200665	0.979440	0.210123
	H437	H	-0.232095	0.974355	0.232403
	O438	O	0.197296	0.025547	0.216147
	H439	H	0.223754	0.021150	0.218009
	H440	H	0.196573	0.045765	0.219876
	O441	O	0.220035	-0.037546	-0.204939
	H442	H	0.222547	-0.039252	-0.215006
	H443	H	0.226064	-0.041034	-0.207957
	O444	O	0.185235	0.202142	0.035261
	H445	H	0.181660	0.202819	0.020324
	H446	H	0.186305	0.205248	0.028267
	O447	O	0.309288	0.695095	0.691097
	H448	H	0.323279	0.678940	0.665950
	H449	H	0.334073	0.673842	0.678266
	O450	O	-0.185198	1.207151	0.973251
	H451	H	-0.183583	1.213666	0.970855
	H452	H	-0.186824	1.213517	0.955857
	O453	O	0.587022	0.580040	0.300538
	H454	H	0.562830	0.561994	0.303211
	H455	H	0.580089	0.594287	0.307580
	O456	O	0.204912	0.207115	0.799913
	H457	H	0.222294	0.214604	0.790144
	H458	H	0.187444	0.214778	0.813903
	O459	O	0.778885	0.781815	0.033774
	H460	H	0.753026	0.755358	0.048032
	H461	H	0.779622	0.784537	0.074238
	O462	O	0.711313	0.300387	0.293099
	H463	H	0.722162	0.297488	0.318017
	H464	H	0.703705	0.307066	0.282389
	O465	O	1.157054	0.052015	-0.116757
	H466	H	1.158320	0.054609	-0.128025
	H467	H	1.161382	0.068718	-0.107057
	O468	O	0.302759	0.705190	0.304126
	H469	H	0.321929	0.693150	0.311481
	H470	H	0.302161	0.716360	0.304785
	O471	O	0.320627	0.301883	0.687378
	H472	H	0.328838	0.310459	0.667933
	H473	H	0.311374	0.329525	0.695667
	O474	O	0.119946	0.897752	0.203159
	H475	H	0.117993	0.910489	0.200044
	H476	H	0.113655	0.895711	0.186415
	O477	O	0.478954	0.453684	1.469993
	H478	H	0.468646	0.453131	1.459821
	H479	H	0.484518	0.464032	1.457491
	O480	O	0.705952	0.483209	0.293921
	H481	H	0.729149	0.487395	0.295164
	H482	H	0.694705	0.478383	0.290126
	O483	O	0.721893	0.585888	0.692166
	H484	H	0.730284	0.580531	0.705381
	H485	H	0.736328	0.569865	0.688507
	O486	O	0.796937	0.214707	0.791403
	H487	H	0.813204	0.182787	0.788704
	H488	H	0.781194	0.214809	0.799399
	O489	O	0.911674	1.039437	-0.038514
	H490	H	0.903312	1.046585	-0.047548
	H491	H	0.923684	1.053670	-0.034731
