data_Molecule from HDF5

_cell_length_a		16.476402
_cell_length_b		16.138735
_cell_length_c		16.390833
_cell_angle_alpha	90.385478
_cell_angle_beta	89.852210
_cell_angle_gamma	89.838885
_symmetry_space_group_name_H-M	'P 1'
_symmetry_Int_Tables_number		1

loop_
	_symmetry_equiv_pos_as_xyz
	x,y,z

loop_
	_atom_site_label
	_atom_site_type_symbol
	_atom_site_fract_x
	_atom_site_fract_y
	_atom_site_fract_z
	H0	H	0.403588	0.838855	0.726594
	H1	H	0.606230	0.165126	0.728493
	H2	H	0.606677	0.840228	0.291851
	H3	H	0.404631	0.167501	0.297160
	H4	H	0.726754	0.394354	0.852479
	H5	H	0.723539	0.608026	0.171922
	H6	H	0.281778	0.611460	0.852637
	H7	H	0.284776	0.400271	0.171200
	H8	H	0.845271	0.720092	0.411694
	H9	H	0.166073	0.722239	0.613382
	H10	H	0.844797	0.287551	0.609601
	H11	H	0.167064	0.284764	0.408571
	H12	H	0.847206	0.399347	0.730985
	H13	H	0.163041	0.611860	0.735609
	H14	H	0.845530	0.604741	0.294681
	H15	H	0.165366	0.398535	0.290201
	H16	H	0.404987	0.717962	0.848741
	H17	H	0.603755	0.721803	0.172606
	H18	H	0.603253	0.286848	0.849388
	H19	H	0.405904	0.289219	0.174085
	H20	H	0.722603	0.839596	0.406500
	H21	H	0.720114	0.166393	0.612184
	H22	H	0.286520	0.840858	0.614439
	H23	H	0.286783	0.165323	0.408524
	H24	H	0.905317	0.338898	0.226584
	H25	H	0.105704	0.665854	0.229288
	H26	H	0.110420	0.341345	0.789713
	H27	H	0.901515	0.665972	0.795929
	H28	H	0.228555	0.894708	0.352172
	H29	H	0.225668	0.110316	0.671643
	H30	H	0.786254	0.107047	0.350161
	H31	H	0.785780	0.899581	0.670518
	H32	H	0.343549	0.220007	0.912145
	H33	H	0.666862	0.218955	0.108774
	H34	H	0.344024	0.785796	0.112221
	H35	H	0.665935	0.784636	0.909813
	H36	H	0.346348	0.898487	0.233294
	H37	H	0.665070	0.108591	0.230701
	H38	H	0.344993	0.107735	0.791004
	H39	H	0.664439	0.898466	0.790431
	H40	H	0.909383	0.215590	0.347098
	H41	H	0.103921	0.220535	0.672541
	H42	H	0.105765	0.785301	0.349721
	H43	H	0.906467	0.788298	0.672526
	H44	H	0.225448	0.341440	0.904917
	H45	H	0.221898	0.666138	0.115340
	H46	H	0.788497	0.339254	0.114486
	H47	H	0.786394	0.664607	0.911908
	H48	H	0.415812	0.116642	0.595636
	H49	H	0.593553	0.887969	0.597513
	H50	H	0.603254	0.120588	0.422575
	H51	H	0.410321	0.885704	0.422917
	H52	H	0.605681	0.420189	0.127265
	H53	H	0.600420	0.599611	0.893829
	H54	H	0.412808	0.598673	0.126948
	H55	H	0.410994	0.415359	0.896667
	H56	H	0.120275	0.590948	0.416009
	H57	H	0.890644	0.590589	0.610962
	H58	H	0.118675	0.411741	0.596072
	H59	H	0.888405	0.404009	0.412658
	H60	H	0.117400	0.419507	0.600797
	H61	H	0.890186	0.602412	0.601797
	H62	H	0.120008	0.594815	0.420234
	H63	H	0.892752	0.409329	0.423277
	H64	H	0.408048	0.590489	0.125706
	H65	H	0.603155	0.582800	0.897842
	H66	H	0.589430	0.415044	0.123365
	H67	H	0.416333	0.414905	0.898390
	H68	H	0.593687	0.120669	0.415294
	H69	H	0.600270	0.884961	0.597910
	H70	H	0.409946	0.121496	0.603978
	H71	H	0.419340	0.886038	0.414033
	H72	H	0.914743	0.620594	0.108158
	H73	H	0.089023	0.387605	0.105905
	H74	H	0.083460	0.615150	0.923103
	H75	H	0.918796	0.385681	0.914921
	H76	H	0.100010	0.917250	0.625989
	H77	H	0.111963	0.089548	0.393460
	H78	H	0.916639	0.095327	0.624791
	H79	H	0.911343	0.916774	0.397225
	H80	H	0.618954	0.093717	0.918358
	H81	H	0.393343	0.088307	0.104189
	H82	H	0.615565	0.917496	0.098057
	H83	H	0.390537	0.910843	0.919863
	H84	H	0.618924	0.915452	0.105050
	H85	H	0.388359	0.098020	0.113049
	H86	H	0.618135	0.092044	0.919335
	H87	H	0.391949	0.914423	0.919392
	H88	H	0.908972	0.099184	0.626906
	H89	H	0.092445	0.081065	0.402163
	H90	H	0.094632	0.917456	0.624226
	H91	H	0.918183	0.910920	0.396809
	H92	H	0.098437	0.616889	0.933697
	H93	H	0.093764	0.389895	0.090405
	H94	H	0.915384	0.616486	0.099902
	H95	H	0.920137	0.389974	0.925617
	H96	H	0.420527	0.118049	0.605449
	H97	H	0.595868	0.885013	0.603743
	H98	H	0.592300	0.116366	0.426087
	H99	H	0.421148	0.890437	0.425572
	H100	H	0.601031	0.403392	0.130230
	H101	H	0.588400	0.589790	0.900637
	H102	H	0.416875	0.590892	0.122881
	H103	H	0.413705	0.409913	0.896399
	H104	H	0.118764	0.589374	0.421213
	H105	H	0.896044	0.589421	0.596975
	H106	H	0.121057	0.412398	0.604455
	H107	H	0.891631	0.416387	0.412688
	H108	H	0.907409	0.619916	0.102550
	H109	H	0.104230	0.384522	0.101786
	H110	H	0.098542	0.622797	0.916286
	H111	H	0.910142	0.384972	0.921804
	H112	H	0.097337	0.912235	0.625707
	H113	H	0.093574	0.102815	0.395413
	H114	H	0.909253	0.090999	0.624470
	H115	H	0.910152	0.908843	0.394064
	H116	H	0.618448	0.092313	0.917013
	H117	H	0.391148	0.101005	0.099586
	H118	H	0.618480	0.910045	0.098724
	H119	H	0.389935	0.912443	0.915723
	C120	C	0.384604	0.011196	0.631988
	C121	C	0.626542	0.993783	0.630975
	C122	C	0.627320	0.011937	0.389145
	C123	C	0.385508	0.995007	0.390971
	C124	C	0.627999	0.380535	0.020535
	C125	C	0.626488	0.623248	1.003678
	C126	C	0.382269	0.624769	0.019312
	C127	C	0.383343	0.382490	1.003190
	C128	C	0.013925	0.623047	0.389701
	C129	C	0.997436	0.626102	0.634232
	C130	C	0.013866	0.383012	0.631308
	C131	C	0.997089	0.379349	0.386450
	C132	C	0.883512	0.510909	0.132943
	C133	C	0.125601	0.494778	0.131315
	C134	C	0.126314	0.511782	0.890353
	C135	C	0.884303	0.494260	0.891068
	C136	C	0.128000	0.882480	0.519490
	C137	C	0.128372	0.123705	0.503034
	C138	C	0.883592	0.124398	0.518507
	C139	C	0.883582	0.881779	0.502242
	C140	C	0.512443	0.123970	0.889075
	C141	C	0.497209	0.126046	0.134219
	C142	C	0.512578	0.882928	0.131982
	C143	C	0.496571	0.880563	0.887789
	C144	C	0.384321	0.888165	0.688938
	C145	C	0.625638	0.116404	0.689370
	C146	C	0.626530	0.888943	0.330857
	C147	C	0.385242	0.118199	0.334998
	C148	C	0.686259	0.377392	0.899768
	C149	C	0.683932	0.625842	0.124062
	C150	C	0.322869	0.627542	0.899430
	C151	C	0.324678	0.381801	0.123825
	C152	C	0.893432	0.681485	0.391259
	C153	C	0.117779	0.684056	0.633338
	C154	C	0.893225	0.325661	0.630164
	C155	C	0.118370	0.322734	0.388052
	C156	C	0.894374	0.381154	0.690667
	C157	C	0.116297	0.628918	0.694219
	C158	C	0.893525	0.624239	0.332872
	C159	C	0.117541	0.379273	0.329001
	C160	C	0.383978	0.681339	0.897807
	C161	C	0.624353	0.682549	0.124394
	C162	C	0.625028	0.323783	0.898510
	C163	C	0.385177	0.326580	0.125060
	C164	C	0.684126	0.888777	0.387960
	C165	C	0.682571	0.116869	0.631559
	C166	C	0.325896	0.889113	0.633323
	C167	C	0.326691	0.117160	0.390583
	C168	C	0.885588	0.387592	0.188195
	C169	C	0.124913	0.617325	0.189854
	C170	C	0.128855	0.389988	0.829498
	C171	C	0.882924	0.616844	0.834463
	C172	C	0.187317	0.878528	0.399428
	C173	C	0.185555	0.126984	0.623776
	C174	C	0.826619	0.124442	0.397577
	C175	C	0.825505	0.881364	0.622846
	C176	C	0.391970	0.181896	0.891207
	C177	C	0.618368	0.181755	0.130600
	C178	C	0.392171	0.824696	0.132093
	C179	C	0.617373	0.822762	0.889185
	C180	C	0.393363	0.880892	0.192175
	C181	C	0.617300	0.126968	0.191510
	C182	C	0.392763	0.125993	0.830760
	C183	C	0.616964	0.879602	0.830198
	C184	C	0.887629	0.178905	0.396211
	C185	C	0.125384	0.182278	0.624312
	C186	C	0.126660	0.823649	0.398188
	C187	C	0.885725	0.825906	0.623838
	C188	C	0.185810	0.390010	0.887023
	C189	C	0.183016	0.617393	0.133466
	C190	C	0.827271	0.388021	0.132578
	C191	C	0.825657	0.616200	0.892023
	C192	C	0.408316	0.096466	0.608602
	C193	C	0.603403	0.908076	0.606611
	C194	C	0.603304	0.097171	0.413963
	C195	C	0.409781	0.909692	0.414173
	C196	C	0.605380	0.405763	0.104952
	C197	C	0.603797	0.597970	0.919257
	C198	C	0.405665	0.600390	0.103184
	C199	C	0.406790	0.406453	0.919101
	C200	C	0.097781	0.598621	0.412473
	C201	C	0.913892	0.601148	0.610336
	C202	C	0.097330	0.407527	0.607421
	C203	C	0.912666	0.402835	0.409558
	C204	C	0.906070	0.596767	0.110247
	C205	C	0.102438	0.409546	0.106352
	C206	C	0.100701	0.596201	0.916659
	C207	C	0.909130	0.408944	0.914146
	C208	C	0.104307	0.908152	0.603469
	C209	C	0.106011	0.098459	0.418767
	C210	C	0.905208	0.101878	0.603205
	C211	C	0.906590	0.905318	0.418015
	C212	C	0.596645	0.099689	0.911799
	C213	C	0.412926	0.102597	0.112079
	C214	C	0.595951	0.907375	0.107623
	C215	C	0.412711	0.905474	0.911491
	Zn216	Zn	0.504893	0.002119	0.759053
	Zn217	Zn	0.505519	0.003813	0.262777
	Zn218	Zn	0.756220	0.501461	0.012291
	Zn219	Zn	0.253925	0.503460	0.010978
	Zn220	Zn	0.006005	0.753702	0.510946
	Zn221	Zn	0.006283	0.252583	0.510142
	Zn222	Zn	0.005468	0.503546	0.762729
	Zn223	Zn	0.005179	0.502503	0.259261
	Zn224	Zn	0.504490	0.752569	0.010306
	Zn225	Zn	0.505078	0.254012	0.011449
	Zn226	Zn	0.754359	0.003123	0.510388
	Zn227	Zn	0.257580	0.002914	0.511619
	N228	N	0.420015	0.965145	0.688380
	N229	N	0.591564	0.038725	0.689303
	N230	N	0.592084	0.966594	0.331366
	N231	N	0.421192	0.041294	0.334960
	N232	N	0.688165	0.412097	0.976532
	N233	N	0.685202	0.589649	0.047896
	N234	N	0.321557	0.593080	0.976067
	N235	N	0.323286	0.415818	0.046959
	N236	N	0.969303	0.681098	0.425818
	N237	N	0.042704	0.682488	0.596852
	N238	N	0.968500	0.326648	0.593867
	N239	N	0.042503	0.322712	0.423255
	N240	N	0.970357	0.416103	0.691442
	N241	N	0.040408	0.593856	0.694976
	N242	N	0.969407	0.588480	0.331980
	N243	N	0.041209	0.413637	0.327988
	N244	N	0.420142	0.679753	0.973123
	N245	N	0.589482	0.681176	0.048250
	N246	N	0.589680	0.325438	0.974645
	N247	N	0.420789	0.326900	0.049243
	N248	N	0.684856	0.966338	0.423250
	N249	N	0.683156	0.039425	0.596105
	N250	N	0.325942	0.966511	0.598784
	N251	N	0.326839	0.039522	0.424839
	N252	N	0.919850	0.465176	0.188737
	N253	N	0.090255	0.540023	0.188734
	N254	N	0.092434	0.466915	0.831501
	N255	N	0.919069	0.539958	0.833887
	N256	N	0.188389	0.914103	0.475922
	N257	N	0.187631	0.091665	0.547268
	N258	N	0.823884	0.091322	0.474572
	N259	N	0.823918	0.915023	0.546165
	N260	N	0.467539	0.180781	0.926773
	N261	N	0.542597	0.181439	0.095808
	N262	N	0.467240	0.825758	0.095213
	N263	N	0.541491	0.823216	0.924108
	N264	N	0.469074	0.916500	0.191966
	N265	N	0.540790	0.093214	0.193840
	N266	N	0.468714	0.090746	0.829327
	N267	N	0.540682	0.914502	0.829058
	N268	N	0.922241	0.179212	0.472434
	N269	N	0.090588	0.180691	0.548209
	N270	N	0.090314	0.826005	0.473789
	N271	N	0.921166	0.826038	0.547779
	N272	N	0.184685	0.466653	0.923719
	N273	N	0.183459	0.540292	0.097446
	N274	N	0.825953	0.465724	0.098763
	N275	N	0.826288	0.538766	0.926293
	O276	O	0.083925	0.087653	0.091910
	H277	H	0.098657	0.108661	0.087949
	H278	H	0.081382	0.085406	0.104676
	O279	O	0.381006	0.498841	0.647109
	H280	H	0.387401	0.503274	0.651610
	H281	H	0.384802	0.508518	0.642903
	O282	O	0.444714	-0.565849	0.451079
	H283	H	0.453866	-0.571093	0.442870
	H284	H	0.439682	-0.575678	0.453332
	O285	O	0.570831	0.469162	0.477941
	H286	H	0.572797	0.464829	0.466231
	H287	H	0.562138	0.471460	0.498866
	O288	O	0.879314	0.832326	1.141254
	H289	H	0.878633	0.820064	1.154376
	H290	H	0.886543	0.838041	1.147766
	O291	O	-0.024144	0.985076	0.098782
	H292	H	-0.025266	0.983773	0.101859
	H293	H	-0.023384	0.978543	0.090928
	O294	O	0.487734	0.575213	0.365284
	H295	H	0.483160	0.563209	0.377661
	H296	H	0.492898	0.567202	0.358301
	O297	O	0.641170	0.577726	0.457096
	H298	H	0.625594	0.584809	0.465246
	H299	H	0.644419	0.574735	0.460769
	O300	O	0.623460	0.488172	0.468505
	H301	H	0.618979	0.489473	0.481500
	H302	H	0.631141	0.483613	0.455002
	O303	O	0.589136	0.622975	0.676258
	H304	H	0.584397	0.629515	0.680452
	H305	H	0.591765	0.612092	0.691741
	O306	O	0.393007	0.346627	0.535726
	H307	H	0.380525	0.340337	0.534168
	H308	H	0.403051	0.353877	0.544071
	O309	O	0.504870	0.405036	0.650342
	H310	H	0.508363	0.421157	0.648465
	H311	H	0.510666	0.400480	0.650877
	O312	O	0.176240	-0.134089	-0.143280
	H313	H	0.167784	-0.122499	-0.147212
	H314	H	0.170305	-0.130419	-0.117961
	O315	O	0.520893	0.498441	0.602822
	H316	H	0.512432	0.498596	0.604296
	H317	H	0.517431	0.504046	0.602450
	O318	O	0.082483	0.875134	0.886736
	H319	H	0.094771	0.879613	0.898828
	H320	H	0.074198	0.866123	0.878479
	O321	O	0.636234	0.309812	0.373736
	H322	H	0.645720	0.296680	0.374598
	H323	H	0.642085	0.296139	0.365763
	O324	O	0.079255	0.905573	-0.033504
	H325	H	0.087371	0.901091	-0.031709
	H326	H	0.071757	0.902078	-0.039965
	O327	O	-0.078962	0.157028	-0.090499
	H328	H	-0.066781	0.156725	-0.079797
	H329	H	-0.079046	0.158127	-0.076677
	O330	O	0.176491	0.159231	0.999806
	H331	H	0.177720	0.152999	1.024362
	H332	H	0.184106	0.158841	0.988320
	O333	O	0.003012	-0.091478	1.089404
	H334	H	-0.001857	-0.095958	1.101618
	H335	H	0.001594	-0.101544	1.098799
	O336	O	0.345416	0.512469	0.549000
	H337	H	0.370342	0.505303	0.548478
	H338	H	0.341347	0.514213	0.553118
	O339	O	0.878150	-0.119111	-0.062686
	H340	H	0.877518	-0.115156	-0.049954
	H341	H	0.890209	-0.126584	-0.066106
	O342	O	-0.479999	-0.350425	0.375372
	H343	H	-0.485707	-0.354322	0.382935
	H344	H	-0.472595	-0.349818	0.369201
	O345	O	0.928822	0.060482	1.013609
	H346	H	0.942662	0.052145	1.005108
	H347	H	0.935279	0.063678	1.003877
	O348	O	1.056604	1.030720	0.071396
	H349	H	1.072766	1.034680	0.065873
	H350	H	1.064497	1.018554	0.052537
	O351	O	0.577142	0.496907	0.635036
	H352	H	0.598866	0.489268	0.631943
	H353	H	0.570105	0.500505	0.623736
	O354	O	1.042863	0.053174	0.859792
	H355	H	1.035623	0.054269	0.871675
	H356	H	1.041105	0.054506	0.850635
	O357	O	0.339050	0.552273	0.346727
	H358	H	0.327501	0.537924	0.353469
	H359	H	0.339375	0.552939	0.360904
	O360	O	0.675831	0.419024	0.486505
	H361	H	0.667034	0.424076	0.495417
	H362	H	0.692179	0.416334	0.501614
	O363	O	0.046487	1.118054	1.092862
	H364	H	0.039191	1.125394	1.102713
	H365	H	0.058625	1.109235	1.082635
	O366	O	0.488556	0.432299	0.426558
	H367	H	0.481799	0.434315	0.427047
	H368	H	0.482082	0.436726	0.409580
	O369	O	0.133273	0.887736	-0.104953
	H370	H	0.136729	0.895438	-0.111584
	H371	H	0.144609	0.880553	-0.113497
	O372	O	0.634378	0.512398	0.596327
	H373	H	0.632156	0.515285	0.586190
	H374	H	0.639790	0.514519	0.586485
	O375	O	0.492249	0.624156	0.578560
	H376	H	0.500184	0.627304	0.585761
	H377	H	0.494036	0.610443	0.574486
	O378	O	1.488876	0.488416	-0.445594
	H379	H	1.483791	0.495755	-0.438488
	H380	H	1.491311	0.491802	-0.434487
	O381	O	0.942436	0.103413	0.024429
	H382	H	0.939865	0.096917	0.023668
	H383	H	0.927894	0.096524	0.040305
	O384	O	0.823079	1.131780	-0.107275
	H385	H	0.820261	1.151446	-0.103693
	H386	H	0.812740	1.132900	-0.122103
	O387	O	0.114824	-0.062578	0.109679
	H388	H	0.118187	-0.052635	0.098187
	H389	H	0.113460	-0.066592	0.114097
	O390	O	0.014584	1.097989	0.117911
	H391	H	0.011965	1.084265	0.110272
	H392	H	-0.003202	1.105121	0.110276
	O393	O	1.096101	0.961216	1.119840
	H394	H	1.093542	0.955663	1.129740
	H395	H	1.089192	0.967464	1.117393
	O396	O	0.409755	0.507617	0.496751
	H397	H	0.405078	0.512464	0.497752
	H398	H	0.406644	0.506315	0.506544
	O399	O	-0.114709	1.070342	1.011499
	H400	H	-0.110711	1.069750	1.005481
	H401	H	-0.123322	1.065873	1.021250
	O402	O	0.423430	0.449491	0.678773
	H403	H	0.412933	0.448816	0.670903
	H404	H	0.433295	0.438866	0.664542
	O405	O	0.873555	1.034958	0.008202
	H406	H	0.885569	1.025369	0.003295
	H407	H	0.858015	1.040028	0.012040
	O408	O	1.095357	0.985920	0.030057
	H409	H	1.114390	0.995945	0.020759
	H410	H	1.108310	0.991491	0.046654
	O411	O	0.908347	-0.074497	0.993159
	H412	H	0.899771	-0.082796	1.004663
	H413	H	0.906675	-0.079421	0.992021
	O414	O	0.472957	0.609928	0.432645
	H415	H	0.458435	0.617104	0.437657
	H416	H	0.472968	0.627090	0.436863
	O417	O	0.468206	0.556015	0.372673
	H418	H	0.481687	0.569967	0.377253
	H419	H	0.468193	0.535601	0.379186
