data_Molecule from HDF5

_cell_length_a		16.524006
_cell_length_b		16.531393
_cell_length_c		16.470978
_cell_angle_alpha	89.766346
_cell_angle_beta	89.876569
_cell_angle_gamma	89.936932
_symmetry_space_group_name_H-M	'P 1'
_symmetry_Int_Tables_number		1

loop_
	_symmetry_equiv_pos_as_xyz
	x,y,z

loop_
	_atom_site_label
	_atom_site_type_symbol
	_atom_site_fract_x
	_atom_site_fract_y
	_atom_site_fract_z
	H0	H	0.389095	0.847404	0.728107
	H1	H	0.599558	0.161641	0.728309
	H2	H	0.598805	0.846502	0.288149
	H3	H	0.393467	0.164322	0.287696
	H4	H	0.716926	0.403100	0.850156
	H5	H	0.714853	0.609708	0.166156
	H6	H	0.273968	0.611348	0.849562
	H7	H	0.274281	0.400107	0.165456
	H8	H	0.838260	0.729394	0.401466
	H9	H	0.152501	0.727791	0.612380
	H10	H	0.836480	0.288078	0.612248
	H11	H	0.150657	0.284320	0.401453
	H12	H	0.837346	0.405139	0.727753
	H13	H	0.152928	0.612046	0.728812
	H14	H	0.837823	0.614425	0.284552
	H15	H	0.150913	0.402291	0.286114
	H16	H	0.390104	0.727957	0.849813
	H17	H	0.599058	0.725489	0.165338
	H18	H	0.600177	0.286293	0.849405
	H19	H	0.391236	0.284773	0.165762
	H20	H	0.718265	0.848880	0.399745
	H21	H	0.715215	0.162745	0.610075
	H22	H	0.272475	0.848823	0.613038
	H23	H	0.274381	0.163760	0.402414
	H24	H	0.887766	0.350301	0.232122
	H25	H	0.097263	0.663139	0.225201
	H26	H	0.099579	0.348546	0.787170
	H27	H	0.889032	0.663260	0.784718
	H28	H	0.216071	0.901047	0.350054
	H29	H	0.215701	0.110585	0.665421
	H30	H	0.775646	0.110055	0.348997
	H31	H	0.772077	0.899791	0.664589
	H32	H	0.338906	0.229229	0.899880
	H33	H	0.653244	0.225829	0.111284
	H34	H	0.337728	0.785085	0.110943
	H35	H	0.652010	0.782581	0.899493
	H36	H	0.337483	0.901773	0.226918
	H37	H	0.654114	0.107328	0.225575
	H38	H	0.337894	0.112560	0.784815
	H39	H	0.651228	0.899802	0.784314
	H40	H	0.890021	0.228110	0.350673
	H41	H	0.099938	0.226457	0.665078
	H42	H	0.099895	0.784576	0.350435
	H43	H	0.887880	0.784218	0.665485
	H44	H	0.215952	0.347994	0.902945
	H45	H	0.214800	0.662452	0.109138
	H46	H	0.773090	0.349265	0.114258
	H47	H	0.772183	0.663082	0.900760
	H48	H	0.406093	0.116410	0.591745
	H49	H	0.581074	0.895109	0.592872
	H50	H	0.581005	0.116934	0.413539
	H51	H	0.402610	0.891957	0.416621
	H52	H	0.587863	0.417270	0.121598
	H53	H	0.582318	0.593256	0.896139
	H54	H	0.409734	0.596370	0.119111
	H55	H	0.405463	0.417838	0.895161
	H56	H	0.105883	0.594893	0.420491
	H57	H	0.884065	0.595031	0.593627
	H58	H	0.108869	0.412786	0.596463
	H59	H	0.880024	0.411751	0.419821
	H60	H	0.106968	0.417753	0.595181
	H61	H	0.884955	0.592313	0.596715
	H62	H	0.106734	0.592382	0.416412
	H63	H	0.883852	0.420085	0.424548
	H64	H	0.401952	0.595126	0.121265
	H65	H	0.584111	0.596697	0.893834
	H66	H	0.581009	0.418292	0.118859
	H67	H	0.407699	0.416184	0.894758
	H68	H	0.585452	0.116652	0.421612
	H69	H	0.584275	0.893633	0.593751
	H70	H	0.400728	0.119756	0.596552
	H71	H	0.407801	0.893921	0.416004
	H72	H	0.911933	0.616779	0.097476
	H73	H	0.082269	0.391988	0.100716
	H74	H	0.085132	0.619255	0.915158
	H75	H	0.908792	0.397714	0.925090
	H76	H	0.076128	0.924983	0.614723
	H77	H	0.077528	0.099075	0.395744
	H78	H	0.906928	0.098310	0.621039
	H79	H	0.906864	0.917055	0.395575
	H80	H	0.607939	0.095562	0.918145
	H81	H	0.381416	0.095887	0.100426
	H82	H	0.609138	0.915768	0.100490
	H83	H	0.382708	0.917865	0.918200
	H84	H	0.609732	0.911695	0.096530
	H85	H	0.382558	0.099268	0.093978
	H86	H	0.607156	0.094469	0.918811
	H87	H	0.383012	0.914707	0.920638
	H88	H	0.900185	0.096005	0.622667
	H89	H	0.088806	0.099432	0.391981
	H90	H	0.078256	0.908011	0.621726
	H91	H	0.906734	0.917750	0.394583
	H92	H	0.083502	0.617454	0.920362
	H93	H	0.083390	0.393383	0.094307
	H94	H	0.904571	0.615895	0.087849
	H95	H	0.901141	0.392480	0.918708
	H96	H	0.407786	0.118254	0.599526
	H97	H	0.581750	0.893703	0.595939
	H98	H	0.589437	0.119527	0.413893
	H99	H	0.405330	0.893973	0.421423
	H100	H	0.583041	0.411453	0.121446
	H101	H	0.586498	0.592927	0.895032
	H102	H	0.406126	0.588941	0.117957
	H103	H	0.404740	0.415222	0.894158
	H104	H	0.107566	0.597374	0.416602
	H105	H	0.882795	0.595801	0.597592
	H106	H	0.109145	0.416284	0.600313
	H107	H	0.881106	0.420849	0.414526
	H108	H	0.900635	0.621418	0.098524
	H109	H	0.088281	0.391012	0.098233
	H110	H	0.088502	0.619197	0.918941
	H111	H	0.911015	0.394422	0.914454
	H112	H	0.092228	0.920391	0.622884
	H113	H	0.084660	0.089614	0.397025
	H114	H	0.904718	0.091231	0.619392
	H115	H	0.906688	0.917511	0.395586
	H116	H	0.606527	0.094839	0.917017
	H117	H	0.384890	0.092045	0.094878
	H118	H	0.606831	0.916288	0.095054
	H119	H	0.384904	0.918381	0.922101
	C120	C	0.372524	0.014073	0.628781
	C121	C	0.615233	0.997342	0.627088
	C122	C	0.617322	0.013593	0.384690
	C123	C	0.373721	0.997451	0.385911
	C124	C	0.616466	0.384500	0.016102
	C125	C	0.616387	0.626838	0.999067
	C126	C	0.374114	0.626375	0.015506
	C127	C	0.373921	0.383696	0.998988
	C128	C	0.003189	0.628289	0.385274
	C129	C	0.987322	0.627309	0.628761
	C130	C	0.003649	0.385106	0.629184
	C131	C	0.985213	0.385042	0.386447
	C132	C	0.873088	0.514778	0.128818
	C133	C	0.116159	0.496567	0.128510
	C134	C	0.116827	0.514331	0.886314
	C135	C	0.874142	0.498418	0.886493
	C136	C	0.115226	0.885265	0.515955
	C137	C	0.115917	0.127591	0.498987
	C138	C	0.873165	0.127143	0.516274
	C139	C	0.873055	0.884289	0.498958
	C140	C	0.503450	0.127671	0.885204
	C141	C	0.487521	0.126966	0.128222
	C142	C	0.503889	0.883722	0.128800
	C143	C	0.486759	0.884067	0.886345
	C144	C	0.370370	0.895383	0.688967
	C145	C	0.617530	0.115090	0.687490
	C146	C	0.618275	0.894750	0.326442
	C147	C	0.373518	0.116814	0.327033
	C148	C	0.676981	0.383374	0.897401
	C149	C	0.675185	0.628103	0.118460
	C150	C	0.314282	0.629217	0.896872
	C151	C	0.314301	0.381965	0.118046
	C152	C	0.885296	0.689352	0.382869
	C153	C	0.105341	0.687847	0.631084
	C154	C	0.884264	0.327178	0.630710
	C155	C	0.103580	0.324756	0.383434
	C156	C	0.884607	0.385339	0.688166
	C157	C	0.105709	0.630192	0.688867
	C158	C	0.885222	0.631934	0.324843
	C159	C	0.103700	0.383180	0.325898
	C160	C	0.372006	0.687261	0.896933
	C161	C	0.617913	0.686122	0.118027
	C162	C	0.618741	0.325795	0.896814
	C163	C	0.372172	0.324167	0.118197
	C164	C	0.677762	0.895857	0.382186
	C165	C	0.675072	0.115729	0.628871
	C166	C	0.312269	0.896000	0.631554
	C167	C	0.314285	0.116406	0.384031
	C168	C	0.869987	0.396978	0.191000
	C169	C	0.116849	0.615709	0.186210
	C170	C	0.118352	0.395744	0.826833
	C171	C	0.870997	0.616029	0.825155
	C172	C	0.176040	0.882563	0.397605
	C173	C	0.176210	0.129409	0.617597
	C174	C	0.814977	0.128772	0.396719
	C175	C	0.811905	0.881311	0.617269
	C176	C	0.385893	0.188929	0.882012
	C177	C	0.606224	0.185669	0.129524
	C178	C	0.385126	0.824621	0.130308
	C179	C	0.604559	0.822990	0.882059
	C180	C	0.384713	0.882972	0.187403
	C181	C	0.606427	0.127253	0.186775
	C182	C	0.385444	0.130520	0.824716
	C183	C	0.604492	0.881433	0.824856
	C184	C	0.871610	0.187602	0.397613
	C185	C	0.118074	0.186737	0.617979
	C186	C	0.118185	0.824777	0.397727
	C187	C	0.869711	0.823684	0.617579
	C188	C	0.175711	0.395165	0.884750
	C189	C	0.175330	0.615084	0.128877
	C190	C	0.812785	0.396567	0.132708
	C191	C	0.812955	0.616048	0.883233
	C192	C	0.397630	0.096525	0.603251
	C193	C	0.589895	0.915430	0.601509
	C194	C	0.592426	0.096212	0.409327
	C195	C	0.398261	0.914798	0.410841
	C196	C	0.591166	0.408681	0.099024
	C197	C	0.591511	0.601587	0.916712
	C198	C	0.398826	0.600889	0.097984
	C199	C	0.398999	0.408934	0.916132
	C200	C	0.085185	0.602420	0.410584
	C201	C	0.905251	0.601679	0.603403
	C202	C	0.086802	0.408781	0.604553
	C203	C	0.903126	0.410335	0.412075
	C204	C	0.898419	0.596704	0.102408
	C205	C	0.091598	0.413472	0.104730
	C206	C	0.092629	0.596912	0.911037
	C207	C	0.899739	0.416240	0.912116
	C208	C	0.089652	0.910663	0.598538
	C209	C	0.090879	0.103081	0.416424
	C210	C	0.897008	0.102346	0.599391
	C211	C	0.899253	0.909954	0.416695
	C212	C	0.585801	0.102247	0.910639
	C213	C	0.404718	0.102719	0.103625
	C214	C	0.586810	0.907564	0.104357
	C215	C	0.404903	0.909641	0.912744
	Zn216	Zn	0.494232	0.004971	0.757207
	Zn217	Zn	0.495536	0.005322	0.256885
	Zn218	Zn	0.744796	0.506122	0.008057
	Zn219	Zn	0.245464	0.504982	0.007017
	Zn220	Zn	-0.005290	0.755728	0.507686
	Zn221	Zn	-0.005708	0.256225	0.508356
	Zn222	Zn	-0.003766	0.506410	0.757761
	Zn223	Zn	-0.006057	0.506701	0.257026
	Zn224	Zn	0.495425	0.755222	0.007233
	Zn225	Zn	0.495521	0.255770	0.007419
	Zn226	Zn	0.745066	0.005574	0.506670
	Zn227	Zn	0.244283	0.006172	0.507326
	N228	N	0.407301	0.969964	0.687399
	N229	N	0.581072	0.040515	0.686570
	N230	N	0.580922	0.969125	0.328221
	N231	N	0.409214	0.041761	0.327784
	N232	N	0.675905	0.418816	0.972660
	N233	N	0.674344	0.591954	0.043432
	N234	N	0.315578	0.591820	0.971457
	N235	N	0.315362	0.418185	0.042883
	N236	N	0.959788	0.687363	0.419711
	N237	N	0.030814	0.686265	0.594517
	N238	N	0.959558	0.326815	0.595010
	N239	N	0.028908	0.325651	0.420257
	N240	N	0.960021	0.420322	0.687632
	N241	N	0.031073	0.593506	0.687879
	N242	N	0.959636	0.594669	0.326055
	N243	N	0.029092	0.419766	0.327382
	N244	N	0.408902	0.685334	0.971592
	N245	N	0.582060	0.685501	0.042876
	N246	N	0.582213	0.326111	0.971841
	N247	N	0.408349	0.324896	0.043055
	N248	N	0.677254	0.970747	0.417921
	N249	N	0.673650	0.041392	0.592067
	N250	N	0.313258	0.970684	0.595154
	N251	N	0.314245	0.041074	0.419922
	N252	N	0.906735	0.471465	0.188779
	N253	N	0.080975	0.540796	0.186318
	N254	N	0.082774	0.470821	0.827504
	N255	N	0.908676	0.541967	0.827350
	N256	N	0.174502	0.919235	0.472192
	N257	N	0.175091	0.093260	0.542670
	N258	N	0.815720	0.091977	0.471624
	N259	N	0.813761	0.918061	0.542471
	N260	N	0.460439	0.187381	0.918910
	N261	N	0.531205	0.185704	0.093956
	N262	N	0.460447	0.824604	0.094781
	N263	N	0.530367	0.824469	0.919574
	N264	N	0.459685	0.918729	0.186772
	N265	N	0.531297	0.091572	0.186231
	N266	N	0.459733	0.093146	0.826500
	N267	N	0.530133	0.918406	0.827177
	N268	N	0.907059	0.186800	0.472939
	N269	N	0.081440	0.185972	0.543093
	N270	N	0.081432	0.826004	0.472492
	N271	N	0.907089	0.825225	0.542841
	N272	N	0.175271	0.470048	0.920825
	N273	N	0.175195	0.539772	0.094009
	N274	N	0.814755	0.470654	0.094742
	N275	N	0.814844	0.541760	0.920835
	O276	O	0.699433	0.503607	0.375512
	H277	H	0.703108	0.488907	0.378787
	H278	H	0.699916	0.503382	0.384924
	O279	O	0.579321	0.353228	0.515427
	H280	H	0.581875	0.359802	0.492625
	H281	H	0.566930	0.355108	0.519424
	O282	O	0.854287	1.036365	0.059467
	H283	H	0.877282	1.048703	0.064650
	H284	H	0.856313	1.051188	0.056283
	O285	O	0.577184	0.683124	0.416456
	H286	H	0.565894	0.671580	0.421499
	H287	H	0.576492	0.685491	0.426485
	O288	O	-0.206354	-0.110085	-0.099718
	H289	H	-0.200511	-0.098247	-0.106777
	H290	H	-0.202706	-0.112198	-0.080376
	O291	O	0.959013	1.021457	0.082949
	H292	H	0.944063	1.025377	0.074471
	H293	H	0.973543	1.033239	0.077678
	O294	O	-0.104400	1.181479	-0.923178
	H295	H	-0.085358	1.191436	-0.949617
	H296	H	-0.132739	1.180121	-0.948613
	O297	O	0.485938	0.585157	0.464995
	H298	H	0.477215	0.590270	0.473921
	H299	H	0.487080	0.593493	0.446382
	O300	O	0.297370	0.706319	0.307348
	H301	H	0.274327	0.705722	0.281150
	H302	H	0.306819	0.680448	0.297701
	O303	O	1.167387	0.821311	0.175039
	H304	H	1.167884	0.825344	0.151636
	H305	H	1.143289	0.831842	0.158389
	O306	O	0.129881	0.892517	0.904530
	H307	H	0.114567	0.886807	0.919889
	H308	H	0.104037	0.893657	0.910243
	O309	O	0.702658	0.299753	0.376906
	H310	H	0.698103	0.303490	0.348053
	H311	H	0.707264	0.282892	0.388847
	O312	O	0.466385	0.293796	0.717410
	H313	H	0.478712	0.276759	0.716744
	H314	H	0.483997	0.288025	0.721159
	O315	O	-0.082527	0.865913	1.111216
	H316	H	-0.093452	0.878945	1.112498
	H317	H	-0.089083	0.860952	1.117584
	O318	O	0.636222	0.447951	-0.390625
	H319	H	0.610663	0.459299	-0.405371
	H320	H	0.644944	0.446971	-0.392400
	O321	O	1.001662	0.024122	0.795776
	H322	H	1.008063	0.034153	0.800178
	H323	H	1.022853	0.024856	0.790471
	O324	O	1.685648	0.689542	1.695272
	H325	H	1.669064	0.693557	1.674679
	H326	H	1.701020	0.673226	1.709933
	O327	O	1.010495	-0.116402	1.215281
	H328	H	1.023820	-0.107733	1.221531
	H329	H	1.002346	-0.118347	1.223534
	O330	O	0.797836	-0.012828	0.126532
	H331	H	0.799507	0.006062	0.125697
	H332	H	0.798259	-0.014784	0.141821
	O333	O	0.917089	1.085247	1.189881
	H334	H	0.921324	1.081858	1.179669
	H335	H	0.923470	1.084813	1.179921
	O336	O	0.586129	-0.521362	1.372508
	H337	H	0.595432	-0.525999	1.378260
	H338	H	0.596748	-0.511017	1.369286
	O339	O	0.340407	0.605301	0.597248
	H340	H	0.326268	0.611685	0.592370
	H341	H	0.338386	0.619213	0.610183
	O342	O	0.781891	0.103355	-0.026093
	H343	H	0.778300	0.096768	-0.018607
	H344	H	0.791472	0.087705	-0.033236
	O345	O	-0.138923	-0.212108	0.087955
	H346	H	-0.136888	-0.205875	0.108667
	H347	H	-0.157303	-0.222800	0.096591
	O348	O	1.187387	0.200652	1.204775
	H349	H	1.158025	0.217426	1.221158
	H350	H	1.178146	0.207571	1.169977
	O351	O	0.367331	0.393247	0.624721
	H352	H	0.360183	0.392531	0.637901
	H353	H	0.373488	0.375954	0.628597
	O354	O	0.597182	0.309331	0.470869
	H355	H	0.596861	0.320967	0.465425
	H356	H	0.595385	0.313369	0.473966
	O357	O	1.555229	0.427081	0.345583
	H358	H	1.538736	0.436831	0.353550
	H359	H	1.539468	0.415367	0.332474
	O360	O	0.461473	0.604153	0.589737
	H361	H	0.470561	0.602733	0.610972
	H362	H	0.461958	0.608571	0.592307
	O363	O	-0.477836	0.697618	0.703841
	H364	H	-0.470920	0.710459	0.711643
	H365	H	-0.470493	0.713979	0.706381
	O366	O	0.798066	0.818336	0.130886
	H367	H	0.792054	0.827854	0.147974
	H368	H	0.799091	0.819200	0.142941
	O369	O	0.325128	0.313319	0.401797
	H370	H	0.313214	0.313790	0.424693
	H371	H	0.347050	0.309943	0.403796
	O372	O	0.301229	0.316954	0.699569
	H373	H	0.307583	0.310439	0.695707
	H374	H	0.327974	0.316389	0.693556
	O375	O	-0.191806	1.221306	0.993556
	H376	H	-0.210744	1.213275	0.985882
	H377	H	-0.202392	1.225627	0.982998
	O378	O	1.095313	-0.022490	0.054951
	H379	H	1.105604	-0.006715	0.075118
	H380	H	1.089077	-0.020529	0.053801
	O381	O	0.282084	0.367116	-0.465645
	H382	H	0.278757	0.380960	-0.456202
	H383	H	0.269276	0.365094	-0.455807
	O384	O	0.130212	-0.997042	0.904284
	H385	H	0.139956	-1.013970	0.905629
	H386	H	0.126756	-1.001456	0.910069
	O387	O	-0.101791	0.813383	1.050264
	H388	H	-0.095534	0.831686	1.055476
	H389	H	-0.122759	0.810537	1.068551
	O390	O	0.052120	0.124537	0.989585
	H391	H	0.053428	0.113278	0.980755
	H392	H	0.072968	0.137616	0.996938
	O393	O	1.022492	1.220271	0.219245
	H394	H	1.010042	1.244813	0.216535
	H395	H	1.000961	1.224952	0.209106
	O396	O	0.644568	0.544425	0.493746
	H397	H	0.661425	0.551986	0.502260
	H398	H	0.644305	0.565622	0.497286
	O399	O	0.283254	0.596124	0.372768
	H400	H	0.277178	0.594056	0.370425
	H401	H	0.278372	0.579625	0.356895
	O402	O	0.050725	-0.205923	0.802623
	H403	H	0.030786	-0.210139	0.806280
	H404	H	0.040085	-0.222988	0.794857
	O405	O	-0.471777	-0.446422	0.687813
	H406	H	-0.479432	-0.451752	0.684658
	H407	H	-0.476583	-0.445643	0.680081
	O408	O	0.562887	0.513212	0.495554
	H409	H	0.560654	0.523107	0.490575
	H410	H	0.556698	0.521563	0.498758
	O411	O	0.330775	0.429111	0.478902
	H412	H	0.338891	0.437327	0.488851
	H413	H	0.340671	0.438453	0.488296
	O414	O	0.794151	1.208408	0.804944
	H415	H	0.789489	1.226497	0.796406
	H416	H	0.782110	1.188470	0.807679
	O417	O	0.467041	0.718300	0.297478
	H418	H	0.470819	0.745276	0.273970
	H419	H	0.449944	0.720591	0.308155
	O420	O	1.163310	0.804055	1.000775
	H421	H	1.169500	0.810639	0.999198
	H422	H	1.145975	0.808276	0.999345
	O423	O	-0.157899	0.959584	-0.132272
	H424	H	-0.150919	0.954879	-0.123446
	H425	H	-0.180829	0.962647	-0.144622
	O426	O	1.026785	0.950943	0.931738
	H427	H	1.054277	0.976255	0.942657
	H428	H	1.008813	0.962723	0.927182
	O429	O	0.445989	0.701870	0.557991
	H430	H	0.443383	0.697157	0.555308
	H431	H	0.428837	0.708163	0.558602
	O432	O	0.137310	0.176884	-0.153510
	H433	H	0.136756	0.178241	-0.146106
	H434	H	0.137701	0.159001	-0.153906
	O435	O	0.217027	0.038708	0.227990
	H436	H	0.212760	0.077400	0.228612
	H437	H	0.241816	0.051303	0.257065
	O438	O	1.116426	0.100063	-0.043399
	H439	H	1.122246	0.098514	-0.048445
	H440	H	1.118570	0.092245	-0.061334
	O441	O	0.684623	0.705820	0.546108
	H442	H	0.692155	0.716598	0.547981
	H443	H	0.694112	0.715502	0.548109
	O444	O	-0.040775	1.222330	0.813523
	H445	H	-0.062296	1.214187	0.814706
	H446	H	-0.050679	1.247030	0.788007
	O447	O	0.399694	0.474471	0.710439
	H448	H	0.398739	0.460210	0.703167
	H449	H	0.372263	0.473448	0.718018
	O450	O	0.281656	0.618231	0.471430
	H451	H	0.266823	0.627947	0.471796
	H452	H	0.285446	0.626506	0.456348
	O453	O	0.670978	0.347927	0.676556
	H454	H	0.664047	0.356282	0.656392
	H455	H	0.654898	0.375201	0.668834
	O456	O	1.211769	0.218808	0.040060
	H457	H	1.218323	0.201890	0.033648
	H458	H	1.235564	0.237215	0.037635
	O459	O	0.556533	0.361558	0.302161
	H460	H	0.547407	0.372569	0.307315
	H461	H	0.547349	0.357045	0.292331
	O462	O	0.364012	0.518321	0.487220
	H463	H	0.351988	0.532669	0.482198
	H464	H	0.352483	0.510843	0.494075
	O465	O	1.213081	-0.018747	-0.207894
	H466	H	1.222291	-0.047050	-0.210703
	H467	H	1.226250	-0.037357	-0.221608
