data_Molecule from HDF5

_cell_length_a		16.266170
_cell_length_b		16.182407
_cell_length_c		16.387005
_cell_angle_alpha	89.792430
_cell_angle_beta	90.342985
_cell_angle_gamma	89.970212
_symmetry_space_group_name_H-M	'P 1'
_symmetry_Int_Tables_number		1

loop_
	_symmetry_equiv_pos_as_xyz
	x,y,z

loop_
	_atom_site_label
	_atom_site_type_symbol
	_atom_site_fract_x
	_atom_site_fract_y
	_atom_site_fract_z
	H0	H	0.408731	0.829828	0.705880
	H1	H	0.609633	0.158022	0.704993
	H2	H	0.607094	0.830646	0.276187
	H3	H	0.407614	0.157879	0.275098
	H4	H	0.722765	0.393322	0.829667
	H5	H	0.722917	0.592724	0.153306
	H6	H	0.288820	0.594365	0.828704
	H7	H	0.292657	0.393633	0.154211
	H8	H	0.843675	0.708583	0.391212
	H9	H	0.171109	0.707308	0.590578
	H10	H	0.842559	0.280091	0.587559
	H11	H	0.171534	0.281097	0.396731
	H12	H	0.843658	0.392815	0.706430
	H13	H	0.169433	0.593709	0.709573
	H14	H	0.844701	0.595359	0.272921
	H15	H	0.169536	0.390787	0.274957
	H16	H	0.406706	0.709330	0.827391
	H17	H	0.605269	0.708366	0.153583
	H18	H	0.602520	0.281395	0.827502
	H19	H	0.407451	0.276320	0.153224
	H20	H	0.720392	0.829596	0.393996
	H21	H	0.722907	0.157853	0.589230
	H22	H	0.295914	0.828280	0.587360
	H23	H	0.293516	0.158466	0.391813
	H24	H	0.906301	0.329660	0.207319
	H25	H	0.107896	0.657166	0.206451
	H26	H	0.104882	0.329158	0.779636
	H27	H	0.904662	0.657198	0.774318
	H28	H	0.222291	0.894148	0.327933
	H29	H	0.224420	0.091521	0.653506
	H30	H	0.789802	0.094697	0.328893
	H31	H	0.791839	0.892034	0.653644
	H32	H	0.342388	0.208016	0.891132
	H33	H	0.671308	0.207229	0.088119
	H34	H	0.342836	0.780609	0.086640
	H35	H	0.671572	0.780717	0.894230
	H36	H	0.344565	0.891649	0.206677
	H37	H	0.670119	0.095548	0.207747
	H38	H	0.344705	0.095215	0.771783
	H39	H	0.671074	0.894134	0.776519
	H40	H	0.907119	0.211184	0.328628
	H41	H	0.106187	0.206636	0.654343
	H42	H	0.105259	0.779573	0.327784
	H43	H	0.910983	0.778394	0.653506
	H44	H	0.219167	0.329226	0.895104
	H45	H	0.221449	0.657983	0.090586
	H46	H	0.792788	0.329143	0.089503
	H47	H	0.792349	0.657957	0.892347
	H48	H	0.417847	0.110654	0.583469
	H49	H	0.608063	0.876534	0.576435
	H50	H	0.600896	0.116111	0.384875
	H51	H	0.414191	0.875649	0.393980
	H52	H	0.597280	0.395611	0.108025
	H53	H	0.599873	0.594949	0.873129
	H54	H	0.412284	0.586097	0.106274
	H55	H	0.412706	0.404901	0.877164
	H56	H	0.122697	0.584065	0.399813
	H57	H	0.891609	0.581153	0.584936
	H58	H	0.124621	0.394698	0.583791
	H59	H	0.895166	0.406738	0.409716
	H60	H	0.120601	0.407522	0.583152
	H61	H	0.888847	0.589267	0.586507
	H62	H	0.124665	0.584760	0.395932
	H63	H	0.890490	0.411650	0.387629
	H64	H	0.416170	0.585965	0.104774
	H65	H	0.605463	0.582587	0.874933
	H66	H	0.605471	0.401162	0.108016
	H67	H	0.414414	0.399348	0.876378
	H68	H	0.586751	0.106495	0.401253
	H69	H	0.601068	0.872997	0.594896
	H70	H	0.416783	0.109673	0.579674
	H71	H	0.418393	0.877308	0.397197
	H72	H	0.910956	0.613699	0.087942
	H73	H	0.096829	0.377632	0.085852
	H74	H	0.099058	0.609573	0.904740
	H75	H	0.910455	0.374298	0.895564
	H76	H	0.100339	0.891217	0.607878
	H77	H	0.091768	0.091747	0.376925
	H78	H	0.916961	0.093862	0.607810
	H79	H	0.916649	0.908034	0.378659
	H80	H	0.625693	0.093712	0.896629
	H81	H	0.391098	0.084308	0.081996
	H82	H	0.624632	0.897183	0.083449
	H83	H	0.394241	0.905738	0.904119
	H84	H	0.622122	0.904475	0.081687
	H85	H	0.391797	0.084617	0.082501
	H86	H	0.621564	0.085001	0.902902
	H87	H	0.390866	0.909265	0.888538
	H88	H	0.907531	0.083405	0.607645
	H89	H	0.107167	0.093346	0.370794
	H90	H	0.111455	0.902763	0.608296
	H91	H	0.916205	0.896365	0.375477
	H92	H	0.101128	0.613560	0.895119
	H93	H	0.100760	0.377123	0.082397
	H94	H	0.922626	0.608225	0.084286
	H95	H	0.918787	0.377045	0.896768
	H96	H	0.413684	0.111552	0.582708
	H97	H	0.589401	0.881119	0.580888
	H98	H	0.609551	0.112049	0.406420
	H99	H	0.413685	0.876404	0.399202
	H100	H	0.596936	0.404371	0.104142
	H101	H	0.592559	0.584275	0.877690
	H102	H	0.414475	0.589310	0.106324
	H103	H	0.408995	0.400630	0.874092
	H104	H	0.124308	0.588147	0.399170
	H105	H	0.891663	0.587910	0.579319
	H106	H	0.125382	0.401605	0.594553
	H107	H	0.886451	0.390363	0.396069
	H108	H	0.913393	0.608292	0.075596
	H109	H	0.101045	0.375231	0.086954
	H110	H	0.090839	0.609610	0.897146
	H111	H	0.912621	0.377336	0.902832
	H112	H	0.096791	0.906060	0.603473
	H113	H	0.101456	0.078774	0.377557
	H114	H	0.920634	0.081068	0.602856
	H115	H	0.907038	0.903143	0.373754
	H116	H	0.623774	0.083076	0.892069
	H117	H	0.391929	0.084248	0.082173
	H118	H	0.625110	0.902580	0.089415
	H119	H	0.387960	0.894450	0.894448
	C120	C	0.387401	0.001809	0.610945
	C121	C	0.629121	0.985291	0.612498
	C122	C	0.628326	0.003154	0.369408
	C123	C	0.386079	0.985055	0.368179
	C124	C	0.628334	0.371566	-0.000317
	C125	C	0.628466	0.616046	0.982450
	C126	C	0.384380	0.616159	-0.001518
	C127	C	0.383917	0.371832	0.982996
	C128	C	0.015575	0.614893	0.369184
	C129	C	0.998635	0.615070	0.612944
	C130	C	0.015276	0.371741	0.614243
	C131	C	0.998560	0.372996	0.369899
	C132	C	0.886185	0.501721	0.112060
	C133	C	0.128596	0.484901	0.113251
	C134	C	0.126468	0.502142	0.871082
	C135	C	0.884668	0.484907	0.869502
	C136	C	0.130311	0.871355	0.498868
	C137	C	0.129414	0.115779	0.482747
	C138	C	0.885427	0.115598	0.499169
	C139	C	0.885490	0.872333	0.483182
	C140	C	0.515295	0.115932	0.868235
	C141	C	0.498908	0.114766	0.111469
	C142	C	0.515603	0.872509	0.112341
	C143	C	0.498871	0.873038	0.868407
	C144	C	0.389388	0.878500	0.667090
	C145	C	0.628369	0.109011	0.667149
	C146	C	0.626939	0.879398	0.314380
	C147	C	0.387707	0.108904	0.312907
	C148	C	0.683913	0.373904	0.877693
	C149	C	0.684565	0.613449	0.104984
	C150	C	0.327507	0.614455	0.876937
	C151	C	0.329732	0.373356	0.105299
	C152	C	0.892791	0.671007	0.370507
	C153	C	0.122050	0.669767	0.611076
	C154	C	0.891711	0.317065	0.609377
	C155	C	0.122474	0.318096	0.374519
	C156	C	0.892198	0.373202	0.668229
	C157	C	0.121102	0.613275	0.670111
	C158	C	0.893171	0.614211	0.312335
	C159	C	0.121491	0.372675	0.314285
	C160	C	0.386245	0.671580	0.876170
	C161	C	0.626107	0.670788	0.104930
	C162	C	0.624513	0.317932	0.876725
	C163	C	0.386988	0.315027	0.104965
	C164	C	0.683535	0.878982	0.372653
	C165	C	0.684784	0.108911	0.609527
	C166	C	0.333026	0.877854	0.608280
	C167	C	0.331095	0.109189	0.370941
	C168	C	0.887114	0.378620	0.168640
	C169	C	0.127238	0.608417	0.168267
	C170	C	0.124857	0.378401	0.816815
	C171	C	0.885321	0.608083	0.812828
	C172	C	0.184606	0.873563	0.376442
	C173	C	0.185753	0.112027	0.604964
	C174	C	0.828520	0.114754	0.377302
	C175	C	0.830077	0.872985	0.605040
	C176	C	0.391965	0.171098	0.869962
	C177	C	0.622298	0.169976	0.108963
	C178	C	0.391940	0.817995	0.107997
	C179	C	0.622395	0.817984	0.873017
	C180	C	0.392806	0.873279	0.167686
	C181	C	0.621657	0.114473	0.168407
	C182	C	0.392983	0.114800	0.810824
	C183	C	0.622245	0.874326	0.814368
	C184	C	0.886896	0.172417	0.377049
	C185	C	0.127073	0.169355	0.605457
	C186	C	0.126206	0.816736	0.376473
	C187	C	0.889352	0.816441	0.605238
	C188	C	0.181725	0.378522	0.874348
	C189	C	0.184000	0.608660	0.110979
	C190	C	0.830377	0.378259	0.110403
	C191	C	0.829621	0.608668	0.871654
	C192	C	0.409574	0.088349	0.588411
	C193	C	0.606158	0.899038	0.590639
	C194	C	0.605742	0.089136	0.391075
	C195	C	0.408762	0.898759	0.390265
	C196	C	0.606372	0.393670	0.084828
	C197	C	0.605981	0.593893	0.897326
	C198	C	0.407596	0.593717	0.083875
	C199	C	0.405643	0.394910	0.897927
	C200	C	0.101653	0.592284	0.391774
	C201	C	0.912824	0.592823	0.590088
	C202	C	0.101224	0.394519	0.593400
	C203	C	0.913010	0.396052	0.391400
	C204	C	0.908848	0.587804	0.089314
	C205	C	0.106171	0.398899	0.091431
	C206	C	0.103795	0.588513	0.892674
	C207	C	0.907283	0.398449	0.891809
	C208	C	0.109000	0.893420	0.584447
	C209	C	0.106865	0.094244	0.397225
	C210	C	0.908377	0.092739	0.584129
	C211	C	0.907083	0.895636	0.397889
	C212	C	0.601423	0.093737	0.890619
	C213	C	0.413622	0.091291	0.088830
	C214	C	0.601442	0.894823	0.091142
	C215	C	0.413026	0.896274	0.889575
	Zn216	Zn	0.508438	-0.005751	0.739700
	Zn217	Zn	0.507416	-0.006100	0.240703
	Zn218	Zn	0.757358	0.493423	-0.008922
	Zn219	Zn	0.255446	0.494109	-0.008270
	Zn220	Zn	0.007741	0.743462	0.490418
	Zn221	Zn	0.007320	0.244948	0.491548
	Zn222	Zn	0.006148	0.493608	0.742380
	Zn223	Zn	0.007473	0.493562	0.240991
	Zn224	Zn	0.506688	0.744815	-0.010185
	Zn225	Zn	0.506548	0.243333	-0.009328
	Zn226	Zn	0.755739	-0.006207	0.491542
	Zn227	Zn	0.258500	-0.006754	0.489625
	N228	N	0.422375	0.956722	0.668668
	N229	N	0.594633	0.030976	0.669326
	N230	N	0.593460	0.957330	0.312239
	N231	N	0.421291	0.030882	0.311270
	N232	N	0.686436	0.406709	0.955186
	N233	N	0.686374	0.580083	0.027728
	N234	N	0.326302	0.580767	0.954112
	N235	N	0.327962	0.408039	0.028560
	N236	N	0.969908	0.671307	0.405388
	N237	N	0.044874	0.670835	0.576161
	N238	N	0.969389	0.316125	0.576552
	N239	N	0.045349	0.318145	0.408415
	N240	N	0.969994	0.406301	0.671579
	N241	N	0.043238	0.580209	0.671598
	N242	N	0.970803	0.580399	0.311150
	N243	N	0.043618	0.406050	0.311208
	N244	N	0.420736	0.672971	0.952952
	N245	N	0.592042	0.672445	0.027979
	N246	N	0.590696	0.316504	0.953396
	N247	N	0.419930	0.313772	0.027822
	N248	N	0.684402	0.956764	0.406309
	N249	N	0.685332	0.031089	0.576245
	N250	N	0.331670	0.955636	0.574074
	N251	N	0.329821	0.031061	0.404616
	N252	N	0.921179	0.456417	0.169652
	N253	N	0.093457	0.530597	0.169885
	N254	N	0.091229	0.456460	0.814635
	N255	N	0.918720	0.529982	0.811384
	N256	N	0.187157	0.906861	0.453499
	N257	N	0.187177	0.079313	0.527586
	N258	N	0.827591	0.080093	0.454087
	N259	N	0.827758	0.907257	0.528024
	N260	N	0.468930	0.171694	0.905004
	N261	N	0.545041	0.170259	0.074272
	N262	N	0.469215	0.817221	0.074402
	N263	N	0.544776	0.817310	0.906015
	N264	N	0.470733	0.906356	0.170588
	N265	N	0.544067	0.080877	0.170299
	N266	N	0.470816	0.081338	0.809553
	N267	N	0.544527	0.908026	0.811531
	N268	N	0.921581	0.173155	0.453841
	N269	N	0.092827	0.171807	0.528578
	N270	N	0.093187	0.815329	0.453684
	N271	N	0.922781	0.815698	0.528402
	N272	N	0.182842	0.456568	0.907427
	N273	N	0.184867	0.530971	0.077302
	N274	N	0.829741	0.455827	0.075843
	N275	N	0.828871	0.531027	0.906067
	O276	O	1.069028	0.942046	0.043083
	H277	H	1.065544	0.932178	0.042918
	H278	H	1.079529	0.934433	0.050458
	O279	O	0.478461	0.512600	0.512565
	H280	H	0.479084	0.520360	0.511583
	H281	H	0.472096	0.513269	0.511657
	O282	O	-0.000980	-0.005033	0.089555
	H283	H	-0.004722	-0.008574	0.090349
	H284	H	-0.004962	-0.002751	0.089174
	O285	O	0.513289	0.529378	0.499442
	H286	H	0.518528	0.517596	0.507164
	H287	H	0.506491	0.537586	0.494273
	O288	O	0.058272	-0.049944	-0.084392
	H289	H	0.062226	-0.042799	-0.088493
	H290	H	0.061161	-0.048027	-0.083957
	O291	O	0.081170	0.986920	0.003820
	H292	H	0.084427	0.984624	0.000611
	H293	H	0.089250	0.994302	0.004943
	O294	O	0.097058	1.024416	0.016778
	H295	H	0.093208	1.032551	0.016904
	H296	H	0.106774	1.011596	0.021019
	O297	O	0.468629	0.566243	0.503201
	H298	H	0.476287	0.576669	0.508298
	H299	H	0.466149	0.570970	0.496021
	O300	O	0.440515	0.491862	0.498927
	H301	H	0.448042	0.480735	0.509448
	H302	H	0.435832	0.487256	0.488918
	O303	O	0.949601	0.047673	0.944545
	H304	H	0.946902	0.045539	0.946086
	H305	H	0.952153	0.053756	0.953690
	O306	O	-0.043887	1.000056	0.976031
	H307	H	-0.034561	1.003075	0.989350
	H308	H	-0.037789	0.988305	0.967312
	O309	O	-0.010108	1.024974	0.990810
	H310	H	-0.006764	1.037226	0.996192
	H311	H	-0.018023	1.020674	0.993756
	O312	O	-0.010203	0.009341	1.096238
	H313	H	-0.007190	0.007483	1.089970
	H314	H	-0.006111	0.007433	1.103316
	O315	O	0.516007	0.501548	0.520984
	H316	H	0.514986	0.507419	0.520126
	H317	H	0.513495	0.503970	0.533318
	O318	O	0.048969	0.043052	1.040060
	H319	H	0.035083	0.047975	1.041480
	H320	H	0.058113	0.046438	1.040832
	O321	O	-0.052740	-0.009124	0.958235
	H322	H	-0.051252	-0.012406	0.946500
	H323	H	-0.058800	-0.008271	0.949667
	O324	O	1.001030	-0.083944	0.981784
	H325	H	1.001532	-0.074873	0.977451
	H326	H	0.985930	-0.078853	0.979053
	O327	O	0.920405	0.993467	0.928157
	H328	H	0.912299	0.992906	0.928349
	H329	H	0.924854	0.982877	0.923342
	O330	O	0.064534	1.062015	1.046202
	H331	H	0.057654	1.066990	1.039605
	H332	H	0.075206	1.067727	1.049466
	O333	O	0.432329	0.552154	0.430712
	H334	H	0.435764	0.537694	0.429174
	H335	H	0.441543	0.556854	0.421171
	O336	O	0.523864	0.444651	0.528654
	H337	H	0.522374	0.453264	0.534890
	H338	H	0.530825	0.444223	0.537665
	O339	O	0.469309	0.476446	0.488290
	H340	H	0.467934	0.467246	0.487514
	H341	H	0.475960	0.477996	0.493885
	O342	O	0.512988	0.530009	0.441346
	H343	H	0.510297	0.537418	0.433848
	H344	H	0.506774	0.526445	0.441494
	O345	O	0.424614	0.508958	0.521800
	H346	H	0.417321	0.510214	0.514221
	H347	H	0.419561	0.509696	0.517303
