data_Molecule from HDF5

_cell_length_a		16.468776
_cell_length_b		16.387579
_cell_length_c		16.403004
_cell_angle_alpha	89.998390
_cell_angle_beta	90.073743
_cell_angle_gamma	90.100657
_symmetry_space_group_name_H-M	'P 1'
_symmetry_Int_Tables_number		1

loop_
	_symmetry_equiv_pos_as_xyz
	x,y,z

loop_
	_atom_site_label
	_atom_site_type_symbol
	_atom_site_fract_x
	_atom_site_fract_y
	_atom_site_fract_z
	H0	H	0.387535	0.843360	0.723596
	H1	H	0.596533	0.162506	0.722728
	H2	H	0.595131	0.843172	0.284729
	H3	H	0.385033	0.160352	0.278740
	H4	H	0.715394	0.396660	0.845230
	H5	H	0.715831	0.608690	0.161007
	H6	H	0.270801	0.608960	0.845007
	H7	H	0.271715	0.397137	0.161909
	H8	H	0.835339	0.722776	0.399331
	H9	H	0.151503	0.726615	0.609138
	H10	H	0.836346	0.280788	0.608708
	H11	H	0.151304	0.279136	0.394660
	H12	H	0.836027	0.398745	0.723005
	H13	H	0.152331	0.610520	0.724819
	H14	H	0.837267	0.609612	0.280457
	H15	H	0.153274	0.399164	0.282072
	H16	H	0.389132	0.722263	0.842888
	H17	H	0.598835	0.723321	0.161087
	H18	H	0.594898	0.284153	0.843078
	H19	H	0.386364	0.280484	0.161590
	H20	H	0.712057	0.843850	0.399802
	H21	H	0.714636	0.162049	0.608084
	H22	H	0.269698	0.844835	0.609933
	H23	H	0.270369	0.160795	0.395266
	H24	H	0.887266	0.345237	0.226017
	H25	H	0.100448	0.662923	0.223760
	H26	H	0.100411	0.345991	0.779139
	H27	H	0.889381	0.663088	0.782190
	H28	H	0.216177	0.894670	0.344879
	H29	H	0.217240	0.111043	0.659539
	H30	H	0.772299	0.108168	0.342834
	H31	H	0.770079	0.895767	0.660877
	H32	H	0.336161	0.226893	0.894252
	H33	H	0.651814	0.223826	0.108337
	H34	H	0.335805	0.777680	0.108424
	H35	H	0.652215	0.780887	0.896469
	H36	H	0.334972	0.892908	0.225342
	H37	H	0.651556	0.106684	0.223878
	H38	H	0.335797	0.109686	0.778629
	H39	H	0.651174	0.896228	0.779655
	H40	H	0.888862	0.224459	0.343011
	H41	H	0.100349	0.225705	0.660491
	H42	H	0.097317	0.782708	0.342990
	H43	H	0.888516	0.782298	0.661893
	H44	H	0.215863	0.345560	0.895685
	H45	H	0.218117	0.660987	0.111178
	H46	H	0.770894	0.345304	0.111972
	H47	H	0.771978	0.661503	0.896891
	H48	H	0.405506	0.115111	0.590091
	H49	H	0.588323	0.887461	0.590348
	H50	H	0.585746	0.119144	0.409281
	H51	H	0.406985	0.891342	0.416086
	H52	H	0.582956	0.412127	0.117393
	H53	H	0.587446	0.591534	0.887852
	H54	H	0.395086	0.590827	0.119198
	H55	H	0.399830	0.415643	0.888909
	H56	H	0.107226	0.593080	0.413606
	H57	H	0.882494	0.591386	0.589974
	H58	H	0.106392	0.412406	0.586301
	H59	H	0.881391	0.413600	0.412987
	H60	H	0.104305	0.420084	0.588859
	H61	H	0.880559	0.591688	0.595123
	H62	H	0.108214	0.594648	0.414116
	H63	H	0.882668	0.414090	0.416370
	H64	H	0.409375	0.580388	0.110361
	H65	H	0.582159	0.588030	0.890661
	H66	H	0.585211	0.414439	0.117185
	H67	H	0.406500	0.419327	0.892586
	H68	H	0.577194	0.115833	0.412331
	H69	H	0.579387	0.888888	0.596847
	H70	H	0.404782	0.115285	0.590566
	H71	H	0.401474	0.889913	0.417565
	H72	H	0.906693	0.611692	0.081471
	H73	H	0.078548	0.393041	0.086897
	H74	H	0.083901	0.616754	0.915556
	H75	H	0.908009	0.391249	0.912611
	H76	H	0.077392	0.913846	0.615404
	H77	H	0.082394	0.091403	0.389095
	H78	H	0.903150	0.087680	0.614116
	H79	H	0.898288	0.919856	0.389879
	H80	H	0.606847	0.097627	0.915038
	H81	H	0.379517	0.091457	0.093163
	H82	H	0.606575	0.911651	0.093797
	H83	H	0.380281	0.909599	0.912180
	H84	H	0.605137	0.913803	0.091314
	H85	H	0.380752	0.092722	0.088038
	H86	H	0.603127	0.088077	0.917847
	H87	H	0.382007	0.912624	0.917517
	H88	H	0.908579	0.093585	0.613752
	H89	H	0.081786	0.088298	0.390399
	H90	H	0.085061	0.914076	0.616336
	H91	H	0.909248	0.912591	0.390576
	H92	H	0.082013	0.616562	0.912569
	H93	H	0.087443	0.389118	0.090838
	H94	H	0.896167	0.620247	0.093814
	H95	H	0.904200	0.391077	0.916220
	H96	H	0.405663	0.115626	0.590310
	H97	H	0.579401	0.892643	0.586162
	H98	H	0.584264	0.116921	0.418345
	H99	H	0.404058	0.888638	0.412017
	H100	H	0.581928	0.414688	0.115770
	H101	H	0.581128	0.594179	0.888572
	H102	H	0.413370	0.599455	0.116161
	H103	H	0.406963	0.411103	0.889932
	H104	H	0.107489	0.593058	0.414937
	H105	H	0.880113	0.596156	0.591514
	H106	H	0.108825	0.414576	0.594351
	H107	H	0.883024	0.416524	0.413514
	H108	H	0.913397	0.616553	0.097904
	H109	H	0.079222	0.389686	0.096587
	H110	H	0.080649	0.615906	0.916354
	H111	H	0.903378	0.388680	0.911189
	H112	H	0.081062	0.920231	0.613020
	H113	H	0.078994	0.090844	0.390661
	H114	H	0.901445	0.094857	0.616968
	H115	H	0.898321	0.907483	0.386096
	H116	H	0.606170	0.090393	0.907935
	H117	H	0.382546	0.088016	0.090402
	H118	H	0.604985	0.915014	0.094567
	H119	H	0.381547	0.915953	0.912075
	C120	C	0.371916	0.011006	0.623823
	C121	C	0.614787	0.994896	0.623886
	C122	C	0.613369	0.011512	0.382094
	C123	C	0.371016	0.994179	0.381128
	C124	C	0.614994	0.381615	0.011765
	C125	C	0.615508	0.623607	0.993986
	C126	C	0.372820	0.623254	0.010716
	C127	C	0.371270	0.381606	0.994861
	C128	C	0.003196	0.625122	0.381853
	C129	C	0.985534	0.625724	0.624531
	C130	C	0.002455	0.382407	0.623380
	C131	C	0.986403	0.382085	0.381291
	C132	C	0.872454	0.511874	0.124839
	C133	C	0.114890	0.495225	0.124060
	C134	C	0.114973	0.511907	0.881585
	C135	C	0.872649	0.494909	0.881158
	C136	C	0.114012	0.882531	0.510505
	C137	C	0.114862	0.124118	0.494235
	C138	C	0.871931	0.125006	0.510200
	C139	C	0.870466	0.881154	0.493875
	C140	C	0.501293	0.124650	0.880752
	C141	C	0.484808	0.123777	0.123935
	C142	C	0.501444	0.879874	0.125247
	C143	C	0.485429	0.880625	0.881235
	C144	C	0.369030	0.891415	0.683966
	C145	C	0.616082	0.114455	0.683635
	C146	C	0.613977	0.890953	0.323877
	C147	C	0.367370	0.112643	0.319190
	C148	C	0.674996	0.378844	0.892507
	C149	C	0.675378	0.626215	0.113442
	C150	C	0.311590	0.626593	0.891894
	C151	C	0.311010	0.378601	0.113906
	C152	C	0.883399	0.683751	0.380330
	C153	C	0.104271	0.686242	0.627219
	C154	C	0.883698	0.321451	0.626315
	C155	C	0.104468	0.320405	0.377445
	C156	C	0.883641	0.380049	0.683513
	C157	C	0.104799	0.628304	0.684752
	C158	C	0.884254	0.627310	0.321217
	C159	C	0.105397	0.380023	0.321313
	C160	C	0.370583	0.683057	0.890989
	C161	C	0.617402	0.683492	0.113436
	C162	C	0.615288	0.322687	0.891402
	C163	C	0.368750	0.320796	0.113856
	C164	C	0.671980	0.891353	0.381273
	C165	C	0.674710	0.114460	0.626515
	C166	C	0.310414	0.892173	0.627272
	C167	C	0.310122	0.113042	0.377444
	C168	C	0.869443	0.393056	0.186349
	C169	C	0.118561	0.614776	0.184410
	C170	C	0.118204	0.393302	0.820115
	C171	C	0.870388	0.614782	0.821417
	C172	C	0.175147	0.878327	0.391923
	C173	C	0.176265	0.128366	0.612606
	C174	C	0.812047	0.126779	0.390910
	C175	C	0.810103	0.877736	0.613292
	C176	C	0.383079	0.185812	0.877080
	C177	C	0.604122	0.183910	0.126676
	C178	C	0.383127	0.818019	0.127463
	C179	C	0.604707	0.820841	0.878652
	C180	C	0.382794	0.875734	0.185659
	C181	C	0.603863	0.125690	0.184449
	C182	C	0.382969	0.127364	0.819314
	C183	C	0.604077	0.878151	0.820428
	C184	C	0.870089	0.184569	0.390722
	C185	C	0.118091	0.185526	0.613031
	C186	C	0.116160	0.822131	0.391099
	C187	C	0.869352	0.821441	0.613856
	C188	C	0.175467	0.392941	0.878421
	C189	C	0.176993	0.613967	0.127930
	C190	C	0.811564	0.392938	0.128952
	C191	C	0.812039	0.614080	0.878587
	C192	C	0.397807	0.093878	0.597712
	C193	C	0.589623	0.911189	0.598491
	C194	C	0.589331	0.095421	0.406238
	C195	C	0.396773	0.911629	0.407590
	C196	C	0.590204	0.406516	0.095087
	C197	C	0.590744	0.598438	0.910595
	C198	C	0.398599	0.597513	0.093613
	C199	C	0.397056	0.407852	0.912027
	C200	C	0.086059	0.600628	0.406992
	C201	C	0.902690	0.600456	0.599406
	C202	C	0.085096	0.408208	0.597406
	C203	C	0.903867	0.407502	0.406941
	C204	C	0.897922	0.594598	0.098386
	C205	C	0.089169	0.412309	0.098777
	C206	C	0.089523	0.594879	0.907549
	C207	C	0.897846	0.411944	0.906253
	C208	C	0.088405	0.908473	0.593193
	C209	C	0.088609	0.097803	0.411572
	C210	C	0.897287	0.099466	0.593414
	C211	C	0.894799	0.906178	0.410695
	C212	C	0.583878	0.099331	0.906288
	C213	C	0.402361	0.098165	0.098072
	C214	C	0.584051	0.905961	0.100317
	C215	C	0.402925	0.905572	0.906722
	Zn216	Zn	0.493113	0.001982	0.752175
	Zn217	Zn	0.492469	0.002265	0.253320
	Zn218	Zn	0.744240	0.502833	0.003119
	Zn219	Zn	0.242879	0.503580	0.003361
	Zn220	Zn	-0.006204	0.754009	0.503092
	Zn221	Zn	-0.005934	0.253241	0.502013
	Zn222	Zn	-0.005925	0.503901	0.752513
	Zn223	Zn	-0.005024	0.503822	0.252780
	Zn224	Zn	0.494030	0.752015	0.002475
	Zn225	Zn	0.492893	0.253381	0.003339
	Zn226	Zn	0.743160	0.003424	0.502380
	Zn227	Zn	0.243145	0.002688	0.502838
	N228	N	0.406783	0.966196	0.681806
	N229	N	0.579670	0.038899	0.681994
	N230	N	0.578101	0.966693	0.324546
	N231	N	0.404187	0.037686	0.321219
	N232	N	0.675251	0.414343	0.968485
	N233	N	0.674428	0.589663	0.038073
	N234	N	0.312815	0.590175	0.967303
	N235	N	0.312446	0.415499	0.038727
	N236	N	0.958365	0.682520	0.417232
	N237	N	0.029297	0.684909	0.590759
	N238	N	0.958822	0.322551	0.589907
	N239	N	0.029400	0.321616	0.413874
	N240	N	0.958639	0.417095	0.681750
	N241	N	0.029715	0.591312	0.683341
	N242	N	0.959619	0.591486	0.322019
	N243	N	0.030898	0.417557	0.323455
	N244	N	0.407944	0.681104	0.965876
	N245	N	0.580675	0.681621	0.038285
	N246	N	0.579021	0.324120	0.966728
	N247	N	0.405349	0.322310	0.038516
	N248	N	0.671867	0.967361	0.416572
	N249	N	0.674071	0.038860	0.590315
	N250	N	0.311978	0.967667	0.590710
	N251	N	0.312258	0.038147	0.415248
	N252	N	0.906746	0.468127	0.184093
	N253	N	0.080447	0.540176	0.181933
	N254	N	0.081465	0.468203	0.822062
	N255	N	0.907498	0.539739	0.822803
	N256	N	0.173983	0.915090	0.467124
	N257	N	0.174544	0.091057	0.537711
	N258	N	0.813061	0.090590	0.466578
	N259	N	0.810708	0.914242	0.537867
	N260	N	0.457434	0.184064	0.914790
	N261	N	0.529092	0.182975	0.089984
	N262	N	0.458034	0.820255	0.090607
	N263	N	0.529964	0.822483	0.915948
	N264	N	0.457264	0.913566	0.184125
	N265	N	0.528630	0.089168	0.183090
	N266	N	0.457744	0.090076	0.821397
	N267	N	0.529150	0.914885	0.821924
	N268	N	0.906606	0.183637	0.466136
	N269	N	0.080709	0.183140	0.538210
	N270	N	0.078592	0.824794	0.465727
	N271	N	0.906276	0.823279	0.538758
	N272	N	0.173495	0.467920	0.916071
	N273	N	0.174901	0.538694	0.091148
	N274	N	0.813343	0.467830	0.091311
	N275	N	0.813267	0.538608	0.915040
	O276	O	0.410848	0.578525	0.353420
	H277	H	0.410372	0.579608	0.357539
	H278	H	0.420764	0.584227	0.357353
	O279	O	0.419676	0.549149	0.406125
	H280	H	0.406545	0.540171	0.418914
	H281	H	0.423921	0.535751	0.390725
	O282	O	0.538565	0.348323	0.699147
	H283	H	0.548011	0.358095	0.711476
	H284	H	0.542128	0.337108	0.694671
	O285	O	1.214014	0.934484	-0.041441
	H286	H	1.208975	0.934165	-0.085240
	H287	H	1.229792	0.904956	-0.024849
	O288	O	0.661135	0.551813	0.584960
	H289	H	0.660060	0.561277	0.558168
	H290	H	0.636741	0.555306	0.586874
	O291	O	0.809848	0.187195	0.814033
	H292	H	0.821336	0.186178	0.810292
	H293	H	0.795755	0.199001	0.857922
	O294	O	0.813217	1.011839	1.178826
	H295	H	0.799402	1.006804	1.176387
	H296	H	0.818598	1.012201	1.175047
	O297	O	0.460401	0.505201	0.672366
	H298	H	0.458644	0.520913	0.681309
	H299	H	0.466733	0.518532	0.672960
	O300	O	0.355436	0.568007	0.443503
	H301	H	0.351868	0.559524	0.439316
	H302	H	0.367613	0.550938	0.436302
	O303	O	0.664081	0.487602	0.525687
	H304	H	0.666842	0.497157	0.531316
	H305	H	0.669513	0.494948	0.530208
	O306	O	0.379966	-0.382465	1.523251
	H307	H	0.364127	-0.388252	1.514450
	H308	H	0.374840	-0.382146	1.532806
	O309	O	1.039218	0.209709	-0.090735
	H310	H	1.035862	0.223714	-0.110237
	H311	H	1.043882	0.204454	-0.101079
	O312	O	0.502673	0.317408	0.602619
	H313	H	0.499092	0.315210	0.596138
	H314	H	0.509016	0.326901	0.599467
	O315	O	-0.158443	-0.120254	1.069551
	H316	H	-0.156077	-0.137837	1.069615
	H317	H	-0.144256	-0.118523	1.047793
	O318	O	0.056177	-0.085045	-0.185518
	H319	H	0.034382	-0.072511	-0.195903
	H320	H	0.060285	-0.087653	-0.183325
	O321	O	0.785462	0.025314	-0.212214
	H322	H	0.770975	0.041936	-0.222742
	H323	H	0.788338	0.037907	-0.215731
	O324	O	0.819335	-0.198633	1.019609
	H325	H	0.808968	-0.204892	1.036301
	H326	H	0.821238	-0.196117	1.035674
	O327	O	0.517131	0.632390	0.545859
	H328	H	0.491943	0.638337	0.537163
	H329	H	0.503186	0.633458	0.550907
	O330	O	-0.211166	0.839222	1.208069
	H331	H	-0.199276	0.838688	1.218207
	H332	H	-0.192855	0.847982	1.205613
	O333	O	0.203214	1.212883	0.021871
	H334	H	0.218814	1.210417	0.006718
	H335	H	0.208116	1.215731	0.010048
	O336	O	1.176816	1.184729	0.185058
	H337	H	1.187149	1.186639	0.154346
	H338	H	1.143869	1.194658	0.174456
	O339	O	0.195455	0.985232	0.969966
	H340	H	0.186602	0.974184	0.980817
	H341	H	0.204531	0.979902	0.984519
	O342	O	0.502556	0.393280	0.521969
	H343	H	0.493956	0.398979	0.511998
	H344	H	0.510304	0.393020	0.515417
	O345	O	0.206858	0.026635	1.218107
	H346	H	0.234178	0.027956	1.232371
	H347	H	0.207108	0.061271	1.217533
	O348	O	0.524371	0.288607	0.311210
	H349	H	0.536862	0.269236	0.291724
	H350	H	0.556936	0.289152	0.312909
	O351	O	1.153201	1.159172	-0.263399
	H352	H	1.137918	1.148230	-0.236764
	H353	H	1.132750	1.145016	-0.272617
	O354	O	0.874253	1.082292	1.090413
	H355	H	0.876241	1.077065	1.085589
	H356	H	0.880413	1.096611	1.079352
	O357	O	0.180186	-0.189974	-0.103650
	H358	H	0.152718	-0.198947	-0.113114
	H359	H	0.181573	-0.180027	-0.119503
	O360	O	0.686703	0.543385	0.408968
	H361	H	0.688424	0.554739	0.416137
	H362	H	0.691413	0.552685	0.407521
	O363	O	1.628381	0.674482	0.347382
	H364	H	1.630029	0.694063	0.341914
	H365	H	1.608323	0.672008	0.351601
	O366	O	-0.006262	-0.065847	0.964902
	H367	H	-0.013896	-0.041835	0.960826
	H368	H	0.001256	-0.068652	0.960113
	O369	O	0.642392	0.434348	0.665929
	H370	H	0.644219	0.450367	0.653789
	H371	H	0.648328	0.448607	0.680308
	O372	O	0.695379	0.355639	0.506785
	H373	H	0.703417	0.339308	0.516139
	H374	H	0.696361	0.358354	0.509907
	O375	O	0.103728	-0.093761	1.122794
	H376	H	0.097457	-0.097041	1.102311
	H377	H	0.111059	-0.083978	1.133237
	O378	O	-0.043745	0.162762	0.032643
	H379	H	-0.036859	0.172664	0.041595
	H380	H	-0.012618	0.153188	0.039623
	O381	O	0.005279	0.965358	-0.214694
	H382	H	-0.008645	0.962857	-0.216806
	H383	H	0.001964	0.959239	-0.206209
	O384	O	0.009378	1.199100	1.208439
	H385	H	0.015427	1.198319	1.215899
	H386	H	-0.002726	1.197823	1.222626
	O387	O	0.685116	0.627469	0.505387
	H388	H	0.677637	0.627685	0.497274
	H389	H	0.689195	0.636814	0.507158
	O390	O	0.992455	1.208380	-0.178703
	H391	H	0.974312	1.214893	-0.193822
	H392	H	0.985244	1.194390	-0.193362
	O393	O	0.353832	0.591581	0.335309
	H394	H	0.345969	0.569605	0.333195
	H395	H	0.357742	0.600041	0.343244
	O396	O	0.995480	-0.168077	0.115673
	H397	H	0.998884	-0.178647	0.120965
	H398	H	1.012050	-0.154536	0.120582
	O399	O	0.486041	0.615062	0.331649
	H400	H	0.484187	0.610786	0.319459
	H401	H	0.481886	0.622811	0.348286
	O402	O	1.010433	0.966785	0.060469
	H403	H	1.009385	0.948172	0.059941
	H404	H	1.019247	0.985686	0.058187
	O405	O	0.406559	0.364948	0.419812
	H406	H	0.419156	0.357747	0.418020
	H407	H	0.419749	0.363711	0.420415
	O408	O	0.455881	0.615090	0.637252
	H409	H	0.463092	0.603656	0.634750
	H410	H	0.437985	0.609514	0.640191
	O411	O	0.926402	0.804380	0.939029
	H412	H	0.935683	0.805044	0.948849
	H413	H	0.896527	0.796716	0.943129
	O414	O	0.455547	0.537039	0.544506
	H415	H	0.463338	0.519906	0.537870
	H416	H	0.441880	0.531222	0.549848
	O417	O	-0.010516	0.970333	1.214730
	H418	H	0.019593	0.959696	1.209979
	H419	H	-0.023034	0.961459	1.211445
	O420	O	-0.099268	0.986317	0.986253
	H421	H	-0.103507	0.981098	0.975270
	H422	H	-0.095830	0.985790	1.000062
	O423	O	0.062207	0.901293	-0.180650
	H424	H	0.062201	0.910836	-0.181267
	H425	H	0.062044	0.896267	-0.194413
	O426	O	0.297288	0.352932	0.578991
	H427	H	0.325822	0.348781	0.592781
	H428	H	0.284354	0.346269	0.555024
	O429	O	0.339587	0.494250	0.467881
	H430	H	0.346273	0.482654	0.461975
	H431	H	0.330445	0.485154	0.477358
	O432	O	0.298696	0.449015	0.689342
	H433	H	0.299716	0.434298	0.695787
	H434	H	0.293150	0.425959	0.693911
	O435	O	-0.222277	0.220982	-0.026898
	H436	H	-0.220200	0.226206	-0.004343
	H437	H	-0.229750	0.243149	-0.012292
	O438	O	0.465115	0.635119	0.574382
	H439	H	0.448158	0.636651	0.584379
	H440	H	0.470187	0.636443	0.558664
	O441	O	0.653971	0.354384	0.342494
	H442	H	0.657067	0.390791	0.334252
	H443	H	0.656986	0.361587	0.366216
