data_Molecule from HDF5

_cell_length_a		16.233657
_cell_length_b		16.349988
_cell_length_c		16.223968
_cell_angle_alpha	90.047001
_cell_angle_beta	89.573174
_cell_angle_gamma	89.895238
_symmetry_space_group_name_H-M	'P 1'
_symmetry_Int_Tables_number		1

loop_
	_symmetry_equiv_pos_as_xyz
	x,y,z

loop_
	_atom_site_label
	_atom_site_type_symbol
	_atom_site_fract_x
	_atom_site_fract_y
	_atom_site_fract_z
	H0	H	0.402808	0.833475	0.713253
	H1	H	0.601222	0.158367	0.714095
	H2	H	0.602685	0.833302	0.281248
	H3	H	0.403510	0.159663	0.283410
	H4	H	0.718385	0.396454	0.835190
	H5	H	0.713134	0.593908	0.163624
	H6	H	0.289210	0.592769	0.833527
	H7	H	0.284021	0.396193	0.162169
	H8	H	0.838288	0.712912	0.400889
	H9	H	0.164568	0.711934	0.600585
	H10	H	0.838010	0.281227	0.601499
	H11	H	0.164503	0.278857	0.396230
	H12	H	0.837329	0.399229	0.714026
	H13	H	0.165239	0.593977	0.711920
	H14	H	0.836779	0.595212	0.286817
	H15	H	0.165377	0.397021	0.282642
	H16	H	0.400867	0.711777	0.835227
	H17	H	0.599209	0.712225	0.162540
	H18	H	0.603468	0.279911	0.835634
	H19	H	0.398628	0.279164	0.162519
	H20	H	0.719931	0.833632	0.397564
	H21	H	0.714526	0.159571	0.595499
	H22	H	0.285532	0.833742	0.599792
	H23	H	0.285969	0.159317	0.400211
	H24	H	0.900006	0.333528	0.217224
	H25	H	0.100027	0.658998	0.214811
	H26	H	0.101423	0.333452	0.783140
	H27	H	0.902355	0.658929	0.785208
	H28	H	0.218814	0.896252	0.336065
	H29	H	0.215046	0.095637	0.663120
	H30	H	0.788204	0.096317	0.335326
	H31	H	0.784664	0.897514	0.662973
	H32	H	0.338625	0.212806	0.898736
	H33	H	0.663967	0.214054	0.099332
	H34	H	0.337494	0.781381	0.100287
	H35	H	0.663609	0.777297	0.895283
	H36	H	0.338938	0.895521	0.216778
	H37	H	0.666297	0.094785	0.209964
	H38	H	0.337676	0.094753	0.785579
	H39	H	0.665561	0.895523	0.781726
	H40	H	0.901695	0.213004	0.335976
	H41	H	0.099807	0.211501	0.662692
	H42	H	0.105114	0.778155	0.337196
	H43	H	0.899520	0.781369	0.663495
	H44	H	0.217003	0.332672	0.899571
	H45	H	0.215953	0.659320	0.098411
	H46	H	0.785998	0.332256	0.099239
	H47	H	0.785526	0.658207	0.901000
	H48	H	0.394314	0.115176	0.586762
	H49	H	0.585637	0.881523	0.593281
	H50	H	0.596057	0.112616	0.402660
	H51	H	0.420222	0.884287	0.407542
	H52	H	0.599018	0.404641	0.117514
	H53	H	0.589285	0.596030	0.881285
	H54	H	0.411007	0.588089	0.114381
	H55	H	0.404902	0.404115	0.881552
	H56	H	0.117735	0.591460	0.411891
	H57	H	0.885549	0.578185	0.598554
	H58	H	0.119928	0.404881	0.596745
	H59	H	0.884533	0.400828	0.409182
	H60	H	0.118915	0.395872	0.587865
	H61	H	0.879270	0.599578	0.599786
	H62	H	0.114942	0.582804	0.409049
	H63	H	0.885708	0.403927	0.411976
	H64	H	0.406286	0.593091	0.116623
	H65	H	0.603860	0.586079	0.879962
	H66	H	0.587282	0.409340	0.112185
	H67	H	0.412740	0.407476	0.884149
	H68	H	0.594412	0.111616	0.404019
	H69	H	0.595064	0.882759	0.580177
	H70	H	0.410305	0.115208	0.605755
	H71	H	0.404824	0.882165	0.414421
	H72	H	0.904179	0.612083	0.090503
	H73	H	0.086037	0.381158	0.097288
	H74	H	0.091613	0.610675	0.905930
	H75	H	0.911544	0.379067	0.902734
	H76	H	0.093391	0.903515	0.616792
	H77	H	0.087972	0.084102	0.385372
	H78	H	0.904425	0.089932	0.616446
	H79	H	0.908661	0.906349	0.382715
	H80	H	0.614712	0.087214	0.915528
	H81	H	0.386687	0.082754	0.090764
	H82	H	0.619991	0.901474	0.094752
	H83	H	0.385821	0.907284	0.908009
	H84	H	0.618810	0.896889	0.083493
	H85	H	0.383510	0.090693	0.096022
	H86	H	0.617380	0.079241	0.899981
	H87	H	0.383876	0.903042	0.901056
	H88	H	0.909237	0.087150	0.614421
	H89	H	0.093158	0.095394	0.381782
	H90	H	0.093300	0.903084	0.617017
	H91	H	0.916867	0.905245	0.384789
	H92	H	0.098557	0.611722	0.908124
	H93	H	0.091125	0.384265	0.081884
	H94	H	0.907327	0.613131	0.095679
	H95	H	0.912290	0.381488	0.909287
	H96	H	0.418481	0.106621	0.584101
	H97	H	0.601088	0.876782	0.594940
	H98	H	0.596862	0.112186	0.404588
	H99	H	0.407382	0.877615	0.397838
	H100	H	0.588571	0.396639	0.116784
	H101	H	0.588378	0.579679	0.886664
	H102	H	0.404154	0.586590	0.115063
	H103	H	0.412456	0.398567	0.881535
	H104	H	0.119445	0.588035	0.402134
	H105	H	0.887513	0.591204	0.580677
	H106	H	0.115876	0.407486	0.585377
	H107	H	0.885092	0.404447	0.407385
	H108	H	0.910265	0.609781	0.091379
	H109	H	0.101830	0.377312	0.093659
	H110	H	0.096366	0.613318	0.900961
	H111	H	0.905540	0.378710	0.907694
	H112	H	0.093352	0.903305	0.616346
	H113	H	0.100578	0.084877	0.381176
	H114	H	0.910166	0.092603	0.616238
	H115	H	0.912399	0.898575	0.382504
	H116	H	0.622423	0.097525	0.901609
	H117	H	0.386103	0.091454	0.085657
	H118	H	0.615289	0.909123	0.085884
	H119	H	0.383851	0.898611	0.908512
	C120	C	0.379196	0.004874	0.621264
	C121	C	0.622768	0.987697	0.618775
	C122	C	0.625623	0.004712	0.374547
	C123	C	0.381146	0.988609	0.377556
	C124	C	0.622623	0.373933	0.007674
	C125	C	0.621912	0.616869	0.990845
	C126	C	0.378773	0.617617	0.007011
	C127	C	0.379536	0.374078	0.990483
	C128	C	0.009495	0.617358	0.378956
	C129	C	0.992366	0.618038	0.621494
	C130	C	0.009924	0.374489	0.620442
	C131	C	0.992895	0.373752	0.377990
	C132	C	0.878283	0.504173	0.122267
	C133	C	0.122166	0.488023	0.120294
	C134	C	0.124338	0.504418	0.876291
	C135	C	0.880143	0.487299	0.877804
	C136	C	0.123533	0.874133	0.508445
	C137	C	0.122594	0.117491	0.490643
	C138	C	0.880099	0.118118	0.507365
	C139	C	0.881129	0.874780	0.491350
	C140	C	0.510078	0.117398	0.877156
	C141	C	0.493449	0.117414	0.119086
	C142	C	0.509932	0.874088	0.119148
	C143	C	0.492879	0.873760	0.875990
	C144	C	0.381883	0.882213	0.675977
	C145	C	0.620948	0.110176	0.675045
	C146	C	0.623770	0.882198	0.318961
	C147	C	0.383105	0.110998	0.321829
	C148	C	0.680077	0.375769	0.884411
	C149	C	0.676208	0.615202	0.114394
	C150	C	0.325136	0.614239	0.883224
	C151	C	0.322711	0.376155	0.113657
	C152	C	0.886851	0.674234	0.381032
	C153	C	0.115624	0.673592	0.619916
	C154	C	0.886932	0.319509	0.620273
	C155	C	0.116067	0.317843	0.377437
	C156	C	0.886634	0.378004	0.676552
	C157	C	0.115958	0.614832	0.675227
	C158	C	0.886180	0.615597	0.324204
	C159	C	0.115990	0.376313	0.320720
	C160	C	0.381090	0.673188	0.883829
	C161	C	0.619383	0.673982	0.113645
	C162	C	0.622731	0.318258	0.884400
	C163	C	0.379710	0.317873	0.113675
	C164	C	0.681803	0.882314	0.376962
	C165	C	0.677263	0.110559	0.616271
	C166	C	0.323839	0.882378	0.619282
	C167	C	0.324628	0.110700	0.379680
	C168	C	0.880130	0.381891	0.178534
	C169	C	0.120540	0.610195	0.176933
	C170	C	0.122172	0.382002	0.820817
	C171	C	0.882248	0.609976	0.823062
	C172	C	0.180600	0.875743	0.385200
	C173	C	0.177131	0.115439	0.614247
	C174	C	0.825706	0.116346	0.384168
	C175	C	0.823215	0.877251	0.613971
	C176	C	0.387562	0.174093	0.879051
	C177	C	0.615865	0.174454	0.117946
	C178	C	0.386681	0.818932	0.119575
	C179	C	0.615146	0.816595	0.876275
	C180	C	0.387200	0.875996	0.177195
	C181	C	0.616993	0.115181	0.173233
	C182	C	0.386907	0.115375	0.822771
	C183	C	0.616229	0.875506	0.819846
	C184	C	0.881812	0.174763	0.384834
	C185	C	0.119942	0.173210	0.614065
	C186	C	0.123947	0.817260	0.385637
	C187	C	0.880313	0.819240	0.614377
	C188	C	0.179529	0.381750	0.878780
	C189	C	0.177913	0.610469	0.118654
	C190	C	0.823179	0.381409	0.120086
	C191	C	0.823997	0.609692	0.880474
	C192	C	0.401318	0.090272	0.598894
	C193	C	0.600319	0.902508	0.596353
	C194	C	0.602641	0.090159	0.397077
	C195	C	0.403955	0.903281	0.400005
	C196	C	0.598768	0.396832	0.093463
	C197	C	0.600122	0.594061	0.904992
	C198	C	0.400598	0.595702	0.093155
	C199	C	0.403295	0.396586	0.904629
	C200	C	0.095161	0.594205	0.401234
	C201	C	0.906409	0.595979	0.599517
	C202	C	0.096108	0.396375	0.596764
	C203	C	0.907295	0.396450	0.402431
	C204	C	0.900762	0.589418	0.099258
	C205	C	0.099710	0.403113	0.097547
	C206	C	0.101986	0.589731	0.898375
	C207	C	0.902933	0.401977	0.900148
	C208	C	0.100309	0.896819	0.594296
	C209	C	0.100437	0.094761	0.404876
	C210	C	0.901656	0.096269	0.593513
	C211	C	0.905545	0.896939	0.405599
	C212	C	0.596034	0.094548	0.899210
	C213	C	0.407606	0.094872	0.097150
	C214	C	0.595790	0.896126	0.095081
	C215	C	0.406759	0.896459	0.898987
	Zn216	Zn	0.502099	-0.004049	0.747957
	Zn217	Zn	0.502390	-0.003850	0.246689
	Zn218	Zn	0.750637	0.495497	-0.000306
	Zn219	Zn	0.251512	0.496098	-0.001464
	Zn220	Zn	0.002164	0.745843	0.500638
	Zn221	Zn	0.001837	0.245779	0.499396
	Zn222	Zn	0.002128	0.495955	0.748260
	Zn223	Zn	0.000709	0.495871	0.250038
	Zn224	Zn	0.500031	0.745775	-0.001889
	Zn225	Zn	0.501591	0.246227	-0.001564
	Zn226	Zn	0.752750	-0.003548	0.498396
	Zn227	Zn	0.250893	-0.003653	0.499689
	N228	N	0.415641	0.959306	0.677445
	N229	N	0.587663	0.032772	0.676768
	N230	N	0.589600	0.959231	0.317448
	N231	N	0.417583	0.034046	0.320465
	N232	N	0.679996	0.409774	0.962047
	N233	N	0.677800	0.580276	0.037255
	N234	N	0.323668	0.580469	0.960864
	N235	N	0.322415	0.410417	0.036210
	N236	N	0.964662	0.675549	0.414107
	N237	N	0.037708	0.675922	0.587321
	N238	N	0.964760	0.317183	0.586094
	N239	N	0.038437	0.316059	0.412232
	N240	N	0.964333	0.411501	0.676675
	N241	N	0.038312	0.581141	0.676675
	N242	N	0.963344	0.580781	0.322902
	N243	N	0.038356	0.410279	0.320942
	N244	N	0.413335	0.675566	0.961916
	N245	N	0.586490	0.675196	0.035628
	N246	N	0.587991	0.316861	0.962008
	N247	N	0.414496	0.316720	0.036122
	N248	N	0.683065	0.959627	0.410706
	N249	N	0.678374	0.033615	0.582028
	N250	N	0.321976	0.959786	0.586020
	N251	N	0.323294	0.033627	0.413603
	N252	N	0.913464	0.459113	0.180097
	N253	N	0.086478	0.533334	0.177958
	N254	N	0.088656	0.459284	0.819018
	N255	N	0.916530	0.532935	0.821276
	N256	N	0.180472	0.910217	0.462510
	N257	N	0.178929	0.081686	0.536534
	N258	N	0.824408	0.081996	0.461282
	N259	N	0.823792	0.911174	0.536407
	N260	N	0.465340	0.175439	0.912031
	N261	N	0.538118	0.175867	0.085000
	N262	N	0.463993	0.817536	0.084232
	N263	N	0.537366	0.815319	0.910249
	N264	N	0.464872	0.909527	0.177076
	N265	N	0.539830	0.080309	0.174037
	N266	N	0.464174	0.080645	0.821394
	N267	N	0.539092	0.910471	0.819611
	N268	N	0.915049	0.176035	0.462676
	N269	N	0.086636	0.174380	0.536334
	N270	N	0.089317	0.815903	0.463363
	N271	N	0.916035	0.817768	0.537164
	N272	N	0.181142	0.458954	0.912287
	N273	N	0.179540	0.533366	0.084431
	N274	N	0.821865	0.458514	0.085809
	N275	N	0.822498	0.532363	0.913780
	O276	O	0.438467	0.494851	0.541806
	H277	H	0.442814	0.489124	0.528261
	H278	H	0.445704	0.491684	0.545931
	O279	O	0.492818	0.505925	0.436550
	H280	H	0.492834	0.520453	0.438457
	H281	H	0.493479	0.504683	0.432658
	O282	O	0.977480	0.900852	0.011538
	H283	H	0.976600	0.903176	0.008230
	H284	H	0.970257	0.905135	0.016515
	O285	O	1.103878	-0.047385	1.021248
	H286	H	1.089886	-0.056284	1.035364
	H287	H	1.108904	-0.046742	1.028601
	O288	O	0.548046	0.554058	0.516572
	H289	H	0.545129	0.552389	0.515146
	H290	H	0.548005	0.561399	0.523159
	O291	O	0.426359	0.545949	0.510538
	H292	H	0.432472	0.543857	0.508097
	H293	H	0.415334	0.540064	0.508099
	O294	O	0.581464	0.503814	0.451504
	H295	H	0.588006	0.490406	0.438874
	H296	H	0.586133	0.501377	0.458980
	O297	O	-0.010881	0.037586	0.957900
	H298	H	-0.010850	0.039106	0.964826
	H299	H	-0.004157	0.030391	0.965342
	O300	O	0.019594	1.029404	0.009230
	H301	H	0.020715	1.038804	0.009159
	H302	H	0.019483	1.023979	-0.015394
	O303	O	0.927606	0.924656	0.155921
	H304	H	0.914634	0.928388	0.164468
	H305	H	0.944272	0.914429	0.156667
	O306	O	0.046235	1.032903	0.993231
	H307	H	0.052674	1.038841	0.995227
	H308	H	0.040931	1.033456	0.981187
	O309	O	0.501620	0.435042	0.469026
	H310	H	0.500414	0.431011	0.474060
	H311	H	0.496753	0.443632	0.474563
	O312	O	0.022842	0.061550	0.103683
	H313	H	0.026071	0.068103	0.104309
	H314	H	0.028468	0.066345	0.104400
	O315	O	1.041487	-0.069157	-0.006984
	H316	H	1.034958	-0.061731	-0.005655
	H317	H	1.050319	-0.072405	-0.009113
	O318	O	0.860719	0.909493	1.141127
	H319	H	0.851773	0.911318	1.154363
	H320	H	0.860239	0.910815	1.140299
	O321	O	0.542024	0.365803	1.467389
	H322	H	0.534142	0.361759	1.473599
	H323	H	0.534966	0.366624	1.467936
	O324	O	0.495188	0.491812	0.515060
	H325	H	0.490702	0.495632	0.512701
	H326	H	0.488476	0.495892	0.509288
	O327	O	-0.055213	0.042621	-0.082114
	H328	H	-0.054960	0.047571	-0.073574
	H329	H	-0.045775	0.041200	-0.085789
	O330	O	0.489414	0.465188	0.508207
	H331	H	0.487009	0.471506	0.511201
	H332	H	0.479207	0.475107	0.509787
	O333	O	-0.056565	0.883621	0.896201
	H334	H	-0.054923	0.888749	0.906617
	H335	H	-0.064817	0.891685	0.888741
	O336	O	0.033093	0.021755	-0.011696
	H337	H	0.038553	0.009036	-0.013814
	H338	H	0.022851	0.026661	-0.018247
	O339	O	0.499456	0.450636	0.507251
	H340	H	0.496354	0.443430	0.515914
	H341	H	0.505438	0.450868	0.514091
	O342	O	0.924818	1.075774	0.878329
	H343	H	0.940745	1.066100	0.876601
	H344	H	0.919262	1.086711	0.872810
	O345	O	0.990950	1.041127	-0.003077
	H346	H	0.989152	1.037437	0.009355
	H347	H	0.992982	1.026912	0.001190
	O348	O	0.417102	0.513752	0.470966
	H349	H	0.426857	0.503948	0.482062
	H350	H	0.407112	0.517619	0.481381
	O351	O	0.617153	0.628088	0.508586
	H352	H	0.616720	0.627053	0.509216
	H353	H	0.608408	0.623692	0.502778
	O354	O	0.531571	0.452792	0.575060
	H355	H	0.526432	0.445626	0.571089
	H356	H	0.539747	0.459039	0.571112
	O357	O	1.015029	-0.046178	1.073910
	H358	H	1.018043	-0.054379	1.059373
	H359	H	1.007874	-0.054408	1.080708
	O360	O	0.392046	0.543635	0.519483
	H361	H	0.398175	0.541537	0.519319
	H362	H	0.391823	0.547405	0.524857
	O363	O	0.515107	0.439597	0.479263
	H364	H	0.519129	0.433073	0.479443
	H365	H	0.518337	0.439417	0.481000
	O366	O	1.108511	1.027412	0.900317
	H367	H	1.108235	1.019494	0.901714
	H368	H	1.112388	1.026446	0.914389
	O369	O	1.026027	-0.006005	1.015367
	H370	H	1.026028	-0.005323	1.019038
	H371	H	1.026304	-0.006953	1.027876
	O372	O	-0.035715	0.024461	0.051597
	H373	H	-0.046058	0.024864	0.046621
	H374	H	-0.036408	0.041600	0.051232
	O375	O	1.051391	-0.079050	-0.024051
	H376	H	1.053808	-0.095001	-0.026403
	H377	H	1.029146	-0.080087	-0.019441
	O378	O	0.484644	0.513198	0.569149
	H379	H	0.489084	0.507078	0.575539
	H380	H	0.487664	0.510923	0.559571
	O381	O	0.415533	0.564121	0.452366
	H382	H	0.421214	0.553564	0.445211
	H383	H	0.407770	0.566279	0.464411
