data_Molecule from HDF5

_cell_length_a		16.501953
_cell_length_b		16.489079
_cell_length_c		16.560514
_cell_angle_alpha	90.054961
_cell_angle_beta	90.007956
_cell_angle_gamma	89.981591
_symmetry_space_group_name_H-M	'P 1'
_symmetry_Int_Tables_number		1

loop_
	_symmetry_equiv_pos_as_xyz
	x,y,z

loop_
	_atom_site_label
	_atom_site_type_symbol
	_atom_site_fract_x
	_atom_site_fract_y
	_atom_site_fract_z
	H0	H	0.389413	0.841859	0.731621
	H1	H	0.602639	0.156048	0.731621
	H2	H	0.601966	0.841521	0.288748
	H3	H	0.393842	0.157917	0.291284
	H4	H	0.719129	0.390261	0.852924
	H5	H	0.715171	0.601185	0.166347
	H6	H	0.272239	0.605888	0.852734
	H7	H	0.277701	0.397642	0.167219
	H8	H	0.838304	0.721030	0.404619
	H9	H	0.154514	0.717657	0.611948
	H10	H	0.838743	0.277815	0.613318
	H11	H	0.153341	0.279834	0.406706
	H12	H	0.839311	0.390596	0.732867
	H13	H	0.153160	0.604279	0.730298
	H14	H	0.838235	0.604181	0.288060
	H15	H	0.154046	0.396501	0.290378
	H16	H	0.387271	0.723060	0.852324
	H17	H	0.598853	0.718751	0.166325
	H18	H	0.601202	0.275187	0.852577
	H19	H	0.393411	0.279468	0.167031
	H20	H	0.717542	0.841655	0.406076
	H21	H	0.717196	0.156467	0.614655
	H22	H	0.272893	0.842536	0.615748
	H23	H	0.278428	0.158611	0.408949
	H24	H	0.890605	0.341062	0.230526
	H25	H	0.102018	0.655620	0.231604
	H26	H	0.100614	0.341854	0.787660
	H27	H	0.886705	0.656022	0.785658
	H28	H	0.216550	0.895875	0.352400
	H29	H	0.218573	0.107087	0.665836
	H30	H	0.773504	0.105834	0.353274
	H31	H	0.771240	0.890673	0.665607
	H32	H	0.337790	0.218154	0.905571
	H33	H	0.653391	0.218817	0.114251
	H34	H	0.337594	0.778838	0.113405
	H35	H	0.653259	0.775537	0.903310
	H36	H	0.338148	0.893394	0.231562
	H37	H	0.652746	0.104346	0.231978
	H38	H	0.338344	0.103687	0.788549
	H39	H	0.653003	0.891428	0.786354
	H40	H	0.891259	0.220458	0.352505
	H41	H	0.102804	0.223238	0.665751
	H42	H	0.099837	0.778974	0.352248
	H43	H	0.885628	0.772533	0.664510
	H44	H	0.216357	0.340886	0.904299
	H45	H	0.217627	0.655902	0.114973
	H46	H	0.774418	0.340824	0.114809
	H47	H	0.772121	0.655981	0.903299
	H48	H	0.402579	0.112850	0.598691
	H49	H	0.581451	0.888458	0.596118
	H50	H	0.581971	0.111748	0.416932
	H51	H	0.399965	0.883622	0.417876
	H52	H	0.588574	0.410973	0.121278
	H53	H	0.578738	0.587619	0.898358
	H54	H	0.407977	0.594981	0.122174
	H55	H	0.407459	0.404835	0.895977
	H56	H	0.109009	0.590405	0.419946
	H57	H	0.882322	0.590763	0.596427
	H58	H	0.108551	0.411278	0.598919
	H59	H	0.879643	0.406876	0.416024
	H60	H	0.107457	0.411548	0.598040
	H61	H	0.886080	0.584024	0.593817
	H62	H	0.107988	0.588416	0.417913
	H63	H	0.883357	0.408854	0.424177
	H64	H	0.400163	0.586744	0.121653
	H65	H	0.586116	0.587717	0.895770
	H66	H	0.582239	0.409403	0.118951
	H67	H	0.402194	0.409407	0.895522
	H68	H	0.583575	0.110703	0.424727
	H69	H	0.586293	0.886517	0.596223
	H70	H	0.410607	0.112520	0.604132
	H71	H	0.412051	0.886766	0.415825
	H72	H	0.904097	0.610987	0.099286
	H73	H	0.090307	0.384171	0.100614
	H74	H	0.086155	0.610716	0.922995
	H75	H	0.912348	0.387201	0.916800
	H76	H	0.086831	0.908392	0.622766
	H77	H	0.084878	0.089596	0.397447
	H78	H	0.912967	0.086411	0.618984
	H79	H	0.906875	0.910146	0.398819
	H80	H	0.609136	0.084455	0.917617
	H81	H	0.381935	0.086472	0.105809
	H82	H	0.607809	0.906436	0.096024
	H83	H	0.382798	0.908999	0.919010
	H84	H	0.606453	0.913871	0.098405
	H85	H	0.380978	0.094215	0.099580
	H86	H	0.608964	0.089838	0.922385
	H87	H	0.385169	0.910145	0.923575
	H88	H	0.907161	0.092980	0.623417
	H89	H	0.087650	0.090629	0.396518
	H90	H	0.084661	0.912364	0.621547
	H91	H	0.906855	0.913263	0.399193
	H92	H	0.084133	0.612113	0.917981
	H93	H	0.082096	0.386628	0.102635
	H94	H	0.908056	0.610941	0.099616
	H95	H	0.910328	0.389962	0.926258
	H96	H	0.410537	0.108517	0.595018
	H97	H	0.583661	0.885970	0.600877
	H98	H	0.589500	0.113264	0.420261
	H99	H	0.406690	0.888503	0.427130
	H100	H	0.585699	0.405004	0.122596
	H101	H	0.583351	0.581087	0.899176
	H102	H	0.410804	0.585063	0.117221
	H103	H	0.408864	0.411956	0.898186
	H104	H	0.109865	0.590821	0.417713
	H105	H	0.882758	0.584616	0.601845
	H106	H	0.107879	0.412380	0.598688
	H107	H	0.883201	0.415304	0.417469
	H108	H	0.906608	0.610384	0.096236
	H109	H	0.085054	0.387365	0.094401
	H110	H	0.080952	0.609616	0.922202
	H111	H	0.902565	0.385855	0.920771
	H112	H	0.082287	0.908390	0.621500
	H113	H	0.087715	0.088281	0.397674
	H114	H	0.903194	0.084612	0.621251
	H115	H	0.909497	0.911954	0.399600
	H116	H	0.606153	0.083886	0.923381
	H117	H	0.384967	0.085617	0.096248
	H118	H	0.609906	0.908451	0.103669
	H119	H	0.385167	0.913801	0.919701
	C120	C	0.374705	0.007682	0.631281
	C121	C	0.616680	0.990831	0.630412
	C122	C	0.617342	0.007492	0.388958
	C123	C	0.375111	0.991124	0.389201
	C124	C	0.617895	0.375777	0.017385
	C125	C	0.615561	0.618454	1.001218
	C126	C	0.372972	0.621591	0.017358
	C127	C	0.375306	0.377979	1.000803
	C128	C	0.004633	0.621658	0.386773
	C129	C	0.987566	0.619391	0.629692
	C130	C	0.004419	0.377990	0.630948
	C131	C	0.987124	0.378876	0.388675
	C132	C	0.874318	0.506484	0.130487
	C133	C	0.117517	0.490228	0.130948
	C134	C	0.116436	0.506994	0.888474
	C135	C	0.874486	0.490836	0.887982
	C136	C	0.116738	0.878301	0.517844
	C137	C	0.118289	0.121982	0.500964
	C138	C	0.875126	0.120513	0.517787
	C139	C	0.874162	0.877694	0.501830
	C140	C	0.504129	0.118785	0.888883
	C141	C	0.487098	0.120149	0.131692
	C142	C	0.503732	0.877927	0.131198
	C143	C	0.487888	0.877136	0.887712
	C144	C	0.371514	0.889175	0.691307
	C145	C	0.620077	0.108747	0.691164
	C146	C	0.619768	0.888747	0.329241
	C147	C	0.374705	0.110586	0.331145
	C148	C	0.678683	0.372664	0.899739
	C149	C	0.675379	0.620287	0.119447
	C150	C	0.312282	0.624334	0.899619
	C151	C	0.316935	0.377797	0.119821
	C152	C	0.885636	0.681106	0.385648
	C153	C	0.106384	0.678985	0.631498
	C154	C	0.885746	0.317751	0.632368
	C155	C	0.106084	0.319549	0.387448
	C156	C	0.886270	0.373904	0.691698
	C157	C	0.105853	0.622138	0.690117
	C158	C	0.885694	0.623292	0.327673
	C159	C	0.106393	0.377749	0.330072
	C160	C	0.369902	0.682438	0.899471
	C161	C	0.617419	0.678488	0.119424
	C162	C	0.620171	0.315211	0.899530
	C163	C	0.374555	0.319400	0.119928
	C164	C	0.677415	0.888831	0.387345
	C165	C	0.677251	0.109151	0.632907
	C166	C	0.313396	0.889523	0.633652
	C167	C	0.317436	0.110897	0.389597
	C168	C	0.872344	0.388427	0.190611
	C169	C	0.119929	0.608571	0.191298
	C170	C	0.119009	0.388892	0.827884
	C171	C	0.869965	0.608965	0.826688
	C172	C	0.176651	0.877075	0.399619
	C173	C	0.178326	0.124882	0.618841
	C174	C	0.814086	0.123554	0.400176
	C175	C	0.811725	0.872909	0.618629
	C176	C	0.385342	0.178501	0.886829
	C177	C	0.605894	0.179435	0.132892
	C178	C	0.385014	0.818427	0.132549
	C179	C	0.606031	0.815909	0.884886
	C180	C	0.385425	0.875416	0.191451
	C181	C	0.605567	0.122400	0.191504
	C182	C	0.385645	0.121394	0.828532
	C183	C	0.605947	0.873627	0.826885
	C184	C	0.872611	0.180755	0.399776
	C185	C	0.120428	0.182611	0.618666
	C186	C	0.118632	0.819075	0.399328
	C187	C	0.868976	0.814393	0.618181
	C188	C	0.176775	0.388529	0.885859
	C189	C	0.177506	0.608770	0.133213
	C190	C	0.814609	0.388140	0.132852
	C191	C	0.812555	0.608908	0.884889
	C192	C	0.400517	0.089865	0.606200
	C193	C	0.591038	0.908324	0.604949
	C194	C	0.592234	0.090450	0.413714
	C195	C	0.399286	0.908012	0.413213
	C196	C	0.592862	0.401265	0.099519
	C197	C	0.590109	0.592727	0.919097
	C198	C	0.398856	0.596119	0.099240
	C199	C	0.399304	0.401880	0.918124
	C200	C	0.087322	0.597046	0.411273
	C201	C	0.905148	0.593953	0.604529
	C202	C	0.086439	0.404130	0.605751
	C203	C	0.903852	0.403105	0.412481
	C204	C	0.899126	0.589206	0.105265
	C205	C	0.092771	0.407501	0.106208
	C206	C	0.090919	0.589375	0.913753
	C207	C	0.900749	0.409164	0.913761
	C208	C	0.091926	0.902744	0.600356
	C209	C	0.093673	0.096750	0.418478
	C210	C	0.900525	0.095304	0.599779
	C211	C	0.900399	0.904341	0.420347
	C212	C	0.586475	0.093401	0.913891
	C213	C	0.404148	0.095693	0.107473
	C214	C	0.586400	0.902570	0.106567
	C215	C	0.405896	0.903315	0.913322
	Zn216	Zn	0.496597	-0.001507	0.759709
	Zn217	Zn	0.496175	-0.000911	0.260514
	Zn218	Zn	0.745713	0.498303	0.008775
	Zn219	Zn	0.245775	0.498893	0.008978
	Zn220	Zn	-0.004256	0.748936	0.509704
	Zn221	Zn	-0.003939	0.249733	0.509267
	Zn222	Zn	-0.004739	0.499473	0.759340
	Zn223	Zn	-0.004742	0.498872	0.259307
	Zn224	Zn	0.495609	0.748976	0.008940
	Zn225	Zn	0.495690	0.248034	0.009187
	Zn226	Zn	0.745953	-0.000655	0.510064
	Zn227	Zn	0.245981	-0.000314	0.510191
	N228	N	0.409094	0.963444	0.689908
	N229	N	0.583129	0.034090	0.689668
	N230	N	0.583323	0.963727	0.329872
	N231	N	0.409854	0.035098	0.330830
	N232	N	0.677504	0.409394	0.974109
	N233	N	0.674302	0.583857	0.044947
	N234	N	0.314037	0.587375	0.973884
	N235	N	0.317033	0.413245	0.044937
	N236	N	0.960640	0.680190	0.421653
	N237	N	0.031666	0.677727	0.594890
	N238	N	0.960174	0.319908	0.595481
	N239	N	0.030903	0.320245	0.423048
	N240	N	0.960930	0.410768	0.690957
	N241	N	0.030826	0.586069	0.689307
	N242	N	0.960796	0.587399	0.327832
	N243	N	0.031279	0.413775	0.330470
	N244	N	0.406899	0.680961	0.973840
	N245	N	0.581097	0.677614	0.044726
	N246	N	0.583234	0.316990	0.973776
	N247	N	0.409787	0.319023	0.044724
	N248	N	0.676038	0.963757	0.423536
	N249	N	0.675368	0.034665	0.595847
	N250	N	0.315117	0.964386	0.597327
	N251	N	0.317204	0.035333	0.424525
	N252	N	0.908753	0.463279	0.189296
	N253	N	0.083019	0.533943	0.189926
	N254	N	0.082389	0.463561	0.829222
	N255	N	0.907394	0.534514	0.828072
	N256	N	0.175695	0.912981	0.474593
	N257	N	0.176760	0.087518	0.544764
	N258	N	0.815545	0.086565	0.474522
	N259	N	0.814733	0.911486	0.545232
	N260	N	0.459961	0.177213	0.923524
	N261	N	0.531121	0.178151	0.096305
	N262	N	0.459656	0.819614	0.095706
	N263	N	0.531581	0.817948	0.922002
	N264	N	0.460355	0.911569	0.190765
	N265	N	0.530635	0.086278	0.190924
	N266	N	0.460716	0.085112	0.829534
	N267	N	0.531373	0.910478	0.828196
	N268	N	0.909788	0.179005	0.473878
	N269	N	0.083567	0.180696	0.544251
	N270	N	0.082482	0.819412	0.473959
	N271	N	0.907292	0.817221	0.544450
	N272	N	0.175393	0.463172	0.922777
	N273	N	0.176059	0.534209	0.096249
	N274	N	0.815791	0.462773	0.096037
	N275	N	0.815053	0.534529	0.922213
	O276	O	0.443771	0.697466	0.573083
	H277	H	0.442593	0.684819	0.575454
	H278	H	0.449962	0.684954	0.571681
	O279	O	0.683958	0.350339	0.388632
	H280	H	0.701237	0.341954	0.396302
	H281	H	0.678933	0.365418	0.386162
	O282	O	1.092911	0.923292	0.195669
	H283	H	1.099861	0.926533	0.197223
	H284	H	1.086340	0.917796	0.178483
	O285	O	0.703954	0.554079	0.453015
	H286	H	0.695749	0.545735	0.445849
	H287	H	0.700125	0.526494	0.461659
	O288	O	-0.208625	0.055286	0.030799
	H289	H	-0.215465	0.047381	0.031207
	H290	H	-0.216743	0.036467	0.027087
	O291	O	0.930458	1.050658	-0.012885
	H292	H	0.922743	1.044802	-0.015501
	H293	H	0.933658	1.061818	-0.032226
	O294	O	-0.210028	1.205244	-0.070563
	H295	H	-0.231032	1.222200	-0.057147
	H296	H	-0.207764	1.183148	-0.063868
	O297	O	0.421229	0.395568	0.503927
	H298	H	0.418115	0.403622	0.530202
	H299	H	0.420798	0.380524	0.513265
	O300	O	0.363623	0.364845	0.381347
	H301	H	0.357737	0.365161	0.391742
	H302	H	0.397789	0.363599	0.396469
	O303	O	0.280418	0.718179	0.475996
	H304	H	0.272674	0.730370	0.468170
	H305	H	0.266138	0.725714	0.456384
	O306	O	-0.055440	0.948042	0.957376
	H307	H	-0.051280	0.944534	0.953570
	H308	H	-0.052287	0.930950	0.960573
	O309	O	0.601751	0.702282	0.409224
	H310	H	0.588532	0.688067	0.413037
	H311	H	0.597171	0.703444	0.402379
	O312	O	0.423227	0.640874	0.505852
	H313	H	0.433003	0.637325	0.498193
	H314	H	0.422912	0.648137	0.506138
	O315	O	-0.297701	0.304552	0.545825
	H316	H	-0.287858	0.302973	0.543571
	H317	H	-0.295747	0.296619	0.547202
	O318	O	-0.034643	1.018091	-0.152367
	H319	H	-0.043708	1.018784	-0.149362
	H320	H	-0.012292	1.020527	-0.155091
	O321	O	0.487644	0.449122	0.295949
	H322	H	0.483176	0.451354	0.290000
	H323	H	0.495952	0.434017	0.308796
	O324	O	1.418340	0.512951	1.547636
	H325	H	1.427006	0.517138	1.551348
	H326	H	1.421876	0.507169	1.550195
	O327	O	0.799419	0.074280	1.047070
	H328	H	0.810228	0.069227	1.041551
	H329	H	0.802766	0.066279	1.043953
	O330	O	1.207383	0.066663	0.028946
	H331	H	1.204059	0.049211	0.042007
	H332	H	1.213711	0.062040	0.030894
	O333	O	1.127313	0.873954	1.112938
	H334	H	1.132481	0.873773	1.101681
	H335	H	1.123313	0.862019	1.085338
	O336	O	1.206693	0.080753	1.221668
	H337	H	1.223679	0.061065	1.231646
	H338	H	1.200944	0.094078	1.227932
	O339	O	0.473885	0.331579	0.459233
	H340	H	0.458554	0.318577	0.466803
	H341	H	0.483979	0.353196	0.466282
	O342	O	0.839434	0.019257	-0.208611
	H343	H	0.858860	0.023142	-0.209774
	H344	H	0.827353	0.029830	-0.226838
	O345	O	-0.009950	0.041273	0.187600
	H346	H	0.004994	0.044178	0.177737
	H347	H	-0.005243	0.030302	0.186894
	O348	O	1.126858	0.205694	1.212673
	H349	H	1.112575	0.225215	1.231363
	H350	H	1.146495	0.198516	1.220359
	O351	O	0.962172	0.781183	0.224369
	H352	H	0.972323	0.764655	0.233460
	H353	H	0.959564	0.765562	0.221551
	O354	O	0.533952	0.395414	0.550933
	H355	H	0.530841	0.395713	0.536907
	H356	H	0.547708	0.401480	0.552047
	O357	O	0.832505	0.827979	0.967058
	H358	H	0.833377	0.837827	0.980442
	H359	H	0.830124	0.815507	0.961912
	O360	O	0.282781	0.513363	0.632082
	H361	H	0.290782	0.520114	0.612922
	H362	H	0.267109	0.513811	0.648210
	O363	O	0.537524	0.435726	0.702593
	H364	H	0.549668	0.420295	0.710658
	H365	H	0.547447	0.420934	0.703142
	O366	O	0.876243	0.907601	0.026484
	H367	H	0.865920	0.902615	0.030815
	H368	H	0.871771	0.912097	0.037497
	O369	O	0.437798	0.561226	0.713737
	H370	H	0.449473	0.547544	0.717399
	H371	H	0.451077	0.559772	0.713246
	O372	O	0.474334	0.286264	0.721809
	H373	H	0.466029	0.284616	0.706089
	H374	H	0.471577	0.259654	0.740256
	O375	O	-0.142617	1.199078	0.806901
	H376	H	-0.146064	1.187771	0.809477
	H377	H	-0.130982	1.212084	0.816479
	O378	O	1.063103	0.154703	0.004497
	H379	H	1.071928	0.144851	0.023368
	H380	H	1.059657	0.166567	0.019198
	O381	O	0.638706	0.370231	-0.409130
	H382	H	0.643981	0.387658	-0.393891
	H383	H	0.649475	0.340171	-0.397304
	O384	O	0.107356	-0.886101	1.012229
	H385	H	0.113782	-0.872356	0.998324
	H386	H	0.109997	-0.878672	1.017249
	O387	O	0.193161	0.887122	0.809323
	H388	H	0.185443	0.902330	0.819817
	H389	H	0.208499	0.913038	0.807670
	O390	O	0.129575	-0.147289	0.998332
	H391	H	0.135803	-0.158599	0.975893
	H392	H	0.131727	-0.153747	0.989687
	O393	O	1.012227	1.103289	0.132010
	H394	H	0.999306	1.100617	0.140155
	H395	H	1.000429	1.111117	0.126790
	O396	O	0.441952	0.635634	0.476026
	H397	H	0.442938	0.625939	0.464211
	H398	H	0.459585	0.637149	0.494667
	O399	O	0.292054	0.636845	0.305460
	H400	H	0.268839	0.644741	0.279662
	H401	H	0.303841	0.627449	0.306044
	O402	O	-0.044724	-0.104548	0.867670
	H403	H	-0.052403	-0.104620	0.865236
	H404	H	-0.053077	-0.116088	0.858928
	O405	O	-0.205271	-0.198086	0.209079
	H406	H	-0.181112	-0.188125	0.203421
	H407	H	-0.209555	-0.192298	0.224627
	O408	O	0.566748	0.520802	0.348381
	H409	H	0.569911	0.510378	0.354539
	H410	H	0.568549	0.522686	0.335742
	O411	O	0.416197	0.701247	0.305267
	H412	H	0.430333	0.714698	0.293538
	H413	H	0.401523	0.713540	0.315151
	O414	O	0.696115	0.699207	0.524942
	H415	H	0.704521	0.673220	0.512035
	H416	H	0.697420	0.712641	0.514197
	O417	O	0.317075	0.484263	0.353194
	H418	H	0.309951	0.465190	0.352590
	H419	H	0.330396	0.482314	0.348858
	O420	O	0.808188	0.968038	1.211504
	H421	H	0.821568	0.978545	1.221995
	H422	H	0.798564	0.965506	1.218618
	O423	O	-0.146999	1.106776	0.185213
	H424	H	-0.128265	1.097018	0.185534
	H425	H	-0.136109	1.088558	0.173513
	O426	O	1.138481	0.826027	1.096699
	H427	H	1.118107	0.820464	1.086685
	H428	H	1.126809	0.828782	1.078163
	O429	O	0.292477	0.367478	0.623824
	H430	H	0.299254	0.363747	0.627741
	H431	H	0.295782	0.384080	0.621545
	O432	O	0.265002	0.263426	0.166192
	H433	H	0.281095	0.281921	0.176511
	H434	H	0.270340	0.264645	0.175978
	O435	O	-0.075065	0.151130	-0.194516
	H436	H	-0.082661	0.159494	-0.198388
	H437	H	-0.053110	0.147027	-0.183234
	O438	O	1.088172	-0.168918	-0.063641
	H439	H	1.093055	-0.174294	-0.087833
	H440	H	1.072486	-0.148156	-0.045245
	O441	O	0.574510	0.295026	0.320957
	H442	H	0.593364	0.296277	0.319875
	H443	H	0.565165	0.281602	0.310279
	O444	O	0.019220	0.780197	0.784680
	H445	H	0.048821	0.773770	0.779574
	H446	H	0.033908	0.772329	0.769532
	O447	O	0.681433	0.675683	0.688625
	H448	H	0.660020	0.687095	0.667177
	H449	H	0.658876	0.690468	0.670799
	O450	O	0.309224	0.305626	0.670549
	H451	H	0.308826	0.310108	0.669573
	H452	H	0.303632	0.315970	0.671265
	O453	O	0.719077	0.519473	0.730238
	H454	H	0.727209	0.552924	0.737441
	H455	H	0.734973	0.543648	0.744984
	O456	O	1.171419	0.049018	-0.190311
	H457	H	1.183337	0.041024	-0.174080
	H458	H	1.148435	0.070441	-0.199863
	O459	O	0.524521	0.714734	0.726665
	H460	H	0.522336	0.739384	0.757615
	H461	H	0.497426	0.716743	0.705750
	O462	O	0.653948	0.441960	0.305852
	H463	H	0.644939	0.436856	0.309509
	H464	H	0.661830	0.452699	0.307995
	O465	O	1.089034	-0.009456	-0.055017
	H466	H	1.086845	-0.009372	-0.046468
	H467	H	1.084088	-0.014243	-0.051594
