data_Molecule from HDF5

_cell_length_a		16.256835
_cell_length_b		16.225729
_cell_length_c		16.319114
_cell_angle_alpha	89.853502
_cell_angle_beta	90.180097
_cell_angle_gamma	90.237574
_symmetry_space_group_name_H-M	'P 1'
_symmetry_Int_Tables_number		1

loop_
	_symmetry_equiv_pos_as_xyz
	x,y,z

loop_
	_atom_site_label
	_atom_site_type_symbol
	_atom_site_fract_x
	_atom_site_fract_y
	_atom_site_fract_z
	H0	H	0.407612	0.840174	0.712752
	H1	H	0.608479	0.167891	0.715210
	H2	H	0.605224	0.840237	0.284824
	H3	H	0.406619	0.167806	0.281907
	H4	H	0.721623	0.403678	0.836070
	H5	H	0.722497	0.603808	0.162636
	H6	H	0.289972	0.601857	0.836179
	H7	H	0.291122	0.403002	0.161641
	H8	H	0.842160	0.718536	0.398628
	H9	H	0.169985	0.718930	0.595912
	H10	H	0.843043	0.288281	0.597191
	H11	H	0.170916	0.292953	0.401922
	H12	H	0.842499	0.403417	0.713801
	H13	H	0.169479	0.605636	0.713986
	H14	H	0.842850	0.604172	0.282691
	H15	H	0.169384	0.404818	0.283824
	H16	H	0.406620	0.717922	0.835265
	H17	H	0.605619	0.718721	0.161931
	H18	H	0.602811	0.289987	0.834835
	H19	H	0.406877	0.287839	0.162003
	H20	H	0.718548	0.839111	0.402142
	H21	H	0.722690	0.168268	0.597560
	H22	H	0.292153	0.840145	0.595998
	H23	H	0.293007	0.169346	0.398398
	H24	H	0.905827	0.339862	0.214917
	H25	H	0.105344	0.667485	0.212845
	H26	H	0.104301	0.340831	0.783668
	H27	H	0.906762	0.668653	0.783565
	H28	H	0.220496	0.907070	0.334525
	H29	H	0.223556	0.103810	0.660782
	H30	H	0.790992	0.103526	0.334826
	H31	H	0.791689	0.902686	0.661032
	H32	H	0.340979	0.215826	0.900007
	H33	H	0.669748	0.220263	0.097848
	H34	H	0.342158	0.788531	0.095887
	H35	H	0.669965	0.790532	0.901209
	H36	H	0.342410	0.903219	0.213869
	H37	H	0.669778	0.104231	0.213884
	H38	H	0.343310	0.103359	0.782008
	H39	H	0.669958	0.903173	0.783497
	H40	H	0.909063	0.218653	0.334069
	H41	H	0.107165	0.218961	0.661861
	H42	H	0.102942	0.791327	0.334697
	H43	H	0.907491	0.788607	0.660531
	H44	H	0.217301	0.338365	0.900955
	H45	H	0.221819	0.666854	0.098392
	H46	H	0.790590	0.339688	0.098273
	H47	H	0.791753	0.668584	0.900066
	H48	H	0.424670	0.119159	0.593458
	H49	H	0.600454	0.887577	0.592482
	H50	H	0.612649	0.122633	0.412415
	H51	H	0.408615	0.885421	0.399916
	H52	H	0.600683	0.405768	0.116518
	H53	H	0.590046	0.595480	0.886231
	H54	H	0.415035	0.594204	0.114470
	H55	H	0.407928	0.407416	0.880980
	H56	H	0.123793	0.593653	0.397940
	H57	H	0.888009	0.597979	0.594513
	H58	H	0.123186	0.414272	0.596791
	H59	H	0.889924	0.413591	0.406690
	H60	H	0.123898	0.409914	0.591160
	H61	H	0.889827	0.598860	0.588316
	H62	H	0.125391	0.605992	0.405052
	H63	H	0.888989	0.411230	0.403419
	H64	H	0.415027	0.597994	0.115620
	H65	H	0.601544	0.605734	0.879366
	H66	H	0.601239	0.417106	0.113343
	H67	H	0.409526	0.414362	0.883168
	H68	H	0.597757	0.124572	0.392216
	H69	H	0.598373	0.887555	0.594386
	H70	H	0.412927	0.119704	0.582537
	H71	H	0.420487	0.889459	0.405028
	H72	H	0.911952	0.620550	0.090209
	H73	H	0.090737	0.389567	0.089927
	H74	H	0.098894	0.623139	0.898193
	H75	H	0.915576	0.387436	0.900903
	H76	H	0.095901	0.908037	0.614234
	H77	H	0.103550	0.095972	0.382350
	H78	H	0.911988	0.104846	0.617423
	H79	H	0.916512	0.912401	0.382023
	H80	H	0.618019	0.093128	0.917593
	H81	H	0.390573	0.092352	0.092178
	H82	H	0.620849	0.916631	0.092104
	H83	H	0.388735	0.918586	0.895374
	H84	H	0.624163	0.910033	0.097869
	H85	H	0.388061	0.097671	0.094268
	H86	H	0.623316	0.090274	0.897694
	H87	H	0.385795	0.899708	0.903562
	H88	H	0.908840	0.088544	0.613602
	H89	H	0.094774	0.097528	0.383534
	H90	H	0.105214	0.911596	0.615816
	H91	H	0.910064	0.907565	0.380435
	H92	H	0.092931	0.617352	0.910012
	H93	H	0.103621	0.385457	0.088710
	H94	H	0.913898	0.622002	0.094573
	H95	H	0.917153	0.390359	0.911709
	H96	H	0.409772	0.124918	0.597464
	H97	H	0.598172	0.888489	0.591500
	H98	H	0.588130	0.115256	0.414345
	H99	H	0.408844	0.889438	0.412644
	H100	H	0.591393	0.411573	0.112344
	H101	H	0.605492	0.589571	0.883068
	H102	H	0.411475	0.595204	0.115320
	H103	H	0.415419	0.408752	0.882854
	H104	H	0.120188	0.594372	0.412192
	H105	H	0.890366	0.592947	0.590218
	H106	H	0.120911	0.415862	0.589976
	H107	H	0.889323	0.409434	0.407332
	H108	H	0.916260	0.619255	0.091142
	H109	H	0.096700	0.384482	0.099899
	H110	H	0.106459	0.622046	0.909703
	H111	H	0.906605	0.386205	0.908136
	H112	H	0.098295	0.917115	0.612405
	H113	H	0.100850	0.103337	0.380471
	H114	H	0.924569	0.094749	0.609964
	H115	H	0.908667	0.915410	0.382169
	H116	H	0.626097	0.109034	0.906167
	H117	H	0.389631	0.097006	0.088899
	H118	H	0.623091	0.908253	0.089341
	H119	H	0.394136	0.915201	0.915516
	C120	C	0.386326	0.012892	0.619380
	C121	C	0.629194	0.995697	0.621519
	C122	C	0.627475	0.012351	0.377900
	C123	C	0.384547	0.996415	0.376466
	C124	C	0.627172	0.381972	0.006773
	C125	C	0.628271	0.625633	0.990700
	C126	C	0.384621	0.624319	0.007138
	C127	C	0.382682	0.380672	0.989949
	C128	C	0.014575	0.626416	0.376326
	C129	C	0.997441	0.626218	0.619579
	C130	C	0.014617	0.382894	0.620949
	C131	C	0.997556	0.383223	0.377439
	C132	C	0.884589	0.512173	0.120925
	C133	C	0.126957	0.494793	0.121138
	C134	C	0.127286	0.512225	0.877639
	C135	C	0.884655	0.496301	0.877617
	C136	C	0.127804	0.883742	0.506558
	C137	C	0.129163	0.127514	0.489930
	C138	C	0.885486	0.125635	0.506063
	C139	C	0.883865	0.882095	0.489186
	C140	C	0.514416	0.125463	0.877522
	C141	C	0.497808	0.125330	0.120119
	C142	C	0.514457	0.882147	0.120817
	C143	C	0.497850	0.882371	0.876706
	C144	C	0.387710	0.889295	0.674723
	C145	C	0.628451	0.118871	0.677166
	C146	C	0.624997	0.889119	0.322923
	C147	C	0.386992	0.119472	0.320430
	C148	C	0.682878	0.383939	0.884434
	C149	C	0.683885	0.623346	0.113805
	C150	C	0.328410	0.622652	0.884621
	C151	C	0.328509	0.382524	0.112840
	C152	C	0.891396	0.681189	0.378450
	C153	C	0.120853	0.681835	0.617034
	C154	C	0.891678	0.326531	0.617738
	C155	C	0.121666	0.329773	0.380998
	C156	C	0.891532	0.383645	0.675931
	C157	C	0.120561	0.625209	0.675546
	C158	C	0.891541	0.624193	0.320683
	C159	C	0.120911	0.385613	0.322433
	C160	C	0.386587	0.680245	0.884310
	C161	C	0.626128	0.680862	0.113334
	C162	C	0.623935	0.327240	0.883892
	C163	C	0.386318	0.325717	0.113114
	C164	C	0.681437	0.888578	0.381371
	C165	C	0.685308	0.119145	0.618796
	C166	C	0.330427	0.889305	0.616563
	C167	C	0.330244	0.120019	0.378245
	C168	C	0.885674	0.388840	0.176785
	C169	C	0.125605	0.618373	0.175803
	C170	C	0.124662	0.389325	0.821936
	C171	C	0.886508	0.619570	0.821625
	C172	C	0.182504	0.886467	0.383304
	C173	C	0.185119	0.124466	0.612410
	C174	C	0.829556	0.123759	0.383511
	C175	C	0.829249	0.883311	0.612187
	C176	C	0.390690	0.179477	0.879437
	C177	C	0.620892	0.181706	0.117881
	C178	C	0.391116	0.826490	0.117121
	C179	C	0.621160	0.827873	0.880255
	C180	C	0.391326	0.883313	0.175841
	C181	C	0.620920	0.124093	0.175637
	C182	C	0.391674	0.123297	0.820803
	C183	C	0.621011	0.884078	0.821619
	C184	C	0.888378	0.180916	0.383127
	C185	C	0.127245	0.181687	0.612845
	C186	C	0.123972	0.829259	0.383242
	C187	C	0.886592	0.826203	0.611966
	C188	C	0.180601	0.388011	0.880661
	C189	C	0.183477	0.617906	0.118835
	C190	C	0.828767	0.388607	0.118483
	C191	C	0.829316	0.619596	0.879432
	C192	C	0.409012	0.098887	0.597497
	C193	C	0.605911	0.910003	0.599204
	C194	C	0.605802	0.098588	0.399817
	C195	C	0.406212	0.910179	0.399223
	C196	C	0.604559	0.404709	0.092091
	C197	C	0.605835	0.603403	0.905042
	C198	C	0.407121	0.602079	0.092991
	C199	C	0.404450	0.403482	0.904474
	C200	C	0.100624	0.604526	0.398518
	C201	C	0.911639	0.603260	0.597651
	C202	C	0.100482	0.406413	0.599004
	C203	C	0.911599	0.404910	0.399259
	C204	C	0.907294	0.598300	0.098556
	C205	C	0.103764	0.408621	0.099323
	C206	C	0.105852	0.598502	0.899589
	C207	C	0.906769	0.410296	0.900087
	C208	C	0.106206	0.905711	0.592132
	C209	C	0.106340	0.105499	0.404208
	C210	C	0.908258	0.102684	0.591657
	C211	C	0.905595	0.904955	0.403786
	C212	C	0.600207	0.103742	0.900338
	C213	C	0.411652	0.102417	0.098111
	C214	C	0.600443	0.904980	0.099404
	C215	C	0.411905	0.904669	0.898390
	Zn216	Zn	0.507107	0.004513	0.749087
	Zn217	Zn	0.506088	0.004081	0.249421
	Zn218	Zn	0.756356	0.503941	-0.001303
	Zn219	Zn	0.254934	0.503035	-0.000635
	Zn220	Zn	0.005943	0.754408	0.498053
	Zn221	Zn	0.007161	0.255184	0.498770
	Zn222	Zn	0.005811	0.504883	0.748985
	Zn223	Zn	0.005925	0.504065	0.249206
	Zn224	Zn	0.506363	0.753990	-0.001373
	Zn225	Zn	0.504899	0.253475	-0.001315
	Zn226	Zn	0.756240	0.003795	0.498610
	Zn227	Zn	0.256868	0.005451	0.497764
	N228	N	0.421560	0.967130	0.676631
	N229	N	0.594353	0.041163	0.678999
	N230	N	0.592097	0.967110	0.320679
	N231	N	0.419916	0.041539	0.319157
	N232	N	0.685111	0.417162	0.961956
	N233	N	0.685391	0.589688	0.036412
	N234	N	0.327341	0.588501	0.961773
	N235	N	0.325907	0.415834	0.035381
	N236	N	0.968928	0.682653	0.412408
	N237	N	0.043430	0.682468	0.582743
	N238	N	0.969334	0.325926	0.584448
	N239	N	0.044089	0.328056	0.414467
	N240	N	0.968950	0.417906	0.678041
	N241	N	0.042755	0.591472	0.677399
	N242	N	0.969099	0.590850	0.319354
	N243	N	0.042869	0.418244	0.320138
	N244	N	0.420925	0.681426	0.961623
	N245	N	0.592262	0.682434	0.035950
	N246	N	0.589867	0.326069	0.960824
	N247	N	0.419438	0.324347	0.035604
	N248	N	0.682813	0.966270	0.414960
	N249	N	0.686118	0.041466	0.585219
	N250	N	0.329248	0.967169	0.582731
	N251	N	0.328665	0.042430	0.412416
	N252	N	0.919593	0.466644	0.178388
	N253	N	0.091289	0.540599	0.177364
	N254	N	0.092168	0.467374	0.819904
	N255	N	0.920210	0.541861	0.820386
	N256	N	0.184700	0.919804	0.460762
	N257	N	0.186373	0.091632	0.534825
	N258	N	0.827859	0.089903	0.461001
	N259	N	0.827189	0.917229	0.534877
	N260	N	0.467900	0.180930	0.914063
	N261	N	0.543338	0.182470	0.084123
	N262	N	0.468619	0.825656	0.083675
	N263	N	0.543652	0.826679	0.913932
	N264	N	0.469006	0.917251	0.178137
	N265	N	0.543396	0.089853	0.177220
	N266	N	0.469612	0.090676	0.819350
	N267	N	0.543341	0.917494	0.819611
	N268	N	0.922242	0.182326	0.460471
	N269	N	0.093100	0.183502	0.535588
	N270	N	0.090958	0.827174	0.460809
	N271	N	0.920069	0.825344	0.534616
	N272	N	0.182198	0.465654	0.914758
	N273	N	0.184513	0.540089	0.085940
	N274	N	0.827876	0.466345	0.084519
	N275	N	0.828252	0.542067	0.913794
	O276	O	-0.002923	-0.011977	-0.093899
	H277	H	-0.009975	-0.018055	-0.097354
	H278	H	-0.010742	-0.012672	-0.089959
	O279	O	0.525416	0.537901	0.464339
	H280	H	0.530734	0.532099	0.463751
	H281	H	0.523029	0.541216	0.477058
	O282	O	0.535233	0.462199	0.432896
	H283	H	0.534842	0.461820	0.427122
	H284	H	0.522315	0.459709	0.439323
	O285	O	0.965265	-0.031524	0.981352
	H286	H	0.962412	-0.024606	0.968092
	H287	H	0.973696	-0.028608	0.977953
	O288	O	0.999938	0.068279	0.029527
	H289	H	1.006632	0.069250	0.025683
	H290	H	0.995799	0.070733	0.032415
	O291	O	0.507626	0.448439	0.537490
	H292	H	0.505989	0.450703	0.546063
	H293	H	0.511346	0.447069	0.541318
	O294	O	1.010421	-0.018232	1.042286
	H295	H	1.020377	-0.025013	1.042365
	H296	H	1.006634	-0.007164	1.041982
	O297	O	-0.070210	0.019228	-0.012390
	H298	H	-0.074710	0.015344	-0.006769
	H299	H	-0.072422	0.021161	-0.021036
	O300	O	0.441956	0.540019	0.522997
	H301	H	0.453375	0.534562	0.524994
	H302	H	0.433868	0.540647	0.528887
	O303	O	0.429073	0.485476	0.573805
	H304	H	0.424112	0.493161	0.569736
	H305	H	0.435014	0.485430	0.577336
	O306	O	0.888157	-0.000472	-0.098425
	H307	H	0.882467	0.006726	-0.109778
	H308	H	0.886208	0.004763	-0.100280
	O309	O	-0.061225	0.042693	0.946800
	H310	H	-0.064475	0.050321	0.945811
	H311	H	-0.048489	0.046601	0.950424
	O312	O	0.974868	1.014688	1.034544
	H313	H	0.972968	1.018958	1.040046
	H314	H	0.979334	1.003301	1.043708
	O315	O	0.446319	0.546551	0.441161
	H316	H	0.443393	0.550171	0.434551
	H317	H	0.461502	0.553727	0.446732
	O318	O	0.482104	0.496873	0.523514
	H319	H	0.486273	0.499551	0.525763
	H320	H	0.477934	0.499906	0.519342
	O321	O	0.056678	1.046317	0.934671
	H322	H	0.052020	1.055497	0.933493
	H323	H	0.056157	1.044433	0.931585
	O324	O	0.571614	0.460153	0.551572
	H325	H	0.567750	0.458839	0.557971
	H326	H	0.575895	0.460189	0.550367
	O327	O	0.543172	0.542211	0.495241
	H328	H	0.551341	0.539379	0.491069
	H329	H	0.547334	0.542200	0.492084
	O330	O	0.520415	0.562385	0.410144
	H331	H	0.520480	0.561539	0.406986
	H332	H	0.523472	0.564183	0.416412
	O333	O	0.463764	0.524463	0.416230
	H334	H	0.465087	0.529248	0.425891
	H335	H	0.461135	0.517114	0.404362
	O336	O	0.523075	0.510242	0.487090
	H337	H	0.524761	0.497020	0.483203
	H338	H	0.515536	0.517219	0.478757
	O339	O	1.017374	0.965575	0.050485
	H340	H	1.020188	0.965317	0.051185
	H341	H	1.020357	0.965320	0.059954
	O342	O	0.535102	0.457559	0.524431
	H343	H	0.526722	0.457838	0.519555
	H344	H	0.531057	0.465077	0.522133
	O345	O	0.569698	0.468406	0.494131
	H346	H	0.578550	0.452267	0.486007
	H347	H	0.575586	0.464672	0.482373
	O348	O	0.037148	-0.049230	-0.050396
	H349	H	0.037769	-0.049579	-0.056431
	H350	H	0.028794	-0.046631	-0.057254
	O351	O	-0.020295	1.027610	1.051543
	H352	H	-0.026347	1.020063	1.057020
	H353	H	-0.016719	1.016611	1.047288
	O354	O	0.503698	0.509840	0.477646
	H355	H	0.491714	0.513758	0.477450
	H356	H	0.496074	0.505190	0.477828
	O357	O	0.026859	1.067022	0.982509
	H358	H	0.022002	1.068275	0.980613
	H359	H	0.028589	1.062818	0.984626
