data_Molecule from HDF5

_cell_length_a		16.343137
_cell_length_b		16.283675
_cell_length_c		16.198648
_cell_angle_alpha	90.538457
_cell_angle_beta	89.809628
_cell_angle_gamma	89.921694
_symmetry_space_group_name_H-M	'P 1'
_symmetry_Int_Tables_number		1

loop_
	_symmetry_equiv_pos_as_xyz
	x,y,z

loop_
	_atom_site_label
	_atom_site_type_symbol
	_atom_site_fract_x
	_atom_site_fract_y
	_atom_site_fract_z
	H0	H	0.392805	0.840715	0.704553
	H1	H	0.591465	0.166891	0.709137
	H2	H	0.592052	0.842084	0.274354
	H3	H	0.395747	0.169433	0.280719
	H4	H	0.709439	0.401958	0.830328
	H5	H	0.704305	0.604490	0.158370
	H6	H	0.277075	0.603617	0.829591
	H7	H	0.277197	0.406472	0.156906
	H8	H	0.831225	0.719963	0.393970
	H9	H	0.155649	0.721942	0.594311
	H10	H	0.830012	0.291238	0.590962
	H11	H	0.156330	0.287381	0.390762
	H12	H	0.830510	0.406388	0.708201
	H13	H	0.156597	0.604690	0.709172
	H14	H	0.830462	0.602546	0.279654
	H15	H	0.156856	0.405359	0.276731
	H16	H	0.393222	0.716566	0.827869
	H17	H	0.591388	0.723403	0.155140
	H18	H	0.592464	0.288980	0.829032
	H19	H	0.393148	0.291486	0.156687
	H20	H	0.711332	0.842809	0.387163
	H21	H	0.706942	0.167987	0.593334
	H22	H	0.276487	0.841760	0.590751
	H23	H	0.276238	0.167271	0.392569
	H24	H	0.895463	0.340695	0.205697
	H25	H	0.089821	0.668775	0.207161
	H26	H	0.092337	0.341486	0.776165
	H27	H	0.894712	0.668623	0.781401
	H28	H	0.208544	0.903573	0.327744
	H29	H	0.208617	0.106090	0.656491
	H30	H	0.778847	0.102715	0.328174
	H31	H	0.777330	0.907202	0.655959
	H32	H	0.329510	0.219940	0.894423
	H33	H	0.654655	0.222605	0.094015
	H34	H	0.328848	0.791415	0.090044
	H35	H	0.654063	0.787942	0.890427
	H36	H	0.329574	0.908292	0.206227
	H37	H	0.655130	0.105398	0.208516
	H38	H	0.328610	0.101456	0.779408
	H39	H	0.655470	0.904544	0.776139
	H40	H	0.896750	0.215651	0.327190
	H41	H	0.091725	0.221551	0.656515
	H42	H	0.091767	0.788666	0.328772
	H43	H	0.893848	0.792724	0.657137
	H44	H	0.211197	0.342714	0.889158
	H45	H	0.206378	0.668256	0.093324
	H46	H	0.776568	0.341893	0.093844
	H47	H	0.776311	0.667629	0.895257
	H48	H	0.403933	0.118024	0.580320
	H49	H	0.581485	0.887663	0.587869
	H50	H	0.581666	0.119469	0.402184
	H51	H	0.404308	0.888569	0.396240
	H52	H	0.573498	0.419020	0.105067
	H53	H	0.583614	0.602712	0.874302
	H54	H	0.398636	0.600201	0.110352
	H55	H	0.403967	0.411272	0.876755
	H56	H	0.107637	0.590699	0.400831
	H57	H	0.876621	0.603036	0.585356
	H58	H	0.108009	0.413460	0.582874
	H59	H	0.876642	0.407945	0.398144
	H60	H	0.108618	0.414136	0.584846
	H61	H	0.879316	0.595926	0.585822
	H62	H	0.111986	0.598958	0.394283
	H63	H	0.879032	0.410639	0.401407
	H64	H	0.399439	0.597421	0.109576
	H65	H	0.593733	0.592783	0.874518
	H66	H	0.584703	0.401058	0.113945
	H67	H	0.399254	0.410217	0.875428
	H68	H	0.590635	0.120942	0.404359
	H69	H	0.584390	0.890990	0.575198
	H70	H	0.394460	0.121911	0.585070
	H71	H	0.399595	0.889833	0.401972
	H72	H	0.892511	0.622895	0.088706
	H73	H	0.077809	0.391499	0.081246
	H74	H	0.088045	0.620578	0.906888
	H75	H	0.905020	0.390265	0.899859
	H76	H	0.083332	0.917358	0.607857
	H77	H	0.085687	0.092397	0.376972
	H78	H	0.898035	0.095026	0.608379
	H79	H	0.887300	0.915108	0.372574
	H80	H	0.609738	0.097574	0.894463
	H81	H	0.381283	0.091140	0.077234
	H82	H	0.611489	0.908446	0.091285
	H83	H	0.375183	0.906194	0.899108
	H84	H	0.607133	0.906669	0.073179
	H85	H	0.374789	0.095041	0.097289
	H86	H	0.608437	0.101233	0.902866
	H87	H	0.377110	0.913328	0.899952
	H88	H	0.903097	0.101244	0.609080
	H89	H	0.084163	0.097128	0.375845
	H90	H	0.084336	0.911618	0.609552
	H91	H	0.911481	0.922799	0.381648
	H92	H	0.088130	0.622499	0.898762
	H93	H	0.094029	0.388683	0.076897
	H94	H	0.902412	0.621270	0.092339
	H95	H	0.898407	0.389770	0.905480
	H96	H	0.403835	0.121726	0.591144
	H97	H	0.593672	0.885706	0.583090
	H98	H	0.587168	0.123024	0.395901
	H99	H	0.397401	0.887246	0.395943
	H100	H	0.595057	0.421561	0.111319
	H101	H	0.580855	0.589806	0.878336
	H102	H	0.401764	0.599358	0.109578
	H103	H	0.400890	0.415524	0.876746
	H104	H	0.109129	0.600957	0.404998
	H105	H	0.876603	0.599308	0.592059
	H106	H	0.109426	0.412642	0.584217
	H107	H	0.877507	0.412797	0.397555
	H108	H	0.900563	0.619558	0.081677
	H109	H	0.088196	0.384523	0.093420
	H110	H	0.081613	0.619582	0.902456
	H111	H	0.898623	0.386389	0.896783
	H112	H	0.088767	0.915074	0.609859
	H113	H	0.088806	0.095426	0.375140
	H114	H	0.895412	0.101642	0.611805
	H115	H	0.907256	0.897819	0.373227
	H116	H	0.605770	0.092767	0.901490
	H117	H	0.373995	0.109796	0.082242
	H118	H	0.604707	0.922599	0.081407
	H119	H	0.374415	0.911137	0.894092
	C120	C	0.371265	0.012818	0.613513
	C121	C	0.614682	0.995689	0.612926
	C122	C	0.615581	0.013702	0.369852
	C123	C	0.371729	0.996649	0.370301
	C124	C	0.613972	0.383381	0.002072
	C125	C	0.614032	0.625423	0.984437
	C126	C	0.371107	0.626533	0.001318
	C127	C	0.371796	0.383778	0.984485
	C128	C	0.001969	0.625459	0.371876
	C129	C	0.984918	0.628249	0.616538
	C130	C	0.001384	0.384268	0.613265
	C131	C	0.985377	0.381711	0.369673
	C132	C	0.870673	0.513050	0.115718
	C133	C	0.114492	0.496331	0.113643
	C134	C	0.115249	0.513414	0.871566
	C135	C	0.871093	0.496334	0.872354
	C136	C	0.114827	0.883951	0.500841
	C137	C	0.115264	0.125967	0.483999
	C138	C	0.871436	0.126662	0.500966
	C139	C	0.872231	0.883639	0.484177
	C140	C	0.500535	0.125693	0.870866
	C141	C	0.484115	0.127904	0.114982
	C142	C	0.500489	0.884241	0.111955
	C143	C	0.483616	0.882051	0.869144
	C144	C	0.372855	0.889725	0.667418
	C145	C	0.611940	0.118339	0.670348
	C146	C	0.612917	0.890870	0.312607
	C147	C	0.374298	0.120039	0.316865
	C148	C	0.670898	0.382999	0.879073
	C149	C	0.667682	0.624693	0.108430
	C150	C	0.315345	0.623449	0.878305
	C151	C	0.315543	0.386462	0.107934
	C152	C	0.879560	0.681476	0.374383
	C153	C	0.107120	0.684045	0.614746
	C154	C	0.879120	0.328623	0.611711
	C155	C	0.107714	0.325762	0.370948
	C156	C	0.879032	0.386385	0.669627
	C157	C	0.107545	0.625605	0.671761
	C158	C	0.879053	0.622852	0.317501
	C159	C	0.107969	0.384525	0.314244
	C160	C	0.373371	0.679619	0.877199
	C161	C	0.611094	0.683282	0.107094
	C162	C	0.612506	0.326814	0.878412
	C163	C	0.373214	0.329417	0.107950
	C164	C	0.672088	0.891354	0.368752
	C165	C	0.669465	0.118771	0.612824
	C166	C	0.314947	0.890402	0.610807
	C167	C	0.315259	0.119104	0.372842
	C168	C	0.873833	0.389911	0.169581
	C169	C	0.111123	0.619588	0.169800
	C170	C	0.113113	0.390421	0.814182
	C171	C	0.873952	0.619560	0.818641
	C172	C	0.170309	0.884185	0.377080
	C173	C	0.170664	0.125710	0.607422
	C174	C	0.816836	0.123189	0.377194
	C175	C	0.815775	0.886645	0.607120
	C176	C	0.378108	0.181739	0.873570
	C177	C	0.606145	0.184029	0.113519
	C178	C	0.377774	0.829105	0.110463
	C179	C	0.605848	0.826245	0.870625
	C180	C	0.378089	0.887018	0.168239
	C181	C	0.606706	0.125479	0.170166
	C182	C	0.377643	0.122784	0.816453
	C183	C	0.606469	0.884522	0.813927
	C184	C	0.875170	0.179524	0.376761
	C185	C	0.112685	0.183165	0.607302
	C186	C	0.112645	0.826940	0.377476
	C187	C	0.873996	0.829747	0.607814
	C188	C	0.171956	0.390992	0.870598
	C189	C	0.169035	0.619400	0.113233
	C190	C	0.814760	0.390510	0.113896
	C191	C	0.815001	0.618942	0.875208
	C192	C	0.394033	0.098370	0.591733
	C193	C	0.592770	0.910257	0.588880
	C194	C	0.593032	0.099125	0.393784
	C195	C	0.394063	0.910759	0.391595
	C196	C	0.591186	0.406849	0.088065
	C197	C	0.592397	0.601947	0.898059
	C198	C	0.393492	0.605317	0.087463
	C199	C	0.394557	0.405814	0.898549
	C200	C	0.087431	0.603517	0.393767
	C201	C	0.899679	0.606169	0.594310
	C202	C	0.086868	0.406852	0.590571
	C203	C	0.899913	0.403911	0.392438
	C204	C	0.892043	0.599107	0.094006
	C205	C	0.093004	0.410515	0.090554
	C206	C	0.092628	0.598675	0.895679
	C207	C	0.893962	0.410772	0.894318
	C208	C	0.092088	0.907836	0.586753
	C209	C	0.092876	0.101868	0.398189
	C210	C	0.892529	0.105478	0.587335
	C211	C	0.895269	0.905475	0.398111
	C212	C	0.585884	0.103633	0.893207
	C213	C	0.398701	0.105166	0.092345
	C214	C	0.585711	0.906222	0.088779
	C215	C	0.397677	0.903922	0.891262
	Zn216	Zn	0.492462	0.003570	0.741251
	Zn217	Zn	0.492992	0.005422	0.242150
	Zn218	Zn	0.742077	0.504450	-0.005986
	Zn219	Zn	0.243730	0.505163	-0.006762
	Zn220	Zn	-0.006016	0.755425	0.493157
	Zn221	Zn	-0.006629	0.254177	0.492076
	Zn222	Zn	-0.006730	0.505072	0.743740
	Zn223	Zn	-0.006312	0.504460	0.242156
	Zn224	Zn	0.492046	0.754002	-0.008920
	Zn225	Zn	0.492479	0.255269	-0.006928
	Zn226	Zn	0.743344	0.004946	0.492211
	Zn227	Zn	0.243661	0.004498	0.492376
	N228	N	0.407306	0.966803	0.669231
	N229	N	0.578432	0.040940	0.670413
	N230	N	0.578469	0.968057	0.313116
	N231	N	0.408708	0.042913	0.315162
	N232	N	0.671939	0.417586	0.956821
	N233	N	0.669377	0.589335	0.031009
	N234	N	0.313680	0.591157	0.956491
	N235	N	0.314502	0.419596	0.030042
	N236	N	0.957036	0.683298	0.407413
	N237	N	0.029963	0.685758	0.580940
	N238	N	0.956046	0.327465	0.577100
	N239	N	0.030520	0.323965	0.404581
	N240	N	0.956264	0.420089	0.670884
	N241	N	0.030584	0.591707	0.673147
	N242	N	0.956086	0.588717	0.315743
	N243	N	0.030740	0.418486	0.313153
	N244	N	0.407172	0.681738	0.954824
	N245	N	0.578649	0.684032	0.028836
	N246	N	0.578013	0.326677	0.956019
	N247	N	0.407372	0.327634	0.030272
	N248	N	0.674036	0.968583	0.403500
	N249	N	0.671329	0.041479	0.577841
	N250	N	0.313785	0.967960	0.578160
	N251	N	0.313530	0.041320	0.405231
	N252	N	0.907808	0.467214	0.170885
	N253	N	0.077769	0.542064	0.170044
	N254	N	0.078567	0.467592	0.814540
	N255	N	0.908265	0.542524	0.816899
	N256	N	0.171729	0.918916	0.454826
	N257	N	0.172324	0.090945	0.529741
	N258	N	0.814315	0.091020	0.455491
	N259	N	0.814435	0.919355	0.529065
	N260	N	0.455622	0.183894	0.906594
	N261	N	0.528864	0.185664	0.080087
	N262	N	0.454908	0.827164	0.076432
	N263	N	0.528511	0.824566	0.903995
	N264	N	0.455382	0.920579	0.169487
	N265	N	0.529689	0.091520	0.171247
	N266	N	0.454645	0.088669	0.814738
	N267	N	0.529257	0.918494	0.812888
	N268	N	0.908237	0.182067	0.454671
	N269	N	0.078986	0.183374	0.529553
	N270	N	0.078848	0.826651	0.455489
	N271	N	0.908162	0.827754	0.530180
	N272	N	0.173396	0.468284	0.905459
	N273	N	0.171436	0.541785	0.079058
	N274	N	0.812581	0.468084	0.081236
	N275	N	0.813119	0.541155	0.907842
	O276	O	-0.083591	0.080921	-0.043675
	H277	H	-0.071391	0.067375	-0.052429
	H278	H	-0.091062	0.082616	-0.045304
	O279	O	0.496210	0.514635	0.503319
	H280	H	0.493601	0.507510	0.508032
	H281	H	0.497905	0.500028	0.495567
	O282	O	0.325170	0.494188	0.500642
	H283	H	0.317014	0.482394	0.496885
	H284	H	0.324632	0.495176	0.507838
	O285	O	0.055774	0.966578	0.925515
	H286	H	0.062038	0.969790	0.924904
	H287	H	0.061761	0.969946	0.925709
	O288	O	0.527205	0.422326	0.422986
	H289	H	0.532909	0.411403	0.415024
	H290	H	0.526666	0.421417	0.437996
	O291	O	0.755170	0.663007	0.570243
	H292	H	0.759031	0.652001	0.572288
	H293	H	0.749537	0.661233	0.574191
	O294	O	1.048304	1.051431	1.014646
	H295	H	1.045605	1.053586	1.025044
	H296	H	1.044459	1.055112	1.011514
	O297	O	0.939625	-0.016231	0.973833
	H298	H	0.935343	-0.024682	0.977394
	H299	H	0.953518	-0.011507	0.965772
	O300	O	0.553872	0.472226	0.479904
	H301	H	0.556880	0.455908	0.488915
	H302	H	0.569409	0.498219	0.480922
	O303	O	1.051602	0.045570	0.004604
	H304	H	1.055428	0.047191	0.005915
	H305	H	1.048872	0.054765	0.004981
	O306	O	-0.073196	0.904094	0.984642
	H307	H	-0.070074	0.893686	0.982318
	H308	H	-0.062792	0.904814	0.982548
	O309	O	0.567629	0.426832	0.483003
	H310	H	0.581601	0.419748	0.490330
	H311	H	0.567671	0.423512	0.492297
	O312	O	1.061258	-0.011758	0.988473
	H313	H	1.066444	-0.005408	0.999841
	H314	H	1.058393	-0.009495	0.987378
	O315	O	0.511157	0.565796	0.551237
	H316	H	0.503087	0.575826	0.543977
	H317	H	0.511277	0.571641	0.546393
	O318	O	0.421686	0.610641	0.557556
	H319	H	0.421564	0.610393	0.554091
	H320	H	0.429584	0.617064	0.541850
	O321	O	0.977255	0.968219	0.955854
	H322	H	0.983118	0.969314	0.963484
	H323	H	0.978340	0.966418	0.957841
	O324	O	0.953327	0.959134	0.996412
	H325	H	0.950817	0.963728	0.997334
	H326	H	0.943103	0.960022	0.997646
	O327	O	0.533590	0.473189	0.496993
	H328	H	0.539942	0.481517	0.493365
	H329	H	0.525990	0.469622	0.487923
	O330	O	0.988049	0.053440	0.959173
	H331	H	0.983609	0.048627	0.962380
	H332	H	0.984903	0.045747	0.947219
	O333	O	0.946281	1.040421	0.013221
	H334	H	0.948562	1.043757	0.009371
	H335	H	0.953603	1.031373	0.012857
	O336	O	0.431885	0.540127	0.457575
	H337	H	0.424877	0.536019	0.442633
	H338	H	0.422617	0.533099	0.451918
	O339	O	0.571841	0.528137	0.516014
	H340	H	0.585512	0.533318	0.509280
	H341	H	0.565508	0.524616	0.521498
	O342	O	0.026841	0.939654	-0.034740
	H343	H	0.015704	0.940954	-0.029651
	H344	H	0.027971	0.935865	-0.018202
	O345	O	-0.053028	0.037152	0.057810
	H346	H	-0.060329	0.041863	0.067537
	H347	H	-0.044484	0.036341	0.042839
	O348	O	0.511701	0.390526	0.616359
	H349	H	0.507967	0.380383	0.626654
	H350	H	0.496003	0.407611	0.619690
	O351	O	0.555912	0.527149	0.585533
	H352	H	0.546007	0.534447	0.576517
	H353	H	0.554873	0.546391	0.593173
	O354	O	0.438401	0.460189	0.616230
	H355	H	0.440506	0.475941	0.615038
	H356	H	0.446669	0.476795	0.621999
	O357	O	0.448274	0.489937	0.419945
	H358	H	0.454362	0.482755	0.425475
	H359	H	0.445101	0.491585	0.418496
	O360	O	0.504700	-0.467020	0.496169
	H361	H	0.499608	-0.474082	0.484231
	H362	H	0.518173	-0.455562	0.508066
	O363	O	0.538728	0.507022	0.439139
	H364	H	0.556076	0.502958	0.452559
	H365	H	0.548907	0.496106	0.430452
	O366	O	-0.022855	-0.041289	1.027449
	H367	H	-0.031573	-0.053458	1.019984
	H368	H	-0.020161	-0.026268	1.022353
	O369	O	0.528852	0.505074	0.469682
	H370	H	0.544285	0.486924	0.469937
	H371	H	0.512964	0.502910	0.473581
