data_Created_with_HORTON
_symmetry_space_group_name_H-M       'P1'
_audit_creation_method            'HORTON'
_symmetry_Int_Tables_number       1
_symmetry_cell_setting            triclinic
loop_
_symmetry_equiv_pos_as_xyz
  x,y,z
_cell_length_a        16.985600
_cell_length_b        16.985600
_cell_length_c        16.985600
_cell_angle_alpha     90.000000
_cell_angle_beta      90.000000
_cell_angle_gamma     90.000000
loop_
_atom_site_label
_atom_site_type_symbol
_atom_site_fract_x
_atom_site_fract_y
_atom_site_fract_z
  C2_00000   C     0.376980     0.007600     0.623020
  C2_00001   C     0.876980     0.507600     1.123020
  C2_00002   C     0.007600     0.623020     0.376980
  C2_00003   C     0.507600     1.123020     0.876980
  C2_00004   C     0.623020     0.376980     0.007600
  C2_00005   C     1.123020     0.876980     0.507600
  C2_00006   C     0.623020    -0.007600    -0.376980
  C2_00007   C     1.123020     0.492400     0.123020
  C2_00008   C     0.376980    -0.623020    -0.007600
  C2_00009   C     0.876980    -0.123020     0.492400
  C2_00010   C    -0.376980     0.007600    -0.623020
  C2_00011   C     0.123020     0.507600    -0.123020
  C2_00012   C    -0.007600    -0.623020     0.376980
  C2_00013   C     0.492400    -0.123020     0.876980
  C2_00014   C    -0.623020    -0.376980     0.007600
  C2_00015   C    -0.123020     0.123020     0.507600
  C2_00016   C    -0.376980     0.623020    -0.007600
  C2_00017   C     0.123020     1.123020     0.492400
  C2_00018   C    -0.007600     0.623020    -0.376980
  C2_00019   C     0.492400     1.123020     0.123020
  C2_00020   C     0.007600     0.376980     0.623020
  C2_00021   C     0.507600     0.876980     1.123020
  C2_00022   C    -0.623020    -0.007600     0.376980
  C2_00023   C    -0.123020     0.492400     0.876980
  C1_00024   C     0.369060    -0.101590     0.686670
  C1_00025   C     0.869060     0.398410     1.186670
  C1_00026   C    -0.101590     0.686670     0.369060
  C1_00027   C     0.398410     1.186670     0.869060
  C1_00028   C     0.686670     0.369060    -0.101590
  C1_00029   C     1.186670     0.869060     0.398410
  C1_00030   C    -0.101590    -0.369060    -0.686670
  C1_00031   C     0.398410     0.130940    -0.186670
  C1_00032   C     0.686670     0.101590    -0.369060
  C1_00033   C     1.186670     0.601590     0.130940
  C1_00034   C     0.369060    -0.686670     0.101590
  C1_00035   C     0.869060    -0.186670     0.601590
  C1_00036   C    -0.369060     0.101590     0.686670
  C1_00037   C     0.130940     0.601590     1.186670
  C1_00038   C    -0.686670     0.369060     0.101590
  C1_00039   C    -0.186670     0.869060     0.601590
  C1_00040   C    -0.369060    -0.101590    -0.686670
  C1_00041   C     0.130940     0.398410    -0.186670
  C1_00042   C     0.101590    -0.686670     0.369060
  C1_00043   C     0.601590    -0.186670     0.869060
  C1_00044   C    -0.686670    -0.369060    -0.101590
  C1_00045   C    -0.186670     0.130940     0.398410
  C1_00046   C     0.101590     0.369060    -0.686670
  C1_00047   C     0.601590     0.869060    -0.186670
  C1_00048   C    -0.686670    -0.101590    -0.369060
  C1_00049   C    -0.186670     0.398410     0.130940
  C1_00050   C    -0.369060     0.686670     0.101590
  C1_00051   C     0.130940     1.186670     0.601590
  C1_00052   C     0.101590     0.686670    -0.369060
  C1_00053   C     0.601590     1.186670     0.130940
  C1_00054   C     0.686670    -0.101590     0.369060
  C1_00055   C     1.186670     0.398410     0.869060
  C1_00056   C     0.369060     0.686670    -0.101590
  C1_00057   C     0.869060     1.186670     0.398410
  C1_00058   C    -0.101590     0.369060     0.686670
  C1_00059   C     0.398410     0.869060     1.186670
  C1_00060   C    -0.101590    -0.686670    -0.369060
  C1_00061   C     0.398410    -0.186670     0.130940
  C1_00062   C     0.101590    -0.369060     0.686670
  C1_00063   C     0.601590     0.130940     1.186670
  C1_00064   C    -0.686670     0.101590     0.369060
  C1_00065   C    -0.186670     0.601590     0.869060
  C1_00066   C    -0.369060    -0.686670    -0.101590
  C1_00067   C     0.130940    -0.186670     0.398410
  C1_00068   C     0.369060     0.101590    -0.686670
  C1_00069   C     0.869060     0.601590    -0.186670
  C1_00070   C     0.686670    -0.369060     0.101590
  C1_00071   C     1.186670     0.130940     0.601590
  C3_00072   C     0.405300     0.085700     0.594700
  C3_00073   C     0.905300     0.585700     1.094700
  C3_00074   C     0.085700     0.594700     0.405300
  C3_00075   C     0.585700     1.094700     0.905300
  C3_00076   C     0.594700     0.405300     0.085700
  C3_00077   C     1.094700     0.905300     0.585700
  C3_00078   C     0.594700    -0.085700    -0.405300
  C3_00079   C     1.094700     0.414300     0.094700
  C3_00080   C     0.405300    -0.594700    -0.085700
  C3_00081   C     0.905300    -0.094700     0.414300
  C3_00082   C    -0.405300     0.085700    -0.594700
  C3_00083   C     0.094700     0.585700    -0.094700
  C3_00084   C    -0.085700    -0.594700     0.405300
  C3_00085   C     0.414300    -0.094700     0.905300
  C3_00086   C    -0.594700    -0.405300     0.085700
  C3_00087   C    -0.094700     0.094700     0.585700
  C3_00088   C    -0.405300     0.594700    -0.085700
  C3_00089   C     0.094700     1.094700     0.414300
  C3_00090   C    -0.085700     0.594700    -0.405300
  C3_00091   C     0.414300     1.094700     0.094700
  C3_00092   C     0.085700     0.405300     0.594700
  C3_00093   C     0.585700     0.905300     1.094700
  C3_00094   C    -0.594700    -0.085700     0.405300
  C3_00095   C    -0.094700     0.414300     0.905300
   N_00096   N     0.410000    -0.032020     0.682720
   N_00097   N     0.910000     0.467980     1.182720
   N_00098   N    -0.032020     0.682720     0.410000
   N_00099   N     0.467980     1.182720     0.910000
   N_00100   N     0.682720     0.410000    -0.032020
   N_00101   N     1.182720     0.910000     0.467980
   N_00102   N    -0.032020    -0.410000    -0.682720
   N_00103   N     0.467980     0.090000    -0.182720
   N_00104   N     0.682720     0.032020    -0.410000
   N_00105   N     1.182720     0.532020     0.090000
   N_00106   N     0.410000    -0.682720     0.032020
   N_00107   N     0.910000    -0.182720     0.532020
   N_00108   N    -0.410000     0.032020     0.682720
   N_00109   N     0.090000     0.532020     1.182720
   N_00110   N    -0.682720     0.410000     0.032020
   N_00111   N    -0.182720     0.910000     0.532020
   N_00112   N    -0.410000    -0.032020    -0.682720
   N_00113   N     0.090000     0.467980    -0.182720
   N_00114   N     0.032020    -0.682720     0.410000
   N_00115   N     0.532020    -0.182720     0.910000
   N_00116   N    -0.682720    -0.410000    -0.032020
   N_00117   N    -0.182720     0.090000     0.467980
   N_00118   N     0.032020     0.410000    -0.682720
   N_00119   N     0.532020     0.910000    -0.182720
   N_00120   N    -0.682720    -0.032020    -0.410000
   N_00121   N    -0.182720     0.467980     0.090000
   N_00122   N    -0.410000     0.682720     0.032020
   N_00123   N     0.090000     1.182720     0.532020
   N_00124   N     0.032020     0.682720    -0.410000
   N_00125   N     0.532020     1.182720     0.090000
   N_00126   N     0.682720    -0.032020     0.410000
   N_00127   N     1.182720     0.467980     0.910000
   N_00128   N     0.410000     0.682720    -0.032020
   N_00129   N     0.910000     1.182720     0.467980
   N_00130   N    -0.032020     0.410000     0.682720
   N_00131   N     0.467980     0.910000     1.182720
   N_00132   N    -0.032020    -0.682720    -0.410000
   N_00133   N     0.467980    -0.182720     0.090000
   N_00134   N     0.032020    -0.410000     0.682720
   N_00135   N     0.532020     0.090000     1.182720
   N_00136   N    -0.682720     0.032020     0.410000
   N_00137   N    -0.182720     0.532020     0.910000
   N_00138   N    -0.410000    -0.682720    -0.032020
   N_00139   N     0.090000    -0.182720     0.467980
   N_00140   N     0.410000     0.032020    -0.682720
   N_00141   N     0.910000     0.532020    -0.182720
   N_00142   N     0.682720    -0.410000     0.032020
   N_00143   N     1.182720     0.090000     0.532020
  Zn_00144  Zn     0.500000    -0.000000     0.750000
  Zn_00145  Zn     1.000000     0.500000     1.250000
  Zn_00146  Zn    -0.000000     0.750000     0.500000
  Zn_00147  Zn     0.500000     1.250000     1.000000
  Zn_00148  Zn     0.750000     0.500000     0.000000
  Zn_00149  Zn     1.250000     1.000000     0.500000
  Zn_00150  Zn     0.750000     0.000000    -0.500000
  Zn_00151  Zn     1.250000     0.500000     0.000000
  Zn_00152  Zn    -0.500000     0.000000    -0.750000
  Zn_00153  Zn     0.000000     0.500000    -0.250000
  Zn_00154  Zn     0.000000    -0.750000     0.500000
  Zn_00155  Zn     0.500000    -0.250000     1.000000
  H1_00156   H     0.378500    -0.142100     0.722200
  H1_00157   H     0.878500     0.357900     1.222200
  H1_00158   H    -0.142100     0.722200     0.378500
  H1_00159   H     0.357900     1.222200     0.878500
  H1_00160   H     0.722200     0.378500    -0.142100
  H1_00161   H     1.222200     0.878500     0.357900
  H1_00162   H    -0.142100    -0.378500    -0.722200
  H1_00163   H     0.357900     0.121500    -0.222200
  H1_00164   H     0.722200     0.142100    -0.378500
  H1_00165   H     1.222200     0.642100     0.121500
  H1_00166   H     0.378500    -0.722200     0.142100
  H1_00167   H     0.878500    -0.222200     0.642100
  H1_00168   H    -0.378500     0.142100     0.722200
  H1_00169   H     0.121500     0.642100     1.222200
  H1_00170   H    -0.722200     0.378500     0.142100
  H1_00171   H    -0.222200     0.878500     0.642100
  H1_00172   H    -0.378500    -0.142100    -0.722200
  H1_00173   H     0.121500     0.357900    -0.222200
  H1_00174   H     0.142100    -0.722200     0.378500
  H1_00175   H     0.642100    -0.222200     0.878500
  H1_00176   H    -0.722200    -0.378500    -0.142100
  H1_00177   H    -0.222200     0.121500     0.357900
  H1_00178   H     0.142100     0.378500    -0.722200
  H1_00179   H     0.642100     0.878500    -0.222200
  H1_00180   H    -0.722200    -0.142100    -0.378500
  H1_00181   H    -0.222200     0.357900     0.121500
  H1_00182   H    -0.378500     0.722200     0.142100
  H1_00183   H     0.121500     1.222200     0.642100
  H1_00184   H     0.142100     0.722200    -0.378500
  H1_00185   H     0.642100     1.222200     0.121500
  H1_00186   H     0.722200    -0.142100     0.378500
  H1_00187   H     1.222200     0.357900     0.878500
  H1_00188   H     0.378500     0.722200    -0.142100
  H1_00189   H     0.878500     1.222200     0.357900
  H1_00190   H    -0.142100     0.378500     0.722200
  H1_00191   H     0.357900     0.878500     1.222200
  H1_00192   H    -0.142100    -0.722200    -0.378500
  H1_00193   H     0.357900    -0.222200     0.121500
  H1_00194   H     0.142100    -0.378500     0.722200
  H1_00195   H     0.642100     0.121500     1.222200
  H1_00196   H    -0.722200     0.142100     0.378500
  H1_00197   H    -0.222200     0.642100     0.878500
  H1_00198   H    -0.378500    -0.722200    -0.142100
  H1_00199   H     0.121500    -0.222200     0.357900
  H1_00200   H     0.378500     0.142100    -0.722200
  H1_00201   H     0.878500     0.642100    -0.222200
  H1_00202   H     0.722200    -0.378500     0.142100
  H1_00203   H     1.222200     0.121500     0.642100
  H3_00204   H     0.444700     0.077900     0.555300
  H3_00205   H     0.944700     0.577900     1.055300
  H3_00206   H     0.077900     0.555300     0.444700
  H3_00207   H     0.577900     1.055300     0.944700
  H3_00208   H     0.555300     0.444700     0.077900
  H3_00209   H     1.055300     0.944700     0.577900
  H3_00210   H     0.555300    -0.077900    -0.444700
  H3_00211   H     1.055300     0.422100     0.055300
  H3_00212   H     0.444700    -0.555300    -0.077900
  H3_00213   H     0.944700    -0.055300     0.422100
  H3_00214   H    -0.444700     0.077900    -0.555300
  H3_00215   H     0.055300     0.577900    -0.055300
  H3_00216   H    -0.077900    -0.555300     0.444700
  H3_00217   H     0.422100    -0.055300     0.944700
  H3_00218   H    -0.555300    -0.444700     0.077900
  H3_00219   H    -0.055300     0.055300     0.577900
  H3_00220   H    -0.444700     0.555300    -0.077900
  H3_00221   H     0.055300     1.055300     0.422100
  H3_00222   H    -0.077900     0.555300    -0.444700
  H3_00223   H     0.422100     1.055300     0.055300
  H3_00224   H     0.077900     0.444700     0.555300
  H3_00225   H     0.577900     0.944700     1.055300
  H3_00226   H    -0.555300    -0.077900     0.444700
  H3_00227   H    -0.055300     0.422100     0.944700
  H3_00228   H     0.362800     0.114700     0.572300
  H3_00229   H     0.862800     0.614700     1.072300
  H3_00230   H     0.114700     0.572300     0.362800
  H3_00231   H     0.614700     1.072300     0.862800
  H3_00232   H     0.572300     0.362800     0.114700
  H3_00233   H     1.072300     0.862800     0.614700
  H3_00234   H     0.114700    -0.362800    -0.572300
  H3_00235   H     0.614700     0.137200    -0.072300
  H3_00236   H     0.572300    -0.114700    -0.362800
  H3_00237   H     1.072300     0.385300     0.137200
  H3_00238   H     0.362800    -0.572300    -0.114700
  H3_00239   H     0.862800    -0.072300     0.385300
  H3_00240   H    -0.362800    -0.114700     0.572300
  H3_00241   H     0.137200     0.385300     1.072300
  H3_00242   H    -0.572300     0.362800    -0.114700
  H3_00243   H    -0.072300     0.862800     0.385300
  H3_00244   H    -0.362800     0.114700    -0.572300
  H3_00245   H     0.137200     0.614700    -0.072300
  H3_00246   H    -0.114700    -0.572300     0.362800
  H3_00247   H     0.385300    -0.072300     0.862800
  H3_00248   H    -0.572300    -0.362800     0.114700
  H3_00249   H    -0.072300     0.137200     0.614700
  H3_00250   H    -0.114700     0.362800    -0.572300
  H3_00251   H     0.385300     0.862800    -0.072300
  H3_00252   H    -0.572300     0.114700    -0.362800
  H3_00253   H    -0.072300     0.614700     0.137200
  H3_00254   H    -0.362800     0.572300    -0.114700
  H3_00255   H     0.137200     1.072300     0.385300
  H3_00256   H    -0.114700     0.572300    -0.362800
  H3_00257   H     0.385300     1.072300     0.137200
  H3_00258   H     0.572300     0.114700     0.362800
  H3_00259   H     1.072300     0.614700     0.862800
  H3_00260   H     0.362800     0.572300     0.114700
  H3_00261   H     0.862800     1.072300     0.614700
  H3_00262   H     0.114700     0.362800     0.572300
  H3_00263   H     0.614700     0.862800     1.072300
  H3_00264   H     0.114700    -0.572300    -0.362800
  H3_00265   H     0.614700    -0.072300     0.137200
  H3_00266   H    -0.114700    -0.362800     0.572300
  H3_00267   H     0.385300     0.137200     1.072300
  H3_00268   H    -0.572300    -0.114700     0.362800
  H3_00269   H    -0.072300     0.385300     0.862800
  H3_00270   H    -0.362800    -0.572300     0.114700
  H3_00271   H     0.137200    -0.072300     0.614700
  H3_00272   H     0.362800    -0.114700    -0.572300
  H3_00273   H     0.862800     0.385300    -0.072300
  H3_00274   H     0.572300    -0.362800    -0.114700
  H3_00275   H     1.072300     0.137200     0.385300
