data_Created_with_HORTON
_symmetry_space_group_name_H-M       'P1'
_audit_creation_method            'HORTON'
_symmetry_Int_Tables_number       1
_symmetry_cell_setting            triclinic
loop_
_symmetry_equiv_pos_as_xyz
  x,y,z
_cell_length_a        17.071000
_cell_length_b        17.071000
_cell_length_c        17.071000
_cell_angle_alpha     90.000000
_cell_angle_beta      90.000000
_cell_angle_gamma     90.000000
loop_
_atom_site_label
_atom_site_type_symbol
_atom_site_fract_x
_atom_site_fract_y
_atom_site_fract_z
  C2_00000   C     0.364700     0.011000     0.635300
  C2_00001   C     0.864700     0.511000     1.135300
  C2_00002   C     0.011000     0.635300     0.364700
  C2_00003   C     0.511000     1.135300     0.864700
  C2_00004   C     0.635300     0.364700     0.011000
  C2_00005   C     1.135300     0.864700     0.511000
  C2_00006   C     0.635300    -0.011000    -0.364700
  C2_00007   C     1.135300     0.489000     0.135300
  C2_00008   C     0.364700    -0.635300    -0.011000
  C2_00009   C     0.864700    -0.135300     0.489000
  C2_00010   C    -0.364700     0.011000    -0.635300
  C2_00011   C     0.135300     0.511000    -0.135300
  C2_00012   C    -0.011000    -0.635300     0.364700
  C2_00013   C     0.489000    -0.135300     0.864700
  C2_00014   C    -0.635300    -0.364700     0.011000
  C2_00015   C    -0.135300     0.135300     0.511000
  C2_00016   C    -0.364700     0.635300    -0.011000
  C2_00017   C     0.135300     1.135300     0.489000
  C2_00018   C    -0.011000     0.635300    -0.364700
  C2_00019   C     0.489000     1.135300     0.135300
  C2_00020   C     0.011000     0.364700     0.635300
  C2_00021   C     0.511000     0.864700     1.135300
  C2_00022   C    -0.635300    -0.011000     0.364700
  C2_00023   C    -0.135300     0.489000     0.864700
  C1_00024   C     0.394400    -0.108500     0.660700
  C1_00025   C     0.894400     0.391500     1.160700
  C1_00026   C    -0.108500     0.660700     0.394400
  C1_00027   C     0.391500     1.160700     0.894400
  C1_00028   C     0.660700     0.394400    -0.108500
  C1_00029   C     1.160700     0.894400     0.391500
  C1_00030   C    -0.108500    -0.394400    -0.660700
  C1_00031   C     0.391500     0.105600    -0.160700
  C1_00032   C     0.660700     0.108500    -0.394400
  C1_00033   C     1.160700     0.608500     0.105600
  C1_00034   C     0.394400    -0.660700     0.108500
  C1_00035   C     0.894400    -0.160700     0.608500
  C1_00036   C    -0.394400     0.108500     0.660700
  C1_00037   C     0.105600     0.608500     1.160700
  C1_00038   C    -0.660700     0.394400     0.108500
  C1_00039   C    -0.160700     0.894400     0.608500
  C1_00040   C    -0.394400    -0.108500    -0.660700
  C1_00041   C     0.105600     0.391500    -0.160700
  C1_00042   C     0.108500    -0.660700     0.394400
  C1_00043   C     0.608500    -0.160700     0.894400
  C1_00044   C    -0.660700    -0.394400    -0.108500
  C1_00045   C    -0.160700     0.105600     0.391500
  C1_00046   C     0.108500     0.394400    -0.660700
  C1_00047   C     0.608500     0.894400    -0.160700
  C1_00048   C    -0.660700    -0.108500    -0.394400
  C1_00049   C    -0.160700     0.391500     0.105600
  C1_00050   C    -0.394400     0.660700     0.108500
  C1_00051   C     0.105600     1.160700     0.608500
  C1_00052   C     0.108500     0.660700    -0.394400
  C1_00053   C     0.608500     1.160700     0.105600
  C1_00054   C     0.660700    -0.108500     0.394400
  C1_00055   C     1.160700     0.391500     0.894400
  C1_00056   C     0.394400     0.660700    -0.108500
  C1_00057   C     0.894400     1.160700     0.391500
  C1_00058   C    -0.108500     0.394400     0.660700
  C1_00059   C     0.391500     0.894400     1.160700
  C1_00060   C    -0.108500    -0.660700    -0.394400
  C1_00061   C     0.391500    -0.160700     0.105600
  C1_00062   C     0.108500    -0.394400     0.660700
  C1_00063   C     0.608500     0.105600     1.160700
  C1_00064   C    -0.660700     0.108500     0.394400
  C1_00065   C    -0.160700     0.608500     0.894400
  C1_00066   C    -0.394400    -0.660700    -0.108500
  C1_00067   C     0.105600    -0.160700     0.391500
  C1_00068   C     0.394400     0.108500    -0.660700
  C1_00069   C     0.894400     0.608500    -0.160700
  C1_00070   C     0.660700    -0.394400     0.108500
  C1_00071   C     1.160700     0.105600     0.608500
  C3_00072   C     0.366600     0.098900     0.633400
  C3_00073   C     0.866600     0.598900     1.133400
  C3_00074   C     0.098900     0.633400     0.366600
  C3_00075   C     0.598900     1.133400     0.866600
  C3_00076   C     0.633400     0.366600     0.098900
  C3_00077   C     1.133400     0.866600     0.598900
  C3_00078   C     0.633400    -0.098900    -0.366600
  C3_00079   C     1.133400     0.401100     0.133400
  C3_00080   C     0.366600    -0.633400    -0.098900
  C3_00081   C     0.866600    -0.133400     0.401100
  C3_00082   C    -0.366600     0.098900    -0.633400
  C3_00083   C     0.133400     0.598900    -0.133400
  C3_00084   C    -0.098900    -0.633400     0.366600
  C3_00085   C     0.401100    -0.133400     0.866600
  C3_00086   C    -0.633400    -0.366600     0.098900
  C3_00087   C    -0.133400     0.133400     0.598900
  C3_00088   C    -0.366600     0.633400    -0.098900
  C3_00089   C     0.133400     1.133400     0.401100
  C3_00090   C    -0.098900     0.633400    -0.366600
  C3_00091   C     0.401100     1.133400     0.133400
  C3_00092   C     0.098900     0.366600     0.633400
  C3_00093   C     0.598900     0.866600     1.133400
  C3_00094   C    -0.633400    -0.098900     0.366600
  C3_00095   C    -0.133400     0.401100     0.866600
   N_00096   N     0.410900    -0.031900     0.681600
   N_00097   N     0.910900     0.468100     1.181600
   N_00098   N    -0.031900     0.681600     0.410900
   N_00099   N     0.468100     1.181600     0.910900
   N_00100   N     0.681600     0.410900    -0.031900
   N_00101   N     1.181600     0.910900     0.468100
   N_00102   N    -0.031900    -0.410900    -0.681600
   N_00103   N     0.468100     0.089100    -0.181600
   N_00104   N     0.681600     0.031900    -0.410900
   N_00105   N     1.181600     0.531900     0.089100
   N_00106   N     0.410900    -0.681600     0.031900
   N_00107   N     0.910900    -0.181600     0.531900
   N_00108   N    -0.410900     0.031900     0.681600
   N_00109   N     0.089100     0.531900     1.181600
   N_00110   N    -0.681600     0.410900     0.031900
   N_00111   N    -0.181600     0.910900     0.531900
   N_00112   N    -0.410900    -0.031900    -0.681600
   N_00113   N     0.089100     0.468100    -0.181600
   N_00114   N     0.031900    -0.681600     0.410900
   N_00115   N     0.531900    -0.181600     0.910900
   N_00116   N    -0.681600    -0.410900    -0.031900
   N_00117   N    -0.181600     0.089100     0.468100
   N_00118   N     0.031900     0.410900    -0.681600
   N_00119   N     0.531900     0.910900    -0.181600
   N_00120   N    -0.681600    -0.031900    -0.410900
   N_00121   N    -0.181600     0.468100     0.089100
   N_00122   N    -0.410900     0.681600     0.031900
   N_00123   N     0.089100     1.181600     0.531900
   N_00124   N     0.031900     0.681600    -0.410900
   N_00125   N     0.531900     1.181600     0.089100
   N_00126   N     0.681600    -0.031900     0.410900
   N_00127   N     1.181600     0.468100     0.910900
   N_00128   N     0.410900     0.681600    -0.031900
   N_00129   N     0.910900     1.181600     0.468100
   N_00130   N    -0.031900     0.410900     0.681600
   N_00131   N     0.468100     0.910900     1.181600
   N_00132   N    -0.031900    -0.681600    -0.410900
   N_00133   N     0.468100    -0.181600     0.089100
   N_00134   N     0.031900    -0.410900     0.681600
   N_00135   N     0.531900     0.089100     1.181600
   N_00136   N    -0.681600     0.031900     0.410900
   N_00137   N    -0.181600     0.531900     0.910900
   N_00138   N    -0.410900    -0.681600    -0.031900
   N_00139   N     0.089100    -0.181600     0.468100
   N_00140   N     0.410900     0.031900    -0.681600
   N_00141   N     0.910900     0.531900    -0.181600
   N_00142   N     0.681600    -0.410900     0.031900
   N_00143   N     1.181600     0.089100     0.531900
  Zn_00144  Zn     0.500000     0.000000     0.750000
  Zn_00145  Zn     1.000000     0.500000     1.250000
  Zn_00146  Zn    -0.000000     0.750000     0.500000
  Zn_00147  Zn     0.500000     1.250000     1.000000
  Zn_00148  Zn     0.750000     0.500000     0.000000
  Zn_00149  Zn     1.250000     1.000000     0.500000
  Zn_00150  Zn     0.750000     0.000000    -0.500000
  Zn_00151  Zn     1.250000     0.500000     0.000000
  Zn_00152  Zn    -0.500000    -0.000000    -0.750000
  Zn_00153  Zn    -0.000000     0.500000    -0.250000
  Zn_00154  Zn     0.000000    -0.750000     0.500000
  Zn_00155  Zn     0.500000    -0.250000     1.000000
  H1_00156   H     0.418100    -0.152800     0.681700
  H1_00157   H     0.918100     0.347200     1.181700
  H1_00158   H    -0.152800     0.681700     0.418100
  H1_00159   H     0.347200     1.181700     0.918100
  H1_00160   H     0.681700     0.418100    -0.152800
  H1_00161   H     1.181700     0.918100     0.347200
  H1_00162   H    -0.152800    -0.418100    -0.681700
  H1_00163   H     0.347200     0.081900    -0.181700
  H1_00164   H     0.681700     0.152800    -0.418100
  H1_00165   H     1.181700     0.652800     0.081900
  H1_00166   H     0.418100    -0.681700     0.152800
  H1_00167   H     0.918100    -0.181700     0.652800
  H1_00168   H    -0.418100     0.152800     0.681700
  H1_00169   H     0.081900     0.652800     1.181700
  H1_00170   H    -0.681700     0.418100     0.152800
  H1_00171   H    -0.181700     0.918100     0.652800
  H1_00172   H    -0.418100    -0.152800    -0.681700
  H1_00173   H     0.081900     0.347200    -0.181700
  H1_00174   H     0.152800    -0.681700     0.418100
  H1_00175   H     0.652800    -0.181700     0.918100
  H1_00176   H    -0.681700    -0.418100    -0.152800
  H1_00177   H    -0.181700     0.081900     0.347200
  H1_00178   H     0.152800     0.418100    -0.681700
  H1_00179   H     0.652800     0.918100    -0.181700
  H1_00180   H    -0.681700    -0.152800    -0.418100
  H1_00181   H    -0.181700     0.347200     0.081900
  H1_00182   H    -0.418100     0.681700     0.152800
  H1_00183   H     0.081900     1.181700     0.652800
  H1_00184   H     0.152800     0.681700    -0.418100
  H1_00185   H     0.652800     1.181700     0.081900
  H1_00186   H     0.681700    -0.152800     0.418100
  H1_00187   H     1.181700     0.347200     0.918100
  H1_00188   H     0.418100     0.681700    -0.152800
  H1_00189   H     0.918100     1.181700     0.347200
  H1_00190   H    -0.152800     0.418100     0.681700
  H1_00191   H     0.347200     0.918100     1.181700
  H1_00192   H    -0.152800    -0.681700    -0.418100
  H1_00193   H     0.347200    -0.181700     0.081900
  H1_00194   H     0.152800    -0.418100     0.681700
  H1_00195   H     0.652800     0.081900     1.181700
  H1_00196   H    -0.681700     0.152800     0.418100
  H1_00197   H    -0.181700     0.652800     0.918100
  H1_00198   H    -0.418100    -0.681700    -0.152800
  H1_00199   H     0.081900    -0.181700     0.347200
  H1_00200   H     0.418100     0.152800    -0.681700
  H1_00201   H     0.918100     0.652800    -0.181700
  H1_00202   H     0.681700    -0.418100     0.152800
  H1_00203   H     1.181700     0.081900     0.652800
  H3_00204   H     0.404300     0.116800     0.595700
  H3_00205   H     0.904300     0.616800     1.095700
  H3_00206   H     0.116800     0.595700     0.404300
  H3_00207   H     0.616800     1.095700     0.904300
  H3_00208   H     0.595700     0.404300     0.116800
  H3_00209   H     1.095700     0.904300     0.616800
  H3_00210   H     0.595700    -0.116800    -0.404300
  H3_00211   H     1.095700     0.383200     0.095700
  H3_00212   H     0.404300    -0.595700    -0.116800
  H3_00213   H     0.904300    -0.095700     0.383200
  H3_00214   H    -0.404300     0.116800    -0.595700
  H3_00215   H     0.095700     0.616800    -0.095700
  H3_00216   H    -0.116800    -0.595700     0.404300
  H3_00217   H     0.383200    -0.095700     0.904300
  H3_00218   H    -0.595700    -0.404300     0.116800
  H3_00219   H    -0.095700     0.095700     0.616800
  H3_00220   H    -0.404300     0.595700    -0.116800
  H3_00221   H     0.095700     1.095700     0.383200
  H3_00222   H    -0.116800     0.595700    -0.404300
  H3_00223   H     0.383200     1.095700     0.095700
  H3_00224   H     0.116800     0.404300     0.595700
  H3_00225   H     0.616800     0.904300     1.095700
  H3_00226   H    -0.595700    -0.116800     0.404300
  H3_00227   H    -0.095700     0.383200     0.904300
  H3_00228   H     0.315800     0.118600     0.619600
  H3_00229   H     0.815800     0.618600     1.119600
  H3_00230   H     0.118600     0.619600     0.315800
  H3_00231   H     0.618600     1.119600     0.815800
  H3_00232   H     0.619600     0.315800     0.118600
  H3_00233   H     1.119600     0.815800     0.618600
  H3_00234   H     0.118600    -0.315800    -0.619600
  H3_00235   H     0.618600     0.184200    -0.119600
  H3_00236   H     0.619600    -0.118600    -0.315800
  H3_00237   H     1.119600     0.381400     0.184200
  H3_00238   H     0.315800    -0.619600    -0.118600
  H3_00239   H     0.815800    -0.119600     0.381400
  H3_00240   H    -0.315800    -0.118600     0.619600
  H3_00241   H     0.184200     0.381400     1.119600
  H3_00242   H    -0.619600     0.315800    -0.118600
  H3_00243   H    -0.119600     0.815800     0.381400
  H3_00244   H    -0.315800     0.118600    -0.619600
  H3_00245   H     0.184200     0.618600    -0.119600
  H3_00246   H    -0.118600    -0.619600     0.315800
  H3_00247   H     0.381400    -0.119600     0.815800
  H3_00248   H    -0.619600    -0.315800     0.118600
  H3_00249   H    -0.119600     0.184200     0.618600
  H3_00250   H    -0.118600     0.315800    -0.619600
  H3_00251   H     0.381400     0.815800    -0.119600
  H3_00252   H    -0.619600     0.118600    -0.315800
  H3_00253   H    -0.119600     0.618600     0.184200
  H3_00254   H    -0.315800     0.619600    -0.118600
  H3_00255   H     0.184200     1.119600     0.381400
  H3_00256   H    -0.118600     0.619600    -0.315800
  H3_00257   H     0.381400     1.119600     0.184200
  H3_00258   H     0.619600     0.118600     0.315800
  H3_00259   H     1.119600     0.618600     0.815800
  H3_00260   H     0.315800     0.619600     0.118600
  H3_00261   H     0.815800     1.119600     0.618600
  H3_00262   H     0.118600     0.315800     0.619600
  H3_00263   H     0.618600     0.815800     1.119600
  H3_00264   H     0.118600    -0.619600    -0.315800
  H3_00265   H     0.618600    -0.119600     0.184200
  H3_00266   H    -0.118600    -0.315800     0.619600
  H3_00267   H     0.381400     0.184200     1.119600
  H3_00268   H    -0.619600    -0.118600     0.315800
  H3_00269   H    -0.119600     0.381400     0.815800
  H3_00270   H    -0.315800    -0.619600     0.118600
  H3_00271   H     0.184200    -0.119600     0.618600
  H3_00272   H     0.315800    -0.118600    -0.619600
  H3_00273   H     0.815800     0.381400    -0.119600
  H3_00274   H     0.619600    -0.315800    -0.118600
  H3_00275   H     1.119600     0.184200     0.381400
