data_Molecule from HDF5

_cell_length_a		16.348707
_cell_length_b		16.467775
_cell_length_c		16.373534
_cell_angle_alpha	89.944065
_cell_angle_beta	90.144023
_cell_angle_gamma	90.152720
_symmetry_space_group_name_H-M	'P 1'
_symmetry_Int_Tables_number		1

loop_
	_symmetry_equiv_pos_as_xyz
	x,y,z

loop_
	_atom_site_label
	_atom_site_type_symbol
	_atom_site_fract_x
	_atom_site_fract_y
	_atom_site_fract_z
	H0	H	0.392238	0.822838	0.727645
	H1	H	0.607220	0.139024	0.731369
	H2	H	0.607136	0.824572	0.283192
	H3	H	0.394598	0.139586	0.283868
	H4	H	0.719235	0.372628	0.847103
	H5	H	0.719032	0.584184	0.164716
	H6	H	0.279971	0.581270	0.845187
	H7	H	0.277431	0.376507	0.165608
	H8	H	0.839323	0.704305	0.397796
	H9	H	0.157376	0.703941	0.613037
	H10	H	0.840638	0.257402	0.612813
	H11	H	0.158233	0.264368	0.401400
	H12	H	0.838192	0.374575	0.726522
	H13	H	0.157140	0.586766	0.727447
	H14	H	0.838531	0.587596	0.283322
	H15	H	0.157174	0.379488	0.285722
	H16	H	0.389353	0.703796	0.848979
	H17	H	0.605858	0.701578	0.165449
	H18	H	0.603210	0.257552	0.847983
	H19	H	0.391201	0.258752	0.165310
	H20	H	0.722661	0.824799	0.399486
	H21	H	0.723722	0.139390	0.616132
	H22	H	0.275294	0.823973	0.611234
	H23	H	0.281175	0.141893	0.402567
	H24	H	0.894085	0.322870	0.225628
	H25	H	0.102666	0.640802	0.224797
	H26	H	0.100837	0.322436	0.784501
	H27	H	0.888672	0.638593	0.781098
	H28	H	0.214494	0.883526	0.345005
	H29	H	0.217891	0.085660	0.666156
	H30	H	0.777701	0.087099	0.347209
	H31	H	0.776897	0.874982	0.665142
	H32	H	0.338382	0.199150	0.901455
	H33	H	0.655515	0.205772	0.114822
	H34	H	0.339292	0.760092	0.111586
	H35	H	0.656979	0.758182	0.900645
	H36	H	0.339092	0.878694	0.224816
	H37	H	0.658004	0.086868	0.226578
	H38	H	0.339431	0.084703	0.785442
	H39	H	0.657235	0.874434	0.784747
	H40	H	0.894431	0.202483	0.346421
	H41	H	0.105574	0.204475	0.664684
	H42	H	0.102763	0.762997	0.346210
	H43	H	0.889861	0.756784	0.663089
	H44	H	0.214277	0.320794	0.903612
	H45	H	0.217283	0.640260	0.107355
	H46	H	0.777255	0.321942	0.109321
	H47	H	0.772698	0.638138	0.896959
	H48	H	0.410424	0.093748	0.593831
	H49	H	0.581588	0.869363	0.601811
	H50	H	0.588821	0.095549	0.413427
	H51	H	0.406789	0.866327	0.411232
	H52	H	0.588776	0.396082	0.118611
	H53	H	0.586269	0.574446	0.890357
	H54	H	0.410239	0.572885	0.120821
	H55	H	0.401119	0.387706	0.889029
	H56	H	0.112498	0.573649	0.414339
	H57	H	0.887698	0.561561	0.592523
	H58	H	0.112743	0.392365	0.597106
	H59	H	0.884351	0.398968	0.412508
	H60	H	0.110433	0.392810	0.590517
	H61	H	0.880898	0.574346	0.598978
	H62	H	0.111502	0.573150	0.417771
	H63	H	0.881509	0.386518	0.412825
	H64	H	0.404884	0.568930	0.121282
	H65	H	0.587005	0.564525	0.893219
	H66	H	0.581349	0.393493	0.116466
	H67	H	0.408297	0.393453	0.893538
	H68	H	0.583841	0.092203	0.418146
	H69	H	0.582395	0.875069	0.586576
	H70	H	0.408202	0.095590	0.597022
	H71	H	0.413553	0.870301	0.417976
	H72	H	0.908534	0.594513	0.095750
	H73	H	0.086158	0.366862	0.099393
	H74	H	0.095041	0.596103	0.917987
	H75	H	0.909150	0.369384	0.916460
	H76	H	0.079938	0.898243	0.615700
	H77	H	0.096521	0.076175	0.388045
	H78	H	0.902954	0.072546	0.623544
	H79	H	0.919630	0.895950	0.396869
	H80	H	0.614859	0.071378	0.914401
	H81	H	0.382701	0.071464	0.096542
	H82	H	0.610351	0.895520	0.091599
	H83	H	0.385338	0.889958	0.922305
	H84	H	0.615191	0.891428	0.102053
	H85	H	0.385706	0.070412	0.091962
	H86	H	0.610763	0.073389	0.926059
	H87	H	0.386502	0.895134	0.916672
	H88	H	0.915214	0.061389	0.614442
	H89	H	0.087942	0.069517	0.393376
	H90	H	0.083864	0.884026	0.621857
	H91	H	0.908434	0.886187	0.390258
	H92	H	0.083202	0.595356	0.908649
	H93	H	0.084888	0.369195	0.095066
	H94	H	0.910787	0.592884	0.091809
	H95	H	0.908201	0.368931	0.916847
	H96	H	0.412476	0.094195	0.598248
	H97	H	0.594764	0.867766	0.593481
	H98	H	0.590364	0.094707	0.420311
	H99	H	0.403504	0.868302	0.420863
	H100	H	0.586325	0.388784	0.120486
	H101	H	0.577562	0.569628	0.895643
	H102	H	0.410731	0.566374	0.118403
	H103	H	0.410239	0.384015	0.891444
	H104	H	0.111130	0.570807	0.415009
	H105	H	0.886629	0.575197	0.584419
	H106	H	0.109837	0.398438	0.594871
	H107	H	0.885575	0.392026	0.423449
	H108	H	0.906153	0.594046	0.091512
	H109	H	0.089126	0.366590	0.095754
	H110	H	0.082033	0.590600	0.922918
	H111	H	0.909194	0.368716	0.915865
	H112	H	0.094892	0.895933	0.621358
	H113	H	0.085832	0.080644	0.390520
	H114	H	0.919945	0.078719	0.619288
	H115	H	0.904424	0.901300	0.393989
	H116	H	0.609658	0.062311	0.921006
	H117	H	0.384829	0.066892	0.096190
	H118	H	0.614091	0.883448	0.091916
	H119	H	0.382893	0.888325	0.915516
	C120	C	0.376877	-0.009762	0.628775
	C121	C	0.620513	0.974119	0.628440
	C122	C	0.620968	-0.009376	0.384591
	C123	C	0.377271	0.973299	0.384658
	C124	C	0.618162	0.359377	0.013954
	C125	C	0.618063	0.601764	0.997915
	C126	C	0.376637	0.601128	0.014575
	C127	C	0.374921	0.357513	0.997063
	C128	C	0.006653	0.604270	0.382987
	C129	C	0.989785	0.603165	0.626007
	C130	C	0.006298	0.360962	0.626580
	C131	C	0.989284	0.361740	0.384628
	C132	C	0.876768	0.489312	0.125539
	C133	C	0.119054	0.472559	0.127330
	C134	C	0.118282	0.489100	0.884524
	C135	C	0.874781	0.472577	0.882735
	C136	C	0.118050	0.862038	0.514069
	C137	C	0.121634	0.106062	0.496488
	C138	C	0.878963	0.103586	0.514325
	C139	C	0.876912	0.860554	0.497813
	C140	C	0.506393	0.100890	0.887017
	C141	C	0.489464	0.102562	0.127820
	C142	C	0.507583	0.858991	0.127618
	C143	C	0.489757	0.858453	0.885225
	C144	C	0.373930	0.870883	0.688240
	C145	C	0.624765	0.091757	0.690811
	C146	C	0.624502	0.871898	0.323727
	C147	C	0.376504	0.092589	0.324597
	C148	C	0.678636	0.355751	0.894611
	C149	C	0.679848	0.603496	0.116706
	C150	C	0.318204	0.601693	0.893787
	C151	C	0.316396	0.357444	0.117602
	C152	C	0.887101	0.664265	0.379884
	C153	C	0.109430	0.663664	0.630147
	C154	C	0.887696	0.298551	0.630281
	C155	C	0.110121	0.303640	0.383122
	C156	C	0.886443	0.357073	0.686797
	C157	C	0.109299	0.605396	0.687354
	C158	C	0.886562	0.606158	0.322749
	C159	C	0.109579	0.360911	0.325382
	C160	C	0.373032	0.662299	0.895653
	C161	C	0.622767	0.661541	0.117396
	C162	C	0.621235	0.297890	0.895281
	C163	C	0.373317	0.298983	0.117418
	C164	C	0.682145	0.872084	0.381746
	C165	C	0.682829	0.092125	0.633015
	C166	C	0.315514	0.871438	0.630262
	C167	C	0.319805	0.093733	0.383617
	C168	C	0.875147	0.370059	0.185683
	C169	C	0.121171	0.592679	0.185753
	C170	C	0.119116	0.369881	0.824704
	C171	C	0.870712	0.590956	0.821307
	C172	C	0.176469	0.862695	0.393354
	C173	C	0.179420	0.105304	0.617691
	C174	C	0.818155	0.105427	0.394771
	C175	C	0.816530	0.857109	0.617088
	C176	C	0.386501	0.160005	0.883605
	C177	C	0.608370	0.164514	0.131773
	C178	C	0.386939	0.800353	0.129538
	C179	C	0.609372	0.798278	0.882763
	C180	C	0.387058	0.859093	0.186048
	C181	C	0.609735	0.105148	0.187322
	C182	C	0.386771	0.102810	0.826025
	C183	C	0.609428	0.856117	0.824966
	C184	C	0.875915	0.163187	0.394493
	C185	C	0.123154	0.164347	0.616989
	C186	C	0.120774	0.802944	0.394001
	C187	C	0.872894	0.797992	0.615891
	C188	C	0.175750	0.368936	0.883880
	C189	C	0.178426	0.592479	0.127252
	C190	C	0.817231	0.369618	0.127736
	C191	C	0.812887	0.590785	0.879321
	C192	C	0.402847	0.072986	0.603741
	C193	C	0.593747	0.892073	0.601661
	C194	C	0.595231	0.072645	0.409947
	C195	C	0.401234	0.890140	0.409602
	C196	C	0.592808	0.385363	0.096703
	C197	C	0.591336	0.576801	0.914813
	C198	C	0.401588	0.576604	0.098262
	C199	C	0.399504	0.381342	0.913200
	C200	C	0.090038	0.579536	0.408430
	C201	C	0.906563	0.577655	0.599470
	C202	C	0.089348	0.387099	0.601520
	C203	C	0.905710	0.385682	0.409354
	C204	C	0.901412	0.572165	0.100266
	C205	C	0.094044	0.389283	0.103613
	C206	C	0.093661	0.572340	0.909350
	C207	C	0.901355	0.390367	0.908735
	C208	C	0.093367	0.885981	0.597633
	C209	C	0.097301	0.082357	0.412400
	C210	C	0.905205	0.078170	0.597406
	C211	C	0.903252	0.886970	0.415052
	C212	C	0.589955	0.076127	0.912935
	C213	C	0.406055	0.076889	0.102422
	C214	C	0.591385	0.883152	0.102623
	C215	C	0.406637	0.883725	0.910831
	Zn216	Zn	0.499368	-0.018708	0.757856
	Zn217	Zn	0.499256	-0.018722	0.255599
	Zn218	Zn	0.746645	0.480217	0.004946
	Zn219	Zn	0.247914	0.480420	0.005409
	Zn220	Zn	-0.001759	0.731745	0.505120
	Zn221	Zn	-0.000812	0.232953	0.505160
	Zn222	Zn	-0.002566	0.481636	0.754478
	Zn223	Zn	-0.002567	0.482128	0.255774
	Zn224	Zn	0.497668	0.730147	0.006830
	Zn225	Zn	0.497491	0.230145	0.006394
	Zn226	Zn	0.749246	-0.017383	0.506908
	Zn227	Zn	0.247899	-0.017271	0.505983
	N228	N	0.411319	0.945698	0.687486
	N229	N	0.586776	0.017234	0.688046
	N230	N	0.586922	0.946317	0.325301
	N231	N	0.411564	0.016823	0.325143
	N232	N	0.676713	0.393465	0.969277
	N233	N	0.677153	0.567148	0.041236
	N234	N	0.320538	0.564294	0.968670
	N235	N	0.317055	0.392894	0.041550
	N236	N	0.962744	0.663099	0.416746
	N237	N	0.033997	0.662579	0.592966
	N238	N	0.963070	0.300814	0.593585
	N239	N	0.034359	0.304024	0.419312
	N240	N	0.961196	0.395373	0.684519
	N241	N	0.033630	0.568816	0.685008
	N242	N	0.961970	0.569534	0.324564
	N243	N	0.033580	0.396397	0.326167
	N244	N	0.408513	0.662248	0.971964
	N245	N	0.585123	0.660629	0.042287
	N246	N	0.584295	0.299925	0.970603
	N247	N	0.408980	0.298894	0.041504
	N248	N	0.680158	0.946861	0.418945
	N249	N	0.680380	0.017772	0.595112
	N250	N	0.316987	0.946846	0.594108
	N251	N	0.320016	0.018643	0.420336
	N252	N	0.911388	0.445418	0.184548
	N253	N	0.085211	0.517095	0.186060
	N254	N	0.083842	0.445670	0.825113
	N255	N	0.908473	0.516560	0.823224
	N256	N	0.175036	0.898745	0.468997
	N257	N	0.178698	0.069960	0.541750
	N258	N	0.819776	0.069331	0.470345
	N259	N	0.819055	0.895296	0.542488
	N260	N	0.461857	0.158671	0.920912
	N261	N	0.532472	0.163126	0.095556
	N262	N	0.463065	0.799845	0.094311
	N263	N	0.533755	0.799589	0.919356
	N264	N	0.463170	0.894614	0.185086
	N265	N	0.534769	0.067308	0.184928
	N266	N	0.462534	0.066870	0.827720
	N267	N	0.534083	0.892806	0.826448
	N268	N	0.912856	0.162176	0.469968
	N269	N	0.088012	0.165021	0.540530
	N270	N	0.085395	0.802287	0.470003
	N271	N	0.909742	0.800032	0.540546
	N272	N	0.175462	0.444100	0.920273
	N273	N	0.177401	0.516841	0.091760
	N274	N	0.817837	0.444784	0.091204
	N275	N	0.815106	0.515915	0.916480
	O276	O	0.197802	0.777902	0.092447
	H277	H	0.212728	0.804848	0.103509
	H278	H	0.208632	0.757883	0.098622
	O279	O	0.661330	0.471837	0.713418
	H280	H	0.684301	0.467903	0.740091
	H281	H	0.639966	0.448359	0.704607
	O282	O	0.658472	0.274006	0.428801
	H283	H	0.669118	0.259839	0.416197
	H284	H	0.665180	0.282672	0.415481
	O285	O	1.178079	0.802275	-0.114833
	H286	H	1.175966	0.813812	-0.097718
	H287	H	1.174998	0.787692	-0.095285
	O288	O	0.497685	0.637726	0.715865
	H289	H	0.505241	0.657643	0.719784
	H290	H	0.501728	0.647268	0.705450
	O291	O	0.547715	0.357985	0.521592
	H292	H	0.558512	0.356304	0.515637
	H293	H	0.531441	0.345932	0.510080
	O294	O	0.820855	1.176289	1.004739
	H295	H	0.799391	1.170228	0.998700
	H296	H	0.824473	1.174540	1.004403
	O297	O	0.334411	0.271798	0.541615
	H298	H	0.310421	0.259029	0.565921
	H299	H	0.334350	0.277688	0.549513
	O300	O	0.294103	0.530455	0.302264
	H301	H	0.278411	0.519154	0.290847
	H302	H	0.289681	0.498810	0.316363
	O303	O	0.375730	0.620974	0.344191
	H304	H	0.377797	0.580556	0.334481
	H305	H	0.407432	0.619035	0.343604
	O306	O	-0.174850	-0.086218	1.196565
	H307	H	-0.194841	-0.069307	1.210036
	H308	H	-0.162432	-0.083197	1.170250
	O309	O	0.990654	0.009957	0.216506
	H310	H	0.984408	0.010486	0.214747
	H311	H	0.987707	0.016626	0.221278
	O312	O	0.191802	0.988476	1.106156
	H313	H	0.192289	1.000622	1.102559
	H314	H	0.185514	0.987313	1.107070
	O315	O	1.194757	0.900611	-0.193568
	H316	H	1.203613	0.884345	-0.187041
	H317	H	1.203426	0.907598	-0.204087
	O318	O	0.045545	0.062170	-0.156622
	H319	H	0.042575	0.046248	-0.162445
	H320	H	0.044571	0.069963	-0.153321
	O321	O	0.292444	0.697923	0.482715
	H322	H	0.308838	0.692264	0.448216
	H323	H	0.264426	0.722874	0.465944
	O324	O	0.851955	-0.016575	0.927691
	H325	H	0.855437	-0.037206	0.932082
	H326	H	0.847585	-0.021127	0.910404
	O327	O	-0.014221	1.135217	-0.167512
	H328	H	-0.042751	1.138696	-0.167243
	H329	H	-0.007765	1.133804	-0.170570
	O330	O	0.110442	1.031547	0.887982
	H331	H	0.137684	1.030116	0.890242
	H332	H	0.108540	1.028908	0.880742
	O333	O	0.007528	0.958915	-0.078298
	H334	H	0.030908	0.950216	-0.085743
	H335	H	0.018478	0.964895	-0.074912
	O336	O	1.137001	1.036488	0.178927
	H337	H	1.140574	1.031891	0.170891
	H338	H	1.136457	1.041380	0.184877
	O339	O	-0.065114	0.787663	1.202116
	H340	H	-0.067192	0.794850	1.200451
	H341	H	-0.085385	0.783146	1.222650
	O342	O	0.509742	0.462676	0.406521
	H343	H	0.500202	0.472605	0.410359
	H344	H	0.501742	0.459011	0.411126
	O345	O	-0.038254	-0.179161	0.817583
	H346	H	-0.017100	-0.184802	0.813433
	H347	H	-0.014175	-0.196672	0.822765
	O348	O	0.656426	0.365149	0.360833
	H349	H	0.643893	0.372062	0.351749
	H350	H	0.651473	0.377083	0.371379
	O351	O	0.857668	1.051261	-0.013537
	H352	H	0.863906	1.071594	-0.030896
	H353	H	0.859638	1.036512	-0.037991
	O354	O	0.797910	0.783347	1.085328
	H355	H	0.798128	0.782881	1.079492
	H356	H	0.787762	0.767147	1.083826
	O357	O	-0.349819	0.611178	-0.581354
	H358	H	-0.333070	0.621839	-0.562168
	H359	H	-0.348322	0.587107	-0.576935
	O360	O	0.341490	0.382596	0.469727
	H361	H	0.346705	0.369164	0.488397
	H362	H	0.335270	0.383907	0.489586
	O363	O	0.700459	-0.307149	0.522964
	H364	H	0.710425	-0.298122	0.542815
	H365	H	0.701539	-0.300476	0.538836
	O366	O	0.151681	0.144607	1.080673
	H367	H	0.161033	0.134846	1.074937
	H368	H	0.146055	0.155640	1.085770
	O369	O	1.530615	0.377370	0.329033
	H370	H	1.547655	0.374607	0.316636
	H371	H	1.518581	0.361278	0.345480
	O372	O	0.429298	0.506766	0.472373
	H373	H	0.442623	0.500966	0.469402
	H374	H	0.412042	0.506683	0.485273
	O375	O	0.030206	-0.057918	1.119366
	H376	H	0.029038	-0.052208	1.124587
	H377	H	0.030171	-0.064665	1.132837
	O378	O	0.388629	0.574843	0.606811
	H379	H	0.391511	0.587132	0.596358
	H380	H	0.400470	0.575328	0.612949
	O381	O	0.045981	0.985972	0.016264
	H382	H	0.043913	0.989751	0.019761
	H383	H	0.038870	0.992926	0.009001
	O384	O	0.460729	0.410088	0.456969
	H385	H	0.461220	0.409717	0.467819
	H386	H	0.452371	0.412588	0.440150
	O387	O	0.678498	0.660551	0.682301
	H388	H	0.678420	0.622540	0.693021
	H389	H	0.660178	0.657344	0.679462
	O390	O	0.805121	1.104020	-0.165562
	H391	H	0.806541	1.092356	-0.150787
	H392	H	0.792262	1.084611	-0.182141
	O393	O	0.910338	-0.096417	0.988937
	H394	H	0.913474	-0.102559	0.986277
	H395	H	0.915862	-0.101157	1.001909
	O396	O	0.631059	0.366690	0.489191
	H397	H	0.630336	0.378423	0.471198
	H398	H	0.641786	0.348608	0.479184
	O399	O	0.339852	0.300840	0.689988
	H400	H	0.337122	0.324915	0.699036
	H401	H	0.364474	0.306179	0.704728
	O402	O	0.890357	0.775413	-0.031898
	H403	H	0.898712	0.779517	-0.041873
	H404	H	0.905401	0.774422	-0.019330
	O405	O	0.304124	0.504488	0.591346
	H406	H	0.304008	0.519059	0.597973
	H407	H	0.308248	0.530125	0.574701
	O408	O	0.584437	0.446311	0.711047
	H409	H	0.572606	0.424540	0.708217
	H410	H	0.582170	0.459469	0.721730
	O411	O	1.094297	1.182582	1.072381
	H412	H	1.092380	1.195811	1.078480
	H413	H	1.091679	1.184454	1.071719
	O414	O	0.693882	0.401453	0.314447
	H415	H	0.678655	0.402362	0.312133
	H416	H	0.685743	0.417522	0.317281
	O417	O	0.493083	1.656069	0.299189
	H418	H	0.503429	1.670834	0.286589
	H419	H	0.510819	1.666971	0.305360
	O420	O	-0.172948	1.069294	1.164087
	H421	H	-0.176432	1.076272	1.179384
	H422	H	-0.172342	1.062288	1.137904
	O423	O	0.105004	0.964634	0.079705
	H424	H	0.107607	0.970880	0.082060
	H425	H	0.092286	0.964386	0.076727
	O426	O	0.704170	0.463047	0.530117
	H427	H	0.712633	0.469067	0.525137
	H428	H	0.713773	0.465247	0.544075
	O429	O	0.444433	0.683944	0.493380
	H430	H	0.442556	0.675429	0.481241
	H431	H	0.428738	0.693977	0.475462
	O432	O	0.611797	0.238080	0.737571
	H433	H	0.631634	0.239730	0.733020
	H434	H	0.619185	0.215156	0.734009
	O435	O	0.328323	0.336435	0.605958
	H436	H	0.335121	0.344538	0.641500
	H437	H	0.300599	0.314449	0.610380
	O438	O	0.094779	0.927859	0.876920
	H439	H	0.085054	0.915171	0.888037
	H440	H	0.097813	0.925876	0.888180
	O441	O	0.476277	0.561025	0.553879
	H442	H	0.462375	0.555831	0.540437
	H443	H	0.504314	0.568700	0.557468
