data_Molecule from HDF5

_cell_length_a		16.214946
_cell_length_b		16.264662
_cell_length_c		16.290856
_cell_angle_alpha	89.920259
_cell_angle_beta	90.043894
_cell_angle_gamma	89.994496
_symmetry_space_group_name_H-M	'P 1'
_symmetry_Int_Tables_number		1

loop_
	_symmetry_equiv_pos_as_xyz
	x,y,z

loop_
	_atom_site_label
	_atom_site_type_symbol
	_atom_site_fract_x
	_atom_site_fract_y
	_atom_site_fract_z
	H0	H	0.407565	0.829491	0.717056
	H1	H	0.604639	0.156600	0.718196
	H2	H	0.605812	0.828911	0.287968
	H3	H	0.405420	0.156152	0.286298
	H4	H	0.718937	0.394884	0.837665
	H5	H	0.720588	0.590110	0.166026
	H6	H	0.293049	0.591151	0.838623
	H7	H	0.293021	0.396222	0.166212
	H8	H	0.842161	0.708139	0.403508
	H9	H	0.170444	0.707065	0.599862
	H10	H	0.842961	0.278335	0.601395
	H11	H	0.170139	0.279346	0.402724
	H12	H	0.841735	0.395937	0.714907
	H13	H	0.169632	0.592620	0.716376
	H14	H	0.842028	0.592765	0.287805
	H15	H	0.170477	0.394800	0.288435
	H16	H	0.407578	0.708366	0.839179
	H17	H	0.605393	0.707379	0.166028
	H18	H	0.603963	0.277840	0.838652
	H19	H	0.407700	0.278641	0.165247
	H20	H	0.720230	0.828864	0.404856
	H21	H	0.719473	0.157333	0.600712
	H22	H	0.292593	0.829420	0.600582
	H23	H	0.291724	0.157067	0.404347
	H24	H	0.905795	0.329606	0.218827
	H25	H	0.103782	0.657770	0.215339
	H26	H	0.105493	0.331233	0.786208
	H27	H	0.906565	0.657791	0.787461
	H28	H	0.221560	0.894628	0.339618
	H29	H	0.220912	0.091536	0.666214
	H30	H	0.789667	0.092944	0.339019
	H31	H	0.794037	0.896170	0.666588
	H32	H	0.342054	0.206274	0.903943
	H33	H	0.670224	0.207454	0.101018
	H34	H	0.342490	0.779020	0.101094
	H35	H	0.670170	0.780626	0.904600
	H36	H	0.342653	0.893832	0.216775
	H37	H	0.670571	0.092088	0.217323
	H38	H	0.342256	0.092493	0.788958
	H39	H	0.669742	0.893897	0.788480
	H40	H	0.907455	0.208283	0.338237
	H41	H	0.106159	0.209408	0.665358
	H42	H	0.104463	0.780246	0.339008
	H43	H	0.908063	0.779828	0.665299
	H44	H	0.219124	0.329323	0.903880
	H45	H	0.219578	0.657320	0.099311
	H46	H	0.792731	0.328452	0.099359
	H47	H	0.791789	0.656722	0.904205
	H48	H	0.418082	0.110629	0.603345
	H49	H	0.599904	0.876146	0.597841
	H50	H	0.597047	0.109593	0.408520
	H51	H	0.420401	0.879165	0.410858
	H52	H	0.601470	0.392476	0.121591
	H53	H	0.598610	0.587591	0.886006
	H54	H	0.414065	0.586898	0.119387
	H55	H	0.411709	0.388237	0.881184
	H56	H	0.124829	0.591590	0.409648
	H57	H	0.888042	0.581501	0.601896
	H58	H	0.122896	0.398719	0.588870
	H59	H	0.889425	0.399449	0.412578
	H60	H	0.121418	0.408485	0.596292
	H61	H	0.885322	0.595936	0.596503
	H62	H	0.122292	0.584750	0.411860
	H63	H	0.890870	0.404046	0.410386
	H64	H	0.411420	0.587435	0.119944
	H65	H	0.600168	0.587804	0.885113
	H66	H	0.603805	0.407485	0.117536
	H67	H	0.403224	0.406029	0.884747
	H68	H	0.596683	0.108016	0.410888
	H69	H	0.599210	0.876247	0.597274
	H70	H	0.416618	0.107914	0.590231
	H71	H	0.409553	0.876347	0.414942
	H72	H	0.913178	0.609147	0.094187
	H73	H	0.102635	0.375185	0.096611
	H74	H	0.101053	0.611333	0.908638
	H75	H	0.905754	0.375671	0.915218
	H76	H	0.102261	0.900081	0.620144
	H77	H	0.113100	0.086532	0.381592
	H78	H	0.919800	0.081592	0.614539
	H79	H	0.908179	0.899244	0.383232
	H80	H	0.623439	0.086932	0.910969
	H81	H	0.388289	0.087121	0.097276
	H82	H	0.623112	0.898238	0.089889
	H83	H	0.389767	0.904603	0.910536
	H84	H	0.622507	0.906133	0.097766
	H85	H	0.389749	0.087033	0.093850
	H86	H	0.623543	0.083764	0.910797
	H87	H	0.387764	0.899382	0.905409
	H88	H	0.914837	0.096324	0.620829
	H89	H	0.092926	0.073735	0.391574
	H90	H	0.098672	0.902739	0.618580
	H91	H	0.913524	0.905130	0.386878
	H92	H	0.099396	0.610818	0.907456
	H93	H	0.096921	0.376914	0.098745
	H94	H	0.913169	0.609201	0.096126
	H95	H	0.912197	0.373089	0.898276
	H96	H	0.405673	0.113257	0.596532
	H97	H	0.600009	0.875420	0.596556
	H98	H	0.599237	0.108803	0.410015
	H99	H	0.412653	0.874316	0.403738
	H100	H	0.589683	0.400672	0.114639
	H101	H	0.599370	0.585478	0.885661
	H102	H	0.412443	0.584493	0.119461
	H103	H	0.422243	0.402916	0.889151
	H104	H	0.123715	0.585546	0.404731
	H105	H	0.891549	0.584964	0.587668
	H106	H	0.125402	0.398218	0.600036
	H107	H	0.888019	0.400881	0.407389
	H108	H	0.914934	0.609366	0.095126
	H109	H	0.098399	0.377795	0.092810
	H110	H	0.098730	0.610729	0.909718
	H111	H	0.923341	0.380241	0.911416
	H112	H	0.097324	0.897753	0.619493
	H113	H	0.090505	0.098235	0.385755
	H114	H	0.904121	0.084046	0.620035
	H115	H	0.916048	0.897435	0.385269
	H116	H	0.624097	0.085777	0.907969
	H117	H	0.389469	0.084280	0.095599
	H118	H	0.626282	0.896360	0.100154
	H119	H	0.388464	0.897389	0.913375
	C120	C	0.384801	0.002220	0.624614
	C121	C	0.627648	0.984452	0.625061
	C122	C	0.627204	0.000810	0.381023
	C123	C	0.385040	0.984646	0.381146
	C124	C	0.627557	0.370786	0.010028
	C125	C	0.627986	0.614940	0.993883
	C126	C	0.384572	0.615076	0.011179
	C127	C	0.383911	0.371025	0.993127
	C128	C	0.014955	0.615838	0.380262
	C129	C	0.996968	0.615941	0.623719
	C130	C	0.014954	0.372683	0.623589
	C131	C	0.997739	0.372604	0.381084
	C132	C	0.884636	0.501027	0.123923
	C133	C	0.127485	0.484960	0.124238
	C134	C	0.127750	0.502667	0.880253
	C135	C	0.885074	0.484885	0.880216
	C136	C	0.128023	0.871841	0.511314
	C137	C	0.127954	0.114986	0.494113
	C138	C	0.884012	0.115966	0.510388
	C139	C	0.884574	0.872227	0.493536
	C140	C	0.514873	0.114041	0.881549
	C141	C	0.497578	0.114630	0.124132
	C142	C	0.515249	0.871693	0.124023
	C143	C	0.497397	0.872094	0.881456
	C144	C	0.387078	0.878470	0.679470
	C145	C	0.624912	0.107988	0.679883
	C146	C	0.626000	0.877988	0.325510
	C147	C	0.386002	0.107651	0.325037
	C148	C	0.681899	0.373930	0.886890
	C149	C	0.683466	0.611612	0.116934
	C150	C	0.330446	0.611997	0.887509
	C151	C	0.330133	0.374616	0.117022
	C152	C	0.891198	0.670603	0.382893
	C153	C	0.120983	0.670035	0.620789
	C154	C	0.891738	0.316658	0.621514
	C155	C	0.121369	0.317350	0.382705
	C156	C	0.891072	0.374862	0.678091
	C157	C	0.120636	0.613153	0.678618
	C158	C	0.891159	0.613276	0.325397
	C159	C	0.121397	0.374950	0.326104
	C160	C	0.387281	0.670216	0.887910
	C161	C	0.626192	0.669905	0.116926
	C162	C	0.624922	0.315612	0.887347
	C163	C	0.386942	0.316215	0.116471
	C164	C	0.682491	0.877754	0.384139
	C165	C	0.681858	0.108343	0.621562
	C166	C	0.329986	0.878506	0.621695
	C167	C	0.329534	0.107916	0.383554
	C168	C	0.886084	0.378382	0.180188
	C169	C	0.124507	0.608609	0.178250
	C170	C	0.125010	0.379455	0.825029
	C171	C	0.886743	0.608513	0.825536
	C172	C	0.183283	0.874438	0.388282
	C173	C	0.183178	0.112529	0.617189
	C174	C	0.828069	0.113248	0.387594
	C175	C	0.830695	0.875396	0.617258
	C176	C	0.390967	0.168705	0.884020
	C177	C	0.621292	0.169652	0.121640
	C178	C	0.391634	0.816567	0.121757
	C179	C	0.621131	0.817682	0.884099
	C180	C	0.391559	0.873648	0.179048
	C181	C	0.621475	0.112331	0.179273
	C182	C	0.391200	0.112247	0.826536
	C183	C	0.620978	0.874324	0.826619
	C184	C	0.886420	0.170579	0.387189
	C185	C	0.126240	0.170999	0.616770
	C186	C	0.125359	0.817280	0.388127
	C187	C	0.887281	0.817306	0.616711
	C188	C	0.181613	0.378571	0.883379
	C189	C	0.182139	0.608500	0.120682
	C190	C	0.829796	0.377695	0.120803
	C191	C	0.829758	0.608167	0.883405
	C192	C	0.406927	0.088273	0.603144
	C193	C	0.606057	0.898191	0.603649
	C194	C	0.604398	0.086774	0.403216
	C195	C	0.407642	0.898842	0.403313
	C196	C	0.604994	0.393542	0.095891
	C197	C	0.605831	0.593308	0.907790
	C198	C	0.406279	0.592872	0.097168
	C199	C	0.405892	0.392773	0.907271
	C200	C	0.101278	0.593888	0.402334
	C201	C	0.910512	0.594044	0.601842
	C202	C	0.101095	0.395155	0.601648
	C203	C	0.911759	0.394729	0.403410
	C204	C	0.907114	0.587274	0.101672
	C205	C	0.105575	0.398837	0.102456
	C206	C	0.106205	0.588746	0.902182
	C207	C	0.907389	0.398654	0.901847
	C208	C	0.105976	0.893737	0.597209
	C209	C	0.105398	0.092748	0.408305
	C210	C	0.906285	0.093856	0.596238
	C211	C	0.906212	0.894078	0.407341
	C212	C	0.601332	0.092036	0.903568
	C213	C	0.411300	0.092664	0.102186
	C214	C	0.601527	0.893825	0.102350
	C215	C	0.410851	0.894030	0.903379
	Zn216	Zn	0.505550	-0.006936	0.753766
	Zn217	Zn	0.506013	-0.007051	0.252058
	Zn218	Zn	0.756232	0.492918	0.001458
	Zn219	Zn	0.255865	0.493186	0.002069
	Zn220	Zn	0.005842	0.743815	0.502044
	Zn221	Zn	0.006715	0.244253	0.501847
	Zn222	Zn	0.005917	0.494427	0.751539
	Zn223	Zn	0.005946	0.493552	0.253009
	Zn224	Zn	0.506547	0.743622	0.002545
	Zn225	Zn	0.506123	0.242295	0.001924
	Zn226	Zn	0.755558	-0.006950	0.502677
	Zn227	Zn	0.256621	-0.006703	0.502857
	N228	N	0.420589	0.956207	0.681412
	N229	N	0.591896	0.030065	0.682097
	N230	N	0.592286	0.955740	0.323624
	N231	N	0.419557	0.029949	0.322942
	N232	N	0.683511	0.407625	0.964271
	N233	N	0.684661	0.578211	0.039396
	N234	N	0.328520	0.578462	0.965050
	N235	N	0.327868	0.407778	0.039313
	N236	N	0.969249	0.672307	0.416301
	N237	N	0.043014	0.671769	0.587308
	N238	N	0.969593	0.315232	0.588192
	N239	N	0.043627	0.315850	0.416368
	N240	N	0.968764	0.409037	0.679512
	N241	N	0.042566	0.580302	0.680612
	N242	N	0.969031	0.580068	0.323734
	N243	N	0.043510	0.408648	0.324908
	N244	N	0.420327	0.672187	0.965721
	N245	N	0.592482	0.671973	0.039311
	N246	N	0.591838	0.313706	0.965104
	N247	N	0.419617	0.313671	0.038497
	N248	N	0.683602	0.955221	0.417657
	N249	N	0.683967	0.030572	0.588315
	N250	N	0.328456	0.956253	0.588318
	N251	N	0.329116	0.030589	0.417849
	N252	N	0.919470	0.456096	0.181962
	N253	N	0.091280	0.530741	0.180425
	N254	N	0.092323	0.457520	0.822759
	N255	N	0.920389	0.530826	0.823383
	N256	N	0.184965	0.907620	0.465888
	N257	N	0.184231	0.078348	0.539983
	N258	N	0.826439	0.079905	0.465219
	N259	N	0.828675	0.908637	0.539599
	N260	N	0.468937	0.169965	0.917421
	N261	N	0.543450	0.171259	0.088068
	N262	N	0.469480	0.815129	0.088432
	N263	N	0.543377	0.816351	0.917727
	N264	N	0.469395	0.907290	0.180517
	N265	N	0.543535	0.078896	0.181124
	N266	N	0.469104	0.079013	0.824781
	N267	N	0.542837	0.907225	0.824689
	N268	N	0.920220	0.172567	0.464701
	N269	N	0.092580	0.172586	0.539178
	N270	N	0.091781	0.815514	0.465715
	N271	N	0.920433	0.815528	0.538901
	N272	N	0.183638	0.456166	0.916956
	N273	N	0.184435	0.530629	0.087877
	N274	N	0.828651	0.455252	0.086726
	N275	N	0.828481	0.530415	0.916648
	O276	O	0.993164	0.937749	-0.002013
	H277	H	0.996735	0.933603	-0.009357
	H278	H	0.988301	0.934928	0.000983
	O279	O	0.014581	0.054602	0.014076
	H280	H	0.016392	0.058521	0.015148
	H281	H	0.011339	0.060459	0.019085
	O282	O	0.012850	-0.051226	0.986435
	H283	H	0.024071	-0.055098	0.982370
	H284	H	0.023215	-0.053107	0.995046
	O285	O	0.025815	1.025238	0.062829
	H286	H	0.013914	1.021469	0.054810
	H287	H	0.025187	1.019680	0.063223
	O288	O	0.538553	0.431849	0.464004
	H289	H	0.545152	0.430962	0.463258
	H290	H	0.538794	0.433303	0.453894
	O291	O	0.505405	0.464466	0.413840
	H292	H	0.505792	0.470048	0.420013
	H293	H	0.504725	0.461384	0.407715
	O294	O	-0.481266	0.440030	0.437556
	H295	H	-0.481171	0.430820	0.428354
	H296	H	-0.473139	0.439779	0.428434
	O297	O	0.492472	0.460174	0.454516
	H298	H	0.492021	0.462500	0.454121
	H299	H	0.488792	0.455833	0.459583
	O300	O	0.047445	1.027344	0.981625
	H301	H	0.054824	1.028235	0.980102
	H302	H	0.054681	1.035874	0.982450
	O303	O	0.527785	0.492984	0.429653
	H304	H	0.531025	0.486851	0.429197
	H305	H	0.523868	0.501189	0.433836
	O306	O	0.528205	-0.543306	1.395518
	H307	H	0.526640	-0.552582	1.386735
	H308	H	0.539294	-0.538498	1.392732
	O309	O	1.029577	0.997093	1.035438
	H310	H	1.025083	0.993152	1.037509
	H311	H	1.038602	0.995756	1.038854
	O312	O	-0.037707	1.013534	-0.032926
	H313	H	-0.042570	1.017350	-0.038751
	H314	H	-0.030668	1.020713	-0.033253
	O315	O	0.530201	0.452388	0.436440
	H316	H	0.535292	0.440790	0.443962
	H317	H	0.517317	0.455720	0.419887
	O318	O	-0.053563	0.946350	0.002711
	H319	H	-0.054727	0.945969	-0.003402
	H320	H	-0.061173	0.942541	0.004644
	O321	O	1.056687	0.995033	0.013649
	H322	H	1.061691	0.991259	0.010528
	H323	H	1.048467	0.996441	0.017638
