data_Molecule from HDF5

_cell_length_a		16.627658
_cell_length_b		16.637339
_cell_length_c		16.671914
_cell_angle_alpha	89.915007
_cell_angle_beta	89.908152
_cell_angle_gamma	89.971337
_symmetry_space_group_name_H-M	'P 1'
_symmetry_Int_Tables_number		1

loop_
	_symmetry_equiv_pos_as_xyz
	x,y,z

loop_
	_atom_site_label
	_atom_site_type_symbol
	_atom_site_fract_x
	_atom_site_fract_y
	_atom_site_fract_z
	H0	H	0.413291	0.836150	0.724032
	H1	H	0.624044	0.145674	0.719854
	H2	H	0.628515	0.834270	0.279165
	H3	H	0.411620	0.142345	0.276177
	H4	H	0.740350	0.385757	0.845031
	H5	H	0.740039	0.593518	0.156049
	H6	H	0.300804	0.591764	0.845554
	H7	H	0.296764	0.381911	0.155456
	H8	H	0.865713	0.713758	0.396429
	H9	H	0.171259	0.716395	0.613681
	H10	H	0.863560	0.271735	0.602351
	H11	H	0.170624	0.265210	0.390105
	H12	H	0.863600	0.386097	0.720995
	H13	H	0.173927	0.596969	0.724406
	H14	H	0.866092	0.600103	0.277845
	H15	H	0.172923	0.382321	0.276859
	H16	H	0.413394	0.710637	0.847090
	H17	H	0.627513	0.712844	0.153607
	H18	H	0.624813	0.268345	0.845554
	H19	H	0.416748	0.270117	0.157803
	H20	H	0.743687	0.834177	0.395466
	H21	H	0.737697	0.146778	0.601463
	H22	H	0.296212	0.837671	0.609695
	H23	H	0.294440	0.140647	0.389759
	H24	H	0.915230	0.335280	0.222599
	H25	H	0.124970	0.646880	0.220388
	H26	H	0.119761	0.332604	0.783579
	H27	H	0.914119	0.644703	0.779390
	H28	H	0.245746	0.881320	0.348827
	H29	H	0.243879	0.098036	0.653762
	H30	H	0.800083	0.094146	0.345677
	H31	H	0.799222	0.885730	0.656529
	H32	H	0.363913	0.207739	0.899570
	H33	H	0.676922	0.207774	0.104113
	H34	H	0.364937	0.767022	0.107733
	H35	H	0.675455	0.768567	0.895955
	H36	H	0.366756	0.880977	0.225374
	H37	H	0.677514	0.091726	0.219135
	H38	H	0.364734	0.094091	0.780786
	H39	H	0.676358	0.886462	0.781744
	H40	H	0.916221	0.210202	0.345327
	H41	H	0.126326	0.212227	0.654656
	H42	H	0.130943	0.764384	0.349758
	H43	H	0.914540	0.769016	0.657089
	H44	H	0.236491	0.331949	0.900168
	H45	H	0.241886	0.645175	0.105364
	H46	H	0.801303	0.334040	0.104422
	H47	H	0.798256	0.644986	0.895491
	H48	H	0.431708	0.101790	0.589415
	H49	H	0.608790	0.876856	0.594857
	H50	H	0.613073	0.098520	0.420562
	H51	H	0.436247	0.881501	0.416730
	H52	H	0.606502	0.397129	0.111808
	H53	H	0.606753	0.579794	0.889304
	H54	H	0.435130	0.574890	0.110212
	H55	H	0.427368	0.398325	0.889104
	H56	H	0.127198	0.576166	0.422071
	H57	H	0.908974	0.576797	0.590453
	H58	H	0.130700	0.400588	0.588224
	H59	H	0.908227	0.400974	0.414762
	H60	H	0.132822	0.402463	0.596050
	H61	H	0.908560	0.578857	0.590218
	H62	H	0.129761	0.570246	0.408546
	H63	H	0.908649	0.405845	0.413311
	H64	H	0.431749	0.580005	0.113065
	H65	H	0.610741	0.577930	0.888116
	H66	H	0.613216	0.395761	0.114353
	H67	H	0.429635	0.398024	0.889668
	H68	H	0.618407	0.105439	0.402244
	H69	H	0.609704	0.878579	0.589255
	H70	H	0.434223	0.101484	0.589908
	H71	H	0.433021	0.878523	0.415486
	H72	H	0.931047	0.599854	0.084406
	H73	H	0.101098	0.380089	0.095373
	H74	H	0.108305	0.601933	0.909713
	H75	H	0.924734	0.375987	0.912107
	H76	H	0.103445	0.904783	0.609335
	H77	H	0.110493	0.083146	0.387658
	H78	H	0.923481	0.083372	0.615488
	H79	H	0.934814	0.900726	0.391176
	H80	H	0.635545	0.085849	0.907302
	H81	H	0.409022	0.078167	0.087974
	H82	H	0.632956	0.898370	0.092379
	H83	H	0.409450	0.901924	0.912317
	H84	H	0.630688	0.897902	0.083621
	H85	H	0.409629	0.075016	0.090261
	H86	H	0.630496	0.078664	0.916078
	H87	H	0.408196	0.900271	0.909677
	H88	H	0.929168	0.075729	0.610446
	H89	H	0.111513	0.069643	0.391129
	H90	H	0.108011	0.901581	0.613014
	H91	H	0.930868	0.899776	0.389352
	H92	H	0.109063	0.600288	0.913910
	H93	H	0.105999	0.382254	0.082110
	H94	H	0.926345	0.603651	0.090943
	H95	H	0.932383	0.376316	0.906097
	H96	H	0.432620	0.100944	0.587433
	H97	H	0.613915	0.875704	0.591528
	H98	H	0.599735	0.098275	0.405247
	H99	H	0.436809	0.878760	0.412766
	H100	H	0.611276	0.402223	0.111099
	H101	H	0.607579	0.575740	0.890634
	H102	H	0.428605	0.574074	0.112171
	H103	H	0.428928	0.396423	0.887954
	H104	H	0.133800	0.584407	0.411007
	H105	H	0.909230	0.577922	0.588338
	H106	H	0.134100	0.395159	0.593138
	H107	H	0.907047	0.402020	0.410126
	H108	H	0.934442	0.601232	0.092641
	H109	H	0.114100	0.376544	0.092228
	H110	H	0.112225	0.602655	0.911491
	H111	H	0.933139	0.379973	0.914854
	H112	H	0.109337	0.907739	0.611027
	H113	H	0.099039	0.076804	0.393643
	H114	H	0.933475	0.085318	0.612480
	H115	H	0.931653	0.903869	0.390424
	H116	H	0.632982	0.074188	0.904927
	H117	H	0.408616	0.078369	0.091809
	H118	H	0.629079	0.905119	0.088381
	H119	H	0.407693	0.898904	0.912889
	C120	C	0.399227	-0.000654	0.622313
	C121	C	0.641439	0.980797	0.621828
	C122	C	0.642855	-0.002367	0.378468
	C123	C	0.400594	0.980680	0.380348
	C124	C	0.641750	0.367189	0.009242
	C125	C	0.641020	0.610396	0.991399
	C126	C	0.399427	0.608851	0.009352
	C127	C	0.397783	0.366581	0.992420
	C128	C	0.028573	0.611737	0.380389
	C129	C	1.010845	0.611148	0.623036
	C130	C	0.028591	0.368338	0.622655
	C131	C	1.010010	0.369958	0.379703
	C132	C	0.898834	0.498743	0.121801
	C133	C	0.140321	0.482095	0.122054
	C134	C	0.140102	0.497651	0.880525
	C135	C	0.897980	0.480858	0.879365
	C136	C	0.141681	0.869400	0.510391
	C137	C	0.141185	0.111037	0.491942
	C138	C	0.898046	0.112109	0.509525
	C139	C	0.899824	0.869334	0.493166
	C140	C	0.529170	0.110852	0.879329
	C141	C	0.512319	0.108888	0.121614
	C142	C	0.528788	0.867465	0.121798
	C143	C	0.511413	0.868137	0.879368
	C144	C	0.395539	0.883002	0.683512
	C145	C	0.642405	0.098901	0.679915
	C146	C	0.645914	0.880837	0.319205
	C147	C	0.394843	0.095764	0.316887
	C148	C	0.700649	0.366581	0.891819
	C149	C	0.700739	0.612635	0.108566
	C150	C	0.339824	0.610853	0.892514
	C151	C	0.337900	0.364475	0.109400
	C152	C	0.912332	0.673623	0.377579
	C153	C	0.126024	0.673885	0.628789
	C154	C	0.910556	0.310475	0.622675
	C155	C	0.125125	0.306901	0.374227
	C156	C	0.910439	0.367345	0.681098
	C157	C	0.126907	0.614958	0.684606
	C158	C	0.912513	0.617143	0.318715
	C159	C	0.125989	0.365107	0.317512
	C160	C	0.396555	0.669426	0.893085
	C161	C	0.644854	0.672013	0.107573
	C162	C	0.643134	0.308471	0.892057
	C163	C	0.397224	0.308411	0.110322
	C164	C	0.703400	0.880885	0.376880
	C165	C	0.698709	0.099507	0.620960
	C166	C	0.337413	0.883410	0.626592
	C167	C	0.336818	0.095217	0.373902
	C168	C	0.896977	0.381886	0.182230
	C169	C	0.142893	0.599686	0.180797
	C170	C	0.139661	0.379367	0.822876
	C171	C	0.895756	0.597901	0.819528
	C172	C	0.204579	0.864206	0.395052
	C173	C	0.203058	0.115460	0.607465
	C174	C	0.839858	0.112763	0.392308
	C175	C	0.839545	0.867347	0.610087
	C176	C	0.410912	0.168873	0.879836
	C177	C	0.629987	0.167845	0.122648
	C178	C	0.411988	0.806796	0.125620
	C179	C	0.628571	0.808719	0.877540
	C180	C	0.412889	0.863647	0.184013
	C181	C	0.630304	0.110037	0.179968
	C182	C	0.411147	0.112160	0.821230
	C183	C	0.629119	0.867344	0.820730
	C184	C	0.897330	0.170740	0.392331
	C185	C	0.144689	0.172547	0.607592
	C186	C	0.147203	0.806265	0.395434
	C187	C	0.896942	0.809369	0.610316
	C188	C	0.197369	0.379110	0.880626
	C189	C	0.201006	0.598937	0.123401
	C190	C	0.840285	0.381039	0.123621
	C191	C	0.838094	0.597980	0.877220
	C192	C	0.425338	0.080433	0.596175
	C193	C	0.617765	0.898571	0.598725
	C194	C	0.617769	0.079453	0.402748
	C195	C	0.427620	0.900459	0.407388
	C196	C	0.617184	0.391527	0.091077
	C197	C	0.615745	0.585038	0.910390
	C198	C	0.424858	0.583538	0.090644
	C199	C	0.421780	0.390655	0.910337
	C200	C	0.109177	0.584737	0.406522
	C201	C	0.929989	0.585286	0.596967
	C202	C	0.111015	0.392417	0.599235
	C203	C	0.929017	0.395863	0.405482
	C204	C	0.923424	0.580376	0.096561
	C205	C	0.114437	0.400676	0.097123
	C206	C	0.116464	0.580211	0.904768
	C207	C	0.922908	0.398723	0.904184
	C208	C	0.114654	0.896745	0.590364
	C209	C	0.114694	0.083984	0.411610
	C210	C	0.921873	0.088109	0.591689
	C211	C	0.925389	0.894155	0.411596
	C212	C	0.611498	0.086458	0.902768
	C213	C	0.430310	0.084081	0.097128
	C214	C	0.609852	0.893135	0.095633
	C215	C	0.429712	0.893039	0.904440
	Zn216	Zn	0.520596	-0.009816	0.750752
	Zn217	Zn	0.520966	-0.011649	0.251006
	Zn218	Zn	0.769868	0.489447	0.000644
	Zn219	Zn	0.269570	0.488670	0.001004
	Zn220	Zn	0.020554	0.739842	0.502348
	Zn221	Zn	0.019534	0.240483	0.500583
	Zn222	Zn	0.019617	0.489546	0.750870
	Zn223	Zn	0.019530	0.491370	0.251312
	Zn224	Zn	0.519582	0.738999	0.000699
	Zn225	Zn	0.520130	0.238670	0.001237
	Zn226	Zn	0.770219	-0.010599	0.500707
	Zn227	Zn	0.271088	-0.009879	0.501164
	N228	N	0.433312	0.956150	0.681093
	N229	N	0.607372	0.024157	0.680704
	N230	N	0.609161	0.954635	0.319870
	N231	N	0.434209	0.023396	0.320791
	N232	N	0.700310	0.402263	0.965980
	N233	N	0.698728	0.575208	0.035394
	N234	N	0.341423	0.573867	0.965967
	N235	N	0.337786	0.399795	0.035014
	N236	N	0.985659	0.670674	0.415253
	N237	N	0.052868	0.671639	0.590972
	N238	N	0.985079	0.310853	0.587210
	N239	N	0.052121	0.309633	0.412412
	N240	N	0.985132	0.402328	0.681569
	N241	N	0.054340	0.576302	0.680981
	N242	N	0.985800	0.579294	0.320388
	N243	N	0.053382	0.403762	0.320660
	N244	N	0.432844	0.668558	0.966990
	N245	N	0.608405	0.671090	0.033647
	N246	N	0.607292	0.308788	0.966185
	N247	N	0.433813	0.309463	0.036520
	N248	N	0.701886	0.954836	0.412854
	N249	N	0.698721	0.024966	0.585963
	N250	N	0.339602	0.956904	0.589147
	N251	N	0.340256	0.022743	0.412887
	N252	N	0.932415	0.456325	0.181593
	N253	N	0.106214	0.525818	0.180362
	N254	N	0.105171	0.454335	0.822286
	N255	N	0.932336	0.523846	0.820605
	N256	N	0.201542	0.902624	0.467662
	N257	N	0.201071	0.077866	0.534393
	N258	N	0.839958	0.077103	0.466466
	N259	N	0.841078	0.903916	0.536224
	N260	N	0.485445	0.168330	0.915032
	N261	N	0.555532	0.167720	0.087435
	N262	N	0.485178	0.809006	0.087283
	N263	N	0.554316	0.809131	0.913320
	N264	N	0.486617	0.900450	0.181991
	N265	N	0.555768	0.074279	0.179886
	N266	N	0.485744	0.076823	0.820682
	N267	N	0.554927	0.903483	0.821440
	N268	N	0.932853	0.170479	0.466375
	N269	N	0.106966	0.170244	0.534522
	N270	N	0.108955	0.808993	0.468321
	N271	N	0.933673	0.810433	0.536566
	N272	N	0.198036	0.453873	0.915487
	N273	N	0.200037	0.524510	0.087852
	N274	N	0.841113	0.454771	0.086715
	N275	N	0.839475	0.524001	0.913641
	O276	O	-0.197743	0.769375	0.034774
	H277	H	-0.205520	0.774922	0.022833
	H278	H	-0.223187	0.765929	0.029293
	O279	O	-0.199360	0.964070	0.224430
	H280	H	-0.204484	0.943702	0.235252
	H281	H	-0.215237	0.951411	0.228912
	O282	O	1.097969	0.085066	1.072243
	H283	H	1.103992	0.092899	1.078947
	H284	H	1.107744	0.084259	1.071865
	O285	O	0.481321	0.535935	0.733250
	H286	H	0.499115	0.542458	0.725481
	H287	H	0.482453	0.544497	0.743504
	O288	O	0.288989	0.549972	0.550205
	H289	H	0.282281	0.563523	0.536058
	H290	H	0.301679	0.538743	0.531900
	O291	O	0.599648	0.364234	0.519068
	H292	H	0.583236	0.362901	0.522712
	H293	H	0.609740	0.352210	0.505408
	O294	O	1.045432	0.208379	1.193430
	H295	H	1.042620	0.206683	1.198324
	H296	H	1.045148	0.222024	1.192370
	O297	O	0.072995	0.928234	-0.090325
	H298	H	0.079711	0.922920	-0.091745
	H299	H	0.058212	0.925921	-0.078860
	O300	O	0.197994	-0.181563	1.190635
	H301	H	0.191147	-0.174101	1.153269
	H302	H	0.172207	-0.153091	1.199589
	O303	O	0.425029	0.585350	0.409207
	H304	H	0.422076	0.576944	0.420486
	H305	H	0.423817	0.594339	0.427132
	O306	O	0.471837	0.696313	0.555224
	H307	H	0.470556	0.694461	0.550622
	H308	H	0.483576	0.689558	0.565300
	O309	O	0.230259	0.196023	0.208702
	H310	H	0.260845	0.227414	0.243594
	H311	H	0.199159	0.180993	0.214578
	O312	O	0.710272	0.299379	0.692382
	H313	H	0.692509	0.307791	0.664250
	H314	H	0.688406	0.321334	0.681555
	O315	O	1.137670	0.888657	1.026756
	H316	H	1.144000	0.881326	1.015900
	H317	H	1.135788	0.880311	1.022881
	O318	O	0.554827	0.261550	0.278125
	H319	H	0.584735	0.251993	0.262963
	H320	H	0.559064	0.255333	0.262551
	O321	O	0.029566	0.771462	1.115333
	H322	H	0.033497	0.766973	1.110729
	H323	H	0.053124	0.774613	1.108465
	O324	O	1.229466	1.051302	-0.054869
	H325	H	1.236164	1.042684	-0.054272
	H326	H	1.232108	1.068718	-0.045749
	O327	O	0.241239	0.199804	1.030655
	H328	H	0.236615	0.196358	1.073601
	H329	H	0.264972	0.223801	1.036191
	O330	O	0.444392	0.428211	0.282725
	H331	H	0.437698	0.435666	0.291786
	H332	H	0.429051	0.427914	0.274694
	O333	O	0.237625	0.767362	0.973297
	H334	H	0.241072	0.767977	0.931824
	H335	H	0.263565	0.754897	0.963246
	O336	O	0.292426	0.710917	0.486836
	H337	H	0.286345	0.729277	0.468961
	H338	H	0.288370	0.717821	0.478605
	O339	O	0.856018	0.156686	1.189521
	H340	H	0.867690	0.143172	1.175924
	H341	H	0.867962	0.135539	1.175365
	O342	O	-0.033521	0.071104	0.217879
	H343	H	-0.039647	0.058717	0.213543
	H344	H	-0.041911	0.071031	0.212107
	O345	O	-0.184082	0.784552	1.204046
	H346	H	-0.154499	0.782596	1.196288
	H347	H	-0.181209	0.784270	1.180616
	O348	O	-0.191719	0.198192	-0.210359
	H349	H	-0.221484	0.232656	-0.243648
	H350	H	-0.143525	0.205647	-0.212987
	O351	O	0.325205	0.295726	0.311338
	H352	H	0.346611	0.304665	0.337919
	H353	H	0.334023	0.323261	0.325355
	O354	O	0.012344	-0.172146	1.217975
	H355	H	0.009825	-0.181591	1.226093
	H356	H	0.010363	-0.172723	1.216879
	O357	O	0.485520	0.458034	0.449911
	H358	H	0.500145	0.457040	0.443975
	H359	H	0.486730	0.449626	0.440412
	O360	O	0.295427	0.451806	0.724526
	H361	H	0.290937	0.472796	0.716051
	H362	H	0.278695	0.458265	0.739516
	O363	O	0.581598	0.420129	0.721287
	H364	H	0.581294	0.421985	0.723586
	H365	H	0.574137	0.419606	0.721467
	O366	O	0.238207	-0.039807	-0.214663
	H367	H	0.261096	-0.047801	-0.231402
	H368	H	0.229917	-0.027602	-0.207880
	O369	O	0.537213	0.265243	0.522959
	H370	H	0.532771	0.267271	0.531366
	H371	H	0.527281	0.262979	0.516399
	O372	O	1.229188	1.017365	0.211512
	H373	H	1.233803	1.017459	0.222523
	H374	H	1.232033	1.030353	0.209239
	O375	O	0.810657	-0.001144	0.015538
	H376	H	0.811470	0.007432	0.004784
	H377	H	0.811959	0.010485	0.017261
	O378	O	0.060465	1.201755	0.938856
	H379	H	0.082472	1.192124	0.948399
	H380	H	0.062629	1.199173	0.953234
	O381	O	0.305305	0.696203	1.287439
	H382	H	0.338498	0.707516	1.305526
	H383	H	0.280728	0.730814	1.265775
	O384	O	-0.044589	-0.053815	-0.226165
	H385	H	-0.045035	-0.053643	-0.231317
	H386	H	-0.058429	-0.052795	-0.227162
	O387	O	1.521932	1.452702	0.439165
	H388	H	1.530510	1.444607	0.449044
	H389	H	1.529024	1.447783	0.441703
	O390	O	0.291989	0.511108	0.273688
	H391	H	0.268463	0.524904	0.255477
	H392	H	0.292558	0.551980	0.272146
	O393	O	0.491908	0.266276	0.724884
	H394	H	0.487379	0.260982	0.736810
	H395	H	0.464227	0.256348	0.730114
	O396	O	-0.450483	0.715584	0.728875
	H397	H	-0.445494	0.740659	0.744259
	H398	H	-0.409374	0.719217	0.731891
	O399	O	-0.195042	-0.024683	0.902181
	H400	H	-0.201167	0.000781	0.904882
	H401	H	-0.199385	-0.011993	0.881578
	O402	O	0.728104	0.277777	0.290327
	H403	H	0.722589	0.317203	0.284304
	H404	H	0.760210	0.254003	0.263625
	O405	O	1.044318	-0.218995	0.793225
	H406	H	1.054707	-0.236365	0.777407
	H407	H	1.050255	-0.210651	0.802499
	O408	O	0.082679	0.051052	-0.229796
	H409	H	0.086363	0.039024	-0.228862
	H410	H	0.069742	0.047381	-0.223605
	O411	O	0.684550	0.439821	0.369116
	H412	H	0.686458	0.437247	0.367953
	H413	H	0.680521	0.447778	0.351597
	O414	O	0.692495	0.683054	0.327947
	H415	H	0.694036	0.698893	0.316341
	H416	H	0.689037	0.689666	0.327637
	O417	O	0.326065	0.684649	0.693975
	H418	H	0.338516	0.665132	0.670616
	H419	H	0.348877	0.667904	0.679066
	O420	O	0.458393	0.314868	0.450844
	H421	H	0.454380	0.314725	0.451701
	H422	H	0.463303	0.304689	0.441997
	O423	O	0.072233	-0.066990	1.166706
	H424	H	0.079709	-0.056032	1.166553
	H425	H	0.063437	-0.063179	1.171839
	O426	O	0.741835	0.709287	0.537624
	H427	H	0.729785	0.697185	0.562448
	H428	H	0.772085	0.730648	0.535294
	O429	O	1.226604	0.777797	0.799217
	H430	H	1.257914	0.748472	0.763891
	H431	H	1.209528	0.810011	0.792097
	O432	O	0.752072	0.462663	0.545216
	H433	H	0.744662	0.425411	0.536405
	H434	H	0.755846	0.482190	0.518585
	O435	O	0.202489	1.174238	-0.186750
	H436	H	0.208150	1.165066	-0.185936
	H437	H	0.185380	1.156737	-0.169848
	O438	O	-0.056556	-0.059366	0.078681
	H439	H	-0.057429	-0.058286	0.067357
	H440	H	-0.064111	-0.058033	0.081801
	O441	O	0.221160	-0.064476	0.033868
	H442	H	0.223430	-0.058522	0.030851
	H443	H	0.226840	-0.072765	0.031056
	O444	O	0.485567	0.706991	0.290588
	H445	H	0.487929	0.712864	0.278112
	H446	H	0.482482	0.711637	0.299928
	O447	O	-0.266256	0.524879	0.719561
	H448	H	-0.255470	0.518544	0.743380
	H449	H	-0.257801	0.523908	0.693941
	O450	O	0.305947	1.277359	0.719757
	H451	H	0.308253	1.314591	0.714435
	H452	H	0.290561	1.263421	0.739876
	O453	O	0.648946	0.505678	0.413179
	H454	H	0.654223	0.518853	0.411922
	H455	H	0.663407	0.504768	0.399802
	O456	O	0.722434	0.667748	0.684076
	H457	H	0.745378	0.688146	0.714735
	H458	H	0.727636	0.636443	0.674496
	O459	O	0.746465	0.562275	0.419102
	H460	H	0.747266	0.579259	0.415473
	H461	H	0.734139	0.558462	0.405515
	O462	O	0.413490	0.404217	0.606909
	H463	H	0.403032	0.411218	0.607599
	H464	H	0.419141	0.410670	0.609284
	O465	O	0.976650	0.205905	-0.220274
	H466	H	0.996319	0.203647	-0.192659
	H467	H	0.986507	0.227607	-0.246344
	O468	O	0.293103	0.268807	0.512652
	H469	H	0.289108	0.264085	0.531569
	H470	H	0.287648	0.253068	0.541380
	O471	O	0.536625	0.613136	0.612527
	H472	H	0.540594	0.615317	0.610984
	H473	H	0.547545	0.611321	0.606222
	O474	O	0.278935	0.428600	0.447129
	H475	H	0.276394	0.409953	0.447261
	H476	H	0.272198	0.425579	0.435657
	O477	O	-0.037646	0.763986	1.943231
	H478	H	-0.039251	0.767525	1.942019
	H479	H	-0.047805	0.754580	1.958631
	O480	O	0.739692	0.270216	0.465464
	H481	H	0.751407	0.257272	0.442413
	H482	H	0.739807	0.251187	0.449700
	O483	O	0.572044	0.566912	0.269282
	H484	H	0.567754	0.547647	0.262853
	H485	H	0.564250	0.577227	0.276659
	O486	O	0.899103	0.072241	0.956471
	H487	H	0.895825	0.063831	0.956778
	H488	H	0.897672	0.086729	0.956300
	O489	O	0.943239	1.198387	0.076280
	H490	H	0.950641	1.200594	0.072579
	H491	H	0.937906	1.201319	0.061283
	O492	O	-0.174160	-0.185334	-0.165175
	H493	H	-0.164154	-0.167199	-0.146841
	H494	H	-0.152510	-0.168012	-0.161387
	O495	O	-0.155003	1.031491	0.831131
	H496	H	-0.149027	1.045338	0.824383
	H497	H	-0.162236	1.055494	0.813932
	O498	O	0.823918	1.206911	0.960242
	H499	H	0.826422	1.212411	0.942229
	H500	H	0.807165	1.221801	0.940714
	O501	O	0.580108	0.714837	0.465015
	H502	H	0.580574	0.712620	0.468624
	H503	H	0.584641	0.714551	0.474349
