data_Molecule from HDF5

_cell_length_a		16.264772
_cell_length_b		16.270648
_cell_length_c		16.327293
_cell_angle_alpha	90.003362
_cell_angle_beta	90.133074
_cell_angle_gamma	89.934743
_symmetry_space_group_name_H-M	'P 1'
_symmetry_Int_Tables_number		1

loop_
	_symmetry_equiv_pos_as_xyz
	x,y,z

loop_
	_atom_site_label
	_atom_site_type_symbol
	_atom_site_fract_x
	_atom_site_fract_y
	_atom_site_fract_z
	H0	H	0.402548	0.836919	0.714073
	H1	H	0.598941	0.163888	0.715282
	H2	H	0.598949	0.837170	0.285039
	H3	H	0.401022	0.164043	0.284950
	H4	H	0.712944	0.403157	0.836294
	H5	H	0.714343	0.598053	0.162729
	H6	H	0.284876	0.598144	0.836656
	H7	H	0.285655	0.401597	0.163182
	H8	H	0.834695	0.712894	0.402194
	H9	H	0.164264	0.712511	0.596991
	H10	H	0.836405	0.286023	0.597131
	H11	H	0.164462	0.285752	0.402751
	H12	H	0.836344	0.401022	0.714731
	H13	H	0.163763	0.598644	0.714681
	H14	H	0.835963	0.597406	0.286003
	H15	H	0.164256	0.401203	0.286200
	H16	H	0.400803	0.714533	0.837003
	H17	H	0.598027	0.714162	0.163266
	H18	H	0.597704	0.285804	0.836389
	H19	H	0.401313	0.285471	0.163553
	H20	H	0.712686	0.835656	0.403419
	H21	H	0.712238	0.163871	0.596151
	H22	H	0.287869	0.835680	0.596265
	H23	H	0.285647	0.164178	0.402352
	H24	H	0.901526	0.335835	0.214149
	H25	H	0.098157	0.663318	0.215223
	H26	H	0.099563	0.337126	0.784484
	H27	H	0.901505	0.663294	0.785404
	H28	H	0.215234	0.901532	0.336841
	H29	H	0.214126	0.097143	0.664002
	H30	H	0.784855	0.097728	0.336393
	H31	H	0.786779	0.903135	0.663591
	H32	H	0.336354	0.213583	0.903088
	H33	H	0.664364	0.213217	0.097350
	H34	H	0.336157	0.786812	0.097084
	H35	H	0.663433	0.785557	0.902928
	H36	H	0.336508	0.902393	0.213682
	H37	H	0.663243	0.099330	0.214961
	H38	H	0.336594	0.098279	0.785431
	H39	H	0.663855	0.900466	0.786280
	H40	H	0.902043	0.213980	0.336587
	H41	H	0.098524	0.214436	0.663507
	H42	H	0.097677	0.785377	0.336337
	H43	H	0.903416	0.786797	0.664262
	H44	H	0.213353	0.335820	0.902148
	H45	H	0.212768	0.663797	0.097628
	H46	H	0.785868	0.336024	0.096696
	H47	H	0.786673	0.664465	0.902727
	H48	H	0.417363	0.115100	0.598303
	H49	H	0.585322	0.885194	0.593629
	H50	H	0.593697	0.119399	0.399227
	H51	H	0.403987	0.881055	0.400933
	H52	H	0.586444	0.406745	0.113781
	H53	H	0.589378	0.604038	0.881777
	H54	H	0.412429	0.595350	0.114629
	H55	H	0.398440	0.405151	0.881107
	H56	H	0.119259	0.605232	0.409943
	H57	H	0.886279	0.584693	0.589364
	H58	H	0.117190	0.405361	0.593455
	H59	H	0.881086	0.406011	0.399137
	H60	H	0.115524	0.407839	0.591073
	H61	H	0.880243	0.593734	0.604553
	H62	H	0.111415	0.584791	0.417021
	H63	H	0.883122	0.399803	0.409885
	H64	H	0.402293	0.597943	0.118823
	H65	H	0.603484	0.589912	0.881364
	H66	H	0.597468	0.400802	0.119350
	H67	H	0.407390	0.413567	0.886044
	H68	H	0.586716	0.114004	0.409465
	H69	H	0.598608	0.883032	0.587930
	H70	H	0.405693	0.114637	0.582227
	H71	H	0.414245	0.885444	0.404686
	H72	H	0.911836	0.617920	0.103710
	H73	H	0.087419	0.384480	0.095796
	H74	H	0.097375	0.619080	0.903328
	H75	H	0.902226	0.382591	0.907880
	H76	H	0.085824	0.892589	0.617346
	H77	H	0.092872	0.092627	0.384146
	H78	H	0.909745	0.086758	0.613729
	H79	H	0.909904	0.901979	0.383394
	H80	H	0.615250	0.089384	0.910343
	H81	H	0.382381	0.100605	0.088815
	H82	H	0.618419	0.906588	0.099130
	H83	H	0.380133	0.897694	0.905287
	H84	H	0.616835	0.902479	0.088899
	H85	H	0.386051	0.087176	0.089288
	H86	H	0.618733	0.092248	0.901359
	H87	H	0.387137	0.910439	0.915360
	H88	H	0.910645	0.100310	0.616702
	H89	H	0.093619	0.092873	0.383709
	H90	H	0.109600	0.905504	0.620616
	H91	H	0.901141	0.904278	0.381495
	H92	H	0.087355	0.615836	0.904001
	H93	H	0.094662	0.383918	0.087988
	H94	H	0.913805	0.611718	0.084556
	H95	H	0.907794	0.382119	0.901321
	H96	H	0.398001	0.121246	0.599459
	H97	H	0.595937	0.880117	0.601665
	H98	H	0.599367	0.117880	0.411042
	H99	H	0.405041	0.885302	0.412019
	H100	H	0.598219	0.413383	0.115679
	H101	H	0.584957	0.585324	0.887833
	H102	H	0.403926	0.587690	0.114966
	H103	H	0.411027	0.400862	0.883680
	H104	H	0.118394	0.587541	0.395423
	H105	H	0.881633	0.603484	0.588149
	H106	H	0.116511	0.408718	0.594443
	H107	H	0.885926	0.412165	0.409394
	H108	H	0.895798	0.619428	0.091962
	H109	H	0.097323	0.380680	0.097631
	H110	H	0.093640	0.615249	0.912242
	H111	H	0.910949	0.385063	0.909051
	H112	H	0.088029	0.918371	0.610186
	H113	H	0.093467	0.092913	0.384464
	H114	H	0.899147	0.092890	0.618441
	H115	H	0.906940	0.910249	0.384955
	H116	H	0.618266	0.098816	0.908534
	H117	H	0.381078	0.093323	0.100500
	H118	H	0.614540	0.912934	0.091327
	H119	H	0.383231	0.914603	0.897982
	C120	C	0.379216	0.008656	0.621142
	C121	C	0.621532	0.991344	0.622230
	C122	C	0.621656	0.008928	0.378318
	C123	C	0.378864	0.992072	0.377840
	C124	C	0.621697	0.378687	0.008170
	C125	C	0.621211	0.621417	0.991334
	C126	C	0.377404	0.622087	0.008338
	C127	C	0.378087	0.378655	0.991985
	C128	C	0.007631	0.621036	0.379092
	C129	C	0.991468	0.621719	0.621640
	C130	C	0.008169	0.379137	0.621326
	C131	C	0.991966	0.377650	0.378202
	C132	C	0.878785	0.508175	0.121579
	C133	C	0.121282	0.491515	0.121931
	C134	C	0.121079	0.508221	0.878473
	C135	C	0.878602	0.491585	0.878282
	C136	C	0.122465	0.877285	0.508097
	C137	C	0.121655	0.121387	0.492004
	C138	C	0.877977	0.121642	0.508220
	C139	C	0.878678	0.878164	0.491727
	C140	C	0.508921	0.121578	0.878463
	C141	C	0.491237	0.122011	0.121275
	C142	C	0.508498	0.878894	0.121572
	C143	C	0.491802	0.878630	0.878390
	C144	C	0.381963	0.885392	0.675974
	C145	C	0.619328	0.114831	0.677208
	C146	C	0.619255	0.885729	0.323226
	C147	C	0.380959	0.115507	0.322970
	C148	C	0.676025	0.381608	0.885100
	C149	C	0.676581	0.618918	0.114217
	C150	C	0.322899	0.618550	0.885408
	C151	C	0.323327	0.381351	0.114567
	C152	C	0.884237	0.675624	0.381652
	C153	C	0.115213	0.675505	0.618090
	C154	C	0.885074	0.323839	0.618415
	C155	C	0.115536	0.323634	0.381937
	C156	C	0.885052	0.381120	0.676273
	C157	C	0.114780	0.618964	0.676679
	C158	C	0.884765	0.618514	0.323576
	C159	C	0.115325	0.380876	0.323976
	C160	C	0.380180	0.676684	0.885544
	C161	C	0.618670	0.676403	0.114311
	C162	C	0.618481	0.323578	0.885332
	C163	C	0.380801	0.323491	0.114605
	C164	C	0.675500	0.884815	0.382152
	C165	C	0.675914	0.114868	0.618396
	C166	C	0.325227	0.884851	0.617456
	C167	C	0.323753	0.115453	0.381112
	C168	C	0.881066	0.384664	0.176313
	C169	C	0.118759	0.614505	0.177239
	C170	C	0.119308	0.385558	0.822988
	C171	C	0.880982	0.614688	0.823270
	C172	C	0.177035	0.880616	0.385350
	C173	C	0.176875	0.118544	0.614877
	C174	C	0.823054	0.118422	0.385243
	C175	C	0.824635	0.882158	0.615076
	C176	C	0.385330	0.176315	0.881456
	C177	C	0.615416	0.175779	0.118066
	C178	C	0.385124	0.824452	0.118261
	C179	C	0.614738	0.823451	0.882222
	C180	C	0.385414	0.881509	0.176475
	C181	C	0.614904	0.119196	0.176255
	C182	C	0.385443	0.119003	0.823431
	C183	C	0.614931	0.880589	0.824212
	C184	C	0.881000	0.176257	0.385297
	C185	C	0.119272	0.176511	0.614829
	C186	C	0.118922	0.822841	0.385230
	C187	C	0.882710	0.824654	0.615406
	C188	C	0.175614	0.384907	0.881753
	C189	C	0.175766	0.614739	0.118990
	C190	C	0.824120	0.384647	0.117839
	C191	C	0.823974	0.615289	0.881431
	C192	C	0.400742	0.094902	0.599746
	C193	C	0.599631	0.905062	0.600719
	C194	C	0.599852	0.094860	0.400087
	C195	C	0.401221	0.906243	0.399616
	C196	C	0.600366	0.400431	0.094117
	C197	C	0.599060	0.599680	0.905773
	C198	C	0.399801	0.600254	0.093996
	C199	C	0.399434	0.400166	0.905798
	C200	C	0.094082	0.598959	0.400943
	C201	C	0.905066	0.600241	0.600320
	C202	C	0.094100	0.400949	0.599585
	C203	C	0.905553	0.399509	0.399808
	C204	C	0.900822	0.593901	0.099960
	C205	C	0.099621	0.405319	0.100299
	C206	C	0.099157	0.594660	0.900161
	C207	C	0.900369	0.405523	0.899910
	C208	C	0.100948	0.899086	0.594051
	C209	C	0.099568	0.099458	0.406243
	C210	C	0.900040	0.099846	0.594204
	C211	C	0.899743	0.899200	0.405569
	C212	C	0.594937	0.099818	0.900288
	C213	C	0.405428	0.100348	0.099452
	C214	C	0.594473	0.900907	0.099552
	C215	C	0.405478	0.901063	0.899974
	Zn216	Zn	0.500567	0.000058	0.750207
	Zn217	Zn	0.500419	0.000839	0.249395
	Zn218	Zn	0.750484	0.500429	-0.000338
	Zn219	Zn	0.248964	0.499699	0.000168
	Zn220	Zn	-0.000280	0.749147	0.499790
	Zn221	Zn	0.000184	0.250308	0.500321
	Zn222	Zn	-0.000171	0.500177	0.750008
	Zn223	Zn	-0.000066	0.499796	0.250414
	Zn224	Zn	0.499398	0.750069	-0.000068
	Zn225	Zn	0.500049	0.249969	0.000241
	Zn226	Zn	0.749485	-0.000531	0.499971
	Zn227	Zn	0.250645	-0.000030	0.499800
	N228	N	0.414751	0.963241	0.678464
	N229	N	0.586528	0.036962	0.679866
	N230	N	0.586241	0.963474	0.321029
	N231	N	0.414456	0.037900	0.320926
	N232	N	0.677914	0.415445	0.962369
	N233	N	0.678143	0.585274	0.037020
	N234	N	0.320741	0.585614	0.962931
	N235	N	0.321753	0.415031	0.037294
	N236	N	0.961898	0.677080	0.415360
	N237	N	0.037600	0.677390	0.584866
	N238	N	0.962514	0.322441	0.585005
	N239	N	0.037828	0.321682	0.415044
	N240	N	0.962483	0.414818	0.678113
	N241	N	0.036865	0.585997	0.678914
	N242	N	0.962474	0.585200	0.321902
	N243	N	0.037416	0.413658	0.321502
	N244	N	0.413370	0.678870	0.962896
	N245	N	0.585059	0.678200	0.036918
	N246	N	0.585607	0.321618	0.962870
	N247	N	0.414183	0.321725	0.037350
	N248	N	0.677311	0.962443	0.415507
	N249	N	0.677086	0.037351	0.584839
	N250	N	0.323399	0.962453	0.584105
	N251	N	0.322084	0.037805	0.414338
	N252	N	0.914425	0.462213	0.178531
	N253	N	0.085400	0.536962	0.178944
	N254	N	0.086087	0.463342	0.821084
	N255	N	0.914125	0.536978	0.821341
	N256	N	0.179241	0.913777	0.462824
	N257	N	0.178469	0.084910	0.537517
	N258	N	0.821023	0.085377	0.462718
	N259	N	0.821919	0.914672	0.537328
	N260	N	0.462815	0.177779	0.915117
	N261	N	0.537692	0.177911	0.084768
	N262	N	0.462638	0.822336	0.085214
	N263	N	0.536977	0.822380	0.915289
	N264	N	0.463207	0.914744	0.178389
	N265	N	0.536974	0.086431	0.178313
	N266	N	0.463329	0.085738	0.821375
	N267	N	0.537363	0.914173	0.821878
	N268	N	0.914339	0.178401	0.462742
	N269	N	0.085549	0.178179	0.537556
	N270	N	0.085766	0.820774	0.462584
	N271	N	0.915419	0.822095	0.537783
	N272	N	0.176723	0.462288	0.915565
	N273	N	0.177305	0.537239	0.085441
	N274	N	0.822552	0.462189	0.084435
	N275	N	0.822386	0.537841	0.915045
