data_Molecule from HDF5

_cell_length_a		16.321753
_cell_length_b		16.119216
_cell_length_c		16.270980
_cell_angle_alpha	90.207749
_cell_angle_beta	90.255582
_cell_angle_gamma	89.900589
_symmetry_space_group_name_H-M	'P 1'
_symmetry_Int_Tables_number		1

loop_
	_symmetry_equiv_pos_as_xyz
	x,y,z

loop_
	_atom_site_label
	_atom_site_type_symbol
	_atom_site_fract_x
	_atom_site_fract_y
	_atom_site_fract_z
	H0	H	0.401133	0.835695	0.705412
	H1	H	0.596996	0.164461	0.702715
	H2	H	0.596693	0.834038	0.276364
	H3	H	0.398925	0.164325	0.277979
	H4	H	0.716005	0.398148	0.828163
	H5	H	0.719512	0.602256	0.154260
	H6	H	0.282535	0.600980	0.829154
	H7	H	0.287445	0.401011	0.155109
	H8	H	0.836352	0.711105	0.392756
	H9	H	0.163539	0.711739	0.589773
	H10	H	0.834700	0.287744	0.586330
	H11	H	0.163777	0.282927	0.395578
	H12	H	0.838371	0.397230	0.707795
	H13	H	0.163076	0.598914	0.708288
	H14	H	0.838822	0.598066	0.272355
	H15	H	0.164420	0.397406	0.277078
	H16	H	0.402655	0.712933	0.827046
	H17	H	0.599394	0.714219	0.155746
	H18	H	0.597176	0.286534	0.826813
	H19	H	0.405752	0.287533	0.155118
	H20	H	0.714077	0.835013	0.390242
	H21	H	0.713081	0.163138	0.591465
	H22	H	0.287346	0.833054	0.589308
	H23	H	0.281429	0.162269	0.391742
	H24	H	0.904362	0.333008	0.202425
	H25	H	0.102513	0.662829	0.208125
	H26	H	0.098670	0.333539	0.778769
	H27	H	0.901579	0.663700	0.777765
	H28	H	0.215545	0.893672	0.329163
	H29	H	0.214572	0.098361	0.654892
	H30	H	0.782599	0.097421	0.328410
	H31	H	0.783013	0.898113	0.655379
	H32	H	0.337169	0.214002	0.892707
	H33	H	0.664632	0.212662	0.089506
	H34	H	0.336765	0.786536	0.086789
	H35	H	0.664621	0.784921	0.892467
	H36	H	0.336723	0.899635	0.204801
	H37	H	0.661587	0.100858	0.209811
	H38	H	0.337290	0.099945	0.775553
	H39	H	0.663623	0.899399	0.774097
	H40	H	0.901193	0.209936	0.327103
	H41	H	0.094655	0.210529	0.656243
	H42	H	0.094685	0.783878	0.327680
	H43	H	0.901529	0.783565	0.655873
	H44	H	0.215577	0.334710	0.892462
	H45	H	0.214130	0.664537	0.091964
	H46	H	0.787768	0.333447	0.089245
	H47	H	0.784871	0.663190	0.890603
	H48	H	0.405833	0.116609	0.582382
	H49	H	0.589271	0.878638	0.590670
	H50	H	0.579283	0.111214	0.406761
	H51	H	0.400205	0.882444	0.410480
	H52	H	0.606815	0.406557	0.111789
	H53	H	0.595197	0.591560	0.874688
	H54	H	0.400954	0.599610	0.111709
	H55	H	0.402893	0.406318	0.872454
	H56	H	0.115592	0.582226	0.395057
	H57	H	0.883229	0.590437	0.585889
	H58	H	0.114462	0.403680	0.575291
	H59	H	0.883701	0.403217	0.395111
	H60	H	0.114391	0.413429	0.589432
	H61	H	0.884145	0.591057	0.584210
	H62	H	0.119935	0.597339	0.394908
	H63	H	0.884515	0.407395	0.396373
	H64	H	0.404848	0.584490	0.106605
	H65	H	0.594355	0.589001	0.875558
	H66	H	0.592683	0.418590	0.103874
	H67	H	0.406233	0.411504	0.874863
	H68	H	0.603303	0.117888	0.407654
	H69	H	0.585415	0.884499	0.576428
	H70	H	0.404409	0.117255	0.581463
	H71	H	0.399451	0.874857	0.386159
	H72	H	0.908502	0.617604	0.083506
	H73	H	0.095318	0.381825	0.079026
	H74	H	0.096510	0.618155	0.900192
	H75	H	0.907777	0.377897	0.889758
	H76	H	0.089198	0.906920	0.606896
	H77	H	0.088141	0.093073	0.374728
	H78	H	0.903603	0.084013	0.606998
	H79	H	0.909984	0.899296	0.375779
	H80	H	0.614987	0.089281	0.900791
	H81	H	0.382861	0.097025	0.084042
	H82	H	0.619267	0.901118	0.084851
	H83	H	0.387450	0.903875	0.906371
	H84	H	0.612747	0.911868	0.076918
	H85	H	0.384868	0.093130	0.080083
	H86	H	0.619175	0.091024	0.889553
	H87	H	0.387778	0.918023	0.894498
	H88	H	0.913277	0.095882	0.607550
	H89	H	0.095885	0.089311	0.373414
	H90	H	0.095311	0.901253	0.609961
	H91	H	0.897426	0.904939	0.373340
	H92	H	0.091314	0.617810	0.895435
	H93	H	0.098763	0.379335	0.083814
	H94	H	0.913027	0.614718	0.083293
	H95	H	0.915670	0.383040	0.902195
	H96	H	0.404690	0.118069	0.583653
	H97	H	0.599495	0.879110	0.579097
	H98	H	0.590178	0.121524	0.386002
	H99	H	0.420432	0.885585	0.396129
	H100	H	0.587926	0.399395	0.108646
	H101	H	0.592388	0.591755	0.875157
	H102	H	0.416234	0.596492	0.107339
	H103	H	0.409162	0.405667	0.874873
	H104	H	0.115099	0.591156	0.407455
	H105	H	0.884403	0.588717	0.584174
	H106	H	0.120356	0.396723	0.589229
	H107	H	0.883543	0.406226	0.391332
	H108	H	0.910159	0.614530	0.079466
	H109	H	0.092860	0.380670	0.085577
	H110	H	0.089980	0.615494	0.901840
	H111	H	0.901482	0.381044	0.902735
	H112	H	0.097143	0.908992	0.608936
	H113	H	0.089860	0.085005	0.376955
	H114	H	0.898964	0.097468	0.612684
	H115	H	0.907806	0.912833	0.378819
	H116	H	0.618793	0.099614	0.898027
	H117	H	0.383933	0.092570	0.085898
	H118	H	0.617153	0.913949	0.090645
	H119	H	0.380855	0.901471	0.889804
	C120	C	0.377717	0.008068	0.611713
	C121	C	0.620066	0.989974	0.611354
	C122	C	0.619709	0.008087	0.370285
	C123	C	0.377078	0.989759	0.369158
	C124	C	0.622997	0.378579	-0.000250
	C125	C	0.623504	0.621326	0.982920
	C126	C	0.378713	0.621628	0.000126
	C127	C	0.378929	0.378926	0.982572
	C128	C	0.009079	0.619253	0.369375
	C129	C	0.991605	0.619647	0.613760
	C130	C	0.008318	0.376753	0.612624
	C131	C	0.991790	0.375509	0.367484
	C132	C	0.881349	0.506722	0.110803
	C133	C	0.123537	0.490089	0.112713
	C134	C	0.121708	0.507904	0.870402
	C135	C	0.879097	0.489870	0.869563
	C136	C	0.121386	0.875900	0.500347
	C137	C	0.120132	0.118847	0.483195
	C138	C	0.876467	0.120378	0.500766
	C139	C	0.876447	0.876319	0.483670
	C140	C	0.509395	0.122149	0.867929
	C141	C	0.491605	0.122643	0.113167
	C142	C	0.508441	0.879476	0.112048
	C143	C	0.492712	0.878337	0.868063
	C144	C	0.380825	0.884424	0.667399
	C145	C	0.617556	0.114759	0.665845
	C146	C	0.617446	0.883608	0.314061
	C147	C	0.378764	0.114621	0.315133
	C148	C	0.677657	0.379115	0.876798
	C149	C	0.680123	0.620869	0.105788
	C150	C	0.322293	0.619939	0.877199
	C151	C	0.325279	0.381197	0.106140
	C152	C	0.885592	0.673958	0.371543
	C153	C	0.114753	0.674313	0.610648
	C154	C	0.884409	0.323873	0.608102
	C155	C	0.114707	0.319721	0.372812
	C156	C	0.886256	0.378581	0.668318
	C157	C	0.114252	0.618559	0.669855
	C158	C	0.886867	0.617765	0.311957
	C159	C	0.115222	0.376637	0.314056
	C160	C	0.381721	0.675975	0.876263
	C161	C	0.620522	0.676886	0.106643
	C162	C	0.618647	0.323510	0.876179
	C163	C	0.383856	0.324696	0.106069
	C164	C	0.675766	0.884153	0.370708
	C165	C	0.675178	0.114144	0.610598
	C166	C	0.324385	0.883117	0.609463
	C167	C	0.320246	0.113653	0.371359
	C168	C	0.883690	0.382259	0.165203
	C169	C	0.122051	0.613677	0.169899
	C170	C	0.119480	0.383268	0.815835
	C171	C	0.880901	0.613827	0.814605
	C172	C	0.176651	0.875608	0.377700
	C173	C	0.175840	0.117813	0.606267
	C174	C	0.820916	0.117483	0.377316
	C175	C	0.821229	0.878114	0.606626
	C176	C	0.386095	0.176853	0.871403
	C177	C	0.615069	0.176266	0.110640
	C178	C	0.385708	0.823947	0.108228
	C179	C	0.615617	0.822591	0.871089
	C180	C	0.385723	0.880009	0.167133
	C181	C	0.613616	0.120735	0.170415
	C182	C	0.386308	0.120135	0.812936
	C183	C	0.615191	0.879887	0.812704
	C184	C	0.879823	0.173422	0.376297
	C185	C	0.116387	0.173799	0.606890
	C186	C	0.116695	0.820909	0.377026
	C187	C	0.880204	0.821335	0.607033
	C188	C	0.177601	0.383901	0.872266
	C189	C	0.177399	0.614816	0.111848
	C190	C	0.825562	0.382869	0.109171
	C191	C	0.822954	0.613806	0.870901
	C192	C	0.398747	0.094985	0.589141
	C193	C	0.597917	0.903250	0.588711
	C194	C	0.597477	0.094522	0.393020
	C195	C	0.400055	0.903395	0.391241
	C196	C	0.601836	0.401482	0.085886
	C197	C	0.600708	0.597826	0.897460
	C198	C	0.400893	0.600009	0.086084
	C199	C	0.399970	0.401217	0.896420
	C200	C	0.094723	0.596788	0.392495
	C201	C	0.905963	0.596827	0.591215
	C202	C	0.094270	0.398420	0.591148
	C203	C	0.906060	0.398769	0.388228
	C204	C	0.903880	0.593220	0.088612
	C205	C	0.101958	0.403144	0.089483
	C206	C	0.099205	0.594768	0.892595
	C207	C	0.901740	0.403101	0.891899
	C208	C	0.100119	0.898991	0.586541
	C209	C	0.097769	0.095852	0.397239
	C210	C	0.898655	0.098847	0.586776
	C211	C	0.898456	0.899003	0.398168
	C212	C	0.595330	0.099841	0.889669
	C213	C	0.406024	0.100653	0.090175
	C214	C	0.594183	0.902323	0.090578
	C215	C	0.407333	0.900933	0.890343
	Zn216	Zn	0.500394	0.000208	0.738830
	Zn217	Zn	0.498889	0.000148	0.241296
	Zn218	Zn	0.751875	0.498934	-0.008654
	Zn219	Zn	0.249728	0.500295	-0.008115
	Zn220	Zn	-0.000759	0.748123	0.492114
	Zn221	Zn	-0.001421	0.248104	0.491075
	Zn222	Zn	0.000839	0.497908	0.742099
	Zn223	Zn	0.002087	0.497813	0.239353
	Zn224	Zn	0.501319	0.749762	-0.008900
	Zn225	Zn	0.500889	0.250726	-0.009375
	Zn226	Zn	0.747915	-0.000912	0.492329
	Zn227	Zn	0.249541	-0.002427	0.491068
	N228	N	0.413252	0.963064	0.668912
	N229	N	0.583829	0.036715	0.666483
	N230	N	0.583265	0.961684	0.313727
	N231	N	0.413092	0.036573	0.313347
	N232	N	0.680529	0.412499	0.954667
	N233	N	0.682227	0.587237	0.027845
	N234	N	0.320429	0.587010	0.954946
	N235	N	0.321952	0.414265	0.028280
	N236	N	0.962575	0.675068	0.406486
	N237	N	0.037401	0.675127	0.576597
	N238	N	0.961394	0.322527	0.574158
	N239	N	0.036950	0.318839	0.405214
	N240	N	0.964259	0.410829	0.671142
	N241	N	0.036782	0.585118	0.671810
	N242	N	0.964763	0.584867	0.310224
	N243	N	0.037878	0.410367	0.310524
	N244	N	0.416235	0.677215	0.953639
	N245	N	0.585981	0.677253	0.029445
	N246	N	0.585403	0.322910	0.953782
	N247	N	0.416209	0.323030	0.028256
	N248	N	0.677207	0.962232	0.405148
	N249	N	0.676986	0.035590	0.577375
	N250	N	0.322482	0.961154	0.575583
	N251	N	0.318997	0.035127	0.404153
	N252	N	0.917839	0.460362	0.166428
	N253	N	0.088943	0.535092	0.170378
	N254	N	0.085579	0.461486	0.814474
	N255	N	0.915047	0.535593	0.813465
	N256	N	0.179456	0.909309	0.455528
	N257	N	0.178324	0.084348	0.528411
	N258	N	0.818765	0.085167	0.455484
	N259	N	0.818723	0.911465	0.528942
	N260	N	0.463578	0.178315	0.904931
	N261	N	0.538140	0.177498	0.075605
	N262	N	0.462992	0.823523	0.074500
	N263	N	0.538499	0.821488	0.904930
	N264	N	0.462976	0.913749	0.169483
	N265	N	0.535833	0.088204	0.172039
	N266	N	0.464036	0.086907	0.810725
	N267	N	0.537794	0.913758	0.810700
	N268	N	0.913759	0.175530	0.453795
	N269	N	0.082287	0.174398	0.529272
	N270	N	0.082956	0.820953	0.454327
	N271	N	0.913768	0.820045	0.529640
	N272	N	0.179121	0.462558	0.905354
	N273	N	0.178595	0.536835	0.077146
	N274	N	0.824367	0.461177	0.075791
	N275	N	0.821414	0.535502	0.904088
	O276	O	0.996410	0.931547	0.042433
	H277	H	1.004527	0.937455	0.042191
	H278	H	0.990840	0.943727	0.044456
	O279	O	0.072634	-0.056083	1.105595
	H280	H	0.084983	-0.055287	1.116118
	H281	H	0.066477	-0.058430	1.108436
	O282	O	-0.022214	-0.046640	-0.037056
	H283	H	-0.019568	-0.044639	-0.043153
	H284	H	-0.021644	-0.044380	-0.032561
	O285	O	0.505390	0.536428	0.528975
	H286	H	0.519214	0.537087	0.526940
	H287	H	0.500901	0.541024	0.537147
	O288	O	0.010615	-0.016429	0.033155
	H289	H	0.019355	-0.027641	0.040358
	H290	H	0.004693	-0.025860	0.034819
	O291	O	0.014002	1.069763	0.028715
	H292	H	0.019550	1.068320	0.041958
	H293	H	0.024005	1.074200	0.026999
	O294	O	0.048361	0.994358	0.021065
	H295	H	0.045753	0.996405	0.022973
	H296	H	0.059145	0.986789	0.024026
	O297	O	0.516826	0.560788	0.494521
	H298	H	0.519482	0.552019	0.501318
	H299	H	0.511369	0.560526	0.493274
	O300	O	0.503133	0.504759	0.550024
	H301	H	0.507499	0.512192	0.551443
	H302	H	0.498547	0.507199	0.550412
	O303	O	1.044143	0.051222	1.103019
	H304	H	1.039588	0.048390	1.101530
	H305	H	1.040216	0.045204	1.091341
	O306	O	-0.012147	0.958813	0.954183
	H307	H	-0.024858	0.951950	0.951191
	H308	H	-0.006321	0.954768	0.949473
	O309	O	0.058739	0.948554	1.013996
	H310	H	0.058470	0.948889	0.996733
	H311	H	0.068187	0.950099	1.017318
	O312	O	-0.003107	-0.051913	1.014837
	H313	H	-0.005122	-0.037912	1.021797
	H314	H	-0.001129	-0.043148	1.021845
	O315	O	0.500871	0.499094	0.526868
	H316	H	0.498755	0.496903	0.526166
	H317	H	0.498294	0.505672	0.526580
	O318	O	-0.006803	-0.125676	1.000492
	H319	H	-0.010611	-0.137792	1.006534
	H320	H	-0.018874	-0.127670	1.006309
	O321	O	0.526089	0.542686	0.525575
	H322	H	0.528386	0.532001	0.528648
	H323	H	0.534167	0.545872	0.519222
	O324	O	1.036142	0.046734	1.039785
	H325	H	1.038688	0.044957	1.037716
	H326	H	1.035201	0.052681	1.048619
	O327	O	1.023420	0.983414	0.956658
	H328	H	1.016262	0.978163	0.951603
	H329	H	1.014490	0.985443	0.957737
	O330	O	0.554693	0.446234	0.520255
	H331	H	0.547620	0.449685	0.526524
	H332	H	0.553007	0.447986	0.514470
	O333	O	0.558742	0.490562	0.468106
	H334	H	0.555775	0.489503	0.461729
	H335	H	0.561463	0.488103	0.481574
	O336	O	0.570159	0.494585	0.464605
	H337	H	0.569691	0.486523	0.473549
	H338	H	0.566733	0.487539	0.467321
	O339	O	0.545712	0.584419	0.532364
	H340	H	0.548924	0.582977	0.525081
	H341	H	0.540793	0.592655	0.525224
	O342	O	0.484942	0.504746	0.528319
	H343	H	0.494794	0.509735	0.528211
	H344	H	0.482068	0.504085	0.529272
	O345	O	0.485341	0.465645	0.533920
	H346	H	0.476801	0.457227	0.536935
	H347	H	0.495496	0.475099	0.538437
