data_Molecule from HDF5

_cell_length_a		16.438443
_cell_length_b		16.459411
_cell_length_c		16.555134
_cell_angle_alpha	89.867217
_cell_angle_beta	89.890682
_cell_angle_gamma	89.941536
_symmetry_space_group_name_H-M	'P 1'
_symmetry_Int_Tables_number		1

loop_
	_symmetry_equiv_pos_as_xyz
	x,y,z

loop_
	_atom_site_label
	_atom_site_type_symbol
	_atom_site_fract_x
	_atom_site_fract_y
	_atom_site_fract_z
	H0	H	0.389725	0.843379	0.730116
	H1	H	0.604357	0.158319	0.728543
	H2	H	0.602455	0.842090	0.286037
	H3	H	0.392552	0.158069	0.284437
	H4	H	0.721658	0.395800	0.848466
	H5	H	0.718318	0.604746	0.163370
	H6	H	0.274991	0.608781	0.848890
	H7	H	0.277048	0.395777	0.161412
	H8	H	0.838740	0.724116	0.400363
	H9	H	0.154017	0.722201	0.610765
	H10	H	0.838170	0.279332	0.613304
	H11	H	0.155395	0.282298	0.403555
	H12	H	0.838427	0.394750	0.729134
	H13	H	0.153421	0.608981	0.729130
	H14	H	0.839671	0.609976	0.282650
	H15	H	0.155138	0.397925	0.286809
	H16	H	0.392753	0.723866	0.848934
	H17	H	0.605153	0.723387	0.162338
	H18	H	0.605666	0.279667	0.847353
	H19	H	0.395653	0.280735	0.162199
	H20	H	0.718715	0.842728	0.402134
	H21	H	0.719902	0.158520	0.612319
	H22	H	0.276023	0.842020	0.611444
	H23	H	0.278662	0.159086	0.403477
	H24	H	0.890408	0.344378	0.230758
	H25	H	0.101956	0.658378	0.226432
	H26	H	0.104272	0.345037	0.783103
	H27	H	0.886728	0.657739	0.781403
	H28	H	0.217578	0.896229	0.349842
	H29	H	0.218616	0.104713	0.663065
	H30	H	0.778426	0.104490	0.347766
	H31	H	0.768877	0.888961	0.660326
	H32	H	0.340578	0.220027	0.901925
	H33	H	0.657342	0.220601	0.110000
	H34	H	0.339989	0.780621	0.108537
	H35	H	0.655374	0.777142	0.898799
	H36	H	0.339181	0.896551	0.225052
	H37	H	0.655081	0.106291	0.228424
	H38	H	0.341045	0.105308	0.784466
	H39	H	0.654357	0.890178	0.780058
	H40	H	0.893606	0.222460	0.349422
	H41	H	0.101963	0.220944	0.663698
	H42	H	0.103078	0.778306	0.350978
	H43	H	0.885320	0.773754	0.661392
	H44	H	0.218921	0.343561	0.900509
	H45	H	0.218550	0.658235	0.108547
	H46	H	0.776254	0.343040	0.112051
	H47	H	0.773694	0.658025	0.899520
	H48	H	0.400930	0.116275	0.597422
	H49	H	0.582475	0.889128	0.595088
	H50	H	0.586794	0.115367	0.410637
	H51	H	0.407598	0.884562	0.411859
	H52	H	0.585547	0.413902	0.115732
	H53	H	0.588377	0.590663	0.892979
	H54	H	0.411210	0.586802	0.115662
	H55	H	0.408883	0.412025	0.892643
	H56	H	0.107499	0.587985	0.421149
	H57	H	0.885369	0.580216	0.596778
	H58	H	0.106253	0.413618	0.589161
	H59	H	0.882032	0.410342	0.416522
	H60	H	0.108974	0.418136	0.601549
	H61	H	0.881236	0.592900	0.597484
	H62	H	0.109512	0.586611	0.411975
	H63	H	0.884079	0.412398	0.420776
	H64	H	0.410813	0.591047	0.117137
	H65	H	0.586477	0.584307	0.895147
	H66	H	0.583464	0.405429	0.117803
	H67	H	0.409834	0.409303	0.892267
	H68	H	0.580048	0.111246	0.417466
	H69	H	0.580743	0.891157	0.591674
	H70	H	0.414624	0.112273	0.601812
	H71	H	0.409900	0.888009	0.415395
	H72	H	0.901521	0.614397	0.090410
	H73	H	0.085318	0.388846	0.093111
	H74	H	0.086100	0.613016	0.919426
	H75	H	0.914510	0.388398	0.909459
	H76	H	0.080673	0.910281	0.618244
	H77	H	0.089412	0.088576	0.394136
	H78	H	0.904507	0.088068	0.619211
	H79	H	0.908097	0.914672	0.394886
	H80	H	0.610932	0.086169	0.918194
	H81	H	0.388820	0.085884	0.090426
	H82	H	0.612566	0.911991	0.098772
	H83	H	0.387157	0.913868	0.919692
	H84	H	0.611845	0.909408	0.093731
	H85	H	0.383262	0.087982	0.101477
	H86	H	0.612800	0.087652	0.912616
	H87	H	0.386405	0.913691	0.917050
	H88	H	0.910043	0.087619	0.617038
	H89	H	0.084033	0.094003	0.393551
	H90	H	0.088762	0.909830	0.620644
	H91	H	0.911278	0.914774	0.396529
	H92	H	0.087357	0.614988	0.915320
	H93	H	0.090015	0.386088	0.096383
	H94	H	0.909393	0.616013	0.103219
	H95	H	0.918083	0.394952	0.925144
	H96	H	0.410663	0.109948	0.587552
	H97	H	0.584855	0.889713	0.591665
	H98	H	0.590040	0.113893	0.420332
	H99	H	0.405104	0.885354	0.416804
	H100	H	0.592218	0.408557	0.119853
	H101	H	0.581572	0.589840	0.895993
	H102	H	0.406985	0.588119	0.117071
	H103	H	0.407145	0.409813	0.891253
	H104	H	0.111320	0.594973	0.415856
	H105	H	0.887018	0.588239	0.586107
	H106	H	0.112000	0.405594	0.597809
	H107	H	0.883416	0.415506	0.416298
	H108	H	0.916269	0.609815	0.091084
	H109	H	0.084601	0.387715	0.099243
	H110	H	0.082625	0.614166	0.916463
	H111	H	0.902352	0.387177	0.921959
	H112	H	0.085888	0.916596	0.617715
	H113	H	0.091215	0.095394	0.390679
	H114	H	0.908434	0.092892	0.620104
	H115	H	0.910158	0.911425	0.395300
	H116	H	0.612363	0.091606	0.916809
	H117	H	0.383888	0.097120	0.093665
	H118	H	0.610450	0.914662	0.094391
	H119	H	0.386152	0.911206	0.918470
	C120	C	0.376170	0.008428	0.627759
	C121	C	0.617946	0.993179	0.627101
	C122	C	0.618049	0.008828	0.384858
	C123	C	0.375969	0.991182	0.384073
	C124	C	0.620362	0.377875	0.013831
	C125	C	0.618846	0.621574	0.997956
	C126	C	0.376827	0.621925	0.013350
	C127	C	0.376709	0.378704	0.995798
	C128	C	0.005293	0.623706	0.383853
	C129	C	0.988202	0.621485	0.626630
	C130	C	0.004864	0.379391	0.629070
	C131	C	0.988187	0.381353	0.386430
	C132	C	0.876133	0.509398	0.127925
	C133	C	0.118805	0.491897	0.127536
	C134	C	0.118437	0.510414	0.884078
	C135	C	0.877104	0.493499	0.885464
	C136	C	0.117626	0.879722	0.515073
	C137	C	0.119424	0.122938	0.497419
	C138	C	0.875477	0.122189	0.515005
	C139	C	0.875017	0.878931	0.497965
	C140	C	0.507191	0.120687	0.884221
	C141	C	0.489832	0.122212	0.127347
	C142	C	0.506914	0.879564	0.127078
	C143	C	0.490110	0.878956	0.884668
	C144	C	0.372308	0.890470	0.689266
	C145	C	0.622075	0.110992	0.688381
	C146	C	0.620307	0.889536	0.325920
	C147	C	0.374095	0.110553	0.324623
	C148	C	0.681713	0.376672	0.895791
	C149	C	0.678792	0.623419	0.116068
	C150	C	0.315996	0.625775	0.895675
	C151	C	0.317173	0.377223	0.114267
	C152	C	0.886385	0.684068	0.381841
	C153	C	0.106684	0.682351	0.629159
	C154	C	0.885812	0.319350	0.631319
	C155	C	0.107696	0.321941	0.384857
	C156	C	0.886104	0.376508	0.689491
	C157	C	0.106209	0.626050	0.688261
	C158	C	0.886751	0.626830	0.323484
	C159	C	0.107627	0.379664	0.326954
	C160	C	0.374407	0.683383	0.895616
	C161	C	0.622587	0.682760	0.115441
	C162	C	0.623609	0.318984	0.895114
	C163	C	0.376152	0.319916	0.114688
	C164	C	0.678116	0.889856	0.383917
	C165	C	0.679564	0.111106	0.630246
	C166	C	0.316011	0.889554	0.629849
	C167	C	0.317420	0.111088	0.383832
	C168	C	0.872877	0.391150	0.189497
	C169	C	0.120748	0.611107	0.186512
	C170	C	0.122116	0.392006	0.823438
	C171	C	0.870934	0.610829	0.822882
	C172	C	0.177833	0.877455	0.396977
	C173	C	0.178886	0.123740	0.615820
	C174	C	0.817397	0.123486	0.395597
	C175	C	0.810902	0.872787	0.614191
	C176	C	0.388175	0.180454	0.882885
	C177	C	0.609171	0.181390	0.128837
	C178	C	0.387501	0.820048	0.127960
	C179	C	0.608089	0.817152	0.880466
	C180	C	0.387056	0.877922	0.185580
	C181	C	0.608230	0.124618	0.187768
	C182	C	0.388182	0.123453	0.824755
	C183	C	0.607597	0.873804	0.821690
	C184	C	0.874423	0.182364	0.396311
	C185	C	0.120725	0.181711	0.616107
	C186	C	0.120887	0.818750	0.397681
	C187	C	0.868993	0.815216	0.614616
	C188	C	0.179201	0.391603	0.881914
	C189	C	0.178697	0.610855	0.128254
	C190	C	0.815987	0.390509	0.130743
	C191	C	0.814210	0.610864	0.881799
	C192	C	0.401540	0.091349	0.602737
	C193	C	0.590605	0.911353	0.600419
	C194	C	0.592891	0.091922	0.409167
	C195	C	0.400392	0.907849	0.407881
	C196	C	0.594612	0.402309	0.096315
	C197	C	0.592799	0.595564	0.916028
	C198	C	0.402363	0.596078	0.095236
	C199	C	0.401508	0.403189	0.913500
	C200	C	0.087835	0.597760	0.409283
	C201	C	0.905928	0.594833	0.600773
	C202	C	0.087581	0.404955	0.603482
	C203	C	0.905015	0.405901	0.410919
	C204	C	0.901696	0.591795	0.102260
	C205	C	0.093739	0.408920	0.103349
	C206	C	0.092490	0.592540	0.909544
	C207	C	0.904087	0.411370	0.911511
	C208	C	0.092296	0.905078	0.597429
	C209	C	0.095254	0.099421	0.414563
	C210	C	0.900532	0.096964	0.597339
	C211	C	0.902132	0.905946	0.416970
	C212	C	0.590307	0.095529	0.908816
	C213	C	0.406898	0.097453	0.102417
	C214	C	0.590024	0.904829	0.102730
	C215	C	0.407976	0.905400	0.910941
	Zn216	Zn	0.497785	-0.000114	0.756359
	Zn217	Zn	0.497870	0.000451	0.255665
	Zn218	Zn	0.747788	0.500869	0.006444
	Zn219	Zn	0.247371	0.501191	0.005031
	Zn220	Zn	-0.003725	0.750683	0.506701
	Zn221	Zn	-0.003385	0.251506	0.506946
	Zn222	Zn	-0.003663	0.501556	0.755934
	Zn223	Zn	-0.002993	0.501179	0.256350
	Zn224	Zn	0.498796	0.750878	0.005875
	Zn225	Zn	0.499301	0.249651	0.004319
	Zn226	Zn	0.746937	0.001100	0.506078
	Zn227	Zn	0.247750	-0.000022	0.506136
	N228	N	0.409063	0.965409	0.688072
	N229	N	0.584610	0.036398	0.686511
	N230	N	0.583618	0.964669	0.326401
	N231	N	0.409662	0.035108	0.324642
	N232	N	0.679945	0.412466	0.970724
	N233	N	0.676811	0.586394	0.041761
	N234	N	0.317382	0.588361	0.969731
	N235	N	0.316995	0.412839	0.039224
	N236	N	0.961071	0.682281	0.418394
	N237	N	0.032343	0.679446	0.591669
	N238	N	0.960909	0.320629	0.594644
	N239	N	0.032592	0.322947	0.421371
	N240	N	0.961342	0.412764	0.688425
	N241	N	0.031396	0.589001	0.686834
	N242	N	0.961936	0.590001	0.324354
	N243	N	0.032220	0.415773	0.327730
	N244	N	0.411749	0.681153	0.969809
	N245	N	0.585960	0.681489	0.041004
	N246	N	0.586584	0.319392	0.969618
	N247	N	0.412258	0.320525	0.039868
	N248	N	0.676867	0.964971	0.419692
	N249	N	0.677193	0.036612	0.592947
	N250	N	0.318402	0.964027	0.592151
	N251	N	0.318457	0.035846	0.420039
	N252	N	0.909261	0.466229	0.188032
	N253	N	0.084267	0.536111	0.186155
	N254	N	0.085196	0.466871	0.824360
	N255	N	0.909362	0.536785	0.825303
	N256	N	0.176082	0.914639	0.471086
	N257	N	0.178524	0.088228	0.541020
	N258	N	0.817644	0.087213	0.470595
	N259	N	0.814310	0.911657	0.540797
	N260	N	0.463324	0.178878	0.919117
	N261	N	0.534487	0.179898	0.091772
	N262	N	0.463240	0.820727	0.092521
	N263	N	0.534239	0.820411	0.919105
	N264	N	0.462355	0.913956	0.185216
	N265	N	0.532966	0.088550	0.186975
	N266	N	0.463211	0.086966	0.825628
	N267	N	0.533230	0.911776	0.824476
	N268	N	0.909520	0.181866	0.471599
	N269	N	0.084516	0.181419	0.541419
	N270	N	0.084277	0.820040	0.472188
	N271	N	0.908418	0.819151	0.541528
	N272	N	0.177224	0.466134	0.918846
	N273	N	0.177524	0.535635	0.092415
	N274	N	0.818008	0.464817	0.093035
	N275	N	0.818104	0.536914	0.920283
	O276	O	0.560957	0.389520	0.596319
	H277	H	0.565418	0.395151	0.598152
	H278	H	0.560649	0.399634	0.580469
	O279	O	0.385081	0.690227	0.607315
	H280	H	0.380661	0.679374	0.616168
	H281	H	0.382566	0.687113	0.608400
	O282	O	0.888937	1.117996	0.072941
	H283	H	0.869207	1.106605	0.078637
	H284	H	0.877741	1.126193	0.071101
	O285	O	0.292282	0.492279	0.494309
	H286	H	0.286910	0.467541	0.495211
	H287	H	0.288183	0.493836	0.498661
	O288	O	0.017112	0.209446	0.211815
	H289	H	0.035900	0.213027	0.221114
	H290	H	0.020527	0.201085	0.228077
	O291	O	0.757016	0.752579	0.239721
	H292	H	0.749382	0.749873	0.213590
	H293	H	0.788461	0.740191	0.249287
	O294	O	-0.214834	0.929628	0.216015
	H295	H	-0.237895	0.915811	0.225006
	H296	H	-0.213157	0.894109	0.211575
	O297	O	0.459229	0.425052	0.343242
	H298	H	0.471581	0.418775	0.339817
	H299	H	0.476909	0.442536	0.353240
	O300	O	0.702862	0.536186	0.455037
	H301	H	0.705777	0.528002	0.475872
	H302	H	0.686779	0.554031	0.449241
	O303	O	0.467956	0.311209	0.513072
	H304	H	0.478630	0.312910	0.522042
	H305	H	0.460614	0.311824	0.509023
	O306	O	0.197910	0.808784	0.954614
	H307	H	0.206047	0.814972	0.962863
	H308	H	0.180526	0.809701	0.963580
	O309	O	0.464080	0.707007	0.444112
	H310	H	0.443362	0.719738	0.439167
	H311	H	0.443033	0.706495	0.459177
	O312	O	0.470099	0.718477	0.286305
	H313	H	0.434477	0.713966	0.289485
	H314	H	0.460367	0.746339	0.257857
	O315	O	0.209057	0.035411	1.221392
	H316	H	0.219397	0.025689	1.234729
	H317	H	0.210178	0.017695	1.216666
	O318	O	-0.209007	1.028923	0.014682
	H319	H	-0.216939	1.054768	0.012557
	H320	H	-0.203741	1.037801	0.005483
	O321	O	0.421126	0.702637	0.451582
	H322	H	0.406420	0.711239	0.457481
	H323	H	0.418701	0.689035	0.456602
	O324	O	0.929874	-0.054638	0.835922
	H325	H	0.950141	-0.037807	0.830426
	H326	H	0.940160	-0.071221	0.841710
	O327	O	1.125273	0.212577	0.990527
	H328	H	1.106176	0.222520	1.008438
	H329	H	1.141632	0.217948	1.011020
	O330	O	0.977507	0.171935	0.018293
	H331	H	0.973546	0.165015	0.034294
	H332	H	0.956018	0.176206	0.012063
	O333	O	1.074691	0.835864	1.048593
	H334	H	1.071253	0.829286	1.049709
	H335	H	1.046844	0.843757	1.029697
	O336	O	1.037255	-0.030663	1.209164
	H337	H	1.020240	-0.026875	1.192397
	H338	H	1.036851	-0.013968	1.213934
	O339	O	0.709293	0.472665	0.297227
	H340	H	0.727798	0.474649	0.287976
	H341	H	0.717277	0.488441	0.303326
	O342	O	0.351278	0.529980	0.528472
	H343	H	0.338220	0.525303	0.529448
	H344	H	0.352887	0.528374	0.548786
	O345	O	0.192097	0.202320	0.203569
	H346	H	0.193709	0.207242	0.216582
	H347	H	0.208551	0.171769	0.218140
	O348	O	0.890234	0.093873	1.037919
	H349	H	0.888658	0.100094	1.030572
	H350	H	0.904779	0.093659	1.033308
	O351	O	0.930978	0.943969	-0.093802
	H352	H	0.938828	0.945228	-0.094658
	H353	H	0.924366	0.953125	-0.087606
	O354	O	0.538027	0.534887	0.291796
	H355	H	0.539698	0.540261	0.293638
	H356	H	0.549848	0.558200	0.287411
	O357	O	0.951943	0.865995	0.976428
	H358	H	0.937104	0.870157	0.965663
	H359	H	0.944453	0.872677	0.968531
	O360	O	0.283596	0.475339	0.719414
	H361	H	0.269972	0.444565	0.733678
	H362	H	0.284046	0.479010	0.735915
	O363	O	0.446404	0.484628	0.495648
	H364	H	0.446499	0.488476	0.484139
	H365	H	0.442591	0.490468	0.485102
	O366	O	0.793320	0.216357	0.977624
	H367	H	0.768828	0.252270	0.977776
	H368	H	0.814052	0.208915	0.961119
	O369	O	0.542731	0.408577	0.543731
	H370	H	0.531863	0.428624	0.533652
	H371	H	0.540016	0.400106	0.539699
	O372	O	0.286558	0.529654	0.292568
	H373	H	0.292239	0.521050	0.284718
	H374	H	0.277135	0.544455	0.283000
	O375	O	0.115344	1.224023	1.035638
	H376	H	0.114174	1.217792	1.068712
	H377	H	0.141983	1.249545	1.041677
	O378	O	1.184677	0.015672	0.018149
	H379	H	1.173501	0.027260	0.025480
	H380	H	1.186651	0.022102	0.022017
	O381	O	0.963972	-0.195906	0.206058
	H382	H	0.974854	-0.183265	0.212203
	H383	H	0.961000	-0.208119	0.222743
	O384	O	0.194056	-0.004398	0.833092
	H385	H	0.193258	0.007864	0.849620
	H386	H	0.194209	0.007295	0.834970
	O387	O	0.020483	0.788752	0.810940
	H388	H	0.058097	0.792544	0.817461
	H389	H	0.026522	0.760180	0.784261
	O390	O	0.297004	0.302441	0.705299
	H391	H	0.278029	0.282870	0.714599
	H392	H	0.336148	0.306207	0.703703
	O393	O	1.008670	0.790413	0.037159
	H394	H	0.994272	0.792849	0.015828
	H395	H	1.005735	0.782797	0.041267
	O396	O	0.678718	0.684481	0.678077
	H397	H	0.665707	0.667825	0.688086
	H398	H	0.690608	0.672847	0.650263
	O399	O	0.312337	0.692271	0.318817
	H400	H	0.290636	0.690239	0.306966
	H401	H	0.300123	0.701406	0.338084
	O402	O	-0.078534	0.025120	1.207647
	H403	H	-0.098578	0.018568	1.192366
	H404	H	-0.091912	0.030370	1.214214
	O405	O	0.057407	-0.029410	-0.030277
	H406	H	0.055420	-0.019435	-0.031293
	H407	H	0.060465	-0.039645	-0.029580
	O408	O	0.466029	0.584732	0.631086
	H409	H	0.465362	0.583225	0.625267
	H410	H	0.474292	0.596967	0.629410
	O411	O	0.701868	0.456303	0.622515
	H412	H	0.704373	0.443617	0.625954
	H413	H	0.705108	0.449476	0.624886
	O414	O	0.522448	0.290011	0.298909
	H415	H	0.512905	0.285540	0.309970
	H416	H	0.514064	0.286364	0.284142
	O417	O	0.331478	0.311191	0.342171
	H418	H	0.348903	0.340169	0.343497
	H419	H	0.345803	0.317226	0.368838
	O420	O	0.637564	0.576900	0.698155
	H421	H	0.641551	0.569541	0.695545
	H422	H	0.619396	0.558969	0.703313
	O423	O	0.032542	1.045281	-0.183658
	H424	H	0.036138	1.054190	-0.192342
	H425	H	0.026782	1.063758	-0.177405
	O426	O	0.812838	1.186074	0.820945
	H427	H	0.801078	1.154312	0.831123
	H428	H	0.835568	1.173558	0.820765
	O429	O	0.195761	0.804896	0.201080
	H430	H	0.179058	0.811435	0.186364
	H431	H	0.182392	0.816147	0.186368
	O432	O	0.281870	0.290957	0.537656
	H433	H	0.279179	0.292445	0.563228
	H434	H	0.275862	0.266857	0.532199
	O435	O	-0.028980	0.219323	-0.214639
	H436	H	-0.040601	0.234975	-0.217410
	H437	H	-0.030914	0.238438	-0.219283
	O438	O	1.177392	0.172210	-0.161269
	H439	H	1.179739	0.162257	-0.149464
	H440	H	1.153822	0.173112	-0.142780
	O441	O	0.699718	0.310680	0.507765
	H442	H	0.719349	0.281436	0.507395
	H443	H	0.695480	0.316064	0.469950
	O444	O	0.157828	0.804744	0.809185
	H445	H	0.175434	0.811436	0.801955
	H446	H	0.168377	0.821033	0.829248
	O447	O	0.541563	0.630399	0.649645
	H448	H	0.560026	0.654938	0.673451
	H449	H	0.562754	0.606220	0.645184
	O450	O	0.687047	0.307319	0.313223
	H451	H	0.698988	0.340735	0.297279
	H452	H	0.649925	0.297841	0.319351
	O453	O	0.451062	0.353932	0.671889
	H454	H	0.456752	0.345282	0.676416
	H455	H	0.463005	0.360718	0.663216
	O456	O	0.780436	0.024669	-0.211727
	H457	H	0.782218	0.008068	-0.221606
	H458	H	0.779606	0.009726	-0.235384
	O459	O	0.487866	0.458993	0.721843
	H460	H	0.495504	0.446245	0.721637
	H461	H	0.468678	0.450550	0.718382
	O462	O	0.697861	0.700814	0.512399
	H463	H	0.687714	0.717398	0.507601
	H464	H	0.699163	0.702899	0.513764
	O465	O	0.792117	-0.206625	0.031931
	H466	H	0.771789	-0.211040	0.018137
	H467	H	0.798757	-0.205312	0.021509
