data_Molecule from HDF5

_cell_length_a		16.291905
_cell_length_b		16.242395
_cell_length_c		16.324027
_cell_angle_alpha	90.003694
_cell_angle_beta	89.978114
_cell_angle_gamma	90.018550
_symmetry_space_group_name_H-M	'P 1'
_symmetry_Int_Tables_number		1

loop_
	_symmetry_equiv_pos_as_xyz
	x,y,z

loop_
	_atom_site_label
	_atom_site_type_symbol
	_atom_site_fract_x
	_atom_site_fract_y
	_atom_site_fract_z
	H0	H	0.401133	0.835825	0.714716
	H1	H	0.598560	0.164076	0.713744
	H2	H	0.598327	0.835720	0.286329
	H3	H	0.402672	0.164272	0.286958
	H4	H	0.714140	0.402284	0.836471
	H5	H	0.715895	0.600274	0.163274
	H6	H	0.285912	0.598826	0.836411
	H7	H	0.284902	0.401036	0.162637
	H8	H	0.835975	0.712400	0.402944
	H9	H	0.163695	0.713495	0.597180
	H10	H	0.835795	0.286170	0.597278
	H11	H	0.163436	0.285853	0.402389
	H12	H	0.836580	0.400847	0.715064
	H13	H	0.162967	0.598797	0.714797
	H14	H	0.836862	0.598296	0.285419
	H15	H	0.163580	0.401407	0.285564
	H16	H	0.402468	0.715219	0.837344
	H17	H	0.596698	0.713498	0.164161
	H18	H	0.598615	0.285027	0.836697
	H19	H	0.401690	0.285351	0.163449
	H20	H	0.713124	0.835936	0.403410
	H21	H	0.714684	0.164153	0.597909
	H22	H	0.286198	0.835896	0.598063
	H23	H	0.286545	0.163680	0.401994
	H24	H	0.902177	0.336237	0.213359
	H25	H	0.099944	0.663840	0.215177
	H26	H	0.097778	0.336201	0.785247
	H27	H	0.901154	0.663924	0.785138
	H28	H	0.215580	0.900719	0.337623
	H29	H	0.214302	0.098217	0.663039
	H30	H	0.785850	0.097485	0.336417
	H31	H	0.785176	0.901005	0.663087
	H32	H	0.336593	0.214006	0.903069
	H33	H	0.663745	0.214250	0.097704
	H34	H	0.336827	0.786470	0.096792
	H35	H	0.664269	0.786944	0.903232
	H36	H	0.336874	0.900640	0.215168
	H37	H	0.663254	0.099213	0.215434
	H38	H	0.336701	0.100031	0.785814
	H39	H	0.663797	0.901359	0.785652
	H40	H	0.902240	0.213164	0.336515
	H41	H	0.097800	0.214360	0.663381
	H42	H	0.097064	0.786245	0.336490
	H43	H	0.901761	0.785204	0.663515
	H44	H	0.213089	0.335281	0.902015
	H45	H	0.213857	0.664211	0.096978
	H46	H	0.785638	0.336014	0.097815
	H47	H	0.785488	0.663697	0.901667
	H48	H	0.401084	0.117141	0.589705
	H49	H	0.591192	0.884140	0.592041
	H50	H	0.591532	0.117388	0.405233
	H51	H	0.405471	0.883122	0.409650
	H52	H	0.595371	0.408253	0.115770
	H53	H	0.589156	0.593890	0.884766
	H54	H	0.407692	0.594712	0.116517
	H55	H	0.403688	0.410774	0.883410
	H56	H	0.116641	0.590904	0.404089
	H57	H	0.882374	0.588600	0.597630
	H58	H	0.117387	0.404761	0.595903
	H59	H	0.880140	0.398021	0.404143
	H60	H	0.115581	0.406128	0.588008
	H61	H	0.881508	0.598145	0.594463
	H62	H	0.118011	0.595846	0.404904
	H63	H	0.886880	0.409213	0.414614
	H64	H	0.405042	0.593543	0.116748
	H65	H	0.595346	0.596928	0.882379
	H66	H	0.591391	0.408303	0.115674
	H67	H	0.411050	0.406112	0.885151
	H68	H	0.592650	0.117156	0.408802
	H69	H	0.595358	0.882467	0.592694
	H70	H	0.407118	0.118717	0.599743
	H71	H	0.405192	0.881069	0.405022
	H72	H	0.904299	0.619205	0.096624
	H73	H	0.102062	0.380050	0.094654
	H74	H	0.093929	0.618532	0.904788
	H75	H	0.898131	0.380156	0.904996
	H76	H	0.094950	0.905994	0.617635
	H77	H	0.095868	0.093118	0.382657
	H78	H	0.895008	0.090095	0.618897
	H79	H	0.900831	0.908592	0.382693
	H80	H	0.615427	0.094994	0.911989
	H81	H	0.384886	0.094214	0.090071
	H82	H	0.618554	0.914623	0.106115
	H83	H	0.384384	0.907797	0.908654
	H84	H	0.620615	0.893976	0.092653
	H85	H	0.383892	0.088537	0.094938
	H86	H	0.615785	0.086808	0.904368
	H87	H	0.383459	0.909344	0.904913
	H88	H	0.914710	0.084375	0.611527
	H89	H	0.092450	0.090533	0.384388
	H90	H	0.092947	0.908621	0.615241
	H91	H	0.910869	0.910174	0.385999
	H92	H	0.090612	0.615752	0.907016
	H93	H	0.086983	0.383115	0.101450
	H94	H	0.911747	0.616224	0.094218
	H95	H	0.911573	0.382243	0.899154
	H96	H	0.412812	0.114064	0.590656
	H97	H	0.592690	0.882721	0.596200
	H98	H	0.594935	0.117173	0.406488
	H99	H	0.409378	0.883825	0.406635
	H100	H	0.593052	0.405158	0.116682
	H101	H	0.595509	0.590122	0.884792
	H102	H	0.406662	0.591548	0.115884
	H103	H	0.404345	0.401821	0.881614
	H104	H	0.115914	0.592899	0.409243
	H105	H	0.885180	0.590769	0.587991
	H106	H	0.115225	0.411913	0.593852
	H107	H	0.883412	0.413403	0.399037
	H108	H	0.905124	0.616501	0.088737
	H109	H	0.090327	0.386243	0.084902
	H110	H	0.095169	0.616456	0.908949
	H111	H	0.909507	0.385960	0.913714
	H112	H	0.091065	0.904894	0.616738
	H113	H	0.091847	0.095022	0.383596
	H114	H	0.910645	0.104636	0.618261
	H115	H	0.907453	0.901384	0.381986
	H116	H	0.619481	0.097081	0.901382
	H117	H	0.381925	0.095830	0.096851
	H118	H	0.610947	0.914234	0.082617
	H119	H	0.382565	0.905739	0.905804
	C120	C	0.378498	0.008228	0.621836
	C121	C	0.621457	0.991634	0.621472
	C122	C	0.621344	0.008643	0.378833
	C123	C	0.378517	0.991495	0.378834
	C124	C	0.621349	0.378986	0.007825
	C125	C	0.622016	0.622040	0.992069
	C126	C	0.378661	0.621446	0.008390
	C127	C	0.378194	0.378092	0.991413
	C128	C	0.008593	0.621195	0.378099
	C129	C	0.991231	0.621473	0.621814
	C130	C	0.008137	0.378592	0.621228
	C131	C	0.991290	0.378331	0.377853
	C132	C	0.878762	0.508511	0.121074
	C133	C	0.121798	0.491467	0.121733
	C134	C	0.121235	0.508320	0.878471
	C135	C	0.878237	0.491471	0.877866
	C136	C	0.121399	0.878117	0.508591
	C137	C	0.121928	0.121522	0.491375
	C138	C	0.878354	0.121360	0.508280
	C139	C	0.878050	0.878127	0.491606
	C140	C	0.508638	0.121663	0.878081
	C141	C	0.491656	0.121367	0.121712
	C142	C	0.508825	0.878656	0.122103
	C143	C	0.492028	0.878902	0.878319
	C144	C	0.380980	0.884760	0.676653
	C145	C	0.618923	0.115423	0.675958
	C146	C	0.618441	0.884828	0.324327
	C147	C	0.381506	0.115019	0.324347
	C148	C	0.676096	0.381795	0.885050
	C149	C	0.677068	0.619600	0.114892
	C150	C	0.323845	0.619050	0.885350
	C151	C	0.323256	0.380874	0.114288
	C152	C	0.885144	0.675668	0.381442
	C153	C	0.114654	0.676399	0.618683
	C154	C	0.884882	0.323549	0.618316
	C155	C	0.114518	0.323563	0.381121
	C156	C	0.885127	0.380713	0.676559
	C157	C	0.114232	0.619173	0.676993
	C158	C	0.885603	0.619044	0.323113
	C159	C	0.114627	0.380891	0.323093
	C160	C	0.381450	0.677067	0.885528
	C161	C	0.618674	0.676643	0.115141
	C162	C	0.618337	0.323950	0.885116
	C163	C	0.381317	0.323361	0.114581
	C164	C	0.675826	0.884709	0.382008
	C165	C	0.676754	0.115217	0.618633
	C166	C	0.323847	0.884694	0.618600
	C167	C	0.323724	0.114879	0.381514
	C168	C	0.881155	0.385167	0.175948
	C169	C	0.119655	0.615192	0.176507
	C170	C	0.118568	0.384877	0.823325
	C171	C	0.880576	0.614836	0.822963
	C172	C	0.176964	0.880450	0.385973
	C173	C	0.176666	0.118838	0.614374
	C174	C	0.823558	0.118149	0.385315
	C175	C	0.822883	0.880416	0.614406
	C176	C	0.385553	0.176136	0.882042
	C177	C	0.615039	0.176412	0.118380
	C178	C	0.385444	0.823723	0.118472
	C179	C	0.615309	0.824307	0.881983
	C180	C	0.385555	0.880768	0.176782
	C181	C	0.614739	0.119525	0.176784
	C182	C	0.385447	0.119697	0.823540
	C183	C	0.614915	0.881021	0.823511
	C184	C	0.881198	0.175911	0.385315
	C185	C	0.118597	0.176268	0.614450
	C186	C	0.118258	0.823493	0.385499
	C187	C	0.881016	0.823061	0.614612
	C188	C	0.175823	0.384607	0.881313
	C189	C	0.176685	0.615125	0.118318
	C190	C	0.823994	0.384757	0.118044
	C191	C	0.823093	0.614831	0.880799
	C192	C	0.400598	0.094567	0.599986
	C193	C	0.599461	0.905473	0.599974
	C194	C	0.599526	0.094899	0.400485
	C195	C	0.400300	0.904881	0.400698
	C196	C	0.599607	0.400812	0.093951
	C197	C	0.599881	0.599991	0.906044
	C198	C	0.400334	0.599706	0.094258
	C199	C	0.399944	0.399957	0.905461
	C200	C	0.094549	0.599491	0.399807
	C201	C	0.905197	0.599118	0.599796
	C202	C	0.094091	0.400834	0.599158
	C203	C	0.905615	0.400333	0.399494
	C204	C	0.900626	0.594860	0.099487
	C205	C	0.099648	0.405422	0.100117
	C206	C	0.099428	0.594681	0.900484
	C207	C	0.900031	0.404970	0.899580
	C208	C	0.099494	0.900148	0.594443
	C209	C	0.099931	0.099354	0.405571
	C210	C	0.900410	0.099618	0.594176
	C211	C	0.899898	0.900263	0.405704
	C212	C	0.594735	0.099524	0.899490
	C213	C	0.405812	0.099420	0.100312
	C214	C	0.594567	0.900970	0.100360
	C215	C	0.405694	0.900951	0.900191
	Zn216	Zn	0.499816	0.000144	0.750097
	Zn217	Zn	0.499899	-0.000196	0.250759
	Zn218	Zn	0.750599	0.500387	0.000126
	Zn219	Zn	0.249751	0.500168	-0.000467
	Zn220	Zn	-0.000185	0.749334	0.499916
	Zn221	Zn	-0.000242	0.250147	0.499824
	Zn222	Zn	-0.000256	0.499795	0.750006
	Zn223	Zn	0.000229	0.500245	0.249660
	Zn224	Zn	0.500273	0.750561	0.000220
	Zn225	Zn	0.500119	0.249806	0.000163
	Zn226	Zn	0.749577	-0.000008	0.500015
	Zn227	Zn	0.250663	-0.000118	0.500161
	N228	N	0.414181	0.962601	0.678648
	N229	N	0.585337	0.037665	0.677930
	N230	N	0.585369	0.962800	0.322311
	N231	N	0.414917	0.037310	0.322793
	N232	N	0.678066	0.415315	0.962493
	N233	N	0.679176	0.586601	0.037209
	N234	N	0.322076	0.585471	0.962704
	N235	N	0.321115	0.414119	0.036724
	N236	N	0.962599	0.677100	0.415074
	N237	N	0.037177	0.677738	0.585065
	N238	N	0.962414	0.322099	0.584612
	N239	N	0.037035	0.321912	0.414449
	N240	N	0.962721	0.414220	0.678269
	N241	N	0.036521	0.586096	0.679121
	N242	N	0.963204	0.585844	0.321008
	N243	N	0.037134	0.414462	0.320943
	N244	N	0.414860	0.678693	0.962957
	N245	N	0.584873	0.677925	0.037954
	N246	N	0.584987	0.322365	0.962549
	N247	N	0.414757	0.321675	0.037127
	N248	N	0.677745	0.962520	0.415145
	N249	N	0.678167	0.037411	0.585293
	N250	N	0.322221	0.962572	0.585340
	N251	N	0.321923	0.036945	0.414698
	N252	N	0.914677	0.462889	0.177786
	N253	N	0.086383	0.537293	0.178849
	N254	N	0.085368	0.462719	0.821520
	N255	N	0.914053	0.537043	0.821080
	N256	N	0.178983	0.913880	0.463445
	N257	N	0.178706	0.085497	0.536913
	N258	N	0.821719	0.085195	0.462828
	N259	N	0.820844	0.913908	0.536951
	N260	N	0.463094	0.177529	0.915068
	N261	N	0.537567	0.177660	0.084860
	N262	N	0.462901	0.822482	0.085040
	N263	N	0.537643	0.822724	0.915342
	N264	N	0.463141	0.914141	0.178979
	N265	N	0.537267	0.086050	0.179098
	N266	N	0.463183	0.086461	0.820951
	N267	N	0.537344	0.914388	0.821540
	N268	N	0.914713	0.177857	0.462712
	N269	N	0.085051	0.177865	0.537052
	N270	N	0.084380	0.822023	0.462680
	N271	N	0.914656	0.821607	0.537327
	N272	N	0.177470	0.462406	0.914880
	N273	N	0.178102	0.537440	0.085026
	N274	N	0.822231	0.462594	0.084895
	N275	N	0.821756	0.537152	0.914347
