data_Molecule from HDF5

_cell_length_a		16.472340
_cell_length_b		16.485712
_cell_length_c		16.502017
_cell_angle_alpha	90.047265
_cell_angle_beta	89.961961
_cell_angle_gamma	90.111015
_symmetry_space_group_name_H-M	'P 1'
_symmetry_Int_Tables_number		1

loop_
	_symmetry_equiv_pos_as_xyz
	x,y,z

loop_
	_atom_site_label
	_atom_site_type_symbol
	_atom_site_fract_x
	_atom_site_fract_y
	_atom_site_fract_z
	H0	H	0.401192	0.836459	0.748587
	H1	H	0.612921	0.150936	0.745296
	H2	H	0.617518	0.836786	0.300066
	H3	H	0.406452	0.150794	0.304957
	H4	H	0.730609	0.389868	0.867439
	H5	H	0.731448	0.600921	0.182118
	H6	H	0.285740	0.603561	0.867469
	H7	H	0.289579	0.392929	0.182464
	H8	H	0.854325	0.718696	0.417902
	H9	H	0.165135	0.723808	0.637258
	H10	H	0.852952	0.275144	0.628402
	H11	H	0.168871	0.276770	0.422345
	H12	H	0.852453	0.391927	0.744605
	H13	H	0.165887	0.606890	0.751739
	H14	H	0.853965	0.603189	0.302034
	H15	H	0.167898	0.392278	0.304306
	H16	H	0.402619	0.719188	0.868242
	H17	H	0.616300	0.718475	0.181083
	H18	H	0.612428	0.274280	0.867446
	H19	H	0.406097	0.276394	0.182883
	H20	H	0.734977	0.837710	0.415416
	H21	H	0.728460	0.151771	0.627361
	H22	H	0.283590	0.837095	0.634153
	H23	H	0.292829	0.152672	0.424529
	H24	H	0.909863	0.337098	0.242656
	H25	H	0.116720	0.654519	0.248578
	H26	H	0.114039	0.338295	0.803508
	H27	H	0.903953	0.653528	0.803155
	H28	H	0.230405	0.889531	0.365934
	H29	H	0.229897	0.098127	0.683426
	H30	H	0.791765	0.095435	0.366922
	H31	H	0.785871	0.886884	0.681595
	H32	H	0.350688	0.213318	0.920818
	H33	H	0.667356	0.212856	0.127599
	H34	H	0.352446	0.769149	0.132497
	H35	H	0.666274	0.771473	0.917524
	H36	H	0.350942	0.886192	0.247373
	H37	H	0.666673	0.095623	0.244061
	H38	H	0.350438	0.095089	0.805604
	H39	H	0.665442	0.885830	0.800164
	H40	H	0.909555	0.213114	0.366951
	H41	H	0.114012	0.215427	0.682983
	H42	H	0.117134	0.770767	0.368329
	H43	H	0.902640	0.771038	0.681650
	H44	H	0.230327	0.337882	0.920678
	H45	H	0.233576	0.654444	0.131805
	H46	H	0.792301	0.336590	0.126334
	H47	H	0.788360	0.653364	0.919464
	H48	H	0.422063	0.106934	0.620867
	H49	H	0.591643	0.882626	0.611129
	H50	H	0.596291	0.106885	0.428028
	H51	H	0.420257	0.881107	0.438359
	H52	H	0.597007	0.401633	0.138082
	H53	H	0.601065	0.582449	0.911650
	H54	H	0.420826	0.585537	0.137523
	H55	H	0.418103	0.401627	0.909590
	H56	H	0.122336	0.584160	0.438451
	H57	H	0.901311	0.581613	0.607516
	H58	H	0.124613	0.405662	0.618332
	H59	H	0.897986	0.409558	0.434993
	H60	H	0.123159	0.403377	0.610779
	H61	H	0.900212	0.577649	0.614401
	H62	H	0.120277	0.580481	0.441086
	H63	H	0.893751	0.401748	0.427395
	H64	H	0.420493	0.577129	0.134310
	H65	H	0.596689	0.580196	0.914349
	H66	H	0.604626	0.402249	0.140161
	H67	H	0.418145	0.407504	0.911033
	H68	H	0.593558	0.102241	0.440063
	H69	H	0.598895	0.881968	0.607303
	H70	H	0.423668	0.102670	0.610496
	H71	H	0.415556	0.879203	0.435998
	H72	H	0.921866	0.608510	0.114086
	H73	H	0.104123	0.383627	0.112552
	H74	H	0.093792	0.605929	0.939741
	H75	H	0.923906	0.383486	0.932256
	H76	H	0.099734	0.908313	0.636933
	H77	H	0.103550	0.082407	0.411370
	H78	H	0.922017	0.081553	0.637646
	H79	H	0.921298	0.917967	0.416593
	H80	H	0.623914	0.085426	0.930817
	H81	H	0.394570	0.083652	0.116027
	H82	H	0.619231	0.910693	0.112159
	H83	H	0.401105	0.909973	0.945872
	H84	H	0.621916	0.906058	0.116307
	H85	H	0.394205	0.085539	0.116553
	H86	H	0.623187	0.087527	0.938182
	H87	H	0.398330	0.912811	0.932840
	H88	H	0.920974	0.091971	0.639073
	H89	H	0.097413	0.087223	0.412310
	H90	H	0.094551	0.911784	0.633920
	H91	H	0.932956	0.902740	0.415704
	H92	H	0.100545	0.608237	0.940285
	H93	H	0.095924	0.383633	0.120379
	H94	H	0.918971	0.609900	0.113409
	H95	H	0.919491	0.384514	0.938581
	H96	H	0.413615	0.107060	0.613232
	H97	H	0.598217	0.879467	0.614925
	H98	H	0.605842	0.107309	0.437164
	H99	H	0.420877	0.878873	0.433175
	H100	H	0.600735	0.408343	0.137588
	H101	H	0.596326	0.585376	0.911919
	H102	H	0.427879	0.581623	0.133867
	H103	H	0.422968	0.404141	0.911768
	H104	H	0.122025	0.579657	0.436783
	H105	H	0.898321	0.585341	0.613484
	H106	H	0.122344	0.411269	0.612881
	H107	H	0.895661	0.398858	0.438436
	H108	H	0.919901	0.609568	0.116250
	H109	H	0.094160	0.388436	0.110086
	H110	H	0.097077	0.608981	0.934163
	H111	H	0.916666	0.380484	0.931964
	H112	H	0.093666	0.905351	0.635677
	H113	H	0.104410	0.090148	0.409778
	H114	H	0.912938	0.085359	0.641364
	H115	H	0.914935	0.901493	0.409124
	H116	H	0.620555	0.080818	0.935530
	H117	H	0.394658	0.084494	0.114519
	H118	H	0.619655	0.904275	0.110133
	H119	H	0.395752	0.900602	0.937226
	C120	C	0.386811	0.001737	0.647374
	C121	C	0.629278	0.985140	0.644470
	C122	C	0.631722	0.001870	0.402201
	C123	C	0.388260	0.984797	0.404456
	C124	C	0.631788	0.372483	0.034188
	C125	C	0.631094	0.616072	1.016257
	C126	C	0.389073	0.615913	0.032145
	C127	C	0.387682	0.373310	1.015392
	C128	C	0.018588	0.615669	0.404896
	C129	C	1.002230	0.617258	0.646909
	C130	C	0.019058	0.374999	0.645449
	C131	C	1.001035	0.372995	0.402616
	C132	C	0.889178	0.504308	0.145905
	C133	C	0.131566	0.489001	0.146830
	C134	C	0.130008	0.503905	0.904874
	C135	C	0.887899	0.487362	0.902778
	C136	C	0.130263	0.873921	0.532675
	C137	C	0.132252	0.116946	0.516414
	C138	C	0.888657	0.116275	0.533995
	C139	C	0.888773	0.873245	0.516941
	C140	C	0.517576	0.115373	0.903208
	C141	C	0.499966	0.114892	0.146107
	C142	C	0.517145	0.872257	0.146541
	C143	C	0.501427	0.873521	0.904337
	C144	C	0.383391	0.883547	0.708339
	C145	C	0.631594	0.103658	0.705051
	C146	C	0.635251	0.883826	0.340742
	C147	C	0.387746	0.103821	0.345368
	C148	C	0.690900	0.370942	0.915053
	C149	C	0.691322	0.618981	0.134792
	C150	C	0.326884	0.620739	0.914458
	C151	C	0.328894	0.373309	0.135043
	C152	C	0.901157	0.677899	0.400562
	C153	C	0.118562	0.682020	0.653432
	C154	C	0.900135	0.315179	0.646996
	C155	C	0.121117	0.315612	0.402582
	C156	C	0.899972	0.373076	0.704867
	C157	C	0.118979	0.623656	0.710683
	C158	C	0.900859	0.620295	0.342873
	C159	C	0.120573	0.372782	0.343889
	C160	C	0.384991	0.678225	0.914757
	C161	C	0.634126	0.677463	0.134118
	C162	C	0.632036	0.313703	0.914836
	C163	C	0.386672	0.315291	0.134935
	C164	C	0.693908	0.884620	0.398012
	C165	C	0.688855	0.104305	0.646378
	C166	C	0.325011	0.883823	0.650972
	C167	C	0.331202	0.104656	0.404598
	C168	C	0.889847	0.384519	0.203429
	C169	C	0.134741	0.607441	0.207878
	C170	C	0.132433	0.385318	0.844085
	C171	C	0.886050	0.606113	0.843246
	C172	C	0.190873	0.871072	0.413814
	C173	C	0.190427	0.117306	0.636016
	C174	C	0.831146	0.115363	0.414237
	C175	C	0.826523	0.869074	0.634530
	C176	C	0.398361	0.173837	0.902002
	C177	C	0.619694	0.173114	0.146536
	C178	C	0.399245	0.809875	0.149961
	C179	C	0.619166	0.811517	0.899807
	C180	C	0.398538	0.868020	0.207366
	C181	C	0.619326	0.114870	0.204374
	C182	C	0.398114	0.115255	0.844583
	C183	C	0.618803	0.868650	0.841563
	C184	C	0.889412	0.173570	0.414298
	C185	C	0.132792	0.175607	0.635797
	C186	C	0.134570	0.811800	0.414933
	C187	C	0.884704	0.811580	0.634625
	C188	C	0.190121	0.385163	0.902226
	C189	C	0.192571	0.607406	0.149558
	C190	C	0.831354	0.384503	0.145861
	C191	C	0.828015	0.605906	0.900796
	C192	C	0.412586	0.084169	0.622065
	C193	C	0.603603	0.902696	0.618682
	C194	C	0.605714	0.084024	0.427633
	C195	C	0.412088	0.901214	0.428695
	C196	C	0.607674	0.397045	0.116963
	C197	C	0.605344	0.590112	0.934052
	C198	C	0.415272	0.589162	0.113847
	C199	C	0.412382	0.397668	0.932453
	C200	C	0.100269	0.589085	0.431358
	C201	C	0.921061	0.589478	0.619466
	C202	C	0.101737	0.399780	0.620978
	C203	C	0.917636	0.396688	0.426619
	C204	C	0.913308	0.587753	0.121770
	C205	C	0.105655	0.406708	0.121403
	C206	C	0.104712	0.586209	0.930625
	C207	C	0.912925	0.404389	0.927232
	C208	C	0.103710	0.900763	0.614181
	C209	C	0.108638	0.093295	0.432906
	C210	C	0.912138	0.092988	0.617733
	C211	C	0.915465	0.899634	0.435113
	C212	C	0.600765	0.091258	0.927635
	C213	C	0.416229	0.091253	0.122376
	C214	C	0.598932	0.899327	0.120516
	C215	C	0.419822	0.900141	0.931182
	Zn216	Zn	0.509060	-0.006968	0.775082
	Zn217	Zn	0.508557	-0.007416	0.274993
	Zn218	Zn	0.759771	0.495604	0.024652
	Zn219	Zn	0.260258	0.496495	0.024752
	Zn220	Zn	0.009890	0.744936	0.524676
	Zn221	Zn	0.010843	0.245132	0.525026
	Zn222	Zn	0.009991	0.496169	0.774888
	Zn223	Zn	0.010591	0.496386	0.275877
	Zn224	Zn	0.509643	0.744632	0.024536
	Zn225	Zn	0.508931	0.244360	0.024815
	Zn226	Zn	0.759664	-0.006410	0.524630
	Zn227	Zn	0.259448	-0.006292	0.525674
	N228	N	0.421301	0.957867	0.705984
	N229	N	0.595338	0.028604	0.703959
	N230	N	0.596962	0.957830	0.343104
	N231	N	0.422336	0.027948	0.345100
	N232	N	0.690982	0.406808	0.990143
	N233	N	0.689871	0.581825	0.060264
	N234	N	0.329249	0.582817	0.988452
	N235	N	0.329091	0.408404	0.059429
	N236	N	0.975089	0.674864	0.438611
	N237	N	0.044865	0.678207	0.614414
	N238	N	0.975151	0.316236	0.610913
	N239	N	0.045693	0.315489	0.438178
	N240	N	0.974792	0.409687	0.704150
	N241	N	0.045826	0.583973	0.706623
	N242	N	0.974912	0.582097	0.345536
	N243	N	0.044886	0.407752	0.343804
	N244	N	0.422707	0.675354	0.989038
	N245	N	0.597493	0.675800	0.059416
	N246	N	0.596453	0.314176	0.990106
	N247	N	0.422118	0.314850	0.059502
	N248	N	0.691827	0.958959	0.435301
	N249	N	0.687618	0.029521	0.609477
	N250	N	0.326886	0.958405	0.613961
	N251	N	0.331478	0.029541	0.440362
	N252	N	0.924776	0.460274	0.203770
	N253	N	0.097473	0.532823	0.206260
	N254	N	0.096139	0.460248	0.845351
	N255	N	0.922207	0.530947	0.844140
	N256	N	0.188546	0.908772	0.488154
	N257	N	0.190364	0.081663	0.560756
	N258	N	0.830663	0.080603	0.489765
	N259	N	0.829065	0.906804	0.560323
	N260	N	0.473728	0.174292	0.937564
	N261	N	0.544200	0.173424	0.111335
	N262	N	0.473979	0.812534	0.112913
	N263	N	0.545309	0.814672	0.938358
	N264	N	0.472859	0.905735	0.205624
	N265	N	0.543744	0.079574	0.204438
	N266	N	0.473498	0.079670	0.845207
	N267	N	0.544738	0.906337	0.844233
	N268	N	0.924252	0.174345	0.489979
	N269	N	0.097810	0.175689	0.560276
	N270	N	0.097929	0.813250	0.489823
	N271	N	0.922412	0.814003	0.560438
	N272	N	0.188810	0.459910	0.939152
	N273	N	0.190649	0.532999	0.112217
	N274	N	0.830928	0.460166	0.110918
	N275	N	0.828905	0.530977	0.936980
	O276	O	0.542045	0.280706	0.560342
	H277	H	0.542690	0.281213	0.551693
	H278	H	0.533245	0.279176	0.574548
	O279	O	0.322333	0.672909	0.346595
	H280	H	0.322017	0.650683	0.365565
	H281	H	0.368420	0.685588	0.332488
	O282	O	0.814349	1.192230	-0.173149
	H283	H	0.817330	1.208533	-0.167452
	H284	H	0.794113	1.199331	-0.182125
	O285	O	0.316283	0.366495	0.389230
	H286	H	0.323036	0.372557	0.394896
	H287	H	0.333163	0.377535	0.382167
	O288	O	0.027168	-0.226343	0.079798
	H289	H	0.033655	-0.225353	0.085807
	H290	H	0.031606	-0.237186	0.081101
	O291	O	0.587248	0.466806	0.734416
	H292	H	0.576763	0.474040	0.720367
	H293	H	0.617851	0.484679	0.743757
	O294	O	0.196004	0.815638	-0.159415
	H295	H	0.160677	0.825578	-0.168350
	H296	H	0.210994	0.822338	-0.145002
	O297	O	0.572899	0.588532	0.357485
	H298	H	0.557072	0.570956	0.365071
	H299	H	0.585892	0.570687	0.363169
	O300	O	0.535724	0.274948	0.307289
	H301	H	0.560984	0.274003	0.308647
	H302	H	0.560236	0.254217	0.286130
	O303	O	0.820717	0.807007	0.214363
	H304	H	0.827615	0.816494	0.220875
	H305	H	0.830223	0.793965	0.209650
	O306	O	0.159805	1.138800	0.827848
	H307	H	0.135489	1.118034	0.830181
	H308	H	0.144857	1.124661	0.852406
	O309	O	0.304688	0.285178	0.554545
	H310	H	0.296386	0.280013	0.580403
	H311	H	0.305858	0.267042	0.554836
	O312	O	0.694598	0.517223	0.440487
	H313	H	0.683717	0.505892	0.425809
	H314	H	0.711332	0.515234	0.433959
	O315	O	0.227266	0.039865	1.241981
	H316	H	0.244613	0.044475	1.251304
	H317	H	0.236226	0.058046	1.245055
	O318	O	0.219930	0.934967	0.085524
	H319	H	0.220642	0.936228	0.062870
	H320	H	0.228509	0.943350	0.098628
	O321	O	0.408479	0.403607	0.523807
	H322	H	0.402211	0.402656	0.531274
	H323	H	0.411846	0.386061	0.533815
	O324	O	1.000766	-0.002258	0.806222
	H325	H	1.004290	-0.008574	0.795672
	H326	H	0.982381	0.006958	0.825085
	O327	O	1.031737	-0.022920	1.222000
	H328	H	1.044206	-0.019451	1.208701
	H329	H	1.042028	-0.036351	1.220038
	O330	O	0.458850	0.532374	-0.265946
	H331	H	0.453992	0.529634	-0.266189
	H332	H	0.454148	0.527592	-0.266877
	O333	O	1.177784	1.091645	0.975125
	H334	H	1.177080	1.088147	0.978703
	H335	H	1.171603	1.096222	0.975216
	O336	O	0.910597	-0.191507	1.105895
	H337	H	0.904560	-0.201390	1.105625
	H338	H	0.934643	-0.193108	1.105839
	O339	O	0.216042	0.205195	0.234385
	H340	H	0.183374	0.194317	0.241616
	H341	H	0.239604	0.225584	0.240912
	O342	O	0.672758	0.666928	0.683502
	H343	H	0.643774	0.685715	0.692391
	H344	H	0.674120	0.668111	0.646626
	O345	O	-0.002539	0.020812	-0.030279
	H346	H	0.000156	0.009325	-0.011585
	H347	H	-0.011892	0.022694	-0.033098
	O348	O	0.874926	-0.057393	1.127000
	H349	H	0.869167	-0.059655	1.131012
	H350	H	0.881500	-0.052527	1.131263
	O351	O	0.863958	0.968940	0.046466
	H352	H	0.858073	0.958687	0.049442
	H353	H	0.865585	0.973804	0.066689
	O354	O	0.304335	0.511504	0.319052
	H355	H	0.284433	0.510910	0.314024
	H356	H	0.325684	0.528811	0.323105
	O357	O	1.039843	1.157457	1.052043
	H358	H	1.053162	1.164972	1.040639
	H359	H	1.044291	1.158250	1.044403
	O360	O	0.602658	0.387303	0.471362
	H361	H	0.585021	0.378487	0.482085
	H362	H	0.607642	0.389498	0.479260
	O363	O	0.408966	0.692534	0.617256
	H364	H	0.395416	0.690335	0.600002
	H365	H	0.402567	0.681463	0.603014
	O366	O	1.487769	0.286106	0.735540
	H367	H	1.477235	0.293866	0.739757
	H368	H	1.480275	0.279350	0.747170
	O369	O	0.288465	0.465608	0.743388
	H370	H	0.257436	0.459355	0.774135
	H371	H	0.294145	0.476706	0.728058
	O372	O	0.487241	0.707969	0.326131
	H373	H	0.502013	0.723486	0.309796
	H374	H	0.504480	0.700187	0.325177
	O375	O	0.042164	1.195127	1.231726
	H376	H	0.029495	1.198370	1.237133
	H377	H	0.049686	1.190093	1.232259
	O378	O	1.004183	-0.138951	0.048569
	H379	H	1.020000	-0.142055	0.048446
	H380	H	1.020764	-0.135472	0.050084
	O381	O	1.030364	-0.205804	-0.171556
	H382	H	1.033968	-0.217202	-0.192891
	H383	H	1.019738	-0.190136	-0.166081
	O384	O	-0.201242	0.021926	0.811466
	H385	H	-0.207364	0.042866	0.809103
	H386	H	-0.218484	0.031575	0.809540
	O387	O	-0.296792	1.302820	0.712451
	H388	H	-0.327821	1.311005	0.691738
	H389	H	-0.308541	1.330302	0.707610
	O390	O	0.226926	0.210197	1.060216
	H391	H	0.248710	0.220017	1.059458
	H392	H	0.227008	0.220045	1.079853
	O393	O	0.984186	1.198581	-0.177434
	H394	H	0.962070	1.206444	-0.188630
	H395	H	0.985687	1.191730	-0.181079
	O396	O	0.632874	0.502088	0.500560
	H397	H	0.646487	0.506385	0.488352
	H398	H	0.626665	0.526317	0.503457
	O399	O	-0.022407	-0.040232	0.188420
	H400	H	-0.034278	-0.039849	0.191728
	H401	H	-0.003788	-0.048668	0.182786
	O402	O	-0.191812	-0.086056	0.962386
	H403	H	-0.199121	-0.103894	0.958668
	H404	H	-0.187618	-0.089088	0.942581
	O405	O	0.220698	-0.214830	0.001559
	H406	H	0.235682	-0.215718	-0.005511
	H407	H	0.224491	-0.225016	-0.003820
	O408	O	0.719687	0.472135	0.304711
	H409	H	0.746596	0.465044	0.283761
	H410	H	0.721296	0.445767	0.308597
	O411	O	0.721262	0.652881	0.548289
	H412	H	0.712535	0.642424	0.538433
	H413	H	0.740111	0.666273	0.565018
	O414	O	0.718008	0.285805	0.314527
	H415	H	0.751926	0.251312	0.286535
	H416	H	0.723042	0.288173	0.358243
	O417	O	0.707071	0.354690	0.498984
	H418	H	0.713605	0.350318	0.491151
	H419	H	0.716716	0.358580	0.513751
	O420	O	0.516103	0.485136	0.582803
	H421	H	0.496647	0.480681	0.593454
	H422	H	0.524489	0.494441	0.564401
	O423	O	-0.175596	1.179216	0.213112
	H424	H	-0.160175	1.169100	0.181400
	H425	H	-0.153559	1.148691	0.212234
	O426	O	0.284267	1.552193	0.589642
	H427	H	0.289587	1.562262	0.581119
	H428	H	0.280505	1.537355	0.591702
	O429	O	-0.064418	0.895696	-0.079155
	H430	H	-0.053198	0.903338	-0.067613
	H431	H	-0.084479	0.908708	-0.080913
	O432	O	0.421650	0.286227	0.430780
	H433	H	0.432725	0.284727	0.446002
	H434	H	0.409464	0.273856	0.418743
	O435	O	0.014063	0.152957	0.068881
	H436	H	0.017846	0.165298	0.061894
	H437	H	0.010501	0.154959	0.055422
	O438	O	1.208358	-0.020564	-0.178187
	H439	H	1.215135	-0.032190	-0.191546
	H440	H	1.194828	-0.015892	-0.169895
	O441	O	0.539147	0.675549	0.500179
	H442	H	0.525084	0.674446	0.498210
	H443	H	0.544445	0.676967	0.514755
	O444	O	-0.202718	1.206645	0.992286
	H445	H	-0.219054	1.216317	0.987257
	H446	H	-0.200004	1.212061	0.993821
	O447	O	0.524247	0.701549	-0.272098
	H448	H	0.510448	0.700539	-0.269776
	H449	H	0.518456	0.717402	-0.280082
	O450	O	0.318504	0.299845	0.721572
	H451	H	0.334814	0.309760	0.713452
	H452	H	0.291728	0.296322	0.748143
	O453	O	0.288736	0.708684	0.503009
	H454	H	0.255928	0.730745	0.497647
	H455	H	0.289944	0.692572	0.483064
	O456	O	0.727838	0.552279	-0.257066
	H457	H	0.720001	0.592120	-0.272280
	H458	H	0.761793	0.560353	-0.229115
	O459	O	0.471419	0.450816	0.323422
	H460	H	0.472035	0.438023	0.328415
	H461	H	0.466899	0.444986	0.326198
	O462	O	0.693481	0.654321	0.403881
	H463	H	0.684053	0.641436	0.406593
	H464	H	0.692204	0.640850	0.414694
	O465	O	0.809176	0.005731	0.176324
	H466	H	0.805241	-0.001363	0.170037
	H467	H	0.799626	-0.009913	0.168954
