data_Molecule from HDF5

_cell_length_a		16.576078
_cell_length_b		16.528807
_cell_length_c		16.667292
_cell_angle_alpha	89.967417
_cell_angle_beta	89.881133
_cell_angle_gamma	90.094857
_symmetry_space_group_name_H-M	'P 1'
_symmetry_Int_Tables_number		1

loop_
	_symmetry_equiv_pos_as_xyz
	x,y,z

loop_
	_atom_site_label
	_atom_site_type_symbol
	_atom_site_fract_x
	_atom_site_fract_y
	_atom_site_fract_z
	H0	H	0.393694	0.820557	0.700842
	H1	H	0.601204	0.135039	0.704857
	H2	H	0.601381	0.823227	0.260266
	H3	H	0.385329	0.133046	0.258570
	H4	H	0.714279	0.375329	0.828275
	H5	H	0.717096	0.587368	0.138970
	H6	H	0.270848	0.585283	0.829887
	H7	H	0.273701	0.376238	0.141297
	H8	H	0.837655	0.697990	0.382058
	H9	H	0.153628	0.695751	0.584783
	H10	H	0.839621	0.254456	0.590121
	H11	H	0.152702	0.259482	0.380102
	H12	H	0.839227	0.371190	0.706205
	H13	H	0.151887	0.581410	0.703306
	H14	H	0.839909	0.587282	0.261295
	H15	H	0.150959	0.373650	0.261376
	H16	H	0.389355	0.700331	0.829188
	H17	H	0.598572	0.700595	0.140432
	H18	H	0.597272	0.259016	0.827959
	H19	H	0.388300	0.257669	0.140283
	H20	H	0.714966	0.821658	0.377997
	H21	H	0.717801	0.134269	0.589862
	H22	H	0.278692	0.820209	0.583089
	H23	H	0.271477	0.134175	0.376490
	H24	H	0.883953	0.325495	0.210057
	H25	H	0.101579	0.634543	0.208454
	H26	H	0.102931	0.323728	0.760160
	H27	H	0.889148	0.635604	0.763338
	H28	H	0.216130	0.874310	0.327488
	H29	H	0.217214	0.083889	0.639343
	H30	H	0.772215	0.084593	0.329745
	H31	H	0.771473	0.870995	0.637519
	H32	H	0.336260	0.197224	0.881183
	H33	H	0.647803	0.202730	0.092009
	H34	H	0.336200	0.757740	0.088861
	H35	H	0.649691	0.757021	0.879053
	H36	H	0.337535	0.871575	0.206751
	H37	H	0.645729	0.090039	0.209583
	H38	H	0.336377	0.081845	0.764150
	H39	H	0.649132	0.871181	0.761386
	H40	H	0.890064	0.199866	0.329014
	H41	H	0.102016	0.202032	0.638543
	H42	H	0.099881	0.756829	0.328003
	H43	H	0.893249	0.759776	0.640430
	H44	H	0.215932	0.322548	0.878271
	H45	H	0.216477	0.635269	0.091192
	H46	H	0.768091	0.325351	0.094294
	H47	H	0.774627	0.636506	0.880503
	H48	H	0.404194	0.094342	0.578498
	H49	H	0.579044	0.864302	0.581048
	H50	H	0.577111	0.088235	0.396073
	H51	H	0.410106	0.870483	0.399147
	H52	H	0.584477	0.393906	0.095433
	H53	H	0.581255	0.571459	0.872181
	H54	H	0.405807	0.564813	0.094513
	H55	H	0.408850	0.392786	0.876267
	H56	H	0.103382	0.564826	0.401873
	H57	H	0.883049	0.569514	0.573631
	H58	H	0.105511	0.388918	0.571172
	H59	H	0.885599	0.389518	0.402469
	H60	H	0.105016	0.393119	0.572516
	H61	H	0.881324	0.567283	0.578542
	H62	H	0.105326	0.560537	0.391877
	H63	H	0.885877	0.395799	0.394744
	H64	H	0.405519	0.571311	0.096383
	H65	H	0.587843	0.567171	0.872465
	H66	H	0.578484	0.391897	0.093766
	H67	H	0.404753	0.382098	0.870688
	H68	H	0.585462	0.088872	0.400944
	H69	H	0.577140	0.870907	0.566386
	H70	H	0.409400	0.090698	0.574035
	H71	H	0.402193	0.866082	0.397299
	H72	H	0.907443	0.593268	0.078729
	H73	H	0.082445	0.370343	0.066104
	H74	H	0.082345	0.590345	0.894452
	H75	H	0.903965	0.365823	0.892861
	H76	H	0.093516	0.887091	0.597526
	H77	H	0.090898	0.070487	0.369910
	H78	H	0.908403	0.069055	0.595620
	H79	H	0.907976	0.886966	0.371839
	H80	H	0.606328	0.074258	0.894435
	H81	H	0.384012	0.061517	0.069744
	H82	H	0.603392	0.890407	0.069094
	H83	H	0.382877	0.890461	0.893959
	H84	H	0.603514	0.894463	0.073410
	H85	H	0.380266	0.066067	0.075967
	H86	H	0.603250	0.064906	0.897406
	H87	H	0.380729	0.889599	0.890036
	H88	H	0.902988	0.063121	0.594785
	H89	H	0.085350	0.059267	0.376130
	H90	H	0.083992	0.894053	0.593143
	H91	H	0.903212	0.886497	0.369989
	H92	H	0.082495	0.590190	0.894240
	H93	H	0.084206	0.365787	0.075379
	H94	H	0.912617	0.587426	0.069496
	H95	H	0.907587	0.368121	0.896297
	H96	H	0.402048	0.092206	0.571667
	H97	H	0.591208	0.864297	0.571056
	H98	H	0.584335	0.092510	0.392420
	H99	H	0.408534	0.866104	0.390357
	H100	H	0.582747	0.387978	0.096129
	H101	H	0.581016	0.564411	0.875908
	H102	H	0.400084	0.567083	0.096732
	H103	H	0.397104	0.391858	0.871504
	H104	H	0.108118	0.571017	0.393711
	H105	H	0.880178	0.572117	0.577444
	H106	H	0.107824	0.390112	0.575271
	H107	H	0.881872	0.386454	0.393642
	H108	H	0.901033	0.591126	0.068766
	H109	H	0.074851	0.370113	0.073261
	H110	H	0.082389	0.590362	0.894326
	H111	H	0.902688	0.366568	0.898043
	H112	H	0.081994	0.881740	0.595594
	H113	H	0.077494	0.071346	0.374063
	H114	H	0.910455	0.062063	0.592316
	H115	H	0.904784	0.890749	0.372236
	H116	H	0.607949	0.065958	0.888071
	H117	H	0.381656	0.069650	0.068668
	H118	H	0.606127	0.889036	0.073867
	H119	H	0.380395	0.886817	0.893560
	C120	C	0.373669	-0.012186	0.605135
	C121	C	0.615674	0.969880	0.605035
	C122	C	0.615320	-0.013005	0.362593
	C123	C	0.373347	0.970189	0.362255
	C124	C	0.614743	0.358171	-0.007396
	C125	C	0.615107	0.600561	0.976316
	C126	C	0.372284	0.600036	-0.007084
	C127	C	0.371454	0.357102	0.976315
	C128	C	0.003073	0.599216	0.363462
	C129	C	0.986180	0.600192	0.606303
	C130	C	0.003362	0.357223	0.605524
	C131	C	0.987121	0.357766	0.363279
	C132	C	0.872409	0.488399	0.106449
	C133	C	0.114341	0.471230	0.105346
	C134	C	0.115263	0.487156	0.862436
	C135	C	0.873151	0.470487	0.863520
	C136	C	0.117637	0.856355	0.492151
	C137	C	0.117360	0.100158	0.475589
	C138	C	0.874716	0.098296	0.492202
	C139	C	0.873405	0.856138	0.474522
	C140	C	0.502007	0.099608	0.862500
	C141	C	0.484162	0.099721	0.105094
	C142	C	0.501217	0.858116	0.104806
	C143	C	0.484961	0.856992	0.861756
	C144	C	0.373827	0.868029	0.662016
	C145	C	0.619085	0.087763	0.665130
	C146	C	0.618777	0.870042	0.300997
	C147	C	0.368642	0.086963	0.299943
	C148	C	0.674582	0.356567	0.875192
	C149	C	0.676087	0.604407	0.092720
	C150	C	0.311696	0.603096	0.876156
	C151	C	0.312727	0.356434	0.093972
	C152	C	0.885158	0.659309	0.362365
	C153	C	0.105577	0.657571	0.605288
	C154	C	0.886459	0.295421	0.608465
	C155	C	0.105173	0.298434	0.360915
	C156	C	0.885977	0.353284	0.666202
	C157	C	0.104976	0.600525	0.663910
	C158	C	0.885984	0.603868	0.302634
	C159	C	0.104274	0.355245	0.301995
	C160	C	0.370405	0.660189	0.875752
	C161	C	0.617202	0.661040	0.093342
	C162	C	0.616060	0.299046	0.874776
	C163	C	0.370032	0.297778	0.093711
	C164	C	0.675456	0.869248	0.359540
	C165	C	0.677006	0.087390	0.607598
	C166	C	0.316892	0.868053	0.603758
	C167	C	0.312152	0.087483	0.358597
	C168	C	0.866748	0.372013	0.169232
	C169	C	0.119281	0.587892	0.167552
	C170	C	0.119715	0.370223	0.801255
	C171	C	0.871194	0.588464	0.803684
	C172	C	0.176673	0.855251	0.374464
	C173	C	0.177366	0.102704	0.592579
	C174	C	0.813532	0.101896	0.375862
	C175	C	0.812906	0.853704	0.591528
	C176	C	0.383530	0.157960	0.862028
	C177	C	0.600861	0.162212	0.109147
	C178	C	0.383513	0.797777	0.107028
	C179	C	0.602636	0.796845	0.860409
	C180	C	0.384093	0.854538	0.165703
	C181	C	0.600070	0.105582	0.167564
	C182	C	0.383756	0.100634	0.803792
	C183	C	0.602420	0.853648	0.801778
	C184	C	0.871925	0.159396	0.375580
	C185	C	0.120065	0.161229	0.592293
	C186	C	0.118884	0.796935	0.374640
	C187	C	0.873038	0.798079	0.592832
	C188	C	0.176085	0.369764	0.860013
	C189	C	0.176204	0.588354	0.109046
	C190	C	0.809327	0.371996	0.111358
	C191	C	0.813964	0.588943	0.861852
	C192	C	0.398048	0.070779	0.581610
	C193	C	0.590006	0.887856	0.579962
	C194	C	0.589518	0.068619	0.388770
	C195	C	0.399433	0.888738	0.388341
	C196	C	0.589240	0.383662	0.073872
	C197	C	0.590321	0.575019	0.894998
	C198	C	0.396799	0.575019	0.074507
	C199	C	0.396374	0.381780	0.894165
	C200	C	0.084416	0.572983	0.388651
	C201	C	0.903105	0.576478	0.583296
	C202	C	0.084984	0.383316	0.580188
	C203	C	0.905580	0.383554	0.389160
	C204	C	0.899518	0.569467	0.079820
	C205	C	0.087860	0.389975	0.079074
	C206	C	0.089670	0.569039	0.887375
	C207	C	0.897814	0.388166	0.888572
	C208	C	0.093502	0.880753	0.574087
	C209	C	0.091845	0.074299	0.394246
	C210	C	0.900182	0.072235	0.573204
	C211	C	0.898192	0.880881	0.392761
	C212	C	0.584527	0.075416	0.886396
	C213	C	0.402974	0.073054	0.078966
	C214	C	0.582956	0.884110	0.079376
	C215	C	0.402659	0.881835	0.885823
	Zn216	Zn	0.494446	-0.021359	0.733620
	Zn217	Zn	0.493599	-0.021406	0.234209
	Zn218	Zn	0.744376	0.479762	-0.015191
	Zn219	Zn	0.242761	0.478854	-0.015330
	Zn220	Zn	-0.004469	0.727691	0.483762
	Zn221	Zn	-0.004329	0.228535	0.484008
	Zn222	Zn	-0.005530	0.478367	0.734255
	Zn223	Zn	-0.005906	0.479114	0.234574
	Zn224	Zn	0.493560	0.729175	-0.015600
	Zn225	Zn	0.493107	0.228413	-0.015832
	Zn226	Zn	0.744369	-0.022162	0.483583
	Zn227	Zn	0.245939	-0.021067	0.483627
	N228	N	0.408199	0.943728	0.663263
	N229	N	0.581681	0.013574	0.663840
	N230	N	0.582116	0.944549	0.302383
	N231	N	0.406147	0.013200	0.302432
	N232	N	0.674416	0.392101	0.949652
	N233	N	0.675030	0.567558	0.018905
	N234	N	0.312605	0.566315	0.950010
	N235	N	0.313370	0.392479	0.019812
	N236	N	0.958970	0.656485	0.399553
	N237	N	0.030523	0.657773	0.570443
	N238	N	0.960494	0.297531	0.571691
	N239	N	0.031219	0.299757	0.398274
	N240	N	0.959873	0.391057	0.664631
	N241	N	0.029601	0.565980	0.664945
	N242	N	0.960179	0.567043	0.303182
	N243	N	0.029623	0.391087	0.303041
	N244	N	0.407048	0.658595	0.949299
	N245	N	0.580071	0.659059	0.019845
	N246	N	0.579928	0.299272	0.949066
	N247	N	0.405610	0.298032	0.019223
	N248	N	0.673721	0.943128	0.396892
	N249	N	0.675055	0.013015	0.570900
	N250	N	0.316391	0.943634	0.569441
	N251	N	0.314943	0.013824	0.396728
	N252	N	0.905474	0.445352	0.166254
	N253	N	0.081416	0.514035	0.165362
	N254	N	0.082541	0.444230	0.802668
	N255	N	0.907335	0.513697	0.804404
	N256	N	0.176341	0.891174	0.448586
	N257	N	0.175679	0.065272	0.518960
	N258	N	0.815278	0.064321	0.449257
	N259	N	0.812903	0.888998	0.516949
	N260	N	0.457954	0.157370	0.898030
	N261	N	0.527689	0.158806	0.070854
	N262	N	0.457514	0.799862	0.069917
	N263	N	0.528406	0.798659	0.897018
	N264	N	0.458571	0.891075	0.164837
	N265	N	0.526684	0.067181	0.165142
	N266	N	0.458683	0.065244	0.803575
	N267	N	0.528257	0.890353	0.802385
	N268	N	0.909474	0.157277	0.448965
	N269	N	0.083823	0.159884	0.518407
	N270	N	0.082928	0.797330	0.448815
	N271	N	0.909977	0.799428	0.519087
	N272	N	0.173752	0.443625	0.897390
	N273	N	0.173195	0.514782	0.071044
	N274	N	0.812484	0.445442	0.073045
	N275	N	0.815006	0.514483	0.898415
	O276	O	0.687200	0.611604	-0.643351
	H277	H	0.655244	0.603378	-0.644650
	H278	H	0.685978	0.591102	-0.633359
	O279	O	0.381555	0.441836	0.423111
	H280	H	0.385285	0.444176	0.434183
	H281	H	0.393773	0.464296	0.430618
	O282	O	0.188374	0.953663	1.179373
	H283	H	0.193053	0.934263	1.176047
	H284	H	0.185968	0.956268	1.172726
	O285	O	1.026361	0.050753	1.053931
	H286	H	1.026163	0.054995	1.053881
	H287	H	1.016335	0.047414	1.059138
	O288	O	0.047058	1.092864	0.929321
	H289	H	0.033868	1.091259	0.932218
	H290	H	0.054463	1.095849	0.943582
	O291	O	0.710813	0.515486	0.702408
	H292	H	0.726757	0.527225	0.710938
	H293	H	0.719987	0.531077	0.707281
	O294	O	1.148010	-0.067254	0.931528
	H295	H	1.167767	-0.079308	0.929510
	H296	H	1.123268	-0.070510	0.926827
	O297	O	0.637755	0.680938	0.525536
	H298	H	0.644513	0.689020	0.524630
	H299	H	0.652696	0.687574	0.523416
	O300	O	-0.068487	-0.084006	0.790890
	H301	H	-0.092190	-0.072486	0.791367
	H302	H	-0.073140	-0.080650	0.799933
	O303	O	0.281293	0.385716	0.542443
	H304	H	0.291124	0.380747	0.556428
	H305	H	0.286162	0.386142	0.565989
	O306	O	0.968914	0.769048	0.191421
	H307	H	0.973425	0.775007	0.197837
	H308	H	0.978093	0.758590	0.186850
	O309	O	0.288960	0.504792	0.391504
	H310	H	0.287921	0.496819	0.385617
	H311	H	0.288525	0.492656	0.392218
	O312	O	1.032386	0.754093	0.761855
	H313	H	1.039929	0.761125	0.748269
	H314	H	1.038920	0.736412	0.739118
	O315	O	0.785473	0.180941	0.192068
	H316	H	0.781680	0.163758	0.179306
	H317	H	0.770671	0.193713	0.218962
	O318	O	0.581884	0.538762	0.475861
	H319	H	0.590447	0.549702	0.480458
	H320	H	0.579137	0.548257	0.469767
	O321	O	-0.235597	0.940850	0.970058
	H322	H	-0.231372	0.936071	0.973542
	H323	H	-0.235648	0.938422	0.979185
	O324	O	1.389954	1.368194	0.425948
	H325	H	1.398065	1.378751	0.434625
	H326	H	1.408201	1.378542	0.429426
	O327	O	0.215739	0.190587	1.004938
	H328	H	0.206680	0.176051	1.050382
	H329	H	0.250126	0.223325	1.010618
	O330	O	0.459339	0.678998	0.498481
	H331	H	0.481127	0.679222	0.506996
	H332	H	0.445259	0.681388	0.504774
	O333	O	0.474099	0.439233	0.652036
	H334	H	0.477941	0.420055	0.653929
	H335	H	0.499855	0.443597	0.670104
	O336	O	1.087724	-0.055859	0.216919
	H337	H	1.084230	-0.040522	0.222403
	H338	H	1.085649	-0.054337	0.222307
	O339	O	1.680703	0.284939	0.286905
	H340	H	1.685782	0.282532	0.308297
	H341	H	1.645223	0.299421	0.280693
	O342	O	0.574267	0.368413	0.393785
	H343	H	0.587218	0.384890	0.391595
	H344	H	0.572032	0.377436	0.415104
	O345	O	0.563902	1.510142	1.425727
	H346	H	0.565994	1.507076	1.421556
	H347	H	0.570044	1.513211	1.423909
	O348	O	0.665402	0.312796	0.655541
	H349	H	0.664682	0.333710	0.653056
	H350	H	0.681876	0.307281	0.674744
	O351	O	0.201633	0.768740	0.779434
	H352	H	0.224213	0.763857	0.771060
	H353	H	0.181906	0.797309	0.770489
	O354	O	-0.054413	-0.100033	1.081461
	H355	H	-0.056117	-0.093700	1.070164
	H356	H	-0.043976	-0.116733	1.101538
	O357	O	0.701812	0.551204	0.353308
	H358	H	0.705930	0.553279	0.342879
	H359	H	0.706753	0.524243	0.345165
	O360	O	0.619286	0.435264	0.637060
	H361	H	0.604103	0.454110	0.635908
	H362	H	0.643919	0.437874	0.635840
	O363	O	-0.300039	-0.313682	-0.303198
	H364	H	-0.311937	-0.305318	-0.339170
	H365	H	-0.273510	-0.302096	-0.280895
	O366	O	0.292899	0.680410	0.278153
	H367	H	0.273355	0.694856	0.287190
	H368	H	0.285346	0.638240	0.280137
	O369	O	0.955837	0.072556	0.174997
	H370	H	0.955346	0.081517	0.174310
	H371	H	0.962174	0.084371	0.164821
	O372	O	1.208119	0.761919	-0.048760
	H373	H	1.209152	0.769107	-0.071091
	H374	H	1.226119	0.739642	-0.058208
	O375	O	0.810549	-0.202966	-0.206656
	H376	H	0.820947	-0.201276	-0.193230
	H377	H	0.811763	-0.170076	-0.192474
	O378	O	0.379456	0.368056	0.514078
	H379	H	0.387828	0.374128	0.548918
	H380	H	0.356726	0.355013	0.523368
	O381	O	-0.722495	0.456568	0.706425
	H382	H	-0.741605	0.434621	0.721767
	H383	H	-0.731050	0.440222	0.692013
	O384	O	0.988196	0.010687	0.826290
	H385	H	0.979694	-0.009372	0.827580
	H386	H	0.994833	0.003195	0.826554
	O387	O	0.773395	0.995354	-0.239514
	H388	H	0.770836	1.014815	-0.244879
	H389	H	0.761424	1.021454	-0.252606
	O390	O	0.516376	0.514704	0.327129
	H391	H	0.515476	0.517539	0.318485
	H392	H	0.509752	0.540027	0.337977
	O393	O	0.789331	0.186729	0.782619
	H394	H	0.822899	0.178123	0.788625
	H395	H	0.794551	0.188408	0.820467
	O396	O	-0.085084	1.036776	0.859451
	H397	H	-0.075084	1.027504	0.863650
	H398	H	-0.084796	1.047447	0.870736
	O399	O	0.004737	0.192329	1.018075
	H400	H	0.019314	0.191820	1.024294
	H401	H	-0.020685	0.186281	1.025297
	O402	O	0.973807	1.196366	-0.232336
	H403	H	0.973564	1.225539	-0.255119
	H404	H	0.990796	1.175994	-0.221631
	O405	O	1.141959	0.069976	0.931795
	H406	H	1.140606	0.063533	0.929954
	H407	H	1.141209	0.084967	0.941393
	O408	O	-0.064734	0.057670	-0.029472
	H409	H	-0.067822	0.040854	-0.029057
	H410	H	-0.062013	0.067488	-0.032401
	O411	O	0.945464	0.754646	0.914370
	H412	H	0.949353	0.749512	0.902065
	H413	H	0.941553	0.754813	0.908987
	O414	O	0.491323	0.263335	0.338918
	H415	H	0.480938	0.262571	0.328163
	H416	H	0.477076	0.258816	0.337537
	O417	O	0.795238	-0.183304	1.183806
	H418	H	0.780206	-0.195895	1.189768
	H419	H	0.818090	-0.170702	1.191422
	O420	O	-0.192673	0.974558	1.203596
	H421	H	-0.208554	0.971213	1.213421
	H422	H	-0.193240	0.955673	1.203772
	O423	O	0.192893	0.177361	1.181701
	H424	H	0.184766	0.150149	1.189789
	H425	H	0.194301	0.178861	1.196406
	O426	O	0.214320	0.935856	0.760010
	H427	H	0.222420	0.951647	0.759620
	H428	H	0.230543	0.937118	0.758376
	O429	O	0.580514	0.677727	1.384683
	H430	H	0.578179	0.684653	1.380820
	H431	H	0.561087	0.671224	1.378787
	O432	O	0.085956	0.851773	0.041880
	H433	H	0.076015	0.855934	0.038105
	H434	H	0.075645	0.848645	0.024360
	O435	O	-0.227354	1.201424	-0.048122
	H436	H	-0.227766	1.194814	-0.035065
	H437	H	-0.244877	1.222360	-0.036431
	O438	O	0.342552	0.271848	-0.304808
	H439	H	0.367851	0.271808	-0.307230
	H440	H	0.335004	0.247115	-0.288871
	O441	O	-0.019003	-0.247431	0.069033
	H442	H	0.005167	-0.254386	0.069407
	H443	H	-0.030240	-0.237243	0.065127
	O444	O	0.524337	0.688743	0.698689
	H445	H	0.535584	0.698828	0.715342
	H446	H	0.531509	0.681640	0.707364
	O447	O	-0.386798	1.376229	1.587988
	H448	H	-0.390306	1.371981	1.583583
	H449	H	-0.370828	1.357945	1.590454
	O450	O	0.460232	0.698272	1.258866
	H451	H	0.447880	0.723126	1.234138
	H452	H	0.427922	0.701804	1.262595
	O453	O	0.282044	0.680712	0.445436
	H454	H	0.266931	0.694187	0.435380
	H455	H	0.286670	0.684327	0.458958
	O456	O	0.226234	-0.076924	1.039547
	H457	H	0.215281	-0.091055	1.035219
	H458	H	0.229168	-0.085484	1.037150
	O459	O	1.144283	1.135161	-0.210500
	H460	H	1.136285	1.121345	-0.177981
	H461	H	1.122451	1.115567	-0.207104
	O462	O	0.444922	0.466797	0.716854
	H463	H	0.434676	0.460640	0.724216
	H464	H	0.442603	0.447345	0.706582
	O465	O	0.786023	0.065765	0.085677
	H466	H	0.780261	0.063437	0.095703
	H467	H	0.785672	0.064791	0.087533
	O468	O	0.397118	0.403008	0.281008
	H469	H	0.402559	0.387398	0.278831
	H470	H	0.386165	0.408508	0.272451
	O471	O	-0.223873	0.766758	0.009501
	H472	H	-0.238507	0.756050	0.025099
	H473	H	-0.224845	0.756475	0.024943
	O474	O	0.310986	0.665097	0.671174
	H475	H	0.319980	0.639695	0.673625
	H476	H	0.319500	0.661919	0.672283
	O477	O	0.555423	0.394432	1.378756
	H478	H	0.552907	0.406574	1.385653
	H479	H	0.538985	0.399008	1.370954
	O480	O	0.374299	0.391696	0.436662
	H481	H	0.368140	0.391632	0.441012
	H482	H	0.379510	0.380458	0.459863
	O483	O	0.703961	0.266026	0.453494
	H484	H	0.716484	0.252357	0.465807
	H485	H	0.689687	0.263907	0.460543
	O486	O	0.390911	0.266187	1.472026
	H487	H	0.400991	0.272239	1.481507
	H488	H	0.372316	0.268205	1.478044
	O489	O	1.026343	1.203353	0.203903
	H490	H	1.033182	1.218450	0.221839
	H491	H	1.026239	1.210405	0.206384
