data_Molecule from HDF5

_cell_length_a		16.216709
_cell_length_b		16.262449
_cell_length_c		16.284378
_cell_angle_alpha	89.910098
_cell_angle_beta	89.912264
_cell_angle_gamma	89.835152
_symmetry_space_group_name_H-M	'P 1'
_symmetry_Int_Tables_number		1

loop_
	_symmetry_equiv_pos_as_xyz
	x,y,z

loop_
	_atom_site_label
	_atom_site_type_symbol
	_atom_site_fract_x
	_atom_site_fract_y
	_atom_site_fract_z
	H0	H	0.413484	0.827377	0.716084
	H1	H	0.609809	0.155323	0.716051
	H2	H	0.610637	0.827729	0.286993
	H3	H	0.411596	0.155364	0.287191
	H4	H	0.724764	0.392627	0.837356
	H5	H	0.722915	0.588789	0.164545
	H6	H	0.296211	0.589653	0.835807
	H7	H	0.295836	0.394644	0.164534
	H8	H	0.846385	0.707126	0.401375
	H9	H	0.174058	0.704152	0.598201
	H10	H	0.845219	0.277069	0.599126
	H11	H	0.173803	0.277093	0.400795
	H12	H	0.845505	0.391984	0.715606
	H13	H	0.173531	0.589507	0.714140
	H14	H	0.845094	0.590663	0.287238
	H15	H	0.173064	0.391760	0.284208
	H16	H	0.409833	0.707740	0.836908
	H17	H	0.607392	0.704695	0.164491
	H18	H	0.609645	0.275904	0.837955
	H19	H	0.411452	0.277963	0.165093
	H20	H	0.724174	0.827170	0.405331
	H21	H	0.724946	0.156311	0.599046
	H22	H	0.296466	0.827173	0.601085
	H23	H	0.296619	0.155226	0.404184
	H24	H	0.911264	0.328354	0.215213
	H25	H	0.108639	0.655091	0.214762
	H26	H	0.109681	0.328245	0.784328
	H27	H	0.908931	0.654973	0.784459
	H28	H	0.225938	0.893280	0.337248
	H29	H	0.223943	0.089184	0.665498
	H30	H	0.796729	0.089952	0.337058
	H31	H	0.797462	0.893992	0.664269
	H32	H	0.346228	0.206879	0.901942
	H33	H	0.673834	0.204279	0.100762
	H34	H	0.345116	0.778778	0.098878
	H35	H	0.674255	0.775427	0.901551
	H36	H	0.346695	0.892377	0.216270
	H37	H	0.674835	0.088007	0.213867
	H38	H	0.346638	0.091442	0.785935
	H39	H	0.675065	0.891832	0.786958
	H40	H	0.910879	0.206333	0.337233
	H41	H	0.110240	0.208258	0.663672
	H42	H	0.109868	0.777431	0.336623
	H43	H	0.911501	0.776694	0.664192
	H44	H	0.225346	0.327594	0.900530
	H45	H	0.222670	0.656000	0.097242
	H46	H	0.797695	0.327182	0.098424
	H47	H	0.793529	0.654973	0.901223
	H48	H	0.420578	0.106008	0.592184
	H49	H	0.611733	0.873727	0.591589
	H50	H	0.601527	0.106737	0.410255
	H51	H	0.415834	0.872723	0.405249
	H52	H	0.603705	0.388071	0.120682
	H53	H	0.598974	0.579852	0.885780
	H54	H	0.422811	0.585827	0.115375
	H55	H	0.406716	0.402626	0.882149
	H56	H	0.124774	0.580538	0.409656
	H57	H	0.892376	0.579128	0.596897
	H58	H	0.125868	0.397933	0.590325
	H59	H	0.891577	0.390070	0.412898
	H60	H	0.124824	0.401975	0.591640
	H61	H	0.890476	0.590380	0.594916
	H62	H	0.128055	0.582770	0.401649
	H63	H	0.896009	0.407988	0.411183
	H64	H	0.411584	0.591190	0.120067
	H65	H	0.599203	0.587851	0.883333
	H66	H	0.611538	0.402119	0.118836
	H67	H	0.426675	0.405243	0.889897
	H68	H	0.609560	0.110166	0.406548
	H69	H	0.603554	0.873319	0.602088
	H70	H	0.415628	0.108102	0.592283
	H71	H	0.424228	0.875260	0.407216
	H72	H	0.912879	0.612467	0.102108
	H73	H	0.103948	0.374841	0.090362
	H74	H	0.097989	0.604934	0.911718
	H75	H	0.924737	0.376013	0.904490
	H76	H	0.101544	0.894359	0.617545
	H77	H	0.105079	0.077364	0.386368
	H78	H	0.919089	0.072771	0.613224
	H79	H	0.915263	0.905444	0.385250
	H80	H	0.624995	0.074638	0.906299
	H81	H	0.389343	0.087939	0.101700
	H82	H	0.625012	0.896725	0.084558
	H83	H	0.388750	0.897494	0.895811
	H84	H	0.626121	0.905234	0.098846
	H85	H	0.393700	0.089165	0.086204
	H86	H	0.630446	0.088970	0.900997
	H87	H	0.394129	0.889932	0.918868
	H88	H	0.928564	0.092164	0.616107
	H89	H	0.096715	0.087376	0.386030
	H90	H	0.106420	0.896888	0.618224
	H91	H	0.925044	0.896263	0.385142
	H92	H	0.108850	0.609527	0.907712
	H93	H	0.102577	0.374486	0.094122
	H94	H	0.924672	0.605838	0.091406
	H95	H	0.916769	0.377669	0.914721
	H96	H	0.418828	0.108498	0.597411
	H97	H	0.599437	0.877871	0.590579
	H98	H	0.601659	0.109574	0.401665
	H99	H	0.417624	0.875518	0.413592
	H100	H	0.595853	0.401660	0.114325
	H101	H	0.606527	0.582970	0.883377
	H102	H	0.412492	0.578499	0.115232
	H103	H	0.420651	0.386954	0.881553
	H104	H	0.128047	0.588474	0.407183
	H105	H	0.895144	0.583732	0.585493
	H106	H	0.126494	0.399261	0.594139
	H107	H	0.888712	0.398543	0.396742
	H108	H	0.908470	0.608957	0.086183
	H109	H	0.099907	0.376136	0.092029
	H110	H	0.098978	0.609856	0.899953
	H111	H	0.912210	0.371932	0.903605
	H112	H	0.102267	0.899574	0.616153
	H113	H	0.109436	0.088904	0.381239
	H114	H	0.907670	0.089520	0.622351
	H115	H	0.913374	0.893204	0.380709
	H116	H	0.625658	0.086951	0.917283
	H117	H	0.395225	0.075131	0.094073
	H118	H	0.630962	0.889852	0.098559
	H119	H	0.399018	0.913111	0.911583
	C120	C	0.389211	-0.000459	0.623541
	C121	C	0.633134	0.983482	0.622983
	C122	C	0.632695	0.000032	0.379048
	C123	C	0.390085	0.982837	0.380164
	C124	C	0.632248	0.369018	0.009682
	C125	C	0.630461	0.611892	0.992341
	C126	C	0.387346	0.613470	0.008565
	C127	C	0.388647	0.369917	0.992565
	C128	C	0.018521	0.613273	0.377874
	C129	C	1.001029	0.612939	0.621306
	C130	C	0.017442	0.370494	0.621287
	C131	C	1.000858	0.370032	0.378270
	C132	C	0.887815	0.500275	0.121767
	C133	C	0.130742	0.483390	0.121123
	C134	C	0.131427	0.499997	0.878008
	C135	C	0.887956	0.482903	0.878304
	C136	C	0.132749	0.868928	0.509124
	C137	C	0.132407	0.113425	0.492668
	C138	C	0.889060	0.113434	0.509302
	C139	C	0.889487	0.869968	0.491868
	C140	C	0.518792	0.113207	0.879304
	C141	C	0.501533	0.112302	0.122511
	C142	C	0.518544	0.869279	0.122741
	C143	C	0.502416	0.870529	0.879692
	C144	C	0.392236	0.876370	0.678689
	C145	C	0.630085	0.106718	0.677765
	C146	C	0.630209	0.876478	0.324996
	C147	C	0.391503	0.106244	0.324980
	C148	C	0.686901	0.371757	0.886152
	C149	C	0.684907	0.608955	0.115769
	C150	C	0.333150	0.610909	0.885034
	C151	C	0.333317	0.373324	0.115657
	C152	C	0.894888	0.668635	0.381256
	C153	C	0.124878	0.666972	0.618675
	C154	C	0.894229	0.314861	0.619685
	C155	C	0.124689	0.314817	0.380346
	C156	C	0.894291	0.372030	0.677365
	C157	C	0.124518	0.609993	0.676462
	C158	C	0.894519	0.611218	0.324013
	C159	C	0.124309	0.372005	0.322690
	C160	C	0.389617	0.669605	0.885709
	C161	C	0.627394	0.666490	0.115787
	C162	C	0.629938	0.313661	0.886743
	C163	C	0.390833	0.315414	0.115961
	C164	C	0.686756	0.876217	0.383905
	C165	C	0.687296	0.107167	0.619931
	C166	C	0.334265	0.876239	0.621649
	C167	C	0.334313	0.106263	0.383051
	C168	C	0.891108	0.377209	0.176944
	C169	C	0.129009	0.606301	0.176902
	C170	C	0.129503	0.376873	0.822632
	C171	C	0.888853	0.606098	0.822540
	C172	C	0.187767	0.872594	0.386021
	C173	C	0.186810	0.110202	0.616199
	C174	C	0.834507	0.110413	0.385747
	C175	C	0.834900	0.872929	0.615355
	C176	C	0.395471	0.169060	0.881361
	C177	C	0.625046	0.166239	0.120100
	C178	C	0.394623	0.815772	0.119623
	C179	C	0.625356	0.813883	0.881402
	C180	C	0.395507	0.872053	0.178169
	C181	C	0.625262	0.108892	0.176970
	C182	C	0.395541	0.111661	0.823840
	C183	C	0.625887	0.871739	0.824466
	C184	C	0.891051	0.168475	0.385870
	C185	C	0.130465	0.169743	0.615209
	C186	C	0.130178	0.814944	0.385716
	C187	C	0.891668	0.814683	0.615132
	C188	C	0.187112	0.376629	0.880373
	C189	C	0.185337	0.606803	0.118237
	C190	C	0.834257	0.376546	0.119315
	C191	C	0.831907	0.606245	0.880843
	C192	C	0.411749	0.085306	0.600743
	C193	C	0.611357	0.897311	0.601187
	C194	C	0.610805	0.086491	0.399858
	C195	C	0.412560	0.896831	0.402246
	C196	C	0.610199	0.390908	0.095693
	C197	C	0.608314	0.590054	0.906459
	C198	C	0.408937	0.591369	0.094550
	C199	C	0.411383	0.391715	0.906725
	C200	C	0.104713	0.590642	0.399749
	C201	C	0.914867	0.591023	0.598942
	C202	C	0.103487	0.393021	0.598677
	C203	C	0.914629	0.392155	0.400546
	C204	C	0.909033	0.586796	0.099535
	C205	C	0.108725	0.397461	0.098742
	C206	C	0.108664	0.585674	0.900023
	C207	C	0.911082	0.397445	0.900956
	C208	C	0.110156	0.890645	0.595113
	C209	C	0.110321	0.091056	0.406823
	C210	C	0.911623	0.091330	0.595091
	C211	C	0.911525	0.891805	0.405960
	C212	C	0.604804	0.090161	0.901640
	C213	C	0.414967	0.090559	0.100373
	C214	C	0.605237	0.890711	0.100401
	C215	C	0.416253	0.893687	0.902009
	Zn216	Zn	0.511448	-0.008376	0.751345
	Zn217	Zn	0.510588	-0.008658	0.250419
	Zn218	Zn	0.759664	0.491261	0.000709
	Zn219	Zn	0.259566	0.491690	0.000062
	Zn220	Zn	0.010294	0.740653	0.499894
	Zn221	Zn	0.009750	0.241978	0.500097
	Zn222	Zn	0.009305	0.491558	0.749631
	Zn223	Zn	0.009178	0.492370	0.250018
	Zn224	Zn	0.509734	0.741311	0.000748
	Zn225	Zn	0.510140	0.240696	0.001438
	Zn226	Zn	0.761365	-0.007526	0.500840
	Zn227	Zn	0.261034	-0.009279	0.501291
	N228	N	0.425754	0.953982	0.679953
	N229	N	0.597077	0.028901	0.679738
	N230	N	0.597305	0.954491	0.321984
	N231	N	0.425327	0.028577	0.323056
	N232	N	0.688650	0.405370	0.963603
	N233	N	0.686581	0.575646	0.038093
	N234	N	0.331628	0.576848	0.962276
	N235	N	0.331830	0.406568	0.037941
	N236	N	0.973151	0.670299	0.413782
	N237	N	0.047100	0.668923	0.585180
	N238	N	0.971771	0.314015	0.585340
	N239	N	0.046948	0.313522	0.414326
	N240	N	0.972075	0.405645	0.678541
	N241	N	0.046485	0.577158	0.678216
	N242	N	0.972281	0.577276	0.322186
	N243	N	0.046401	0.405684	0.321218
	N244	N	0.422455	0.671554	0.963574
	N245	N	0.594360	0.668583	0.038044
	N246	N	0.596709	0.311908	0.964487
	N247	N	0.424561	0.313319	0.038514
	N248	N	0.688302	0.954036	0.416780
	N249	N	0.689459	0.029367	0.586726
	N250	N	0.332345	0.953814	0.587886
	N251	N	0.333409	0.028597	0.416779
	N252	N	0.923509	0.455260	0.178617
	N253	N	0.095626	0.528636	0.178700
	N254	N	0.095686	0.454519	0.820821
	N255	N	0.922945	0.528574	0.820846
	N256	N	0.189506	0.905316	0.463839
	N257	N	0.188121	0.075833	0.538963
	N258	N	0.832981	0.077072	0.463535
	N259	N	0.833455	0.906638	0.537939
	N260	N	0.473064	0.170023	0.915146
	N261	N	0.547081	0.168478	0.086972
	N262	N	0.472479	0.813910	0.085860
	N263	N	0.547394	0.812841	0.914916
	N264	N	0.473614	0.904666	0.179965
	N265	N	0.547280	0.075977	0.178515
	N266	N	0.473264	0.077497	0.822526
	N267	N	0.548342	0.906280	0.823449
	N268	N	0.924372	0.170367	0.463494
	N269	N	0.097475	0.171639	0.537606
	N270	N	0.096871	0.812373	0.463364
	N271	N	0.925027	0.812698	0.537304
	N272	N	0.188532	0.454170	0.913839
	N273	N	0.186708	0.529327	0.084490
	N274	N	0.832143	0.454217	0.085517
	N275	N	0.831124	0.528725	0.914721
	O276	O	1.045569	0.961158	-0.047074
	H277	H	1.041915	0.966927	-0.047691
	H278	H	1.051594	0.966675	-0.049105
	O279	O	0.010561	-0.028311	-0.069585
	H280	H	0.006478	-0.026025	-0.072586
	H281	H	0.005221	-0.030965	-0.074935
	O282	O	-0.007035	-0.008988	0.928331
	H283	H	-0.002624	-0.014992	0.925618
	H284	H	-0.017214	-0.010221	0.923401
	O285	O	-0.044645	1.000045	0.032608
	H286	H	-0.042264	1.007734	0.034450
	H287	H	-0.057250	0.997276	0.027436
	O288	O	0.423708	0.478870	0.569344
	H289	H	0.413810	0.486701	0.568080
	H290	H	0.420936	0.484122	0.578078
	O291	O	0.410561	0.460376	0.579932
	H292	H	0.396642	0.458930	0.580310
	H293	H	0.411838	0.458458	0.588944
	O294	O	-0.589801	0.555123	0.528259
	H295	H	-0.590776	0.553184	0.514952
	H296	H	-0.589217	0.563485	0.532054
	O297	O	0.463730	0.459742	0.545719
	H298	H	0.465779	0.454247	0.555484
	H299	H	0.450748	0.457060	0.554896
	O300	O	-0.015757	0.994071	0.957086
	H301	H	-0.005138	0.985265	0.948132
	H302	H	-0.008592	0.986981	0.959934
	O303	O	0.427128	0.507721	0.554510
	H304	H	0.432543	0.519600	0.544961
	H305	H	0.423837	0.512879	0.551107
	O306	O	0.423313	-0.497889	1.500080
	H307	H	0.426526	-0.506435	1.507401
	H308	H	0.426359	-0.500241	1.498464
	O309	O	0.972093	1.038674	0.942919
	H310	H	0.969261	1.044270	0.943313
	H311	H	0.969045	1.042981	0.949049
	O312	O	0.057453	0.979418	-0.088269
	H313	H	0.061733	0.975580	-0.091844
	H314	H	0.059541	0.975563	-0.091400
	O315	O	0.478654	0.549347	0.493834
	H316	H	0.476871	0.532987	0.486347
	H317	H	0.476701	0.547942	0.492000
	O318	O	0.038084	0.963713	-0.014080
	H319	H	0.039832	0.960596	-0.017332
	H320	H	0.040635	0.961191	-0.013428
	O321	O	1.027317	1.028736	-0.050453
	H322	H	1.035102	1.032840	-0.048097
	H323	H	1.024481	1.036399	-0.047730
