data_Molecule from HDF5

_cell_length_a		16.579954
_cell_length_b		16.432177
_cell_length_c		16.623057
_cell_angle_alpha	89.941799
_cell_angle_beta	89.834702
_cell_angle_gamma	90.107194
_symmetry_space_group_name_H-M	'P 1'
_symmetry_Int_Tables_number		1

loop_
	_symmetry_equiv_pos_as_xyz
	x,y,z

loop_
	_atom_site_label
	_atom_site_type_symbol
	_atom_site_fract_x
	_atom_site_fract_y
	_atom_site_fract_z
	H0	H	0.362913	0.840539	0.733812
	H1	H	0.570638	0.155873	0.728363
	H2	H	0.575232	0.840118	0.290433
	H3	H	0.365952	0.156627	0.289849
	H4	H	0.688454	0.396692	0.853138
	H5	H	0.695126	0.605551	0.165499
	H6	H	0.250335	0.602972	0.855812
	H7	H	0.247263	0.390377	0.168485
	H8	H	0.814956	0.720244	0.404863
	H9	H	0.128430	0.718878	0.613141
	H10	H	0.814286	0.279077	0.612772
	H11	H	0.129832	0.278574	0.407938
	H12	H	0.816482	0.392919	0.732830
	H13	H	0.127644	0.604931	0.732247
	H14	H	0.815118	0.603856	0.288261
	H15	H	0.127037	0.389420	0.286099
	H16	H	0.368037	0.717976	0.854812
	H17	H	0.578281	0.721116	0.166507
	H18	H	0.567447	0.283471	0.851432
	H19	H	0.365757	0.276241	0.169427
	H20	H	0.689958	0.840006	0.406879
	H21	H	0.686372	0.156888	0.611166
	H22	H	0.247977	0.841544	0.616921
	H23	H	0.252408	0.157417	0.408085
	H24	H	0.863403	0.339992	0.233346
	H25	H	0.077058	0.655204	0.233325
	H26	H	0.076947	0.341889	0.789708
	H27	H	0.865489	0.655558	0.789449
	H28	H	0.199514	0.886621	0.357470
	H29	H	0.193040	0.103828	0.665049
	H30	H	0.748338	0.104429	0.355207
	H31	H	0.747753	0.891501	0.665895
	H32	H	0.311790	0.214523	0.910201
	H33	H	0.628499	0.217069	0.113430
	H34	H	0.315364	0.771633	0.120177
	H35	H	0.626949	0.776994	0.906901
	H36	H	0.316818	0.886258	0.237822
	H37	H	0.626930	0.104355	0.233411
	H38	H	0.313959	0.101701	0.790366
	H39	H	0.625581	0.890131	0.787637
	H40	H	0.866428	0.219910	0.354156
	H41	H	0.073218	0.216218	0.667281
	H42	H	0.080398	0.772929	0.355450
	H43	H	0.866589	0.777347	0.666838
	H44	H	0.190187	0.340603	0.907622
	H45	H	0.194319	0.654983	0.118609
	H46	H	0.749981	0.339442	0.115468
	H47	H	0.751575	0.655277	0.907110
	H48	H	0.388267	0.109700	0.602169
	H49	H	0.558355	0.883208	0.601093
	H50	H	0.556953	0.111348	0.418338
	H51	H	0.378005	0.886475	0.430043
	H52	H	0.565950	0.408976	0.124556
	H53	H	0.554398	0.590684	0.900154
	H54	H	0.381393	0.583583	0.123618
	H55	H	0.377246	0.407061	0.899053
	H56	H	0.082634	0.586085	0.422694
	H57	H	0.860488	0.586398	0.599122
	H58	H	0.082446	0.413991	0.599100
	H59	H	0.858669	0.406441	0.419367
	H60	H	0.087255	0.407937	0.607550
	H61	H	0.859339	0.583552	0.601728
	H62	H	0.081017	0.583951	0.423157
	H63	H	0.860987	0.408111	0.425647
	H64	H	0.384314	0.581545	0.121834
	H65	H	0.567904	0.589284	0.896740
	H66	H	0.557783	0.410130	0.121094
	H67	H	0.380435	0.407415	0.900935
	H68	H	0.558122	0.109149	0.425790
	H69	H	0.559959	0.883163	0.599635
	H70	H	0.381262	0.109424	0.594840
	H71	H	0.384010	0.884168	0.416292
	H72	H	0.886232	0.610684	0.104872
	H73	H	0.065636	0.384027	0.099714
	H74	H	0.061401	0.611480	0.924065
	H75	H	0.884670	0.387405	0.925891
	H76	H	0.057689	0.910690	0.620331
	H77	H	0.058566	0.083605	0.399546
	H78	H	0.879688	0.092012	0.624502
	H79	H	0.879995	0.912623	0.399326
	H80	H	0.583410	0.088729	0.920072
	H81	H	0.358967	0.089983	0.098482
	H82	H	0.579886	0.912455	0.098485
	H83	H	0.358622	0.913065	0.918408
	H84	H	0.581985	0.911334	0.101668
	H85	H	0.360524	0.080899	0.100508
	H86	H	0.583620	0.087686	0.916757
	H87	H	0.356613	0.903269	0.922400
	H88	H	0.874042	0.086932	0.623778
	H89	H	0.060029	0.089696	0.397107
	H90	H	0.059512	0.911424	0.620134
	H91	H	0.882976	0.909420	0.399672
	H92	H	0.061352	0.612886	0.921710
	H93	H	0.053369	0.384760	0.105407
	H94	H	0.886913	0.606841	0.095060
	H95	H	0.875190	0.381875	0.920962
	H96	H	0.378774	0.112957	0.604283
	H97	H	0.559928	0.882715	0.601731
	H98	H	0.563401	0.113189	0.421365
	H99	H	0.392469	0.890457	0.427183
	H100	H	0.560118	0.402119	0.124804
	H101	H	0.560931	0.578287	0.902129
	H102	H	0.384965	0.586053	0.121851
	H103	H	0.379627	0.404575	0.899823
	H104	H	0.082006	0.583695	0.420842
	H105	H	0.858902	0.587627	0.601966
	H106	H	0.085621	0.402583	0.597238
	H107	H	0.860911	0.413056	0.420778
	H108	H	0.877534	0.610675	0.098961
	H109	H	0.055288	0.388839	0.092571
	H110	H	0.059111	0.611377	0.922290
	H111	H	0.884953	0.383445	0.914820
	H112	H	0.057501	0.911884	0.620002
	H113	H	0.064192	0.084999	0.397608
	H114	H	0.881603	0.085502	0.620411
	H115	H	0.878871	0.908334	0.397883
	H116	H	0.584551	0.091081	0.917707
	H117	H	0.356767	0.086106	0.106699
	H118	H	0.581072	0.908816	0.098932
	H119	H	0.361142	0.911129	0.928262
	C120	C	0.349635	0.006618	0.632386
	C121	C	0.590553	0.988215	0.631877
	C122	C	0.591621	0.006715	0.389877
	C123	C	0.351267	0.990507	0.391155
	C124	C	0.591295	0.376591	0.019232
	C125	C	0.593715	0.619467	1.002455
	C126	C	0.350874	0.617319	0.019733
	C127	C	0.347859	0.374760	1.003856
	C128	C	-0.020874	0.618424	0.389467
	C129	C	0.963122	0.618722	0.631895
	C130	C	-0.019081	0.376436	0.632869
	C131	C	0.963459	0.376045	0.389180
	C132	C	0.849872	0.505625	0.132394
	C133	C	0.091897	0.489663	0.132513
	C134	C	0.092027	0.507623	0.890754
	C135	C	0.850518	0.489234	0.889359
	C136	C	0.093021	0.876441	0.518489
	C137	C	0.091993	0.118215	0.501671
	C138	C	0.847840	0.120341	0.519354
	C139	C	0.848694	0.876934	0.502154
	C140	C	0.479109	0.119164	0.888947
	C141	C	0.462405	0.118638	0.132846
	C142	C	0.478642	0.875898	0.133447
	C143	C	0.462058	0.876607	0.890514
	C144	C	0.345776	0.887788	0.692875
	C145	C	0.590186	0.108454	0.689368
	C146	C	0.593835	0.887763	0.330229
	C147	C	0.348471	0.109360	0.330515
	C148	C	0.648537	0.377415	0.900205
	C149	C	0.654608	0.623160	0.119201
	C150	C	0.290366	0.620878	0.902475
	C151	C	0.287789	0.372405	0.121432
	C152	C	0.861936	0.680047	0.386402
	C153	C	0.081171	0.679134	0.632379
	C154	C	0.862010	0.318047	0.632932
	C155	C	0.081916	0.316972	0.388107
	C156	C	0.862839	0.374548	0.692352
	C157	C	0.080940	0.622679	0.691720
	C158	C	0.861764	0.621857	0.328778
	C159	C	0.080651	0.372273	0.327603
	C160	C	0.349127	0.677916	0.902005
	C161	C	0.596340	0.680548	0.119660
	C162	C	0.588891	0.320881	0.899531
	C163	C	0.347041	0.315530	0.121999
	C164	C	0.650695	0.887396	0.388299
	C165	C	0.647630	0.108844	0.631251
	C166	C	0.288583	0.888133	0.634937
	C167	C	0.291873	0.109843	0.389097
	C168	C	0.845856	0.387471	0.193181
	C169	C	0.095459	0.607886	0.193503
	C170	C	0.094788	0.389236	0.830104
	C171	C	0.847940	0.607978	0.829786
	C172	C	0.157286	0.870340	0.403190
	C173	C	0.152214	0.121409	0.618850
	C174	C	0.788201	0.122894	0.401948
	C175	C	0.788419	0.873630	0.619285
	C176	C	0.359658	0.176135	0.890247
	C177	C	0.581009	0.178097	0.133159
	C178	C	0.362664	0.812369	0.137850
	C179	C	0.579973	0.816381	0.887936
	C180	C	0.362935	0.869662	0.196411
	C181	C	0.580180	0.121952	0.192612
	C182	C	0.360742	0.120126	0.830616
	C183	C	0.578940	0.872877	0.828923
	C184	C	0.847179	0.180067	0.401432
	C185	C	0.092515	0.177076	0.619786
	C186	C	0.098076	0.813649	0.402267
	C187	C	0.847882	0.817096	0.619668
	C188	C	0.150959	0.388345	0.889004
	C189	C	0.153676	0.607683	0.136336
	C190	C	0.789415	0.387079	0.134416
	C191	C	0.791099	0.608114	0.888209
	C192	C	0.375399	0.089183	0.607493
	C193	C	0.566359	0.904885	0.607959
	C194	C	0.566700	0.089583	0.414686
	C195	C	0.377201	0.908472	0.416993
	C196	C	0.568135	0.400320	0.101869
	C197	C	0.568327	0.593625	0.920904
	C198	C	0.375986	0.591243	0.101230
	C199	C	0.372087	0.399420	0.921494
	C200	C	0.060563	0.591947	0.414809
	C201	C	0.881072	0.592925	0.607929
	C202	C	0.063541	0.401171	0.608264
	C203	C	0.881589	0.401901	0.414368
	C204	C	0.876174	0.588064	0.107053
	C205	C	0.065655	0.407444	0.106658
	C206	C	0.067427	0.590442	0.915438
	C207	C	0.874768	0.405903	0.913530
	C208	C	0.065974	0.903653	0.599236
	C209	C	0.067841	0.093059	0.419428
	C210	C	0.871743	0.095215	0.601517
	C211	C	0.873392	0.902951	0.420286
	C212	C	0.562238	0.095614	0.911621
	C213	C	0.380189	0.093132	0.108701
	C214	C	0.560001	0.903179	0.107131
	C215	C	0.379987	0.901814	0.916029
	Zn216	Zn	0.469804	-0.003139	0.760835
	Zn217	Zn	0.470717	-0.002398	0.262112
	Zn218	Zn	0.722049	0.497658	0.010775
	Zn219	Zn	0.220068	0.497822	0.011947
	Zn220	Zn	-0.028900	0.747900	0.510029
	Zn221	Zn	-0.028029	0.247579	0.510571
	Zn222	Zn	-0.028132	0.498762	0.761738
	Zn223	Zn	-0.029203	0.497264	0.260638
	Zn224	Zn	0.471330	0.747234	0.011554
	Zn225	Zn	0.470332	0.246555	0.011446
	Zn226	Zn	0.718927	-0.002025	0.510624
	Zn227	Zn	0.222011	-0.001720	0.510668
	N228	N	0.383045	0.962405	0.691303
	N229	N	0.556035	0.032349	0.690293
	N230	N	0.557897	0.962879	0.331163
	N231	N	0.384549	0.034023	0.331511
	N232	N	0.650779	0.410834	0.975794
	N233	N	0.652954	0.585791	0.045325
	N234	N	0.291344	0.583893	0.976643
	N235	N	0.288033	0.408360	0.046827
	N236	N	0.935943	0.678123	0.423236
	N237	N	0.006685	0.677270	0.596231
	N238	N	0.936517	0.319066	0.596611
	N239	N	0.007793	0.319007	0.425339
	N240	N	0.937982	0.409874	0.692549
	N241	N	0.006544	0.586042	0.691770
	N242	N	0.935721	0.584496	0.330285
	N243	N	0.005833	0.408120	0.328017
	N244	N	0.385929	0.675925	0.975867
	N245	N	0.559113	0.678367	0.045941
	N246	N	0.554380	0.319939	0.974725
	N247	N	0.383577	0.316825	0.047745
	N248	N	0.649637	0.962499	0.424503
	N249	N	0.648226	0.033023	0.596438
	N250	N	0.290873	0.962855	0.597954
	N251	N	0.293428	0.035041	0.426032
	N252	N	0.882802	0.462417	0.192118
	N253	N	0.057913	0.533324	0.191399
	N254	N	0.059135	0.464459	0.830933
	N255	N	0.884241	0.533015	0.830579
	N256	N	0.154483	0.908561	0.476520
	N257	N	0.151774	0.085211	0.544360
	N258	N	0.788254	0.086661	0.476437
	N259	N	0.788804	0.910039	0.545026
	N260	N	0.434534	0.175929	0.925671
	N261	N	0.506635	0.176289	0.096921
	N262	N	0.435966	0.816159	0.099314
	N263	N	0.506267	0.818690	0.925776
	N264	N	0.436145	0.908630	0.193669
	N265	N	0.505417	0.085762	0.192752
	N266	N	0.436071	0.085679	0.829474
	N267	N	0.504623	0.909722	0.830554
	N268	N	0.883415	0.178877	0.475533
	N269	N	0.055892	0.175271	0.545823
	N270	N	0.058729	0.817421	0.474976
	N271	N	0.884402	0.818647	0.545472
	N272	N	0.149875	0.463127	0.925863
	N273	N	0.151669	0.532730	0.099618
	N274	N	0.791878	0.461672	0.097334
	N275	N	0.792388	0.533019	0.924543
	O276	O	0.772816	1.138767	0.138037
	H277	H	0.779238	1.121194	0.126163
	H278	H	0.783827	1.140285	0.121535
	O279	O	-0.055974	-0.217724	1.227922
	H280	H	-0.053862	-0.205158	1.232137
	H281	H	-0.071643	-0.238569	1.250514
	O282	O	1.178026	1.206877	0.799515
	H283	H	1.170586	1.172233	0.806320
	H284	H	1.197766	1.223465	0.766648
	O285	O	0.655852	0.325184	0.615072
	H286	H	0.655818	0.343514	0.595276
	H287	H	0.637669	0.325689	0.610833
	O288	O	1.683073	-0.302426	1.631528
	H289	H	1.708303	-0.283259	1.654408
	H290	H	1.688450	-0.323246	1.640661
	O291	O	0.492915	0.341798	0.298186
	H292	H	0.489327	0.330714	0.284420
	H293	H	0.474136	0.357658	0.299175
	O294	O	0.267232	-0.708522	-0.319788
	H295	H	0.275206	-0.693276	-0.342873
	H296	H	0.275584	-0.704814	-0.339941
	O297	O	1.480816	0.692129	-0.351511
	H298	H	1.508151	0.695849	-0.352170
	H299	H	1.501271	0.682648	-0.348105
	O300	O	-0.085628	-0.050780	0.027414
	H301	H	-0.075978	-0.046368	0.029128
	H302	H	-0.072729	-0.053129	0.007625
	O303	O	0.176356	-0.001597	-0.155179
	H304	H	0.180162	-0.013845	-0.134870
	H305	H	0.172216	-0.002199	-0.161374
	O306	O	0.757792	-0.094282	0.006337
	H307	H	0.750552	-0.097635	0.005342
	H308	H	0.752005	-0.096211	0.006489
	O309	O	0.718794	0.746018	0.755224
	H310	H	0.733809	0.740573	0.762154
	H311	H	0.706719	0.766570	0.764613
	O312	O	0.691241	0.445288	0.543530
	H313	H	0.690095	0.443835	0.539011
	H314	H	0.694231	0.451837	0.527273
	O315	O	0.746063	1.220031	-0.208814
	H316	H	0.773165	1.205014	-0.219887
	H317	H	0.715507	1.247283	-0.243055
	O318	O	0.923567	1.070698	0.191993
	H319	H	0.934314	1.080598	0.187740
	H320	H	0.927805	1.062040	0.182713
	O321	O	-0.070257	1.062969	1.131957
	H322	H	-0.077658	1.071988	1.126189
	H323	H	-0.063416	1.056523	1.135404
	O324	O	1.036221	0.209243	0.953509
	H325	H	1.056360	0.201215	0.949307
	H326	H	1.029031	0.211706	0.942479
	O327	O	1.409843	0.700117	0.354845
	H328	H	1.420855	0.697211	0.358519
	H329	H	1.428667	0.696837	0.342709
	O330	O	0.380883	0.406567	0.303555
	H331	H	0.363003	0.413700	0.292598
	H332	H	0.371366	0.429362	0.308923
	O333	O	0.511166	0.293540	0.448636
	H334	H	0.510111	0.292602	0.441281
	H335	H	0.520644	0.289564	0.452326
	O336	O	0.767228	0.792673	0.212458
	H337	H	0.781683	0.793767	0.184941
	H338	H	0.775183	0.821470	0.203596
	O339	O	0.541714	0.296019	0.670948
	H340	H	0.532487	0.296397	0.676483
	H341	H	0.533307	0.299821	0.653444
	O342	O	0.111060	0.832282	0.126383
	H343	H	0.103121	0.834170	0.125120
	H344	H	0.107641	0.852470	0.126754
	O345	O	-0.439707	0.668030	0.477400
	H346	H	-0.426589	0.674253	0.449603
	H347	H	-0.421135	0.662872	0.480417
	O348	O	0.390222	0.654792	0.617318
	H349	H	0.409750	0.657848	0.615341
	H350	H	0.397103	0.648401	0.608928
	O351	O	0.253249	0.473632	0.570821
	H352	H	0.245952	0.488884	0.567299
	H353	H	0.247307	0.483164	0.558007
	O354	O	0.466041	0.538350	1.670981
	H355	H	0.458709	0.548224	1.671159
	H356	H	0.452401	0.545020	1.672450
	O357	O	0.663163	0.662738	0.345219
	H358	H	0.668323	0.664851	0.341829
	H359	H	0.674965	0.667716	0.327368
	O360	O	0.657902	0.454138	0.327709
	H361	H	0.668408	0.435127	0.323885
	H362	H	0.676821	0.446184	0.322551
	O363	O	0.935834	1.209468	0.803903
	H364	H	0.946099	1.228132	0.808398
	H365	H	0.925621	1.209236	0.790163
	O366	O	1.090177	-0.023700	0.796781
	H367	H	1.079296	-0.042994	0.787080
	H368	H	1.110254	-0.022223	0.808435
	O369	O	0.134949	-0.157606	0.804213
	H370	H	0.145828	-0.162757	0.842123
	H371	H	0.152772	-0.157594	0.794694
	O372	O	-0.003113	0.213233	0.230790
	H373	H	-0.011497	0.225591	0.221147
	H374	H	-0.004651	0.237293	0.227003
	O375	O	0.844899	0.111787	0.035931
	H376	H	0.829031	0.126525	0.011138
	H377	H	0.838171	0.102990	0.029776
	O378	O	-0.073514	0.021206	1.038046
	H379	H	-0.091535	0.021342	1.040747
	H380	H	-0.059940	0.025076	1.040131
	O381	O	0.182937	0.786990	-0.024951
	H382	H	0.168912	0.782831	-0.000727
	H383	H	0.193417	0.773897	-0.014549
	O384	O	0.219525	0.816857	0.185728
	H385	H	0.237541	0.821382	0.175476
	H386	H	0.219999	0.823605	0.194014
	O387	O	0.685604	0.328138	1.434127
	H388	H	0.691987	0.320850	1.411217
	H389	H	0.707685	0.312698	1.419108
	O390	O	0.364511	0.537806	0.607671
	H391	H	0.362678	0.531178	0.613643
	H392	H	0.375064	0.529020	0.596226
	O393	O	0.380245	-0.426443	-0.271106
	H394	H	0.356738	-0.433872	-0.276137
	H395	H	0.377765	-0.439312	-0.263314
	O396	O	0.336616	0.428776	0.649992
	H397	H	0.340035	0.446571	0.641973
	H398	H	0.308867	0.430031	0.644518
	O399	O	1.129578	1.023650	0.010225
	H400	H	1.131499	1.041864	0.018822
	H401	H	1.124580	1.030677	-0.014255
	O402	O	1.680709	-0.473672	1.720850
	H403	H	1.685498	-0.480071	1.736694
	H404	H	1.680040	-0.486056	1.704976
	O405	O	-0.068587	-0.125132	-0.165231
	H406	H	-0.057024	-0.117571	-0.169464
	H407	H	-0.056192	-0.138079	-0.176559
	O408	O	1.191830	1.020720	1.231185
	H409	H	1.201916	1.030885	1.224404
	H410	H	1.199072	1.014851	1.246390
	O411	O	1.322605	1.583313	0.511913
	H412	H	1.329665	1.593945	0.505867
	H413	H	1.328480	1.593058	0.517555
	O414	O	0.190057	0.209419	0.048413
	H415	H	0.200581	0.236689	0.039827
	H416	H	0.188776	0.214039	0.076761
	O417	O	1.160633	0.182522	0.203235
	H418	H	1.134459	0.191280	0.193579
	H419	H	1.149870	0.149674	0.206295
	O420	O	0.986418	-0.031649	1.239028
	H421	H	0.989271	-0.012941	1.240589
	H422	H	0.991882	-0.040756	1.237627
	O423	O	0.502309	1.575946	-0.704233
	H424	H	0.501161	1.557153	-0.697919
	H425	H	0.522993	1.568673	-0.710839
	O426	O	-0.045055	1.045920	-0.189779
	H427	H	-0.058284	1.068092	-0.197862
	H428	H	-0.046786	1.044494	-0.184926
	O429	O	1.019078	0.834252	0.996186
	H430	H	1.017169	0.828618	0.984964
	H431	H	1.019266	0.847769	1.011247
	O432	O	0.757050	-0.002717	1.220625
	H433	H	0.762846	-0.006134	1.227249
	H434	H	0.746800	0.002714	1.218933
	O435	O	0.466213	0.353060	0.714442
	H436	H	0.453121	0.335849	0.712801
	H437	H	0.454382	0.360344	0.722706
	O438	O	0.278338	0.362673	0.476302
	H439	H	0.277190	0.383982	0.453845
	H440	H	0.278547	0.370125	0.468358
	O441	O	1.332128	0.654726	-0.355399
	H442	H	1.326069	0.665252	-0.367418
	H443	H	1.352028	0.657364	-0.334081
	O444	O	0.484380	0.372032	0.506575
	H445	H	0.485868	0.373566	0.494109
	H446	H	0.484506	0.372705	0.514410
	O447	O	0.584387	0.542799	0.445030
	H448	H	0.583506	0.557254	0.450559
	H449	H	0.577306	0.535294	0.445823
	O450	O	0.852854	-0.036392	0.065211
	H451	H	0.839812	-0.056620	0.061271
	H452	H	0.860915	-0.031116	0.047009
	O453	O	0.620431	0.306388	0.316305
	H454	H	0.627244	0.306432	0.295030
	H455	H	0.583494	0.306790	0.312664
	O456	O	-0.239323	1.019475	0.791498
	H457	H	-0.260541	1.007916	0.767076
	H458	H	-0.239182	1.032932	0.793394
	O459	O	0.831660	-0.118804	0.880606
	H460	H	0.848346	-0.106874	0.882612
	H461	H	0.846047	-0.106417	0.864848
	O462	O	0.247431	0.520195	0.289213
	H463	H	0.233633	0.543731	0.273617
	H464	H	0.238956	0.554690	0.279265
	O465	O	0.501187	0.716490	0.512812
	H466	H	0.528315	0.729942	0.526329
	H467	H	0.493899	0.740586	0.523578
	O468	O	0.011856	0.974927	-0.015143
	H469	H	0.006198	0.974217	-0.006798
	H470	H	0.010212	0.977258	-0.012861
	O471	O	0.999220	0.784839	0.922810
	H472	H	1.013371	0.786581	0.911596
	H473	H	0.998148	0.774240	0.924798
	O474	O	0.756553	1.218232	-0.045126
	H475	H	0.763948	1.206173	-0.090269
	H476	H	0.722712	1.250720	-0.050837
	O477	O	0.332494	0.631125	0.350226
	H478	H	0.327427	0.636615	0.385902
	H479	H	0.353155	0.634545	0.342146
