data_Molecule from HDF5

_cell_length_a		16.285005
_cell_length_b		16.157816
_cell_length_c		16.259126
_cell_angle_alpha	89.801102
_cell_angle_beta	90.291337
_cell_angle_gamma	90.092567
_symmetry_space_group_name_H-M	'P 1'
_symmetry_Int_Tables_number		1

loop_
	_symmetry_equiv_pos_as_xyz
	x,y,z

loop_
	_atom_site_label
	_atom_site_type_symbol
	_atom_site_fract_x
	_atom_site_fract_y
	_atom_site_fract_z
	H0	H	0.395915	0.837710	0.702364
	H1	H	0.594783	0.166583	0.701148
	H2	H	0.590449	0.836429	0.276701
	H3	H	0.394996	0.166130	0.271155
	H4	H	0.712362	0.403261	0.825053
	H5	H	0.713337	0.599965	0.152594
	H6	H	0.281381	0.602945	0.825338
	H7	H	0.283784	0.401235	0.152776
	H8	H	0.831995	0.715969	0.388443
	H9	H	0.159503	0.718989	0.587972
	H10	H	0.832317	0.289696	0.585103
	H11	H	0.160197	0.288976	0.392042
	H12	H	0.833460	0.403164	0.702451
	H13	H	0.160252	0.604129	0.704646
	H14	H	0.834127	0.602878	0.270032
	H15	H	0.160770	0.403495	0.275949
	H16	H	0.402028	0.714976	0.823526
	H17	H	0.596824	0.714987	0.152939
	H18	H	0.595511	0.289144	0.824332
	H19	H	0.401497	0.286196	0.152242
	H20	H	0.708644	0.837709	0.390121
	H21	H	0.711287	0.165893	0.588681
	H22	H	0.280373	0.837640	0.586965
	H23	H	0.281721	0.166798	0.388360
	H24	H	0.901335	0.337641	0.200862
	H25	H	0.098007	0.667461	0.202944
	H26	H	0.096424	0.337411	0.775085
	H27	H	0.900223	0.667281	0.773839
	H28	H	0.208666	0.903233	0.323663
	H29	H	0.213235	0.102999	0.650545
	H30	H	0.779871	0.101340	0.324586
	H31	H	0.780281	0.901467	0.652074
	H32	H	0.334459	0.217506	0.887991
	H33	H	0.661924	0.214240	0.086773
	H34	H	0.334409	0.785319	0.085595
	H35	H	0.662740	0.791868	0.893003
	H36	H	0.332198	0.901693	0.199487
	H37	H	0.659551	0.100048	0.204486
	H38	H	0.333556	0.101939	0.771795
	H39	H	0.659279	0.901276	0.771668
	H40	H	0.897194	0.216553	0.324030
	H41	H	0.093994	0.214899	0.652705
	H42	H	0.091043	0.789762	0.323381
	H43	H	0.898676	0.787949	0.652346
	H44	H	0.212095	0.337838	0.890000
	H45	H	0.213237	0.667157	0.088041
	H46	H	0.784747	0.338015	0.087712
	H47	H	0.783683	0.667347	0.888827
	H48	H	0.400466	0.121339	0.581311
	H49	H	0.590975	0.882987	0.582120
	H50	H	0.590107	0.122495	0.389166
	H51	H	0.402973	0.886438	0.400665
	H52	H	0.591536	0.403081	0.107356
	H53	H	0.592079	0.603360	0.869720
	H54	H	0.401092	0.590263	0.104905
	H55	H	0.405195	0.417443	0.874438
	H56	H	0.111917	0.595340	0.399178
	H57	H	0.879246	0.594097	0.583264
	H58	H	0.109922	0.415803	0.578601
	H59	H	0.880551	0.415553	0.390721
	H60	H	0.116666	0.409226	0.591983
	H61	H	0.880874	0.595501	0.579993
	H62	H	0.113040	0.594370	0.394269
	H63	H	0.877291	0.405358	0.390019
	H64	H	0.412057	0.591183	0.102527
	H65	H	0.599061	0.594406	0.870499
	H66	H	0.597864	0.409382	0.107001
	H67	H	0.409476	0.406433	0.872009
	H68	H	0.580320	0.118461	0.395103
	H69	H	0.583874	0.885057	0.583099
	H70	H	0.405871	0.119334	0.581781
	H71	H	0.394193	0.881758	0.393012
	H72	H	0.905996	0.621293	0.083698
	H73	H	0.089004	0.384275	0.090664
	H74	H	0.085277	0.619246	0.892959
	H75	H	0.900649	0.384120	0.897224
	H76	H	0.091813	0.910335	0.604725
	H77	H	0.088174	0.085021	0.373867
	H78	H	0.905607	0.102487	0.606717
	H79	H	0.901593	0.899732	0.369187
	H80	H	0.613166	0.093809	0.895369
	H81	H	0.382858	0.091557	0.073307
	H82	H	0.608483	0.920204	0.074149
	H83	H	0.383058	0.914292	0.898460
	H84	H	0.617399	0.912977	0.099629
	H85	H	0.380201	0.090343	0.084189
	H86	H	0.614327	0.093185	0.892652
	H87	H	0.378113	0.909807	0.886128
	H88	H	0.893999	0.094293	0.607557
	H89	H	0.078550	0.101770	0.372695
	H90	H	0.087184	0.913861	0.602891
	H91	H	0.890421	0.914536	0.369798
	H92	H	0.090733	0.618008	0.901725
	H93	H	0.088000	0.387104	0.076861
	H94	H	0.909732	0.618860	0.077988
	H95	H	0.905454	0.383728	0.891964
	H96	H	0.404080	0.118205	0.576225
	H97	H	0.587474	0.884681	0.577342
	H98	H	0.591275	0.119534	0.401399
	H99	H	0.405729	0.883551	0.388678
	H100	H	0.589781	0.411675	0.104107
	H101	H	0.587872	0.592494	0.873323
	H102	H	0.406606	0.600602	0.107152
	H103	H	0.398281	0.409109	0.870371
	H104	H	0.113529	0.598414	0.395648
	H105	H	0.881201	0.592240	0.580770
	H106	H	0.115058	0.399733	0.578934
	H107	H	0.880692	0.409854	0.398839
	H108	H	0.902450	0.621175	0.077222
	H109	H	0.099689	0.383004	0.082036
	H110	H	0.095458	0.622239	0.893372
	H111	H	0.907620	0.386852	0.897604
	H112	H	0.086615	0.907656	0.604503
	H113	H	0.096944	0.100684	0.367297
	H114	H	0.905582	0.089399	0.602042
	H115	H	0.908574	0.916243	0.374848
	H116	H	0.614442	0.095540	0.894620
	H117	H	0.378761	0.100500	0.079402
	H118	H	0.617580	0.894640	0.079262
	H119	H	0.379077	0.900334	0.896870
	C120	C	0.374297	0.010698	0.608621
	C121	C	0.616740	0.993036	0.609253
	C122	C	0.615201	0.010790	0.367402
	C123	C	0.372542	0.992999	0.365040
	C124	C	0.620524	0.380001	-0.002586
	C125	C	0.620998	0.624171	0.979987
	C126	C	0.377107	0.623660	-0.003189
	C127	C	0.376396	0.380785	0.980156
	C128	C	0.004895	0.624391	0.366370
	C129	C	0.988190	0.623717	0.610197
	C130	C	0.005204	0.380231	0.610810
	C131	C	0.988024	0.380876	0.366205
	C132	C	0.877663	0.511611	0.108794
	C133	C	0.120765	0.493887	0.111503
	C134	C	0.118693	0.510826	0.867486
	C135	C	0.876348	0.493850	0.866944
	C136	C	0.116316	0.881754	0.495879
	C137	C	0.117464	0.124262	0.479263
	C138	C	0.872978	0.124259	0.497195
	C139	C	0.872712	0.880527	0.479545
	C140	C	0.505694	0.123238	0.865577
	C141	C	0.488652	0.122795	0.108855
	C142	C	0.505619	0.879829	0.110644
	C143	C	0.488407	0.879909	0.865795
	C144	C	0.376076	0.886736	0.664257
	C145	C	0.615009	0.117250	0.664189
	C146	C	0.611945	0.886008	0.313678
	C147	C	0.375059	0.116991	0.309321
	C148	C	0.674680	0.382893	0.873941
	C149	C	0.675705	0.620769	0.103638
	C150	C	0.320359	0.622528	0.873861
	C151	C	0.321845	0.381607	0.103747
	C152	C	0.881177	0.678515	0.368192
	C153	C	0.110979	0.680383	0.608068
	C154	C	0.881537	0.326479	0.606461
	C155	C	0.110969	0.325921	0.370589
	C156	C	0.882236	0.382930	0.664956
	C157	C	0.111506	0.622995	0.665882
	C158	C	0.882458	0.622912	0.308822
	C159	C	0.111413	0.383223	0.313031
	C160	C	0.380244	0.678330	0.873034
	C161	C	0.617817	0.677785	0.103751
	C162	C	0.616731	0.326112	0.873602
	C163	C	0.380047	0.324194	0.103409
	C164	C	0.670658	0.886884	0.369948
	C165	C	0.672371	0.117084	0.607717
	C166	C	0.318418	0.886753	0.606998
	C167	C	0.318762	0.117429	0.367460
	C168	C	0.880419	0.387036	0.163621
	C169	C	0.118209	0.618052	0.165768
	C170	C	0.116409	0.386555	0.812822
	C171	C	0.879460	0.618192	0.811791
	C172	C	0.171067	0.883231	0.372490
	C173	C	0.174507	0.122770	0.601993
	C174	C	0.817517	0.122115	0.373625
	C175	C	0.818040	0.881482	0.603113
	C176	C	0.383081	0.179405	0.867553
	C177	C	0.612569	0.176742	0.106810
	C178	C	0.382840	0.823702	0.106285
	C179	C	0.612802	0.827622	0.870867
	C180	C	0.381741	0.881411	0.163009
	C181	C	0.611155	0.120350	0.165614
	C182	C	0.382684	0.121864	0.809660
	C183	C	0.610968	0.881993	0.810414
	C184	C	0.875851	0.179354	0.373422
	C185	C	0.114859	0.178153	0.603134
	C186	C	0.112523	0.826885	0.372390
	C187	C	0.876702	0.825062	0.603099
	C188	C	0.174054	0.386814	0.869896
	C189	C	0.175718	0.618036	0.108718
	C190	C	0.822871	0.387161	0.107135
	C191	C	0.821465	0.618039	0.868799
	C192	C	0.396632	0.097233	0.586223
	C193	C	0.594140	0.906590	0.587206
	C194	C	0.593623	0.097835	0.388941
	C195	C	0.394431	0.906384	0.387514
	C196	C	0.599258	0.401759	0.083840
	C197	C	0.599392	0.603040	0.893520
	C198	C	0.399852	0.600689	0.082754
	C199	C	0.397743	0.404176	0.894567
	C200	C	0.090674	0.602576	0.389614
	C201	C	0.902676	0.600662	0.587828
	C202	C	0.091501	0.401914	0.589447
	C203	C	0.901717	0.403524	0.387068
	C204	C	0.899612	0.598018	0.086131
	C205	C	0.098821	0.407039	0.089720
	C206	C	0.096903	0.597568	0.889449
	C207	C	0.898203	0.407223	0.889132
	C208	C	0.094953	0.904167	0.581867
	C209	C	0.094575	0.102225	0.393374
	C210	C	0.895180	0.101981	0.583210
	C211	C	0.893947	0.903333	0.393586
	C212	C	0.591850	0.100690	0.887701
	C213	C	0.402897	0.100687	0.085662
	C214	C	0.592145	0.902508	0.090345
	C215	C	0.402342	0.901615	0.887517
	Zn216	Zn	0.496285	0.001664	0.736874
	Zn217	Zn	0.494846	0.001641	0.238510
	Zn218	Zn	0.748971	0.501998	-0.011131
	Zn219	Zn	0.247424	0.502461	-0.010775
	Zn220	Zn	-0.004557	0.752678	0.487836
	Zn221	Zn	-0.004425	0.252408	0.488447
	Zn222	Zn	-0.001887	0.502111	0.739021
	Zn223	Zn	-0.002340	0.502879	0.237555
	Zn224	Zn	0.498966	0.752694	-0.011430
	Zn225	Zn	0.498389	0.252146	-0.012375
	Zn226	Zn	0.744348	0.002413	0.488627
	Zn227	Zn	0.245904	0.002199	0.487076
	N228	N	0.409967	0.964783	0.665495
	N229	N	0.581005	0.039127	0.665060
	N230	N	0.578242	0.964094	0.311995
	N231	N	0.407765	0.038588	0.307663
	N232	N	0.677265	0.415654	0.952032
	N233	N	0.677575	0.587929	0.025835
	N234	N	0.318552	0.589085	0.951846
	N235	N	0.319356	0.416191	0.026226
	N236	N	0.958307	0.679785	0.403269
	N237	N	0.033286	0.681263	0.574143
	N238	N	0.959139	0.324469	0.573755
	N239	N	0.033081	0.324507	0.402995
	N240	N	0.960302	0.415427	0.667855
	N241	N	0.034427	0.588307	0.667108
	N242	N	0.960279	0.589920	0.307794
	N243	N	0.033943	0.416902	0.310330
	N244	N	0.414805	0.679123	0.950379
	N245	N	0.584512	0.680198	0.025780
	N246	N	0.584036	0.323904	0.951536
	N247	N	0.413172	0.323474	0.025757
	N248	N	0.672486	0.965335	0.402798
	N249	N	0.673756	0.038912	0.574544
	N250	N	0.317486	0.964748	0.572835
	N251	N	0.317038	0.039320	0.401348
	N252	N	0.914047	0.465239	0.164521
	N253	N	0.084753	0.539775	0.167288
	N254	N	0.082996	0.464748	0.811160
	N255	N	0.912705	0.540062	0.810494
	N256	N	0.173585	0.916620	0.450255
	N257	N	0.176263	0.089881	0.524012
	N258	N	0.815825	0.088296	0.451489
	N259	N	0.815511	0.915430	0.525408
	N260	N	0.460615	0.180302	0.901609
	N261	N	0.535353	0.178355	0.072044
	N262	N	0.460885	0.822539	0.074710
	N263	N	0.535513	0.826234	0.904555
	N264	N	0.459181	0.915665	0.165829
	N265	N	0.533110	0.087594	0.167091
	N266	N	0.460026	0.087710	0.808387
	N267	N	0.532658	0.914108	0.807255
	N268	N	0.909569	0.180855	0.451066
	N269	N	0.080232	0.179353	0.525836
	N270	N	0.079230	0.825885	0.450061
	N271	N	0.909707	0.824077	0.525396
	N272	N	0.175543	0.464988	0.903268
	N273	N	0.177387	0.539934	0.075507
	N274	N	0.820994	0.465464	0.073692
	N275	N	0.819381	0.539652	0.902357
	O276	O	0.971343	1.054545	-0.080254
	H277	H	0.973140	1.053068	-0.081886
	H278	H	0.971151	1.058578	-0.084994
	O279	O	0.929559	-0.978551	0.924631
	H280	H	0.932110	-0.973474	0.935488
	H281	H	0.917260	-0.976014	0.925575
	O282	O	0.587174	0.531661	0.552312
	H283	H	0.588757	0.531830	0.553947
	H284	H	0.595900	0.529765	0.553611
	O285	O	0.472293	0.523228	0.464526
	H286	H	0.472706	0.527994	0.469197
	H287	H	0.470990	0.516813	0.465254
	O288	O	0.045133	0.073128	0.044769
	H289	H	0.049244	0.078945	0.057090
	H290	H	0.051682	0.073705	0.036561
	O291	O	-0.443364	0.491601	0.464969
	H292	H	-0.454529	0.499884	0.462633
	H293	H	-0.455123	0.495674	0.463308
	O294	O	-0.018384	1.007704	0.012421
	H295	H	-0.006174	1.007232	0.007680
	H296	H	-0.017040	1.006720	0.001892
	O297	O	0.533499	0.496484	0.493291
	H298	H	0.533177	0.484943	0.494394
	H299	H	0.524119	0.497562	0.497345
	O300	O	0.452419	0.535423	0.442056
	H301	H	0.452736	0.532979	0.435079
	H302	H	0.453213	0.547601	0.434689
	O303	O	0.989810	0.034556	1.034603
	H304	H	0.990065	0.031382	1.034628
	H305	H	0.985961	0.038579	1.029606
	O306	O	0.029935	1.032745	0.999974
	H307	H	0.036849	1.035548	1.000123
	H308	H	0.032390	1.024588	0.997568
	O309	O	-0.022720	1.002347	0.921372
	H310	H	-0.021301	0.998479	0.926950
	H311	H	-0.024458	1.010033	0.912222
	O312	O	0.511404	-0.562195	1.590871
	H313	H	0.506951	-0.558654	1.581186
	H314	H	0.505762	-0.574328	1.599215
	O315	O	0.533488	0.457728	0.422225
	H316	H	0.533878	0.462609	0.411587
	H317	H	0.536330	0.461592	0.422781
	O318	O	0.023081	0.031852	0.993768
	H319	H	0.017876	0.036627	0.997163
	H320	H	0.021973	0.032591	0.995570
	O321	O	0.016021	1.003822	-0.018300
	H322	H	0.015280	0.998167	-0.013489
	H323	H	0.020916	1.000517	-0.024183
	O324	O	0.968042	0.032021	0.979151
	H325	H	0.962681	0.038982	0.982701
	H326	H	0.970192	0.031682	0.977475
	O327	O	1.046381	1.034598	1.008568
	H328	H	1.053714	1.027279	1.005902
	H329	H	1.042166	1.038183	1.005083
	O330	O	0.474711	0.425804	0.570928
	H331	H	0.472025	0.429167	0.569733
	H332	H	0.471414	0.428158	0.558473
	O333	O	0.480255	0.543959	0.487906
	H334	H	0.479533	0.536437	0.492742
	H335	H	0.485027	0.555861	0.495297
	O336	O	0.533161	0.466788	0.497526
	H337	H	0.537106	0.461413	0.500779
	H338	H	0.538883	0.463259	0.500080
	O339	O	0.440143	0.514833	0.505449
	H340	H	0.443492	0.516111	0.509698
	H341	H	0.446012	0.519740	0.508302
	O342	O	0.536269	0.552519	0.545719
	H343	H	0.534603	0.545106	0.551497
	H344	H	0.546343	0.559963	0.551592
	O345	O	0.422107	0.519968	0.531400
	H346	H	0.425686	0.526848	0.534710
	H347	H	0.417786	0.509530	0.526854
