data_Molecule from HDF5

_cell_length_a		16.280435
_cell_length_b		16.271661
_cell_length_c		16.306280
_cell_angle_alpha	89.983256
_cell_angle_beta	89.964016
_cell_angle_gamma	90.080758
_symmetry_space_group_name_H-M	'P 1'
_symmetry_Int_Tables_number		1

loop_
	_symmetry_equiv_pos_as_xyz
	x,y,z

loop_
	_atom_site_label
	_atom_site_type_symbol
	_atom_site_fract_x
	_atom_site_fract_y
	_atom_site_fract_z
	H0	H	0.401276	0.836284	0.714696
	H1	H	0.597408	0.163653	0.714850
	H2	H	0.598037	0.835733	0.286682
	H3	H	0.403027	0.163171	0.284827
	H4	H	0.714216	0.402229	0.836193
	H5	H	0.713132	0.596474	0.164015
	H6	H	0.286580	0.596811	0.835591
	H7	H	0.284454	0.401856	0.163160
	H8	H	0.836069	0.714271	0.401721
	H9	H	0.163132	0.714434	0.596929
	H10	H	0.835795	0.286145	0.596878
	H11	H	0.164101	0.286748	0.402320
	H12	H	0.836315	0.401467	0.713669
	H13	H	0.163923	0.597655	0.713030
	H14	H	0.835990	0.598212	0.285895
	H15	H	0.163640	0.402224	0.285516
	H16	H	0.402967	0.713668	0.836069
	H17	H	0.596983	0.713283	0.163475
	H18	H	0.597868	0.285017	0.836424
	H19	H	0.402181	0.286641	0.163936
	H20	H	0.713487	0.835741	0.403474
	H21	H	0.712924	0.164575	0.597318
	H22	H	0.285926	0.836007	0.598276
	H23	H	0.286787	0.164153	0.401649
	H24	H	0.903353	0.336007	0.212535
	H25	H	0.099061	0.663948	0.214332
	H26	H	0.097303	0.335810	0.786477
	H27	H	0.902347	0.664113	0.785860
	H28	H	0.214407	0.902163	0.336326
	H29	H	0.214389	0.098397	0.663645
	H30	H	0.785460	0.098797	0.336788
	H31	H	0.785332	0.901964	0.663835
	H32	H	0.335958	0.213516	0.902024
	H33	H	0.663433	0.214242	0.098157
	H34	H	0.335931	0.785736	0.097466
	H35	H	0.664665	0.787488	0.903717
	H36	H	0.336409	0.900417	0.215080
	H37	H	0.663494	0.097995	0.214523
	H38	H	0.336549	0.097982	0.785640
	H39	H	0.663956	0.901467	0.785364
	H40	H	0.902780	0.213777	0.336528
	H41	H	0.097428	0.213519	0.663941
	H42	H	0.097085	0.786277	0.336120
	H43	H	0.902455	0.786096	0.664071
	H44	H	0.212728	0.336014	0.903252
	H45	H	0.214661	0.664112	0.097818
	H46	H	0.786764	0.335865	0.097161
	H47	H	0.787176	0.664703	0.902841
	H48	H	0.418106	0.108880	0.579053
	H49	H	0.590547	0.886252	0.586337
	H50	H	0.593434	0.114135	0.415203
	H51	H	0.408556	0.886111	0.414060
	H52	H	0.590085	0.408529	0.114491
	H53	H	0.600994	0.598101	0.879349
	H54	H	0.415293	0.600943	0.115592
	H55	H	0.405733	0.397940	0.880914
	H56	H	0.117738	0.596438	0.403882
	H57	H	0.880293	0.599312	0.598024
	H58	H	0.117616	0.407555	0.595834
	H59	H	0.881320	0.400756	0.404224
	H60	H	0.117211	0.404219	0.593891
	H61	H	0.884250	0.593371	0.586680
	H62	H	0.115560	0.593670	0.410338
	H63	H	0.885424	0.407106	0.413013
	H64	H	0.396990	0.596985	0.120853
	H65	H	0.595080	0.585237	0.885325
	H66	H	0.593148	0.402030	0.117526
	H67	H	0.399279	0.411345	0.883343
	H68	H	0.600481	0.119806	0.402354
	H69	H	0.600598	0.880432	0.594942
	H70	H	0.388606	0.121137	0.590548
	H71	H	0.398369	0.880440	0.405545
	H72	H	0.907971	0.616489	0.090640
	H73	H	0.088423	0.385552	0.091979
	H74	H	0.093482	0.617518	0.905312
	H75	H	0.901886	0.382195	0.908410
	H76	H	0.083397	0.902082	0.614728
	H77	H	0.105105	0.089110	0.381443
	H78	H	0.909983	0.105865	0.619025
	H79	H	0.912646	0.921500	0.390352
	H80	H	0.616292	0.095750	0.910074
	H81	H	0.384975	0.090477	0.093008
	H82	H	0.616321	0.901162	0.086276
	H83	H	0.386093	0.913463	0.907776
	H84	H	0.613852	0.915541	0.093882
	H85	H	0.382226	0.093565	0.096210
	H86	H	0.615086	0.089473	0.908223
	H87	H	0.380628	0.904182	0.899694
	H88	H	0.893841	0.089466	0.619418
	H89	H	0.085191	0.086021	0.389054
	H90	H	0.101746	0.900499	0.621045
	H91	H	0.916999	0.893149	0.383059
	H92	H	0.094051	0.617098	0.905859
	H93	H	0.095631	0.384241	0.090047
	H94	H	0.903285	0.618006	0.093844
	H95	H	0.908278	0.382462	0.902606
	H96	H	0.415554	0.119364	0.611345
	H97	H	0.587096	0.883735	0.599920
	H98	H	0.585302	0.115622	0.402183
	H99	H	0.411961	0.882795	0.400220
	H100	H	0.597933	0.407948	0.116750
	H101	H	0.586442	0.597701	0.884667
	H102	H	0.408122	0.582869	0.112477
	H103	H	0.413408	0.409478	0.886449
	H104	H	0.116157	0.589988	0.404381
	H105	H	0.883538	0.586460	0.597564
	H106	H	0.115411	0.407484	0.592332
	H107	H	0.883682	0.411116	0.402618
	H108	H	0.908631	0.617953	0.096630
	H109	H	0.093525	0.382534	0.096578
	H110	H	0.094344	0.617380	0.905310
	H111	H	0.909187	0.385788	0.910141
	H112	H	0.095070	0.917584	0.613378
	H113	H	0.090879	0.105712	0.381629
	H114	H	0.915095	0.084413	0.611522
	H115	H	0.890620	0.905823	0.379144
	H116	H	0.617411	0.093933	0.903996
	H117	H	0.383364	0.094967	0.091161
	H118	H	0.619969	0.902880	0.102249
	H119	H	0.383948	0.900706	0.912161
	C120	C	0.378886	0.008218	0.621777
	C121	C	0.621321	0.991864	0.621972
	C122	C	0.621376	0.007985	0.378651
	C123	C	0.378460	0.991396	0.378180
	C124	C	0.621813	0.378094	0.008057
	C125	C	0.622150	0.621652	0.991345
	C126	C	0.378658	0.621403	0.007945
	C127	C	0.378096	0.378236	0.991907
	C128	C	0.008101	0.621361	0.378514
	C129	C	0.991159	0.621392	0.621486
	C130	C	0.008319	0.378020	0.621754
	C131	C	0.991743	0.378328	0.378357
	C132	C	0.878327	0.508658	0.121600
	C133	C	0.121618	0.492118	0.121363
	C134	C	0.121550	0.508731	0.877887
	C135	C	0.878581	0.492006	0.878436
	C136	C	0.121694	0.878539	0.508170
	C137	C	0.121917	0.122107	0.491744
	C138	C	0.878365	0.121409	0.508685
	C139	C	0.877929	0.878455	0.492037
	C140	C	0.508047	0.121058	0.879299
	C141	C	0.491633	0.121051	0.121404
	C142	C	0.508330	0.878171	0.121603
	C143	C	0.492053	0.878731	0.878777
	C144	C	0.381200	0.884970	0.676636
	C145	C	0.618644	0.115101	0.677095
	C146	C	0.618494	0.884552	0.324250
	C147	C	0.381901	0.114779	0.323137
	C148	C	0.676366	0.381535	0.884888
	C149	C	0.675937	0.618189	0.114841
	C150	C	0.323918	0.618166	0.884684
	C151	C	0.322973	0.381319	0.114676
	C152	C	0.884795	0.675962	0.381462
	C153	C	0.114660	0.676324	0.617876
	C154	C	0.884867	0.323549	0.618138
	C155	C	0.115066	0.324222	0.381698
	C156	C	0.885124	0.380625	0.676289
	C157	C	0.114821	0.618685	0.675677
	C158	C	0.884889	0.618736	0.323506
	C159	C	0.114810	0.381328	0.323465
	C160	C	0.381872	0.675959	0.884570
	C161	C	0.618107	0.675763	0.114828
	C162	C	0.618583	0.323499	0.885004
	C163	C	0.381017	0.323860	0.115019
	C164	C	0.675599	0.884610	0.382462
	C165	C	0.675675	0.115445	0.618636
	C166	C	0.323935	0.884881	0.618647
	C167	C	0.324452	0.115134	0.381106
	C168	C	0.881754	0.385408	0.175846
	C169	C	0.119267	0.615541	0.175892
	C170	C	0.118247	0.384922	0.823768
	C171	C	0.881934	0.615282	0.823800
	C172	C	0.176378	0.881644	0.385092
	C173	C	0.176867	0.119406	0.614730
	C174	C	0.823283	0.119169	0.385524
	C175	C	0.823369	0.881527	0.615266
	C176	C	0.384723	0.175790	0.881497
	C177	C	0.614882	0.176233	0.118847
	C178	C	0.384797	0.823697	0.118120
	C179	C	0.615807	0.824632	0.882167
	C180	C	0.384944	0.880772	0.176204
	C181	C	0.614931	0.118209	0.176298
	C182	C	0.385184	0.118407	0.823621
	C183	C	0.615334	0.881611	0.823878
	C184	C	0.881583	0.176272	0.385460
	C185	C	0.118677	0.176672	0.614990
	C186	C	0.117946	0.824167	0.384890
	C187	C	0.881516	0.823907	0.615246
	C188	C	0.175221	0.384921	0.881953
	C189	C	0.176795	0.615386	0.118192
	C190	C	0.823788	0.385373	0.118284
	C191	C	0.824880	0.615809	0.882068
	C192	C	0.400990	0.094224	0.599927
	C193	C	0.599165	0.905704	0.600025
	C194	C	0.599530	0.094404	0.400105
	C195	C	0.399892	0.905375	0.400139
	C196	C	0.600093	0.399708	0.094110
	C197	C	0.600608	0.600258	0.905371
	C198	C	0.400421	0.600075	0.094040
	C199	C	0.399880	0.399848	0.905679
	C200	C	0.094280	0.599770	0.399894
	C201	C	0.904944	0.599514	0.600127
	C202	C	0.094542	0.399854	0.600356
	C203	C	0.905552	0.399962	0.400159
	C204	C	0.900232	0.595266	0.100028
	C205	C	0.099069	0.406212	0.099289
	C206	C	0.100215	0.595158	0.898999
	C207	C	0.900059	0.405809	0.900678
	C208	C	0.099982	0.900281	0.594206
	C209	C	0.100213	0.100099	0.406131
	C210	C	0.899954	0.099575	0.594485
	C211	C	0.900113	0.900319	0.406009
	C212	C	0.594138	0.099481	0.901188
	C213	C	0.405807	0.099247	0.099920
	C214	C	0.594472	0.899937	0.100235
	C215	C	0.405870	0.899718	0.900156
	Zn216	Zn	0.500054	0.000047	0.750376
	Zn217	Zn	0.499898	-0.000770	0.250048
	Zn218	Zn	0.750071	0.500340	-0.000330
	Zn219	Zn	0.249801	0.500033	-0.000183
	Zn220	Zn	-0.000382	0.749645	0.499791
	Zn221	Zn	0.000120	0.249959	0.499976
	Zn222	Zn	-0.000018	0.499835	0.749986
	Zn223	Zn	0.000444	0.500695	0.249703
	Zn224	Zn	0.500359	0.749864	-0.000364
	Zn225	Zn	0.499748	0.249947	0.000053
	Zn226	Zn	0.749562	0.000132	0.500105
	Zn227	Zn	0.250536	0.000282	0.500139
	N228	N	0.414618	0.962496	0.678491
	N229	N	0.585761	0.037278	0.679223
	N230	N	0.585550	0.962342	0.321910
	N231	N	0.414514	0.036932	0.321101
	N232	N	0.678473	0.414745	0.962445
	N233	N	0.678387	0.585359	0.037219
	N234	N	0.322183	0.584927	0.962299
	N235	N	0.320899	0.414083	0.037173
	N236	N	0.962282	0.677699	0.414817
	N237	N	0.036824	0.678254	0.585077
	N238	N	0.962527	0.321787	0.585027
	N239	N	0.037422	0.322151	0.414770
	N240	N	0.962812	0.413802	0.678518
	N241	N	0.037347	0.585215	0.677854
	N242	N	0.962486	0.585210	0.321756
	N243	N	0.037193	0.414416	0.321318
	N244	N	0.415058	0.678239	0.962103
	N245	N	0.585259	0.677850	0.037075
	N246	N	0.585290	0.321602	0.962356
	N247	N	0.414893	0.322167	0.037680
	N248	N	0.677541	0.962354	0.415260
	N249	N	0.677305	0.037867	0.585099
	N250	N	0.322218	0.962510	0.585360
	N251	N	0.322002	0.037482	0.414338
	N252	N	0.914867	0.463137	0.177898
	N253	N	0.085618	0.537987	0.177981
	N254	N	0.085524	0.462891	0.821314
	N255	N	0.914602	0.537487	0.821831
	N256	N	0.178569	0.914715	0.462552
	N257	N	0.178707	0.086032	0.537298
	N258	N	0.821240	0.085693	0.462989
	N259	N	0.821087	0.914462	0.537701
	N260	N	0.462131	0.177490	0.915501
	N261	N	0.537447	0.178171	0.085365
	N262	N	0.462404	0.822052	0.084656
	N263	N	0.538192	0.822413	0.915571
	N264	N	0.462654	0.913925	0.178419
	N265	N	0.537474	0.084804	0.178170
	N266	N	0.462747	0.085189	0.822267
	N267	N	0.537593	0.914425	0.821988
	N268	N	0.915143	0.177755	0.462806
	N269	N	0.085138	0.178431	0.537708
	N270	N	0.084653	0.822172	0.462436
	N271	N	0.914826	0.822117	0.537667
	N272	N	0.177583	0.462599	0.914759
	N273	N	0.178205	0.537696	0.085093
	N274	N	0.821742	0.463169	0.085249
	N275	N	0.822273	0.537966	0.915106
