data_Molecule from HDF5

_cell_length_a		16.574391
_cell_length_b		16.772206
_cell_length_c		16.569796
_cell_angle_alpha	90.069594
_cell_angle_beta	90.007913
_cell_angle_gamma	90.154856
_symmetry_space_group_name_H-M	'P 1'
_symmetry_Int_Tables_number		1

loop_
	_symmetry_equiv_pos_as_xyz
	x,y,z

loop_
	_atom_site_label
	_atom_site_type_symbol
	_atom_site_fract_x
	_atom_site_fract_y
	_atom_site_fract_z
	H0	H	0.402822	0.829049	0.719680
	H1	H	0.615661	0.136830	0.720788
	H2	H	0.612319	0.826743	0.279623
	H3	H	0.406499	0.136409	0.274754
	H4	H	0.731926	0.378269	0.842082
	H5	H	0.727115	0.583770	0.154880
	H6	H	0.287689	0.588303	0.842627
	H7	H	0.289816	0.377539	0.153832
	H8	H	0.855663	0.704840	0.392539
	H9	H	0.163451	0.711878	0.611294
	H10	H	0.856372	0.259889	0.605585
	H11	H	0.167714	0.265430	0.395036
	H12	H	0.855289	0.377678	0.719687
	H13	H	0.163722	0.594986	0.725718
	H14	H	0.854692	0.585932	0.279236
	H15	H	0.168047	0.382022	0.280124
	H16	H	0.402797	0.705230	0.842663
	H17	H	0.614541	0.703064	0.152860
	H18	H	0.618940	0.259128	0.843454
	H19	H	0.402929	0.259714	0.152833
	H20	H	0.730242	0.827556	0.394720
	H21	H	0.732975	0.137315	0.604883
	H22	H	0.287284	0.829442	0.602938
	H23	H	0.290292	0.137668	0.392343
	H24	H	0.905812	0.329909	0.219593
	H25	H	0.118146	0.636124	0.221530
	H26	H	0.118639	0.329757	0.773428
	H27	H	0.900319	0.633753	0.770571
	H28	H	0.231439	0.877885	0.342686
	H29	H	0.233009	0.089829	0.653161
	H30	H	0.791494	0.085607	0.341798
	H31	H	0.790773	0.878811	0.655525
	H32	H	0.357286	0.207416	0.889254
	H33	H	0.666835	0.203982	0.103680
	H34	H	0.356759	0.757488	0.106859
	H35	H	0.664867	0.761385	0.890909
	H36	H	0.355561	0.877446	0.218596
	H37	H	0.668062	0.084832	0.216076
	H38	H	0.354646	0.088508	0.776429
	H39	H	0.665453	0.878181	0.776193
	H40	H	0.907072	0.202196	0.341479
	H41	H	0.117866	0.205508	0.653363
	H42	H	0.117489	0.759652	0.345360
	H43	H	0.904054	0.760867	0.653388
	H44	H	0.237352	0.331275	0.886614
	H45	H	0.233994	0.636645	0.103715
	H46	H	0.788775	0.330025	0.103494
	H47	H	0.786511	0.635879	0.890259
	H48	H	0.422630	0.092924	0.585647
	H49	H	0.599135	0.873885	0.584163
	H50	H	0.601684	0.094669	0.405317
	H51	H	0.422381	0.873776	0.408482
	H52	H	0.602117	0.395143	0.110925
	H53	H	0.592098	0.571024	0.887732
	H54	H	0.423458	0.563877	0.106547
	H55	H	0.424599	0.390688	0.885746
	H56	H	0.120390	0.570120	0.413612
	H57	H	0.901126	0.572840	0.582203
	H58	H	0.123289	0.392207	0.584058
	H59	H	0.895781	0.387979	0.406034
	H60	H	0.121174	0.397811	0.582699
	H61	H	0.903713	0.567898	0.581447
	H62	H	0.123549	0.572246	0.407502
	H63	H	0.898774	0.390028	0.413197
	H64	H	0.430572	0.574333	0.106892
	H65	H	0.601335	0.581250	0.880272
	H66	H	0.596780	0.393621	0.108875
	H67	H	0.422088	0.397726	0.887344
	H68	H	0.600097	0.092949	0.407949
	H69	H	0.602407	0.871116	0.587695
	H70	H	0.422954	0.093233	0.586035
	H71	H	0.419780	0.872122	0.409626
	H72	H	0.916146	0.596286	0.088410
	H73	H	0.097654	0.373738	0.085729
	H74	H	0.099862	0.590931	0.914494
	H75	H	0.920530	0.373619	0.911965
	H76	H	0.089781	0.895479	0.607294
	H77	H	0.100934	0.079823	0.383298
	H78	H	0.924346	0.071726	0.610104
	H79	H	0.914862	0.896792	0.385417
	H80	H	0.620422	0.064830	0.908305
	H81	H	0.397415	0.075650	0.085487
	H82	H	0.622871	0.892303	0.084024
	H83	H	0.397743	0.890805	0.909763
	H84	H	0.622584	0.893126	0.087202
	H85	H	0.400714	0.070364	0.082217
	H86	H	0.624997	0.074985	0.906279
	H87	H	0.398386	0.894204	0.911275
	H88	H	0.923411	0.076736	0.611462
	H89	H	0.104514	0.071835	0.384912
	H90	H	0.102586	0.894186	0.612048
	H91	H	0.927503	0.897632	0.390581
	H92	H	0.096837	0.591827	0.910040
	H93	H	0.103294	0.371256	0.086720
	H94	H	0.922062	0.595667	0.093078
	H95	H	0.923451	0.373078	0.908028
	H96	H	0.423134	0.093040	0.586077
	H97	H	0.597489	0.872871	0.589097
	H98	H	0.602873	0.094387	0.408590
	H99	H	0.420664	0.871592	0.406830
	H100	H	0.600484	0.389233	0.111318
	H101	H	0.606838	0.566792	0.883619
	H102	H	0.418747	0.574376	0.112126
	H103	H	0.428720	0.395516	0.889601
	H104	H	0.123597	0.576452	0.413054
	H105	H	0.901216	0.569164	0.586030
	H106	H	0.122217	0.396500	0.588859
	H107	H	0.898204	0.395740	0.407453
	H108	H	0.922898	0.593225	0.085287
	H109	H	0.099261	0.371486	0.091456
	H110	H	0.094374	0.589515	0.914430
	H111	H	0.925182	0.375355	0.912358
	H112	H	0.098170	0.905914	0.606925
	H113	H	0.095948	0.073207	0.387315
	H114	H	0.919269	0.073580	0.611274
	H115	H	0.923199	0.886500	0.384841
	H116	H	0.620720	0.072776	0.916598
	H117	H	0.399085	0.069593	0.089594
	H118	H	0.623918	0.890449	0.086482
	H119	H	0.397387	0.894440	0.907921
	C120	C	0.389076	-0.008348	0.618893
	C121	C	0.631813	0.974846	0.619363
	C122	C	0.632540	-0.009003	0.376561
	C123	C	0.389370	0.974540	0.375719
	C124	C	0.632452	0.360649	0.006983
	C125	C	0.631677	0.603944	0.987994
	C126	C	0.390184	0.603496	0.006117
	C127	C	0.390885	0.361903	0.989764
	C128	C	0.019394	0.604676	0.378308
	C129	C	1.002965	0.605069	0.619630
	C130	C	0.019390	0.362358	0.618568
	C131	C	1.001876	0.361727	0.377315
	C132	C	0.888928	0.492615	0.120393
	C133	C	0.132541	0.474392	0.119637
	C134	C	0.131897	0.490694	0.876865
	C135	C	0.889046	0.474616	0.876299
	C136	C	0.130265	0.864201	0.506686
	C137	C	0.132798	0.106123	0.488782
	C138	C	0.890351	0.104684	0.507136
	C139	C	0.889322	0.861893	0.490085
	C140	C	0.519045	0.103333	0.877345
	C141	C	0.502694	0.103236	0.118089
	C142	C	0.519664	0.860436	0.118448
	C143	C	0.500955	0.861445	0.876746
	C144	C	0.385490	0.875595	0.679246
	C145	C	0.633720	0.090875	0.679908
	C146	C	0.632358	0.873749	0.318542
	C147	C	0.387529	0.090316	0.314945
	C148	C	0.692676	0.358913	0.889295
	C149	C	0.689301	0.604006	0.106956
	C150	C	0.328613	0.606132	0.889104
	C151	C	0.329997	0.359169	0.106790
	C152	C	0.902228	0.664379	0.374967
	C153	C	0.117496	0.669642	0.627265
	C154	C	0.903005	0.300539	0.623009
	C155	C	0.120412	0.304596	0.376220
	C156	C	0.902269	0.359142	0.679644
	C157	C	0.117767	0.611393	0.684181
	C158	C	0.901742	0.605410	0.318592
	C159	C	0.120662	0.362534	0.319023
	C160	C	0.385746	0.664277	0.889173
	C161	C	0.633139	0.662944	0.106100
	C162	C	0.636513	0.299722	0.890118
	C163	C	0.386503	0.300629	0.106339
	C164	C	0.690807	0.874064	0.376021
	C165	C	0.692096	0.091158	0.622408
	C166	C	0.327687	0.875809	0.621345
	C167	C	0.330100	0.091101	0.373469
	C168	C	0.887242	0.376317	0.179786
	C169	C	0.135845	0.590267	0.180475
	C170	C	0.136484	0.376156	0.813825
	C171	C	0.883540	0.588732	0.812747
	C172	C	0.191303	0.860022	0.389725
	C173	C	0.193246	0.108099	0.606192
	C174	C	0.831202	0.104859	0.388894
	C175	C	0.830010	0.860164	0.608075
	C176	C	0.403135	0.165484	0.872657
	C177	C	0.620177	0.163134	0.121039
	C178	C	0.402959	0.799193	0.123149
	C179	C	0.618020	0.801309	0.872863
	C180	C	0.402416	0.858648	0.178848
	C181	C	0.620824	0.104256	0.177120
	C182	C	0.401854	0.106476	0.816531
	C183	C	0.618310	0.859356	0.815935
	C184	C	0.888302	0.162995	0.388868
	C185	C	0.135917	0.165716	0.606187
	C186	C	0.134878	0.801198	0.391067
	C187	C	0.886425	0.801692	0.607196
	C188	C	0.195403	0.376746	0.870582
	C189	C	0.193215	0.590570	0.121841
	C190	C	0.828998	0.376431	0.122210
	C191	C	0.826916	0.589683	0.871957
	C192	C	0.415441	0.072176	0.593159
	C193	C	0.606757	0.893863	0.594188
	C194	C	0.608589	0.072693	0.400259
	C195	C	0.413768	0.893451	0.401065
	C196	C	0.607016	0.385680	0.089073
	C197	C	0.607178	0.580033	0.905319
	C198	C	0.416723	0.578112	0.087280
	C199	C	0.417540	0.387563	0.908558
	C200	C	0.101233	0.580053	0.404086
	C201	C	0.923006	0.577457	0.591358
	C202	C	0.100965	0.388310	0.592593
	C203	C	0.919055	0.384900	0.401644
	C204	C	0.913373	0.573930	0.095940
	C205	C	0.107332	0.393310	0.094851
	C206	C	0.104481	0.570263	0.904893
	C207	C	0.915730	0.394814	0.903141
	C208	C	0.104130	0.890948	0.587737
	C209	C	0.107612	0.081852	0.406447
	C210	C	0.915201	0.080836	0.589272
	C211	C	0.914833	0.886530	0.408164
	C212	C	0.600640	0.077989	0.903109
	C213	C	0.420454	0.078896	0.093142
	C214	C	0.601658	0.885086	0.092984
	C215	C	0.419115	0.885943	0.902424
	Zn216	Zn	0.509934	-0.017396	0.748485
	Zn217	Zn	0.511287	-0.017704	0.246640
	Zn218	Zn	0.759973	0.482882	-0.002321
	Zn219	Zn	0.261607	0.482264	-0.002105
	Zn220	Zn	0.010431	0.733765	0.499118
	Zn221	Zn	0.011191	0.233325	0.498012
	Zn222	Zn	0.010975	0.483058	0.747124
	Zn223	Zn	0.011130	0.483722	0.249561
	Zn224	Zn	0.510461	0.732612	-0.002709
	Zn225	Zn	0.510950	0.232651	-0.001828
	Zn226	Zn	0.761674	-0.017200	0.498812
	Zn227	Zn	0.259904	-0.016011	0.497244
	N228	N	0.422795	0.948754	0.678132
	N229	N	0.597217	0.017465	0.678414
	N230	N	0.596960	0.947410	0.318666
	N231	N	0.423579	0.016800	0.316233
	N232	N	0.690453	0.396009	0.963242
	N233	N	0.688944	0.568472	0.032248
	N234	N	0.331207	0.569118	0.962868
	N235	N	0.332428	0.396506	0.033179
	N236	N	0.976602	0.664075	0.411358
	N237	N	0.045045	0.665742	0.587493
	N238	N	0.976936	0.302455	0.585657
	N239	N	0.045454	0.303703	0.411450
	N240	N	0.975752	0.396906	0.677085
	N241	N	0.045496	0.571638	0.679419
	N242	N	0.975784	0.569128	0.320316
	N243	N	0.045638	0.397167	0.319290
	N244	N	0.423186	0.663079	0.963060
	N245	N	0.598385	0.663385	0.030824
	N246	N	0.600150	0.300471	0.964548
	N247	N	0.423632	0.301969	0.032379
	N248	N	0.691429	0.948191	0.411232
	N249	N	0.691264	0.017870	0.585496
	N250	N	0.329507	0.949109	0.584680
	N251	N	0.330954	0.017947	0.410602
	N252	N	0.923747	0.449591	0.178908
	N253	N	0.098624	0.516995	0.179290
	N254	N	0.097533	0.448250	0.817672
	N255	N	0.921425	0.516164	0.815299
	N256	N	0.188578	0.898651	0.462720
	N257	N	0.191536	0.071606	0.531962
	N258	N	0.831952	0.069471	0.463662
	N259	N	0.831664	0.896797	0.534132
	N260	N	0.477244	0.163849	0.909716
	N261	N	0.545564	0.162920	0.085318
	N262	N	0.477027	0.800137	0.086259
	N263	N	0.543932	0.802091	0.909706
	N264	N	0.476164	0.895935	0.176292
	N265	N	0.546531	0.067773	0.175699
	N266	N	0.475065	0.068391	0.819270
	N267	N	0.544302	0.895858	0.817906
	N268	N	0.924143	0.163307	0.463509
	N269	N	0.099156	0.164725	0.532029
	N270	N	0.097502	0.803653	0.464853
	N271	N	0.922408	0.802280	0.532676
	N272	N	0.192690	0.449088	0.909127
	N273	N	0.191508	0.517367	0.085020
	N274	N	0.829842	0.449787	0.085867
	N275	N	0.830043	0.517674	0.910864
	O276	O	0.050523	0.986312	-0.133161
	H277	H	0.034065	0.972413	-0.134058
	H278	H	0.064256	0.971751	-0.126050
	O279	O	0.169710	0.889363	0.024358
	H280	H	0.163697	0.889005	0.023585
	H281	H	0.175457	0.884742	0.013282
	O282	O	1.074967	0.222100	0.947499
	H283	H	1.089043	0.227713	0.946937
	H284	H	1.077285	0.222171	0.938844
	O285	O	0.463011	0.544489	0.719228
	H286	H	0.464638	0.531746	0.714892
	H287	H	0.453281	0.544023	0.711586
	O288	O	0.299724	0.699103	0.461803
	H289	H	0.306880	0.698640	0.477870
	H290	H	0.284953	0.699507	0.474677
	O291	O	0.611190	0.704713	0.549978
	H292	H	0.616427	0.711030	0.550889
	H293	H	0.618395	0.707789	0.551009
	O294	O	0.948853	-0.025103	1.047719
	H295	H	0.945329	-0.041711	1.060612
	H296	H	0.945909	-0.025984	1.041952
	O297	O	0.065861	0.743979	0.039151
	H298	H	0.079379	0.742717	0.048999
	H299	H	0.076559	0.749223	0.058551
	O300	O	-0.206903	0.084246	1.052713
	H301	H	-0.193978	0.060313	1.042286
	H302	H	-0.206520	0.060398	1.066238
	O303	O	0.673075	0.616305	0.329827
	H304	H	0.645019	0.593679	0.331813
	H305	H	0.678193	0.607005	0.352069
	O306	O	0.742001	0.615458	0.483120
	H307	H	0.731858	0.618442	0.506320
	H308	H	0.758462	0.623662	0.470389
	O309	O	0.652762	0.455348	0.544022
	H310	H	0.652781	0.443473	0.539825
	H311	H	0.647563	0.462687	0.529813
	O312	O	0.681288	0.515870	0.677005
	H313	H	0.683461	0.500266	0.664968
	H314	H	0.694803	0.504635	0.674684
	O315	O	0.932434	0.758379	0.958635
	H316	H	0.951330	0.753396	0.972417
	H317	H	0.945469	0.762281	0.956877
	O318	O	0.601707	0.576898	0.505032
	H319	H	0.598574	0.582651	0.499624
	H320	H	0.593156	0.578461	0.501549
	O321	O	0.187691	0.922413	1.074400
	H322	H	0.175271	0.918352	1.084742
	H323	H	0.189723	0.933397	1.064183
	O324	O	0.916972	1.037795	0.200563
	H325	H	0.930435	1.031457	0.192319
	H326	H	0.895822	1.025927	0.212954
	O327	O	-0.214848	-0.056572	1.221253
	H328	H	-0.233043	-0.076972	1.241484
	H329	H	-0.219608	-0.088196	1.226500
	O330	O	0.563799	0.682817	0.408633
	H331	H	0.573247	0.672095	0.395552
	H332	H	0.559502	0.683443	0.390969
	O333	O	0.148066	0.968932	0.779365
	H334	H	0.145171	0.961043	0.767285
	H335	H	0.140261	0.961832	0.779920
	O336	O	0.292125	0.460840	0.712332
	H337	H	0.287864	0.440965	0.721639
	H338	H	0.281519	0.446779	0.727073
	O339	O	0.796680	0.208941	0.964327
	H340	H	0.765866	0.213685	0.973160
	H341	H	0.790648	0.185287	0.975005
	O342	O	-0.024587	-0.039100	-0.025965
	H343	H	-0.039940	-0.034910	-0.028820
	H344	H	-0.030640	-0.053825	-0.046651
	O345	O	-0.005784	0.942446	1.130729
	H346	H	-0.013620	0.932255	1.131153
	H347	H	-0.022769	0.947347	1.140554
	O348	O	-0.103106	0.134818	-0.183549
	H349	H	-0.109654	0.138216	-0.154525
	H350	H	-0.101999	0.142644	-0.196814
	O351	O	0.522952	0.286055	0.489069
	H352	H	0.519784	0.288793	0.487321
	H353	H	0.503758	0.286694	0.497060
	O354	O	-0.208827	-0.244172	1.036561
	H355	H	-0.229317	-0.263993	1.022121
	H356	H	-0.194970	-0.243807	1.012753
	O357	O	0.545255	0.554579	0.309003
	H358	H	0.536110	0.567701	0.310549
	H359	H	0.524105	0.537821	0.313393
	O360	O	0.357372	0.549960	0.505877
	H361	H	0.352722	0.538778	0.494436
	H362	H	0.347903	0.546826	0.505931
	O363	O	0.316865	0.287106	0.390673
	H364	H	0.334071	0.291548	0.398870
	H365	H	0.290878	0.264472	0.381535
	O366	O	0.413310	0.349989	0.313300
	H367	H	0.416106	0.347749	0.322937
	H368	H	0.417888	0.348468	0.322538
	O369	O	0.487467	0.264660	0.713563
	H370	H	0.477553	0.261952	0.727135
	H371	H	0.481027	0.268617	0.722760
	O372	O	1.232769	0.759506	-0.027345
	H373	H	1.242111	0.751082	-0.054411
	H374	H	1.242191	0.744624	-0.038675
	O375	O	0.986436	-0.246900	0.220828
	H376	H	0.954974	-0.241899	0.226875
	H377	H	0.964272	-0.264538	0.243255
	O378	O	-0.048200	0.929535	0.787125
	H379	H	-0.071305	0.922005	0.780585
	H380	H	-0.063900	0.934790	0.796921
	O381	O	0.104782	0.902161	0.928595
	H382	H	0.116812	0.918121	0.918679
	H383	H	0.097840	0.901265	0.938409
	O384	O	0.213301	-0.223884	0.205006
	H385	H	0.193685	-0.211678	0.198609
	H386	H	0.201464	-0.195377	0.182948
	O387	O	1.293733	1.517043	0.279423
	H388	H	1.295878	1.559581	0.278604
	H389	H	1.272807	1.515312	0.249706
	O390	O	0.320967	0.685598	0.298287
	H391	H	0.317457	0.692351	0.344024
	H392	H	0.293054	0.714041	0.275740
	O393	O	0.419798	0.353491	0.377735
	H394	H	0.418395	0.341689	0.382721
	H395	H	0.417198	0.338703	0.348526
	O396	O	-0.288786	0.678241	0.700630
	H397	H	-0.313639	0.658275	0.691996
	H398	H	-0.306633	0.654708	0.702409
	O399	O	0.028559	0.024624	1.209881
	H400	H	0.030452	0.030423	1.223607
	H401	H	0.038074	0.024433	1.200621
	O402	O	0.801037	0.203531	0.209692
	H403	H	0.819571	0.166924	0.196255
	H404	H	0.824371	0.206830	0.199184
	O405	O	1.216771	0.197971	1.204293
	H406	H	1.208886	0.200188	1.204136
	H407	H	1.203829	0.161844	1.210463
	O408	O	0.237709	0.015714	-0.089580
	H409	H	0.239670	0.016563	-0.102332
	H410	H	0.233439	0.027535	-0.100507
	O411	O	0.729136	0.260106	0.466255
	H412	H	0.714763	0.253734	0.480012
	H413	H	0.745048	0.237853	0.462840
	O414	O	0.704779	0.234972	0.689799
	H415	H	0.687528	0.255332	0.673694
	H416	H	0.694193	0.244554	0.720864
	O417	O	0.390331	0.667949	0.567162
	H418	H	0.404640	0.655616	0.550361
	H419	H	0.398686	0.655761	0.585853
	O420	O	0.720338	0.364251	0.621315
	H421	H	0.706182	0.371265	0.597374
	H422	H	0.712099	0.368999	0.603263
	O423	O	0.003737	-0.140027	1.163452
	H424	H	-0.014010	-0.157345	1.173621
	H425	H	-0.003465	-0.131461	1.122866
	O426	O	0.539391	0.703924	0.716681
	H427	H	0.533984	0.709739	0.731074
	H428	H	0.526360	0.707663	0.722058
	O429	O	0.998179	1.037493	0.973270
	H430	H	1.007663	1.042556	0.981993
	H431	H	0.994691	1.051611	0.981174
	O432	O	0.419867	0.364935	0.506776
	H433	H	0.430570	0.370592	0.494606
	H434	H	0.412669	0.369567	0.504633
	O435	O	0.199314	1.175190	-0.192117
	H436	H	0.169589	1.163021	-0.178459
	H437	H	0.187937	1.152653	-0.171893
	O438	O	-0.050942	0.218607	0.051463
	H439	H	-0.066908	0.222367	0.025674
	H440	H	-0.036238	0.208908	0.037636
	O441	O	0.216374	0.053434	0.127230
	H442	H	0.234820	0.033967	0.130001
	H443	H	0.192511	0.037165	0.122032
	O444	O	0.484206	0.688747	0.281786
	H445	H	0.452716	0.697004	0.274744
	H446	H	0.473961	0.689290	0.265688
	O447	O	-0.188083	0.784882	0.808805
	H448	H	-0.178237	0.762931	0.798500
	H449	H	-0.180060	0.764196	0.798730
	O450	O	0.301870	1.273044	0.708084
	H451	H	0.319879	1.277819	0.690397
	H452	H	0.269594	1.240675	0.739660
	O453	O	0.718925	0.443942	0.288189
	H454	H	0.732643	0.434591	0.266885
	H455	H	0.712520	0.430623	0.285177
	O456	O	0.344818	0.579274	0.644571
	H457	H	0.355026	0.570352	0.641909
	H458	H	0.356656	0.569678	0.631920
	O459	O	0.759602	0.733066	0.242739
	H460	H	0.747368	0.719741	0.216256
	H461	H	0.731455	0.702665	0.266719
	O462	O	0.543761	0.260538	0.273224
	H463	H	0.563701	0.242625	0.256841
	H464	H	0.566451	0.253536	0.270568
	O465	O	0.987396	0.200075	-0.214510
	H466	H	0.980515	0.195630	-0.218898
	H467	H	0.977793	0.203898	-0.227144
	O468	O	0.696563	0.314793	0.316410
	H469	H	0.724111	0.292565	0.290621
	H470	H	0.699301	0.327881	0.336264
	O471	O	0.289091	0.349260	0.495806
	H472	H	0.285273	0.346645	0.493838
	H473	H	0.287168	0.340345	0.500684
	O474	O	0.455805	0.441803	0.456753
	H475	H	0.440232	0.437898	0.458795
	H476	H	0.452922	0.438146	0.436392
	O477	O	0.000057	0.767509	1.791563
	H478	H	0.013169	0.764183	1.805638
	H479	H	0.008931	0.771059	1.775658
	O480	O	0.510381	0.479882	0.717127
	H481	H	0.520626	0.488961	0.704725
	H482	H	0.509723	0.473773	0.711057
	O483	O	0.557239	0.388216	0.646899
	H484	H	0.552165	0.383651	0.644522
	H485	H	0.557318	0.395584	0.637603
	O486	O	1.232534	-0.170356	0.782300
	H487	H	1.242663	-0.172053	0.757095
	H488	H	1.221459	-0.169345	0.770325
	O489	O	1.229121	1.206242	0.012609
	H490	H	1.248566	1.217095	0.034507
	H491	H	1.227483	1.207540	0.034637
	O492	O	-0.176444	-0.081481	-0.022103
	H493	H	-0.167212	-0.097622	-0.034270
	H494	H	-0.178132	-0.085261	-0.033583
	O495	O	-0.206269	1.018210	0.773523
	H496	H	-0.218056	1.044427	0.763950
	H497	H	-0.224322	1.039542	0.762955
	O498	O	1.045690	1.211123	1.219632
	H499	H	1.030252	1.223965	1.211872
	H500	H	1.053581	1.233857	1.230322
	O501	O	0.561892	0.436886	0.511444
	H502	H	0.568084	0.430098	0.502850
	H503	H	0.556400	0.433865	0.498181
