data_Molecule from HDF5

_cell_length_a		16.342119
_cell_length_b		16.345749
_cell_length_c		16.144193
_cell_angle_alpha	90.117179
_cell_angle_beta	90.225044
_cell_angle_gamma	90.116695
_symmetry_space_group_name_H-M	'P 1'
_symmetry_Int_Tables_number		1

loop_
	_symmetry_equiv_pos_as_xyz
	x,y,z

loop_
	_atom_site_label
	_atom_site_type_symbol
	_atom_site_fract_x
	_atom_site_fract_y
	_atom_site_fract_z
	H0	H	0.405959	0.839294	0.714894
	H1	H	0.598738	0.167548	0.717070
	H2	H	0.597907	0.839367	0.290675
	H3	H	0.404655	0.166874	0.288798
	H4	H	0.713915	0.404530	0.838443
	H5	H	0.714357	0.601573	0.167520
	H6	H	0.287422	0.600252	0.838525
	H7	H	0.287898	0.404920	0.168397
	H8	H	0.840484	0.720179	0.402554
	H9	H	0.165452	0.719874	0.603813
	H10	H	0.840333	0.286221	0.603378
	H11	H	0.164718	0.288200	0.403410
	H12	H	0.838021	0.406723	0.714345
	H13	H	0.165390	0.601003	0.718198
	H14	H	0.838056	0.601325	0.289650
	H15	H	0.165610	0.407635	0.290164
	H16	H	0.403047	0.716546	0.838584
	H17	H	0.601130	0.717472	0.167245
	H18	H	0.597475	0.289547	0.838265
	H19	H	0.402838	0.289308	0.167910
	H20	H	0.717043	0.841269	0.404253
	H21	H	0.718449	0.167224	0.604121
	H22	H	0.285415	0.841593	0.603400
	H23	H	0.285672	0.166171	0.402658
	H24	H	0.904993	0.340101	0.215895
	H25	H	0.097031	0.667941	0.215556
	H26	H	0.096853	0.339715	0.790108
	H27	H	0.904529	0.667988	0.789767
	H28	H	0.216099	0.903924	0.339684
	H29	H	0.218084	0.104199	0.667458
	H30	H	0.787826	0.101369	0.338818
	H31	H	0.789025	0.905634	0.668240
	H32	H	0.338656	0.218086	0.902966
	H33	H	0.662758	0.221009	0.105984
	H34	H	0.339116	0.787493	0.102521
	H35	H	0.664144	0.786153	0.902921
	H36	H	0.338199	0.905936	0.216446
	H37	H	0.665611	0.100097	0.217126
	H38	H	0.338073	0.099708	0.788905
	H39	H	0.665626	0.905755	0.789513
	H40	H	0.902173	0.217608	0.338534
	H41	H	0.101809	0.218771	0.667378
	H42	H	0.100259	0.790768	0.338885
	H43	H	0.903541	0.789358	0.667994
	H44	H	0.215612	0.340424	0.903686
	H45	H	0.217746	0.665399	0.104299
	H46	H	0.785217	0.340908	0.101888
	H47	H	0.784045	0.666455	0.902307
	H48	H	0.414572	0.118570	0.595430
	H49	H	0.597198	0.886837	0.599706
	H50	H	0.591395	0.118331	0.411081
	H51	H	0.386945	0.882641	0.416034
	H52	H	0.591199	0.401138	0.122638
	H53	H	0.596192	0.593868	0.884029
	H54	H	0.396103	0.594281	0.124618
	H55	H	0.408417	0.395046	0.880915
	H56	H	0.119933	0.593466	0.399274
	H57	H	0.884488	0.599149	0.598390
	H58	H	0.118321	0.417398	0.599323
	H59	H	0.887242	0.411273	0.411542
	H60	H	0.120928	0.404892	0.599715
	H61	H	0.886748	0.601377	0.591873
	H62	H	0.121468	0.609766	0.411145
	H63	H	0.885861	0.409537	0.408510
	H64	H	0.415600	0.586524	0.116330
	H65	H	0.589199	0.593085	0.887334
	H66	H	0.602919	0.415635	0.122479
	H67	H	0.394461	0.416829	0.884141
	H68	H	0.598118	0.119561	0.415157
	H69	H	0.593763	0.889314	0.594827
	H70	H	0.404578	0.119308	0.591625
	H71	H	0.414699	0.883272	0.389819
	H72	H	0.907704	0.620342	0.098648
	H73	H	0.086389	0.390432	0.092483
	H74	H	0.085224	0.617863	0.907505
	H75	H	0.907757	0.387500	0.907103
	H76	H	0.099555	0.915866	0.621165
	H77	H	0.109122	0.093573	0.381724
	H78	H	0.907753	0.099823	0.622700
	H79	H	0.904595	0.921706	0.387246
	H80	H	0.618093	0.102402	0.913890
	H81	H	0.380427	0.109965	0.098629
	H82	H	0.619633	0.908164	0.100621
	H83	H	0.381591	0.900111	0.903767
	H84	H	0.617644	0.906486	0.093398
	H85	H	0.390278	0.093354	0.081692
	H86	H	0.615060	0.093016	0.915550
	H87	H	0.389104	0.907562	0.921201
	H88	H	0.909135	0.090811	0.619725
	H89	H	0.085987	0.084154	0.391490
	H90	H	0.089216	0.914786	0.618944
	H91	H	0.920114	0.909849	0.389002
	H92	H	0.096823	0.616383	0.922220
	H93	H	0.102036	0.386488	0.090002
	H94	H	0.907804	0.619348	0.093939
	H95	H	0.907688	0.389838	0.911814
	H96	H	0.406784	0.121842	0.601053
	H97	H	0.599886	0.887616	0.593112
	H98	H	0.597796	0.121644	0.406720
	H99	H	0.421015	0.896611	0.425583
	H100	H	0.585399	0.417264	0.116273
	H101	H	0.591517	0.599439	0.884439
	H102	H	0.413986	0.609041	0.123483
	H103	H	0.419467	0.416478	0.891544
	H104	H	0.114187	0.592205	0.418768
	H105	H	0.887857	0.594653	0.594029
	H106	H	0.115739	0.410020	0.589052
	H107	H	0.885839	0.407462	0.411743
	H108	H	0.904000	0.620473	0.096326
	H109	H	0.095572	0.384479	0.104264
	H110	H	0.102694	0.623633	0.905853
	H111	H	0.903107	0.387118	0.909889
	H112	H	0.094129	0.906536	0.622736
	H113	H	0.087665	0.109264	0.383631
	H114	H	0.915866	0.097089	0.618989
	H115	H	0.903651	0.902811	0.382695
	H116	H	0.618531	0.095655	0.906390
	H117	H	0.385871	0.086013	0.105780
	H118	H	0.616452	0.913557	0.096012
	H119	H	0.387242	0.919519	0.905082
	C120	C	0.380411	0.011813	0.624379
	C121	C	0.625050	0.995748	0.625265
	C122	C	0.623490	0.012027	0.382353
	C123	C	0.379477	0.995157	0.381489
	C124	C	0.621346	0.382486	0.011554
	C125	C	0.621700	0.624495	0.994117
	C126	C	0.380105	0.624596	0.012338
	C127	C	0.379387	0.381525	0.994579
	C128	C	0.010534	0.626154	0.381706
	C129	C	0.994168	0.626459	0.624756
	C130	C	0.010340	0.381803	0.624507
	C131	C	0.993766	0.381366	0.381366
	C132	C	0.878683	0.512275	0.124705
	C133	C	0.123193	0.494937	0.125132
	C134	C	0.122548	0.511571	0.882375
	C135	C	0.878399	0.495736	0.880592
	C136	C	0.122897	0.883453	0.512167
	C137	C	0.123533	0.124654	0.494449
	C138	C	0.881810	0.124560	0.511642
	C139	C	0.880858	0.882471	0.494974
	C140	C	0.509605	0.124911	0.882204
	C141	C	0.493383	0.125095	0.125327
	C142	C	0.510331	0.881032	0.125366
	C143	C	0.493570	0.880918	0.881173
	C144	C	0.384455	0.888477	0.678296
	C145	C	0.620705	0.118691	0.679878
	C146	C	0.619314	0.888555	0.327882
	C147	C	0.383132	0.118134	0.326426
	C148	C	0.675794	0.384387	0.887478
	C149	C	0.677141	0.622270	0.118234
	C150	C	0.325157	0.621170	0.887687
	C151	C	0.325073	0.384461	0.118921
	C152	C	0.888234	0.681144	0.383659
	C153	C	0.116770	0.681698	0.623640
	C154	C	0.888412	0.325482	0.622687
	C155	C	0.116288	0.326447	0.383433
	C156	C	0.887335	0.385408	0.677955
	C157	C	0.116907	0.622497	0.680105
	C158	C	0.887003	0.621931	0.327456
	C159	C	0.116739	0.385693	0.327054
	C160	C	0.382781	0.678691	0.887745
	C161	C	0.620693	0.679571	0.118205
	C162	C	0.618269	0.327068	0.887574
	C163	C	0.381784	0.326938	0.118746
	C164	C	0.678637	0.889443	0.384206
	C165	C	0.680476	0.118262	0.624133
	C166	C	0.324612	0.889466	0.622731
	C167	C	0.323824	0.117584	0.382645
	C168	C	0.883314	0.388944	0.178524
	C169	C	0.119044	0.618595	0.179139
	C170	C	0.118381	0.388724	0.827238
	C171	C	0.882708	0.618905	0.826636
	C172	C	0.177732	0.884960	0.388414
	C173	C	0.179581	0.123551	0.618381
	C174	C	0.825571	0.122361	0.387831
	C175	C	0.826370	0.885132	0.618949
	C176	C	0.386984	0.179367	0.883679
	C177	C	0.614976	0.181598	0.124675
	C178	C	0.387578	0.826078	0.122570
	C179	C	0.616169	0.825519	0.883595
	C180	C	0.387058	0.884854	0.179108
	C181	C	0.616417	0.121596	0.180044
	C182	C	0.386866	0.120649	0.826604
	C183	C	0.616728	0.884493	0.826920
	C184	C	0.882907	0.179456	0.387519
	C185	C	0.122179	0.180739	0.618209
	C186	C	0.120372	0.828493	0.388048
	C187	C	0.883409	0.827387	0.618811
	C188	C	0.177657	0.389045	0.883644
	C189	C	0.179024	0.617318	0.123880
	C190	C	0.823964	0.389435	0.121846
	C191	C	0.822964	0.618189	0.882787
	C192	C	0.402275	0.097725	0.602399
	C193	C	0.603475	0.909980	0.602550
	C194	C	0.602051	0.097688	0.404502
	C195	C	0.401065	0.909690	0.403863
	C196	C	0.599623	0.404719	0.098094
	C197	C	0.598916	0.602186	0.907508
	C198	C	0.402154	0.603049	0.099090
	C199	C	0.400991	0.403170	0.907922
	C200	C	0.096325	0.604989	0.403356
	C201	C	0.908557	0.604915	0.601693
	C202	C	0.096323	0.404132	0.602415
	C203	C	0.908121	0.402987	0.403956
	C204	C	0.900128	0.597993	0.102874
	C205	C	0.101129	0.409329	0.102431
	C206	C	0.101300	0.597070	0.905239
	C207	C	0.899889	0.410219	0.902909
	C208	C	0.100935	0.905791	0.598663
	C209	C	0.101069	0.102154	0.408071
	C210	C	0.904368	0.102506	0.598157
	C211	C	0.902888	0.904863	0.408510
	C212	C	0.595348	0.103399	0.905253
	C213	C	0.407581	0.102800	0.102308
	C214	C	0.595907	0.902895	0.103360
	C215	C	0.408107	0.902591	0.903411
	Zn216	Zn	0.502406	0.003388	0.752807
	Zn217	Zn	0.501606	0.003280	0.253608
	Zn218	Zn	0.749074	0.503774	0.002485
	Zn219	Zn	0.251970	0.502805	0.003530
	Zn220	Zn	0.002775	0.755532	0.503160
	Zn221	Zn	0.002297	0.252579	0.502823
	Zn222	Zn	0.001673	0.503866	0.752642
	Zn223	Zn	0.001789	0.503870	0.253495
	Zn224	Zn	0.502002	0.752194	0.003373
	Zn225	Zn	0.500502	0.253893	0.003796
	Zn226	Zn	0.753136	0.004230	0.503073
	Zn227	Zn	0.251034	0.003564	0.503006
	N228	N	0.418391	0.965601	0.679335
	N229	N	0.587326	0.041412	0.680904
	N230	N	0.585794	0.965727	0.326725
	N231	N	0.417088	0.041207	0.325535
	N232	N	0.677925	0.417892	0.965590
	N233	N	0.677939	0.588840	0.039937
	N234	N	0.323210	0.588386	0.966142
	N235	N	0.323386	0.417800	0.040635
	N236	N	0.965820	0.683850	0.416645
	N237	N	0.039300	0.684277	0.589814
	N238	N	0.966072	0.322985	0.590392
	N239	N	0.038656	0.323666	0.416315
	N240	N	0.964256	0.419857	0.678876
	N241	N	0.039763	0.588969	0.680782
	N242	N	0.964178	0.588391	0.325989
	N243	N	0.039580	0.419085	0.325580
	N244	N	0.416256	0.680788	0.966047
	N245	N	0.586797	0.680990	0.040108
	N246	N	0.585068	0.325887	0.965832
	N247	N	0.414757	0.325041	0.040658
	N248	N	0.681120	0.967015	0.417479
	N249	N	0.682979	0.040702	0.590669
	N250	N	0.321992	0.967119	0.590019
	N251	N	0.321579	0.040212	0.416102
	N252	N	0.916479	0.466288	0.180586
	N253	N	0.085113	0.541388	0.179942
	N254	N	0.084784	0.465847	0.826549
	N255	N	0.916064	0.541774	0.824845
	N256	N	0.179298	0.918525	0.466471
	N257	N	0.180584	0.089461	0.540368
	N258	N	0.824973	0.088735	0.465818
	N259	N	0.824661	0.918603	0.540965
	N260	N	0.464308	0.182154	0.917472
	N261	N	0.537408	0.183741	0.091318
	N262	N	0.465278	0.823588	0.089878
	N263	N	0.538752	0.823362	0.916890
	N264	N	0.464209	0.918509	0.180762
	N265	N	0.539514	0.087114	0.180410
	N266	N	0.464169	0.087381	0.825908
	N267	N	0.539673	0.918145	0.825271
	N268	N	0.917188	0.180836	0.465504
	N269	N	0.088004	0.181452	0.540423
	N270	N	0.087156	0.827255	0.466116
	N271	N	0.916636	0.825708	0.540518
	N272	N	0.180412	0.466495	0.917098
	N273	N	0.181821	0.539501	0.091013
	N274	N	0.820852	0.467128	0.089212
	N275	N	0.820116	0.540527	0.915613
	O276	O	0.587665	0.505313	0.539785
	H277	H	0.589944	0.510325	0.529056
	H278	H	0.588820	0.517431	0.540941
	O279	O	0.034179	0.052680	-0.065953
	H280	H	0.041344	0.063934	-0.058636
	H281	H	0.022135	0.061232	-0.067303
	O282	O	0.543175	0.500344	0.580605
	H283	H	0.541320	0.500155	0.583759
	H284	H	0.546699	0.507202	0.586963
	O285	O	-0.029070	0.044873	-0.057299
	H286	H	-0.029331	0.043571	-0.056342
	H287	H	-0.028307	0.039845	-0.055051
	O288	O	1.052981	0.034945	0.009868
	H289	H	1.055460	0.026699	-0.002539
	H290	H	1.056415	0.040060	0.010190
	O291	O	-0.453709	0.523481	-0.543697
	H292	H	-0.461718	0.521018	-0.545688
	H293	H	-0.448554	0.518993	-0.552438
	O294	O	0.610762	0.522523	0.532243
	H295	H	0.614162	0.519692	0.532866
	H296	H	0.621077	0.520075	0.531408
	O297	O	-0.415836	1.486394	0.502957
	H298	H	-0.422153	1.483494	0.506937
	H299	H	-0.420515	1.479814	0.518237
	O300	O	1.536294	-0.493566	0.536810
	H301	H	1.542327	-0.489133	0.535461
	H302	H	1.537464	-0.492353	0.536663
	O303	O	0.591312	0.519423	0.510429
	H304	H	0.598580	0.525179	0.512088
	H305	H	0.587553	0.514389	0.510484
	O306	O	0.033776	1.056811	0.977251
	H307	H	0.030983	1.054634	0.972608
	H308	H	0.031407	1.049600	0.974295
	O309	O	1.021734	1.079104	0.946099
	H310	H	1.027588	1.087995	0.948017
	H311	H	1.020957	1.083997	0.951760
