data_Molecule from HDF5

_cell_length_a		16.560859
_cell_length_b		16.543561
_cell_length_c		16.647436
_cell_angle_alpha	89.995019
_cell_angle_beta	90.112440
_cell_angle_gamma	89.912836
_symmetry_space_group_name_H-M	'P 1'
_symmetry_Int_Tables_number		1

loop_
	_symmetry_equiv_pos_as_xyz
	x,y,z

loop_
	_atom_site_label
	_atom_site_type_symbol
	_atom_site_fract_x
	_atom_site_fract_y
	_atom_site_fract_z
	H0	H	0.388896	0.829783	0.710400
	H1	H	0.600468	0.141641	0.715498
	H2	H	0.595999	0.831504	0.269909
	H3	H	0.384699	0.144304	0.268861
	H4	H	0.713250	0.381287	0.835891
	H5	H	0.710844	0.589282	0.147742
	H6	H	0.268171	0.591404	0.836014
	H7	H	0.269933	0.381121	0.147727
	H8	H	0.833127	0.705725	0.388995
	H9	H	0.149328	0.703354	0.592465
	H10	H	0.833354	0.266004	0.595164
	H11	H	0.147859	0.266678	0.388329
	H12	H	0.833418	0.383151	0.711027
	H13	H	0.148384	0.588056	0.710823
	H14	H	0.833695	0.590647	0.271076
	H15	H	0.146348	0.381028	0.270046
	H16	H	0.384593	0.708142	0.835538
	H17	H	0.593817	0.705942	0.147978
	H18	H	0.595723	0.266119	0.835084
	H19	H	0.385931	0.264080	0.146944
	H20	H	0.710564	0.830202	0.387749
	H21	H	0.715133	0.142358	0.597912
	H22	H	0.274283	0.829130	0.591837
	H23	H	0.269932	0.144541	0.385455
	H24	H	0.881732	0.331423	0.215785
	H25	H	0.093991	0.642968	0.211615
	H26	H	0.096543	0.329398	0.769484
	H27	H	0.886678	0.644108	0.772018
	H28	H	0.210179	0.885500	0.333962
	H29	H	0.213163	0.091897	0.646835
	H30	H	0.770798	0.091294	0.334696
	H31	H	0.771677	0.883302	0.647463
	H32	H	0.337050	0.210920	0.882555
	H33	H	0.648382	0.206765	0.094429
	H34	H	0.333675	0.767768	0.094649
	H35	H	0.646872	0.764487	0.887496
	H36	H	0.334455	0.883858	0.211595
	H37	H	0.647135	0.093485	0.213544
	H38	H	0.337055	0.093995	0.766270
	H39	H	0.646776	0.878574	0.769707
	H40	H	0.885603	0.208892	0.335818
	H41	H	0.095169	0.206463	0.647692
	H42	H	0.092996	0.768241	0.333756
	H43	H	0.891167	0.769512	0.648459
	H44	H	0.212833	0.329474	0.885512
	H45	H	0.209736	0.643246	0.095510
	H46	H	0.768996	0.330126	0.097033
	H47	H	0.772371	0.644843	0.889390
	H48	H	0.395843	0.100553	0.578322
	H49	H	0.581399	0.876115	0.577019
	H50	H	0.579329	0.099501	0.402284
	H51	H	0.408628	0.877895	0.399791
	H52	H	0.579087	0.394676	0.103678
	H53	H	0.577951	0.574334	0.880341
	H54	H	0.398060	0.568536	0.100754
	H55	H	0.402609	0.401386	0.882375
	H56	H	0.103798	0.578749	0.402375
	H57	H	0.879285	0.573362	0.582839
	H58	H	0.101597	0.399579	0.583745
	H59	H	0.879234	0.401858	0.398402
	H60	H	0.104124	0.393853	0.582522
	H61	H	0.876118	0.579925	0.585240
	H62	H	0.102310	0.573630	0.401318
	H63	H	0.876973	0.393552	0.403632
	H64	H	0.408881	0.580297	0.102365
	H65	H	0.580330	0.578061	0.878869
	H66	H	0.583793	0.398246	0.103158
	H67	H	0.404391	0.397814	0.881072
	H68	H	0.579775	0.099759	0.402637
	H69	H	0.582616	0.873410	0.582056
	H70	H	0.406215	0.100905	0.586780
	H71	H	0.398278	0.875895	0.406487
	H72	H	0.905092	0.597388	0.080519
	H73	H	0.079240	0.373836	0.080276
	H74	H	0.081400	0.596744	0.906118
	H75	H	0.904441	0.372718	0.892877
	H76	H	0.087893	0.895308	0.605271
	H77	H	0.080538	0.072399	0.380699
	H78	H	0.905721	0.069522	0.599253
	H79	H	0.902745	0.893057	0.378120
	H80	H	0.604806	0.077835	0.903927
	H81	H	0.379906	0.073513	0.081979
	H82	H	0.602960	0.895464	0.078439
	H83	H	0.378721	0.899398	0.898671
	H84	H	0.602533	0.899579	0.082418
	H85	H	0.378315	0.078178	0.078355
	H86	H	0.601687	0.073209	0.905449
	H87	H	0.378162	0.896523	0.901176
	H88	H	0.906171	0.081248	0.603174
	H89	H	0.076056	0.077873	0.381186
	H90	H	0.081963	0.898642	0.601908
	H91	H	0.897223	0.896734	0.377617
	H92	H	0.080811	0.600024	0.899058
	H93	H	0.079932	0.373097	0.082173
	H94	H	0.899911	0.598603	0.078340
	H95	H	0.907289	0.378007	0.906618
	H96	H	0.408092	0.096053	0.575236
	H97	H	0.577486	0.876146	0.581163
	H98	H	0.579299	0.099501	0.401715
	H99	H	0.399194	0.872372	0.394419
	H100	H	0.578117	0.400676	0.101072
	H101	H	0.582186	0.574338	0.880102
	H102	H	0.393881	0.582400	0.107017
	H103	H	0.400720	0.398840	0.880186
	H104	H	0.105045	0.576679	0.397104
	H105	H	0.878692	0.579187	0.577854
	H106	H	0.101266	0.397076	0.578172
	H107	H	0.881633	0.401293	0.408283
	H108	H	0.900769	0.598991	0.084328
	H109	H	0.078143	0.374624	0.081635
	H110	H	0.074705	0.595970	0.901708
	H111	H	0.893734	0.372050	0.903552
	H112	H	0.081278	0.891295	0.603986
	H113	H	0.082579	0.078052	0.378178
	H114	H	0.896646	0.074328	0.604533
	H115	H	0.902362	0.899402	0.380731
	H116	H	0.603770	0.073576	0.899860
	H117	H	0.380923	0.073173	0.076366
	H118	H	0.605099	0.894658	0.083608
	H119	H	0.379608	0.900162	0.902065
	C120	C	0.371471	-0.004712	0.611610
	C121	C	0.613690	0.978492	0.612685
	C122	C	0.611668	-0.003846	0.370122
	C123	C	0.369729	0.979366	0.368578
	C124	C	0.612768	0.365349	-0.000299
	C125	C	0.611532	0.607213	0.983182
	C126	C	0.368131	0.608740	0.000111
	C127	C	0.370060	0.365591	0.983479
	C128	C	-0.000413	0.608081	0.369359
	C129	C	0.982687	0.607319	0.612404
	C130	C	-0.001341	0.365127	0.612752
	C131	C	0.982301	0.365927	0.371031
	C132	C	0.869024	0.495284	0.113104
	C133	C	0.110918	0.477637	0.112872
	C134	C	0.111534	0.494135	0.869987
	C135	C	0.869674	0.478232	0.870124
	C136	C	0.113591	0.864839	0.499558
	C137	C	0.112410	0.108179	0.482811
	C138	C	0.869928	0.107908	0.499476
	C139	C	0.869936	0.865227	0.482289
	C140	C	0.500521	0.108034	0.869426
	C141	C	0.483092	0.107687	0.111458
	C142	C	0.499735	0.865494	0.112975
	C143	C	0.482427	0.865747	0.869657
	C144	C	0.369976	0.876872	0.670476
	C145	C	0.617695	0.095146	0.674403
	C146	C	0.613937	0.878156	0.310426
	C147	C	0.366770	0.097164	0.308747
	C148	C	0.673170	0.362869	0.882638
	C149	C	0.671004	0.608661	0.100837
	C150	C	0.308311	0.610094	0.882727
	C151	C	0.309934	0.362697	0.100805
	C152	C	0.880763	0.666929	0.368868
	C153	C	0.101918	0.664479	0.612122
	C154	C	0.880474	0.305921	0.613726
	C155	C	0.100488	0.306044	0.369404
	C156	C	0.880219	0.363994	0.671359
	C157	C	0.101373	0.607540	0.670967
	C158	C	0.880882	0.609750	0.310470
	C159	C	0.099758	0.362894	0.310630
	C160	C	0.366163	0.668256	0.882629
	C161	C	0.612805	0.666417	0.100940
	C162	C	0.614590	0.305817	0.882059
	C163	C	0.367643	0.304515	0.100380
	C164	C	0.671008	0.877630	0.368717
	C165	C	0.674726	0.095528	0.615902
	C166	C	0.313037	0.876600	0.611784
	C167	C	0.309718	0.097148	0.366958
	C168	C	0.864825	0.378112	0.174619
	C169	C	0.112756	0.595988	0.171959
	C170	C	0.114513	0.376447	0.809732
	C171	C	0.868228	0.596956	0.811610
	C172	C	0.170839	0.865631	0.380911
	C173	C	0.172590	0.109987	0.600073
	C174	C	0.810032	0.110056	0.381769
	C175	C	0.811408	0.864528	0.600413
	C176	C	0.383541	0.170035	0.864895
	C177	C	0.601009	0.167659	0.113489
	C178	C	0.380971	0.807309	0.113770
	C179	C	0.599845	0.804658	0.868405
	C180	C	0.381462	0.864781	0.172047
	C181	C	0.600419	0.111217	0.172538
	C182	C	0.383862	0.112076	0.807099
	C183	C	0.599959	0.861660	0.810022
	C184	C	0.867204	0.168601	0.382269
	C185	C	0.114030	0.167089	0.600663
	C186	C	0.112697	0.807550	0.380906
	C187	C	0.870435	0.807776	0.600908
	C188	C	0.172366	0.376407	0.867390
	C189	C	0.170162	0.595958	0.114059
	C190	C	0.808795	0.377247	0.115378
	C191	C	0.811558	0.597201	0.870184
	C192	C	0.396388	0.077735	0.587222
	C193	C	0.587868	0.896363	0.587273
	C194	C	0.586636	0.078290	0.395129
	C195	C	0.394983	0.896920	0.393147
	C196	C	0.587269	0.390648	0.081359
	C197	C	0.587087	0.582514	0.901171
	C198	C	0.393178	0.584134	0.082085
	C199	C	0.395360	0.391831	0.902304
	C200	C	0.082266	0.583398	0.393425
	C201	C	0.899607	0.584049	0.588757
	C202	C	0.080949	0.390143	0.588504
	C203	C	0.900517	0.391763	0.396294
	C204	C	0.894796	0.577037	0.088001
	C205	C	0.086046	0.395214	0.088386
	C206	C	0.086203	0.576279	0.895071
	C207	C	0.894691	0.395553	0.894112
	C208	C	0.090511	0.888420	0.582086
	C209	C	0.086920	0.083438	0.401157
	C210	C	0.895366	0.082419	0.581059
	C211	C	0.893800	0.889309	0.400246
	C212	C	0.582178	0.082324	0.895725
	C213	C	0.401227	0.082296	0.086001
	C214	C	0.582087	0.889727	0.088675
	C215	C	0.400284	0.891378	0.893767
	Zn216	Zn	0.492452	-0.013235	0.740829
	Zn217	Zn	0.491150	-0.012105	0.240774
	Zn218	Zn	0.741652	0.486568	-0.008336
	Zn219	Zn	0.239658	0.485833	-0.007984
	Zn220	Zn	-0.008771	0.735977	0.491047
	Zn221	Zn	-0.009030	0.236574	0.491525
	Zn222	Zn	-0.009681	0.486472	0.741337
	Zn223	Zn	-0.009979	0.486228	0.241626
	Zn224	Zn	0.490184	0.737133	-0.008580
	Zn225	Zn	0.491687	0.236881	-0.008836
	Zn226	Zn	0.740933	-0.012889	0.490418
	Zn227	Zn	0.242105	-0.012525	0.490731
	N228	N	0.405403	0.951837	0.670727
	N229	N	0.580591	0.021125	0.672516
	N230	N	0.577829	0.952834	0.311026
	N231	N	0.403559	0.022718	0.309670
	N232	N	0.672399	0.399081	0.956924
	N233	N	0.670341	0.572654	0.026573
	N234	N	0.309051	0.573967	0.957047
	N235	N	0.310925	0.399833	0.026924
	N236	N	0.955566	0.666177	0.404544
	N237	N	0.027030	0.664574	0.576690
	N238	N	0.955260	0.306359	0.578239
	N239	N	0.026352	0.307724	0.406318
	N240	N	0.954870	0.399992	0.671023
	N241	N	0.026064	0.572786	0.671428
	N242	N	0.955817	0.573989	0.310570
	N243	N	0.025270	0.399283	0.311549
	N244	N	0.402590	0.667412	0.956673
	N245	N	0.576422	0.665745	0.026688
	N246	N	0.577837	0.307312	0.955887
	N247	N	0.403997	0.306039	0.026361
	N248	N	0.669801	0.951966	0.405258
	N249	N	0.672315	0.021701	0.578282
	N250	N	0.313626	0.951569	0.576001
	N251	N	0.311347	0.022817	0.403495
	N252	N	0.901689	0.452371	0.173506
	N253	N	0.076591	0.521496	0.171339
	N254	N	0.077493	0.450720	0.811171
	N255	N	0.903696	0.521776	0.811294
	N256	N	0.171628	0.900305	0.455799
	N257	N	0.171928	0.074169	0.525624
	N258	N	0.811313	0.073384	0.455766
	N259	N	0.810606	0.899324	0.525565
	N260	N	0.457155	0.167798	0.902868
	N261	N	0.526955	0.165682	0.076326
	N262	N	0.455511	0.807418	0.077920
	N263	N	0.525543	0.806914	0.904717
	N264	N	0.456491	0.900017	0.171851
	N265	N	0.526076	0.074799	0.171419
	N266	N	0.457760	0.074515	0.809575
	N267	N	0.525757	0.898671	0.810325
	N268	N	0.903544	0.167562	0.456456
	N269	N	0.077430	0.166240	0.526678
	N270	N	0.078186	0.806444	0.455882
	N271	N	0.905793	0.807764	0.526396
	N272	N	0.170810	0.450676	0.904309
	N273	N	0.169477	0.521187	0.078159
	N274	N	0.811298	0.451088	0.077930
	N275	N	0.812262	0.522376	0.905736
	O276	O	0.534276	0.696262	-0.576499
	H277	H	0.528861	0.693847	-0.574062
	H278	H	0.521125	0.700937	-0.595954
	O279	O	0.306099	0.673252	0.681799
	H280	H	0.316956	0.651695	0.660226
	H281	H	0.328093	0.655425	0.675453
	O282	O	0.579601	0.420193	0.706205
	H283	H	0.602218	0.424188	0.709182
	H284	H	0.575986	0.409370	0.702472
	O285	O	0.847564	0.188049	1.132094
	H286	H	0.856469	0.175570	1.132526
	H287	H	0.883955	0.186341	1.116013
	O288	O	-0.054322	0.791817	1.011506
	H289	H	-0.051263	0.798427	1.029268
	H290	H	-0.064392	0.776585	1.012762
	O291	O	0.278531	0.267745	0.527233
	H292	H	0.268819	0.249798	0.527362
	H293	H	0.283775	0.264606	0.512861
	O294	O	0.959172	-0.232454	1.210456
	H295	H	0.945420	-0.257264	1.224500
	H296	H	0.930808	-0.237579	1.211642
	O297	O	0.683422	0.451797	0.517501
	H298	H	0.693006	0.450670	0.524853
	H299	H	0.677677	0.446500	0.519087
	O300	O	-0.221964	-0.226085	1.199684
	H301	H	-0.227827	-0.189381	1.195852
	H302	H	-0.246092	-0.248100	1.209892
	O303	O	0.459547	0.268874	0.709826
	H304	H	0.450040	0.260650	0.710179
	H305	H	0.448793	0.250673	0.720608
	O306	O	0.959365	0.997281	0.105408
	H307	H	0.951286	0.992707	0.105202
	H308	H	0.957816	1.006557	0.112209
	O309	O	0.437331	0.422653	0.269345
	H310	H	0.462399	0.410547	0.268279
	H311	H	0.457571	0.422787	0.264842
	O312	O	0.975211	0.872136	0.982543
	H313	H	0.983869	0.866030	0.988037
	H314	H	0.977602	0.864824	0.990711
	O315	O	0.279222	0.525527	0.276353
	H316	H	0.287892	0.509860	0.269173
	H317	H	0.270075	0.509059	0.269759
	O318	O	0.283783	0.285180	0.695825
	H319	H	0.294001	0.312085	0.706716
	H320	H	0.282279	0.289761	0.660946
	O321	O	-0.222445	1.198005	0.954992
	H322	H	-0.240379	1.216297	0.964966
	H323	H	-0.188484	1.205770	0.979493
	O324	O	1.085172	0.957328	0.102429
	H325	H	1.080982	0.957477	0.114178
	H326	H	1.066280	0.950100	0.089566
	O327	O	0.002260	0.038173	0.944633
	H328	H	0.004037	0.036944	0.946795
	H329	H	0.002355	0.040921	0.925716
	O330	O	0.649400	0.643722	0.297208
	H331	H	0.644911	0.622064	0.305576
	H332	H	0.630536	0.639419	0.316070
	O333	O	0.524536	0.699548	0.709687
	H334	H	0.545519	0.708107	0.707690
	H335	H	0.532926	0.715612	0.723514
	O336	O	0.928033	-0.046900	-0.158830
	H337	H	0.943189	-0.059655	-0.160909
	H338	H	0.941405	-0.037198	-0.155217
	O339	O	1.311268	0.556869	0.510049
	H340	H	1.309388	0.559406	0.501636
	H341	H	1.301854	0.551221	0.500315
	O342	O	-0.189987	-0.214693	-0.189380
	H343	H	-0.166703	-0.197389	-0.167913
	H344	H	-0.174482	-0.197759	-0.187155
	O345	O	0.387463	1.288795	1.285852
	H346	H	0.420078	1.296787	1.301991
	H347	H	0.398820	1.292645	1.284461
	O348	O	0.572426	0.385097	0.513127
	H349	H	0.568874	0.387606	0.514865
	H350	H	0.582851	0.378026	0.515063
	O351	O	0.533431	0.500872	0.304286
	H352	H	0.546323	0.519528	0.303360
	H353	H	0.531155	0.504826	0.301074
	O354	O	-0.192585	0.159518	0.818051
	H355	H	-0.200983	0.159547	0.804379
	H356	H	-0.204685	0.165364	0.863396
	O357	O	0.707821	0.303711	0.460337
	H358	H	0.714556	0.283443	0.455806
	H359	H	0.704725	0.296187	0.471587
	O360	O	0.652308	0.536620	0.478817
	H361	H	0.662071	0.526843	0.489385
	H362	H	0.650798	0.565346	0.498835
	O363	O	-0.015725	-0.029063	-0.219150
	H364	H	-0.007790	-0.014984	-0.213007
	H365	H	-0.016900	-0.022221	-0.219743
	O366	O	0.588396	0.340336	0.278092
	H367	H	0.617922	0.340391	0.284741
	H368	H	0.596078	0.319828	0.266108
	O369	O	0.927229	-0.091474	0.024568
	H370	H	0.929001	-0.098534	0.026296
	H371	H	0.914982	-0.097063	0.024226
	O372	O	1.011972	1.207830	0.208987
	H373	H	1.039785	1.209870	0.215292
	H374	H	1.039430	1.221161	0.222611
	O375	O	1.022699	-0.236484	-0.226678
	H376	H	1.039927	-0.245501	-0.246454
	H377	H	1.053328	-0.243048	-0.231027
	O378	O	0.300040	0.392715	0.394781
	H379	H	0.315850	0.404958	0.408996
	H380	H	0.307741	0.405360	0.391662
	O381	O	-0.714924	0.450364	0.704847
	H382	H	-0.716128	0.463333	0.716510
	H383	H	-0.707396	0.459869	0.710661
	O384	O	1.201180	0.026583	1.203620
	H385	H	1.190642	0.001752	1.195964
	H386	H	1.220164	0.009745	1.211049
	O387	O	0.683191	1.287180	-0.302764
	H388	H	0.673309	1.303683	-0.303960
	H389	H	0.675890	1.282844	-0.312902
	O390	O	0.705244	0.512004	0.703796
	H391	H	0.692510	0.535801	0.703371
	H392	H	0.728167	0.510617	0.718090
	O393	O	0.425182	0.545826	0.719013
	H394	H	0.445363	0.537662	0.725574
	H395	H	0.448145	0.551622	0.713092
	O396	O	0.215831	1.057814	0.936935
	H397	H	0.211626	1.065337	0.949603
	H398	H	0.209340	1.069249	0.954655
	O399	O	0.032073	0.106112	0.849389
	H400	H	0.022228	0.111036	0.832293
	H401	H	0.062037	0.116288	0.850444
	O402	O	1.208974	0.950458	-0.227039
	H403	H	1.228131	0.959100	-0.242868
	H404	H	1.207933	0.968562	-0.207076
	O405	O	0.921915	-0.061148	0.963797
	H406	H	0.925843	-0.056257	0.966704
	H407	H	0.926103	-0.067481	0.950101
	O408	O	0.082815	-0.152362	0.102345
	H409	H	0.066870	-0.149510	0.095112
	H410	H	0.082768	-0.164288	0.090086
	O411	O	0.778539	0.916578	0.998613
	H412	H	0.776698	0.916907	0.991447
	H413	H	0.792677	0.912273	0.996989
	O414	O	0.561127	0.276316	0.552562
	H415	H	0.539801	0.278899	0.547965
	H416	H	0.566040	0.272481	0.551150
	O417	O	1.154543	-0.054666	1.050052
	H418	H	1.155677	-0.064568	1.032530
	H419	H	1.141497	-0.058990	1.037841
	O420	O	-0.228172	1.017007	0.772959
	H421	H	-0.212319	1.036928	0.771820
	H422	H	-0.254491	1.022996	0.747304
	O423	O	0.176899	0.165968	0.802413
	H424	H	0.175911	0.149852	0.814716
	H425	H	0.194066	0.187024	0.790782
	O426	O	0.198818	0.778810	0.780939
	H427	H	0.231486	0.755625	0.751746
	H428	H	0.204274	0.822430	0.782396
	O429	O	0.882823	1.119593	0.994531
	H430	H	0.899872	1.127561	1.012069
	H431	H	0.902644	1.129086	0.974760
	O432	O	0.475929	0.696331	0.546691
	H433	H	0.489519	0.697353	0.545816
	H434	H	0.450967	0.702385	0.544285
	O435	O	0.180608	0.805161	0.176250
	H436	H	0.174382	0.824319	0.149591
	H437	H	0.157625	0.812064	0.168899
	O438	O	-0.082890	0.053431	0.104897
	H439	H	-0.080344	0.056831	0.093777
	H440	H	-0.081940	0.050898	0.096438
	O441	O	0.211670	-0.202974	-0.029729
	H442	H	0.204767	-0.207568	-0.052819
	H443	H	0.232562	-0.227174	-0.045570
	O444	O	0.693277	0.681582	0.694618
	H445	H	0.717882	0.711905	0.717967
	H446	H	0.692799	0.671615	0.678496
	O447	O	-0.220177	0.950310	1.208343
	H448	H	-0.220851	0.955046	1.200311
	H449	H	-0.237350	0.965798	1.207318
	O450	O	0.687871	0.526197	1.319443
	H451	H	0.705249	0.548134	1.328821
	H452	H	0.684367	0.524624	1.327823
	O453	O	0.368583	0.522820	0.470490
	H454	H	0.367866	0.529473	0.473505
	H455	H	0.379238	0.526306	0.468474
	O456	O	0.169728	0.178536	1.174140
	H457	H	0.198555	0.169983	1.202575
	H458	H	0.165681	0.144175	1.158203
	O459	O	0.819372	1.020626	0.077019
	H460	H	0.820041	1.016060	0.056247
	H461	H	0.820877	1.028705	0.071109
	O462	O	0.459234	0.711190	0.270441
	H463	H	0.428964	0.714820	0.263112
	H464	H	0.440382	0.730483	0.249410
	O465	O	1.212136	0.200712	0.011420
	H466	H	1.210785	0.199484	0.035563
	H467	H	1.229076	0.226145	0.026152
	O468	O	0.434193	0.273516	0.457800
	H469	H	0.442235	0.276968	0.439844
	H470	H	0.420965	0.283822	0.458144
	O471	O	0.289375	0.693060	0.282152
	H472	H	0.259575	0.717558	0.270604
	H473	H	0.283333	0.645615	0.280364
	O474	O	0.423742	0.554795	0.499093
	H475	H	0.440721	0.544668	0.491825
	H476	H	0.419586	0.545413	0.499163
	O477	O	0.468402	0.437439	1.556386
	H478	H	0.477450	0.440081	1.551014
	H479	H	0.463689	0.441709	1.557515
	O480	O	0.273758	0.711992	0.448624
	H481	H	0.252927	0.729190	0.440820
	H482	H	0.267957	0.710256	0.435390
	O483	O	0.711205	0.704607	0.526729
	H484	H	0.700988	0.719013	0.531490
	H485	H	0.721167	0.726050	0.533060
	O486	O	0.690144	0.286066	1.287034
	H487	H	0.699293	0.324562	1.293089
	H488	H	0.719081	0.262209	1.281616
	O489	O	0.960955	1.204301	-0.228861
	H490	H	0.926309	1.194739	-0.223417
	H491	H	0.957653	1.227749	-0.255966
