data_Molecule from HDF5

_cell_length_a		16.503312
_cell_length_b		16.399329
_cell_length_c		16.319726
_cell_angle_alpha	89.921520
_cell_angle_beta	89.799475
_cell_angle_gamma	89.969968
_symmetry_space_group_name_H-M	'P 1'
_symmetry_Int_Tables_number		1

loop_
	_symmetry_equiv_pos_as_xyz
	x,y,z

loop_
	_atom_site_label
	_atom_site_type_symbol
	_atom_site_fract_x
	_atom_site_fract_y
	_atom_site_fract_z
	H0	H	0.387280	0.826107	0.724505
	H1	H	0.594430	0.145598	0.720193
	H2	H	0.598438	0.825409	0.282446
	H3	H	0.390355	0.144156	0.281301
	H4	H	0.717212	0.375836	0.843135
	H5	H	0.715526	0.590044	0.160423
	H6	H	0.272374	0.591865	0.843875
	H7	H	0.271952	0.377345	0.161739
	H8	H	0.836789	0.708234	0.395703
	H9	H	0.150473	0.708297	0.610241
	H10	H	0.836214	0.259919	0.613247
	H11	H	0.151562	0.263345	0.398248
	H12	H	0.836344	0.378594	0.726314
	H13	H	0.152478	0.588630	0.722367
	H14	H	0.836318	0.590834	0.280344
	H15	H	0.151123	0.379657	0.281470
	H16	H	0.389474	0.705397	0.842813
	H17	H	0.599587	0.705988	0.160912
	H18	H	0.598555	0.264375	0.842356
	H19	H	0.390197	0.263265	0.162037
	H20	H	0.717496	0.827715	0.394733
	H21	H	0.716864	0.142578	0.610439
	H22	H	0.269835	0.826454	0.609214
	H23	H	0.272314	0.143121	0.395922
	H24	H	0.889451	0.323821	0.223342
	H25	H	0.097709	0.643232	0.223750
	H26	H	0.097258	0.325247	0.783082
	H27	H	0.890741	0.643663	0.782578
	H28	H	0.215393	0.878145	0.342378
	H29	H	0.213421	0.089396	0.660578
	H30	H	0.772047	0.092305	0.342734
	H31	H	0.770754	0.878514	0.660896
	H32	H	0.336322	0.206546	0.898129
	H33	H	0.652593	0.206360	0.107792
	H34	H	0.336625	0.761611	0.110283
	H35	H	0.651611	0.764604	0.897446
	H36	H	0.335266	0.882178	0.222904
	H37	H	0.652994	0.089941	0.223105
	H38	H	0.334887	0.089567	0.783018
	H39	H	0.651357	0.881870	0.781344
	H40	H	0.888673	0.205432	0.342972
	H41	H	0.093868	0.201013	0.662697
	H42	H	0.098979	0.763550	0.342250
	H43	H	0.887474	0.763703	0.661825
	H44	H	0.215819	0.326246	0.896621
	H45	H	0.216876	0.642014	0.110924
	H46	H	0.772055	0.324530	0.109036
	H47	H	0.771794	0.641805	0.896184
	H48	H	0.408712	0.095186	0.588297
	H49	H	0.584645	0.871764	0.589088
	H50	H	0.587376	0.100669	0.411515
	H51	H	0.407839	0.872611	0.415015
	H52	H	0.581450	0.398209	0.114425
	H53	H	0.587866	0.570868	0.886240
	H54	H	0.407111	0.574098	0.116200
	H55	H	0.406383	0.389984	0.887091
	H56	H	0.102622	0.569019	0.418685
	H57	H	0.881892	0.569805	0.593127
	H58	H	0.108031	0.382859	0.587472
	H59	H	0.881461	0.399792	0.413850
	H60	H	0.101495	0.399710	0.585026
	H61	H	0.879321	0.576727	0.593466
	H62	H	0.106731	0.570953	0.407072
	H63	H	0.878606	0.392016	0.411320
	H64	H	0.402802	0.572280	0.117576
	H65	H	0.578905	0.568200	0.891400
	H66	H	0.581752	0.391641	0.117064
	H67	H	0.399559	0.398649	0.887769
	H68	H	0.578731	0.097934	0.411090
	H69	H	0.580664	0.871700	0.591983
	H70	H	0.396236	0.098640	0.585210
	H71	H	0.401249	0.871359	0.415655
	H72	H	0.902779	0.597297	0.091548
	H73	H	0.080743	0.372058	0.089773
	H74	H	0.083229	0.595819	0.919340
	H75	H	0.906788	0.367946	0.905980
	H76	H	0.082068	0.903532	0.613985
	H77	H	0.081113	0.063812	0.390752
	H78	H	0.907291	0.071098	0.615000
	H79	H	0.910449	0.900487	0.392255
	H80	H	0.606751	0.071580	0.910125
	H81	H	0.383626	0.074933	0.083615
	H82	H	0.604901	0.896266	0.086410
	H83	H	0.383298	0.900189	0.918744
	H84	H	0.607387	0.897772	0.095449
	H85	H	0.384087	0.066624	0.094549
	H86	H	0.608722	0.076125	0.909284
	H87	H	0.378749	0.897161	0.907444
	H88	H	0.903161	0.074719	0.617591
	H89	H	0.075347	0.080465	0.387424
	H90	H	0.075862	0.893782	0.614144
	H91	H	0.906488	0.890934	0.385985
	H92	H	0.089665	0.600768	0.912201
	H93	H	0.085478	0.371405	0.088868
	H94	H	0.905170	0.596727	0.091635
	H95	H	0.912664	0.374756	0.918647
	H96	H	0.400810	0.100852	0.597727
	H97	H	0.580407	0.873437	0.587564
	H98	H	0.583613	0.096829	0.418856
	H99	H	0.404282	0.869539	0.410058
	H100	H	0.586955	0.395903	0.116729
	H101	H	0.580431	0.578221	0.887719
	H102	H	0.405368	0.569712	0.114308
	H103	H	0.409827	0.399967	0.891901
	H104	H	0.107858	0.580422	0.415455
	H105	H	0.882582	0.574367	0.587328
	H106	H	0.109320	0.395042	0.601641
	H107	H	0.881425	0.393632	0.419337
	H108	H	0.903683	0.596767	0.089835
	H109	H	0.083520	0.370093	0.093678
	H110	H	0.079858	0.598159	0.909121
	H111	H	0.898453	0.369664	0.919136
	H112	H	0.086774	0.893487	0.617325
	H113	H	0.092150	0.076287	0.383507
	H114	H	0.901777	0.068625	0.615505
	H115	H	0.899453	0.900162	0.388178
	H116	H	0.606921	0.075242	0.913295
	H117	H	0.379085	0.079312	0.096121
	H118	H	0.608335	0.889724	0.091215
	H119	H	0.379008	0.888826	0.916201
	C120	C	0.370080	-0.006496	0.623807
	C121	C	0.613964	0.976991	0.622653
	C122	C	0.615626	-0.006432	0.380939
	C123	C	0.372704	0.976373	0.381110
	C124	C	0.615770	0.362836	0.010724
	C125	C	0.614850	0.604665	0.993428
	C126	C	0.372533	0.605589	0.011086
	C127	C	0.373114	0.363352	0.994371
	C128	C	0.002236	0.606574	0.380710
	C129	C	0.985525	0.606159	0.623807
	C130	C	0.002049	0.361065	0.624660
	C131	C	0.984667	0.362869	0.381950
	C132	C	0.871735	0.492008	0.123946
	C133	C	0.115460	0.475761	0.124097
	C134	C	0.116069	0.493327	0.881120
	C135	C	0.873305	0.475348	0.881381
	C136	C	0.114460	0.863712	0.509958
	C137	C	0.114115	0.105189	0.492911
	C138	C	0.871752	0.105421	0.510981
	C139	C	0.872160	0.863920	0.493950
	C140	C	0.502456	0.106287	0.880439
	C141	C	0.486256	0.106265	0.123661
	C142	C	0.502640	0.862472	0.124473
	C143	C	0.484877	0.863692	0.881118
	C144	C	0.368130	0.873968	0.684732
	C145	C	0.614594	0.097055	0.681977
	C146	C	0.617186	0.873677	0.321538
	C147	C	0.371473	0.096221	0.321159
	C148	C	0.676525	0.359382	0.890907
	C149	C	0.675793	0.608137	0.112797
	C150	C	0.312610	0.608984	0.891469
	C151	C	0.312574	0.359808	0.114049
	C152	C	0.883694	0.667384	0.378049
	C153	C	0.103593	0.667286	0.627113
	C154	C	0.883644	0.300454	0.629608
	C155	C	0.103955	0.303109	0.379693
	C156	C	0.883780	0.359522	0.686362
	C157	C	0.104847	0.607610	0.683020
	C158	C	0.883541	0.609153	0.320461
	C159	C	0.103613	0.360841	0.321385
	C160	C	0.370933	0.665891	0.891009
	C161	C	0.617716	0.665438	0.113170
	C162	C	0.617725	0.303467	0.890248
	C163	C	0.371505	0.303162	0.114286
	C164	C	0.676678	0.874694	0.377441
	C165	C	0.675034	0.095844	0.626730
	C166	C	0.309694	0.874102	0.627461
	C167	C	0.312736	0.095692	0.378133
	C168	C	0.870705	0.371984	0.183959
	C169	C	0.116911	0.595127	0.184394
	C170	C	0.116623	0.373303	0.822314
	C171	C	0.871434	0.595418	0.821666
	C172	C	0.174896	0.860651	0.389986
	C173	C	0.173486	0.107266	0.612963
	C174	C	0.812093	0.109309	0.390727
	C175	C	0.811168	0.860626	0.613281
	C176	C	0.383536	0.166453	0.879445
	C177	C	0.605410	0.166020	0.125378
	C178	C	0.383815	0.802333	0.127801
	C179	C	0.603856	0.804204	0.878586
	C180	C	0.383183	0.862041	0.184012
	C181	C	0.605439	0.108350	0.183279
	C182	C	0.382831	0.108452	0.822012
	C183	C	0.603857	0.862780	0.821048
	C184	C	0.869928	0.166036	0.390860
	C185	C	0.113944	0.162922	0.614096
	C186	C	0.116794	0.803690	0.389952
	C187	C	0.869631	0.803740	0.613799
	C188	C	0.175849	0.373841	0.878724
	C189	C	0.176291	0.594673	0.128035
	C190	C	0.811995	0.372480	0.127188
	C191	C	0.812395	0.594665	0.878309
	C192	C	0.394797	0.076559	0.597819
	C193	C	0.588931	0.894031	0.597062
	C194	C	0.590388	0.076878	0.406545
	C195	C	0.397308	0.892906	0.406500
	C196	C	0.590605	0.387989	0.094336
	C197	C	0.589672	0.579527	0.910130
	C198	C	0.397935	0.579502	0.094453
	C199	C	0.398029	0.388884	0.910783
	C200	C	0.084454	0.580817	0.406491
	C201	C	0.902886	0.580843	0.598618
	C202	C	0.084721	0.385490	0.598675
	C203	C	0.902143	0.387948	0.407549
	C204	C	0.896658	0.575326	0.098503
	C205	C	0.090474	0.392861	0.098175
	C206	C	0.091370	0.576678	0.906243
	C207	C	0.898578	0.392326	0.907194
	C208	C	0.088925	0.889361	0.593383
	C209	C	0.089827	0.080488	0.408995
	C210	C	0.896640	0.079112	0.594331
	C211	C	0.898196	0.889761	0.410313
	C212	C	0.585655	0.081757	0.904212
	C213	C	0.403835	0.080991	0.098678
	C214	C	0.585421	0.887336	0.098559
	C215	C	0.401938	0.888261	0.906781
	Zn216	Zn	0.492314	-0.014942	0.751378
	Zn217	Zn	0.494657	-0.014969	0.252588
	Zn218	Zn	0.743489	0.483552	0.002008
	Zn219	Zn	0.244339	0.484720	0.002832
	Zn220	Zn	-0.006219	0.735337	0.502547
	Zn221	Zn	-0.007478	0.232699	0.502232
	Zn222	Zn	-0.005841	0.484633	0.752407
	Zn223	Zn	-0.007202	0.484016	0.252421
	Zn224	Zn	0.493672	0.733784	0.002619
	Zn225	Zn	0.494974	0.234905	0.002163
	Zn226	Zn	0.743936	-0.014756	0.501942
	Zn227	Zn	0.243066	-0.015827	0.501305
	N228	N	0.404814	0.949192	0.682699
	N229	N	0.577176	0.022176	0.679493
	N230	N	0.580142	0.948721	0.323651
	N231	N	0.408188	0.020898	0.322909
	N232	N	0.675756	0.395118	0.967077
	N233	N	0.674138	0.571158	0.037289
	N234	N	0.313521	0.572263	0.967226
	N235	N	0.313447	0.396497	0.038265
	N236	N	0.958479	0.666105	0.414685
	N237	N	0.028322	0.666548	0.591146
	N238	N	0.958177	0.301160	0.591884
	N239	N	0.028868	0.304198	0.416593
	N240	N	0.958215	0.396794	0.683332
	N241	N	0.030469	0.570179	0.680913
	N242	N	0.958153	0.572047	0.322024
	N243	N	0.028590	0.397241	0.322706
	N244	N	0.407254	0.664020	0.966663
	N245	N	0.580442	0.663551	0.038027
	N246	N	0.580701	0.305349	0.965744
	N247	N	0.408376	0.305187	0.038884
	N248	N	0.675950	0.950413	0.413504
	N249	N	0.674719	0.020263	0.590366
	N250	N	0.310942	0.949180	0.590236
	N251	N	0.313323	0.020052	0.414375
	N252	N	0.906910	0.447572	0.182260
	N253	N	0.079740	0.520235	0.182047
	N254	N	0.080400	0.448733	0.823534
	N255	N	0.908475	0.520402	0.823548
	N256	N	0.173584	0.897133	0.465729
	N257	N	0.173686	0.072029	0.536638
	N258	N	0.813094	0.072310	0.466539
	N259	N	0.812727	0.897130	0.537474
	N260	N	0.459018	0.165407	0.914855
	N261	N	0.530239	0.164859	0.089163
	N262	N	0.459048	0.802699	0.091346
	N263	N	0.528858	0.804708	0.915214
	N264	N	0.458134	0.898493	0.182162
	N265	N	0.530625	0.071690	0.182274
	N266	N	0.457720	0.071962	0.822255
	N267	N	0.528493	0.898617	0.822087
	N268	N	0.906206	0.163772	0.466406
	N269	N	0.077908	0.161768	0.538356
	N270	N	0.079872	0.805458	0.465555
	N271	N	0.906837	0.805475	0.538246
	N272	N	0.175784	0.449686	0.914420
	N273	N	0.175317	0.519377	0.091153
	N274	N	0.812473	0.448031	0.090662
	N275	N	0.813360	0.518899	0.914533
	O276	O	0.518461	0.698887	0.702468
	H277	H	0.539693	0.702247	0.712782
	H278	H	0.509363	0.719374	0.703856
	O279	O	0.700242	0.571475	0.464244
	H280	H	0.699098	0.554570	0.457050
	H281	H	0.706460	0.578328	0.466363
	O282	O	0.655820	0.383428	0.613438
	H283	H	0.652982	0.400047	0.628718
	H284	H	0.659348	0.409511	0.595268
	O285	O	0.878861	0.873408	0.160910
	H286	H	0.849876	0.863322	0.166302
	H287	H	0.881317	0.854810	0.155604
	O288	O	0.577848	0.304551	0.414561
	H289	H	0.599054	0.290810	0.454359
	H290	H	0.544040	0.292352	0.396528
	O291	O	0.707644	0.544142	0.712629
	H292	H	0.712862	0.569725	0.719247
	H293	H	0.721292	0.545682	0.732970
	O294	O	1.204123	1.190286	1.088177
	H295	H	1.203182	1.196159	1.104537
	H296	H	1.206932	1.190215	1.100481
	O297	O	0.381279	0.495337	0.630229
	H298	H	0.392274	0.496573	0.632800
	H299	H	0.386764	0.503803	0.624639
	O300	O	0.336492	0.462958	0.309282
	H301	H	0.324577	0.454588	0.308253
	H302	H	0.330768	0.459884	0.317121
	O303	O	0.534952	0.664693	0.495158
	H304	H	0.519370	0.663532	0.479916
	H305	H	0.538502	0.662939	0.482582
	O306	O	0.002648	0.084424	0.992886
	H307	H	0.006374	0.098399	1.012283
	H308	H	0.007245	0.077383	0.998953
	O309	O	0.935770	-0.103114	-0.077359
	H310	H	0.928455	-0.099218	-0.065951
	H311	H	0.935880	-0.090138	-0.073148
	O312	O	0.002979	0.874110	1.160489
	H313	H	0.013452	0.856991	1.160897
	H314	H	-0.007601	0.865007	1.151885
	O315	O	0.823880	1.044268	-0.083559
	H316	H	0.835926	1.053495	-0.083094
	H317	H	0.823677	1.044685	-0.094156
	O318	O	-0.014608	-0.205926	-0.160477
	H319	H	-0.020627	-0.232815	-0.183973
	H320	H	-0.040821	-0.187877	-0.158182
	O321	O	0.293229	0.619181	0.418419
	H322	H	0.269441	0.626351	0.411562
	H323	H	0.310809	0.627301	0.434369
	O324	O	0.921801	0.036325	0.943615
	H325	H	0.939996	0.039115	0.949450
	H326	H	0.924867	0.022020	0.936396
	O327	O	0.490318	0.470505	0.645809
	H328	H	0.481788	0.455832	0.636725
	H329	H	0.497431	0.457316	0.653551
	O330	O	-0.158096	0.801866	0.972400
	H331	H	-0.154272	0.821462	0.994969
	H332	H	-0.167609	0.806147	0.975382
	O333	O	0.062953	1.024601	0.160995
	H334	H	0.057155	1.016793	0.171660
	H335	H	0.064982	1.022306	0.157413
	O336	O	1.151770	0.958049	0.017878
	H337	H	1.159287	0.953984	0.018480
	H338	H	1.151798	0.971393	0.012915
	O339	O	-0.184523	1.062151	0.813691
	H340	H	-0.182400	1.075781	0.801263
	H341	H	-0.176295	1.078383	0.830566
	O342	O	0.522299	0.340976	0.300033
	H343	H	0.505225	0.349249	0.292017
	H344	H	0.510707	0.336900	0.299647
	O345	O	-0.028454	0.150699	0.867985
	H346	H	-0.009576	0.136294	0.869481
	H347	H	-0.024417	0.153945	0.857714
	O348	O	0.415443	0.618555	0.572476
	H349	H	0.431449	0.609077	0.571894
	H350	H	0.428214	0.635287	0.584688
	O351	O	1.113110	1.026274	0.183543
	H352	H	1.111243	0.997813	0.186464
	H353	H	1.093738	1.027057	0.185437
	O354	O	0.802226	0.899899	1.133232
	H355	H	0.797868	0.897905	1.135939
	H356	H	0.820850	0.905135	1.138016
	O357	O	-0.456344	0.633532	-0.611813
	H358	H	-0.448337	0.632412	-0.626158
	H359	H	-0.439818	0.634469	-0.604221
	O360	O	0.635039	0.401962	0.490695
	H361	H	0.652983	0.393832	0.501064
	H362	H	0.638798	0.393220	0.503894
	O363	O	1.175625	-0.220328	-0.013903
	H364	H	1.176475	-0.216233	-0.049557
	H365	H	1.198399	-0.232316	-0.026677
	O366	O	-0.130848	-0.000124	1.050035
	H367	H	-0.143236	0.020188	1.036483
	H368	H	-0.134571	-0.014121	1.040308
	O369	O	1.232075	0.104430	0.777205
	H370	H	1.247862	0.115202	0.765010
	H371	H	1.240526	0.097646	0.790574
	O372	O	0.470687	0.692651	0.296397
	H373	H	0.454004	0.689562	0.293554
	H374	H	0.457646	0.708119	0.278328
	O375	O	-0.145493	0.139852	0.976726
	H376	H	-0.154546	0.152610	0.971176
	H377	H	-0.136758	0.142262	0.989101
	O378	O	0.463720	0.308080	0.669149
	H379	H	0.458449	0.296735	0.671717
	H380	H	0.474799	0.304326	0.682169
	O381	O	-0.019157	0.869917	0.012202
	H382	H	-0.024948	0.858021	0.022389
	H383	H	0.003256	0.867545	-0.010643
	O384	O	0.378723	0.387685	0.464061
	H385	H	0.380303	0.391528	0.472154
	H386	H	0.384079	0.402745	0.451112
	O387	O	0.496684	0.514495	0.596213
	H388	H	0.501476	0.519188	0.603208
	H389	H	0.488906	0.479944	0.599533
	O390	O	1.161734	0.817976	-0.143466
	H391	H	1.126950	0.808918	-0.155040
	H392	H	1.160145	0.849144	-0.148717
	O393	O	1.139068	0.001134	0.800836
	H394	H	1.143382	0.011459	0.811183
	H395	H	1.157570	0.007976	0.783529
	O396	O	0.326410	0.322617	0.462808
	H397	H	0.333822	0.324067	0.484601
	H398	H	0.311831	0.318305	0.463757
	O399	O	0.693177	0.599686	0.485063
	H400	H	0.691734	0.621742	0.476118
	H401	H	0.688980	0.593823	0.463749
	O402	O	1.098258	1.135305	0.170661
	H403	H	1.079498	1.122995	0.171493
	H404	H	1.099222	1.138461	0.173061
	O405	O	0.611470	0.270575	0.490155
	H406	H	0.615558	0.248196	0.486494
	H407	H	0.605849	0.290279	0.502456
	O408	O	0.321801	0.660864	0.326987
	H409	H	0.318756	0.671021	0.365950
	H410	H	0.315347	0.629685	0.318214
	O411	O	1.135959	1.036002	1.008814
	H412	H	1.144679	1.033544	1.024222
	H413	H	1.137547	1.028057	0.995762
	O414	O	0.430382	0.356238	0.469514
	H415	H	0.440911	0.353972	0.468726
	H416	H	0.428765	0.346345	0.458787
	O417	O	0.314660	1.243416	0.749097
	H418	H	0.332561	1.234742	0.745472
	H419	H	0.307788	1.271107	0.748509
	O420	O	-0.041611	1.102133	1.193671
	H421	H	-0.031241	1.080652	1.203524
	H422	H	-0.028495	1.118881	1.201940
	O423	O	-0.112821	0.910917	-0.003200
	H424	H	-0.105879	0.922801	0.009041
	H425	H	-0.110189	0.920492	0.003063
	O426	O	0.708756	0.462507	0.292063
	H427	H	0.693031	0.432816	0.298160
	H428	H	0.739510	0.456821	0.268438
	O429	O	0.356668	0.502723	0.454237
	H430	H	0.376161	0.511042	0.448021
	H431	H	0.340628	0.496117	0.463641
	O432	O	0.632948	0.648190	0.670351
	H433	H	0.625824	0.658003	0.666560
	H434	H	0.645922	0.665598	0.648712
	O435	O	0.347429	0.444119	0.707561
	H436	H	0.353456	0.445158	0.719740
	H437	H	0.351915	0.441671	0.702121
	O438	O	-0.042262	0.943917	0.904318
	H439	H	-0.061105	0.960985	0.905873
	H440	H	-0.028414	0.947680	0.921077
	O441	O	0.498577	0.432958	0.314961
	H442	H	0.478571	0.439963	0.326167
	H443	H	0.504476	0.434496	0.309475
