data_Molecule from HDF5

_cell_length_a		16.186955
_cell_length_b		16.258440
_cell_length_c		16.250117
_cell_angle_alpha	89.928131
_cell_angle_beta	89.715712
_cell_angle_gamma	90.639764
_symmetry_space_group_name_H-M	'P 1'
_symmetry_Int_Tables_number		1

loop_
	_symmetry_equiv_pos_as_xyz
	x,y,z

loop_
	_atom_site_label
	_atom_site_type_symbol
	_atom_site_fract_x
	_atom_site_fract_y
	_atom_site_fract_z
	H0	H	0.394998	0.829680	0.720680
	H1	H	0.601506	0.155227	0.720779
	H2	H	0.597282	0.829142	0.287589
	H3	H	0.401857	0.155512	0.287949
	H4	H	0.714853	0.395867	0.840202
	H5	H	0.716103	0.594403	0.167187
	H6	H	0.289051	0.589454	0.838949
	H7	H	0.282344	0.392066	0.166491
	H8	H	0.835877	0.706681	0.402569
	H9	H	0.162145	0.712539	0.603728
	H10	H	0.837320	0.275043	0.604189
	H11	H	0.165448	0.281620	0.404187
	H12	H	0.837371	0.389995	0.719441
	H13	H	0.165183	0.593747	0.715101
	H14	H	0.835859	0.589809	0.288351
	H15	H	0.163852	0.393469	0.286605
	H16	H	0.400812	0.707490	0.840421
	H17	H	0.600783	0.709922	0.167091
	H18	H	0.600669	0.277817	0.840660
	H19	H	0.398284	0.277279	0.167387
	H20	H	0.713337	0.829267	0.403347
	H21	H	0.716345	0.156484	0.601674
	H22	H	0.281278	0.830094	0.604220
	H23	H	0.289958	0.157641	0.406920
	H24	H	0.895840	0.329381	0.219762
	H25	H	0.101902	0.655511	0.219648
	H26	H	0.100922	0.329618	0.787025
	H27	H	0.902242	0.655012	0.785127
	H28	H	0.214317	0.896794	0.339994
	H29	H	0.215678	0.094490	0.667165
	H30	H	0.788308	0.090589	0.338892
	H31	H	0.781441	0.890662	0.665945
	H32	H	0.335245	0.206522	0.904932
	H33	H	0.662249	0.211404	0.105583
	H34	H	0.336476	0.773827	0.105186
	H35	H	0.663922	0.781438	0.903540
	H36	H	0.334862	0.890405	0.218821
	H37	H	0.663407	0.092667	0.216249
	H38	H	0.334979	0.090126	0.790302
	H39	H	0.661623	0.892555	0.786349
	H40	H	0.903335	0.206689	0.339061
	H41	H	0.102401	0.209969	0.666014
	H42	H	0.100367	0.778699	0.339809
	H43	H	0.894547	0.773267	0.665366
	H44	H	0.212473	0.329081	0.904705
	H45	H	0.217776	0.656833	0.103373
	H46	H	0.778930	0.331166	0.106113
	H47	H	0.789256	0.657730	0.904181
	H48	H	0.403789	0.110914	0.596005
	H49	H	0.594604	0.873672	0.598862
	H50	H	0.597956	0.108998	0.414585
	H51	H	0.395980	0.876288	0.423649
	H52	H	0.575216	0.394877	0.117460
	H53	H	0.594112	0.588370	0.886795
	H54	H	0.399385	0.589848	0.124218
	H55	H	0.418614	0.400309	0.890341
	H56	H	0.119217	0.586529	0.405354
	H57	H	0.885381	0.582770	0.587017
	H58	H	0.123181	0.396242	0.605219
	H59	H	0.881511	0.401036	0.404387
	H60	H	0.117725	0.394690	0.585268
	H61	H	0.885308	0.573618	0.598518
	H62	H	0.116707	0.590259	0.414004
	H63	H	0.881818	0.390091	0.413433
	H64	H	0.407026	0.572010	0.116856
	H65	H	0.596369	0.587745	0.886079
	H66	H	0.602974	0.393158	0.126318
	H67	H	0.403654	0.388335	0.882379
	H68	H	0.598468	0.111710	0.403820
	H69	H	0.582413	0.877187	0.598801
	H70	H	0.409493	0.111220	0.603185
	H71	H	0.399893	0.870535	0.397801
	H72	H	0.900855	0.610105	0.090755
	H73	H	0.088849	0.376434	0.097602
	H74	H	0.093482	0.610868	0.904851
	H75	H	0.913174	0.377515	0.909184
	H76	H	0.088005	0.902396	0.619602
	H77	H	0.096816	0.096371	0.383180
	H78	H	0.907149	0.092085	0.621740
	H79	H	0.907536	0.893491	0.383887
	H80	H	0.613367	0.087324	0.923077
	H81	H	0.385585	0.076598	0.088958
	H82	H	0.615887	0.907227	0.098268
	H83	H	0.385559	0.907990	0.917385
	H84	H	0.618532	0.895831	0.098579
	H85	H	0.379620	0.080165	0.108400
	H86	H	0.614481	0.075291	0.908498
	H87	H	0.378811	0.897219	0.902823
	H88	H	0.902229	0.079075	0.619694
	H89	H	0.102233	0.081261	0.386344
	H90	H	0.088346	0.900431	0.620130
	H91	H	0.902757	0.904097	0.385956
	H92	H	0.092828	0.607885	0.912396
	H93	H	0.089672	0.378090	0.092227
	H94	H	0.911669	0.611818	0.106680
	H95	H	0.906493	0.378379	0.917863
	H96	H	0.411933	0.107316	0.594964
	H97	H	0.589741	0.879382	0.588582
	H98	H	0.588845	0.107689	0.407828
	H99	H	0.420597	0.880389	0.413508
	H100	H	0.592021	0.418287	0.116400
	H101	H	0.593723	0.586202	0.887899
	H102	H	0.420064	0.588625	0.118571
	H103	H	0.399582	0.407560	0.886895
	H104	H	0.113711	0.581771	0.412262
	H105	H	0.879666	0.587121	0.600060
	H106	H	0.114913	0.412908	0.595289
	H107	H	0.885983	0.402376	0.417157
	H108	H	0.919209	0.604350	0.089761
	H109	H	0.093952	0.375789	0.095615
	H110	H	0.099484	0.611318	0.909791
	H111	H	0.902416	0.375276	0.908590
	H112	H	0.089852	0.902416	0.620261
	H113	H	0.086746	0.084373	0.389062
	H114	H	0.915800	0.082343	0.616906
	H115	H	0.913108	0.901925	0.390077
	H116	H	0.619782	0.092595	0.906460
	H117	H	0.379182	0.095801	0.094615
	H118	H	0.614814	0.901164	0.088545
	H119	H	0.381145	0.890318	0.919970
	C120	C	0.377053	0.001874	0.627194
	C121	C	0.620446	0.984329	0.625133
	C122	C	0.622326	0.001395	0.380283
	C123	C	0.378413	0.984156	0.382775
	C124	C	0.620430	0.372838	0.012253
	C125	C	0.623291	0.616803	0.995208
	C126	C	0.380279	0.612648	0.011818
	C127	C	0.377318	0.370149	0.994596
	C128	C	0.008269	0.613865	0.381207
	C129	C	0.991643	0.612875	0.624041
	C130	C	0.010017	0.370619	0.624947
	C131	C	0.991822	0.370506	0.381945
	C132	C	0.878701	0.501239	0.125295
	C133	C	0.122102	0.484449	0.124660
	C134	C	0.123161	0.501778	0.880393
	C135	C	0.879205	0.484469	0.881948
	C136	C	0.119629	0.872885	0.512023
	C137	C	0.123549	0.116180	0.494496
	C138	C	0.880016	0.113586	0.511359
	C139	C	0.877007	0.869752	0.494418
	C140	C	0.507687	0.113544	0.883278
	C141	C	0.489999	0.114055	0.125561
	C142	C	0.508398	0.870513	0.125455
	C143	C	0.490193	0.870610	0.882920
	C144	C	0.375906	0.878737	0.682719
	C145	C	0.620531	0.106892	0.681603
	C146	C	0.618195	0.878020	0.325337
	C147	C	0.381575	0.107020	0.326620
	C148	C	0.676726	0.375193	0.889069
	C149	C	0.678501	0.614831	0.118283
	C150	C	0.325559	0.610450	0.888364
	C151	C	0.320594	0.372098	0.117759
	C152	C	0.884868	0.668805	0.382588
	C153	C	0.114158	0.672114	0.622446
	C154	C	0.886619	0.313430	0.623668
	C155	C	0.116096	0.317855	0.383557
	C156	C	0.886576	0.370395	0.681275
	C157	C	0.115429	0.613288	0.678391
	C158	C	0.884769	0.610660	0.326050
	C159	C	0.115171	0.373647	0.325373
	C160	C	0.381508	0.668874	0.888881
	C161	C	0.620912	0.672111	0.118227
	C162	C	0.620008	0.316498	0.889383
	C163	C	0.378117	0.314842	0.118261
	C164	C	0.675778	0.877901	0.383067
	C165	C	0.677730	0.107517	0.622667
	C166	C	0.319271	0.879186	0.624673
	C167	C	0.326112	0.108153	0.385875
	C168	C	0.877020	0.378270	0.181490
	C169	C	0.121724	0.607007	0.181145
	C170	C	0.120616	0.378531	0.825191
	C171	C	0.882157	0.606936	0.824675
	C172	C	0.176192	0.875771	0.388936
	C173	C	0.178188	0.114398	0.617834
	C174	C	0.825489	0.111233	0.387919
	C175	C	0.819658	0.870519	0.617060
	C176	C	0.384502	0.169043	0.884676
	C177	C	0.613442	0.171860	0.124476
	C178	C	0.385160	0.812792	0.124589
	C179	C	0.614205	0.817383	0.883620
	C180	C	0.384499	0.870609	0.181361
	C181	C	0.614012	0.112972	0.179662
	C182	C	0.384214	0.110839	0.827777
	C183	C	0.613166	0.873105	0.825384
	C184	C	0.882679	0.169204	0.388207
	C185	C	0.121693	0.171914	0.617319
	C186	C	0.119393	0.817302	0.388737
	C187	C	0.876115	0.812291	0.616794
	C188	C	0.176297	0.378419	0.883802
	C189	C	0.179273	0.607514	0.123080
	C190	C	0.818890	0.379236	0.124946
	C191	C	0.825844	0.608121	0.883705
	C192	C	0.401396	0.087684	0.604772
	C193	C	0.596250	0.898849	0.602169
	C194	C	0.601494	0.087114	0.402331
	C195	C	0.399205	0.898200	0.404973
	C196	C	0.596892	0.395523	0.097965
	C197	C	0.601335	0.594234	0.909253
	C198	C	0.402542	0.590338	0.097536
	C199	C	0.400645	0.392293	0.908803
	C200	C	0.094201	0.592540	0.403722
	C201	C	0.905614	0.588288	0.601832
	C202	C	0.096394	0.394428	0.602066
	C203	C	0.905331	0.391752	0.404789
	C204	C	0.903563	0.586519	0.102498
	C205	C	0.097959	0.398870	0.101612
	C206	C	0.101567	0.587876	0.902483
	C207	C	0.901023	0.399014	0.905115
	C208	C	0.095780	0.895154	0.597638
	C209	C	0.101603	0.093768	0.408460
	C210	C	0.901813	0.090994	0.597221
	C211	C	0.900870	0.893108	0.408899
	C212	C	0.593684	0.091469	0.905938
	C213	C	0.403749	0.091022	0.103799
	C214	C	0.594281	0.894415	0.102090
	C215	C	0.404036	0.892158	0.906499
	Zn216	Zn	0.498590	-0.008210	0.754930
	Zn217	Zn	0.498969	-0.007650	0.252826
	Zn218	Zn	0.750488	0.494001	0.003991
	Zn219	Zn	0.250608	0.493001	0.002510
	Zn220	Zn	-0.000615	0.742140	0.502951
	Zn221	Zn	0.001645	0.243208	0.502734
	Zn222	Zn	0.001404	0.492170	0.752851
	Zn223	Zn	-0.000355	0.491781	0.253702
	Zn224	Zn	0.500064	0.742694	0.003503
	Zn225	Zn	0.499653	0.242566	0.004286
	Zn226	Zn	0.750432	-0.007534	0.503259
	Zn227	Zn	0.249618	-0.006033	0.504534
	N228	N	0.411185	0.955967	0.684304
	N229	N	0.585759	0.029249	0.683118
	N230	N	0.585682	0.955654	0.323376
	N231	N	0.413417	0.029009	0.324765
	N232	N	0.677248	0.409370	0.966547
	N233	N	0.680157	0.581215	0.040719
	N234	N	0.324665	0.576313	0.965736
	N235	N	0.319924	0.405662	0.039975
	N236	N	0.962753	0.670935	0.416312
	N237	N	0.036066	0.672091	0.589479
	N238	N	0.964512	0.313491	0.589214
	N239	N	0.038329	0.315830	0.417987
	N240	N	0.964368	0.405056	0.682284
	N241	N	0.038156	0.576992	0.679282
	N242	N	0.962492	0.577605	0.324778
	N243	N	0.036762	0.405463	0.324171
	N244	N	0.414726	0.670481	0.966639
	N245	N	0.587443	0.673437	0.040594
	N246	N	0.585945	0.314926	0.967028
	N247	N	0.412782	0.313406	0.040936
	N248	N	0.678815	0.955651	0.416334
	N249	N	0.677804	0.030230	0.588193
	N250	N	0.319666	0.956829	0.590901
	N251	N	0.323758	0.030754	0.420054
	N252	N	0.913551	0.455050	0.181852
	N253	N	0.086810	0.529538	0.182281
	N254	N	0.088108	0.456399	0.822908
	N255	N	0.914411	0.528952	0.823187
	N256	N	0.176474	0.909472	0.466474
	N257	N	0.179557	0.080551	0.540356
	N258	N	0.823554	0.077419	0.465535
	N259	N	0.820113	0.905577	0.540009
	N260	N	0.462205	0.170656	0.918679
	N261	N	0.535255	0.172856	0.091563
	N262	N	0.463043	0.812636	0.090544
	N263	N	0.536739	0.815683	0.918745
	N264	N	0.462119	0.905792	0.182029
	N265	N	0.536404	0.077496	0.180418
	N266	N	0.461908	0.077092	0.826824
	N267	N	0.534944	0.905477	0.824780
	N268	N	0.915896	0.170819	0.466022
	N269	N	0.088426	0.173283	0.539538
	N270	N	0.084807	0.815237	0.466334
	N271	N	0.910916	0.811470	0.539435
	N272	N	0.178001	0.456036	0.917456
	N273	N	0.179493	0.530181	0.088626
	N274	N	0.819684	0.456721	0.090816
	N275	N	0.823881	0.530943	0.918675
	O276	O	0.575714	0.556537	0.489625
	H277	H	0.582652	0.555107	0.488014
	H278	H	0.574256	0.562313	0.489290
	O279	O	0.559103	0.431848	0.451788
	H280	H	0.560778	0.434133	0.434974
	H281	H	0.543687	0.428292	0.451432
	O282	O	0.887767	1.151020	-0.140289
	H283	H	0.886428	1.148455	-0.137063
	H284	H	0.885071	1.147086	-0.149465
	O285	O	1.056745	0.002783	1.028651
	H286	H	1.050057	0.006270	1.019070
	H287	H	1.048299	0.009349	1.040337
	O288	O	0.469210	0.496739	0.570541
	H289	H	0.457891	0.491570	0.573531
	H290	H	0.468372	0.512106	0.570268
	O291	O	0.519525	0.541476	0.464903
	H292	H	0.519084	0.545769	0.456235
	H293	H	0.524889	0.549896	0.473178
	O294	O	0.439315	0.635206	0.432113
	H295	H	0.429869	0.646211	0.428466
	H296	H	0.440347	0.634234	0.436923
	O297	O	-0.072739	0.052693	0.927146
	H298	H	-0.070840	0.046154	0.924094
	H299	H	-0.080847	0.059410	0.930657
	O300	O	0.409111	0.512737	0.526535
	H301	H	0.406587	0.523217	0.531158
	H302	H	0.422053	0.521133	0.523648
	O303	O	1.002170	1.024484	-0.005784
	H304	H	0.996432	1.025418	-0.007945
	H305	H	1.009510	1.035889	-0.004629
	O306	O	-0.058708	0.874497	0.996934
	H307	H	-0.057959	0.869719	0.984939
	H308	H	-0.057050	0.867984	1.000287
	O309	O	0.457982	0.519710	0.547450
	H310	H	0.459879	0.515659	0.545421
	H311	H	0.475685	0.510764	0.546598
	O312	O	0.139029	-0.069376	-0.002715
	H313	H	0.134996	-0.053906	-0.004900
	H314	H	0.141134	-0.061505	-0.009686
	O315	O	1.077373	0.075946	0.076492
	H316	H	1.064821	0.071202	0.072897
	H317	H	1.079861	0.063957	0.083873
	O318	O	0.984437	1.066407	0.933006
	H319	H	0.975536	1.076304	0.915661
	H320	H	0.988523	1.059930	0.929525
	O321	O	-0.006191	0.029714	1.073802
	H322	H	-0.011170	0.030558	1.073588
	H323	H	-0.002488	0.030350	1.072590
	O324	O	0.575622	0.594864	0.639670
	H325	H	0.568917	0.575328	0.641128
	H326	H	0.577367	0.582577	0.651095
	O327	O	-0.144418	0.031775	-0.019546
	H328	H	-0.145569	0.032697	-0.001520
	H329	H	-0.159009	0.021777	-0.028308
	O330	O	0.478711	0.462371	0.364527
	H331	H	0.470384	0.459197	0.363172
	H332	H	0.481690	0.470176	0.364226
	O333	O	-0.043269	0.858809	1.129988
	H334	H	-0.027365	0.868024	1.122048
	H335	H	-0.044140	0.856714	1.140871
	O336	O	0.115397	-0.041102	-0.036816
	H337	H	0.111765	-0.037103	-0.040342
	H338	H	0.116045	-0.047125	-0.046490
	O339	O	0.416416	0.429899	0.527832
	H340	H	0.416022	0.416681	0.527348
	H341	H	0.415451	0.422572	0.532718
	O342	O	1.024493	1.016851	0.973381
	H343	H	1.025327	1.010440	0.982502
	H344	H	1.033132	1.024424	0.978108
	O345	O	0.763202	1.731246	-0.200382
	H346	H	0.775248	1.739947	-0.193960
	H347	H	0.763719	1.724544	-0.197690
	O348	O	0.591667	0.419107	0.498927
	H349	H	0.579631	0.412111	0.490937
	H350	H	0.587588	0.414372	0.495539
	O351	O	0.467116	0.437932	0.505025
	H352	H	0.462363	0.435264	0.512368
	H353	H	0.468485	0.442546	0.500605
	O354	O	0.536516	0.478651	0.554199
	H355	H	0.528064	0.478205	0.543326
	H356	H	0.532999	0.486162	0.560141
	O357	O	0.946337	0.074409	0.972136
	H358	H	0.937313	0.081919	0.979426
	H359	H	0.955262	0.077303	0.974258
	O360	O	0.469497	0.465783	0.509075
	H361	H	0.466761	0.476116	0.509265
	H362	H	0.467877	0.465938	0.509816
	O363	O	0.498623	0.504933	0.483684
	H364	H	0.492403	0.490844	0.489578
	H365	H	0.504870	0.497424	0.479967
	O366	O	0.986366	0.986194	0.993723
	H367	H	0.980446	0.985084	1.004600
	H368	H	0.984593	0.996259	1.001363
	O369	O	1.041892	-0.128674	0.939970
	H370	H	1.055007	-0.141005	0.934400
	H371	H	1.039228	-0.125307	0.941349
	O372	O	0.067442	0.073480	0.065645
	H373	H	0.079501	0.086256	0.065239
	H374	H	0.077137	0.059756	0.074776
	O375	O	0.895949	-0.019849	0.022417
	H376	H	0.885276	-0.031805	0.008904
	H377	H	0.894491	-0.028642	0.032974
	O378	O	0.536789	0.547062	0.488705
	H379	H	0.548747	0.548319	0.488413
	H380	H	0.543125	0.554956	0.496636
	O381	O	0.942601	0.900852	0.106778
	H382	H	0.948626	0.901966	0.115847
	H383	H	0.924930	0.897356	0.108565
