data_Molecule from HDF5

_cell_length_a		16.369225
_cell_length_b		16.176450
_cell_length_c		16.287400
_cell_angle_alpha	90.210356
_cell_angle_beta	89.894870
_cell_angle_gamma	89.474629
_symmetry_space_group_name_H-M	'P 1'
_symmetry_Int_Tables_number		1

loop_
	_symmetry_equiv_pos_as_xyz
	x,y,z

loop_
	_atom_site_label
	_atom_site_type_symbol
	_atom_site_fract_x
	_atom_site_fract_y
	_atom_site_fract_z
	H0	H	0.398025	0.828940	0.713310
	H1	H	0.600435	0.155149	0.715474
	H2	H	0.600211	0.828618	0.280782
	H3	H	0.399372	0.156861	0.284538
	H4	H	0.722310	0.388021	0.837320
	H5	H	0.714107	0.595144	0.160763
	H6	H	0.277153	0.600062	0.837787
	H7	H	0.280357	0.388871	0.158519
	H8	H	0.836797	0.710149	0.401853
	H9	H	0.162567	0.708607	0.599839
	H10	H	0.836973	0.276475	0.602037
	H11	H	0.161222	0.273049	0.397963
	H12	H	0.836821	0.395559	0.716678
	H13	H	0.159174	0.597882	0.720145
	H14	H	0.837176	0.596177	0.284002
	H15	H	0.160355	0.388217	0.280285
	H16	H	0.398668	0.707954	0.833771
	H17	H	0.597638	0.709714	0.159571
	H18	H	0.604201	0.273889	0.835283
	H19	H	0.400939	0.278651	0.160536
	H20	H	0.719351	0.829566	0.391925
	H21	H	0.713894	0.156253	0.597996
	H22	H	0.286252	0.828081	0.595729
	H23	H	0.279768	0.153724	0.393617
	H24	H	0.901109	0.329530	0.214327
	H25	H	0.099598	0.656653	0.217988
	H26	H	0.105266	0.332286	0.778981
	H27	H	0.895483	0.656993	0.784531
	H28	H	0.217817	0.886634	0.335173
	H29	H	0.220640	0.094825	0.658792
	H30	H	0.782188	0.096650	0.335113
	H31	H	0.780166	0.890213	0.657774
	H32	H	0.338761	0.213613	0.895335
	H33	H	0.662882	0.206746	0.096393
	H34	H	0.336540	0.777496	0.096685
	H35	H	0.660717	0.773290	0.894228
	H36	H	0.337127	0.892777	0.215008
	H37	H	0.661258	0.093406	0.214366
	H38	H	0.338215	0.097923	0.777488
	H39	H	0.661163	0.888922	0.777896
	H40	H	0.898625	0.211038	0.336745
	H41	H	0.102339	0.209663	0.662124
	H42	H	0.100283	0.773582	0.336154
	H43	H	0.901050	0.781753	0.662384
	H44	H	0.221646	0.332742	0.892172
	H45	H	0.215352	0.656576	0.102503
	H46	H	0.784787	0.330205	0.101223
	H47	H	0.782101	0.656295	0.899512
	H48	H	0.415453	0.107103	0.591400
	H49	H	0.584220	0.874751	0.594773
	H50	H	0.601753	0.113475	0.403771
	H51	H	0.413212	0.875087	0.399002
	H52	H	0.593317	0.397999	0.114235
	H53	H	0.593262	0.589638	0.878331
	H54	H	0.408222	0.581385	0.112171
	H55	H	0.413358	0.408499	0.885352
	H56	H	0.116037	0.585755	0.406161
	H57	H	0.883369	0.581835	0.602068
	H58	H	0.118416	0.395504	0.598541
	H59	H	0.885817	0.399904	0.412278
	H60	H	0.110849	0.397306	0.579403
	H61	H	0.879767	0.598531	0.594334
	H62	H	0.113150	0.582809	0.412351
	H63	H	0.886333	0.408481	0.408478
	H64	H	0.409700	0.587252	0.112617
	H65	H	0.599406	0.576477	0.881484
	H66	H	0.596052	0.403116	0.113596
	H67	H	0.412656	0.400349	0.882280
	H68	H	0.585152	0.110310	0.395859
	H69	H	0.587061	0.882637	0.575656
	H70	H	0.410401	0.104299	0.577447
	H71	H	0.410109	0.875908	0.409351
	H72	H	0.911405	0.609325	0.092575
	H73	H	0.090128	0.377108	0.091175
	H74	H	0.077181	0.607095	0.907390
	H75	H	0.910628	0.376745	0.909686
	H76	H	0.087486	0.910550	0.609079
	H77	H	0.095860	0.085381	0.380351
	H78	H	0.904967	0.082647	0.614026
	H79	H	0.918615	0.907489	0.387195
	H80	H	0.613212	0.079826	0.905115
	H81	H	0.384750	0.088723	0.088156
	H82	H	0.613344	0.898571	0.086806
	H83	H	0.382110	0.895714	0.903926
	H84	H	0.613362	0.902396	0.086512
	H85	H	0.385221	0.084250	0.089315
	H86	H	0.614036	0.082040	0.903072
	H87	H	0.386817	0.905258	0.909000
	H88	H	0.907226	0.081194	0.612489
	H89	H	0.090682	0.074550	0.385819
	H90	H	0.090480	0.892820	0.614986
	H91	H	0.910290	0.890226	0.378950
	H92	H	0.090442	0.606634	0.922465
	H93	H	0.090516	0.379050	0.086628
	H94	H	0.902814	0.610431	0.087562
	H95	H	0.909020	0.376316	0.907842
	H96	H	0.401852	0.110184	0.587722
	H97	H	0.602724	0.873166	0.584734
	H98	H	0.588079	0.105109	0.413932
	H99	H	0.402505	0.872077	0.401432
	H100	H	0.590797	0.402007	0.112884
	H101	H	0.585436	0.579591	0.885376
	H102	H	0.403383	0.585878	0.113771
	H103	H	0.405858	0.406265	0.881925
	H104	H	0.113783	0.578551	0.406420
	H105	H	0.887809	0.585601	0.584398
	H106	H	0.110970	0.413657	0.591908
	H107	H	0.881990	0.401035	0.403317
	H108	H	0.903218	0.612542	0.096821
	H109	H	0.094272	0.376964	0.088382
	H110	H	0.095871	0.614693	0.904135
	H111	H	0.912207	0.377608	0.907041
	H112	H	0.103784	0.905407	0.615944
	H113	H	0.083409	0.084985	0.385246
	H114	H	0.907793	0.083628	0.612969
	H115	H	0.900265	0.908176	0.380539
	H116	H	0.614800	0.082996	0.905828
	H117	H	0.384142	0.086423	0.092253
	H118	H	0.613265	0.901502	0.089876
	H119	H	0.383661	0.905748	0.897783
	C120	C	0.379187	0.000056	0.616351
	C121	C	0.620755	0.984113	0.616878
	C122	C	0.622005	0.001294	0.374175
	C123	C	0.378216	0.982938	0.374832
	C124	C	0.624005	0.369957	0.006677
	C125	C	0.620839	0.613089	0.988912
	C126	C	0.376815	0.615411	0.005986
	C127	C	0.379575	0.373422	0.989544
	C128	C	0.007417	0.614035	0.378748
	C129	C	0.990578	0.617711	0.623003
	C130	C	0.006950	0.372248	0.620999
	C131	C	0.991160	0.370845	0.377496
	C132	C	0.877719	0.502423	0.121548
	C133	C	0.121171	0.485114	0.120393
	C134	C	0.120415	0.502556	0.878409
	C135	C	0.878807	0.484889	0.878818
	C136	C	0.122915	0.870675	0.506388
	C137	C	0.121328	0.113047	0.490384
	C138	C	0.877085	0.114300	0.506199
	C139	C	0.879164	0.872359	0.489215
	C140	C	0.507514	0.114034	0.874751
	C141	C	0.491692	0.115152	0.119185
	C142	C	0.506940	0.871177	0.118194
	C143	C	0.491099	0.870554	0.873824
	C144	C	0.379391	0.877717	0.674346
	C145	C	0.619627	0.106878	0.675719
	C146	C	0.620489	0.877798	0.318208
	C147	C	0.379134	0.107087	0.320930
	C148	C	0.682438	0.369206	0.885220
	C149	C	0.676139	0.613981	0.111802
	C150	C	0.317565	0.617276	0.885173
	C151	C	0.320794	0.371487	0.110702
	C152	C	0.885594	0.671777	0.381051
	C153	C	0.113238	0.672028	0.620582
	C154	C	0.885380	0.315288	0.621222
	C155	C	0.112664	0.312240	0.378069
	C156	C	0.885256	0.374635	0.678157
	C157	C	0.111715	0.616896	0.680446
	C158	C	0.885686	0.614821	0.322495
	C159	C	0.112153	0.369400	0.319430
	C160	C	0.377852	0.671315	0.883246
	C161	C	0.618137	0.671138	0.111094
	C162	C	0.623680	0.312496	0.884225
	C163	C	0.380528	0.316177	0.111578
	C164	C	0.679742	0.878361	0.373925
	C165	C	0.676402	0.107174	0.617546
	C166	C	0.323649	0.877161	0.615792
	C167	C	0.319537	0.105418	0.375124
	C168	C	0.880578	0.378844	0.176921
	C169	C	0.119581	0.607767	0.178866
	C170	C	0.123154	0.381034	0.818427
	C171	C	0.877427	0.607911	0.822794
	C172	C	0.179214	0.868682	0.383968
	C173	C	0.180783	0.114211	0.611097
	C174	C	0.820817	0.115348	0.384064
	C175	C	0.820156	0.872092	0.610245
	C176	C	0.386889	0.174074	0.875365
	C177	C	0.613803	0.169641	0.116899
	C178	C	0.384777	0.815820	0.116615
	C179	C	0.612349	0.812267	0.874781
	C180	C	0.385212	0.873002	0.175630
	C181	C	0.612895	0.113236	0.175840
	C182	C	0.386652	0.116424	0.816701
	C183	C	0.612550	0.869712	0.816704
	C184	C	0.878774	0.172141	0.384866
	C185	C	0.121658	0.171055	0.612747
	C186	C	0.120779	0.812341	0.384276
	C187	C	0.880599	0.818149	0.612570
	C188	C	0.181134	0.381158	0.874990
	C189	C	0.177360	0.607698	0.121504
	C190	C	0.822830	0.379015	0.120331
	C191	C	0.820350	0.607451	0.879628
	C192	C	0.402324	0.085304	0.592389
	C193	C	0.597859	0.898984	0.592356
	C194	C	0.598463	0.087452	0.397674
	C195	C	0.401849	0.896784	0.396935
	C196	C	0.600303	0.393978	0.091564
	C197	C	0.599055	0.589011	0.903607
	C198	C	0.400230	0.591786	0.090763
	C199	C	0.403684	0.397932	0.905156
	C200	C	0.092276	0.589482	0.401749
	C201	C	0.905844	0.595343	0.600409
	C202	C	0.091277	0.395317	0.596981
	C203	C	0.906662	0.395806	0.401134
	C204	C	0.899308	0.588273	0.098935
	C205	C	0.098413	0.399828	0.095919
	C206	C	0.095227	0.587518	0.903941
	C207	C	0.903553	0.399132	0.901634
	C208	C	0.100441	0.895813	0.591211
	C209	C	0.096845	0.088837	0.405812
	C210	C	0.900124	0.089607	0.591207
	C211	C	0.902821	0.895267	0.404042
	C212	C	0.592157	0.088828	0.897877
	C213	C	0.406807	0.093031	0.096398
	C214	C	0.591330	0.894110	0.094621
	C215	C	0.406145	0.895080	0.896971
	Zn216	Zn	0.499462	-0.007921	0.744874
	Zn217	Zn	0.498897	-0.006999	0.247918
	Zn218	Zn	0.750884	0.492828	-0.000569
	Zn219	Zn	0.249199	0.494164	-0.001612
	Zn220	Zn	0.000205	0.744291	0.499582
	Zn221	Zn	-0.000773	0.242212	0.499691
	Zn222	Zn	-0.000851	0.494999	0.750566
	Zn223	Zn	-0.000488	0.493340	0.248619
	Zn224	Zn	0.498727	0.742158	-0.003935
	Zn225	Zn	0.500397	0.243678	-0.002854
	Zn226	Zn	0.749384	-0.007400	0.496328
	Zn227	Zn	0.251173	-0.008452	0.496292
	N228	N	0.413467	0.955116	0.674673
	N229	N	0.585844	0.029409	0.675549
	N230	N	0.585426	0.955277	0.318324
	N231	N	0.414957	0.029882	0.320564
	N232	N	0.682771	0.404243	0.962329
	N233	N	0.678066	0.578466	0.034915
	N234	N	0.316624	0.583087	0.962437
	N235	N	0.319913	0.406337	0.033815
	N236	N	0.962517	0.671708	0.415271
	N237	N	0.036834	0.672812	0.585644
	N238	N	0.962136	0.313573	0.586470
	N239	N	0.036385	0.313051	0.413569
	N240	N	0.961882	0.408925	0.678444
	N241	N	0.034591	0.583949	0.682248
	N242	N	0.962604	0.579773	0.321003
	N243	N	0.035628	0.405181	0.319047
	N244	N	0.414121	0.670055	0.959181
	N245	N	0.584499	0.670655	0.033727
	N246	N	0.588061	0.312855	0.960643
	N247	N	0.416343	0.317249	0.035141
	N248	N	0.680749	0.956413	0.407971
	N249	N	0.677094	0.030097	0.581513
	N250	N	0.323359	0.954254	0.580547
	N251	N	0.318870	0.027267	0.407795
	N252	N	0.914167	0.456433	0.177715
	N253	N	0.085548	0.530445	0.178388
	N254	N	0.086139	0.457662	0.820403
	N255	N	0.913155	0.530674	0.822187
	N256	N	0.180637	0.904256	0.460853
	N257	N	0.180756	0.079209	0.533983
	N258	N	0.819618	0.080181	0.460753
	N259	N	0.818989	0.905004	0.532533
	N260	N	0.463188	0.172902	0.910491
	N261	N	0.537342	0.170856	0.082219
	N262	N	0.461231	0.814650	0.081690
	N263	N	0.535670	0.812936	0.909804
	N264	N	0.462192	0.906701	0.176736
	N265	N	0.535923	0.079953	0.177317
	N266	N	0.462824	0.079939	0.816286
	N267	N	0.535989	0.905313	0.816044
	N268	N	0.913012	0.171770	0.461923
	N269	N	0.085094	0.170309	0.536731
	N270	N	0.086433	0.813416	0.461271
	N271	N	0.916742	0.818168	0.536300
	N272	N	0.179560	0.457895	0.911486
	N273	N	0.178421	0.530598	0.085610
	N274	N	0.820915	0.456847	0.086680
	N275	N	0.820957	0.529707	0.913608
	O276	O	0.139597	0.078429	-0.070200
	H277	H	0.131979	0.068394	-0.074329
	H278	H	0.146884	0.090472	-0.062896
	O279	O	0.602420	0.439716	0.605611
	H280	H	0.607930	0.446217	0.615001
	H281	H	0.590839	0.441887	0.615026
	O282	O	0.832188	0.125013	0.005684
	H283	H	0.836195	0.113601	0.004873
	H284	H	0.839706	0.131792	0.009499
	O285	O	-0.063144	0.842015	-0.069950
	H286	H	-0.055276	0.837100	-0.079489
	H287	H	-0.064833	0.845769	-0.062412
	O288	O	1.080001	0.911063	0.008588
	H289	H	1.085191	0.917649	0.002687
	H290	H	1.076825	0.924033	0.009070
	O291	O	0.630575	0.471582	0.586729
	H292	H	0.611469	0.466775	0.578397
	H293	H	0.636783	0.479848	0.587929
	O294	O	0.933074	1.158574	0.926929
	H295	H	0.899193	1.165466	0.928703
	H296	H	0.939967	1.164668	0.916002
	O297	O	0.096861	0.084947	0.134748
	H298	H	0.104367	0.086627	0.141364
	H299	H	0.106881	0.098545	0.124309
	O300	O	0.545654	0.492538	0.542408
	H301	H	0.558043	0.482981	0.550890
	H302	H	0.549905	0.500382	0.550457
	O303	O	0.107495	1.181880	1.070496
	H304	H	0.111949	1.194746	1.054964
	H305	H	0.106509	1.185408	1.061218
	O306	O	0.376332	0.555962	0.452962
	H307	H	0.385287	0.552981	0.447007
	H308	H	0.370857	0.544113	0.464556
	O309	O	1.034959	-0.059010	-0.180828
	H310	H	1.039004	-0.057959	-0.174397
	H311	H	1.034732	-0.046253	-0.174541
	O312	O	0.168987	-0.017499	0.964076
	H313	H	0.167688	-0.012216	0.983692
	H314	H	0.161861	-0.016888	0.953172
	O315	O	0.421629	0.602834	0.410568
	H316	H	0.421620	0.612627	0.395803
	H317	H	0.432202	0.598094	0.401054
	O318	O	0.538687	0.393965	0.473222
	H319	H	0.537454	0.389108	0.470957
	H320	H	0.548018	0.396027	0.466058
	O321	O	0.335770	0.398339	0.668043
	H322	H	0.329925	0.377785	0.666291
	H323	H	0.326421	0.408744	0.678230
	O324	O	0.437478	0.469875	0.593766
	H325	H	0.433297	0.451755	0.600057
	H326	H	0.450738	0.470659	0.577444
	O327	O	0.063052	0.945572	0.829714
	H328	H	0.060108	0.939722	0.820387
	H329	H	0.064302	0.956062	0.838505
	O330	O	0.531690	0.464669	0.654104
	H331	H	0.511150	0.468116	0.657861
	H332	H	0.543437	0.477781	0.654530
	O333	O	-0.146349	1.081538	0.931340
	H334	H	-0.147548	1.092813	0.936737
	H335	H	-0.140253	1.069031	0.952571
	O336	O	1.064001	0.950085	1.027909
	H337	H	1.073801	0.948381	1.032682
	H338	H	1.059629	0.963119	1.020646
	O339	O	0.563726	0.508914	0.416503
	H340	H	0.572644	0.511271	0.425426
	H341	H	0.566476	0.510833	0.418137
	O342	O	0.987098	-0.146537	0.000767
	H343	H	0.977411	-0.153838	-0.005654
	H344	H	0.992782	-0.135604	-0.000656
	O345	O	0.464297	0.400682	0.456244
	H346	H	0.456570	0.424008	0.454119
	H347	H	0.476206	0.403806	0.463250
	O348	O	0.836109	0.955718	1.045507
	H349	H	0.836293	0.934357	1.054718
	H350	H	0.840295	0.954005	1.046894
	O351	O	1.019522	0.900054	0.107036
	H352	H	1.010249	0.892973	0.108681
	H353	H	1.023315	0.889175	0.100477
	O354	O	0.444715	0.528654	0.590561
	H355	H	0.441979	0.520347	0.591769
	H356	H	0.443485	0.532296	0.594185
	O357	O	0.408498	0.410185	0.667021
	H358	H	0.402969	0.402981	0.648951
	H359	H	0.429374	0.403308	0.669754
	O360	O	0.016577	0.120441	-0.108286
	H361	H	-0.005429	0.126191	-0.122488
	H362	H	0.010292	0.113350	-0.110815
	O363	O	0.501868	0.373783	0.535254
	H364	H	0.509638	0.386843	0.537166
	H365	H	0.511608	0.371277	0.530607
	O366	O	0.537157	0.539424	0.442862
	H367	H	0.540028	0.541247	0.444670
	H368	H	0.551780	0.553728	0.441225
	O369	O	0.482575	0.572231	0.504505
	H370	H	0.483513	0.569706	0.492699
	H371	H	0.487734	0.561647	0.528538
	O372	O	-0.023801	1.048406	1.001221
	H373	H	-0.024622	1.047518	0.994600
	H374	H	-0.042156	1.044276	1.010958
	O375	O	0.497490	0.501760	0.398299
	H376	H	0.499418	0.502178	0.396201
	H377	H	0.494912	0.491199	0.404718
	O378	O	0.518444	0.615574	0.489935
	H379	H	0.504268	0.615389	0.485446
	H380	H	0.509777	0.620543	0.497587
	O381	O	0.636941	0.383660	0.383988
	H382	H	0.638190	0.370803	0.387601
	H383	H	0.625290	0.385865	0.388135
	O384	O	-0.170313	0.979194	-0.033924
	H385	H	-0.170884	0.977840	-0.029577
	H386	H	-0.166005	0.979662	-0.039796
	O387	O	1.077364	0.114064	1.102244
	H388	H	1.079800	0.100125	1.102247
	H389	H	1.083807	0.122577	1.116077
	O390	O	-0.049614	0.955544	0.126557
	H391	H	-0.051974	0.959648	0.134592
	H392	H	-0.043522	0.960003	0.119652
	O393	O	0.917608	1.073361	0.053533
	H394	H	0.929411	1.057643	0.040898
	H395	H	0.921515	1.069899	0.061166
	O396	O	0.557808	0.575099	0.343005
	H397	H	0.545141	0.554679	0.340873
	H398	H	0.560949	0.569539	0.329326
	O399	O	-0.027878	0.809459	0.860740
	H400	H	0.000073	0.809566	0.872067
	H401	H	-0.023123	0.800242	0.843272
	O402	O	1.045811	0.854782	1.103656
	H403	H	1.039864	0.850217	1.104186
	H404	H	1.048617	0.853610	1.101363
	O405	O	0.320596	0.475098	0.356275
	H406	H	0.325987	0.479997	0.349296
	H407	H	0.317828	0.488938	0.358809
