data_Molecule from HDF5

_cell_length_a		16.334682
_cell_length_b		16.319224
_cell_length_c		16.220270
_cell_angle_alpha	90.115109
_cell_angle_beta	90.034266
_cell_angle_gamma	90.056631
_symmetry_space_group_name_H-M	'P 1'
_symmetry_Int_Tables_number		1

loop_
	_symmetry_equiv_pos_as_xyz
	x,y,z

loop_
	_atom_site_label
	_atom_site_type_symbol
	_atom_site_fract_x
	_atom_site_fract_y
	_atom_site_fract_z
	H0	H	0.392459	0.829084	0.706654
	H1	H	0.584437	0.156820	0.705742
	H2	H	0.584425	0.828604	0.280805
	H3	H	0.390696	0.157056	0.279741
	H4	H	0.702755	0.394065	0.829500
	H5	H	0.704230	0.591254	0.158293
	H6	H	0.276609	0.588925	0.829032
	H7	H	0.274681	0.394795	0.158400
	H8	H	0.825109	0.707120	0.394859
	H9	H	0.151734	0.707925	0.591959
	H10	H	0.825792	0.278327	0.591061
	H11	H	0.151603	0.276905	0.394143
	H12	H	0.825544	0.396613	0.705867
	H13	H	0.152679	0.590775	0.706669
	H14	H	0.824966	0.588652	0.280381
	H15	H	0.152862	0.396088	0.280221
	H16	H	0.391744	0.705590	0.829366
	H17	H	0.586357	0.705788	0.158640
	H18	H	0.586013	0.279926	0.829266
	H19	H	0.391455	0.278909	0.158124
	H20	H	0.701834	0.828393	0.396139
	H21	H	0.705047	0.154848	0.594892
	H22	H	0.274639	0.828467	0.591783
	H23	H	0.273966	0.155711	0.395772
	H24	H	0.892312	0.328774	0.206386
	H25	H	0.087605	0.656474	0.209347
	H26	H	0.085352	0.328159	0.780934
	H27	H	0.893161	0.656615	0.780801
	H28	H	0.202927	0.893775	0.329556
	H29	H	0.202042	0.090487	0.658543
	H30	H	0.774037	0.089954	0.330040
	H31	H	0.774662	0.894164	0.658078
	H32	H	0.325923	0.206415	0.895480
	H33	H	0.652624	0.208313	0.093518
	H34	H	0.325973	0.777996	0.092277
	H35	H	0.652537	0.777199	0.895097
	H36	H	0.325029	0.896083	0.206602
	H37	H	0.652704	0.090408	0.208467
	H38	H	0.325641	0.089845	0.780075
	H39	H	0.653080	0.894903	0.780143
	H40	H	0.890791	0.204633	0.328995
	H41	H	0.086201	0.206337	0.658296
	H42	H	0.085382	0.779416	0.328846
	H43	H	0.890679	0.779440	0.658356
	H44	H	0.203542	0.329149	0.895278
	H45	H	0.204788	0.655955	0.094512
	H46	H	0.774481	0.329743	0.091856
	H47	H	0.774672	0.655782	0.894916
	H48	H	0.398779	0.108307	0.588882
	H49	H	0.587113	0.875736	0.585935
	H50	H	0.574659	0.104855	0.407461
	H51	H	0.406178	0.883013	0.409407
	H52	H	0.584956	0.392294	0.114131
	H53	H	0.576334	0.584474	0.879303
	H54	H	0.398413	0.585552	0.110124
	H55	H	0.385282	0.399646	0.873695
	H56	H	0.104248	0.585285	0.401662
	H57	H	0.870588	0.586054	0.594477
	H58	H	0.106309	0.397267	0.586010
	H59	H	0.874465	0.403010	0.400574
	H60	H	0.104982	0.398917	0.585820
	H61	H	0.871328	0.592333	0.584138
	H62	H	0.105305	0.587551	0.400376
	H63	H	0.870696	0.396060	0.394617
	H64	H	0.394995	0.588481	0.111625
	H65	H	0.584484	0.590608	0.874331
	H66	H	0.588683	0.406702	0.110538
	H67	H	0.400286	0.407510	0.881984
	H68	H	0.591847	0.109706	0.406513
	H69	H	0.581382	0.874409	0.591224
	H70	H	0.392182	0.108722	0.582679
	H71	H	0.380284	0.874329	0.405912
	H72	H	0.895118	0.608799	0.084194
	H73	H	0.088024	0.378179	0.075462
	H74	H	0.085779	0.609297	0.902518
	H75	H	0.887759	0.373279	0.897187
	H76	H	0.077137	0.905823	0.607371
	H77	H	0.083701	0.078381	0.378036
	H78	H	0.894505	0.082933	0.611012
	H79	H	0.899584	0.897189	0.377581
	H80	H	0.607993	0.083953	0.888529
	H81	H	0.373224	0.089314	0.083577
	H82	H	0.605123	0.904088	0.091821
	H83	H	0.373503	0.901328	0.899497
	H84	H	0.607047	0.892490	0.088228
	H85	H	0.374672	0.081921	0.085822
	H86	H	0.607875	0.098218	0.903529
	H87	H	0.372424	0.896612	0.898815
	H88	H	0.898485	0.085769	0.609610
	H89	H	0.074909	0.086823	0.378245
	H90	H	0.079811	0.892288	0.611938
	H91	H	0.890967	0.896388	0.374595
	H92	H	0.084747	0.609814	0.897957
	H93	H	0.085990	0.373099	0.095990
	H94	H	0.893364	0.610579	0.088602
	H95	H	0.901067	0.376144	0.894869
	H96	H	0.391194	0.110597	0.591448
	H97	H	0.579795	0.876934	0.584097
	H98	H	0.581440	0.111026	0.391961
	H99	H	0.397686	0.872659	0.384459
	H100	H	0.574205	0.402124	0.108229
	H101	H	0.586415	0.580118	0.877256
	H102	H	0.393616	0.583734	0.111082
	H103	H	0.400420	0.389541	0.875487
	H104	H	0.104615	0.587706	0.402876
	H105	H	0.875008	0.581224	0.583764
	H106	H	0.106687	0.398680	0.587425
	H107	H	0.872309	0.393635	0.403907
	H108	H	0.898194	0.609054	0.088671
	H109	H	0.070308	0.380752	0.085303
	H110	H	0.081661	0.607823	0.900297
	H111	H	0.895438	0.378411	0.907764
	H112	H	0.090106	0.902244	0.612379
	H113	H	0.085950	0.089719	0.374540
	H114	H	0.894015	0.087808	0.612372
	H115	H	0.893897	0.904056	0.378236
	H116	H	0.601276	0.079212	0.908027
	H117	H	0.371902	0.087698	0.090884
	H118	H	0.603849	0.900819	0.079838
	H119	H	0.374289	0.898141	0.903101
	C120	C	0.366893	0.000781	0.615292
	C121	C	0.610654	0.984091	0.615547
	C122	C	0.610254	0.000258	0.373377
	C123	C	0.366736	0.984626	0.371551
	C124	C	0.610504	0.371856	0.002332
	C125	C	0.610757	0.613694	0.985760
	C126	C	0.367611	0.613870	0.002402
	C127	C	0.367312	0.371100	0.985442
	C128	C	-0.003380	0.614110	0.373040
	C129	C	0.980375	0.614898	0.615614
	C130	C	-0.002174	0.370821	0.614471
	C131	C	0.980567	0.369946	0.371626
	C132	C	0.867287	0.501217	0.115135
	C133	C	0.110288	0.485076	0.115147
	C134	C	0.111478	0.500764	0.872052
	C135	C	0.867467	0.484221	0.871898
	C136	C	0.110053	0.871551	0.501792
	C137	C	0.110028	0.114012	0.485580
	C138	C	0.867131	0.113522	0.502440
	C139	C	0.866650	0.871064	0.485393
	C140	C	0.497566	0.114620	0.872052
	C141	C	0.480996	0.114721	0.115721
	C142	C	0.497391	0.871010	0.115244
	C143	C	0.481218	0.870369	0.871902
	C144	C	0.370715	0.877554	0.669389
	C145	C	0.606884	0.107418	0.669753
	C146	C	0.606379	0.877437	0.318173
	C147	C	0.370328	0.107934	0.317246
	C148	C	0.665353	0.373828	0.878764
	C149	C	0.666197	0.611732	0.109218
	C150	C	0.313755	0.610339	0.878394
	C151	C	0.312271	0.373781	0.109361
	C152	C	0.873666	0.668846	0.374902
	C153	C	0.103140	0.669821	0.612271
	C154	C	0.874492	0.316237	0.611821
	C155	C	0.103269	0.315230	0.373988
	C156	C	0.874411	0.374747	0.668751
	C157	C	0.103771	0.611253	0.669087
	C158	C	0.873574	0.610248	0.317969
	C159	C	0.103858	0.374227	0.317360
	C160	C	0.371046	0.667989	0.878387
	C161	C	0.607651	0.668380	0.109491
	C162	C	0.607481	0.317061	0.878545
	C163	C	0.370638	0.316732	0.109350
	C164	C	0.664796	0.877465	0.375330
	C165	C	0.666113	0.106572	0.614052
	C166	C	0.312455	0.877497	0.612141
	C167	C	0.312138	0.107409	0.374636
	C168	C	0.871268	0.377787	0.169194
	C169	C	0.107910	0.607805	0.170891
	C170	C	0.107281	0.377512	0.817551
	C171	C	0.871533	0.607672	0.818100
	C172	C	0.164722	0.873372	0.378191
	C173	C	0.165110	0.111436	0.609123
	C174	C	0.812203	0.110441	0.378763
	C175	C	0.812304	0.873870	0.609164
	C176	C	0.374555	0.168718	0.874858
	C177	C	0.603876	0.170065	0.113582
	C178	C	0.374608	0.816197	0.112588
	C179	C	0.603982	0.815165	0.874352
	C180	C	0.374079	0.874965	0.169258
	C181	C	0.604190	0.111561	0.170609
	C182	C	0.374436	0.110774	0.817629
	C183	C	0.604160	0.873814	0.817464
	C184	C	0.869941	0.167604	0.378431
	C185	C	0.107210	0.168740	0.609344
	C186	C	0.106380	0.816661	0.378145
	C187	C	0.869826	0.816797	0.609408
	C188	C	0.165524	0.377623	0.874750
	C189	C	0.166332	0.607479	0.113966
	C190	C	0.812780	0.378160	0.112399
	C191	C	0.812915	0.607266	0.875020
	C192	C	0.387926	0.086979	0.593875
	C193	C	0.589064	0.898009	0.593599
	C194	C	0.588882	0.086351	0.395458
	C195	C	0.388239	0.898676	0.393373
	C196	C	0.588893	0.393867	0.088812
	C197	C	0.588712	0.591679	0.899171
	C198	C	0.389424	0.592429	0.088663
	C199	C	0.388752	0.392674	0.899296
	C200	C	0.082572	0.592949	0.395124
	C201	C	0.894431	0.592983	0.594016
	C202	C	0.083761	0.392049	0.592685
	C203	C	0.894599	0.391167	0.393263
	C204	C	0.889025	0.587139	0.093411
	C205	C	0.087908	0.399543	0.092317
	C206	C	0.090212	0.586801	0.893909
	C207	C	0.888560	0.398263	0.893569
	C208	C	0.088802	0.893710	0.588286
	C209	C	0.088059	0.091616	0.399305
	C210	C	0.889402	0.092022	0.588725
	C211	C	0.888486	0.892875	0.399060
	C212	C	0.583430	0.093441	0.893753
	C213	C	0.395518	0.092869	0.093337
	C214	C	0.583302	0.892764	0.093107
	C215	C	0.395558	0.892296	0.894062
	Zn216	Zn	0.489265	-0.007670	0.743851
	Zn217	Zn	0.489126	-0.007072	0.243683
	Zn218	Zn	0.738799	0.492359	-0.006105
	Zn219	Zn	0.239180	0.492723	-0.006000
	Zn220	Zn	-0.012064	0.743500	0.494057
	Zn221	Zn	-0.011523	0.241853	0.493432
	Zn222	Zn	-0.010468	0.492510	0.743406
	Zn223	Zn	-0.010938	0.492560	0.243852
	Zn224	Zn	0.489377	0.741895	-0.006011
	Zn225	Zn	0.489305	0.243281	-0.006203
	Zn226	Zn	0.739188	-0.007781	0.494892
	Zn227	Zn	0.238171	-0.007406	0.493617
	N228	N	0.403917	0.954943	0.671399
	N229	N	0.572761	0.030148	0.670480
	N230	N	0.573382	0.954867	0.316620
	N231	N	0.403594	0.030250	0.315136
	N232	N	0.666955	0.407410	0.956706
	N233	N	0.667991	0.578272	0.031303
	N234	N	0.311403	0.577431	0.956473
	N235	N	0.310175	0.406942	0.031384
	N236	N	0.951160	0.671580	0.408206
	N237	N	0.025301	0.672300	0.579863
	N238	N	0.952137	0.313492	0.579061
	N239	N	0.025501	0.312259	0.406683
	N240	N	0.952004	0.408008	0.670504
	N241	N	0.026444	0.577797	0.671189
	N242	N	0.950982	0.576983	0.316700
	N243	N	0.026523	0.407490	0.315853
	N244	N	0.404017	0.670125	0.956379
	N245	N	0.573912	0.669680	0.031600
	N246	N	0.574028	0.315693	0.956346
	N247	N	0.404068	0.314899	0.031576
	N248	N	0.666844	0.954766	0.409308
	N249	N	0.668620	0.028811	0.581400
	N250	N	0.309816	0.955395	0.579350
	N251	N	0.310023	0.030058	0.407766
	N252	N	0.904637	0.455289	0.170932
	N253	N	0.073922	0.530689	0.171882
	N254	N	0.074391	0.455145	0.815943
	N255	N	0.904597	0.530264	0.815930
	N256	N	0.166963	0.906845	0.455989
	N257	N	0.166730	0.077861	0.531108
	N258	N	0.810400	0.077570	0.456690
	N259	N	0.810274	0.906778	0.531185
	N260	N	0.452167	0.171472	0.907940
	N261	N	0.526313	0.172274	0.080179
	N262	N	0.452172	0.813776	0.079558
	N263	N	0.526494	0.812903	0.907676
	N264	N	0.451732	0.908037	0.171189
	N265	N	0.527011	0.077704	0.171908
	N266	N	0.451774	0.077699	0.815813
	N267	N	0.526786	0.907374	0.815942
	N268	N	0.903617	0.169649	0.456402
	N269	N	0.073866	0.170512	0.531533
	N270	N	0.072889	0.815460	0.456001
	N271	N	0.903092	0.814943	0.531539
	N272	N	0.168229	0.455262	0.907838
	N273	N	0.167690	0.530152	0.079687
	N274	N	0.810197	0.455832	0.079668
	N275	N	0.810057	0.529379	0.907624
	O276	O	1.026936	0.023428	1.046704
	H277	H	1.028697	0.025559	1.047438
	H278	H	1.024258	0.028351	1.031132
	O279	O	1.074088	1.033389	1.022071
	H280	H	1.078691	1.029674	1.028590
	H281	H	1.076514	1.034677	1.030492
	O282	O	1.052474	1.015158	0.017199
	H283	H	1.050134	1.018231	0.019984
	H284	H	1.051865	1.015398	0.024048
	O285	O	1.034566	1.004961	0.999858
	H286	H	1.040154	1.005935	0.998496
	H287	H	1.033855	1.002993	0.990200
