data_Molecule from HDF5

_cell_length_a		16.315627
_cell_length_b		16.453903
_cell_length_c		16.428019
_cell_angle_alpha	90.056932
_cell_angle_beta	89.986255
_cell_angle_gamma	89.955523
_symmetry_space_group_name_H-M	'P 1'
_symmetry_Int_Tables_number		1

loop_
	_symmetry_equiv_pos_as_xyz
	x,y,z

loop_
	_atom_site_label
	_atom_site_type_symbol
	_atom_site_fract_x
	_atom_site_fract_y
	_atom_site_fract_z
	H0	H	0.390949	0.829894	0.721585
	H1	H	0.603922	0.145525	0.725602
	H2	H	0.602859	0.831345	0.279253
	H3	H	0.386388	0.145503	0.275773
	H4	H	0.718987	0.381136	0.841966
	H5	H	0.715223	0.589683	0.160204
	H6	H	0.275609	0.592231	0.841533
	H7	H	0.272444	0.379236	0.157229
	H8	H	0.836763	0.708894	0.393195
	H9	H	0.155601	0.708404	0.603025
	H10	H	0.836946	0.267488	0.605975
	H11	H	0.153704	0.262702	0.389494
	H12	H	0.837461	0.381686	0.721927
	H13	H	0.153443	0.598264	0.723465
	H14	H	0.836958	0.591833	0.279749
	H15	H	0.157017	0.383857	0.279244
	H16	H	0.389060	0.711593	0.843800
	H17	H	0.604802	0.709847	0.158428
	H18	H	0.606814	0.262017	0.843565
	H19	H	0.388413	0.263049	0.157607
	H20	H	0.716936	0.830541	0.397665
	H21	H	0.717475	0.148092	0.607377
	H22	H	0.275265	0.830313	0.605191
	H23	H	0.274649	0.147741	0.396767
	H24	H	0.890960	0.331036	0.222855
	H25	H	0.105057	0.646843	0.222095
	H26	H	0.101627	0.330117	0.776349
	H27	H	0.887282	0.647049	0.776802
	H28	H	0.217225	0.885713	0.341779
	H29	H	0.216104	0.094898	0.660347
	H30	H	0.773629	0.094088	0.342094
	H31	H	0.776371	0.884838	0.660051
	H32	H	0.339774	0.210894	0.892288
	H33	H	0.655896	0.208260	0.107690
	H34	H	0.336556	0.767209	0.104962
	H35	H	0.656490	0.765056	0.894401
	H36	H	0.336323	0.881521	0.222804
	H37	H	0.654926	0.093209	0.223148
	H38	H	0.337222	0.091587	0.782265
	H39	H	0.655765	0.880610	0.779221
	H40	H	0.887917	0.211395	0.342311
	H41	H	0.103704	0.214523	0.657609
	H42	H	0.103514	0.767389	0.341938
	H43	H	0.889959	0.766031	0.657979
	H44	H	0.217594	0.328634	0.893585
	H45	H	0.220300	0.646162	0.104363
	H46	H	0.776220	0.329338	0.105814
	H47	H	0.773580	0.646896	0.895660
	H48	H	0.405270	0.100932	0.588571
	H49	H	0.584659	0.876700	0.588884
	H50	H	0.578393	0.098205	0.414892
	H51	H	0.404835	0.876936	0.416982
	H52	H	0.579686	0.397115	0.111469
	H53	H	0.586551	0.577286	0.886691
	H54	H	0.408133	0.577659	0.114344
	H55	H	0.414176	0.392430	0.887421
	H56	H	0.106785	0.576166	0.419628
	H57	H	0.881177	0.579549	0.585659
	H58	H	0.109504	0.402495	0.586761
	H59	H	0.883406	0.401040	0.411032
	H60	H	0.108318	0.401460	0.584619
	H61	H	0.882593	0.574927	0.586964
	H62	H	0.111864	0.572149	0.402832
	H63	H	0.883349	0.400743	0.410537
	H64	H	0.408360	0.573886	0.113462
	H65	H	0.583745	0.574278	0.888677
	H66	H	0.587307	0.392719	0.115516
	H67	H	0.403423	0.396863	0.885441
	H68	H	0.588760	0.102126	0.416152
	H69	H	0.587174	0.876014	0.590058
	H70	H	0.405710	0.104101	0.595684
	H71	H	0.405061	0.875037	0.409484
	H72	H	0.911026	0.600298	0.090010
	H73	H	0.074831	0.380331	0.086845
	H74	H	0.082122	0.599557	0.911264
	H75	H	0.915630	0.378322	0.907592
	H76	H	0.088282	0.893763	0.616697
	H77	H	0.076086	0.078750	0.390834
	H78	H	0.908398	0.077636	0.613354
	H79	H	0.899671	0.897183	0.384316
	H80	H	0.608705	0.073631	0.920882
	H81	H	0.385286	0.072859	0.083310
	H82	H	0.610165	0.899941	0.093711
	H83	H	0.382675	0.895233	0.915193
	H84	H	0.611147	0.896109	0.088966
	H85	H	0.383082	0.072750	0.093347
	H86	H	0.610145	0.067988	0.910114
	H87	H	0.384600	0.901628	0.912480
	H88	H	0.910604	0.079818	0.612905
	H89	H	0.088372	0.082481	0.384925
	H90	H	0.086401	0.904356	0.612863
	H91	H	0.907831	0.906568	0.389739
	H92	H	0.087139	0.600786	0.913123
	H93	H	0.092025	0.375265	0.081757
	H94	H	0.906541	0.600768	0.085787
	H95	H	0.905712	0.377217	0.916553
	H96	H	0.412042	0.100844	0.592160
	H97	H	0.585215	0.875975	0.592006
	H98	H	0.582646	0.104048	0.406945
	H99	H	0.411083	0.877839	0.412154
	H100	H	0.588205	0.401800	0.112976
	H101	H	0.582185	0.577871	0.887370
	H102	H	0.411755	0.576082	0.112694
	H103	H	0.411773	0.403632	0.890413
	H104	H	0.115377	0.588513	0.409551
	H105	H	0.880850	0.578163	0.590458
	H106	H	0.108735	0.404204	0.585645
	H107	H	0.883271	0.400569	0.410639
	H108	H	0.905304	0.602809	0.091847
	H109	H	0.085943	0.372368	0.098656
	H110	H	0.086086	0.601486	0.907926
	H111	H	0.903778	0.372784	0.903845
	H112	H	0.077620	0.896292	0.612289
	H113	H	0.086872	0.069064	0.390210
	H114	H	0.907580	0.080241	0.614205
	H115	H	0.912414	0.893521	0.387417
	H116	H	0.613176	0.080086	0.911247
	H117	H	0.381299	0.080654	0.087974
	H118	H	0.608186	0.900929	0.087940
	H119	H	0.381597	0.896473	0.908270
	C120	C	0.375384	-0.002982	0.623188
	C121	C	0.618848	0.980308	0.623746
	C122	C	0.616782	-0.002425	0.379996
	C123	C	0.373783	0.980484	0.379596
	C124	C	0.618301	0.365036	0.008911
	C125	C	0.617528	0.608887	0.991929
	C126	C	0.376099	0.608154	0.008921
	C127	C	0.375675	0.364749	0.991521
	C128	C	0.005640	0.610670	0.378227
	C129	C	0.986845	0.610136	0.620789
	C130	C	0.003867	0.369250	0.619173
	C131	C	0.988313	0.367449	0.377972
	C132	C	0.875608	0.496559	0.121589
	C133	C	0.118506	0.480180	0.121401
	C134	C	0.117440	0.495892	0.877923
	C135	C	0.874359	0.480266	0.877510
	C136	C	0.117084	0.867198	0.509077
	C137	C	0.116980	0.110843	0.492632
	C138	C	0.874906	0.111012	0.508767
	C139	C	0.874567	0.867272	0.492017
	C140	C	0.506018	0.107749	0.880561
	C141	C	0.488062	0.108325	0.121681
	C142	C	0.504513	0.866294	0.122348
	C143	C	0.488133	0.865136	0.879451
	C144	C	0.372957	0.877650	0.681896
	C145	C	0.621693	0.098532	0.685141
	C146	C	0.620115	0.878517	0.319625
	C147	C	0.369491	0.098628	0.317235
	C148	C	0.679352	0.362560	0.889896
	C149	C	0.676626	0.609457	0.112029
	C150	C	0.315667	0.610545	0.889339
	C151	C	0.313294	0.361758	0.110058
	C152	C	0.885266	0.669981	0.375316
	C153	C	0.107069	0.669826	0.622875
	C154	C	0.884601	0.307904	0.622921
	C155	C	0.106849	0.304579	0.373221
	C156	C	0.884772	0.365028	0.680801
	C157	C	0.105935	0.614523	0.682496
	C158	C	0.884895	0.611665	0.318825
	C159	C	0.108347	0.364629	0.317922
	C160	C	0.371909	0.670132	0.890643
	C161	C	0.621480	0.669242	0.111115
	C162	C	0.623074	0.303292	0.890543
	C163	C	0.370805	0.303636	0.110173
	C164	C	0.677206	0.878379	0.378293
	C165	C	0.678572	0.099570	0.626368
	C166	C	0.315316	0.877790	0.623926
	C167	C	0.313947	0.099926	0.377580
	C168	C	0.873161	0.378179	0.182531
	C169	C	0.122846	0.599243	0.181863
	C170	C	0.119778	0.377392	0.816669
	C171	C	0.870357	0.599522	0.817453
	C172	C	0.177377	0.866757	0.389532
	C173	C	0.176808	0.113597	0.612247
	C174	C	0.813591	0.112713	0.389887
	C175	C	0.815651	0.865953	0.611942
	C176	C	0.386844	0.169430	0.876138
	C177	C	0.607917	0.168592	0.125230
	C178	C	0.384423	0.806566	0.124193
	C179	C	0.608227	0.804903	0.876619
	C180	C	0.384397	0.863912	0.182494
	C181	C	0.607391	0.111470	0.182875
	C182	C	0.385619	0.110180	0.820777
	C183	C	0.608029	0.862553	0.819246
	C184	C	0.870653	0.171137	0.389764
	C185	C	0.121060	0.173414	0.610784
	C186	C	0.120705	0.807715	0.389536
	C187	C	0.871891	0.806552	0.610847
	C188	C	0.177255	0.376373	0.875473
	C189	C	0.180093	0.598798	0.123309
	C190	C	0.816012	0.377303	0.124078
	C191	C	0.813505	0.599425	0.876462
	C192	C	0.400452	0.080303	0.598995
	C193	C	0.593166	0.897571	0.597866
	C194	C	0.590597	0.079940	0.405445
	C195	C	0.399520	0.898181	0.405358
	C196	C	0.592536	0.390172	0.091671
	C197	C	0.591670	0.583822	0.909094
	C198	C	0.401845	0.582998	0.091849
	C199	C	0.402260	0.390208	0.909204
	C200	C	0.089362	0.586006	0.403261
	C201	C	0.903447	0.584723	0.595256
	C202	C	0.086977	0.395362	0.593080
	C203	C	0.905056	0.393320	0.403508
	C204	C	0.900658	0.579633	0.096506
	C205	C	0.091727	0.397603	0.096330
	C206	C	0.092375	0.578897	0.903407
	C207	C	0.900698	0.397720	0.902194
	C208	C	0.091505	0.891310	0.592279
	C209	C	0.091244	0.084358	0.410037
	C210	C	0.901210	0.086360	0.591763
	C211	C	0.899380	0.892072	0.408782
	C212	C	0.589019	0.081492	0.906414
	C213	C	0.404715	0.082857	0.095768
	C214	C	0.588017	0.891557	0.097349
	C215	C	0.404607	0.890357	0.904948
	Zn216	Zn	0.496651	-0.012193	0.752242
	Zn217	Zn	0.495858	-0.011308	0.250611
	Zn218	Zn	0.746130	0.487508	0.000640
	Zn219	Zn	0.247187	0.487058	-0.000625
	Zn220	Zn	-0.004202	0.738178	0.499258
	Zn221	Zn	-0.003939	0.239662	0.499547
	Zn222	Zn	-0.004435	0.489068	0.748425
	Zn223	Zn	-0.002602	0.489436	0.250470
	Zn224	Zn	0.497078	0.737366	0.001408
	Zn225	Zn	0.497477	0.236087	0.000904
	Zn226	Zn	0.746606	-0.010390	0.501304
	Zn227	Zn	0.245737	-0.010507	0.502277
	N228	N	0.409634	0.952764	0.681496
	N229	N	0.585154	0.023197	0.683570
	N230	N	0.583050	0.953593	0.320634
	N231	N	0.406006	0.023150	0.318197
	N232	N	0.676810	0.400120	0.964663
	N233	N	0.674681	0.572868	0.036743
	N234	N	0.318159	0.572928	0.963950
	N235	N	0.316073	0.398906	0.035235
	N236	N	0.961362	0.669545	0.411208
	N237	N	0.031917	0.667403	0.585197
	N238	N	0.959748	0.310670	0.584991
	N239	N	0.031269	0.306285	0.409856
	N240	N	0.959833	0.402384	0.678571
	N241	N	0.029875	0.578452	0.681507
	N242	N	0.960759	0.575425	0.320491
	N243	N	0.033582	0.403058	0.320846
	N244	N	0.408667	0.668878	0.965955
	N245	N	0.585643	0.669054	0.035428
	N246	N	0.585859	0.304786	0.965455
	N247	N	0.408928	0.305190	0.035545
	N248	N	0.675172	0.953131	0.415364
	N249	N	0.677028	0.024903	0.589102
	N250	N	0.316671	0.953237	0.588053
	N251	N	0.316212	0.025596	0.415441
	N252	N	0.909845	0.453391	0.180894
	N253	N	0.085357	0.524435	0.180890
	N254	N	0.083517	0.452911	0.817877
	N255	N	0.907353	0.524457	0.817817
	N256	N	0.175451	0.903118	0.464870
	N257	N	0.174505	0.075690	0.537652
	N258	N	0.816252	0.076125	0.464996
	N259	N	0.817157	0.902768	0.536952
	N260	N	0.462653	0.168188	0.912480
	N261	N	0.532546	0.166671	0.087759
	N262	N	0.460156	0.807906	0.087823
	N263	N	0.532503	0.806386	0.913364
	N264	N	0.460142	0.900428	0.181501
	N265	N	0.531882	0.074877	0.180765
	N266	N	0.460809	0.072502	0.823493
	N267	N	0.532308	0.899156	0.820547
	N268	N	0.908226	0.170099	0.464616
	N269	N	0.084818	0.172011	0.535268
	N270	N	0.084040	0.807755	0.464905
	N271	N	0.907637	0.806948	0.535071
	N272	N	0.176234	0.451222	0.912425
	N273	N	0.177381	0.523786	0.086469
	N274	N	0.817492	0.451918	0.086725
	N275	N	0.815348	0.524204	0.912756
	O276	O	0.514388	0.697231	0.607578
	H277	H	0.513047	0.717304	0.615852
	H278	H	0.506006	0.693286	0.605124
	O279	O	0.322506	0.481479	0.512795
	H280	H	0.331587	0.486264	0.518223
	H281	H	0.322194	0.489034	0.509051
	O282	O	0.643980	0.542934	0.486645
	H283	H	0.632582	0.537081	0.486616
	H284	H	0.640162	0.544441	0.473538
	O285	O	0.798412	1.062332	-0.199276
	H286	H	0.801281	1.064974	-0.210623
	H287	H	0.795179	1.070652	-0.193075
	O288	O	0.387722	0.442064	0.385006
	H289	H	0.395911	0.433204	0.390897
	H290	H	0.398066	0.447028	0.384901
	O291	O	0.529070	0.275937	0.478269
	H292	H	0.528810	0.282620	0.507737
	H293	H	0.514310	0.268852	0.477961
	O294	O	0.790288	0.871573	1.111364
	H295	H	0.772199	0.864146	1.127038
	H296	H	0.795502	0.881435	1.121267
	O297	O	0.471266	0.705993	0.284806
	H298	H	0.436133	0.700250	0.301193
	H299	H	0.464432	0.738144	0.253118
	O300	O	0.656092	0.345724	0.312993
	H301	H	0.646578	0.343897	0.313899
	H302	H	0.658460	0.349977	0.337858
	O303	O	0.695114	0.526963	0.718422
	H304	H	0.705746	0.548876	0.722088
	H305	H	0.707419	0.546608	0.730327
	O306	O	0.012609	0.036742	0.831586
	H307	H	0.027597	0.013047	0.831203
	H308	H	0.008833	0.034314	0.838197
	O309	O	1.142814	-0.044153	-0.055056
	H310	H	1.135108	-0.038203	-0.059805
	H311	H	1.157603	-0.053918	-0.054941
	O312	O	0.327423	0.639356	0.723000
	H313	H	0.319246	0.621542	0.710619
	H314	H	0.307598	0.629910	0.749083
	O315	O	0.931208	1.076129	0.118557
	H316	H	0.929574	1.072307	0.113027
	H317	H	0.918285	1.084198	0.109195
	O318	O	-0.110769	-0.151400	-0.102873
	H319	H	-0.091214	-0.138367	-0.091264
	H320	H	-0.149053	-0.157182	-0.100168
	O321	O	0.548976	0.474795	0.333517
	H322	H	0.562293	0.470168	0.338947
	H323	H	0.543480	0.485706	0.319075
	O324	O	0.796934	-0.110094	1.016687
	H325	H	0.796948	-0.105752	1.036761
	H326	H	0.776629	-0.129459	1.008151
	O327	O	0.550272	0.511089	0.620213
	H328	H	0.539766	0.516380	0.606226
	H329	H	0.570615	0.523471	0.629317
	O330	O	0.187925	1.180496	1.078373
	H331	H	0.187680	1.173502	1.067211
	H332	H	0.201557	1.178783	1.067044
	O333	O	-0.128313	1.183194	-0.069399
	H334	H	-0.131942	1.169955	-0.069055
	H335	H	-0.132364	1.186825	-0.038882
	O336	O	1.069076	1.113519	-0.105353
	H337	H	1.074089	1.094343	-0.106120
	H338	H	1.076045	1.108994	-0.112276
	O339	O	0.084614	0.928025	0.912646
	H340	H	0.084777	0.921408	0.903279
	H341	H	0.079845	0.917226	0.927542
	O342	O	0.317833	0.284232	0.502993
	H343	H	0.307933	0.284165	0.500290
	H344	H	0.303800	0.297425	0.482740
	O345	O	0.043216	0.072002	1.112720
	H346	H	0.037821	0.069106	1.121797
	H347	H	0.043354	0.079033	1.081810
	O348	O	0.313683	0.670109	0.325563
	H349	H	0.308816	0.674011	0.360442
	H350	H	0.307816	0.633906	0.326276
	O351	O	0.944295	1.012970	0.042159
	H352	H	0.944859	1.013558	0.042309
	H353	H	0.954042	1.028226	0.046999
	O354	O	1.022268	0.787012	1.074302
	H355	H	1.015493	0.776299	1.090615
	H356	H	1.029848	0.793259	1.076883
	O357	O	-0.517047	0.286655	-0.291019
	H358	H	-0.498604	0.311182	-0.288414
	H359	H	-0.514895	0.274323	-0.261451
	O360	O	0.324493	0.657323	0.512515
	H361	H	0.333983	0.654360	0.529971
	H362	H	0.311038	0.650691	0.524657
	O363	O	1.006173	-0.200137	-0.206950
	H364	H	1.003710	-0.227113	-0.224769
	H365	H	0.980386	-0.193835	-0.189998
	O366	O	-0.069231	-0.162626	1.204854
	H367	H	-0.079703	-0.172967	1.212663
	H368	H	-0.051824	-0.161001	1.218351
	O369	O	0.976047	0.110233	0.960925
	H370	H	0.984718	0.094548	0.956162
	H371	H	0.957714	0.110636	0.947150
	O372	O	0.493579	0.537168	0.397192
	H373	H	0.489936	0.538471	0.399423
	H374	H	0.512024	0.548702	0.400314
	O375	O	-0.185435	-0.195790	1.182567
	H376	H	-0.166794	-0.200948	1.187344
	H377	H	-0.179341	-0.174562	1.197540
	O378	O	0.308172	0.302322	0.654768
	H379	H	0.318512	0.291349	0.626333
	H380	H	0.335651	0.286900	0.648391
	O381	O	0.010548	1.102752	-0.123238
	H382	H	0.028762	1.102130	-0.122470
	H383	H	0.004902	1.103300	-0.123775
	O384	O	0.526998	0.338911	0.596051
	H385	H	0.527623	0.357790	0.588580
	H386	H	0.523579	0.349726	0.610204
	O387	O	0.577602	0.541179	0.445000
	H388	H	0.577699	0.534144	0.446058
	H389	H	0.583243	0.546001	0.443782
	O390	O	1.174455	0.966448	0.087367
	H391	H	1.178394	0.986028	0.073388
	H392	H	1.175115	0.957759	0.088567
	O393	O	1.030838	-0.046006	1.128695
	H394	H	1.018769	-0.032040	1.124644
	H395	H	1.054378	-0.038962	1.126625
	O396	O	0.436319	0.602558	0.676326
	H397	H	0.429287	0.606990	0.695492
	H398	H	0.429040	0.584477	0.677992
	O399	O	0.609004	0.458960	0.318844
	H400	H	0.596438	0.458024	0.320685
	H401	H	0.625790	0.430335	0.313444
	O402	O	0.873233	1.074792	-0.008089
	H403	H	0.866252	1.092104	-0.006210
	H404	H	0.883662	1.089998	-0.013690
	O405	O	0.363080	0.650027	0.605582
	H406	H	0.353745	0.649768	0.617690
	H407	H	0.367104	0.650649	0.604917
	O408	O	0.536709	0.325248	0.297622
	H409	H	0.543131	0.333558	0.296806
	H410	H	0.540665	0.309600	0.310948
	O411	O	0.880011	0.950787	0.962555
	H412	H	0.878083	0.953041	0.956250
	H413	H	0.883120	0.943153	0.969182
	O414	O	0.680189	0.657098	0.651747
	H415	H	0.652209	0.676009	0.664274
	H416	H	0.680169	0.654873	0.617623
	O417	O	0.136286	0.884163	0.884994
	H418	H	0.138998	0.858201	0.892852
	H419	H	0.138739	0.890249	0.900295
	O420	O	-0.018448	1.190348	1.189806
	H421	H	-0.009101	1.177393	1.184010
	H422	H	-0.011391	1.205870	1.204003
	O423	O	0.184630	0.954207	-0.113530
	H424	H	0.188528	0.955277	-0.116181
	H425	H	0.158858	0.955250	-0.121217
	O426	O	0.328798	0.497360	0.288227
	H427	H	0.323536	0.500305	0.261423
	H428	H	0.348972	0.480593	0.278400
	O429	O	0.701970	0.634665	0.526916
	H430	H	0.718760	0.647725	0.525157
	H431	H	0.691672	0.615390	0.511261
	O432	O	0.683799	0.355483	0.483255
	H433	H	0.663306	0.352363	0.502693
	H434	H	0.704103	0.339640	0.485512
	O435	O	0.278740	0.455443	0.713086
	H436	H	0.256820	0.440541	0.739401
	H437	H	0.282976	0.419692	0.709650
	O438	O	0.169314	1.067635	1.176043
	H439	H	0.154691	1.057331	1.163827
	H440	H	0.179832	1.070138	1.167021
	O441	O	0.565700	0.442297	0.546246
	H442	H	0.542792	0.442195	0.535435
	H443	H	0.582710	0.447982	0.551179
