data_Molecule from HDF5

_cell_length_a		16.529153
_cell_length_b		16.380621
_cell_length_c		16.354762
_cell_angle_alpha	90.039523
_cell_angle_beta	90.064660
_cell_angle_gamma	89.856974
_symmetry_space_group_name_H-M	'P 1'
_symmetry_Int_Tables_number		1

loop_
	_symmetry_equiv_pos_as_xyz
	x,y,z

loop_
	_atom_site_label
	_atom_site_type_symbol
	_atom_site_fract_x
	_atom_site_fract_y
	_atom_site_fract_z
	H0	H	0.391294	0.821176	0.722100
	H1	H	0.599046	0.139648	0.724169
	H2	H	0.597875	0.820795	0.284504
	H3	H	0.388396	0.138508	0.279930
	H4	H	0.718342	0.373662	0.845137
	H5	H	0.715851	0.588914	0.160478
	H6	H	0.272155	0.588837	0.842246
	H7	H	0.272419	0.376479	0.159488
	H8	H	0.835988	0.704711	0.399614
	H9	H	0.152905	0.707083	0.610917
	H10	H	0.837467	0.260843	0.610074
	H11	H	0.151532	0.262249	0.400591
	H12	H	0.836165	0.380871	0.722856
	H13	H	0.152579	0.590545	0.727597
	H14	H	0.836174	0.588851	0.282397
	H15	H	0.151285	0.379170	0.282398
	H16	H	0.391777	0.699711	0.839848
	H17	H	0.597880	0.702226	0.161224
	H18	H	0.600395	0.258964	0.843932
	H19	H	0.390327	0.262065	0.161125
	H20	H	0.719017	0.824488	0.394313
	H21	H	0.716373	0.140231	0.609752
	H22	H	0.272614	0.822607	0.609457
	H23	H	0.271156	0.137880	0.395411
	H24	H	0.893490	0.322372	0.221608
	H25	H	0.095890	0.643838	0.221453
	H26	H	0.098831	0.323598	0.781950
	H27	H	0.894912	0.644116	0.788440
	H28	H	0.215228	0.875854	0.342336
	H29	H	0.215188	0.084682	0.662308
	H30	H	0.771316	0.091154	0.344202
	H31	H	0.775382	0.879317	0.661788
	H32	H	0.334908	0.201513	0.897437
	H33	H	0.651636	0.203069	0.108197
	H34	H	0.334093	0.764467	0.101446
	H35	H	0.654141	0.761588	0.899537
	H36	H	0.335556	0.877820	0.221670
	H37	H	0.653014	0.084325	0.222672
	H38	H	0.334811	0.082191	0.782647
	H39	H	0.653649	0.877410	0.782057
	H40	H	0.891668	0.202038	0.342451
	H41	H	0.097298	0.199230	0.664387
	H42	H	0.097059	0.763633	0.342034
	H43	H	0.896065	0.767600	0.664211
	H44	H	0.217515	0.324874	0.894080
	H45	H	0.213583	0.642963	0.106040
	H46	H	0.773055	0.323057	0.109166
	H47	H	0.774110	0.640920	0.899945
	H48	H	0.407015	0.093600	0.590457
	H49	H	0.586303	0.869987	0.584850
	H50	H	0.584910	0.096849	0.411531
	H51	H	0.401699	0.867403	0.419148
	H52	H	0.582152	0.396468	0.114177
	H53	H	0.582181	0.569685	0.889225
	H54	H	0.401463	0.572753	0.116583
	H55	H	0.402564	0.395301	0.887423
	H56	H	0.108699	0.576951	0.411759
	H57	H	0.884518	0.571386	0.591436
	H58	H	0.104212	0.393195	0.583727
	H59	H	0.879292	0.384582	0.418251
	H60	H	0.107145	0.399704	0.599092
	H61	H	0.881884	0.574256	0.597231
	H62	H	0.105652	0.572984	0.418885
	H63	H	0.884792	0.400775	0.417004
	H64	H	0.403024	0.569803	0.114170
	H65	H	0.585003	0.570610	0.887183
	H66	H	0.580946	0.390998	0.115171
	H67	H	0.407533	0.393851	0.888969
	H68	H	0.579651	0.093968	0.412329
	H69	H	0.588286	0.865954	0.592188
	H70	H	0.403110	0.093027	0.587733
	H71	H	0.401503	0.864032	0.408915
	H72	H	0.908963	0.590965	0.082101
	H73	H	0.082931	0.368867	0.095552
	H74	H	0.077856	0.595254	0.913340
	H75	H	0.902221	0.366019	0.910734
	H76	H	0.091620	0.895599	0.618150
	H77	H	0.085465	0.076706	0.386863
	H78	H	0.905332	0.065886	0.614336
	H79	H	0.907808	0.898334	0.390235
	H80	H	0.609292	0.075548	0.911254
	H81	H	0.382153	0.063857	0.096994
	H82	H	0.607330	0.894255	0.097740
	H83	H	0.384881	0.896349	0.915040
	H84	H	0.610005	0.883644	0.095277
	H85	H	0.378883	0.078944	0.092659
	H86	H	0.603924	0.069516	0.920379
	H87	H	0.379260	0.891274	0.903147
	H88	H	0.907392	0.075571	0.615647
	H89	H	0.087205	0.067610	0.388427
	H90	H	0.082020	0.899653	0.613929
	H91	H	0.907829	0.891267	0.388257
	H92	H	0.085912	0.594987	0.921723
	H93	H	0.082104	0.371435	0.088693
	H94	H	0.891885	0.598980	0.089896
	H95	H	0.909268	0.368035	0.911162
	H96	H	0.402794	0.094711	0.591978
	H97	H	0.581124	0.869257	0.591322
	H98	H	0.583470	0.093182	0.416702
	H99	H	0.410800	0.868461	0.412169
	H100	H	0.585567	0.393407	0.116571
	H101	H	0.584814	0.567207	0.888909
	H102	H	0.405658	0.573397	0.114905
	H103	H	0.404523	0.389914	0.886409
	H104	H	0.106517	0.568203	0.411737
	H105	H	0.882560	0.577807	0.591349
	H106	H	0.111026	0.383913	0.595590
	H107	H	0.877476	0.393435	0.403458
	H108	H	0.908443	0.597846	0.101323
	H109	H	0.088843	0.369173	0.090716
	H110	H	0.088604	0.599033	0.911327
	H111	H	0.904713	0.369223	0.917739
	H112	H	0.082449	0.889036	0.617194
	H113	H	0.078952	0.070965	0.391164
	H114	H	0.899271	0.071843	0.619080
	H115	H	0.901703	0.895909	0.387594
	H116	H	0.605847	0.064341	0.909745
	H117	H	0.385452	0.068229	0.082008
	H118	H	0.605523	0.889941	0.086826
	H119	H	0.380087	0.883801	0.914575
	C120	C	0.373505	-0.011200	0.622514
	C121	C	0.616271	0.973160	0.622832
	C122	C	0.615721	-0.009929	0.380880
	C123	C	0.372572	0.971716	0.380738
	C124	C	0.615708	0.360233	0.010753
	C125	C	0.615005	0.602063	0.993645
	C126	C	0.372205	0.603648	0.009471
	C127	C	0.372801	0.361099	0.992935
	C128	C	0.002583	0.605140	0.381915
	C129	C	0.987459	0.606321	0.625889
	C130	C	0.003297	0.361120	0.625090
	C131	C	0.984980	0.361055	0.381330
	C132	C	0.872238	0.490664	0.123903
	C133	C	0.115602	0.475387	0.123420
	C134	C	0.116121	0.491517	0.881546
	C135	C	0.874008	0.473508	0.882259
	C136	C	0.116719	0.861323	0.510935
	C137	C	0.115822	0.102755	0.494534
	C138	C	0.872237	0.104258	0.511392
	C139	C	0.874538	0.863299	0.494238
	C140	C	0.501974	0.102251	0.880883
	C141	C	0.486291	0.102559	0.123522
	C142	C	0.502543	0.858560	0.123706
	C143	C	0.486268	0.859061	0.879449
	C144	C	0.372444	0.869164	0.682527
	C145	C	0.617847	0.092473	0.684074
	C146	C	0.617203	0.869482	0.322512
	C147	C	0.370041	0.091068	0.320209
	C148	C	0.677402	0.355951	0.892304
	C149	C	0.675604	0.606168	0.112825
	C150	C	0.312447	0.606154	0.889653
	C151	C	0.312847	0.358724	0.112480
	C152	C	0.883645	0.664975	0.380481
	C153	C	0.105578	0.666905	0.628818
	C154	C	0.884577	0.301291	0.627797
	C155	C	0.104157	0.301919	0.380671
	C156	C	0.884099	0.360899	0.684200
	C157	C	0.105500	0.608765	0.687097
	C158	C	0.883455	0.607044	0.322479
	C159	C	0.104006	0.359789	0.321975
	C160	C	0.372104	0.661519	0.888599
	C161	C	0.616541	0.662292	0.113269
	C162	C	0.618910	0.298906	0.891687
	C163	C	0.371110	0.301641	0.112913
	C164	C	0.677580	0.871373	0.377298
	C165	C	0.676034	0.092626	0.626963
	C166	C	0.313162	0.869780	0.626352
	C167	C	0.311857	0.090841	0.377478
	C168	C	0.872920	0.370524	0.183088
	C169	C	0.115187	0.595818	0.181985
	C170	C	0.117763	0.371561	0.821204
	C171	C	0.874842	0.595267	0.826241
	C172	C	0.175552	0.858306	0.390477
	C173	C	0.175062	0.103400	0.614683
	C174	C	0.811893	0.108208	0.391733
	C175	C	0.815685	0.861548	0.614535
	C176	C	0.382562	0.161311	0.879496
	C177	C	0.604602	0.162545	0.126044
	C178	C	0.382355	0.802259	0.122046
	C179	C	0.606370	0.800835	0.879671
	C180	C	0.383012	0.858468	0.181975
	C181	C	0.605256	0.103344	0.183063
	C182	C	0.382355	0.102163	0.822166
	C183	C	0.606198	0.858374	0.821400
	C184	C	0.871650	0.163694	0.391006
	C185	C	0.116409	0.160630	0.615587
	C186	C	0.117068	0.802137	0.390268
	C187	C	0.875649	0.806059	0.615742
	C188	C	0.176506	0.372002	0.877311
	C189	C	0.174068	0.595211	0.124896
	C190	C	0.813392	0.370686	0.126858
	C191	C	0.814440	0.593553	0.881319
	C192	C	0.397616	0.072175	0.597327
	C193	C	0.592146	0.890107	0.596779
	C194	C	0.590160	0.073057	0.406121
	C195	C	0.397644	0.888287	0.406119
	C196	C	0.590114	0.386178	0.093839
	C197	C	0.590695	0.576465	0.910037
	C198	C	0.396413	0.579058	0.093284
	C199	C	0.397601	0.385999	0.909484
	C200	C	0.085339	0.579933	0.406769
	C201	C	0.904543	0.581530	0.600650
	C202	C	0.086010	0.385485	0.600133
	C203	C	0.902111	0.385740	0.405794
	C204	C	0.896341	0.574224	0.098503
	C205	C	0.091524	0.391663	0.098833
	C206	C	0.091306	0.574710	0.907858
	C207	C	0.898316	0.389674	0.906207
	C208	C	0.092438	0.887106	0.594606
	C209	C	0.091223	0.078685	0.410651
	C210	C	0.896818	0.078457	0.594782
	C211	C	0.898736	0.888011	0.410684
	C212	C	0.584717	0.077168	0.906369
	C213	C	0.403711	0.077596	0.098041
	C214	C	0.585924	0.882307	0.100162
	C215	C	0.403099	0.883474	0.903591
	Zn216	Zn	0.494823	-0.019258	0.750827
	Zn217	Zn	0.494193	-0.019608	0.252658
	Zn218	Zn	0.744073	0.481645	0.002768
	Zn219	Zn	0.244424	0.482861	0.001681
	Zn220	Zn	-0.004831	0.734594	0.502643
	Zn221	Zn	-0.006048	0.231726	0.503812
	Zn222	Zn	-0.004729	0.483301	0.753864
	Zn223	Zn	-0.006405	0.483479	0.252617
	Zn224	Zn	0.494543	0.730608	0.000777
	Zn225	Zn	0.494152	0.232317	0.002130
	Zn226	Zn	0.744477	-0.017074	0.502113
	Zn227	Zn	0.244483	-0.019133	0.502341
	N228	N	0.409519	0.944116	0.680076
	N229	N	0.581387	0.017277	0.681727
	N230	N	0.579534	0.944337	0.324318
	N231	N	0.407192	0.016008	0.322288
	N232	N	0.675543	0.393099	0.967501
	N233	N	0.674433	0.569081	0.037510
	N234	N	0.312437	0.570938	0.965856
	N235	N	0.313864	0.395035	0.036813
	N236	N	0.958747	0.664008	0.416587
	N237	N	0.031096	0.665313	0.591219
	N238	N	0.959715	0.301153	0.591830
	N239	N	0.029124	0.302516	0.416597
	N240	N	0.958881	0.397262	0.682759
	N241	N	0.031107	0.571564	0.685057
	N242	N	0.958380	0.570496	0.323228
	N243	N	0.028852	0.395787	0.322217
	N244	N	0.408744	0.660147	0.964080
	N245	N	0.579424	0.659755	0.038060
	N246	N	0.581336	0.301421	0.966564
	N247	N	0.407625	0.302856	0.037536
	N248	N	0.677009	0.947525	0.412755
	N249	N	0.675089	0.017501	0.589640
	N250	N	0.313873	0.945014	0.589451
	N251	N	0.313313	0.015462	0.414291
	N252	N	0.908696	0.446218	0.181346
	N253	N	0.079752	0.520041	0.181519
	N254	N	0.080774	0.446848	0.823983
	N255	N	0.910998	0.519703	0.826638
	N256	N	0.175660	0.893822	0.466657
	N257	N	0.175015	0.068568	0.538211
	N258	N	0.812005	0.072189	0.467673
	N259	N	0.814749	0.896242	0.538020
	N260	N	0.458128	0.161667	0.914856
	N261	N	0.529517	0.162236	0.089985
	N262	N	0.457745	0.802100	0.086776
	N263	N	0.530821	0.800814	0.914649
	N264	N	0.458978	0.892469	0.183283
	N265	N	0.530493	0.066756	0.181586
	N266	N	0.457782	0.066694	0.822407
	N267	N	0.530639	0.893582	0.821044
	N268	N	0.908612	0.161251	0.466342
	N269	N	0.080184	0.160342	0.539830
	N270	N	0.081466	0.803661	0.466250
	N271	N	0.911515	0.806936	0.539988
	N272	N	0.175575	0.447503	0.913983
	N273	N	0.174446	0.519217	0.089257
	N274	N	0.812644	0.446554	0.091178
	N275	N	0.813606	0.516784	0.915311
	O276	O	0.495058	0.690856	0.660395
	H277	H	0.506622	0.702205	0.674341
	H278	H	0.512378	0.688060	0.654306
	O279	O	0.581149	0.508858	0.459665
	H280	H	0.579008	0.500006	0.481159
	H281	H	0.590753	0.507114	0.453449
	O282	O	0.696982	0.418421	0.344602
	H283	H	0.694442	0.435447	0.347606
	H284	H	0.691606	0.434200	0.341368
	O285	O	1.003038	0.828573	0.081889
	H286	H	0.999260	0.830803	0.090195
	H287	H	1.005952	0.816008	0.077488
	O288	O	0.474419	0.337554	0.412755
	H289	H	0.496722	0.330529	0.410377
	H290	H	0.490456	0.328637	0.418424
	O291	O	0.407423	0.373813	0.491529
	H292	H	0.404441	0.386753	0.497715
	H293	H	0.421411	0.372550	0.510147
	O294	O	1.037365	0.932391	1.032346
	H295	H	1.039703	0.939196	1.048532
	H296	H	1.019983	0.941366	1.023321
	O297	O	0.368597	0.279717	0.696272
	H298	H	0.354343	0.303755	0.696610
	H299	H	0.353674	0.264794	0.675307
	O300	O	0.424023	0.444412	0.312179
	H301	H	0.399605	0.448587	0.313804
	H302	H	0.426440	0.426832	0.305247
	O303	O	0.308938	0.443995	0.526294
	H304	H	0.317058	0.447170	0.534704
	H305	H	0.301459	0.439493	0.517424
	O306	O	0.131182	-0.105286	0.890481
	H307	H	0.138373	-0.099601	0.898857
	H308	H	0.132103	-0.102503	0.884879
	O309	O	0.846988	-0.093946	0.139151
	H310	H	0.846941	-0.078912	0.141719
	H311	H	0.856598	-0.081587	0.135361
	O312	O	0.105134	0.887573	0.956532
	H313	H	0.113496	0.893213	0.973263
	H314	H	0.116616	0.888297	0.959298
	O315	O	0.981525	0.979070	0.047110
	H316	H	0.983021	0.975637	0.046800
	H317	H	0.980686	0.978851	0.047101
	O318	O	0.057301	-0.088095	0.071216
	H319	H	0.064766	-0.082505	0.066686
	H320	H	0.057095	-0.099228	0.064828
	O321	O	0.292415	0.666760	0.519040
	H322	H	0.278890	0.672082	0.502907
	H323	H	0.301491	0.670429	0.530420
	O324	O	0.877206	0.124452	0.809108
	H325	H	0.873102	0.134048	0.809207
	H326	H	0.896465	0.130177	0.820654
	O327	O	0.304196	0.515217	0.485624
	H328	H	0.315408	0.522623	0.516742
	H329	H	0.298473	0.521472	0.471837
	O330	O	0.045515	0.921911	0.977661
	H331	H	0.048344	0.923707	0.979398
	H332	H	0.042710	0.927702	0.980463
	O333	O	-0.138581	0.990949	-0.055116
	H334	H	-0.134297	0.985871	-0.062018
	H335	H	-0.132264	1.006866	-0.069897
	O336	O	0.898358	0.859573	0.165741
	H337	H	0.897197	0.859132	0.148884
	H338	H	0.895401	0.864060	0.168120
	O339	O	-0.209428	1.071519	1.023175
	H340	H	-0.210705	1.057518	1.024087
	H341	H	-0.210837	1.077459	1.005995
	O342	O	0.607329	0.403790	0.456654
	H343	H	0.606685	0.407238	0.466162
	H344	H	0.618528	0.391414	0.446426
	O345	O	0.008996	0.101473	0.812271
	H346	H	0.004845	0.109854	0.811112
	H347	H	0.017824	0.106126	0.816672
	O348	O	0.610869	0.398824	0.691325
	H349	H	0.609398	0.403337	0.683517
	H350	H	0.608207	0.398488	0.702967
	O351	O	1.189546	1.145926	0.200832
	H352	H	1.180098	1.147753	0.222996
	H353	H	1.186477	1.172114	0.218252
	O354	O	0.807255	1.164675	0.951212
	H355	H	0.796213	1.159551	0.953200
	H356	H	0.821172	1.164332	0.951147
	O357	O	-0.463366	0.583598	-0.333562
	H358	H	-0.447196	0.581622	-0.323816
	H359	H	-0.460535	0.582462	-0.327854
	O360	O	0.701547	0.364156	0.510920
	H361	H	0.711655	0.363250	0.515622
	H362	H	0.699635	0.381217	0.493966
	O363	O	0.683367	-0.326018	0.188394
	H364	H	0.675683	-0.303459	0.177179
	H365	H	0.665636	-0.346904	0.184324
	O366	O	-0.045975	0.019419	1.125470
	H367	H	-0.050669	0.010337	1.121766
	H368	H	-0.046639	0.032671	1.125408
	O369	O	1.643429	0.551636	0.399486
	H370	H	1.630228	0.565167	0.410187
	H371	H	1.625256	0.556940	0.385593
	O372	O	0.442083	0.551149	0.643774
	H373	H	0.436314	0.548589	0.651543
	H374	H	0.435315	0.558762	0.642214
	O375	O	-0.186806	-0.095408	0.959089
	H376	H	-0.181278	-0.093300	0.969778
	H377	H	-0.172136	-0.093010	0.945101
	O378	O	0.282647	0.578629	0.333781
	H379	H	0.290197	0.593381	0.353370
	H380	H	0.260160	0.585557	0.320443
	O381	O	0.084368	0.993583	-0.048902
	H382	H	0.092628	0.992119	-0.033224
	H383	H	0.095781	0.995053	-0.038846
	O384	O	0.519383	0.271007	0.293772
	H385	H	0.551865	0.269180	0.287218
	H386	H	0.535009	0.267469	0.273413
	O387	O	0.704089	0.587468	0.697285
	H388	H	0.725255	0.608784	0.713597
	H389	H	0.709757	0.575051	0.699851
	O390	O	0.796622	1.045674	-0.198186
	H391	H	0.792871	1.061071	-0.200942
	H392	H	0.798334	1.040187	-0.203349
	O393	O	0.991925	-0.021211	1.030018
	H394	H	0.995859	-0.016393	1.023166
	H395	H	0.998357	-0.016868	1.030418
	O396	O	0.297966	0.375732	0.514293
	H397	H	0.302614	0.366898	0.500157
	H398	H	0.302528	0.373092	0.494305
	O399	O	0.602927	0.544227	0.540453
	H400	H	0.611818	0.546576	0.529898
	H401	H	0.586137	0.549920	0.554930
	O402	O	1.114924	0.847949	-0.036975
	H403	H	1.112719	0.853647	-0.033537
	H404	H	1.117353	0.856935	-0.032025
	O405	O	0.412101	0.398827	0.660895
	H406	H	0.384466	0.397004	0.654705
	H407	H	0.415464	0.373036	0.685490
	O408	O	0.397850	0.647208	0.378675
	H409	H	0.409072	0.654297	0.374560
	H410	H	0.405264	0.636539	0.381705
	O411	O	1.056040	1.199621	0.928053
	H412	H	1.064203	1.197561	0.918348
	H413	H	1.052416	1.213825	0.934849
	O414	O	0.472737	0.280314	0.529576
	H415	H	0.485651	0.298408	0.523102
	H416	H	0.476769	0.267866	0.559974
	O417	O	0.697136	1.541623	0.653573
	H418	H	0.691030	1.544982	0.650731
	H419	H	0.697266	1.532350	0.658689
	O420	O	0.015408	1.142833	1.189260
	H421	H	-0.002845	1.144661	1.195568
	H422	H	0.011931	1.141540	1.197005
	O423	O	0.124295	0.963854	0.150853
	H424	H	0.121406	0.978230	0.160641
	H425	H	0.122565	0.967640	0.152294
	O426	O	0.684797	0.377602	0.310994
	H427	H	0.678080	0.384569	0.328802
	H428	H	0.702275	0.405207	0.293851
	O429	O	0.479753	0.697347	0.313043
	H430	H	0.462522	0.712373	0.304595
	H431	H	0.487290	0.708331	0.308708
	O432	O	0.664863	0.683599	0.549779
	H433	H	0.654176	0.690881	0.561155
	H434	H	0.661206	0.677148	0.543669
	O435	O	0.297599	0.295975	0.356320
	H436	H	0.312447	0.315615	0.360566
	H437	H	0.316473	0.300445	0.370483
	O438	O	0.180154	1.174088	0.988028
	H439	H	0.195532	1.187611	0.998455
	H440	H	0.186908	1.172390	1.011010
	O441	O	0.342292	0.478312	0.709011
	H442	H	0.345632	0.475221	0.718709
	H443	H	0.336381	0.479894	0.696603
