data_Molecule from HDF5

_cell_length_a		16.495888
_cell_length_b		16.282079
_cell_length_c		16.076354
_cell_angle_alpha	89.741807
_cell_angle_beta	89.942213
_cell_angle_gamma	89.949599
_symmetry_space_group_name_H-M	'P 1'
_symmetry_Int_Tables_number		1

loop_
	_symmetry_equiv_pos_as_xyz
	x,y,z

loop_
	_atom_site_label
	_atom_site_type_symbol
	_atom_site_fract_x
	_atom_site_fract_y
	_atom_site_fract_z
	H0	H	0.404021	0.829378	0.711773
	H1	H	0.595800	0.158779	0.708428
	H2	H	0.597377	0.829930	0.284575
	H3	H	0.402984	0.156598	0.282216
	H4	H	0.715893	0.391982	0.834349
	H5	H	0.714698	0.596792	0.160711
	H6	H	0.281883	0.596915	0.833702
	H7	H	0.280077	0.390157	0.160888
	H8	H	0.840667	0.714467	0.393235
	H9	H	0.160922	0.711205	0.597749
	H10	H	0.840711	0.272140	0.602233
	H11	H	0.159681	0.275134	0.391745
	H12	H	0.838645	0.393363	0.714435
	H13	H	0.160807	0.593605	0.713311
	H14	H	0.837290	0.593789	0.282466
	H15	H	0.159763	0.395304	0.279026
	H16	H	0.398934	0.709251	0.833034
	H17	H	0.594245	0.704273	0.163555
	H18	H	0.597356	0.281136	0.832503
	H19	H	0.398299	0.277907	0.162692
	H20	H	0.719362	0.832544	0.393279
	H21	H	0.720916	0.154412	0.602061
	H22	H	0.281054	0.832125	0.602563
	H23	H	0.278964	0.153622	0.389945
	H24	H	0.898824	0.331299	0.214699
	H25	H	0.092426	0.659054	0.207692
	H26	H	0.096308	0.330472	0.783883
	H27	H	0.900843	0.658340	0.781089
	H28	H	0.219099	0.889898	0.334769
	H29	H	0.219590	0.099246	0.659219
	H30	H	0.782212	0.097769	0.334301
	H31	H	0.782819	0.888435	0.660398
	H32	H	0.338541	0.211835	0.895596
	H33	H	0.657644	0.215162	0.103186
	H34	H	0.338032	0.773976	0.102815
	H35	H	0.659574	0.775224	0.897113
	H36	H	0.338583	0.892384	0.216909
	H37	H	0.662029	0.090330	0.210875
	H38	H	0.338561	0.095181	0.779357
	H39	H	0.661498	0.895415	0.782863
	H40	H	0.900441	0.209073	0.332464
	H41	H	0.103308	0.210463	0.660175
	H42	H	0.100196	0.781097	0.331604
	H43	H	0.902224	0.777830	0.660921
	H44	H	0.217897	0.333367	0.892818
	H45	H	0.218246	0.654187	0.103011
	H46	H	0.777107	0.332979	0.104356
	H47	H	0.779457	0.656606	0.892283
	H48	H	0.412441	0.105859	0.582183
	H49	H	0.599421	0.876667	0.586145
	H50	H	0.591613	0.107667	0.413237
	H51	H	0.404700	0.879709	0.416495
	H52	H	0.594569	0.399872	0.118052
	H53	H	0.590477	0.579536	0.881043
	H54	H	0.396429	0.583010	0.118209
	H55	H	0.410120	0.398808	0.880368
	H56	H	0.112966	0.588513	0.408033
	H57	H	0.886847	0.580754	0.591877
	H58	H	0.108307	0.400191	0.571917
	H59	H	0.884822	0.397462	0.407766
	H60	H	0.111903	0.416269	0.598075
	H61	H	0.882175	0.593835	0.589637
	H62	H	0.114489	0.583590	0.399611
	H63	H	0.886736	0.403085	0.409897
	H64	H	0.408201	0.574506	0.110766
	H65	H	0.584251	0.586241	0.880767
	H66	H	0.589378	0.413500	0.111325
	H67	H	0.400007	0.402602	0.879104
	H68	H	0.599702	0.112504	0.405220
	H69	H	0.592348	0.875566	0.595787
	H70	H	0.401093	0.109526	0.582711
	H71	H	0.403329	0.875205	0.404576
	H72	H	0.909101	0.608381	0.085479
	H73	H	0.093893	0.379011	0.083396
	H74	H	0.089118	0.611522	0.900991
	H75	H	0.903616	0.380543	0.913498
	H76	H	0.086660	0.899276	0.614950
	H77	H	0.085134	0.090277	0.380241
	H78	H	0.905842	0.084407	0.615572
	H79	H	0.910063	0.896306	0.376849
	H80	H	0.614306	0.093743	0.909872
	H81	H	0.386577	0.085773	0.084773
	H82	H	0.608601	0.903778	0.081849
	H83	H	0.386073	0.901571	0.908115
	H84	H	0.614540	0.902348	0.099262
	H85	H	0.385875	0.081968	0.091482
	H86	H	0.611481	0.082590	0.906918
	H87	H	0.386124	0.903178	0.906199
	H88	H	0.908982	0.076211	0.612735
	H89	H	0.099760	0.084302	0.377191
	H90	H	0.095978	0.900469	0.616588
	H91	H	0.899866	0.907157	0.377487
	H92	H	0.087820	0.607772	0.911323
	H93	H	0.091861	0.376165	0.091925
	H94	H	0.899885	0.609519	0.083897
	H95	H	0.900172	0.377045	0.904501
	H96	H	0.408454	0.111063	0.592192
	H97	H	0.588182	0.880195	0.585037
	H98	H	0.588939	0.109540	0.401591
	H99	H	0.414256	0.879028	0.407397
	H100	H	0.579868	0.400507	0.112827
	H101	H	0.593079	0.588411	0.877940
	H102	H	0.410929	0.590325	0.115793
	H103	H	0.408126	0.409266	0.882237
	H104	H	0.116904	0.593194	0.400147
	H105	H	0.888118	0.586642	0.579170
	H106	H	0.120406	0.386831	0.596258
	H107	H	0.884865	0.402676	0.405008
	H108	H	0.903465	0.611370	0.092116
	H109	H	0.085060	0.379407	0.086321
	H110	H	0.096936	0.611751	0.908069
	H111	H	0.910114	0.379624	0.905492
	H112	H	0.090512	0.907941	0.611656
	H113	H	0.088334	0.074774	0.383982
	H114	H	0.914553	0.084188	0.612975
	H115	H	0.913696	0.909473	0.383218
	H116	H	0.616682	0.089306	0.897925
	H117	H	0.383522	0.089561	0.091219
	H118	H	0.615683	0.888389	0.088061
	H119	H	0.384834	0.900820	0.905529
	C120	C	0.377886	0.002027	0.618421
	C121	C	0.622474	0.985014	0.618671
	C122	C	0.621996	0.002215	0.376790
	C123	C	0.377854	0.984694	0.376885
	C124	C	0.618692	0.373950	0.006277
	C125	C	0.618229	0.613925	0.988913
	C126	C	0.376408	0.614289	0.006517
	C127	C	0.376793	0.373142	0.989339
	C128	C	0.008300	0.617184	0.373780
	C129	C	0.991912	0.616108	0.617594
	C130	C	0.007805	0.370681	0.619406
	C131	C	0.991174	0.371990	0.375728
	C132	C	0.874969	0.502491	0.119045
	C133	C	0.119113	0.485839	0.117613
	C134	C	0.120274	0.502899	0.876360
	C135	C	0.875950	0.486403	0.876294
	C136	C	0.121122	0.872953	0.506074
	C137	C	0.121818	0.114435	0.488374
	C138	C	0.879554	0.113287	0.505603
	C139	C	0.878506	0.872582	0.487479
	C140	C	0.507910	0.117447	0.874741
	C141	C	0.491233	0.115425	0.119685
	C142	C	0.506807	0.869205	0.121093
	C143	C	0.491070	0.871814	0.876588
	C144	C	0.381634	0.878841	0.675050
	C145	C	0.618176	0.108992	0.672619
	C146	C	0.619100	0.879185	0.321187
	C147	C	0.380839	0.107504	0.319468
	C148	C	0.676310	0.373654	0.883064
	C149	C	0.675123	0.614426	0.112144
	C150	C	0.320218	0.615602	0.882815
	C151	C	0.319464	0.371964	0.112392
	C152	C	0.887795	0.674710	0.374297
	C153	C	0.112665	0.672399	0.617135
	C154	C	0.888034	0.312265	0.620574
	C155	C	0.111814	0.314714	0.373878
	C156	C	0.887012	0.372458	0.676566
	C157	C	0.112578	0.614026	0.674828
	C158	C	0.886182	0.614651	0.319152
	C159	C	0.111860	0.374228	0.317484
	C160	C	0.378330	0.671539	0.882490
	C161	C	0.615492	0.668353	0.113525
	C162	C	0.617739	0.318227	0.882205
	C163	C	0.377788	0.315684	0.113046
	C164	C	0.679624	0.880521	0.375511
	C165	C	0.680311	0.106841	0.619546
	C166	C	0.320415	0.880259	0.620662
	C167	C	0.319436	0.105904	0.373420
	C168	C	0.877223	0.380467	0.177171
	C169	C	0.114905	0.609260	0.172124
	C170	C	0.117727	0.379826	0.820768
	C171	C	0.879243	0.609038	0.818649
	C172	C	0.179204	0.872461	0.383082
	C173	C	0.180339	0.116707	0.610564
	C174	C	0.821475	0.115922	0.382947
	C175	C	0.821665	0.870527	0.611062
	C176	C	0.386646	0.173439	0.875579
	C177	C	0.610820	0.174118	0.120525
	C178	C	0.386216	0.812860	0.121400
	C179	C	0.611956	0.814644	0.877581
	C180	C	0.386478	0.871881	0.178376
	C181	C	0.612766	0.112279	0.174691
	C182	C	0.386727	0.115130	0.817913
	C183	C	0.612822	0.874189	0.820620
	C184	C	0.880259	0.171372	0.382099
	C185	C	0.122394	0.172615	0.610944
	C186	C	0.120239	0.818035	0.381478
	C187	C	0.881043	0.815375	0.611396
	C188	C	0.178165	0.381284	0.875032
	C189	C	0.177278	0.606961	0.119823
	C190	C	0.816902	0.381261	0.121864
	C191	C	0.819088	0.608464	0.874421
	C192	C	0.400648	0.086746	0.593161
	C193	C	0.600038	0.899723	0.595694
	C194	C	0.599753	0.087618	0.399952
	C195	C	0.400848	0.900052	0.402024
	C196	C	0.594802	0.397560	0.091893
	C197	C	0.595796	0.591251	0.902366
	C198	C	0.398861	0.589819	0.092682
	C199	C	0.399450	0.396645	0.902973
	C200	C	0.092738	0.595018	0.396111
	C201	C	0.907523	0.593619	0.593827
	C202	C	0.091924	0.394187	0.595677
	C203	C	0.907325	0.394499	0.400329
	C204	C	0.897485	0.587719	0.094328
	C205	C	0.096887	0.400362	0.094008
	C206	C	0.097777	0.588058	0.899917
	C207	C	0.898009	0.401325	0.900698
	C208	C	0.097917	0.895864	0.591987
	C209	C	0.098084	0.090073	0.402724
	C210	C	0.903119	0.088618	0.591540
	C211	C	0.901205	0.897138	0.401396
	C212	C	0.591969	0.095112	0.898142
	C213	C	0.407017	0.092382	0.096055
	C214	C	0.591376	0.891497	0.096810
	C215	C	0.407358	0.894969	0.899950
	Zn216	Zn	0.500069	-0.005885	0.746629
	Zn217	Zn	0.500160	-0.006731	0.248823
	Zn218	Zn	0.746647	0.494426	-0.002649
	Zn219	Zn	0.248628	0.494057	-0.002558
	Zn220	Zn	0.000899	0.745836	0.495278
	Zn221	Zn	0.000413	0.241341	0.497012
	Zn222	Zn	-0.000617	0.494184	0.747975
	Zn223	Zn	-0.001367	0.494476	0.246349
	Zn224	Zn	0.497771	0.740744	-0.001803
	Zn225	Zn	0.498527	0.245999	-0.002312
	Zn226	Zn	0.751027	-0.006350	0.497235
	Zn227	Zn	0.248466	-0.007016	0.497746
	N228	N	0.416332	0.955556	0.673960
	N229	N	0.583018	0.032303	0.672586
	N230	N	0.583967	0.955818	0.321784
	N231	N	0.416519	0.031337	0.321467
	N232	N	0.677118	0.407471	0.961276
	N233	N	0.677194	0.581547	0.033549
	N234	N	0.318773	0.580850	0.960901
	N235	N	0.318579	0.406750	0.034401
	N236	N	0.964565	0.676694	0.407418
	N237	N	0.036470	0.673831	0.582226
	N238	N	0.964260	0.311052	0.585808
	N239	N	0.035887	0.313073	0.409340
	N240	N	0.962573	0.407833	0.675975
	N241	N	0.036453	0.579715	0.675215
	N242	N	0.962001	0.579531	0.318691
	N243	N	0.035958	0.409112	0.318291
	N244	N	0.412261	0.671073	0.960571
	N245	N	0.580567	0.668017	0.035918
	N246	N	0.582367	0.318276	0.959797
	N247	N	0.412555	0.316150	0.035254
	N248	N	0.681619	0.957913	0.409031
	N249	N	0.683084	0.028783	0.586822
	N250	N	0.317859	0.957898	0.586469
	N251	N	0.317541	0.028605	0.408456
	N252	N	0.912586	0.456906	0.175699
	N253	N	0.079340	0.532845	0.170826
	N254	N	0.082456	0.456352	0.821363
	N255	N	0.913933	0.532136	0.819560
	N256	N	0.179991	0.905866	0.461515
	N257	N	0.180002	0.081239	0.533290
	N258	N	0.821128	0.080537	0.460696
	N259	N	0.820002	0.905141	0.532974
	N260	N	0.462802	0.175121	0.910216
	N261	N	0.534211	0.176117	0.086924
	N262	N	0.462199	0.811362	0.086279
	N263	N	0.535423	0.812814	0.911564
	N264	N	0.462541	0.906319	0.178169
	N265	N	0.537326	0.076314	0.173997
	N266	N	0.463000	0.080977	0.817285
	N267	N	0.537027	0.909417	0.820051
	N268	N	0.915635	0.170063	0.459622
	N269	N	0.086602	0.171458	0.533896
	N270	N	0.084760	0.818004	0.458819
	N271	N	0.915932	0.816425	0.533636
	N272	N	0.180044	0.458874	0.908662
	N273	N	0.179903	0.529226	0.086616
	N274	N	0.815479	0.458319	0.086544
	N275	N	0.816974	0.531251	0.909354
	O276	O	-0.131830	0.021131	-0.074127
	H277	H	-0.131806	0.008064	-0.057767
	H278	H	-0.126573	0.010801	-0.077974
	O279	O	0.580704	0.574163	0.452048
	H280	H	0.574981	0.575653	0.449407
	H281	H	0.578830	0.575366	0.459915
	O282	O	1.140028	-0.015376	0.011285
	H283	H	1.155931	-0.019291	0.012435
	H284	H	1.141488	-0.011816	0.017369
	O285	O	-0.053231	1.055354	-0.151514
	H286	H	-0.052089	1.044251	-0.146576
	H287	H	-0.066050	1.048801	-0.161858
	O288	O	1.131320	0.934155	-0.128027
	H289	H	1.140112	0.929754	-0.126316
	H290	H	1.127995	0.935335	-0.135439
	O291	O	0.463220	0.519141	0.633889
	H292	H	0.475959	0.515279	0.630169
	H293	H	0.451843	0.512232	0.632537
	O294	O	0.958499	1.065169	1.034666
	H295	H	0.951136	1.074587	1.026143
	H296	H	0.960882	1.059408	1.032218
	O297	O	0.132398	0.160808	0.089835
	H298	H	0.137722	0.159702	0.089903
	H299	H	0.139528	0.168911	0.098402
	O300	O	0.407162	0.532954	0.481897
	H301	H	0.407207	0.533428	0.489448
	H302	H	0.421295	0.521518	0.483446
	O303	O	0.027534	1.027404	1.079550
	H304	H	0.011993	1.039777	1.085949
	H305	H	0.027197	1.030841	1.069050
	O306	O	0.479071	0.523867	0.348836
	H307	H	0.470211	0.520337	0.343529
	H308	H	0.466083	0.534333	0.350280
	O309	O	0.950302	0.125631	-0.010211
	H310	H	0.963773	0.117251	-0.029907
	H311	H	0.928773	0.129471	-0.012675
	O312	O	-0.061627	-0.118567	1.103306
	H313	H	-0.050933	-0.116069	1.119793
	H314	H	-0.061984	-0.121837	1.081783
	O315	O	0.471407	0.541494	0.537749
	H316	H	0.472664	0.543783	0.526901
	H317	H	0.489945	0.545220	0.530374
	O318	O	0.649026	0.513196	0.504350
	H319	H	0.656817	0.529321	0.516565
	H320	H	0.649280	0.522456	0.492903
	O321	O	0.642817	0.451675	0.460721
	H322	H	0.647112	0.447023	0.452764
	H323	H	0.642044	0.466634	0.465083
	O324	O	0.420539	0.584353	0.565928
	H325	H	0.422221	0.585528	0.561796
	H326	H	0.414993	0.568047	0.568106
	O327	O	-0.057556	0.975162	1.019560
	H328	H	-0.045787	0.984238	1.012801
	H329	H	-0.055603	0.970130	1.021351
	O330	O	0.575069	0.495038	0.474875
	H331	H	0.579347	0.498292	0.480921
	H332	H	0.558937	0.488879	0.471538
	O333	O	0.079871	0.842163	0.982267
	H334	H	0.068946	0.845462	0.985250
	H335	H	0.092006	0.835305	0.972105
	O336	O	1.072731	0.955805	0.945563
	H337	H	1.073672	0.964917	0.946843
	H338	H	1.080954	0.958251	0.954089
	O339	O	0.545149	0.667824	0.529474
	H340	H	0.549945	0.652032	0.517540
	H341	H	0.530539	0.668191	0.537807
	O342	O	0.964085	-0.068854	-0.116599
	H343	H	0.966035	-0.070412	-0.117039
	H344	H	0.973732	-0.065790	-0.122872
	O345	O	0.389462	0.492959	0.577931
	H346	H	0.396195	0.499267	0.572956
	H347	H	0.405237	0.477066	0.581069
	O348	O	0.813719	0.957890	1.106607
	H349	H	0.814973	0.958978	1.097101
	H350	H	0.817069	0.950315	1.117296
	O351	O	0.607532	0.727454	0.199005
	H352	H	0.594724	0.715260	0.204640
	H353	H	0.617578	0.734367	0.209991
	O354	O	0.316711	0.321349	0.586007
	H355	H	0.308934	0.307555	0.596482
	H356	H	0.328407	0.329845	0.580226
	O357	O	0.507013	0.308973	0.439874
	H358	H	0.496671	0.292140	0.423620
	H359	H	0.522922	0.314770	0.452217
	O360	O	-0.058267	-0.027644	-0.060776
	H361	H	-0.057330	-0.042193	-0.059651
	H362	H	-0.049175	-0.018882	-0.070301
	O363	O	0.457538	0.553989	0.461215
	H364	H	0.456920	0.543909	0.458997
	H365	H	0.454520	0.559169	0.462928
	O366	O	0.668315	0.367698	0.472332
	H367	H	0.672207	0.378892	0.466839
	H368	H	0.682581	0.377791	0.476935
	O369	O	0.440610	0.404588	0.516998
	H370	H	0.440133	0.398728	0.515956
	H371	H	0.444396	0.406990	0.527793
	O372	O	0.115133	1.034888	1.049711
	H373	H	0.125876	1.032542	1.050931
	H374	H	0.113624	1.031072	1.062354
	O375	O	0.412491	0.459169	0.387149
	H376	H	0.403341	0.455095	0.393011
	H377	H	0.418966	0.460225	0.379237
	O378	O	0.564195	0.554871	0.528658
	H379	H	0.568728	0.567086	0.543537
	H380	H	0.567847	0.550338	0.511543
	O381	O	0.597344	0.476165	0.652049
	H382	H	0.596957	0.477218	0.646026
	H383	H	0.588694	0.472830	0.656220
	O384	O	0.084953	0.992302	-0.040162
	H385	H	0.071781	0.984941	-0.039402
	H386	H	0.085113	1.003973	-0.039771
	O387	O	1.068717	0.068629	0.989338
	H388	H	1.076764	0.063821	0.987849
	H389	H	1.072959	0.080265	0.985783
	O390	O	0.045373	0.953481	0.083517
	H391	H	0.037590	0.958963	0.092336
	H392	H	0.043493	0.964265	0.090755
	O393	O	0.957708	1.069883	0.083337
	H394	H	0.950623	1.078741	0.077582
	H395	H	0.962137	1.069247	0.081895
	O396	O	0.493876	0.537204	0.424502
	H397	H	0.495120	0.542604	0.431794
	H398	H	0.477881	0.533533	0.427152
	O399	O	-0.020096	0.979183	1.001807
	H400	H	-0.025128	0.977367	0.991863
	H401	H	-0.022941	0.983108	1.001611
	O402	O	1.031206	1.062243	0.823443
	H403	H	1.026725	1.054383	0.818767
	H404	H	1.041287	1.056045	0.841737
	O405	O	0.497906	0.351342	0.443173
	H406	H	0.512454	0.348832	0.443703
	H407	H	0.504042	0.353765	0.447129
