data_Molecule from HDF5

_cell_length_a		16.279934
_cell_length_b		16.302844
_cell_length_c		16.387483
_cell_angle_alpha	90.000230
_cell_angle_beta	89.932653
_cell_angle_gamma	89.934641
_symmetry_space_group_name_H-M	'P 1'
_symmetry_Int_Tables_number		1

loop_
	_symmetry_equiv_pos_as_xyz
	x,y,z

loop_
	_atom_site_label
	_atom_site_type_symbol
	_atom_site_fract_x
	_atom_site_fract_y
	_atom_site_fract_z
	H0	H	0.391705	0.823107	0.727460
	H1	H	0.604249	0.141685	0.724407
	H2	H	0.603049	0.822485	0.283295
	H3	H	0.393698	0.143865	0.286921
	H4	H	0.718277	0.379328	0.845612
	H5	H	0.718405	0.586642	0.165097
	H6	H	0.278264	0.586594	0.844087
	H7	H	0.278308	0.378781	0.165357
	H8	H	0.835584	0.699103	0.402133
	H9	H	0.159145	0.699254	0.606250
	H10	H	0.835931	0.264203	0.606012
	H11	H	0.159101	0.260911	0.400799
	H12	H	0.838799	0.374099	0.726673
	H13	H	0.158826	0.586130	0.724573
	H14	H	0.836311	0.582404	0.286566
	H15	H	0.159184	0.375284	0.284794
	H16	H	0.393845	0.703011	0.844469
	H17	H	0.600701	0.702224	0.165572
	H18	H	0.603978	0.262701	0.845610
	H19	H	0.394517	0.262620	0.164673
	H20	H	0.715655	0.819672	0.401044
	H21	H	0.715508	0.142959	0.605382
	H22	H	0.278852	0.821307	0.609956
	H23	H	0.279273	0.142340	0.402960
	H24	H	0.894678	0.320503	0.222930
	H25	H	0.103654	0.641513	0.225088
	H26	H	0.106046	0.321228	0.783385
	H27	H	0.894648	0.641871	0.785096
	H28	H	0.217631	0.878979	0.344389
	H29	H	0.217085	0.085402	0.666071
	H30	H	0.778747	0.083488	0.344424
	H31	H	0.776792	0.875726	0.665199
	H32	H	0.337942	0.202532	0.901803
	H33	H	0.660102	0.201610	0.108627
	H34	H	0.336378	0.764877	0.108876
	H35	H	0.658294	0.761648	0.899204
	H36	H	0.336962	0.880996	0.223180
	H37	H	0.658508	0.088599	0.225421
	H38	H	0.337618	0.087318	0.785572
	H39	H	0.657670	0.876165	0.783004
	H40	H	0.893044	0.201194	0.344767
	H41	H	0.101470	0.201859	0.664602
	H42	H	0.100846	0.763077	0.343621
	H43	H	0.895580	0.762372	0.666382
	H44	H	0.218897	0.320959	0.901518
	H45	H	0.213329	0.643893	0.105645
	H46	H	0.778470	0.321666	0.108754
	H47	H	0.779884	0.643197	0.901005
	H48	H	0.404073	0.097620	0.592240
	H49	H	0.583030	0.870503	0.585462
	H50	H	0.591856	0.096747	0.418463
	H51	H	0.412910	0.867939	0.412898
	H52	H	0.587807	0.393617	0.119130
	H53	H	0.581033	0.579010	0.891150
	H54	H	0.412508	0.583558	0.120303
	H55	H	0.417764	0.393298	0.893981
	H56	H	0.110473	0.570624	0.419898
	H57	H	0.881843	0.572116	0.596985
	H58	H	0.113146	0.392556	0.594299
	H59	H	0.886336	0.401235	0.411327
	H60	H	0.112289	0.390728	0.592077
	H61	H	0.883423	0.571643	0.592745
	H62	H	0.112691	0.565953	0.409994
	H63	H	0.879340	0.386798	0.405556
	H64	H	0.395714	0.573745	0.122684
	H65	H	0.596643	0.575145	0.887954
	H66	H	0.588399	0.391761	0.119162
	H67	H	0.405908	0.386957	0.888017
	H68	H	0.589121	0.098709	0.410180
	H69	H	0.595482	0.864211	0.595175
	H70	H	0.409180	0.098303	0.599042
	H71	H	0.406225	0.868088	0.417974
	H72	H	0.905989	0.597880	0.094714
	H73	H	0.091377	0.363896	0.098931
	H74	H	0.089683	0.596687	0.911456
	H75	H	0.902862	0.365542	0.916033
	H76	H	0.089018	0.897916	0.616697
	H77	H	0.093531	0.073393	0.388753
	H78	H	0.904723	0.067574	0.618138
	H79	H	0.904844	0.887825	0.389673
	H80	H	0.613968	0.072631	0.913828
	H81	H	0.382673	0.079316	0.093182
	H82	H	0.616598	0.890954	0.100756
	H83	H	0.383650	0.886824	0.923449
	H84	H	0.612859	0.888825	0.087943
	H85	H	0.387538	0.068331	0.089994
	H86	H	0.613331	0.072405	0.914181
	H87	H	0.388248	0.905149	0.918794
	H88	H	0.911529	0.070496	0.617268
	H89	H	0.088801	0.063642	0.392903
	H90	H	0.080703	0.886821	0.617921
	H91	H	0.905878	0.891916	0.391207
	H92	H	0.083195	0.595169	0.912215
	H93	H	0.083566	0.367840	0.095498
	H94	H	0.910768	0.596636	0.099222
	H95	H	0.911340	0.365946	0.909446
	H96	H	0.412308	0.094548	0.592313
	H97	H	0.579883	0.866201	0.602203
	H98	H	0.584118	0.094655	0.415257
	H99	H	0.405610	0.865880	0.410048
	H100	H	0.589422	0.393744	0.119887
	H101	H	0.586857	0.563874	0.894578
	H102	H	0.411417	0.565347	0.114427
	H103	H	0.404846	0.401080	0.892997
	H104	H	0.115763	0.576541	0.411928
	H105	H	0.884151	0.567920	0.595933
	H106	H	0.112109	0.393255	0.591174
	H107	H	0.883492	0.387580	0.422115
	H108	H	0.911687	0.595290	0.093248
	H109	H	0.090340	0.366939	0.089882
	H110	H	0.087175	0.594725	0.917674
	H111	H	0.911809	0.368815	0.919444
	H112	H	0.093548	0.886183	0.623183
	H113	H	0.081749	0.074005	0.392754
	H114	H	0.907031	0.075204	0.620482
	H115	H	0.909457	0.888678	0.390970
	H116	H	0.613815	0.071613	0.914003
	H117	H	0.382429	0.070230	0.101102
	H118	H	0.609786	0.900686	0.093701
	H119	H	0.379818	0.893368	0.905691
	C120	C	0.376620	-0.009214	0.626394
	C121	C	0.618822	0.973038	0.625620
	C122	C	0.619618	-0.009543	0.382979
	C123	C	0.377168	0.973768	0.383583
	C124	C	0.620270	0.361260	0.013923
	C125	C	0.619797	0.604649	0.996858
	C126	C	0.375299	0.605401	0.013259
	C127	C	0.377379	0.361499	0.997044
	C128	C	0.006095	0.601893	0.383247
	C129	C	0.989245	0.602249	0.625987
	C130	C	0.006444	0.360471	0.624830
	C131	C	0.989090	0.358881	0.381690
	C132	C	0.877444	0.490393	0.126290
	C133	C	0.119820	0.472941	0.126158
	C134	C	0.119983	0.489633	0.882341
	C135	C	0.877261	0.473067	0.883318
	C136	C	0.119715	0.859260	0.512992
	C137	C	0.119389	0.102621	0.497058
	C138	C	0.876527	0.101913	0.512900
	C139	C	0.875792	0.858548	0.496886
	C140	C	0.507247	0.103845	0.883180
	C141	C	0.490186	0.104255	0.126366
	C142	C	0.506481	0.862272	0.125781
	C143	C	0.489426	0.861599	0.883202
	C144	C	0.374131	0.870623	0.686822
	C145	C	0.621882	0.093771	0.684482
	C146	C	0.621397	0.870047	0.323414
	C147	C	0.375470	0.095116	0.325686
	C148	C	0.679097	0.360370	0.893509
	C149	C	0.678593	0.605625	0.117305
	C150	C	0.316816	0.606115	0.892575
	C151	C	0.317730	0.360047	0.117258
	C152	C	0.884511	0.660098	0.382827
	C153	C	0.110951	0.660335	0.625820
	C154	C	0.884876	0.302264	0.625866
	C155	C	0.110463	0.299767	0.381578
	C156	C	0.886184	0.357360	0.685589
	C157	C	0.110681	0.604000	0.684575
	C158	C	0.884800	0.602283	0.325087
	C159	C	0.110805	0.356998	0.323794
	C160	C	0.374744	0.663822	0.892569
	C161	C	0.620074	0.663031	0.117427
	C162	C	0.622162	0.302195	0.893495
	C163	C	0.375322	0.301907	0.116837
	C164	C	0.677548	0.868858	0.382015
	C165	C	0.677269	0.094284	0.625360
	C166	C	0.317621	0.869722	0.628521
	C167	C	0.318259	0.094584	0.383552
	C168	C	0.875634	0.369157	0.184339
	C169	C	0.121101	0.593565	0.185154
	C170	C	0.123253	0.369265	0.823282
	C171	C	0.875824	0.593691	0.824115
	C172	C	0.178437	0.859405	0.392506
	C173	C	0.177785	0.103892	0.617717
	C174	C	0.817979	0.102464	0.392251
	C175	C	0.816904	0.857490	0.617399
	C176	C	0.386178	0.163139	0.882803
	C177	C	0.611495	0.162698	0.127327
	C178	C	0.385122	0.803838	0.127232
	C179	C	0.609995	0.801383	0.881154
	C180	C	0.385406	0.861417	0.184600
	C181	C	0.610593	0.106586	0.185967
	C182	C	0.386101	0.105995	0.824615
	C183	C	0.609875	0.858692	0.823243
	C184	C	0.874831	0.161285	0.392499
	C185	C	0.120360	0.162199	0.616985
	C186	C	0.120302	0.801695	0.392107
	C187	C	0.875735	0.800612	0.617941
	C188	C	0.179377	0.369090	0.882276
	C189	C	0.175913	0.594946	0.125684
	C190	C	0.818083	0.369569	0.127143
	C191	C	0.818855	0.594444	0.882042
	C192	C	0.401300	0.074934	0.601684
	C193	C	0.593396	0.888920	0.601449
	C194	C	0.595247	0.074905	0.407571
	C195	C	0.401293	0.889282	0.406902
	C196	C	0.595609	0.385923	0.097619
	C197	C	0.595285	0.579933	0.912976
	C198	C	0.399553	0.581101	0.097357
	C199	C	0.402220	0.386595	0.913649
	C200	C	0.090922	0.578050	0.406975
	C201	C	0.905163	0.577721	0.602118
	C202	C	0.090628	0.385178	0.599942
	C203	C	0.904871	0.384302	0.405921
	C204	C	0.902199	0.574623	0.102465
	C205	C	0.095737	0.388150	0.101842
	C206	C	0.094105	0.573753	0.906780
	C207	C	0.901581	0.388827	0.907788
	C208	C	0.095032	0.883494	0.597398
	C209	C	0.095073	0.077552	0.413263
	C210	C	0.900691	0.077908	0.596792
	C211	C	0.899664	0.882419	0.412577
	C212	C	0.591678	0.079224	0.907128
	C213	C	0.406060	0.079617	0.101885
	C214	C	0.590965	0.886418	0.101183
	C215	C	0.405642	0.887633	0.908568
	Zn216	Zn	0.497960	-0.017187	0.754399
	Zn217	Zn	0.498311	-0.016698	0.254793
	Zn218	Zn	0.748807	0.482678	0.005448
	Zn219	Zn	0.247531	0.482550	0.005067
	Zn220	Zn	-0.002084	0.730697	0.504687
	Zn221	Zn	-0.002405	0.231650	0.504547
	Zn222	Zn	-0.001654	0.480633	0.754130
	Zn223	Zn	-0.001001	0.480937	0.253899
	Zn224	Zn	0.497543	0.733845	0.004713
	Zn225	Zn	0.499084	0.232474	0.005504
	Zn226	Zn	0.747255	-0.019156	0.505105
	Zn227	Zn	0.248400	-0.018306	0.505340
	N228	N	0.410213	0.946818	0.685620
	N229	N	0.586210	0.017322	0.684864
	N230	N	0.586298	0.946771	0.323669
	N231	N	0.411529	0.018858	0.325598
	N232	N	0.678298	0.396266	0.969466
	N233	N	0.678618	0.570257	0.041152
	N234	N	0.317213	0.570379	0.968591
	N235	N	0.318781	0.396551	0.041627
	N236	N	0.960962	0.659983	0.418078
	N237	N	0.034627	0.659587	0.590185
	N238	N	0.960663	0.304051	0.588982
	N239	N	0.033752	0.300589	0.416547
	N240	N	0.962870	0.392751	0.685074
	N241	N	0.034124	0.568482	0.684912
	N242	N	0.961587	0.566901	0.325096
	N243	N	0.034268	0.392800	0.323458
	N244	N	0.410289	0.663636	0.968714
	N245	N	0.584316	0.662510	0.041478
	N246	N	0.586223	0.302651	0.969396
	N247	N	0.411703	0.302755	0.041300
	N248	N	0.676731	0.944939	0.418126
	N249	N	0.675574	0.018118	0.589623
	N250	N	0.319077	0.945559	0.591736
	N251	N	0.319013	0.018355	0.418939
	N252	N	0.912152	0.445106	0.183824
	N253	N	0.087233	0.516378	0.185549
	N254	N	0.087003	0.445320	0.823354
	N255	N	0.911488	0.517148	0.824780
	N256	N	0.178436	0.894206	0.469041
	N257	N	0.177477	0.067727	0.541828
	N258	N	0.819157	0.066158	0.468029
	N259	N	0.816724	0.892710	0.541119
	N260	N	0.462497	0.161909	0.918538
	N261	N	0.535498	0.161602	0.091306
	N262	N	0.461543	0.804163	0.091368
	N263	N	0.534038	0.803086	0.917734
	N264	N	0.461846	0.897141	0.183803
	N265	N	0.534226	0.070783	0.185309
	N266	N	0.462540	0.070037	0.824563
	N267	N	0.533864	0.895356	0.824391
	N268	N	0.910602	0.161093	0.468436
	N269	N	0.084643	0.161218	0.541022
	N270	N	0.084775	0.801526	0.468269
	N271	N	0.911406	0.801133	0.541826
	N272	N	0.177424	0.445111	0.918322
	N273	N	0.174901	0.518961	0.089471
	N274	N	0.819183	0.446003	0.091636
	N275	N	0.819436	0.518424	0.918088
	O276	O	0.328848	0.676640	0.461194
	H277	H	0.298819	0.696995	0.462114
	H278	H	0.348611	0.682106	0.449349
	O279	O	0.453416	0.471027	0.682868
	H280	H	0.454813	0.464991	0.690022
	H281	H	0.447119	0.497879	0.681066
	O282	O	0.478502	0.308382	0.331713
	H283	H	0.479180	0.287809	0.309231
	H284	H	0.501140	0.316229	0.341277
	O285	O	0.353651	0.336471	0.595654
	H286	H	0.343560	0.359877	0.605555
	H287	H	0.359854	0.329385	0.574866
	O288	O	0.883590	0.807770	1.096165
	H289	H	0.876764	0.800967	1.104850
	H290	H	0.880744	0.802095	1.102973
	O291	O	0.175425	1.028105	0.122493
	H292	H	0.189594	1.004372	0.122954
	H293	H	0.182887	1.027130	0.100969
	O294	O	0.355312	0.636196	0.398314
	H295	H	0.351457	0.622776	0.413334
	H296	H	0.382876	0.636621	0.387359
	O297	O	0.571586	0.685733	0.690951
	H298	H	0.577650	0.689952	0.705641
	H299	H	0.590752	0.686882	0.694052
	O300	O	0.536981	0.451863	0.560056
	H301	H	0.511278	0.457199	0.566199
	H302	H	0.538888	0.433127	0.561217
	O303	O	0.677246	0.471736	0.418798
	H304	H	0.683930	0.464767	0.425232
	H305	H	0.684454	0.484291	0.419955
	O306	O	0.437857	0.414687	0.538636
	H307	H	0.443641	0.415036	0.549858
	H308	H	0.427869	0.418269	0.553775
	O309	O	0.534283	0.493044	0.515405
	H310	H	0.525147	0.499606	0.504082
	H311	H	0.516830	0.496671	0.523825
	O312	O	0.019665	-0.033981	-0.060567
	H313	H	0.013638	-0.029263	-0.039999
	H314	H	0.015999	-0.038611	-0.066648
	O315	O	0.492967	0.479420	0.695841
	H316	H	0.483908	0.475671	0.707146
	H317	H	0.496098	0.483360	0.684375
	O318	O	0.458827	1.652739	1.350542
	H319	H	0.462624	1.653535	1.351717
	H320	H	0.459551	1.639884	1.342123
	O321	O	0.589122	0.428007	0.475935
	H322	H	0.582664	0.435366	0.483453
	H323	H	0.600204	0.431093	0.497720
	O324	O	-0.141100	0.949102	-0.103493
	H325	H	-0.140433	0.961462	-0.098500
	H326	H	-0.148318	0.944333	-0.111043
	O327	O	0.571080	0.452334	0.503196
	H328	H	0.568879	0.443333	0.505613
	H329	H	0.578012	0.450289	0.526614
	O330	O	0.062364	0.001981	1.049039
	H331	H	0.062040	0.005188	1.041085
	H332	H	0.065070	-0.000733	1.045649
	O333	O	-0.054349	-0.059060	1.174647
	H334	H	-0.051724	-0.051136	1.167286
	H335	H	-0.043475	-0.057198	1.183413
	O336	O	0.507816	0.413136	0.361481
	H337	H	0.493114	0.402465	0.364958
	H338	H	0.510027	0.402014	0.353052
	O339	O	0.981315	-0.164232	0.123600
	H340	H	0.991449	-0.175679	0.123419
	H341	H	0.985391	-0.139248	0.119291
	O342	O	-0.040206	-0.085215	0.009178
	H343	H	-0.038429	-0.071319	0.014241
	H344	H	-0.056781	-0.090197	0.026119
	O345	O	0.842702	0.157946	1.031994
	H346	H	0.826285	0.167079	1.032285
	H347	H	0.866035	0.153798	1.016282
	O348	O	1.050386	0.901720	0.065447
	H349	H	1.051928	0.902493	0.069986
	H350	H	1.050191	0.902853	0.067366
	O351	O	0.648012	0.600417	0.589281
	H352	H	0.652972	0.604883	0.593724
	H353	H	0.652634	0.595415	0.595264
	O354	O	0.926552	0.170756	0.810805
	H355	H	0.925112	0.185759	0.806838
	H356	H	0.934185	0.154674	0.824028
	O357	O	0.372592	0.368507	0.537552
	H358	H	0.365181	0.353434	0.534032
	H359	H	0.388657	0.369977	0.522380
	O360	O	0.452889	0.416469	0.561514
	H361	H	0.433807	0.415354	0.561432
	H362	H	0.458479	0.435410	0.543879
	O363	O	0.062925	1.098548	0.981317
	H364	H	0.054382	1.085370	0.979476
	H365	H	0.063849	1.104545	0.989698
	O366	O	1.131433	0.962768	-0.066617
	H367	H	1.133889	0.958404	-0.085669
	H368	H	1.125274	0.948280	-0.067611
	O369	O	-0.176559	1.096108	-0.146262
	H370	H	-0.157393	1.092799	-0.140301
	H371	H	-0.185373	1.073626	-0.149886
	O372	O	0.559081	0.518367	0.456788
	H373	H	0.566259	0.511995	0.448356
	H374	H	0.563584	0.506117	0.457053
	O375	O	0.424998	0.632590	0.524751
	H376	H	0.430813	0.652334	0.521075
	H377	H	0.436519	0.623681	0.516356
	O378	O	0.938659	1.074015	-0.010763
	H379	H	0.932468	1.066658	0.000634
	H380	H	0.936936	1.077371	0.014707
	O381	O	1.158386	0.016824	-0.009260
	H382	H	1.146177	0.002050	-0.021416
	H383	H	1.161807	0.023037	-0.024394
	O384	O	1.015444	0.901084	-0.115909
	H385	H	1.010887	0.908824	-0.122723
	H386	H	1.004426	0.911112	-0.114646
	O387	O	-0.038219	-0.139153	-0.127981
	H388	H	-0.046853	-0.145261	-0.115756
	H389	H	-0.044004	-0.143322	-0.126075
	O390	O	-0.202072	1.019112	0.033066
	H391	H	-0.215192	1.029381	0.030025
	H392	H	-0.197254	1.028977	0.041969
	O393	O	0.870305	0.871724	1.198816
	H394	H	0.847561	0.860439	1.203529
	H395	H	0.874708	0.867347	1.199226
	O396	O	0.643595	0.535132	0.433452
	H397	H	0.651181	0.538238	0.438436
	H398	H	0.616878	0.538639	0.428800
	O399	O	0.060069	1.038621	1.072547
	H400	H	0.063956	1.042629	1.054526
	H401	H	0.057491	1.045090	1.080453
	O402	O	0.388373	0.467690	0.429100
	H403	H	0.386941	0.478963	0.431902
	H404	H	0.370776	0.466757	0.422274
	O405	O	0.980345	1.039394	-0.143843
	H406	H	0.972783	1.037129	-0.143969
	H407	H	0.960995	1.065272	-0.146694
	O408	O	1.098731	1.145996	0.128757
	H409	H	1.103071	1.154975	0.141239
	H410	H	1.118840	1.141270	0.121013
	O411	O	1.078260	-0.160246	1.052047
	H412	H	1.083290	-0.145985	1.042232
	H413	H	1.094716	-0.168509	1.058842
	O414	O	0.406034	0.325549	0.679303
	H415	H	0.386167	0.327121	0.678672
	H416	H	0.391696	0.310727	0.698407
	O417	O	0.525051	0.413853	0.453916
	H418	H	0.522579	0.413935	0.446373
	H419	H	0.522621	0.405962	0.457308
