data_Molecule from HDF5

_cell_length_a		16.314639
_cell_length_b		16.253423
_cell_length_c		16.492492
_cell_angle_alpha	90.136237
_cell_angle_beta	90.100019
_cell_angle_gamma	90.225994
_symmetry_space_group_name_H-M	'P 1'
_symmetry_Int_Tables_number		1

loop_
	_symmetry_equiv_pos_as_xyz
	x,y,z

loop_
	_atom_site_label
	_atom_site_type_symbol
	_atom_site_fract_x
	_atom_site_fract_y
	_atom_site_fract_z
	H0	H	0.395423	0.845761	0.709071
	H1	H	0.609165	0.165153	0.711255
	H2	H	0.602393	0.843778	0.269225
	H3	H	0.397236	0.166655	0.270899
	H4	H	0.721310	0.400139	0.831230
	H5	H	0.719436	0.611624	0.149222
	H6	H	0.276937	0.609422	0.830876
	H7	H	0.279220	0.402612	0.150467
	H8	H	0.838539	0.722847	0.390765
	H9	H	0.160955	0.723865	0.593986
	H10	H	0.838077	0.285709	0.592138
	H11	H	0.161675	0.289858	0.389881
	H12	H	0.840357	0.396155	0.713551
	H13	H	0.159942	0.608898	0.711183
	H14	H	0.839804	0.612120	0.271163
	H15	H	0.158795	0.400957	0.270438
	H16	H	0.395077	0.724874	0.829170
	H17	H	0.601540	0.726678	0.148720
	H18	H	0.601067	0.287098	0.828947
	H19	H	0.394805	0.284548	0.149021
	H20	H	0.715969	0.841844	0.388090
	H21	H	0.719717	0.166325	0.592459
	H22	H	0.282025	0.843917	0.591076
	H23	H	0.283322	0.167238	0.387333
	H24	H	0.895129	0.344967	0.208874
	H25	H	0.103589	0.667529	0.211438
	H26	H	0.104907	0.345915	0.771263
	H27	H	0.893398	0.665330	0.768687
	H28	H	0.216934	0.902080	0.329427
	H29	H	0.220470	0.108923	0.647865
	H30	H	0.781391	0.105992	0.330424
	H31	H	0.777609	0.899628	0.649698
	H32	H	0.336899	0.220537	0.888737
	H33	H	0.661034	0.224623	0.089993
	H34	H	0.337287	0.789760	0.086515
	H35	H	0.660155	0.786529	0.883995
	H36	H	0.339318	0.899829	0.207598
	H37	H	0.661015	0.110043	0.208037
	H38	H	0.340453	0.109647	0.767961
	H39	H	0.659940	0.899473	0.767043
	H40	H	0.898694	0.222440	0.330862
	H41	H	0.102810	0.223613	0.648908
	H42	H	0.099437	0.786003	0.330618
	H43	H	0.897361	0.787319	0.651747
	H44	H	0.214139	0.344004	0.891583
	H45	H	0.218742	0.667848	0.095002
	H46	H	0.780839	0.344556	0.090473
	H47	H	0.782820	0.668527	0.888240
	H48	H	0.411017	0.121395	0.581369
	H49	H	0.589359	0.892143	0.573765
	H50	H	0.592807	0.122958	0.390349
	H51	H	0.412523	0.889397	0.392077
	H52	H	0.588429	0.418542	0.101293
	H53	H	0.590261	0.601781	0.874359
	H54	H	0.399301	0.590326	0.103321
	H55	H	0.408806	0.419753	0.879301
	H56	H	0.113882	0.595887	0.404047
	H57	H	0.882574	0.600841	0.582530
	H58	H	0.111982	0.415428	0.577268
	H59	H	0.882430	0.416371	0.391724
	H60	H	0.112963	0.421471	0.584745
	H61	H	0.887617	0.591515	0.573953
	H62	H	0.112869	0.591385	0.401538
	H63	H	0.882869	0.407604	0.404197
	H64	H	0.419558	0.591911	0.097257
	H65	H	0.595418	0.593132	0.874855
	H66	H	0.587318	0.415274	0.101891
	H67	H	0.408440	0.410457	0.876427
	H68	H	0.583489	0.117635	0.400270
	H69	H	0.589889	0.888424	0.583391
	H70	H	0.415453	0.118722	0.578556
	H71	H	0.410901	0.891425	0.401629
	H72	H	0.906832	0.621675	0.080218
	H73	H	0.089330	0.391753	0.080069
	H74	H	0.090421	0.621686	0.905269
	H75	H	0.906738	0.390862	0.903900
	H76	H	0.090214	0.918235	0.601825
	H77	H	0.090870	0.103722	0.373056
	H78	H	0.912409	0.095803	0.603679
	H79	H	0.916051	0.914364	0.380815
	H80	H	0.612104	0.094525	0.903983
	H81	H	0.384381	0.093596	0.083500
	H82	H	0.617988	0.912049	0.084442
	H83	H	0.387387	0.920442	0.899317
	H84	H	0.612630	0.915939	0.072205
	H85	H	0.384304	0.097796	0.081325
	H86	H	0.614840	0.092902	0.893811
	H87	H	0.385603	0.918056	0.894925
	H88	H	0.907297	0.096757	0.605215
	H89	H	0.098674	0.093745	0.373713
	H90	H	0.090160	0.912224	0.604321
	H91	H	0.906070	0.906658	0.375306
	H92	H	0.087367	0.622506	0.896029
	H93	H	0.090277	0.390195	0.084294
	H94	H	0.909772	0.623376	0.086462
	H95	H	0.910968	0.390195	0.897883
	H96	H	0.410428	0.120857	0.575574
	H97	H	0.581781	0.892564	0.579211
	H98	H	0.597114	0.120267	0.403778
	H99	H	0.403114	0.887628	0.396381
	H100	H	0.590936	0.416166	0.102962
	H101	H	0.586188	0.593543	0.878357
	H102	H	0.410202	0.608951	0.105524
	H103	H	0.400490	0.416263	0.875977
	H104	H	0.115535	0.595554	0.398745
	H105	H	0.885050	0.587791	0.586621
	H106	H	0.116462	0.411577	0.584882
	H107	H	0.888125	0.421714	0.404500
	H108	H	0.913533	0.620303	0.081446
	H109	H	0.085987	0.391451	0.083694
	H110	H	0.082045	0.618576	0.902671
	H111	H	0.913777	0.393202	0.903899
	H112	H	0.096126	0.915974	0.605448
	H113	H	0.086344	0.092581	0.377535
	H114	H	0.908363	0.091341	0.603158
	H115	H	0.903880	0.919918	0.378402
	H116	H	0.617034	0.102071	0.897725
	H117	H	0.386079	0.094008	0.079557
	H118	H	0.612266	0.925063	0.082693
	H119	H	0.385707	0.914995	0.899402
	C120	C	0.379709	0.014322	0.609832
	C121	C	0.620661	0.996804	0.610257
	C122	C	0.621234	0.013148	0.367593
	C123	C	0.378606	0.996713	0.366822
	C124	C	0.620275	0.384920	-0.002746
	C125	C	0.621661	0.628765	0.980833
	C126	C	0.377384	0.627765	-0.002850
	C127	C	0.375548	0.383998	0.982290
	C128	C	0.007998	0.626402	0.370388
	C129	C	0.991012	0.625575	0.612785
	C130	C	0.007836	0.383444	0.612890
	C131	C	0.990774	0.384263	0.369283
	C132	C	0.878008	0.515021	0.112614
	C133	C	0.120092	0.497783	0.113223
	C134	C	0.118658	0.514710	0.870785
	C135	C	0.878387	0.497620	0.869459
	C136	C	0.121831	0.883874	0.498496
	C137	C	0.122645	0.127204	0.480458
	C138	C	0.878532	0.125686	0.498744
	C139	C	0.877643	0.882699	0.483168
	C140	C	0.508356	0.127508	0.867272
	C141	C	0.491171	0.127398	0.111740
	C142	C	0.508080	0.885352	0.109588
	C143	C	0.492131	0.885510	0.866911
	C144	C	0.377222	0.893499	0.668979
	C145	C	0.625254	0.117475	0.670442
	C146	C	0.621445	0.891725	0.308933
	C147	C	0.378662	0.118235	0.309932
	C148	C	0.680412	0.382717	0.878129
	C149	C	0.679923	0.630209	0.101193
	C150	C	0.316825	0.628711	0.878178
	C151	C	0.317838	0.383307	0.102436
	C152	C	0.886962	0.684381	0.370891
	C153	C	0.112448	0.684474	0.613157
	C154	C	0.886848	0.323796	0.612712
	C155	C	0.112545	0.327549	0.369929
	C156	C	0.887737	0.379536	0.672631
	C157	C	0.111836	0.627749	0.671781
	C158	C	0.887647	0.629157	0.311347
	C159	C	0.111111	0.382686	0.310253
	C160	C	0.375821	0.685991	0.877366
	C161	C	0.621366	0.687483	0.100952
	C162	C	0.620499	0.326314	0.877049
	C163	C	0.375347	0.324553	0.101576
	C164	C	0.677812	0.890806	0.368058
	C165	C	0.680657	0.118015	0.611540
	C166	C	0.320963	0.892613	0.609930
	C167	C	0.321611	0.118551	0.367700
	C168	C	0.876161	0.393402	0.169794
	C169	C	0.122129	0.619147	0.172312
	C170	C	0.121659	0.393727	0.811672
	C171	C	0.875796	0.617583	0.808977
	C172	C	0.178306	0.882908	0.377702
	C173	C	0.180907	0.127745	0.600378
	C174	C	0.820478	0.125688	0.378334
	C175	C	0.818222	0.881777	0.602496
	C176	C	0.386137	0.183185	0.868186
	C177	C	0.612570	0.185699	0.110291
	C178	C	0.386104	0.827655	0.107456
	C179	C	0.612345	0.826231	0.865923
	C180	C	0.386918	0.882644	0.167552
	C181	C	0.612402	0.128883	0.169205
	C182	C	0.387985	0.127964	0.808169
	C183	C	0.612245	0.882343	0.807372
	C184	C	0.878815	0.183526	0.378493
	C185	C	0.122471	0.184823	0.600914
	C186	C	0.119915	0.825217	0.378353
	C187	C	0.877634	0.825450	0.603391
	C188	C	0.176376	0.392822	0.871338
	C189	C	0.179432	0.619382	0.114396
	C190	C	0.819609	0.393238	0.110890
	C191	C	0.820865	0.619315	0.868761
	C192	C	0.405151	0.098422	0.585675
	C193	C	0.594512	0.912885	0.585802
	C194	C	0.597900	0.098119	0.391185
	C195	C	0.402109	0.911570	0.389891
	C196	C	0.595930	0.409601	0.080333
	C197	C	0.597715	0.603570	0.897643
	C198	C	0.402465	0.603779	0.080361
	C199	C	0.399266	0.408405	0.898813
	C200	C	0.092340	0.601453	0.394298
	C201	C	0.907056	0.600458	0.588346
	C202	C	0.091769	0.408885	0.589263
	C203	C	0.906589	0.408321	0.392996
	C204	C	0.902967	0.599805	0.089576
	C205	C	0.095677	0.413201	0.089415
	C206	C	0.093771	0.599121	0.894683
	C207	C	0.903332	0.413323	0.894437
	C208	C	0.098883	0.908367	0.582178
	C209	C	0.098659	0.103632	0.396562
	C210	C	0.902408	0.101621	0.582399
	C211	C	0.901547	0.906752	0.399762
	C212	C	0.592927	0.103559	0.891511
	C213	C	0.406574	0.102450	0.088336
	C214	C	0.592378	0.910464	0.086468
	C215	C	0.408125	0.910547	0.891079
	Zn216	Zn	0.501099	0.005919	0.738582
	Zn217	Zn	0.499803	0.005007	0.238958
	Zn218	Zn	0.750025	0.506752	-0.009996
	Zn219	Zn	0.247095	0.506707	-0.008796
	Zn220	Zn	-0.000424	0.754129	0.491975
	Zn221	Zn	0.000121	0.255453	0.490153
	Zn222	Zn	-0.000387	0.505023	0.741772
	Zn223	Zn	-0.000916	0.506153	0.241801
	Zn224	Zn	0.499591	0.757375	-0.012004
	Zn225	Zn	0.498674	0.255458	-0.010633
	Zn226	Zn	0.748394	0.004421	0.490392
	Zn227	Zn	0.251278	0.005341	0.488773
	N228	N	0.413121	0.970096	0.669052
	N229	N	0.588633	0.041218	0.669874
	N230	N	0.586953	0.968837	0.308520
	N231	N	0.413124	0.041197	0.309105
	N232	N	0.680454	0.418542	0.953726
	N233	N	0.680306	0.594308	0.025583
	N234	N	0.317562	0.593467	0.953767
	N235	N	0.317800	0.419615	0.027254
	N236	N	0.962845	0.682627	0.407003
	N237	N	0.036308	0.683492	0.577414
	N238	N	0.962439	0.326070	0.576141
	N239	N	0.036562	0.328102	0.405919
	N240	N	0.963953	0.415868	0.672860
	N241	N	0.035370	0.591940	0.671667
	N242	N	0.963997	0.593589	0.311109
	N243	N	0.034434	0.417252	0.309689
	N244	N	0.412909	0.685255	0.952247
	N245	N	0.586130	0.686908	0.025169
	N246	N	0.583716	0.327713	0.951954
	N247	N	0.410469	0.324820	0.025924
	N248	N	0.677727	0.967197	0.403864
	N249	N	0.677934	0.042011	0.574966
	N250	N	0.322689	0.968651	0.573586
	N251	N	0.321380	0.041853	0.402303
	N252	N	0.911534	0.470208	0.171152
	N253	N	0.086171	0.542422	0.171893
	N254	N	0.086541	0.470417	0.811291
	N255	N	0.910565	0.540611	0.809250
	N256	N	0.179555	0.918701	0.453263
	N257	N	0.181374	0.093005	0.524329
	N258	N	0.820050	0.090643	0.454100
	N259	N	0.818170	0.916793	0.526700
	N260	N	0.462078	0.183085	0.904160
	N261	N	0.535965	0.185016	0.075440
	N262	N	0.462423	0.829185	0.072075
	N263	N	0.536547	0.827983	0.902185
	N264	N	0.463705	0.917741	0.169042
	N265	N	0.535776	0.093306	0.170004
	N266	N	0.465282	0.094397	0.807187
	N267	N	0.536489	0.918748	0.808112
	N268	N	0.913979	0.183723	0.454342
	N269	N	0.087148	0.184889	0.525247
	N270	N	0.085801	0.825365	0.454579
	N271	N	0.913759	0.825852	0.528219
	N272	N	0.174690	0.468962	0.907580
	N273	N	0.178479	0.543027	0.078611
	N274	N	0.820480	0.470110	0.076332
	N275	N	0.822269	0.543701	0.905681
	O276	O	0.625919	0.574778	0.297093
	H277	H	0.625996	0.572082	0.287412
	H278	H	0.630593	0.540388	0.289056
	O279	O	0.606333	0.397705	0.649389
	H280	H	0.623853	0.421327	0.625933
	H281	H	0.593557	0.366880	0.649147
	O282	O	0.338491	0.614017	0.349644
	H283	H	0.347437	0.631008	0.358865
	H284	H	0.335467	0.611323	0.346301
	O285	O	0.546275	-0.426530	-0.470525
	H286	H	0.559463	-0.423165	-0.480709
	H287	H	0.539970	-0.423227	-0.461610
	O288	O	0.333646	-0.580190	0.530021
	H289	H	0.326644	-0.574387	0.535634
	H290	H	0.313831	-0.588651	0.531350
	O291	O	0.627425	0.468794	0.642980
	H292	H	0.635628	0.485588	0.637777
	H293	H	0.630382	0.463255	0.648581
	O294	O	0.687147	0.627339	0.681380
	H295	H	0.676319	0.612914	0.687552
	H296	H	0.694638	0.621259	0.665183
	O297	O	0.932470	0.953600	0.933742
	H298	H	0.934644	0.936457	0.938773
	H299	H	0.935862	0.943473	0.941323
	O300	O	-0.622613	0.478124	0.477272
	H301	H	-0.621078	0.470288	0.474618
	H302	H	-0.625787	0.473304	0.483764
	O303	O	0.359818	0.633890	0.464755
	H304	H	0.349968	0.636069	0.459255
	H305	H	0.350820	0.632924	0.471047
	O306	O	0.852340	-0.039764	-0.052121
	H307	H	0.846810	-0.044882	-0.048796
	H308	H	0.841766	-0.035623	-0.052654
	O309	O	0.769181	0.744942	0.304714
	H310	H	0.786659	0.751179	0.308863
	H311	H	0.764588	0.759208	0.318549
	O312	O	0.571575	0.557795	-0.493754
	H313	H	0.582325	0.565808	-0.497258
	H314	H	0.569755	0.549458	-0.496456
	O315	O	0.609869	0.680339	0.584163
	H316	H	0.620321	0.677281	0.575038
	H317	H	0.608103	0.668876	0.600298
	O318	O	0.599612	0.525179	0.482569
	H319	H	0.608649	0.523870	0.478920
	H320	H	0.599137	0.528396	0.485643
	O321	O	0.975572	-0.111349	0.926060
	H322	H	0.969082	-0.117216	0.910607
	H323	H	0.968139	-0.116801	0.931903
	O324	O	0.062509	-0.075227	1.137595
	H325	H	0.065222	-0.065080	1.146051
	H326	H	0.049084	-0.061233	1.121744
	O327	O	0.515868	0.361050	0.284514
	H328	H	0.522169	0.374453	0.283996
	H329	H	0.502520	0.351931	0.273647
	O330	O	0.412329	0.506394	0.499250
	H331	H	0.416446	0.503958	0.505997
	H332	H	0.412502	0.512042	0.510981
	O333	O	1.077118	0.991718	0.820223
	H334	H	1.078219	0.982718	0.823059
	H335	H	1.090120	0.974950	0.810818
	O336	O	0.420387	0.570230	0.566637
	H337	H	0.420145	0.565492	0.560851
	H338	H	0.426412	0.552043	0.565398
	O339	O	1.462139	-0.344538	1.291817
	H340	H	1.467712	-0.351876	1.290167
	H341	H	1.457310	-0.343299	1.292823
	O342	O	0.103927	1.096721	0.879526
	H343	H	0.097847	1.100563	0.882050
	H344	H	0.093035	1.098754	0.884907
	O345	O	-0.115541	1.061617	0.922078
	H346	H	-0.104203	1.046063	0.912230
	H347	H	-0.115995	1.049471	0.922939
	O348	O	0.937006	0.947932	1.079908
	H349	H	0.922599	0.929629	1.080164
	H350	H	0.948324	0.946433	1.078305
	O351	O	0.030081	-0.029715	0.139876
	H352	H	0.042977	-0.013695	0.137878
	H353	H	0.035505	-0.026525	0.141084
	O354	O	1.142684	0.865241	-0.095265
	H355	H	1.147800	0.879453	-0.109416
	H356	H	1.166068	0.866448	-0.105268
	O357	O	0.120390	1.066437	-0.010504
	H358	H	0.131903	1.074044	-0.000544
	H359	H	0.121035	1.069925	-0.029466
	O360	O	0.421696	0.560257	0.692483
	H361	H	0.428156	0.555070	0.681189
	H362	H	0.425801	0.565180	0.698805
	O363	O	0.704595	0.493175	0.418068
	H364	H	0.708947	0.499754	0.397721
	H365	H	0.692182	0.480571	0.406558
	O366	O	0.924319	1.026046	0.943285
	H367	H	0.935297	1.027939	0.958055
	H368	H	0.916926	1.016355	0.952694
	O369	O	0.123306	0.032185	0.903503
	H370	H	0.125088	0.047663	0.891305
	H371	H	0.122328	0.027616	0.911503
	O372	O	-0.134036	1.038929	0.176063
	H373	H	-0.116853	1.039060	0.179795
	H374	H	-0.144344	1.038335	0.194624
	O375	O	0.339590	0.424330	0.565372
	H376	H	0.336994	0.415425	0.581077
	H377	H	0.332183	0.426962	0.559279
	O378	O	0.682400	0.313225	0.301444
	H379	H	0.667837	0.300753	0.298173
	H380	H	0.674829	0.300165	0.332026
	O381	O	0.326647	0.415613	0.569503
	H382	H	0.350033	0.418314	0.572687
	H383	H	0.316731	0.404034	0.585854
	O384	O	0.035948	1.059126	0.930622
	H385	H	0.042482	1.030437	0.919003
	H386	H	0.018438	1.060908	0.923848
	O387	O	0.964494	1.145727	-0.205982
	H388	H	0.943090	1.150617	-0.205206
	H389	H	0.963776	1.159016	-0.211438
	O390	O	0.533162	-0.303532	1.476406
	H391	H	0.538424	-0.300711	1.474902
	H392	H	0.535477	-0.304806	1.465330
	O393	O	1.423980	0.540164	1.370697
	H394	H	1.435920	0.562077	1.364980
	H395	H	1.406278	0.541232	1.369977
	O396	O	-0.136064	1.100274	0.822202
	H397	H	-0.139947	1.085700	0.822936
	H398	H	-0.139561	1.094041	0.826069
	O399	O	0.488579	0.380466	0.649669
	H400	H	0.484623	0.367844	0.645205
	H401	H	0.476268	0.383393	0.662165
	O402	O	1.032901	-0.161429	1.081421
	H403	H	1.032648	-0.158056	1.077966
	H404	H	1.034898	-0.168018	1.090702
	O405	O	0.010372	0.127381	0.139877
	H406	H	0.006087	0.119898	0.141524
	H407	H	0.005979	0.114046	0.131066
	O408	O	0.873024	0.880142	1.047859
	H409	H	0.865333	0.860626	1.061559
	H410	H	0.882459	0.887266	1.058311
	O411	O	1.167425	0.975964	-0.065284
	H412	H	1.162234	0.975704	-0.049489
	H413	H	1.156186	0.981586	-0.055963
	O414	O	-0.117617	0.127752	1.114298
	H415	H	-0.116672	0.129846	1.107956
	H416	H	-0.112800	0.117103	1.097209
	O417	O	0.404701	0.410016	0.301708
	H418	H	0.398800	0.424987	0.311315
	H419	H	0.410051	0.419875	0.298740
	O420	O	0.195689	1.080013	0.083097
	H421	H	0.210583	1.091601	0.094352
	H422	H	0.190008	1.098159	0.079225
	O423	O	1.140347	0.169468	0.166447
	H424	H	1.146771	0.182945	0.157578
	H425	H	1.126886	0.160430	0.164245
	O426	O	-0.432705	-0.705240	0.550740
	H427	H	-0.423180	-0.698582	0.554994
	H428	H	-0.426623	-0.733998	0.561385
	O429	O	0.478944	0.310215	0.407539
	H430	H	0.475713	0.312741	0.400017
	H431	H	0.492311	0.307438	0.402536
