data_Molecule from HDF5

_cell_length_a		16.064043
_cell_length_b		16.254937
_cell_length_c		16.428079
_cell_angle_alpha	89.780872
_cell_angle_beta	89.789975
_cell_angle_gamma	90.289906
_symmetry_space_group_name_H-M	'P 1'
_symmetry_Int_Tables_number		1

loop_
	_symmetry_equiv_pos_as_xyz
	x,y,z

loop_
	_atom_site_label
	_atom_site_type_symbol
	_atom_site_fract_x
	_atom_site_fract_y
	_atom_site_fract_z
	H0	H	0.388863	0.833254	0.717797
	H1	H	0.593804	0.158409	0.714427
	H2	H	0.594919	0.832523	0.282833
	H3	H	0.390578	0.157305	0.282501
	H4	H	0.705418	0.399428	0.835366
	H5	H	0.704243	0.590639	0.162415
	H6	H	0.279684	0.591079	0.835218
	H7	H	0.274399	0.394191	0.160320
	H8	H	0.825732	0.708313	0.400098
	H9	H	0.156867	0.708310	0.595134
	H10	H	0.826804	0.281110	0.596718
	H11	H	0.159123	0.285165	0.402638
	H12	H	0.826675	0.394879	0.712535
	H13	H	0.156592	0.595753	0.712601
	H14	H	0.826681	0.595002	0.284609
	H15	H	0.155178	0.394065	0.282495
	H16	H	0.393789	0.711362	0.836747
	H17	H	0.593961	0.711758	0.159903
	H18	H	0.590280	0.279977	0.835621
	H19	H	0.388643	0.276086	0.160047
	H20	H	0.705232	0.831263	0.403221
	H21	H	0.704317	0.160099	0.593586
	H22	H	0.279001	0.830500	0.596534
	H23	H	0.284161	0.160445	0.405402
	H24	H	0.887514	0.331982	0.217642
	H25	H	0.094966	0.657420	0.215281
	H26	H	0.091037	0.332124	0.783647
	H27	H	0.891020	0.657107	0.782319
	H28	H	0.206853	0.899798	0.336068
	H29	H	0.203325	0.090121	0.662843
	H30	H	0.779840	0.092932	0.336500
	H31	H	0.776941	0.896439	0.662899
	H32	H	0.325907	0.205699	0.901932
	H33	H	0.656610	0.208853	0.095625
	H34	H	0.326545	0.779797	0.097476
	H35	H	0.659140	0.785585	0.902483
	H36	H	0.326850	0.892373	0.215857
	H37	H	0.657088	0.095202	0.212315
	H38	H	0.327465	0.094851	0.785606
	H39	H	0.656497	0.895740	0.783242
	H40	H	0.894539	0.211627	0.337796
	H41	H	0.091761	0.209878	0.661922
	H42	H	0.093114	0.779943	0.336938
	H43	H	0.891346	0.777109	0.661639
	H44	H	0.202337	0.329775	0.902109
	H45	H	0.205950	0.658484	0.093797
	H46	H	0.779609	0.329210	0.094631
	H47	H	0.782704	0.660049	0.904717
	H48	H	0.400065	0.111512	0.590577
	H49	H	0.576296	0.878640	0.601933
	H50	H	0.586114	0.114444	0.397518
	H51	H	0.398788	0.876689	0.403696
	H52	H	0.579567	0.399693	0.112854
	H53	H	0.582887	0.589535	0.884097
	H54	H	0.410362	0.580291	0.108444
	H55	H	0.402771	0.397758	0.883371
	H56	H	0.111026	0.582526	0.395533
	H57	H	0.871831	0.584993	0.597450
	H58	H	0.113109	0.399461	0.596052
	H59	H	0.873498	0.397919	0.411330
	H60	H	0.110542	0.401415	0.589047
	H61	H	0.872570	0.590290	0.588672
	H62	H	0.112162	0.597356	0.407840
	H63	H	0.875766	0.407017	0.410608
	H64	H	0.400223	0.598968	0.117327
	H65	H	0.587406	0.595241	0.880934
	H66	H	0.585624	0.395742	0.116110
	H67	H	0.395304	0.395855	0.879683
	H68	H	0.579647	0.109558	0.406026
	H69	H	0.578539	0.882086	0.585220
	H70	H	0.395810	0.114865	0.597012
	H71	H	0.404188	0.879731	0.407660
	H72	H	0.904674	0.608137	0.088244
	H73	H	0.075340	0.382646	0.083701
	H74	H	0.075104	0.610033	0.900447
	H75	H	0.910378	0.379939	0.900849
	H76	H	0.086069	0.897216	0.616576
	H77	H	0.085244	0.083536	0.386017
	H78	H	0.903524	0.091377	0.614987
	H79	H	0.894473	0.906747	0.384934
	H80	H	0.609828	0.085733	0.909070
	H81	H	0.372008	0.087166	0.092204
	H82	H	0.610991	0.910149	0.102799
	H83	H	0.375183	0.905898	0.909715
	H84	H	0.613126	0.893036	0.092613
	H85	H	0.374871	0.081818	0.089891
	H86	H	0.611091	0.085731	0.903257
	H87	H	0.372501	0.902191	0.903206
	H88	H	0.895216	0.091078	0.617502
	H89	H	0.082123	0.097953	0.382970
	H90	H	0.085787	0.903492	0.613694
	H91	H	0.907194	0.902593	0.387238
	H92	H	0.087563	0.609648	0.913739
	H93	H	0.091307	0.374964	0.092337
	H94	H	0.892660	0.612739	0.091543
	H95	H	0.895941	0.379263	0.916593
	H96	H	0.404009	0.112884	0.597605
	H97	H	0.591411	0.875557	0.594123
	H98	H	0.591368	0.113187	0.408047
	H99	H	0.397952	0.877474	0.410738
	H100	H	0.586857	0.402897	0.114489
	H101	H	0.590429	0.587405	0.883025
	H102	H	0.387648	0.579958	0.114912
	H103	H	0.395772	0.403245	0.883445
	H104	H	0.104667	0.580320	0.413479
	H105	H	0.875601	0.580196	0.588909
	H106	H	0.110804	0.406965	0.595295
	H107	H	0.872349	0.402868	0.403087
	H108	H	0.901818	0.612584	0.100117
	H109	H	0.074598	0.377427	0.102371
	H110	H	0.092981	0.617228	0.897498
	H111	H	0.890490	0.372361	0.896457
	H112	H	0.080905	0.899995	0.612925
	H113	H	0.095134	0.092555	0.380237
	H114	H	0.898993	0.084015	0.614145
	H115	H	0.898289	0.893800	0.381403
	H116	H	0.611333	0.091022	0.906471
	H117	H	0.372910	0.082049	0.095218
	H118	H	0.605719	0.908774	0.083343
	H119	H	0.373012	0.898643	0.909190
	C120	C	0.370535	0.004285	0.622810
	C121	C	0.612238	0.986870	0.621212
	C122	C	0.614518	0.004170	0.376386
	C123	C	0.371588	0.986282	0.378780
	C124	C	0.613173	0.372101	0.006677
	C125	C	0.615517	0.617921	0.990219
	C126	C	0.371228	0.615723	0.006365
	C127	C	0.368118	0.370445	0.989498
	C128	C	-0.000034	0.616151	0.377211
	C129	C	0.982883	0.614866	0.619581
	C130	C	0.001713	0.373569	0.621178
	C131	C	0.983371	0.374262	0.379072
	C132	C	0.869589	0.503106	0.121803
	C133	C	0.111773	0.486209	0.120655
	C134	C	0.112930	0.503591	0.876598
	C135	C	0.870809	0.485934	0.877181
	C136	C	0.114063	0.872617	0.507319
	C137	C	0.115336	0.118266	0.490854
	C138	C	0.871123	0.117166	0.508169
	C139	C	0.869926	0.871983	0.491587
	C140	C	0.500882	0.115435	0.878492
	C141	C	0.482619	0.114629	0.120436
	C142	C	0.500886	0.873236	0.121778
	C143	C	0.483296	0.874470	0.878638
	C144	C	0.370396	0.881471	0.678605
	C145	C	0.613293	0.109641	0.676797
	C146	C	0.613770	0.881201	0.321404
	C147	C	0.372454	0.109071	0.322095
	C148	C	0.667902	0.377266	0.884051
	C149	C	0.668587	0.612786	0.113190
	C150	C	0.317386	0.612390	0.883831
	C151	C	0.312259	0.373430	0.111764
	C152	C	0.875391	0.671043	0.379979
	C153	C	0.107706	0.670449	0.616203
	C154	C	0.876501	0.318276	0.617885
	C155	C	0.108899	0.321173	0.381515
	C156	C	0.876455	0.374645	0.675536
	C157	C	0.107303	0.614672	0.674522
	C158	C	0.875981	0.614826	0.322521
	C159	C	0.106964	0.375725	0.321972
	C160	C	0.374004	0.672271	0.884759
	C161	C	0.613628	0.672905	0.112057
	C162	C	0.610787	0.318012	0.884282
	C163	C	0.368795	0.314446	0.111574
	C164	C	0.668716	0.880370	0.381137
	C165	C	0.667660	0.110763	0.616233
	C166	C	0.315889	0.880156	0.618339
	C167	C	0.318936	0.110494	0.382773
	C168	C	0.869300	0.380303	0.178260
	C169	C	0.112665	0.608881	0.175962
	C170	C	0.110394	0.380411	0.822154
	C171	C	0.871745	0.608724	0.821111
	C172	C	0.169430	0.877879	0.384907
	C173	C	0.167756	0.112641	0.613824
	C174	C	0.817087	0.114147	0.385275
	C175	C	0.814248	0.874830	0.613927
	C176	C	0.375564	0.168630	0.881493
	C177	C	0.606962	0.171190	0.116907
	C178	C	0.376187	0.817257	0.118748
	C179	C	0.608952	0.821713	0.881237
	C180	C	0.376388	0.873013	0.177596
	C181	C	0.607337	0.114733	0.174930
	C182	C	0.376568	0.113900	0.823362
	C183	C	0.607643	0.876450	0.822006
	C184	C	0.873999	0.173086	0.385961
	C185	C	0.112275	0.172166	0.613232
	C186	C	0.113154	0.818123	0.385276
	C187	C	0.871064	0.815542	0.613266
	C188	C	0.165496	0.379157	0.881241
	C189	C	0.168407	0.609350	0.116122
	C190	C	0.815350	0.378932	0.117397
	C191	C	0.817964	0.610219	0.882046
	C192	C	0.393293	0.090708	0.601334
	C193	C	0.589013	0.900865	0.600071
	C194	C	0.592243	0.090165	0.397489
	C195	C	0.393927	0.900157	0.400650
	C196	C	0.590576	0.392952	0.092199
	C197	C	0.593635	0.596919	0.904826
	C198	C	0.393048	0.593070	0.091628
	C199	C	0.391097	0.392541	0.904185
	C200	C	0.086892	0.593570	0.399393
	C201	C	0.895913	0.592031	0.598119
	C202	C	0.088829	0.396156	0.599841
	C203	C	0.896444	0.396190	0.401646
	C204	C	0.893033	0.588988	0.099755
	C205	C	0.087473	0.400284	0.099098
	C206	C	0.091617	0.589963	0.897753
	C207	C	0.892509	0.399579	0.898347
	C208	C	0.090997	0.893822	0.592532
	C209	C	0.093879	0.097505	0.405229
	C210	C	0.892729	0.095111	0.593397
	C211	C	0.893079	0.894539	0.406523
	C212	C	0.588056	0.093896	0.900023
	C213	C	0.395721	0.090661	0.098892
	C214	C	0.587475	0.896776	0.099395
	C215	C	0.396218	0.895916	0.900936
	Zn216	Zn	0.492235	-0.004250	0.751110
	Zn217	Zn	0.491871	-0.005474	0.249495
	Zn218	Zn	0.742706	0.494498	-0.001092
	Zn219	Zn	0.240499	0.493576	-0.001774
	Zn220	Zn	-0.008043	0.742433	0.498762
	Zn221	Zn	-0.006499	0.246551	0.499814
	Zn222	Zn	-0.008236	0.494569	0.748444
	Zn223	Zn	-0.009397	0.494676	0.250541
	Zn224	Zn	0.493005	0.746543	-0.000927
	Zn225	Zn	0.490648	0.242505	-0.001483
	Zn226	Zn	0.741305	-0.004570	0.499665
	Zn227	Zn	0.243384	-0.004356	0.499962
	N228	N	0.403757	0.959534	0.681359
	N229	N	0.579322	0.031793	0.679642
	N230	N	0.580688	0.959087	0.318461
	N231	N	0.404506	0.030698	0.319470
	N232	N	0.669557	0.410072	0.961150
	N233	N	0.670082	0.579526	0.036308
	N234	N	0.315439	0.578041	0.960483
	N235	N	0.311816	0.407503	0.034825
	N236	N	0.954012	0.672102	0.413362
	N237	N	0.029445	0.670545	0.582609
	N238	N	0.955137	0.317612	0.584442
	N239	N	0.031044	0.320252	0.416397
	N240	N	0.955162	0.408266	0.677716
	N241	N	0.028753	0.580608	0.676614
	N242	N	0.954413	0.581429	0.320701
	N243	N	0.027834	0.407766	0.320338
	N244	N	0.406632	0.674526	0.962122
	N245	N	0.581203	0.676270	0.034724
	N246	N	0.577648	0.314634	0.961695
	N247	N	0.402485	0.312264	0.034608
	N248	N	0.669210	0.957767	0.414675
	N249	N	0.667270	0.033487	0.582267
	N250	N	0.315767	0.957743	0.584351
	N251	N	0.318539	0.033338	0.417706
	N252	N	0.902215	0.458712	0.181167
	N253	N	0.078363	0.531058	0.178986
	N254	N	0.078512	0.458708	0.819071
	N255	N	0.903603	0.530414	0.818072
	N256	N	0.170407	0.910761	0.461977
	N257	N	0.169754	0.079725	0.536751
	N258	N	0.815168	0.079857	0.462060
	N259	N	0.813242	0.909189	0.537189
	N260	N	0.453816	0.169823	0.915031
	N261	N	0.528349	0.171301	0.084047
	N262	N	0.454718	0.816986	0.085026
	N263	N	0.530795	0.820269	0.915773
	N264	N	0.454948	0.907032	0.179745
	N265	N	0.528921	0.080149	0.177293
	N266	N	0.455522	0.081339	0.821377
	N267	N	0.528536	0.908502	0.820233
	N268	N	0.906818	0.175090	0.463201
	N269	N	0.080374	0.175711	0.535764
	N270	N	0.079190	0.814889	0.462217
	N271	N	0.904874	0.813663	0.536166
	N272	N	0.167146	0.456755	0.914568
	N273	N	0.167614	0.532074	0.082206
	N274	N	0.815249	0.456117	0.083002
	N275	N	0.817385	0.532834	0.916571
	O276	O	0.453859	0.571370	0.461504
	H277	H	0.448614	0.564733	0.464165
	H278	H	0.461419	0.573715	0.451723
	O279	O	0.524624	0.575853	0.362129
	H280	H	0.516579	0.590536	0.354745
	H281	H	0.503063	0.579442	0.363195
	O282	O	0.459056	0.504992	0.384559
	H283	H	0.454682	0.509594	0.384937
	H284	H	0.463136	0.494336	0.392013
	O285	O	0.428730	1.582971	0.386830
	H286	H	0.422349	1.572222	0.389443
	H287	H	0.433192	1.587702	0.395097
	O288	O	0.522334	0.473905	0.426998
	H289	H	0.532119	0.473191	0.425382
	H290	H	0.528607	0.485651	0.423069
	O291	O	0.018781	-0.050725	1.048405
	H292	H	0.022290	-0.051414	1.044860
	H293	H	0.015648	-0.052220	1.054901
	O294	O	0.922665	0.009226	1.071511
	H295	H	0.915789	0.007996	1.078091
	H296	H	0.927432	0.008707	1.070893
	O297	O	0.514975	0.457051	0.482016
	H298	H	0.513097	0.449518	0.471756
	H299	H	0.524830	0.460366	0.482849
	O300	O	0.549408	0.533157	0.478325
	H301	H	0.555002	0.539342	0.486320
	H302	H	0.552651	0.535906	0.478747
	O303	O	-0.037958	0.998282	0.031494
	H304	H	-0.031315	1.006637	0.034005
	H305	H	-0.036336	1.001970	0.030689
	O306	O	1.016266	0.013230	1.031425
	H307	H	1.013406	0.013310	1.042950
	H308	H	1.013923	0.017771	1.039082
	O309	O	0.463098	0.567600	0.513736
	H310	H	0.470413	0.568898	0.518278
	H311	H	0.467749	0.564005	0.519719
	O312	O	0.540478	0.504109	0.423910
	H313	H	0.535873	0.507401	0.411738
	H314	H	0.544916	0.506367	0.418153
	O315	O	1.010548	-0.023178	1.062239
	H316	H	1.015628	-0.016707	1.062456
	H317	H	1.009778	-0.019525	1.066670
	O318	O	-0.035355	-0.088926	0.075237
	H319	H	-0.029302	-0.099805	0.080938
	H320	H	-0.034494	-0.094942	0.063458
	O321	O	1.014730	1.036952	1.112187
	H322	H	1.019303	1.031517	1.117857
	H323	H	1.007355	1.036554	1.111497
	O324	O	0.995647	-0.009680	0.075195
	H325	H	0.994078	-0.015304	0.070523
	H326	H	0.999878	-0.017152	0.086576
	O327	O	0.885968	0.975405	0.053597
	H328	H	0.871083	0.981391	0.050150
	H329	H	0.880380	0.971162	0.050367
	O330	O	0.504612	0.508891	0.431900
	H331	H	0.503624	0.499522	0.437563
	H332	H	0.503151	0.508938	0.429578
	O333	O	0.524653	0.531779	0.449495
	H334	H	0.519750	0.537962	0.449634
	H335	H	0.523620	0.541036	0.454715
