data_Molecule from HDF5

_cell_length_a		16.136512
_cell_length_b		16.206675
_cell_length_c		16.383667
_cell_angle_alpha	89.929843
_cell_angle_beta	89.913618
_cell_angle_gamma	89.958988
_symmetry_space_group_name_H-M	'P 1'
_symmetry_Int_Tables_number		1

loop_
	_symmetry_equiv_pos_as_xyz
	x,y,z

loop_
	_atom_site_label
	_atom_site_type_symbol
	_atom_site_fract_x
	_atom_site_fract_y
	_atom_site_fract_z
	H0	H	0.402756	0.838880	0.706846
	H1	H	0.606433	0.165123	0.706693
	H2	H	0.604246	0.838040	0.274331
	H3	H	0.402482	0.165466	0.273266
	H4	H	0.719228	0.404047	0.827251
	H5	H	0.716848	0.599798	0.153624
	H6	H	0.290217	0.601210	0.825991
	H7	H	0.288645	0.404364	0.152771
	H8	H	0.838705	0.715855	0.392403
	H9	H	0.169670	0.715212	0.587086
	H10	H	0.838642	0.290141	0.588231
	H11	H	0.168995	0.289596	0.393005
	H12	H	0.839826	0.403118	0.705188
	H13	H	0.169194	0.601691	0.703238
	H14	H	0.839067	0.603908	0.274345
	H15	H	0.167943	0.402390	0.274682
	H16	H	0.404840	0.719351	0.826998
	H17	H	0.603116	0.717602	0.152613
	H18	H	0.604666	0.286057	0.827926
	H19	H	0.403251	0.285578	0.152360
	H20	H	0.717856	0.837126	0.392481
	H21	H	0.715643	0.167196	0.585577
	H22	H	0.291821	0.837344	0.586599
	H23	H	0.291328	0.167208	0.392890
	H24	H	0.903710	0.338871	0.205919
	H25	H	0.105715	0.665547	0.206212
	H26	H	0.105636	0.339528	0.772953
	H27	H	0.901673	0.666451	0.772695
	H28	H	0.218802	0.904180	0.327398
	H29	H	0.219239	0.100909	0.652681
	H30	H	0.790100	0.099861	0.326772
	H31	H	0.789721	0.904956	0.653938
	H32	H	0.339037	0.215048	0.892991
	H33	H	0.668829	0.215420	0.088576
	H34	H	0.338649	0.789216	0.087717
	H35	H	0.669486	0.789872	0.893019
	H36	H	0.339703	0.901320	0.205253
	H37	H	0.667699	0.102540	0.205498
	H38	H	0.340946	0.103340	0.774429
	H39	H	0.669346	0.902253	0.775247
	H40	H	0.905041	0.218309	0.327348
	H41	H	0.103478	0.218628	0.652399
	H42	H	0.102944	0.788278	0.326908
	H43	H	0.905315	0.788130	0.652850
	H44	H	0.217469	0.338036	0.891504
	H45	H	0.215077	0.667344	0.084619
	H46	H	0.791179	0.338126	0.086932
	H47	H	0.791155	0.668354	0.893498
	H48	H	0.416933	0.115296	0.575565
	H49	H	0.593722	0.884598	0.585559
	H50	H	0.595523	0.117721	0.400642
	H51	H	0.413634	0.883623	0.391896
	H52	H	0.592609	0.409133	0.104370
	H53	H	0.593145	0.588862	0.876647
	H54	H	0.403386	0.583079	0.102836
	H55	H	0.400742	0.412696	0.872149
	H56	H	0.120208	0.596978	0.401258
	H57	H	0.889723	0.583625	0.582934
	H58	H	0.120500	0.406768	0.575551
	H59	H	0.884546	0.410000	0.392717
	H60	H	0.119578	0.418073	0.583731
	H61	H	0.881760	0.600278	0.592860
	H62	H	0.120134	0.589391	0.395026
	H63	H	0.886063	0.407866	0.399677
	H64	H	0.423929	0.598278	0.101618
	H65	H	0.591994	0.603875	0.873676
	H66	H	0.598000	0.405800	0.107855
	H67	H	0.418925	0.414351	0.878823
	H68	H	0.600016	0.120466	0.393887
	H69	H	0.597116	0.885137	0.581644
	H70	H	0.403701	0.121842	0.583004
	H71	H	0.415437	0.887000	0.399332
	H72	H	0.909615	0.620243	0.083001
	H73	H	0.098467	0.382987	0.085068
	H74	H	0.098668	0.622633	0.889350
	H75	H	0.915650	0.385577	0.893221
	H76	H	0.107361	0.916976	0.606199
	H77	H	0.091139	0.096290	0.375327
	H78	H	0.908329	0.101632	0.608582
	H79	H	0.902357	0.903915	0.370349
	H80	H	0.622084	0.097943	0.902253
	H81	H	0.386561	0.093763	0.083521
	H82	H	0.622158	0.911353	0.084991
	H83	H	0.382269	0.902868	0.890341
	H84	H	0.622516	0.907092	0.082951
	H85	H	0.385562	0.094904	0.083675
	H86	H	0.620552	0.087743	0.896418
	H87	H	0.388785	0.908688	0.906695
	H88	H	0.906159	0.091878	0.605396
	H89	H	0.099722	0.101265	0.372750
	H90	H	0.085546	0.912682	0.601514
	H91	H	0.909060	0.919296	0.376276
	H92	H	0.088569	0.617961	0.895979
	H93	H	0.092203	0.385758	0.085338
	H94	H	0.911286	0.620751	0.086476
	H95	H	0.913947	0.387778	0.899890
	H96	H	0.417201	0.120466	0.591868
	H97	H	0.598423	0.884119	0.585651
	H98	H	0.591820	0.118494	0.392793
	H99	H	0.408149	0.884353	0.397923
	H100	H	0.599221	0.411535	0.105581
	H101	H	0.605839	0.596505	0.871793
	H102	H	0.401274	0.607784	0.110756
	H103	H	0.412381	0.397588	0.871233
	H104	H	0.123788	0.598476	0.392820
	H105	H	0.887181	0.601142	0.573791
	H106	H	0.124658	0.406067	0.588611
	H107	H	0.887134	0.415114	0.397989
	H108	H	0.913112	0.620129	0.083400
	H109	H	0.095425	0.386712	0.080398
	H110	H	0.100047	0.619787	0.900990
	H111	H	0.909096	0.384897	0.895997
	H112	H	0.099013	0.897051	0.610237
	H113	H	0.100459	0.091405	0.374347
	H114	H	0.915210	0.095695	0.604127
	H115	H	0.919832	0.904587	0.375885
	H116	H	0.624551	0.097376	0.891698
	H117	H	0.386129	0.094645	0.082111
	H118	H	0.620832	0.910290	0.081388
	H119	H	0.388108	0.920689	0.893461
	C120	C	0.383065	0.010614	0.611948
	C121	C	0.625124	0.993387	0.611650
	C122	C	0.625097	0.010289	0.367617
	C123	C	0.382573	0.993559	0.368131
	C124	C	0.626104	0.380016	-0.001537
	C125	C	0.625749	0.624597	0.981969
	C126	C	0.381190	0.625105	-0.002330
	C127	C	0.381712	0.379695	0.981303
	C128	C	0.012246	0.623795	0.368070
	C129	C	0.995485	0.623694	0.610999
	C130	C	0.012557	0.381742	0.611152
	C131	C	0.994994	0.381866	0.368651
	C132	C	0.882672	0.511471	0.112389
	C133	C	0.124558	0.493744	0.111234
	C134	C	0.125131	0.511298	0.867537
	C135	C	0.882753	0.494727	0.868007
	C136	C	0.126025	0.880503	0.497920
	C137	C	0.125897	0.124897	0.481505
	C138	C	0.881692	0.124800	0.498536
	C139	C	0.881338	0.880520	0.481929
	C140	C	0.513406	0.123280	0.868568
	C141	C	0.495045	0.123211	0.111469
	C142	C	0.512562	0.880962	0.111254
	C143	C	0.495626	0.881888	0.868670
	C144	C	0.383695	0.887718	0.668100
	C145	C	0.624565	0.116683	0.667249
	C146	C	0.624068	0.886876	0.312442
	C147	C	0.383277	0.116751	0.311997
	C148	C	0.681445	0.383209	0.875927
	C149	C	0.679852	0.620970	0.104607
	C150	C	0.327381	0.622034	0.874886
	C151	C	0.326353	0.383155	0.104061
	C152	C	0.887984	0.678804	0.371365
	C153	C	0.120124	0.678082	0.607752
	C154	C	0.888037	0.327273	0.608550
	C155	C	0.119672	0.327073	0.371848
	C156	C	0.888762	0.383266	0.666962
	C157	C	0.119871	0.621878	0.665715
	C158	C	0.888231	0.623045	0.312562
	C159	C	0.119034	0.383007	0.313136
	C160	C	0.384447	0.680714	0.875274
	C161	C	0.622881	0.679461	0.104155
	C162	C	0.624473	0.324459	0.876310
	C163	C	0.383623	0.324433	0.103958
	C164	C	0.680026	0.886377	0.371577
	C165	C	0.679293	0.117764	0.607415
	C166	C	0.328546	0.886849	0.608358
	C167	C	0.327971	0.117597	0.371542
	C168	C	0.883968	0.388014	0.167634
	C169	C	0.124396	0.616958	0.167148
	C170	C	0.124627	0.387894	0.811865
	C171	C	0.882844	0.617913	0.811717
	C172	C	0.180949	0.883591	0.375849
	C173	C	0.181331	0.122053	0.604048
	C174	C	0.827224	0.121480	0.375650
	C175	C	0.827041	0.884104	0.604977
	C176	C	0.388654	0.178093	0.871835
	C177	C	0.619375	0.178068	0.109155
	C178	C	0.388244	0.826158	0.108666
	C179	C	0.620288	0.827023	0.871653
	C180	C	0.388588	0.882216	0.166580
	C181	C	0.618852	0.121806	0.167249
	C182	C	0.389525	0.122246	0.813274
	C183	C	0.619887	0.882773	0.813152
	C184	C	0.884454	0.179917	0.375764
	C185	C	0.124058	0.180419	0.603950
	C186	C	0.123144	0.826000	0.375702
	C187	C	0.884338	0.825640	0.604308
	C188	C	0.179821	0.387266	0.871090
	C189	C	0.178718	0.617934	0.106752
	C190	C	0.828520	0.387302	0.108218
	C191	C	0.827659	0.618661	0.871543
	C192	C	0.405892	0.097009	0.590059
	C193	C	0.602967	0.906955	0.590396
	C194	C	0.602363	0.096518	0.389335
	C195	C	0.405448	0.907216	0.390127
	C196	C	0.603287	0.402255	0.083925
	C197	C	0.603531	0.602764	0.896181
	C198	C	0.403140	0.602969	0.083077
	C199	C	0.404009	0.401533	0.896074
	C200	C	0.098939	0.601410	0.389867
	C201	C	0.908768	0.601677	0.589509
	C202	C	0.099297	0.403810	0.589263
	C203	C	0.908387	0.404300	0.390423
	C204	C	0.904886	0.597949	0.090786
	C205	C	0.101932	0.407547	0.089838
	C206	C	0.102427	0.597553	0.889054
	C207	C	0.906052	0.408411	0.889889
	C208	C	0.103750	0.902501	0.583900
	C209	C	0.103761	0.102732	0.396391
	C210	C	0.903543	0.103085	0.584040
	C211	C	0.903703	0.902610	0.396279
	C212	C	0.599955	0.101096	0.890406
	C213	C	0.408398	0.101047	0.089645
	C214	C	0.599319	0.903129	0.089584
	C215	C	0.408915	0.904096	0.890463
	Zn216	Zn	0.504504	0.002360	0.740547
	Zn217	Zn	0.503610	0.001516	0.239027
	Zn218	Zn	0.755015	0.502907	-0.009900
	Zn219	Zn	0.252559	0.502262	-0.010981
	Zn220	Zn	0.004120	0.751343	0.490030
	Zn221	Zn	0.003656	0.253921	0.490092
	Zn222	Zn	0.004244	0.503219	0.739044
	Zn223	Zn	0.003749	0.502541	0.240316
	Zn224	Zn	0.504053	0.754134	-0.010625
	Zn225	Zn	0.504340	0.250748	-0.009910
	Zn226	Zn	0.753052	0.002235	0.490163
	Zn227	Zn	0.255066	0.002494	0.489790
	N228	N	0.417106	0.965711	0.670185
	N229	N	0.591828	0.038413	0.670239
	N230	N	0.590517	0.964885	0.309960
	N231	N	0.416486	0.038679	0.309784
	N232	N	0.682788	0.416917	0.952992
	N233	N	0.681457	0.587429	0.027616
	N234	N	0.325473	0.587817	0.951813
	N235	N	0.325153	0.417157	0.026984
	N236	N	0.966042	0.679433	0.405231
	N237	N	0.041869	0.679428	0.574615
	N238	N	0.966014	0.326262	0.574601
	N239	N	0.041671	0.326336	0.405665
	N240	N	0.967163	0.416497	0.668666
	N241	N	0.041345	0.588634	0.667898
	N242	N	0.966526	0.589536	0.310510
	N243	N	0.040494	0.416268	0.310972
	N244	N	0.417059	0.682943	0.952705
	N245	N	0.589927	0.681976	0.026738
	N246	N	0.590694	0.322495	0.953363
	N247	N	0.417308	0.322167	0.026900
	N248	N	0.680871	0.964122	0.405153
	N249	N	0.679633	0.040266	0.573317
	N250	N	0.327709	0.964524	0.574341
	N251	N	0.327504	0.039842	0.405539
	N252	N	0.916869	0.466171	0.170031
	N253	N	0.091245	0.538828	0.170008
	N254	N	0.090863	0.465862	0.809701
	N255	N	0.916462	0.539755	0.809301
	N256	N	0.182810	0.916621	0.453080
	N257	N	0.182799	0.088261	0.527058
	N258	N	0.825362	0.087965	0.452858
	N259	N	0.825030	0.917194	0.527659
	N260	N	0.466715	0.178848	0.905593
	N261	N	0.541716	0.178723	0.074999
	N262	N	0.466294	0.825455	0.074678
	N263	N	0.542189	0.826164	0.905425
	N264	N	0.466865	0.915497	0.168398
	N265	N	0.540433	0.088228	0.168762
	N266	N	0.467925	0.089103	0.810985
	N267	N	0.541339	0.916195	0.811227
	N268	N	0.917357	0.182310	0.453116
	N269	N	0.090142	0.182225	0.527032
	N270	N	0.089633	0.824011	0.452932
	N271	N	0.917383	0.823355	0.526761
	N272	N	0.180210	0.464977	0.904848
	N273	N	0.179130	0.540368	0.072807
	N274	N	0.827369	0.465258	0.074737
	N275	N	0.827377	0.541034	0.905627
	O276	O	0.988486	0.970242	-0.021492
	H277	H	0.988121	0.967485	-0.023411
	H278	H	0.991029	0.974213	-0.010426
	O279	O	0.474732	-0.512366	1.520082
	H280	H	0.470298	-0.521693	1.521752
	H281	H	0.480679	-0.511774	1.515821
	O282	O	0.044412	0.028761	0.008323
	H283	H	0.048954	0.038766	0.013667
	H284	H	0.042658	0.021792	0.003187
	O285	O	0.493909	0.495854	0.529725
	H286	H	0.513557	0.503400	0.527627
	H287	H	0.490401	0.491660	0.530172
	O288	O	0.053137	-0.025206	-0.017364
	H289	H	0.048486	-0.029267	-0.026236
	H290	H	0.054512	-0.016544	-0.025456
	O291	O	-0.477469	0.422397	0.482872
	H292	H	-0.470213	0.412152	0.493462
	H293	H	-0.493023	0.424849	0.488165
	O294	O	0.023405	0.988987	0.013167
	H295	H	0.021547	0.988372	0.006403
	H296	H	0.027643	0.994120	0.022405
	O297	O	0.483339	0.499057	0.451653
	H298	H	0.482576	0.495553	0.450613
	H299	H	0.495742	0.495624	0.449679
	O300	O	0.487789	0.511618	0.463541
	H301	H	0.486850	0.504071	0.455552
	H302	H	0.485158	0.508136	0.455920
	O303	O	1.006175	0.005082	0.973515
	H304	H	1.006934	0.016677	0.966094
	H305	H	1.008139	0.005373	0.980974
	O306	O	-0.023953	1.045613	1.013925
	H307	H	-0.032093	1.045831	1.015234
	H308	H	-0.031780	1.051158	1.019947
	O309	O	0.006942	1.032479	0.993606
	H310	H	0.016426	1.028263	0.993837
	H311	H	0.010624	1.031210	0.987976
	O312	O	0.304834	-0.296193	1.195087
	H313	H	0.309954	-0.292832	1.196528
	H314	H	0.305889	-0.301894	1.187705
	O315	O	0.490701	0.538086	0.500529
	H316	H	0.489176	0.536166	0.498655
	H317	H	0.485009	0.543388	0.498727
	O318	O	-0.006313	-0.017963	0.983816
	H319	H	-0.003366	-0.018852	0.985095
	H320	H	-0.005152	-0.025078	0.993564
	O321	O	-0.001354	1.054366	-0.013701
	H322	H	-0.002085	1.044819	-0.007323
	H323	H	0.002240	1.049532	-0.019756
	O324	O	1.030982	-0.020206	0.971291
	H325	H	1.030594	-0.019049	0.968400
	H326	H	1.034667	-0.015425	0.973850
	O327	O	0.962258	1.036893	1.054411
	H328	H	0.960681	1.040356	1.052103
	H329	H	0.965451	1.032298	1.054889
	O330	O	0.481134	0.500230	0.482026
	H331	H	0.482688	0.499824	0.484918
	H332	H	0.483894	0.501403	0.487432
	O333	O	0.577887	0.444595	0.468931
	H334	H	0.575316	0.444840	0.468578
	H335	H	0.569709	0.448381	0.467035
	O336	O	0.526356	0.498042	0.504166
	H337	H	0.538048	0.502892	0.506544
	H338	H	0.523910	0.500114	0.489390
	O339	O	0.497841	0.580560	0.557794
	H340	H	0.500927	0.574086	0.545694
	H341	H	0.505669	0.584163	0.561658
	O342	O	0.498520	0.458578	0.507934
	H343	H	0.496280	0.463464	0.519049
	H344	H	0.499157	0.445924	0.511449
	O345	O	0.503735	0.545698	0.510041
	H346	H	0.503108	0.552388	0.511228
	H347	H	0.505899	0.545878	0.506131
