data_Molecule from HDF5

_cell_length_a		16.281916
_cell_length_b		16.314253
_cell_length_c		16.238609
_cell_angle_alpha	90.000881
_cell_angle_beta	89.872438
_cell_angle_gamma	89.901489
_symmetry_space_group_name_H-M	'P 1'
_symmetry_Int_Tables_number		1

loop_
	_symmetry_equiv_pos_as_xyz
	x,y,z

loop_
	_atom_site_label
	_atom_site_type_symbol
	_atom_site_fract_x
	_atom_site_fract_y
	_atom_site_fract_z
	H0	H	0.411885	0.836273	0.712436
	H1	H	0.608667	0.163492	0.710865
	H2	H	0.609203	0.835723	0.281739
	H3	H	0.411935	0.163530	0.282811
	H4	H	0.724929	0.403253	0.833436
	H5	H	0.725627	0.600079	0.161254
	H6	H	0.297191	0.598392	0.833266
	H7	H	0.297923	0.403546	0.162067
	H8	H	0.848147	0.714611	0.398301
	H9	H	0.173395	0.714148	0.597025
	H10	H	0.847589	0.283965	0.597319
	H11	H	0.174453	0.283520	0.398098
	H12	H	0.847536	0.400945	0.712839
	H13	H	0.174177	0.597386	0.710672
	H14	H	0.847591	0.597462	0.283578
	H15	H	0.174537	0.399530	0.282022
	H16	H	0.412862	0.714569	0.833083
	H17	H	0.608930	0.715601	0.160955
	H18	H	0.610962	0.285870	0.834069
	H19	H	0.412293	0.286883	0.161494
	H20	H	0.726735	0.835499	0.397203
	H21	H	0.725337	0.162481	0.594913
	H22	H	0.297242	0.835899	0.595329
	H23	H	0.294666	0.162253	0.398361
	H24	H	0.912902	0.335776	0.212111
	H25	H	0.108803	0.662352	0.213087
	H26	H	0.109199	0.335729	0.783177
	H27	H	0.912248	0.662475	0.782474
	H28	H	0.227003	0.900684	0.333945
	H29	H	0.224327	0.097011	0.661813
	H30	H	0.797740	0.096385	0.332751
	H31	H	0.796100	0.900608	0.660775
	H32	H	0.347399	0.215271	0.899624
	H33	H	0.674398	0.214907	0.095231
	H34	H	0.346703	0.786091	0.095732
	H35	H	0.674701	0.785201	0.898534
	H36	H	0.346102	0.903917	0.210598
	H37	H	0.674785	0.096908	0.210396
	H38	H	0.346410	0.096833	0.785393
	H39	H	0.674827	0.902315	0.783536
	H40	H	0.913287	0.213401	0.333243
	H41	H	0.108974	0.213326	0.661411
	H42	H	0.110156	0.784294	0.332855
	H43	H	0.911810	0.784995	0.661042
	H44	H	0.226746	0.336906	0.899113
	H45	H	0.223563	0.663778	0.095562
	H46	H	0.795142	0.337118	0.097131
	H47	H	0.795930	0.662787	0.898230
	H48	H	0.429306	0.109625	0.581633
	H49	H	0.602653	0.883736	0.588328
	H50	H	0.609283	0.120105	0.391968
	H51	H	0.417912	0.882359	0.400321
	H52	H	0.602198	0.411301	0.112972
	H53	H	0.597989	0.600998	0.879205
	H54	H	0.418650	0.594133	0.114223
	H55	H	0.412748	0.409812	0.879447
	H56	H	0.130369	0.600876	0.407639
	H57	H	0.895654	0.591357	0.586382
	H58	H	0.125644	0.410227	0.591038
	H59	H	0.893578	0.406069	0.402255
	H60	H	0.129494	0.402109	0.592819
	H61	H	0.893792	0.589163	0.591384
	H62	H	0.123626	0.585360	0.411184
	H63	H	0.895669	0.403083	0.407891
	H64	H	0.416893	0.595866	0.114885
	H65	H	0.612915	0.593923	0.877057
	H66	H	0.600542	0.406067	0.114448
	H67	H	0.422611	0.411162	0.882801
	H68	H	0.590548	0.109792	0.404746
	H69	H	0.605390	0.882455	0.591132
	H70	H	0.402587	0.118733	0.584497
	H71	H	0.421819	0.884997	0.405711
	H72	H	0.925345	0.614815	0.095669
	H73	H	0.098825	0.384223	0.091896
	H74	H	0.107402	0.615809	0.906942
	H75	H	0.923694	0.386465	0.910414
	H76	H	0.103206	0.899679	0.615751
	H77	H	0.105590	0.098866	0.378078
	H78	H	0.923100	0.101084	0.615408
	H79	H	0.918085	0.903278	0.379330
	H80	H	0.626441	0.088324	0.901727
	H81	H	0.394005	0.090645	0.095469
	H82	H	0.627540	0.898383	0.084496
	H83	H	0.395647	0.909639	0.904964
	H84	H	0.623505	0.914353	0.085988
	H85	H	0.391956	0.101016	0.091566
	H86	H	0.629825	0.098976	0.900649
	H87	H	0.393369	0.905638	0.902602
	H88	H	0.907679	0.091826	0.616864
	H89	H	0.109541	0.086814	0.380620
	H90	H	0.109274	0.909321	0.614718
	H91	H	0.917272	0.908887	0.380692
	H92	H	0.105905	0.618757	0.898988
	H93	H	0.106603	0.384635	0.083498
	H94	H	0.917962	0.613719	0.082405
	H95	H	0.909867	0.381699	0.907749
	H96	H	0.419807	0.119201	0.606683
	H97	H	0.601547	0.883484	0.592067
	H98	H	0.612200	0.113558	0.415880
	H99	H	0.414629	0.883468	0.406889
	H100	H	0.606390	0.407170	0.115183
	H101	H	0.600255	0.585089	0.884581
	H102	H	0.415611	0.592766	0.114156
	H103	H	0.419731	0.401658	0.879188
	H104	H	0.129706	0.589064	0.395338
	H105	H	0.893178	0.595124	0.590551
	H106	H	0.126019	0.404164	0.584381
	H107	H	0.895553	0.409961	0.406623
	H108	H	0.910317	0.619087	0.095003
	H109	H	0.109156	0.380775	0.093955
	H110	H	0.099498	0.614835	0.903560
	H111	H	0.920063	0.381887	0.896554
	H112	H	0.097892	0.908845	0.611397
	H113	H	0.097753	0.089907	0.383307
	H114	H	0.922231	0.083642	0.610205
	H115	H	0.922709	0.906637	0.381456
	H116	H	0.625713	0.094754	0.910070
	H117	H	0.395468	0.093160	0.085100
	H118	H	0.630407	0.906698	0.098799
	H119	H	0.394299	0.905340	0.907473
	C120	C	0.388724	0.007944	0.619424
	C121	C	0.632065	0.991173	0.618875
	C122	C	0.633083	0.006990	0.374937
	C123	C	0.389404	0.991450	0.376080
	C124	C	0.632519	0.379352	0.006021
	C125	C	0.632206	0.621949	0.989059
	C126	C	0.388824	0.622345	0.005796
	C127	C	0.389611	0.379314	0.988935
	C128	C	0.019555	0.620317	0.376230
	C129	C	1.001991	0.620296	0.618330
	C130	C	0.019357	0.377085	0.618751
	C131	C	1.002597	0.377218	0.376092
	C132	C	0.889134	0.508046	0.119520
	C133	C	0.132412	0.491335	0.118760
	C134	C	0.133034	0.508191	0.874918
	C135	C	0.889480	0.491280	0.876054
	C136	C	0.132877	0.877194	0.505833
	C137	C	0.132568	0.120505	0.489099
	C138	C	0.889280	0.120907	0.505545
	C139	C	0.890033	0.877811	0.488550
	C140	C	0.519237	0.122020	0.875787
	C141	C	0.502357	0.122435	0.118727
	C142	C	0.518617	0.878694	0.118163
	C143	C	0.502604	0.878357	0.875945
	C144	C	0.391501	0.885024	0.674511
	C145	C	0.629320	0.114397	0.673487
	C146	C	0.630375	0.884292	0.319506
	C147	C	0.391573	0.114551	0.320889
	C148	C	0.687411	0.382263	0.882440
	C149	C	0.687604	0.620235	0.112192
	C150	C	0.334752	0.619151	0.882235
	C151	C	0.334889	0.382264	0.112745
	C152	C	0.896796	0.676248	0.378212
	C153	C	0.124746	0.676014	0.617010
	C154	C	0.896260	0.322244	0.617256
	C155	C	0.125543	0.321350	0.377534
	C156	C	0.896191	0.380524	0.674447
	C157	C	0.125100	0.617623	0.673249
	C158	C	0.896549	0.617994	0.321094
	C159	C	0.125684	0.379295	0.320204
	C160	C	0.392034	0.676845	0.882144
	C161	C	0.629564	0.677607	0.112095
	C162	C	0.630483	0.324002	0.882926
	C163	C	0.391746	0.324267	0.112437
	C164	C	0.688452	0.884179	0.376974
	C165	C	0.687343	0.113845	0.615752
	C166	C	0.334344	0.884970	0.616595
	C167	C	0.333108	0.113974	0.377912
	C168	C	0.892028	0.384807	0.174323
	C169	C	0.129378	0.613977	0.174617
	C170	C	0.130043	0.384761	0.820535
	C171	C	0.891749	0.613954	0.820659
	C172	C	0.188609	0.879854	0.382466
	C173	C	0.186775	0.117611	0.612773
	C174	C	0.834667	0.118045	0.381986
	C175	C	0.834211	0.880279	0.612060
	C176	C	0.396063	0.177252	0.878844
	C177	C	0.625743	0.176882	0.115795
	C178	C	0.395519	0.823851	0.116213
	C179	C	0.625872	0.823143	0.878298
	C180	C	0.395161	0.882356	0.172977
	C181	C	0.625879	0.118229	0.172813
	C182	C	0.395675	0.118296	0.822215
	C183	C	0.625997	0.881152	0.821075
	C184	C	0.891774	0.176200	0.382309
	C185	C	0.129766	0.175603	0.612478
	C186	C	0.130592	0.822265	0.381983
	C187	C	0.891592	0.822807	0.612250
	C188	C	0.188417	0.385287	0.878034
	C189	C	0.186361	0.614628	0.116170
	C190	C	0.833997	0.385320	0.117025
	C191	C	0.834192	0.614214	0.878160
	C192	C	0.410723	0.093774	0.597388
	C193	C	0.609690	0.905305	0.596992
	C194	C	0.610681	0.092312	0.397545
	C195	C	0.411716	0.905755	0.397907
	C196	C	0.609877	0.401783	0.091984
	C197	C	0.610117	0.599803	0.902653
	C198	C	0.410361	0.600703	0.092119
	C199	C	0.411792	0.401125	0.902914
	C200	C	0.105689	0.598327	0.398298
	C201	C	0.916270	0.598495	0.596025
	C202	C	0.104863	0.398978	0.595945
	C203	C	0.917142	0.399750	0.398875
	C204	C	0.911131	0.593719	0.097483
	C205	C	0.111125	0.405290	0.096206
	C206	C	0.110962	0.594258	0.896791
	C207	C	0.911154	0.405518	0.898344
	C208	C	0.110205	0.899315	0.591646
	C209	C	0.110752	0.098368	0.402820
	C210	C	0.911314	0.098867	0.591868
	C211	C	0.912565	0.899939	0.402533
	C212	C	0.605070	0.100398	0.897514
	C213	C	0.416136	0.101181	0.097053
	C214	C	0.604781	0.900110	0.096151
	C215	C	0.416737	0.900350	0.898369
	Zn216	Zn	0.510288	-0.000259	0.747553
	Zn217	Zn	0.510413	-0.000440	0.246792
	Zn218	Zn	0.760628	0.500229	-0.002383
	Zn219	Zn	0.261680	0.500433	-0.002605
	Zn220	Zn	0.011025	0.749711	0.497561
	Zn221	Zn	0.010945	0.248581	0.497355
	Zn222	Zn	0.010766	0.499282	0.746912
	Zn223	Zn	0.011396	0.498987	0.247808
	Zn224	Zn	0.510586	0.749933	-0.002737
	Zn225	Zn	0.510684	0.251142	-0.002702
	Zn226	Zn	0.761252	-0.001132	0.496571
	Zn227	Zn	0.260890	-0.000729	0.497548
	N228	N	0.424588	0.962574	0.676405
	N229	N	0.595465	0.037098	0.675376
	N230	N	0.596728	0.961650	0.318160
	N231	N	0.425866	0.037447	0.319747
	N232	N	0.688551	0.415948	0.960034
	N233	N	0.689379	0.586423	0.034549
	N234	N	0.332686	0.586038	0.960058
	N235	N	0.333433	0.415813	0.035026
	N236	N	0.974325	0.677765	0.411690
	N237	N	0.047329	0.677695	0.583177
	N238	N	0.973627	0.320136	0.583259
	N239	N	0.048170	0.320082	0.411682
	N240	N	0.973636	0.413848	0.675592
	N241	N	0.047836	0.583761	0.674355
	N242	N	0.973895	0.583750	0.320091
	N243	N	0.048169	0.413084	0.318942
	N244	N	0.425088	0.678702	0.960043
	N245	N	0.595926	0.678554	0.034452
	N246	N	0.597204	0.321918	0.960842
	N247	N	0.425159	0.322351	0.034538
	N248	N	0.690151	0.961443	0.410853
	N249	N	0.689127	0.036262	0.582548
	N250	N	0.332768	0.962328	0.582845
	N251	N	0.331794	0.036568	0.411600
	N252	N	0.925588	0.462159	0.176113
	N253	N	0.096694	0.536211	0.176390
	N254	N	0.096295	0.462264	0.818771
	N255	N	0.925308	0.536682	0.819184
	N256	N	0.190175	0.913236	0.460210
	N257	N	0.188697	0.084128	0.534987
	N258	N	0.832893	0.084488	0.459675
	N259	N	0.833180	0.913958	0.534266
	N260	N	0.473800	0.179608	0.911505
	N261	N	0.547960	0.179613	0.082915
	N262	N	0.473297	0.821559	0.082815
	N263	N	0.548082	0.821213	0.911536
	N264	N	0.472719	0.915546	0.174272
	N265	N	0.548147	0.085446	0.175018
	N266	N	0.473191	0.084661	0.820236
	N267	N	0.548573	0.915081	0.819627
	N268	N	0.924956	0.177861	0.460259
	N269	N	0.096683	0.177295	0.534497
	N270	N	0.096445	0.820732	0.459598
	N271	N	0.925497	0.821173	0.534600
	N272	N	0.190388	0.462880	0.911052
	N273	N	0.188318	0.537264	0.082211
	N274	N	0.831983	0.462912	0.083792
	N275	N	0.832662	0.536921	0.911929
	O276	O	-0.498915	0.485078	1.418654
	H277	H	-0.491590	0.486003	1.422717
	H278	H	-0.488947	0.489821	1.419204
	O279	O	0.476507	0.505730	0.468564
	H280	H	0.477378	0.493671	0.468242
	H281	H	0.477422	0.505719	0.464870
	O282	O	0.510529	0.482238	0.490433
	H283	H	0.516206	0.474820	0.487247
	H284	H	0.513959	0.476505	0.492340
	O285	O	0.545426	0.463588	0.462835
	H286	H	0.544869	0.470103	0.465849
	H287	H	0.544096	0.452927	0.466583
	O288	O	0.477275	0.509277	0.483847
	H289	H	0.472129	0.506701	0.496272
	H290	H	0.469578	0.512458	0.480635
	O291	O	-0.535998	1.470601	0.495651
	H292	H	-0.538272	1.474137	0.489330
	H293	H	-0.540190	1.472229	0.487539
	O294	O	0.516657	0.447889	0.399028
	H295	H	0.520045	0.452854	0.389720
	H296	H	0.513444	0.447465	0.391883
	O297	O	0.522867	-0.502039	0.485750
	H298	H	0.521028	-0.499692	0.488541
	H299	H	0.527222	-0.500739	0.488271
