data_Molecule from HDF5

_cell_length_a		16.219339
_cell_length_b		16.319212
_cell_length_c		16.290994
_cell_angle_alpha	90.251158
_cell_angle_beta	90.302831
_cell_angle_gamma	89.920029
_symmetry_space_group_name_H-M	'P 1'
_symmetry_Int_Tables_number		1

loop_
	_symmetry_equiv_pos_as_xyz
	x,y,z

loop_
	_atom_site_label
	_atom_site_type_symbol
	_atom_site_fract_x
	_atom_site_fract_y
	_atom_site_fract_z
	H0	H	0.402562	0.842548	0.717769
	H1	H	0.601747	0.169102	0.721859
	H2	H	0.600273	0.843347	0.288908
	H3	H	0.401496	0.169452	0.289617
	H4	H	0.715534	0.406043	0.841579
	H5	H	0.715566	0.604366	0.169139
	H6	H	0.287408	0.602229	0.841307
	H7	H	0.288625	0.408512	0.169441
	H8	H	0.837053	0.720135	0.404799
	H9	H	0.165045	0.721907	0.605723
	H10	H	0.836890	0.293093	0.601529
	H11	H	0.165298	0.290760	0.405500
	H12	H	0.837011	0.408677	0.717503
	H13	H	0.165288	0.605715	0.720377
	H14	H	0.837049	0.603614	0.290139
	H15	H	0.165970	0.407628	0.291553
	H16	H	0.402179	0.719485	0.841570
	H17	H	0.601993	0.722219	0.167911
	H18	H	0.600382	0.289430	0.841704
	H19	H	0.403268	0.291593	0.168234
	H20	H	0.715006	0.842429	0.406610
	H21	H	0.715164	0.170559	0.603473
	H22	H	0.287064	0.843056	0.600848
	H23	H	0.286378	0.169727	0.406631
	H24	H	0.904407	0.342506	0.217308
	H25	H	0.101994	0.668706	0.222753
	H26	H	0.099763	0.343499	0.789407
	H27	H	0.900146	0.669700	0.789161
	H28	H	0.214202	0.907777	0.339691
	H29	H	0.216054	0.105118	0.667799
	H30	H	0.787380	0.102512	0.340231
	H31	H	0.787933	0.909862	0.668517
	H32	H	0.337232	0.219732	0.905234
	H33	H	0.665320	0.219699	0.105198
	H34	H	0.337400	0.791816	0.102708
	H35	H	0.665438	0.789250	0.905535
	H36	H	0.336743	0.909438	0.216614
	H37	H	0.664615	0.104686	0.221010
	H38	H	0.337454	0.103202	0.790024
	H39	H	0.666230	0.907359	0.791018
	H40	H	0.901814	0.219541	0.340484
	H41	H	0.101063	0.222738	0.666951
	H42	H	0.098527	0.790888	0.340692
	H43	H	0.901727	0.791323	0.667672
	H44	H	0.214518	0.342557	0.907431
	H45	H	0.214794	0.670050	0.103247
	H46	H	0.789262	0.342238	0.100619
	H47	H	0.785184	0.669338	0.906447
	H48	H	0.412845	0.119149	0.592038
	H49	H	0.589278	0.893690	0.591170
	H50	H	0.598259	0.124403	0.410349
	H51	H	0.399399	0.885525	0.404452
	H52	H	0.597509	0.416804	0.120794
	H53	H	0.602790	0.588505	0.888662
	H54	H	0.408860	0.603726	0.123505
	H55	H	0.399460	0.406091	0.884884
	H56	H	0.116415	0.595956	0.416413
	H57	H	0.884662	0.600436	0.595377
	H58	H	0.116839	0.420584	0.599664
	H59	H	0.884769	0.415364	0.410063
	H60	H	0.120520	0.408490	0.600487
	H61	H	0.885792	0.597346	0.595165
	H62	H	0.119234	0.597549	0.408778
	H63	H	0.882922	0.411484	0.408234
	H64	H	0.406266	0.598950	0.122395
	H65	H	0.580564	0.595062	0.893433
	H66	H	0.590207	0.412616	0.120127
	H67	H	0.406218	0.423403	0.891402
	H68	H	0.589860	0.122185	0.409022
	H69	H	0.603186	0.888070	0.596174
	H70	H	0.401010	0.124635	0.598287
	H71	H	0.415797	0.891502	0.405231
	H72	H	0.904528	0.623802	0.099705
	H73	H	0.090117	0.386703	0.114165
	H74	H	0.093113	0.622387	0.913720
	H75	H	0.916787	0.395390	0.918207
	H76	H	0.097850	0.908443	0.622784
	H77	H	0.090541	0.095923	0.389201
	H78	H	0.907541	0.106240	0.622697
	H79	H	0.895622	0.916763	0.386248
	H80	H	0.617320	0.092358	0.911489
	H81	H	0.383873	0.099717	0.096893
	H82	H	0.615241	0.908083	0.082959
	H83	H	0.385764	0.916887	0.907570
	H84	H	0.615003	0.928266	0.100661
	H85	H	0.383648	0.099182	0.096762
	H86	H	0.621057	0.102658	0.908754
	H87	H	0.383090	0.907800	0.908627
	H88	H	0.905565	0.097787	0.621225
	H89	H	0.091033	0.103207	0.386660
	H90	H	0.097228	0.920391	0.619495
	H91	H	0.916449	0.920383	0.393361
	H92	H	0.096177	0.623420	0.912263
	H93	H	0.084385	0.396296	0.086930
	H94	H	0.911791	0.622517	0.101879
	H95	H	0.896261	0.387750	0.913160
	H96	H	0.413034	0.123229	0.605876
	H97	H	0.591253	0.889147	0.605826
	H98	H	0.593526	0.120849	0.417528
	H99	H	0.406811	0.892157	0.418954
	H100	H	0.597638	0.408628	0.123277
	H101	H	0.595914	0.610714	0.884268
	H102	H	0.411355	0.599532	0.120603
	H103	H	0.418923	0.408688	0.890386
	H104	H	0.119638	0.603261	0.414505
	H105	H	0.884190	0.598691	0.598929
	H106	H	0.116734	0.412640	0.589869
	H107	H	0.884708	0.411761	0.412867
	H108	H	0.910041	0.621294	0.094543
	H109	H	0.111033	0.386050	0.093549
	H110	H	0.093373	0.622801	0.910428
	H111	H	0.912334	0.387078	0.897230
	H112	H	0.087022	0.912865	0.617922
	H113	H	0.097492	0.098882	0.386415
	H114	H	0.913825	0.100365	0.619286
	H115	H	0.911311	0.900481	0.385327
	H116	H	0.617792	0.100337	0.919469
	H117	H	0.383949	0.099739	0.097713
	H118	H	0.624159	0.904303	0.107615
	H119	H	0.386995	0.912626	0.916148
	C120	C	0.380376	0.014599	0.625806
	C121	C	0.623707	0.998308	0.627073
	C122	C	0.622464	0.014413	0.383536
	C123	C	0.378876	0.997756	0.381927
	C124	C	0.623468	0.383569	0.013293
	C125	C	0.622533	0.627009	0.996894
	C126	C	0.379624	0.628013	0.013750
	C127	C	0.380124	0.384560	0.997086
	C128	C	0.009573	0.627194	0.383698
	C129	C	0.992954	0.628255	0.626489
	C130	C	0.009544	0.385701	0.624711
	C131	C	0.992855	0.384420	0.382496
	C132	C	0.880808	0.514519	0.126194
	C133	C	0.123952	0.497513	0.127520
	C134	C	0.122868	0.514971	0.883517
	C135	C	0.878842	0.497941	0.881956
	C136	C	0.122320	0.884909	0.511949
	C137	C	0.122619	0.128491	0.495432
	C138	C	0.879763	0.128352	0.512825
	C139	C	0.879148	0.884504	0.496334
	C140	C	0.509932	0.127081	0.883712
	C141	C	0.492376	0.127678	0.126145
	C142	C	0.509718	0.885172	0.125246
	C143	C	0.493694	0.883715	0.882674
	C144	C	0.382337	0.891525	0.680171
	C145	C	0.622062	0.120409	0.683648
	C146	C	0.620287	0.891803	0.327554
	C147	C	0.381498	0.120863	0.327685
	C148	C	0.678239	0.385570	0.890449
	C149	C	0.677928	0.624711	0.120234
	C150	C	0.324638	0.623801	0.890328
	C151	C	0.325984	0.388070	0.120354
	C152	C	0.885867	0.681922	0.385395
	C153	C	0.116144	0.683805	0.625177
	C154	C	0.885706	0.331160	0.621805
	C155	C	0.116431	0.329075	0.385622
	C156	C	0.885941	0.388746	0.679362
	C157	C	0.116139	0.626491	0.682886
	C158	C	0.885976	0.623955	0.328385
	C159	C	0.116895	0.387044	0.328865
	C160	C	0.381576	0.682180	0.890552
	C161	C	0.621468	0.683382	0.119722
	C162	C	0.620816	0.327559	0.890579
	C163	C	0.382859	0.329703	0.119774
	C164	C	0.677333	0.891520	0.386115
	C165	C	0.678149	0.121307	0.624395
	C166	C	0.324793	0.891569	0.621976
	C167	C	0.323996	0.120892	0.385436
	C168	C	0.883694	0.391278	0.179922
	C169	C	0.121582	0.620323	0.183564
	C170	C	0.120427	0.392084	0.827668
	C171	C	0.880500	0.620983	0.827228
	C172	C	0.176699	0.887220	0.388793
	C173	C	0.178112	0.125447	0.618777
	C174	C	0.824449	0.124428	0.389393
	C175	C	0.825063	0.888365	0.619551
	C176	C	0.386330	0.181930	0.885263
	C177	C	0.616125	0.182435	0.125065
	C178	C	0.386100	0.830068	0.122858
	C179	C	0.616887	0.828167	0.885478
	C180	C	0.385943	0.888081	0.179744
	C181	C	0.616052	0.124810	0.182244
	C182	C	0.386276	0.123952	0.828206
	C183	C	0.616897	0.886129	0.828024
	C184	C	0.881593	0.182135	0.389193
	C185	C	0.121126	0.183983	0.618467
	C186	C	0.119529	0.828952	0.389222
	C187	C	0.881402	0.829429	0.619097
	C188	C	0.177482	0.391655	0.886053
	C189	C	0.178093	0.620840	0.124659
	C190	C	0.826441	0.391179	0.121906
	C191	C	0.823191	0.620834	0.885471
	C192	C	0.402318	0.100214	0.604811
	C193	C	0.601051	0.912370	0.604384
	C194	C	0.600286	0.100415	0.405793
	C195	C	0.400880	0.911853	0.403235
	C196	C	0.601712	0.406075	0.099307
	C197	C	0.599821	0.604667	0.911020
	C198	C	0.402121	0.606965	0.099872
	C199	C	0.401744	0.406367	0.910982
	C200	C	0.096053	0.605405	0.406435
	C201	C	0.906969	0.605530	0.603292
	C202	C	0.095758	0.407387	0.603003
	C203	C	0.906446	0.406444	0.404060
	C204	C	0.902546	0.600474	0.105005
	C205	C	0.101693	0.411875	0.104909
	C206	C	0.100717	0.600690	0.905744
	C207	C	0.901749	0.412391	0.903180
	C208	C	0.100493	0.907407	0.597832
	C209	C	0.099866	0.105907	0.409551
	C210	C	0.902432	0.107510	0.598802
	C211	C	0.901239	0.906020	0.410507
	C212	C	0.596308	0.104916	0.906357
	C213	C	0.406176	0.106124	0.103719
	C214	C	0.595825	0.907141	0.103570
	C215	C	0.407445	0.905935	0.904419
	Zn216	Zn	0.501853	0.006028	0.754823
	Zn217	Zn	0.500835	0.006082	0.253966
	Zn218	Zn	0.751556	0.506050	0.004883
	Zn219	Zn	0.251541	0.506246	0.005470
	Zn220	Zn	0.001247	0.755812	0.504443
	Zn221	Zn	0.001023	0.256851	0.503835
	Zn222	Zn	0.001584	0.506507	0.754149
	Zn223	Zn	0.001955	0.505940	0.255412
	Zn224	Zn	0.501690	0.756015	0.005134
	Zn225	Zn	0.501145	0.255621	0.005170
	Zn226	Zn	0.751290	0.007097	0.504925
	Zn227	Zn	0.251092	0.006306	0.503767
	N228	N	0.416008	0.968777	0.682663
	N229	N	0.588761	0.042919	0.684936
	N230	N	0.586771	0.969427	0.325869
	N231	N	0.414657	0.043202	0.325186
	N232	N	0.679762	0.419882	0.967799
	N233	N	0.678598	0.590397	0.042860
	N234	N	0.323300	0.591059	0.968035
	N235	N	0.324156	0.421485	0.042836
	N236	N	0.963788	0.683860	0.419059
	N237	N	0.038427	0.685064	0.590992
	N238	N	0.963540	0.329179	0.588509
	N239	N	0.038310	0.327469	0.418331
	N240	N	0.963887	0.421975	0.681210
	N241	N	0.038554	0.592648	0.683787
	N242	N	0.964021	0.590558	0.327383
	N243	N	0.039045	0.420683	0.326728
	N244	N	0.415076	0.684818	0.968252
	N245	N	0.587713	0.684866	0.041979
	N246	N	0.587436	0.326399	0.968001
	N247	N	0.415689	0.327652	0.042203
	N248	N	0.678692	0.968785	0.420040
	N249	N	0.679344	0.044180	0.589967
	N250	N	0.323372	0.969034	0.588816
	N251	N	0.322268	0.043516	0.418510
	N252	N	0.916918	0.468728	0.182459
	N253	N	0.088894	0.542634	0.185517
	N254	N	0.087211	0.469611	0.825930
	N255	N	0.914525	0.543628	0.824947
	N256	N	0.178437	0.921465	0.466066
	N257	N	0.179022	0.091507	0.541278
	N258	N	0.823509	0.091506	0.466990
	N259	N	0.823575	0.921765	0.542242
	N260	N	0.464183	0.183686	0.919294
	N261	N	0.538335	0.184365	0.091025
	N262	N	0.463958	0.828325	0.089578
	N263	N	0.539086	0.826170	0.918453
	N264	N	0.463554	0.921839	0.181153
	N265	N	0.538274	0.091402	0.183107
	N266	N	0.464282	0.090730	0.826991
	N267	N	0.539293	0.919987	0.826398
	N268	N	0.915180	0.185084	0.466948
	N269	N	0.087420	0.185800	0.540975
	N270	N	0.086486	0.827564	0.466778
	N271	N	0.914330	0.826890	0.541437
	N272	N	0.179083	0.468975	0.920029
	N273	N	0.179567	0.543567	0.090429
	N274	N	0.824580	0.468799	0.089073
	N275	N	0.821842	0.543372	0.918487
	O276	O	0.518160	0.485434	0.564705
	H277	H	0.524515	0.483291	0.570649
	H278	H	0.518929	0.488101	0.566062
	O279	O	0.007453	0.002064	-0.044096
	H280	H	0.001962	-0.000385	-0.046068
	H281	H	0.013768	-0.004576	-0.036037
	O282	O	0.542579	0.564981	0.581317
	H283	H	0.537681	0.559440	0.577634
	H284	H	0.544356	0.576472	0.576362
	O285	O	0.581609	0.589691	0.569172
	H286	H	0.588009	0.585610	0.575118
	H287	H	0.585582	0.591685	0.566468
	O288	O	1.030082	0.013185	-0.052456
	H289	H	1.034040	0.018278	-0.045988
	H290	H	1.030169	0.025410	-0.054811
	O291	O	-0.489289	0.531485	-0.452684
	H292	H	-0.490053	0.531104	-0.449955
	H293	H	-0.493965	0.526178	-0.448128
	O294	O	0.487896	0.558732	0.553450
	H295	H	0.480242	0.555670	0.552298
	H296	H	0.495749	0.560022	0.554544
	O297	O	-0.000672	1.016391	-0.067268
	H298	H	0.012275	1.009929	-0.068765
	H299	H	-0.009749	1.019333	-0.071559
	O300	O	1.515999	-0.413323	0.527310
	H301	H	1.518718	-0.416245	0.521839
	H302	H	1.520897	-0.400592	0.536639
	O303	O	0.491014	0.501124	0.572006
	H304	H	0.489526	0.511023	0.573383
	H305	H	0.495807	0.500469	0.570560
	O306	O	0.007870	1.033318	0.961642
	H307	H	0.000345	1.030525	0.959186
	H308	H	0.012312	1.034835	0.957673
	O309	O	0.463806	0.552949	0.542796
	H310	H	0.464000	0.556103	0.541288
	H311	H	0.462461	0.553805	0.544462
