data_Molecule from HDF5

_cell_length_a		16.365876
_cell_length_b		16.321422
_cell_length_c		16.090298
_cell_angle_alpha	89.956311
_cell_angle_beta	90.148684
_cell_angle_gamma	89.908106
_symmetry_space_group_name_H-M	'P 1'
_symmetry_Int_Tables_number		1

loop_
	_symmetry_equiv_pos_as_xyz
	x,y,z

loop_
	_atom_site_label
	_atom_site_type_symbol
	_atom_site_fract_x
	_atom_site_fract_y
	_atom_site_fract_z
	H0	H	0.411917	0.828737	0.709688
	H1	H	0.600776	0.158709	0.708032
	H2	H	0.601924	0.828992	0.284699
	H3	H	0.409502	0.157719	0.285892
	H4	H	0.718096	0.393807	0.832682
	H5	H	0.720635	0.593529	0.163047
	H6	H	0.289586	0.593777	0.833607
	H7	H	0.292814	0.393763	0.162911
	H8	H	0.844942	0.709999	0.394885
	H9	H	0.168872	0.708261	0.599329
	H10	H	0.843377	0.276188	0.597909
	H11	H	0.168072	0.275212	0.397770
	H12	H	0.842352	0.394600	0.711173
	H13	H	0.169392	0.588991	0.713007
	H14	H	0.841694	0.589693	0.284036
	H15	H	0.169293	0.394935	0.284674
	H16	H	0.406424	0.707888	0.833006
	H17	H	0.604678	0.708092	0.162865
	H18	H	0.603068	0.279515	0.832717
	H19	H	0.407664	0.278811	0.162745
	H20	H	0.723202	0.831019	0.395805
	H21	H	0.722410	0.156131	0.599614
	H22	H	0.289960	0.829848	0.598894
	H23	H	0.288530	0.154916	0.396580
	H24	H	0.910278	0.327349	0.209145
	H25	H	0.102299	0.656223	0.211320
	H26	H	0.100700	0.327367	0.787482
	H27	H	0.908343	0.655979	0.783680
	H28	H	0.219618	0.892197	0.332699
	H29	H	0.219921	0.090573	0.662572
	H30	H	0.792277	0.091700	0.333072
	H31	H	0.792798	0.893669	0.664200
	H32	H	0.343143	0.208765	0.896682
	H33	H	0.668131	0.207857	0.097729
	H34	H	0.343120	0.778233	0.097063
	H35	H	0.667871	0.775626	0.897259
	H36	H	0.341836	0.896340	0.210713
	H37	H	0.668059	0.091014	0.212483
	H38	H	0.342530	0.089331	0.783271
	H39	H	0.670437	0.896316	0.784712
	H40	H	0.906914	0.205392	0.332783
	H41	H	0.104204	0.204495	0.663458
	H42	H	0.104139	0.778721	0.332426
	H43	H	0.908443	0.777538	0.663765
	H44	H	0.223450	0.330189	0.896360
	H45	H	0.222898	0.654540	0.100040
	H46	H	0.789175	0.329621	0.098923
	H47	H	0.786930	0.654515	0.895469
	H48	H	0.401488	0.110478	0.584530
	H49	H	0.601864	0.876485	0.590984
	H50	H	0.600980	0.110441	0.402089
	H51	H	0.404318	0.873788	0.405592
	H52	H	0.603630	0.394857	0.119595
	H53	H	0.597977	0.582258	0.880580
	H54	H	0.403232	0.583812	0.118199
	H55	H	0.404287	0.411480	0.880881
	H56	H	0.120116	0.581714	0.410805
	H57	H	0.892925	0.576903	0.589227
	H58	H	0.120846	0.398910	0.587790
	H59	H	0.891794	0.399129	0.410844
	H60	H	0.122356	0.398885	0.595947
	H61	H	0.887185	0.590227	0.595770
	H62	H	0.123400	0.582907	0.397433
	H63	H	0.889664	0.402531	0.400427
	H64	H	0.420244	0.577077	0.110630
	H65	H	0.593813	0.584592	0.881743
	H66	H	0.600774	0.407044	0.114734
	H67	H	0.426809	0.403559	0.883716
	H68	H	0.596981	0.108941	0.406117
	H69	H	0.599710	0.878041	0.589349
	H70	H	0.411673	0.111869	0.599388
	H71	H	0.415711	0.876608	0.398202
	H72	H	0.909362	0.608560	0.087360
	H73	H	0.104134	0.377718	0.080851
	H74	H	0.087838	0.604043	0.910322
	H75	H	0.918004	0.377092	0.904782
	H76	H	0.104257	0.901409	0.616836
	H77	H	0.093454	0.095164	0.377018
	H78	H	0.923588	0.088586	0.614452
	H79	H	0.914717	0.902338	0.382204
	H80	H	0.622435	0.088728	0.905864
	H81	H	0.386683	0.091216	0.092698
	H82	H	0.619556	0.905656	0.091597
	H83	H	0.392081	0.904117	0.905830
	H84	H	0.623329	0.896363	0.093702
	H85	H	0.389799	0.088919	0.086214
	H86	H	0.622234	0.086452	0.903545
	H87	H	0.389216	0.899440	0.899652
	H88	H	0.905941	0.090861	0.620984
	H89	H	0.108186	0.081186	0.377685
	H90	H	0.094684	0.902947	0.613552
	H91	H	0.913703	0.897728	0.380498
	H92	H	0.106919	0.608598	0.915534
	H93	H	0.106154	0.371945	0.097558
	H94	H	0.910738	0.609091	0.092683
	H95	H	0.905950	0.376697	0.912798
	H96	H	0.418670	0.105825	0.583991
	H97	H	0.602144	0.877382	0.588297
	H98	H	0.602685	0.109743	0.407279
	H99	H	0.415304	0.878826	0.411635
	H100	H	0.591011	0.397432	0.114358
	H101	H	0.596884	0.587321	0.880217
	H102	H	0.418557	0.595424	0.117817
	H103	H	0.409762	0.389359	0.875301
	H104	H	0.123705	0.592969	0.405318
	H105	H	0.892188	0.589527	0.579919
	H106	H	0.124086	0.392126	0.591213
	H107	H	0.887585	0.391724	0.403383
	H108	H	0.914299	0.607096	0.089055
	H109	H	0.090337	0.378145	0.091939
	H110	H	0.100933	0.610989	0.896128
	H111	H	0.905607	0.372702	0.898082
	H112	H	0.097958	0.893953	0.617530
	H113	H	0.089331	0.075980	0.384229
	H114	H	0.911716	0.074279	0.613878
	H115	H	0.911185	0.901367	0.380481
	H116	H	0.622626	0.089684	0.902943
	H117	H	0.389837	0.083957	0.092195
	H118	H	0.620046	0.897696	0.084033
	H119	H	0.390401	0.897078	0.906838
	C120	C	0.383647	0.000975	0.618584
	C121	C	0.628752	0.985353	0.619137
	C122	C	0.628174	0.001855	0.376056
	C123	C	0.383261	0.984676	0.376258
	C124	C	0.626391	0.371328	0.006887
	C125	C	0.625853	0.614194	0.989717
	C126	C	0.384337	0.614716	0.006646
	C127	C	0.384992	0.372181	0.988998
	C128	C	0.014633	0.614350	0.375196
	C129	C	0.998276	0.613809	0.618924
	C130	C	0.014549	0.369149	0.619803
	C131	C	0.997528	0.369547	0.376047
	C132	C	0.883654	0.500264	0.118717
	C133	C	0.128224	0.483606	0.119492
	C134	C	0.127143	0.500341	0.877657
	C135	C	0.881670	0.483563	0.875524
	C136	C	0.126994	0.871217	0.506333
	C137	C	0.126114	0.112560	0.489023
	C138	C	0.884860	0.113394	0.507178
	C139	C	0.884551	0.871227	0.489929
	C140	C	0.514325	0.115612	0.875434
	C141	C	0.496699	0.115788	0.119213
	C142	C	0.513453	0.871878	0.118561
	C143	C	0.498039	0.871448	0.875468
	C144	C	0.389110	0.877920	0.673072
	C145	C	0.623389	0.108848	0.672678
	C146	C	0.623800	0.878328	0.321653
	C147	C	0.387446	0.108223	0.322340
	C148	C	0.680893	0.373775	0.882215
	C149	C	0.681894	0.612872	0.113909
	C150	C	0.328162	0.613535	0.882725
	C151	C	0.330540	0.374047	0.113592
	C152	C	0.892674	0.670645	0.376097
	C153	C	0.120613	0.669400	0.618441
	C154	C	0.891959	0.314130	0.618150
	C155	C	0.119809	0.314069	0.378376
	C156	C	0.891470	0.373207	0.674165
	C157	C	0.120535	0.610615	0.675469
	C158	C	0.891311	0.610957	0.320679
	C159	C	0.120479	0.373466	0.321928
	C160	C	0.386017	0.670266	0.882363
	C161	C	0.624858	0.670232	0.113631
	C162	C	0.623683	0.316851	0.882164
	C163	C	0.387446	0.316720	0.113489
	C164	C	0.684182	0.879237	0.376913
	C165	C	0.683623	0.107835	0.618246
	C166	C	0.328690	0.878456	0.617819
	C167	C	0.327331	0.106792	0.377336
	C168	C	0.888011	0.376874	0.173151
	C169	C	0.124200	0.607039	0.174345
	C170	C	0.123176	0.376876	0.823324
	C171	C	0.886084	0.606585	0.820373
	C172	C	0.181571	0.872970	0.381969
	C173	C	0.181991	0.110555	0.613364
	C174	C	0.830026	0.111228	0.382415
	C175	C	0.830298	0.873292	0.614638
	C176	C	0.391701	0.170406	0.876805
	C177	C	0.619451	0.170074	0.117499
	C178	C	0.391319	0.816353	0.117135
	C179	C	0.619755	0.814610	0.876937
	C180	C	0.390625	0.875440	0.173281
	C181	C	0.619702	0.111721	0.174449
	C182	C	0.391463	0.111213	0.820351
	C183	C	0.621197	0.874734	0.821396
	C184	C	0.886832	0.168012	0.382321
	C185	C	0.124186	0.166975	0.613826
	C186	C	0.124239	0.816466	0.381802
	C187	C	0.887876	0.815648	0.614414
	C188	C	0.183828	0.378271	0.877908
	C189	C	0.184151	0.606190	0.119019
	C190	C	0.827992	0.377869	0.117918
	C191	C	0.825917	0.605965	0.875913
	C192	C	0.404490	0.087259	0.595838
	C193	C	0.607296	0.899311	0.596434
	C194	C	0.606727	0.087497	0.398571
	C195	C	0.405217	0.898678	0.398590
	C196	C	0.604757	0.393411	0.093857
	C197	C	0.602878	0.591362	0.903177
	C198	C	0.407443	0.592140	0.093237
	C199	C	0.406993	0.394835	0.902298
	C200	C	0.100297	0.592536	0.397992
	C201	C	0.912852	0.591949	0.595228
	C202	C	0.100105	0.390418	0.597918
	C203	C	0.911774	0.391533	0.398241
	C204	C	0.904997	0.586070	0.096236
	C205	C	0.106477	0.398117	0.096728
	C206	C	0.104943	0.585733	0.900507
	C207	C	0.903225	0.397667	0.898407
	C208	C	0.105291	0.893037	0.593427
	C209	C	0.103687	0.090527	0.402231
	C210	C	0.907073	0.091134	0.594039
	C211	C	0.906529	0.893813	0.403484
	C212	C	0.600234	0.094487	0.897573
	C213	C	0.410929	0.094521	0.096965
	C214	C	0.598808	0.893542	0.096163
	C215	C	0.412610	0.893613	0.897572
	Zn216	Zn	0.506656	-0.006228	0.746574
	Zn217	Zn	0.505349	-0.006522	0.247338
	Zn218	Zn	0.753783	0.492826	-0.001709
	Zn219	Zn	0.257014	0.492583	-0.002222
	Zn220	Zn	0.006670	0.742911	0.497505
	Zn221	Zn	0.005489	0.240499	0.497947
	Zn222	Zn	0.006015	0.491610	0.748225
	Zn223	Zn	0.005493	0.492030	0.247444
	Zn224	Zn	0.505443	0.742370	-0.002217
	Zn225	Zn	0.505279	0.244413	-0.002310
	Zn226	Zn	0.756874	-0.006422	0.498468
	Zn227	Zn	0.254187	-0.007970	0.497098
	N228	N	0.422658	0.955215	0.673494
	N229	N	0.589944	0.031477	0.673205
	N230	N	0.589686	0.955333	0.320803
	N231	N	0.421666	0.031091	0.321500
	N232	N	0.682687	0.407109	0.960843
	N233	N	0.682871	0.578909	0.035662
	N234	N	0.327080	0.579742	0.961015
	N235	N	0.328983	0.407878	0.035282
	N236	N	0.970260	0.672932	0.409287
	N237	N	0.043268	0.671801	0.584282
	N238	N	0.969363	0.311513	0.585092
	N239	N	0.042187	0.311398	0.411020
	N240	N	0.968575	0.406798	0.675516
	N241	N	0.043619	0.576849	0.675832
	N242	N	0.968271	0.576800	0.320018
	N243	N	0.043579	0.407429	0.320654
	N244	N	0.420285	0.671106	0.960543
	N245	N	0.590808	0.671127	0.035433
	N246	N	0.590461	0.315327	0.960564
	N247	N	0.420631	0.315715	0.035066
	N248	N	0.687029	0.956955	0.410122
	N249	N	0.687035	0.029820	0.585779
	N250	N	0.325207	0.956135	0.584797
	N251	N	0.324640	0.028833	0.409929
	N252	N	0.922086	0.454025	0.173628
	N253	N	0.090073	0.530064	0.174868
	N254	N	0.088466	0.453696	0.823067
	N255	N	0.920250	0.529370	0.820198
	N256	N	0.183411	0.906150	0.460404
	N257	N	0.182977	0.077069	0.534879
	N258	N	0.828633	0.077944	0.461070
	N259	N	0.828100	0.907139	0.536299
	N260	N	0.469266	0.173436	0.909987
	N261	N	0.542014	0.172373	0.083794
	N262	N	0.468611	0.814081	0.083878
	N263	N	0.542243	0.812499	0.909838
	N264	N	0.467663	0.909232	0.174520
	N265	N	0.542388	0.078673	0.175659
	N266	N	0.468667	0.077940	0.819397
	N267	N	0.544464	0.909173	0.820068
	N268	N	0.920541	0.169145	0.460731
	N269	N	0.090427	0.168530	0.535471
	N270	N	0.090814	0.815302	0.460118
	N271	N	0.920904	0.814268	0.535950
	N272	N	0.186354	0.456094	0.910806
	N273	N	0.186735	0.528639	0.085647
	N274	N	0.825339	0.455605	0.084806
	N275	N	0.823302	0.528485	0.909460
	O276	O	0.980606	0.962721	0.009510
	H277	H	0.981841	0.961374	0.016621
	H278	H	0.986411	0.968847	0.002676
	O279	O	-0.009357	-0.116488	0.001472
	H280	H	-0.008768	-0.124087	-0.002849
	H281	H	-0.007210	-0.125441	0.001400
	O282	O	-0.051901	-0.069093	1.017841
	H283	H	-0.048632	-0.072975	1.024366
	H284	H	-0.050000	-0.073677	1.019752
	O285	O	0.028153	0.933215	0.005964
	H286	H	0.019031	0.936627	-0.005971
	H287	H	0.033368	0.928507	0.012406
	O288	O	0.560541	0.572754	0.601560
	H289	H	0.560550	0.569619	0.617330
	H290	H	0.560781	0.576426	0.608177
	O291	O	0.588321	0.511031	0.545119
	H292	H	0.585764	0.509805	0.545574
	H293	H	0.598829	0.504693	0.545960
	O294	O	-0.431031	0.607662	0.500372
	H295	H	-0.429180	0.608049	0.503702
	H296	H	-0.429502	0.607757	0.500432
	O297	O	0.581597	0.561935	0.495245
	H298	H	0.581598	0.560390	0.490640
	H299	H	0.580337	0.567305	0.487900
	O300	O	0.022806	0.940786	1.026260
	H301	H	0.026471	0.937659	1.023120
	H302	H	0.020238	0.939383	1.031384
	O303	O	0.546069	0.571603	0.529392
	H304	H	0.548102	0.577005	0.520438
	H305	H	0.546415	0.571989	0.533483
	O306	O	0.534188	-0.447104	1.470362
	H307	H	0.527643	-0.444068	1.478727
	H308	H	0.538696	-0.442748	1.478115
	O309	O	0.967691	0.932139	1.055716
	H310	H	0.958329	0.934331	1.059044
	H311	H	0.965230	0.928568	1.060333
	O312	O	-0.036393	0.899203	-0.025017
	H313	H	-0.031633	0.900873	-0.022083
	H314	H	-0.038183	0.898543	-0.020971
	O315	O	0.551087	0.521211	0.598306
	H316	H	0.548736	0.533667	0.602794
	H317	H	0.564031	0.523323	0.598653
	O318	O	-0.024581	0.929485	-0.045112
	H319	H	-0.029316	0.934414	-0.051969
	H320	H	-0.028043	0.930288	-0.048007
	O321	O	0.988559	0.949378	0.009140
	H322	H	0.984797	0.948758	-0.003147
	H323	H	0.990150	0.942952	0.014602
