data_Molecule from HDF5

_cell_length_a		16.100529
_cell_length_b		16.256688
_cell_length_c		16.402578
_cell_angle_alpha	89.873245
_cell_angle_beta	89.961292
_cell_angle_gamma	89.947479
_symmetry_space_group_name_H-M	'P 1'
_symmetry_Int_Tables_number		1

loop_
	_symmetry_equiv_pos_as_xyz
	x,y,z

loop_
	_atom_site_label
	_atom_site_type_symbol
	_atom_site_fract_x
	_atom_site_fract_y
	_atom_site_fract_z
	H0	H	0.408275	0.826598	0.718428
	H1	H	0.611144	0.153122	0.718834
	H2	H	0.612250	0.827059	0.285011
	H3	H	0.407933	0.152119	0.284732
	H4	H	0.723032	0.392452	0.837706
	H5	H	0.722267	0.585147	0.164484
	H6	H	0.294591	0.588660	0.837482
	H7	H	0.294878	0.391833	0.164335
	H8	H	0.843519	0.703427	0.403224
	H9	H	0.175107	0.702229	0.598032
	H10	H	0.844634	0.276268	0.599437
	H11	H	0.175970	0.278942	0.404178
	H12	H	0.845031	0.389631	0.715602
	H13	H	0.174071	0.589750	0.715591
	H14	H	0.843602	0.589785	0.286626
	H15	H	0.172622	0.389608	0.285958
	H16	H	0.408167	0.707581	0.839788
	H17	H	0.609126	0.703867	0.164244
	H18	H	0.609676	0.272877	0.839419
	H19	H	0.408977	0.272987	0.164261
	H20	H	0.721782	0.825488	0.406498
	H21	H	0.722232	0.155333	0.597935
	H22	H	0.296061	0.825310	0.598507
	H23	H	0.298818	0.155445	0.407188
	H24	H	0.908198	0.326808	0.217775
	H25	H	0.110840	0.652930	0.217839
	H26	H	0.111440	0.326440	0.784589
	H27	H	0.907311	0.652946	0.784053
	H28	H	0.224439	0.893944	0.338087
	H29	H	0.222369	0.086695	0.664775
	H30	H	0.796071	0.089039	0.337618
	H31	H	0.794671	0.892720	0.664895
	H32	H	0.344656	0.203713	0.903318
	H33	H	0.674694	0.201404	0.098832
	H34	H	0.343572	0.776485	0.099424
	H35	H	0.674667	0.776850	0.904845
	H36	H	0.344397	0.888599	0.217484
	H37	H	0.674126	0.087609	0.214762
	H38	H	0.344942	0.090741	0.787038
	H39	H	0.673606	0.887695	0.785999
	H40	H	0.910929	0.207011	0.338879
	H41	H	0.109862	0.205787	0.662935
	H42	H	0.110273	0.774299	0.338552
	H43	H	0.909890	0.774402	0.664206
	H44	H	0.222482	0.324489	0.905236
	H45	H	0.221979	0.654408	0.096783
	H46	H	0.797486	0.324544	0.096541
	H47	H	0.795490	0.654963	0.904181
	H48	H	0.415834	0.105513	0.591679
	H49	H	0.601913	0.874317	0.594548
	H50	H	0.603081	0.109136	0.402121
	H51	H	0.413318	0.870445	0.404278
	H52	H	0.597415	0.395226	0.115612
	H53	H	0.608949	0.574778	0.886848
	H54	H	0.415556	0.589422	0.117901
	H55	H	0.420838	0.395674	0.887508
	H56	H	0.125250	0.578007	0.409773
	H57	H	0.887519	0.589649	0.599361
	H58	H	0.127581	0.396093	0.591972
	H59	H	0.893293	0.397325	0.416188
	H60	H	0.125576	0.401827	0.592740
	H61	H	0.893971	0.583474	0.584428
	H62	H	0.127634	0.581438	0.403809
	H63	H	0.891853	0.404923	0.405818
	H64	H	0.411117	0.579062	0.117068
	H65	H	0.590215	0.582505	0.889494
	H66	H	0.604023	0.389124	0.119637
	H67	H	0.415877	0.391617	0.883917
	H68	H	0.597040	0.105838	0.406888
	H69	H	0.600068	0.873272	0.597008
	H70	H	0.414287	0.108726	0.600031
	H71	H	0.425601	0.874883	0.406449
	H72	H	0.918249	0.607842	0.101542
	H73	H	0.095928	0.377361	0.087526
	H74	H	0.095053	0.603277	0.908785
	H75	H	0.914641	0.373961	0.911146
	H76	H	0.092278	0.896786	0.613419
	H77	H	0.100263	0.077005	0.388309
	H78	H	0.922095	0.095045	0.618614
	H79	H	0.921072	0.898038	0.387155
	H80	H	0.624524	0.071009	0.907791
	H81	H	0.393111	0.070896	0.098253
	H82	H	0.625170	0.900734	0.093795
	H83	H	0.386713	0.893084	0.899020
	H84	H	0.628296	0.895986	0.098922
	H85	H	0.386699	0.088009	0.100327
	H86	H	0.631932	0.086685	0.901994
	H87	H	0.392829	0.892117	0.919405
	H88	H	0.905039	0.079935	0.619060
	H89	H	0.099015	0.091967	0.384425
	H90	H	0.106257	0.886034	0.619945
	H91	H	0.915907	0.892349	0.384409
	H92	H	0.103624	0.605781	0.910552
	H93	H	0.110730	0.370178	0.094816
	H94	H	0.919784	0.604188	0.090218
	H95	H	0.916722	0.372579	0.903518
	H96	H	0.422300	0.105378	0.597641
	H97	H	0.599549	0.874801	0.594479
	H98	H	0.604450	0.106523	0.409446
	H99	H	0.416524	0.874490	0.415957
	H100	H	0.606675	0.398225	0.116977
	H101	H	0.604967	0.594036	0.881827
	H102	H	0.421801	0.580843	0.113813
	H103	H	0.414453	0.398116	0.885861
	H104	H	0.128122	0.586237	0.409884
	H105	H	0.892788	0.572655	0.598361
	H106	H	0.128864	0.398849	0.596634
	H107	H	0.888061	0.392066	0.405029
	H108	H	0.909529	0.608644	0.093532
	H109	H	0.096020	0.372156	0.104366
	H110	H	0.100050	0.607079	0.902225
	H111	H	0.922040	0.375003	0.908314
	H112	H	0.108699	0.903609	0.616237
	H113	H	0.113211	0.084395	0.382087
	H114	H	0.925250	0.073901	0.611350
	H115	H	0.912885	0.899545	0.386100
	H116	H	0.625687	0.084792	0.918539
	H117	H	0.393662	0.082467	0.084864
	H118	H	0.626860	0.893816	0.091747
	H119	H	0.395085	0.910129	0.909146
	C120	C	0.387893	-0.001698	0.624769
	C121	C	0.630355	0.982309	0.623817
	C122	C	0.631067	-0.001304	0.378812
	C123	C	0.389200	0.981660	0.380791
	C124	C	0.631346	0.366684	0.009780
	C125	C	0.630608	0.611473	0.993339
	C126	C	0.387085	0.611968	0.008856
	C127	C	0.387875	0.367072	0.993356
	C128	C	0.017469	0.611125	0.379621
	C129	C	1.000679	0.610955	0.622191
	C130	C	0.018523	0.368919	0.622426
	C131	C	1.000444	0.369432	0.380551
	C132	C	0.887599	0.498197	0.122925
	C133	C	0.130514	0.481585	0.123667
	C134	C	0.130054	0.497435	0.879136
	C135	C	0.887644	0.481788	0.879087
	C136	C	0.131936	0.867380	0.509398
	C137	C	0.132302	0.112401	0.492483
	C138	C	0.888314	0.112444	0.509049
	C139	C	0.887399	0.868023	0.493467
	C140	C	0.518472	0.110227	0.880610
	C141	C	0.500346	0.109726	0.122737
	C142	C	0.517574	0.867820	0.123435
	C143	C	0.500519	0.868827	0.880836
	C144	C	0.388979	0.875222	0.679802
	C145	C	0.629897	0.104717	0.679854
	C146	C	0.630455	0.875635	0.324184
	C147	C	0.389470	0.104072	0.324357
	C148	C	0.686091	0.370866	0.886799
	C149	C	0.685080	0.606968	0.115931
	C150	C	0.331977	0.609146	0.886555
	C151	C	0.332454	0.370521	0.115590
	C152	C	0.892890	0.665974	0.382493
	C153	C	0.125415	0.665226	0.618965
	C154	C	0.894180	0.313226	0.620187
	C155	C	0.125640	0.315316	0.383455
	C156	C	0.894354	0.369642	0.678076
	C157	C	0.124929	0.609704	0.677627
	C158	C	0.892950	0.609558	0.324638
	C159	C	0.124298	0.370381	0.324577
	C160	C	0.388202	0.668530	0.887544
	C161	C	0.629202	0.666488	0.115472
	C162	C	0.629749	0.311543	0.887524
	C163	C	0.389062	0.311438	0.115599
	C164	C	0.685295	0.874991	0.384205
	C165	C	0.685527	0.105810	0.620119
	C166	C	0.333022	0.874632	0.620361
	C167	C	0.334960	0.105656	0.384936
	C168	C	0.889059	0.375209	0.178653
	C169	C	0.129554	0.604484	0.178793
	C170	C	0.130303	0.374989	0.823237
	C171	C	0.887962	0.604503	0.822898
	C172	C	0.187136	0.871803	0.386794
	C173	C	0.185838	0.108399	0.615834
	C174	C	0.833835	0.109559	0.386407
	C175	C	0.832291	0.871320	0.616098
	C176	C	0.393994	0.166150	0.882490
	C177	C	0.625116	0.164201	0.119419
	C178	C	0.393123	0.813249	0.120551
	C179	C	0.625287	0.813713	0.883555
	C180	C	0.393615	0.868979	0.179229
	C181	C	0.625025	0.107386	0.176781
	C182	C	0.394149	0.109527	0.825090
	C183	C	0.624686	0.869167	0.824861
	C184	C	0.890628	0.168417	0.387039
	C185	C	0.130114	0.167662	0.614847
	C186	C	0.130023	0.812849	0.386940
	C187	C	0.889606	0.812626	0.615782
	C188	C	0.185612	0.373969	0.883403
	C189	C	0.185214	0.604999	0.118884
	C190	C	0.833842	0.374140	0.118577
	C191	C	0.832771	0.605629	0.882813
	C192	C	0.410822	0.084496	0.602801
	C193	C	0.607411	0.896302	0.601872
	C194	C	0.608245	0.085116	0.399918
	C195	C	0.411850	0.895459	0.402437
	C196	C	0.609297	0.387950	0.095305
	C197	C	0.607878	0.590205	0.908139
	C198	C	0.409709	0.589645	0.094290
	C199	C	0.410265	0.388764	0.907812
	C200	C	0.104519	0.588628	0.401435
	C201	C	0.913936	0.588415	0.600378
	C202	C	0.105009	0.392037	0.600347
	C203	C	0.913462	0.391719	0.402406
	C204	C	0.909408	0.584595	0.101523
	C205	C	0.107589	0.395486	0.102170
	C206	C	0.106428	0.583332	0.900846
	C207	C	0.910833	0.395976	0.901395
	C208	C	0.108953	0.889093	0.594517
	C209	C	0.110500	0.091008	0.407131
	C210	C	0.910925	0.089651	0.594183
	C211	C	0.909982	0.890062	0.408041
	C212	C	0.604811	0.087582	0.902884
	C213	C	0.413528	0.087164	0.100853
	C214	C	0.604356	0.890460	0.101459
	C215	C	0.414215	0.891620	0.902852
	Zn216	Zn	0.509306	-0.010384	0.753173
	Zn217	Zn	0.509299	-0.010935	0.250923
	Zn218	Zn	0.759351	0.489382	0.000974
	Zn219	Zn	0.258826	0.489278	0.000780
	Zn220	Zn	0.009060	0.738333	0.500738
	Zn221	Zn	0.010123	0.241703	0.501013
	Zn222	Zn	0.009130	0.489927	0.750087
	Zn223	Zn	0.008685	0.490287	0.252436
	Zn224	Zn	0.509135	0.741002	0.001666
	Zn225	Zn	0.509195	0.237491	0.001582
	Zn226	Zn	0.758545	-0.009033	0.501234
	Zn227	Zn	0.260479	-0.009393	0.501836
	N228	N	0.422151	0.953133	0.682484
	N229	N	0.596392	0.026868	0.682289
	N230	N	0.597534	0.953742	0.320707
	N231	N	0.422280	0.025759	0.321561
	N232	N	0.687201	0.404347	0.963886
	N233	N	0.686434	0.573758	0.038957
	N234	N	0.331160	0.574722	0.963322
	N235	N	0.331867	0.404536	0.038716
	N236	N	0.971251	0.666976	0.415858
	N237	N	0.047226	0.666010	0.585142
	N238	N	0.972296	0.312721	0.586154
	N239	N	0.047615	0.314793	0.417714
	N240	N	0.972517	0.403669	0.679370
	N241	N	0.046436	0.576514	0.679642
	N242	N	0.971520	0.576117	0.323042
	N243	N	0.045652	0.403605	0.322826
	N244	N	0.421597	0.670450	0.964642
	N245	N	0.595851	0.669223	0.038156
	N246	N	0.596380	0.308946	0.964701
	N247	N	0.423197	0.309450	0.038580
	N248	N	0.685586	0.952581	0.417570
	N249	N	0.685789	0.028646	0.585882
	N250	N	0.332258	0.952405	0.587018
	N251	N	0.335098	0.028705	0.419535
	N252	N	0.921684	0.453362	0.181493
	N253	N	0.096229	0.526593	0.181824
	N254	N	0.096597	0.452880	0.820549
	N255	N	0.921395	0.526619	0.820556
	N256	N	0.188654	0.904758	0.463924
	N257	N	0.187560	0.074789	0.538955
	N258	N	0.832300	0.075434	0.463245
	N259	N	0.830887	0.905021	0.539087
	N260	N	0.472017	0.166632	0.916427
	N261	N	0.546396	0.165782	0.086417
	N262	N	0.471106	0.812436	0.086603
	N263	N	0.547278	0.813531	0.917860
	N264	N	0.472101	0.902295	0.180937
	N265	N	0.546700	0.073986	0.178654
	N266	N	0.472422	0.075462	0.823790
	N267	N	0.546114	0.902406	0.822725
	N268	N	0.923839	0.170317	0.464305
	N269	N	0.097546	0.170430	0.537276
	N270	N	0.096509	0.809956	0.464176
	N271	N	0.923112	0.810475	0.538504
	N272	N	0.185465	0.451212	0.917452
	N273	N	0.185804	0.527594	0.085268
	N274	N	0.833028	0.451583	0.084425
	N275	N	0.832608	0.528295	0.917270
	O276	O	0.971097	0.886615	-0.028264
	H277	H	0.968493	0.875771	-0.029883
	H278	H	0.975074	0.889979	-0.035719
	O279	O	-0.052127	-0.004276	-0.088719
	H280	H	-0.043511	-0.001303	-0.086232
	H281	H	-0.062869	-0.005193	-0.099157
	O282	O	-0.022254	0.034459	0.942472
	H283	H	-0.019271	0.031545	0.949307
	H284	H	-0.034385	0.035216	0.942661
	O285	O	-0.005548	0.992304	0.021193
	H286	H	-0.005076	0.994969	0.017306
	H287	H	-0.010440	0.982855	0.014669
	O288	O	0.494159	0.569751	0.499093
	H289	H	0.498875	0.575070	0.506103
	H290	H	0.501312	0.579931	0.497383
	O291	O	0.502389	0.547084	0.498405
	H292	H	0.507653	0.546481	0.506551
	H293	H	0.490215	0.542017	0.505437
	O294	O	-0.458676	0.560794	0.503021
	H295	H	-0.457579	0.561508	0.507769
	H296	H	-0.461048	0.563436	0.499325
	O297	O	0.500783	0.578754	0.521087
	H298	H	0.495967	0.581943	0.517938
	H299	H	0.491053	0.577103	0.518569
	O300	O	-0.016838	0.904435	0.938753
	H301	H	-0.028415	0.899556	0.932549
	H302	H	-0.008772	0.900326	0.935088
	O303	O	0.455322	0.556346	0.500151
	H304	H	0.457982	0.557515	0.500293
	H305	H	0.456303	0.551395	0.489740
	O306	O	0.465508	-0.486658	1.501100
	H307	H	0.471946	-0.481954	1.497449
	H308	H	0.455432	-0.489683	1.504613
	O309	O	0.991777	0.961525	0.962801
	H310	H	0.993469	0.966312	0.965252
	H311	H	0.993145	0.963770	0.961027
	O312	O	0.000753	0.993062	-0.049079
	H313	H	-0.005660	0.997351	-0.050022
	H314	H	-0.004836	0.995742	-0.045748
	O315	O	0.453965	0.551256	0.495607
	H316	H	0.458243	0.550049	0.491935
	H317	H	0.452311	0.548408	0.496377
	O318	O	-0.023705	1.045389	-0.003532
	H319	H	-0.031425	1.053328	-0.002030
	H320	H	-0.016268	1.051105	-0.009094
	O321	O	0.986788	1.002688	0.022273
	H322	H	1.000695	0.997627	0.028562
	H323	H	0.985128	1.002159	0.026601
