data_Molecule from HDF5

_cell_length_a		16.202411
_cell_length_b		16.289294
_cell_length_c		16.305984
_cell_angle_alpha	89.810478
_cell_angle_beta	89.335487
_cell_angle_gamma	90.237496
_symmetry_space_group_name_H-M	'P 1'
_symmetry_Int_Tables_number		1

loop_
	_symmetry_equiv_pos_as_xyz
	x,y,z

loop_
	_atom_site_label
	_atom_site_type_symbol
	_atom_site_fract_x
	_atom_site_fract_y
	_atom_site_fract_z
	H0	H	0.398189	0.845455	0.704124
	H1	H	0.601116	0.170767	0.694975
	H2	H	0.603904	0.844822	0.265594
	H3	H	0.402723	0.170871	0.267705
	H4	H	0.720377	0.410326	0.820589
	H5	H	0.718265	0.609388	0.146252
	H6	H	0.292304	0.606819	0.818258
	H7	H	0.285294	0.408176	0.145038
	H8	H	0.839339	0.721979	0.382648
	H9	H	0.166157	0.723129	0.580457
	H10	H	0.839997	0.290746	0.585876
	H11	H	0.166950	0.290940	0.381488
	H12	H	0.841320	0.403023	0.702717
	H13	H	0.167957	0.606640	0.694720
	H14	H	0.838762	0.605740	0.269398
	H15	H	0.166557	0.406530	0.265272
	H16	H	0.405094	0.725036	0.820698
	H17	H	0.602971	0.724845	0.145868
	H18	H	0.605785	0.293048	0.820945
	H19	H	0.400032	0.291345	0.146196
	H20	H	0.719216	0.843728	0.382104
	H21	H	0.716754	0.169695	0.580385
	H22	H	0.285329	0.843370	0.585995
	H23	H	0.288673	0.171007	0.386279
	H24	H	0.901768	0.344179	0.199399
	H25	H	0.102848	0.669830	0.198027
	H26	H	0.105381	0.342813	0.767281
	H27	H	0.907289	0.668747	0.766761
	H28	H	0.220060	0.908285	0.321366
	H29	H	0.214445	0.103148	0.648947
	H30	H	0.792242	0.103606	0.319903
	H31	H	0.784159	0.905029	0.646224
	H32	H	0.339007	0.222908	0.886249
	H33	H	0.666345	0.222981	0.080032
	H34	H	0.339129	0.790432	0.086584
	H35	H	0.667445	0.794772	0.881935
	H36	H	0.339533	0.906155	0.202457
	H37	H	0.666439	0.109024	0.196428
	H38	H	0.337831	0.106717	0.771819
	H39	H	0.666076	0.910323	0.765806
	H40	H	0.906666	0.221227	0.321324
	H41	H	0.102276	0.222323	0.646876
	H42	H	0.103943	0.792209	0.319837
	H43	H	0.897864	0.787122	0.645394
	H44	H	0.218789	0.343538	0.884870
	H45	H	0.216128	0.671840	0.078184
	H46	H	0.785380	0.345285	0.084041
	H47	H	0.793055	0.671385	0.885127
	H48	H	0.412072	0.119613	0.566992
	H49	H	0.588960	0.890853	0.577707
	H50	H	0.594630	0.122871	0.388615
	H51	H	0.418486	0.890408	0.379526
	H52	H	0.600675	0.413870	0.102844
	H53	H	0.601510	0.600990	0.866179
	H54	H	0.403023	0.595734	0.099632
	H55	H	0.409865	0.414095	0.865624
	H56	H	0.118667	0.596654	0.388229
	H57	H	0.887647	0.593760	0.574081
	H58	H	0.117315	0.416121	0.562416
	H59	H	0.887458	0.413914	0.394956
	H60	H	0.120472	0.421778	0.582144
	H61	H	0.886800	0.594326	0.579049
	H62	H	0.120349	0.601476	0.389774
	H63	H	0.885650	0.414436	0.390982
	H64	H	0.415645	0.597364	0.096731
	H65	H	0.595413	0.598506	0.869261
	H66	H	0.591371	0.422987	0.096433
	H67	H	0.414348	0.418463	0.868410
	H68	H	0.597372	0.122446	0.392106
	H69	H	0.592187	0.890727	0.572119
	H70	H	0.397393	0.127057	0.579363
	H71	H	0.420270	0.898106	0.404116
	H72	H	0.909127	0.627594	0.085706
	H73	H	0.089933	0.393674	0.071527
	H74	H	0.089914	0.621810	0.886204
	H75	H	0.911841	0.388847	0.887106
	H76	H	0.091490	0.917206	0.598995
	H77	H	0.091487	0.103708	0.368836
	H78	H	0.909682	0.101833	0.601993
	H79	H	0.915899	0.919016	0.370209
	H80	H	0.618211	0.096572	0.888024
	H81	H	0.384508	0.101310	0.077411
	H82	H	0.619145	0.919867	0.076280
	H83	H	0.385044	0.908837	0.895884
	H84	H	0.621162	0.911954	0.077134
	H85	H	0.386414	0.098675	0.073436
	H86	H	0.622027	0.103464	0.882452
	H87	H	0.389269	0.920613	0.899373
	H88	H	0.904428	0.097336	0.601608
	H89	H	0.103537	0.100732	0.365503
	H90	H	0.088474	0.909101	0.599970
	H91	H	0.914112	0.905957	0.365958
	H92	H	0.101966	0.622163	0.893840
	H93	H	0.099328	0.390784	0.071824
	H94	H	0.918799	0.621469	0.075323
	H95	H	0.916566	0.392726	0.895189
	H96	H	0.416375	0.124099	0.586241
	H97	H	0.595210	0.888736	0.577513
	H98	H	0.598627	0.124181	0.388582
	H99	H	0.398357	0.888927	0.395840
	H100	H	0.587619	0.409657	0.099493
	H101	H	0.596230	0.605322	0.867155
	H102	H	0.408825	0.607071	0.100607
	H103	H	0.415912	0.411953	0.867357
	H104	H	0.117905	0.597883	0.392987
	H105	H	0.886934	0.597478	0.575665
	H106	H	0.125157	0.402579	0.576157
	H107	H	0.885990	0.410767	0.392058
	H108	H	0.905381	0.624000	0.071098
	H109	H	0.093350	0.389593	0.079874
	H110	H	0.102576	0.625982	0.880331
	H111	H	0.906576	0.389906	0.895820
	H112	H	0.096233	0.910911	0.600870
	H113	H	0.095596	0.092338	0.370982
	H114	H	0.911234	0.095475	0.598460
	H115	H	0.903554	0.914525	0.365318
	H116	H	0.620273	0.105269	0.891522
	H117	H	0.386293	0.096606	0.078114
	H118	H	0.618261	0.915304	0.070688
	H119	H	0.385164	0.918702	0.887913
	C120	C	0.378923	0.015559	0.607395
	C121	C	0.621781	0.998006	0.603720
	C122	C	0.625721	0.015682	0.360137
	C123	C	0.382368	0.999685	0.363357
	C124	C	0.624463	0.386722	-0.008009
	C125	C	0.626237	0.630595	0.974871
	C126	C	0.382046	0.629084	-0.008972
	C127	C	0.382080	0.385568	0.974578
	C128	C	0.010878	0.627387	0.361558
	C129	C	0.994976	0.626288	0.604144
	C130	C	0.012676	0.383895	0.604794
	C131	C	0.994575	0.384473	0.362105
	C132	C	0.880851	0.516532	0.106354
	C133	C	0.123884	0.498869	0.103318
	C134	C	0.127101	0.515342	0.859038
	C135	C	0.883670	0.498240	0.862803
	C136	C	0.123485	0.884159	0.492295
	C137	C	0.125118	0.127745	0.476098
	C138	C	0.881691	0.127082	0.492715
	C139	C	0.880003	0.883273	0.474822
	C140	C	0.511672	0.130420	0.860682
	C141	C	0.494057	0.128827	0.104388
	C142	C	0.511224	0.885864	0.105476
	C143	C	0.494704	0.887542	0.863463
	C144	C	0.378960	0.893791	0.665190
	C145	C	0.620610	0.121510	0.657662
	C146	C	0.624065	0.893269	0.303764
	C147	C	0.383364	0.122166	0.306733
	C148	C	0.681646	0.389875	0.869329
	C149	C	0.680716	0.629100	0.097447
	C150	C	0.328836	0.627076	0.867793
	C151	C	0.324214	0.387819	0.096650
	C152	C	0.888059	0.683725	0.362961
	C153	C	0.117466	0.684392	0.601075
	C154	C	0.889187	0.328354	0.605208
	C155	C	0.117837	0.328977	0.362264
	C156	C	0.890031	0.384434	0.663424
	C157	C	0.118547	0.626200	0.657726
	C158	C	0.887719	0.625834	0.306664
	C159	C	0.117643	0.386489	0.304316
	C160	C	0.384899	0.686065	0.868788
	C161	C	0.623088	0.686380	0.097304
	C162	C	0.624702	0.331421	0.869486
	C163	C	0.381323	0.329734	0.097185
	C164	C	0.680860	0.892543	0.362269
	C165	C	0.678328	0.120914	0.600573
	C166	C	0.322858	0.892792	0.606283
	C167	C	0.326666	0.122153	0.365725
	C168	C	0.881999	0.393123	0.161434
	C169	C	0.122716	0.621510	0.159501
	C170	C	0.125618	0.391980	0.804700
	C171	C	0.886902	0.620583	0.805807
	C172	C	0.181354	0.887632	0.369910
	C173	C	0.177812	0.124346	0.599741
	C174	C	0.828748	0.124775	0.369226
	C175	C	0.822450	0.884430	0.597193
	C176	C	0.387867	0.184955	0.865282
	C177	C	0.617563	0.184797	0.100913
	C178	C	0.388249	0.828809	0.105818
	C179	C	0.618285	0.832790	0.862856
	C180	C	0.388192	0.886572	0.163408
	C181	C	0.617584	0.127896	0.158587
	C182	C	0.387304	0.127475	0.808290
	C183	C	0.617480	0.889762	0.804785
	C184	C	0.885711	0.182904	0.369734
	C185	C	0.122232	0.183660	0.598587
	C186	C	0.123396	0.830120	0.368911
	C187	C	0.879537	0.826173	0.596828
	C188	C	0.181686	0.392244	0.863434
	C189	C	0.178935	0.622421	0.099844
	C190	C	0.824016	0.393873	0.104270
	C191	C	0.830068	0.621866	0.864476
	C192	C	0.401807	0.101358	0.584379
	C193	C	0.598673	0.912342	0.582219
	C194	C	0.603507	0.101070	0.382847
	C195	C	0.405516	0.914387	0.386347
	C196	C	0.600250	0.408904	0.077418
	C197	C	0.604293	0.608172	0.889534
	C198	C	0.403129	0.606660	0.076797
	C199	C	0.406360	0.408151	0.889124
	C200	C	0.096653	0.605081	0.383564
	C201	C	0.909239	0.602336	0.582490
	C202	C	0.098708	0.407009	0.580587
	C203	C	0.908661	0.406516	0.385812
	C204	C	0.904157	0.602132	0.084001
	C205	C	0.100824	0.413526	0.081020
	C206	C	0.104753	0.601202	0.880541
	C207	C	0.905388	0.412738	0.885884
	C208	C	0.099171	0.905913	0.577814
	C209	C	0.103633	0.105380	0.390750
	C210	C	0.902387	0.104928	0.578470
	C211	C	0.904087	0.906398	0.389066
	C212	C	0.597904	0.108313	0.881371
	C213	C	0.407987	0.105643	0.082828
	C214	C	0.597387	0.908876	0.081757
	C215	C	0.408782	0.909564	0.887598
	Zn216	Zn	0.501884	0.008092	0.734051
	Zn217	Zn	0.503011	0.008268	0.232808
	Zn218	Zn	0.753701	0.508719	-0.015999
	Zn219	Zn	0.253813	0.507786	-0.018155
	Zn220	Zn	0.002223	0.754887	0.482697
	Zn221	Zn	0.003248	0.255944	0.484307
	Zn222	Zn	0.004786	0.505333	0.732518
	Zn223	Zn	0.002672	0.506633	0.233362
	Zn224	Zn	0.503644	0.757925	-0.016678
	Zn225	Zn	0.503122	0.256867	-0.016553
	Zn226	Zn	0.752064	0.006130	0.483292
	Zn227	Zn	0.252698	0.006391	0.484776
	N228	N	0.413297	0.971291	0.665857
	N229	N	0.586119	0.044234	0.659766
	N230	N	0.590560	0.970706	0.302428
	N231	N	0.417508	0.045005	0.305284
	N232	N	0.681618	0.423683	0.946507
	N233	N	0.682534	0.594914	0.020526
	N234	N	0.327022	0.592358	0.944880
	N235	N	0.324506	0.421821	0.019365
	N236	N	0.965535	0.684778	0.396352
	N237	N	0.039599	0.684553	0.568435
	N238	N	0.966441	0.327875	0.569360
	N239	N	0.040363	0.327582	0.397492
	N240	N	0.967996	0.418413	0.663073
	N241	N	0.041362	0.590686	0.659633
	N242	N	0.965220	0.591547	0.305452
	N243	N	0.039970	0.420335	0.304040
	N244	N	0.417243	0.687490	0.946350
	N245	N	0.589795	0.687381	0.020007
	N246	N	0.589790	0.329294	0.946781
	N247	N	0.416683	0.328347	0.020102
	N248	N	0.682253	0.969657	0.396503
	N249	N	0.679087	0.043212	0.567388
	N250	N	0.322909	0.969492	0.571008
	N251	N	0.325857	0.044849	0.400069
	N252	N	0.916471	0.470368	0.162887
	N253	N	0.089318	0.543702	0.161940
	N254	N	0.092465	0.469588	0.801869
	N255	N	0.919683	0.542733	0.804713
	N256	N	0.181632	0.920295	0.447695
	N257	N	0.179737	0.090528	0.522569
	N258	N	0.826095	0.090720	0.446461
	N259	N	0.822647	0.919101	0.520254
	N260	N	0.466236	0.187088	0.896933
	N261	N	0.539825	0.185426	0.068035
	N262	N	0.465875	0.828252	0.070565
	N263	N	0.540933	0.831329	0.898656
	N264	N	0.465779	0.921082	0.163306
	N265	N	0.539716	0.093859	0.160817
	N266	N	0.465204	0.094364	0.805084
	N267	N	0.539651	0.923201	0.805177
	N268	N	0.917671	0.184458	0.447578
	N269	N	0.089965	0.185805	0.520774
	N270	N	0.088210	0.827682	0.445955
	N271	N	0.914489	0.825179	0.519361
	N272	N	0.183110	0.469975	0.896129
	N273	N	0.179678	0.545350	0.065632
	N274	N	0.823332	0.471591	0.070773
	N275	N	0.827975	0.544924	0.899252
	O276	O	-0.583154	-0.352414	0.367873
	H277	H	-0.572888	-0.364634	0.367730
	H278	H	-0.587883	-0.344822	0.363181
	O279	O	0.477365	0.453797	0.540708
	H280	H	0.485744	0.472695	0.532173
	H281	H	0.467526	0.449552	0.551337
	O282	O	0.573972	0.477735	0.447607
	H283	H	0.577492	0.475354	0.450043
	H284	H	0.558004	0.496278	0.436965
	O285	O	-0.058655	0.990728	1.039871
	H286	H	-0.069061	0.992961	1.057786
	H287	H	-0.061862	0.981023	1.040915
	O288	O	0.426209	0.365577	0.533938
	H289	H	0.423993	0.369739	0.531515
	H290	H	0.419863	0.362974	0.543509
	O291	O	0.807578	1.174921	1.158232
	H292	H	0.807480	1.169022	1.166561
	H293	H	0.808891	1.168359	1.159651
	O294	O	1.091357	0.960550	0.983860
	H295	H	1.096837	0.964409	0.976456
	H296	H	1.097712	0.951700	0.974688
	O297	O	1.020875	-0.033326	0.969984
	H298	H	1.023435	-0.034916	0.956779
	H299	H	1.028760	-0.042145	0.980282
	O300	O	0.629415	0.485629	0.538835
	H301	H	0.617297	0.500354	0.552094
	H302	H	0.639667	0.481080	0.541156
	O303	O	1.068906	-0.018243	0.033347
	H304	H	1.080196	-0.008380	0.037242
	H305	H	1.060755	-0.020995	0.038882
	O306	O	-0.036632	0.986716	0.993027
	H307	H	-0.029637	0.987098	0.987785
	H308	H	-0.041462	0.981418	0.993512
	O309	O	0.488228	0.640040	0.407966
	H310	H	0.481738	0.644557	0.409578
	H311	H	0.485469	0.640637	0.397014
	O312	O	1.003998	-0.029491	0.930394
	H313	H	1.001968	-0.036906	0.930817
	H314	H	1.017178	-0.032460	0.921792
	O315	O	0.546423	0.462537	0.349456
	H316	H	0.543257	0.467202	0.355124
	H317	H	0.557070	0.452506	0.332202
	O318	O	0.090962	-0.019771	1.075247
	H319	H	0.086157	-0.013446	1.072184
	H320	H	0.090711	-0.005885	1.072899
	O321	O	1.502523	0.646885	1.423350
	H322	H	1.511720	0.650106	1.416978
	H323	H	1.490230	0.646480	1.412387
	O324	O	0.563704	0.455383	0.421941
	H325	H	0.553028	0.459757	0.418718
	H326	H	0.557241	0.450187	0.413357
	O327	O	0.555516	0.399126	0.338201
	H328	H	0.563654	0.401786	0.340776
	H329	H	0.551841	0.392947	0.331066
	O330	O	0.469386	-0.627911	0.573656
	H331	H	0.476671	-0.634980	0.570977
	H332	H	0.465347	-0.627798	0.565081
	O333	O	1.021661	0.983547	-0.003215
	H334	H	1.017213	0.978894	-0.006926
	H335	H	1.019787	0.993292	0.008074
	O336	O	0.616851	0.578324	0.573909
	H337	H	0.635710	0.585293	0.570995
	H338	H	0.625625	0.576253	0.570527
	O339	O	0.427144	0.473021	0.657713
	H340	H	0.417692	0.465974	0.641432
	H341	H	0.414031	0.470930	0.659453
	O342	O	0.383214	1.433869	0.433020
	H343	H	0.386991	1.430437	0.436456
	H344	H	0.380567	1.437518	0.443371
	O345	O	0.526614	0.601927	0.479766
	H346	H	0.532491	0.602437	0.492075
	H347	H	0.523513	0.618788	0.479893
	O348	O	0.400751	0.592777	0.503433
	H349	H	0.395305	0.585809	0.494260
	H350	H	0.408930	0.605137	0.496385
	O351	O	-0.628935	0.490641	0.418605
	H352	H	-0.618750	0.480705	0.428159
	H353	H	-0.639488	0.482143	0.416393
	O354	O	0.606868	0.429277	0.466008
	H355	H	0.613630	0.446054	0.473821
	H356	H	0.601786	0.431191	0.465240
	O357	O	0.360883	0.491786	0.603060
	H358	H	0.356362	0.488096	0.616810
	H359	H	0.357855	0.489108	0.597225
	O360	O	-0.063935	0.007719	0.004412
	H361	H	-0.062305	0.009010	-0.001610
	H362	H	-0.067986	0.006386	0.014210
	O363	O	0.512167	0.591723	0.608010
	H364	H	0.518185	0.583713	0.616698
	H365	H	0.524399	0.582562	0.613782
	O366	O	0.030681	0.009870	0.987012
	H367	H	0.039702	0.001027	0.991287
	H368	H	0.030320	0.007909	0.985596
	O369	O	0.676490	0.672399	0.538310
	H370	H	0.681705	0.671223	0.521192
	H371	H	0.674806	0.667228	0.549359
