data_Molecule from HDF5

_cell_length_a		16.326346
_cell_length_b		16.295088
_cell_length_c		16.244629
_cell_angle_alpha	90.041914
_cell_angle_beta	90.012399
_cell_angle_gamma	89.919509
_symmetry_space_group_name_H-M	'P 1'
_symmetry_Int_Tables_number		1

loop_
	_symmetry_equiv_pos_as_xyz
	x,y,z

loop_
	_atom_site_label
	_atom_site_type_symbol
	_atom_site_fract_x
	_atom_site_fract_y
	_atom_site_fract_z
	H0	H	0.403107	0.835824	0.713197
	H1	H	0.596362	0.163536	0.713389
	H2	H	0.596603	0.836009	0.286508
	H3	H	0.402683	0.163541	0.286857
	H4	H	0.714987	0.401467	0.836124
	H5	H	0.713034	0.598014	0.164358
	H6	H	0.286283	0.597209	0.835477
	H7	H	0.286477	0.402220	0.163912
	H8	H	0.836399	0.716115	0.401066
	H9	H	0.162978	0.715676	0.599292
	H10	H	0.836257	0.286476	0.597565
	H11	H	0.163462	0.285575	0.401706
	H12	H	0.836970	0.402347	0.714897
	H13	H	0.163766	0.597482	0.713614
	H14	H	0.835678	0.597366	0.286597
	H15	H	0.163941	0.403648	0.287371
	H16	H	0.402206	0.712411	0.835672
	H17	H	0.597560	0.713879	0.163964
	H18	H	0.598354	0.285364	0.835891
	H19	H	0.403492	0.287088	0.164390
	H20	H	0.715280	0.836809	0.400340
	H21	H	0.715137	0.163436	0.599425
	H22	H	0.285226	0.836874	0.599157
	H23	H	0.285062	0.163227	0.401386
	H24	H	0.904125	0.335369	0.212263
	H25	H	0.095803	0.664263	0.213116
	H26	H	0.098010	0.336443	0.786578
	H27	H	0.902315	0.664231	0.786502
	H28	H	0.214696	0.901250	0.336562
	H29	H	0.214111	0.098880	0.663984
	H30	H	0.785565	0.098944	0.336682
	H31	H	0.785990	0.901618	0.664082
	H32	H	0.336984	0.215472	0.900475
	H33	H	0.663176	0.214055	0.098199
	H34	H	0.336193	0.786725	0.096490
	H35	H	0.663307	0.784581	0.901133
	H36	H	0.336235	0.902735	0.213461
	H37	H	0.662879	0.097228	0.214278
	H38	H	0.336324	0.098042	0.786034
	H39	H	0.664203	0.902942	0.786560
	H40	H	0.903086	0.213017	0.335605
	H41	H	0.098008	0.214884	0.663641
	H42	H	0.098308	0.785658	0.336569
	H43	H	0.902985	0.786789	0.663859
	H44	H	0.214076	0.336367	0.902354
	H45	H	0.213600	0.664171	0.098444
	H46	H	0.784406	0.336361	0.099340
	H47	H	0.785265	0.663609	0.902277
	H48	H	0.416372	0.112253	0.587249
	H49	H	0.605924	0.881541	0.587796
	H50	H	0.605879	0.118336	0.413611
	H51	H	0.404264	0.881809	0.404855
	H52	H	0.588996	0.413204	0.114069
	H53	H	0.596782	0.582981	0.884508
	H54	H	0.410585	0.590641	0.114456
	H55	H	0.412315	0.404623	0.884611
	H56	H	0.119867	0.600890	0.401162
	H57	H	0.880846	0.599526	0.597114
	H58	H	0.116355	0.400402	0.587071
	H59	H	0.880125	0.402095	0.401082
	H60	H	0.113662	0.413975	0.592209
	H61	H	0.885309	0.594506	0.585959
	H62	H	0.114002	0.596081	0.415423
	H63	H	0.884744	0.403010	0.412463
	H64	H	0.407229	0.599348	0.118465
	H65	H	0.583091	0.593388	0.885503
	H66	H	0.590044	0.400046	0.117736
	H67	H	0.402338	0.402449	0.880907
	H68	H	0.592340	0.120375	0.393528
	H69	H	0.592310	0.880422	0.604517
	H70	H	0.396499	0.117126	0.586750
	H71	H	0.407970	0.883189	0.405495
	H72	H	0.905897	0.616331	0.092780
	H73	H	0.089980	0.385196	0.093077
	H74	H	0.092649	0.617739	0.902911
	H75	H	0.904465	0.385088	0.912819
	H76	H	0.090755	0.910878	0.615152
	H77	H	0.107981	0.087215	0.381016
	H78	H	0.910824	0.088860	0.614820
	H79	H	0.910510	0.895347	0.380000
	H80	H	0.615472	0.096209	0.912027
	H81	H	0.384256	0.090524	0.095339
	H82	H	0.614996	0.910751	0.094108
	H83	H	0.385028	0.901493	0.914428
	H84	H	0.618878	0.902555	0.098615
	H85	H	0.381196	0.097666	0.095486
	H86	H	0.614718	0.086772	0.905907
	H87	H	0.385982	0.915249	0.905825
	H88	H	0.909045	0.099254	0.618435
	H89	H	0.082848	0.083480	0.388984
	H90	H	0.091116	0.903773	0.617360
	H91	H	0.894291	0.910197	0.380552
	H92	H	0.090988	0.615187	0.910142
	H93	H	0.096112	0.383937	0.089710
	H94	H	0.904255	0.616846	0.093669
	H95	H	0.903769	0.381819	0.903257
	H96	H	0.407010	0.119564	0.604185
	H97	H	0.585081	0.888372	0.585592
	H98	H	0.582910	0.111501	0.414193
	H99	H	0.405418	0.883231	0.408013
	H100	H	0.601014	0.407749	0.118787
	H101	H	0.597867	0.599827	0.879492
	H102	H	0.401100	0.591792	0.118778
	H103	H	0.404762	0.412696	0.884150
	H104	H	0.113712	0.585352	0.402960
	H105	H	0.884524	0.587685	0.596682
	H106	H	0.119346	0.403736	0.601325
	H107	H	0.884909	0.412547	0.404920
	H108	H	0.905883	0.616161	0.095078
	H109	H	0.095636	0.382132	0.096507
	H110	H	0.098005	0.617502	0.907850
	H111	H	0.912801	0.385548	0.906552
	H112	H	0.097387	0.908280	0.618338
	H113	H	0.090844	0.106978	0.379544
	H114	H	0.900791	0.091725	0.618722
	H115	H	0.914592	0.915579	0.387808
	H116	H	0.618918	0.096477	0.900856
	H117	H	0.384613	0.094668	0.088770
	H118	H	0.616051	0.902145	0.089494
	H119	H	0.380262	0.901707	0.898625
	C120	C	0.378602	0.008171	0.621564
	C121	C	0.621781	0.991389	0.621500
	C122	C	0.621468	0.008512	0.378919
	C123	C	0.377869	0.991102	0.378316
	C124	C	0.621421	0.378319	0.008290
	C125	C	0.620971	0.620733	0.991630
	C126	C	0.377849	0.621860	0.008597
	C127	C	0.378783	0.378652	0.991862
	C128	C	0.007760	0.621959	0.378407
	C129	C	0.991638	0.621886	0.621581
	C130	C	0.008162	0.378289	0.621680
	C131	C	0.991440	0.377829	0.378212
	C132	C	0.878192	0.508095	0.121677
	C133	C	0.121585	0.491948	0.121289
	C134	C	0.121816	0.508565	0.878888
	C135	C	0.878682	0.492202	0.879032
	C136	C	0.121642	0.878946	0.508732
	C137	C	0.122017	0.121625	0.491381
	C138	C	0.878723	0.121725	0.508697
	C139	C	0.878705	0.878831	0.491350
	C140	C	0.508266	0.121526	0.877867
	C141	C	0.491242	0.121696	0.121467
	C142	C	0.508224	0.878021	0.121343
	C143	C	0.492074	0.877895	0.877830
	C144	C	0.381833	0.885030	0.676006
	C145	C	0.617984	0.114770	0.676223
	C146	C	0.617530	0.884836	0.324372
	C147	C	0.381227	0.114529	0.323927
	C148	C	0.676863	0.380704	0.884931
	C149	C	0.675386	0.618268	0.115378
	C150	C	0.323985	0.617912	0.884727
	C151	C	0.324222	0.381508	0.115101
	C152	C	0.884819	0.677386	0.381083
	C153	C	0.114561	0.676834	0.619048
	C154	C	0.885351	0.323955	0.618492
	C155	C	0.114827	0.323897	0.381543
	C156	C	0.885323	0.381856	0.676554
	C157	C	0.114733	0.618561	0.676233
	C158	C	0.884569	0.618377	0.324141
	C159	C	0.114959	0.382140	0.324453
	C160	C	0.381325	0.675570	0.884751
	C161	C	0.617810	0.675702	0.115234
	C162	C	0.618633	0.323573	0.884663
	C163	C	0.382271	0.324254	0.115214
	C164	C	0.676495	0.885304	0.380876
	C165	C	0.676796	0.114648	0.619653
	C166	C	0.323535	0.885323	0.619070
	C167	C	0.323343	0.114440	0.381326
	C168	C	0.882465	0.384200	0.175335
	C169	C	0.117500	0.615182	0.175886
	C170	C	0.118487	0.385196	0.824460
	C171	C	0.881486	0.615271	0.824129
	C172	C	0.176630	0.881207	0.385429
	C173	C	0.176045	0.119035	0.615156
	C174	C	0.823689	0.119062	0.385366
	C175	C	0.823585	0.881262	0.614838
	C176	C	0.385625	0.177039	0.880462
	C177	C	0.614487	0.176077	0.118671
	C178	C	0.385042	0.824079	0.117749
	C179	C	0.614739	0.822949	0.880653
	C180	C	0.384999	0.881645	0.175709
	C181	C	0.614375	0.118293	0.176363
	C182	C	0.385255	0.118941	0.823288
	C183	C	0.615094	0.881630	0.823741
	C184	C	0.882046	0.175763	0.384997
	C185	C	0.118407	0.176576	0.614877
	C186	C	0.118825	0.823827	0.385289
	C187	C	0.881971	0.824540	0.615072
	C188	C	0.176306	0.385281	0.881885
	C189	C	0.175862	0.615241	0.118814
	C190	C	0.823293	0.384879	0.119115
	C191	C	0.823009	0.615031	0.881223
	C192	C	0.400291	0.094199	0.599236
	C193	C	0.600606	0.905582	0.599339
	C194	C	0.600067	0.094476	0.400605
	C195	C	0.399521	0.904963	0.399721
	C196	C	0.599665	0.400436	0.094382
	C197	C	0.599170	0.598481	0.905460
	C198	C	0.399712	0.600365	0.094985
	C199	C	0.400222	0.400372	0.905441
	C200	C	0.093632	0.600525	0.400203
	C201	C	0.905719	0.600395	0.599615
	C202	C	0.094346	0.399754	0.600013
	C203	C	0.905473	0.399423	0.399727
	C204	C	0.899235	0.594205	0.100246
	C205	C	0.100207	0.405784	0.099437
	C206	C	0.100259	0.594735	0.900577
	C207	C	0.900574	0.406424	0.901117
	C208	C	0.099520	0.901157	0.594674
	C209	C	0.100269	0.099367	0.405146
	C210	C	0.900458	0.099808	0.595153
	C211	C	0.900144	0.900573	0.405039
	C212	C	0.594124	0.099552	0.899769
	C213	C	0.405548	0.100362	0.099688
	C214	C	0.594328	0.898973	0.100364
	C215	C	0.405928	0.899776	0.899869
	Zn216	Zn	0.499928	-0.000294	0.749732
	Zn217	Zn	0.499611	-0.000273	0.250149
	Zn218	Zn	0.749652	0.499871	0.000338
	Zn219	Zn	0.250585	0.500117	-0.000074
	Zn220	Zn	0.000216	0.750893	0.500061
	Zn221	Zn	0.000363	0.249493	0.499717
	Zn222	Zn	0.000331	0.500368	0.750216
	Zn223	Zn	-0.000167	0.499823	0.249890
	Zn224	Zn	0.499996	0.749268	-0.000468
	Zn225	Zn	0.499850	0.250074	-0.000265
	Zn226	Zn	0.750680	0.000249	0.500066
	Zn227	Zn	0.250181	0.000009	0.500198
	N228	N	0.415102	0.962294	0.677742
	N229	N	0.584459	0.037350	0.677274
	N230	N	0.583913	0.962335	0.323005
	N231	N	0.414740	0.037035	0.322273
	N232	N	0.678623	0.414229	0.962692
	N233	N	0.677450	0.584887	0.037615
	N234	N	0.322004	0.585320	0.962801
	N235	N	0.322030	0.414679	0.037351
	N236	N	0.962418	0.679630	0.414169
	N237	N	0.036939	0.679205	0.585934
	N238	N	0.962695	0.321952	0.584966
	N239	N	0.037292	0.321251	0.414153
	N240	N	0.962798	0.414906	0.678577
	N241	N	0.037512	0.584973	0.677726
	N242	N	0.961876	0.584791	0.322263
	N243	N	0.037314	0.415119	0.322276
	N244	N	0.414119	0.678135	0.962706
	N245	N	0.584571	0.677314	0.037398
	N246	N	0.584964	0.322062	0.962286
	N247	N	0.415336	0.322493	0.037416
	N248	N	0.678844	0.962850	0.414172
	N249	N	0.679327	0.037172	0.586151
	N250	N	0.321767	0.962898	0.585694
	N251	N	0.321073	0.036724	0.414355
	N252	N	0.915791	0.461602	0.176980
	N253	N	0.084435	0.537479	0.177480
	N254	N	0.085230	0.462753	0.822536
	N255	N	0.915106	0.537827	0.822401
	N256	N	0.178484	0.914575	0.463155
	N257	N	0.178222	0.085382	0.537484
	N258	N	0.821637	0.086123	0.463287
	N259	N	0.821848	0.914678	0.537103
	N260	N	0.463103	0.178558	0.913874
	N261	N	0.537189	0.178197	0.085140
	N262	N	0.462484	0.821826	0.084668
	N263	N	0.537028	0.820428	0.913506
	N264	N	0.462513	0.914546	0.178121
	N265	N	0.536924	0.085141	0.178228
	N266	N	0.462548	0.085368	0.821484
	N267	N	0.537769	0.915183	0.822302
	N268	N	0.915570	0.177343	0.462635
	N269	N	0.085509	0.178155	0.536965
	N270	N	0.085401	0.822171	0.462923
	N271	N	0.915398	0.822988	0.537410
	N272	N	0.178303	0.462930	0.915092
	N273	N	0.178568	0.537542	0.085779
	N274	N	0.820617	0.462768	0.086446
	N275	N	0.821372	0.537596	0.914770
