data_Molecule from HDF5

_cell_length_a		16.156798
_cell_length_b		16.345177
_cell_length_c		16.277719
_cell_angle_alpha	90.390722
_cell_angle_beta	90.314770
_cell_angle_gamma	90.123540
_symmetry_space_group_name_H-M	'P 1'
_symmetry_Int_Tables_number		1

loop_
	_symmetry_equiv_pos_as_xyz
	x,y,z

loop_
	_atom_site_label
	_atom_site_type_symbol
	_atom_site_fract_x
	_atom_site_fract_y
	_atom_site_fract_z
	H0	H	0.400506	0.844891	0.701467
	H1	H	0.603281	0.170119	0.705016
	H2	H	0.601683	0.845452	0.268028
	H3	H	0.398627	0.169404	0.269306
	H4	H	0.714416	0.408296	0.821954
	H5	H	0.719839	0.609664	0.149544
	H6	H	0.286336	0.604424	0.822571
	H7	H	0.288331	0.408615	0.149524
	H8	H	0.837373	0.720582	0.386486
	H9	H	0.165851	0.724189	0.589385
	H10	H	0.838246	0.290795	0.586805
	H11	H	0.165168	0.291268	0.385380
	H12	H	0.837846	0.407614	0.700302
	H13	H	0.165935	0.608210	0.702771
	H14	H	0.837854	0.604837	0.270814
	H15	H	0.165782	0.405241	0.270799
	H16	H	0.400136	0.722275	0.822797
	H17	H	0.606124	0.727722	0.148162
	H18	H	0.602683	0.289369	0.824149
	H19	H	0.398610	0.290471	0.147266
	H20	H	0.715325	0.844493	0.386991
	H21	H	0.717020	0.171135	0.586420
	H22	H	0.287789	0.843784	0.581925
	H23	H	0.285721	0.169708	0.386984
	H24	H	0.901955	0.344329	0.199646
	H25	H	0.103185	0.668899	0.204606
	H26	H	0.101979	0.345571	0.767890
	H27	H	0.901969	0.670377	0.770392
	H28	H	0.214644	0.907883	0.321748
	H29	H	0.217690	0.106922	0.649173
	H30	H	0.787903	0.103242	0.321752
	H31	H	0.788312	0.911735	0.650615
	H32	H	0.337442	0.222033	0.885034
	H33	H	0.665156	0.224663	0.087215
	H34	H	0.338345	0.792306	0.085093
	H35	H	0.666296	0.792669	0.885982
	H36	H	0.336495	0.910527	0.196256
	H37	H	0.665392	0.109398	0.202087
	H38	H	0.336994	0.105362	0.771122
	H39	H	0.666684	0.909148	0.772825
	H40	H	0.898726	0.223009	0.323603
	H41	H	0.102618	0.224721	0.648543
	H42	H	0.102246	0.789275	0.324014
	H43	H	0.902647	0.793611	0.650253
	H44	H	0.214736	0.343813	0.887301
	H45	H	0.217788	0.669970	0.086645
	H46	H	0.786767	0.343638	0.082628
	H47	H	0.786818	0.670968	0.887928
	H48	H	0.413535	0.123054	0.582218
	H49	H	0.589801	0.895266	0.574620
	H50	H	0.592259	0.120491	0.402569
	H51	H	0.410278	0.892353	0.390369
	H52	H	0.592643	0.408391	0.103957
	H53	H	0.592804	0.605676	0.868922
	H54	H	0.409967	0.603643	0.103746
	H55	H	0.402371	0.416123	0.867745
	H56	H	0.118905	0.596668	0.394914
	H57	H	0.889619	0.591411	0.571681
	H58	H	0.119094	0.414205	0.578354
	H59	H	0.880933	0.407293	0.390179
	H60	H	0.117284	0.416686	0.572865
	H61	H	0.881574	0.599379	0.588116
	H62	H	0.120676	0.601558	0.394736
	H63	H	0.887772	0.415389	0.399441
	H64	H	0.409662	0.598133	0.100960
	H65	H	0.597738	0.597751	0.869683
	H66	H	0.600748	0.421402	0.102817
	H67	H	0.414511	0.418845	0.871854
	H68	H	0.599858	0.126183	0.391464
	H69	H	0.599953	0.890885	0.577107
	H70	H	0.411359	0.121260	0.574934
	H71	H	0.406635	0.891018	0.391268
	H72	H	0.910587	0.624904	0.086055
	H73	H	0.090281	0.391364	0.083522
	H74	H	0.091751	0.624809	0.887052
	H75	H	0.910920	0.392203	0.888621
	H76	H	0.098922	0.913702	0.604036
	H77	H	0.100046	0.095378	0.369051
	H78	H	0.903846	0.099140	0.604455
	H79	H	0.897334	0.908227	0.366205
	H80	H	0.613923	0.088897	0.900553
	H81	H	0.383245	0.108828	0.072425
	H82	H	0.618638	0.915132	0.073537
	H83	H	0.383914	0.913709	0.890401
	H84	H	0.617761	0.921702	0.077691
	H85	H	0.388042	0.092421	0.073491
	H86	H	0.622998	0.099938	0.882542
	H87	H	0.384126	0.913123	0.893411
	H88	H	0.914859	0.096062	0.599964
	H89	H	0.086036	0.097382	0.371896
	H90	H	0.094914	0.920038	0.601583
	H91	H	0.909457	0.924728	0.373352
	H92	H	0.088477	0.619484	0.899167
	H93	H	0.093822	0.392801	0.072340
	H94	H	0.918029	0.619253	0.076806
	H95	H	0.909422	0.393024	0.895007
	H96	H	0.406780	0.124958	0.580449
	H97	H	0.592276	0.891293	0.584885
	H98	H	0.585752	0.122075	0.389912
	H99	H	0.408341	0.889824	0.387292
	H100	H	0.586260	0.421858	0.098194
	H101	H	0.589713	0.597923	0.871905
	H102	H	0.415040	0.601340	0.101059
	H103	H	0.411697	0.407281	0.868557
	H104	H	0.117712	0.599261	0.399211
	H105	H	0.883894	0.610616	0.571976
	H106	H	0.117646	0.419889	0.577513
	H107	H	0.885729	0.420194	0.387736
	H108	H	0.905536	0.622783	0.074179
	H109	H	0.101063	0.388602	0.080371
	H110	H	0.100866	0.624440	0.897914
	H111	H	0.904747	0.390795	0.890038
	H112	H	0.090637	0.913085	0.602106
	H113	H	0.093756	0.107863	0.366638
	H114	H	0.912701	0.107678	0.603552
	H115	H	0.919046	0.905087	0.370839
	H116	H	0.618854	0.111190	0.902720
	H117	H	0.381186	0.100461	0.086751
	H118	H	0.620467	0.915959	0.080921
	H119	H	0.384835	0.915992	0.892739
	C120	C	0.380758	0.015590	0.607250
	C121	C	0.623565	0.999861	0.608397
	C122	C	0.622287	0.015776	0.364410
	C123	C	0.379185	0.998826	0.362267
	C124	C	0.622592	0.386765	-0.005736
	C125	C	0.623895	0.630356	0.978166
	C126	C	0.380747	0.629449	-0.005674
	C127	C	0.379995	0.385361	0.977015
	C128	C	0.010505	0.627793	0.365777
	C129	C	0.993263	0.630029	0.607900
	C130	C	0.009769	0.387338	0.605928
	C131	C	0.992867	0.384670	0.363831
	C132	C	0.881015	0.515081	0.107013
	C133	C	0.124831	0.498118	0.108775
	C134	C	0.123058	0.515771	0.864492
	C135	C	0.879547	0.499534	0.863053
	C136	C	0.123567	0.885868	0.494604
	C137	C	0.123620	0.129447	0.477191
	C138	C	0.880175	0.129372	0.494641
	C139	C	0.879944	0.885066	0.478169
	C140	C	0.510375	0.128741	0.865308
	C141	C	0.492480	0.130418	0.107758
	C142	C	0.510450	0.888012	0.105872
	C143	C	0.493208	0.885833	0.863724
	C144	C	0.381723	0.893062	0.662441
	C145	C	0.622541	0.121875	0.665497
	C146	C	0.621257	0.894057	0.306679
	C147	C	0.379789	0.120965	0.307484
	C148	C	0.677356	0.388057	0.871138
	C149	C	0.681320	0.629431	0.100575
	C150	C	0.324067	0.625792	0.871577
	C151	C	0.325080	0.388344	0.099997
	C152	C	0.886905	0.683132	0.366438
	C153	C	0.116792	0.686003	0.608420
	C154	C	0.886878	0.330197	0.605493
	C155	C	0.116230	0.328920	0.365440
	C156	C	0.886850	0.388106	0.662081
	C157	C	0.116938	0.628322	0.664696
	C158	C	0.887097	0.625464	0.309030
	C159	C	0.116539	0.386021	0.308699
	C160	C	0.380744	0.684386	0.871810
	C161	C	0.624360	0.687766	0.100095
	C162	C	0.621596	0.328954	0.872221
	C163	C	0.380054	0.328985	0.099048
	C164	C	0.677686	0.893413	0.366170
	C165	C	0.679413	0.122257	0.606825
	C166	C	0.325144	0.892784	0.603334
	C167	C	0.323315	0.121078	0.366041
	C168	C	0.881885	0.392725	0.161866
	C169	C	0.123443	0.620473	0.165883
	C170	C	0.121379	0.393745	0.807145
	C171	C	0.881907	0.621902	0.808340
	C172	C	0.177550	0.887788	0.371161
	C173	C	0.179590	0.127638	0.600135
	C174	C	0.824510	0.125293	0.371253
	C175	C	0.825448	0.889621	0.601528
	C176	C	0.386461	0.183726	0.865766
	C177	C	0.615944	0.187247	0.107301
	C178	C	0.386984	0.831393	0.104247
	C179	C	0.617013	0.830470	0.865780
	C180	C	0.386062	0.890003	0.159748
	C181	C	0.616005	0.129899	0.164637
	C182	C	0.386258	0.125972	0.809013
	C183	C	0.617265	0.888335	0.809559
	C184	C	0.880075	0.184514	0.372071
	C185	C	0.122295	0.185901	0.599848
	C186	C	0.121947	0.828642	0.372342
	C187	C	0.882201	0.830929	0.601188
	C188	C	0.177588	0.392912	0.866559
	C189	C	0.180334	0.620904	0.107297
	C190	C	0.824566	0.392568	0.103612
	C191	C	0.824411	0.622033	0.866397
	C192	C	0.403702	0.100765	0.585615
	C193	C	0.600687	0.914451	0.585536
	C194	C	0.599363	0.101042	0.387777
	C195	C	0.401756	0.913161	0.383402
	C196	C	0.599877	0.410219	0.079690
	C197	C	0.600232	0.607154	0.892331
	C198	C	0.404582	0.607439	0.079932
	C199	C	0.402805	0.407533	0.891611
	C200	C	0.096703	0.605695	0.389416
	C201	C	0.907539	0.607046	0.584279
	C202	C	0.095653	0.410235	0.582992
	C203	C	0.906905	0.407582	0.385950
	C204	C	0.904469	0.600281	0.085313
	C205	C	0.101946	0.412930	0.085741
	C206	C	0.100497	0.600835	0.887923
	C207	C	0.901852	0.414082	0.884636
	C208	C	0.101382	0.908960	0.580253
	C209	C	0.100148	0.106690	0.391448
	C210	C	0.903648	0.107388	0.580513
	C211	C	0.902034	0.906441	0.392390
	C212	C	0.596332	0.106626	0.888528
	C213	C	0.406528	0.107242	0.084488
	C214	C	0.596579	0.910853	0.083947
	C215	C	0.406876	0.907791	0.885586
	Zn216	Zn	0.501716	0.007324	0.737034
	Zn217	Zn	0.500984	0.008365	0.234354
	Zn218	Zn	0.751414	0.507835	-0.013905
	Zn219	Zn	0.252524	0.507062	-0.013782
	Zn220	Zn	0.002041	0.756845	0.486969
	Zn221	Zn	0.001549	0.257604	0.485306
	Zn222	Zn	0.001944	0.508020	0.734593
	Zn223	Zn	0.002608	0.506084	0.237189
	Zn224	Zn	0.502173	0.758976	-0.014254
	Zn225	Zn	0.501141	0.257458	-0.013952
	Zn226	Zn	0.752140	0.007825	0.486210
	Zn227	Zn	0.251899	0.007071	0.485408
	N228	N	0.415743	0.970297	0.664995
	N229	N	0.588588	0.044657	0.666639
	N230	N	0.587413	0.971336	0.305606
	N231	N	0.413761	0.043875	0.305101
	N232	N	0.677996	0.423513	0.947907
	N233	N	0.680952	0.594253	0.023556
	N234	N	0.323720	0.592390	0.948864
	N235	N	0.324923	0.422716	0.023150
	N236	N	0.964614	0.684625	0.401188
	N237	N	0.038927	0.687267	0.573730
	N238	N	0.964398	0.329513	0.571147
	N239	N	0.038465	0.328062	0.399356
	N240	N	0.964063	0.423306	0.662135
	N241	N	0.039289	0.594267	0.664721
	N242	N	0.965054	0.591645	0.308538
	N243	N	0.038748	0.420088	0.307568
	N244	N	0.415152	0.686982	0.949307
	N245	N	0.589510	0.688392	0.022764
	N246	N	0.588131	0.327972	0.949814
	N247	N	0.413741	0.327308	0.021627
	N248	N	0.678386	0.970059	0.401511
	N249	N	0.680175	0.045316	0.572040
	N250	N	0.324354	0.969841	0.570056
	N251	N	0.322953	0.044145	0.399700
	N252	N	0.916276	0.469811	0.164177
	N253	N	0.089545	0.543141	0.166845
	N254	N	0.088271	0.471181	0.805823
	N255	N	0.915231	0.544505	0.805945
	N256	N	0.178547	0.922996	0.448256
	N257	N	0.180545	0.093309	0.522732
	N258	N	0.824344	0.091854	0.448619
	N259	N	0.823590	0.922284	0.523883
	N260	N	0.464321	0.185506	0.900152
	N261	N	0.537900	0.187984	0.073048
	N262	N	0.465215	0.829965	0.071604
	N263	N	0.538772	0.828478	0.898618
	N264	N	0.463837	0.924585	0.161009
	N265	N	0.538364	0.095441	0.165248
	N266	N	0.464212	0.092182	0.808572
	N267	N	0.539303	0.921985	0.808020
	N268	N	0.913739	0.187302	0.449994
	N269	N	0.088233	0.186992	0.522268
	N270	N	0.089146	0.827263	0.450092
	N271	N	0.915438	0.828216	0.523596
	N272	N	0.178647	0.469700	0.901675
	N273	N	0.181359	0.543979	0.072526
	N274	N	0.824024	0.469683	0.070255
	N275	N	0.822857	0.545071	0.899713
	O276	O	-0.505060	-0.440134	0.483029
	H277	H	-0.511983	-0.442527	0.481688
	H278	H	-0.507151	-0.434032	0.483449
	O279	O	0.551879	0.549807	0.358753
	H280	H	0.554200	0.552390	0.362921
	H281	H	0.548472	0.549064	0.355031
	O282	O	0.592570	0.569868	0.632591
	H283	H	0.599016	0.568434	0.635504
	H284	H	0.603668	0.576409	0.635048
	O285	O	0.008446	1.026800	1.006229
	H286	H	0.002516	1.023844	1.006204
	H287	H	-0.005117	1.028913	1.016272
	O288	O	0.451017	0.662520	0.432117
	H289	H	0.458235	0.663972	0.438055
	H290	H	0.447568	0.668057	0.445862
	O291	O	1.038326	1.041775	0.988112
	H292	H	1.035007	1.038940	0.992758
	H293	H	1.035616	1.052939	0.995904
	O294	O	1.034152	0.996767	0.892187
	H295	H	1.031660	1.000596	0.891093
	H296	H	1.038376	0.987729	0.883140
	O297	O	0.948595	-0.003894	1.024547
	H298	H	0.947581	-0.009707	1.029128
	H299	H	0.944992	-0.005703	1.021454
	O300	O	0.526737	0.587420	0.568483
	H301	H	0.517759	0.582880	0.555381
	H302	H	0.536082	0.596139	0.567408
	O303	O	1.068929	-0.020782	0.015661
	H304	H	1.069268	-0.028241	0.011882
	H305	H	1.080651	-0.023674	0.009744
	O306	O	0.073759	0.990798	1.018812
	H307	H	0.076285	0.995976	1.017310
	H308	H	0.079675	0.987037	1.019887
	O309	O	0.575355	0.448124	0.564419
	H310	H	0.560481	0.448154	0.574408
	H311	H	0.590910	0.447619	0.556647
	O312	O	1.018294	-0.013652	0.942443
	H313	H	1.025189	-0.017808	0.931218
	H314	H	1.026553	-0.007674	0.933679
	O315	O	0.530119	0.652840	0.606743
	H316	H	0.540067	0.654810	0.622937
	H317	H	0.539181	0.669190	0.614332
	O318	O	-0.048364	-0.042452	1.037625
	H319	H	-0.047695	-0.030904	1.042823
	H320	H	-0.046602	-0.052651	1.033096
	O321	O	1.417697	0.535899	1.482455
	H322	H	1.416882	0.532664	1.465024
	H323	H	1.423034	0.531415	1.482364
	O324	O	0.498638	0.484106	0.454402
	H325	H	0.492849	0.476620	0.460939
	H326	H	0.490345	0.476296	0.448990
	O327	O	0.378778	0.442663	0.440208
	H328	H	0.377237	0.443660	0.430592
	H329	H	0.381684	0.441014	0.436938
	O330	O	0.430201	-0.431806	0.433976
	H331	H	0.426609	-0.435066	0.434237
	H332	H	0.439292	-0.416669	0.444383
	O333	O	1.009872	1.015300	-0.012372
	H334	H	1.014137	1.017966	-0.006391
	H335	H	1.008185	1.011419	-0.009294
	O336	O	0.553224	0.424302	0.569788
	H337	H	0.539223	0.407904	0.562454
	H338	H	0.546869	0.424972	0.578979
	O339	O	0.453587	0.538275	0.479988
	H340	H	0.442832	0.545727	0.482326
	H341	H	0.455731	0.536547	0.478372
	O342	O	0.546502	1.505083	0.369477
	H343	H	0.537404	1.518499	0.368215
	H344	H	0.546059	1.496628	0.371746
	O345	O	0.600964	0.548977	0.410623
	H346	H	0.611926	0.544518	0.407745
	H347	H	0.600400	0.551942	0.415970
	O348	O	0.458640	0.397752	0.502127
	H349	H	0.458320	0.388526	0.498477
	H350	H	0.464468	0.404073	0.503971
	O351	O	-0.452573	0.394054	0.424135
	H352	H	-0.449125	0.384608	0.424565
	H353	H	-0.435067	0.402731	0.425031
	O354	O	0.473539	0.386111	0.415618
	H355	H	0.460595	0.376761	0.418600
	H356	H	0.479938	0.382752	0.418868
	O357	O	0.534317	0.443252	0.451742
	H358	H	0.534438	0.451142	0.446936
	H359	H	0.537431	0.436633	0.462720
	O360	O	-0.095016	0.033092	-0.033164
	H361	H	-0.092290	0.036208	-0.026641
	H362	H	-0.093561	0.038339	-0.034080
	O363	O	0.498250	0.457611	0.529834
	H364	H	0.495200	0.453239	0.530435
	H365	H	0.506578	0.463016	0.527691
	O366	O	-0.021070	-0.011165	0.990072
	H367	H	-0.017348	-0.010443	1.004371
	H368	H	-0.018918	-0.016712	0.993377
	O369	O	0.557922	0.516128	0.527520
	H370	H	0.561439	0.511197	0.519904
	H371	H	0.558054	0.513607	0.533237
