data_Molecule from HDF5

_cell_length_a		16.220733
_cell_length_b		16.418837
_cell_length_c		16.146821
_cell_angle_alpha	89.863355
_cell_angle_beta	90.011710
_cell_angle_gamma	90.003786
_symmetry_space_group_name_H-M	'P 1'
_symmetry_Int_Tables_number		1

loop_
	_symmetry_equiv_pos_as_xyz
	x,y,z

loop_
	_atom_site_label
	_atom_site_type_symbol
	_atom_site_fract_x
	_atom_site_fract_y
	_atom_site_fract_z
	H0	H	0.410457	0.829136	0.716011
	H1	H	0.605454	0.154951	0.713631
	H2	H	0.604288	0.829264	0.285760
	H3	H	0.407793	0.154636	0.283292
	H4	H	0.718205	0.395750	0.834373
	H5	H	0.719512	0.588749	0.164647
	H6	H	0.294720	0.589371	0.834032
	H7	H	0.295756	0.396909	0.165671
	H8	H	0.845234	0.709509	0.397023
	H9	H	0.171090	0.706621	0.601534
	H10	H	0.844915	0.273459	0.601921
	H11	H	0.170814	0.276410	0.399844
	H12	H	0.841638	0.394173	0.711995
	H13	H	0.172025	0.586281	0.712671
	H14	H	0.842319	0.588124	0.286724
	H15	H	0.171251	0.394401	0.286133
	H16	H	0.406478	0.708135	0.835300
	H17	H	0.607286	0.706673	0.163546
	H18	H	0.607037	0.277822	0.835477
	H19	H	0.407238	0.276956	0.163442
	H20	H	0.721917	0.829632	0.400989
	H21	H	0.724360	0.153563	0.599284
	H22	H	0.292929	0.829267	0.598993
	H23	H	0.292557	0.154508	0.400532
	H24	H	0.908656	0.328669	0.214680
	H25	H	0.106089	0.654046	0.215518
	H26	H	0.103857	0.327980	0.787597
	H27	H	0.908630	0.653585	0.783957
	H28	H	0.221600	0.894292	0.333895
	H29	H	0.221221	0.087205	0.664108
	H30	H	0.796072	0.089171	0.334985
	H31	H	0.794818	0.893452	0.664373
	H32	H	0.344595	0.207255	0.898875
	H33	H	0.671095	0.208474	0.100402
	H34	H	0.344704	0.775053	0.101305
	H35	H	0.670657	0.776237	0.898787
	H36	H	0.342207	0.895994	0.211338
	H37	H	0.672341	0.089344	0.212830
	H38	H	0.343110	0.087793	0.787682
	H39	H	0.673198	0.897364	0.788812
	H40	H	0.906830	0.207539	0.336848
	H41	H	0.108294	0.205487	0.664431
	H42	H	0.110141	0.774972	0.335812
	H43	H	0.908262	0.776175	0.663738
	H44	H	0.223082	0.329404	0.900957
	H45	H	0.222458	0.654011	0.098474
	H46	H	0.790883	0.329094	0.099485
	H47	H	0.790516	0.653606	0.899744
	H48	H	0.406382	0.109014	0.593450
	H49	H	0.603917	0.874281	0.598169
	H50	H	0.595440	0.108533	0.397260
	H51	H	0.424944	0.879797	0.404086
	H52	H	0.594590	0.395321	0.117101
	H53	H	0.593915	0.578378	0.884968
	H54	H	0.417087	0.596328	0.120263
	H55	H	0.413549	0.392227	0.879476
	H56	H	0.126443	0.594023	0.409533
	H57	H	0.889454	0.589732	0.589390
	H58	H	0.124685	0.400674	0.596543
	H59	H	0.885352	0.386886	0.403846
	H60	H	0.126409	0.391801	0.593569
	H61	H	0.891497	0.582403	0.587769
	H62	H	0.119785	0.578920	0.416814
	H63	H	0.894103	0.398290	0.419830
	H64	H	0.404332	0.579841	0.118560
	H65	H	0.594195	0.593435	0.880050
	H66	H	0.601875	0.397237	0.119638
	H67	H	0.409948	0.403467	0.881592
	H68	H	0.598418	0.103818	0.414296
	H69	H	0.596306	0.878159	0.594348
	H70	H	0.417972	0.108542	0.599491
	H71	H	0.410271	0.878142	0.416033
	H72	H	0.907234	0.608792	0.092401
	H73	H	0.099176	0.377478	0.087650
	H74	H	0.096830	0.605152	0.909225
	H75	H	0.917438	0.377336	0.909218
	H76	H	0.098416	0.899489	0.615506
	H77	H	0.098079	0.087342	0.381656
	H78	H	0.921246	0.088020	0.616997
	H79	H	0.915500	0.899388	0.382107
	H80	H	0.626845	0.089776	0.905036
	H81	H	0.394237	0.083835	0.082467
	H82	H	0.627583	0.892272	0.094596
	H83	H	0.391357	0.902083	0.908690
	H84	H	0.622566	0.898084	0.085480
	H85	H	0.390339	0.081101	0.097210
	H86	H	0.625340	0.088055	0.910775
	H87	H	0.390083	0.897864	0.906414
	H88	H	0.910311	0.085223	0.619985
	H89	H	0.102014	0.086586	0.380772
	H90	H	0.099357	0.895486	0.617152
	H91	H	0.916835	0.898899	0.382104
	H92	H	0.105166	0.608686	0.907494
	H93	H	0.106341	0.374124	0.094011
	H94	H	0.916170	0.607285	0.097143
	H95	H	0.907890	0.375994	0.910301
	H96	H	0.416603	0.104411	0.587387
	H97	H	0.603985	0.876555	0.589579
	H98	H	0.611017	0.111121	0.404707
	H99	H	0.408369	0.871969	0.398282
	H100	H	0.597833	0.402481	0.116251
	H101	H	0.607067	0.584742	0.879331
	H102	H	0.424819	0.578519	0.112117
	H103	H	0.420616	0.401395	0.884292
	H104	H	0.125523	0.579189	0.398662
	H105	H	0.889341	0.584271	0.595270
	H106	H	0.123080	0.397761	0.588061
	H107	H	0.890544	0.407018	0.400924
	H108	H	0.915360	0.604853	0.087054
	H109	H	0.097121	0.376773	0.097394
	H110	H	0.099685	0.608497	0.900443
	H111	H	0.911921	0.373790	0.901748
	H112	H	0.102433	0.898809	0.616779
	H113	H	0.099708	0.084039	0.382027
	H114	H	0.917785	0.077799	0.615727
	H115	H	0.916023	0.898387	0.382525
	H116	H	0.625107	0.083329	0.906504
	H117	H	0.387919	0.094181	0.090992
	H118	H	0.623744	0.903638	0.095948
	H119	H	0.391190	0.897289	0.911285
	C120	C	0.385876	-0.000135	0.622154
	C121	C	0.629996	0.983466	0.622261
	C122	C	0.629721	0.000500	0.377329
	C123	C	0.385596	0.983730	0.377208
	C124	C	0.627309	0.370743	0.008670
	C125	C	0.627323	0.613327	0.990803
	C126	C	0.386192	0.613795	0.007968
	C127	C	0.386299	0.370945	0.990939
	C128	C	0.015715	0.612508	0.378995
	C129	C	0.998799	0.612850	0.620604
	C130	C	0.016064	0.368864	0.621610
	C131	C	0.998799	0.369675	0.379178
	C132	C	0.884453	0.499672	0.121364
	C133	C	0.129142	0.483461	0.121584
	C134	C	0.128922	0.499904	0.877981
	C135	C	0.884329	0.482916	0.877914
	C136	C	0.129509	0.869713	0.507891
	C137	C	0.128699	0.112895	0.490850
	C138	C	0.887026	0.112852	0.508969
	C139	C	0.886829	0.870005	0.491051
	C140	C	0.517039	0.114795	0.878156
	C141	C	0.499348	0.114025	0.120086
	C142	C	0.516022	0.869780	0.121087
	C143	C	0.499303	0.870954	0.879064
	C144	C	0.389590	0.877433	0.677321
	C145	C	0.626906	0.106111	0.676525
	C146	C	0.625568	0.877954	0.323061
	C147	C	0.387702	0.106044	0.321417
	C148	C	0.681693	0.374201	0.883966
	C149	C	0.682196	0.609723	0.115236
	C150	C	0.331515	0.610817	0.883777
	C151	C	0.332484	0.375073	0.115824
	C152	C	0.893291	0.669794	0.378473
	C153	C	0.122281	0.667869	0.620100
	C154	C	0.893097	0.312828	0.620642
	C155	C	0.121807	0.314229	0.379999
	C156	C	0.891559	0.372577	0.675669
	C157	C	0.122894	0.608080	0.675543
	C158	C	0.891869	0.609580	0.323581
	C159	C	0.122270	0.373236	0.323907
	C160	C	0.387213	0.669805	0.884444
	C161	C	0.626491	0.668285	0.114723
	C162	C	0.626141	0.316103	0.884369
	C163	C	0.387439	0.315300	0.114721
	C164	C	0.683961	0.878034	0.380636
	C165	C	0.685808	0.105496	0.619407
	C166	C	0.331018	0.877654	0.619480
	C167	C	0.330352	0.105959	0.379539
	C168	C	0.887539	0.377212	0.176771
	C169	C	0.126323	0.605653	0.176886
	C170	C	0.125613	0.376932	0.824144
	C171	C	0.887421	0.605052	0.821763
	C172	C	0.184651	0.873006	0.383591
	C173	C	0.183332	0.108647	0.615214
	C174	C	0.832458	0.110107	0.384832
	C175	C	0.832025	0.872346	0.614974
	C176	C	0.393326	0.168998	0.879561
	C177	C	0.622530	0.169743	0.119588
	C178	C	0.393325	0.813888	0.120351
	C179	C	0.622275	0.815099	0.879469
	C180	C	0.392025	0.874080	0.174970
	C181	C	0.622918	0.110454	0.175356
	C182	C	0.392767	0.109844	0.823997
	C183	C	0.623481	0.875426	0.824843
	C184	C	0.888085	0.168622	0.385509
	C185	C	0.127497	0.167428	0.614982
	C186	C	0.129216	0.813724	0.384507
	C187	C	0.888852	0.814579	0.614783
	C188	C	0.184660	0.377646	0.880636
	C189	C	0.184295	0.605758	0.118872
	C190	C	0.828982	0.377565	0.119421
	C191	C	0.829265	0.605275	0.879850
	C192	C	0.407283	0.085357	0.600051
	C193	C	0.607965	0.898271	0.600299
	C194	C	0.608149	0.085916	0.399126
	C195	C	0.407901	0.898558	0.399736
	C196	C	0.604842	0.392011	0.095172
	C197	C	0.604826	0.591923	0.904022
	C198	C	0.408835	0.591611	0.094755
	C199	C	0.408330	0.392551	0.904181
	C200	C	0.101741	0.590443	0.401865
	C201	C	0.912576	0.591508	0.597672
	C202	C	0.102465	0.390709	0.599430
	C203	C	0.912348	0.391027	0.401570
	C204	C	0.906520	0.584928	0.098906
	C205	C	0.107407	0.398208	0.099589
	C206	C	0.107143	0.585217	0.899420
	C207	C	0.906068	0.397804	0.900456
	C208	C	0.106632	0.891503	0.594370
	C209	C	0.106476	0.092026	0.403953
	C210	C	0.909668	0.090350	0.595483
	C211	C	0.909515	0.892222	0.404569
	C212	C	0.603467	0.093622	0.900813
	C213	C	0.413060	0.092466	0.097094
	C214	C	0.602300	0.891502	0.098489
	C215	C	0.413146	0.892573	0.901935
	Zn216	Zn	0.507923	-0.007709	0.751533
	Zn217	Zn	0.506948	-0.007435	0.248028
	Zn218	Zn	0.754468	0.491476	-0.000061
	Zn219	Zn	0.258381	0.492044	-0.000857
	Zn220	Zn	0.008263	0.741685	0.499236
	Zn221	Zn	0.007585	0.240890	0.500239
	Zn222	Zn	0.006923	0.490494	0.748904
	Zn223	Zn	0.006810	0.491296	0.250421
	Zn224	Zn	0.507562	0.741776	-0.000584
	Zn225	Zn	0.507484	0.242733	-0.000451
	Zn226	Zn	0.758954	-0.008206	0.499803
	Zn227	Zn	0.256706	-0.008188	0.499203
	N228	N	0.422754	0.954440	0.679137
	N229	N	0.592878	0.029392	0.678444
	N230	N	0.592659	0.955212	0.320565
	N231	N	0.421356	0.029183	0.319847
	N232	N	0.682281	0.407635	0.961907
	N233	N	0.683084	0.576522	0.036992
	N234	N	0.330866	0.576755	0.961556
	N235	N	0.331589	0.408892	0.037840
	N236	N	0.971194	0.671622	0.412165
	N237	N	0.044210	0.671190	0.586888
	N238	N	0.971531	0.310186	0.588092
	N239	N	0.043883	0.312027	0.413628
	N240	N	0.968932	0.406873	0.676239
	N241	N	0.045138	0.574628	0.675948
	N242	N	0.969126	0.574986	0.323444
	N243	N	0.044714	0.406941	0.323145
	N244	N	0.420727	0.671514	0.962902
	N245	N	0.593577	0.670739	0.036326
	N246	N	0.593075	0.313629	0.962894
	N247	N	0.419908	0.312640	0.036042
	N248	N	0.686774	0.955262	0.413413
	N249	N	0.687699	0.028397	0.586418
	N250	N	0.328718	0.954640	0.585834
	N251	N	0.328987	0.028911	0.413661
	N252	N	0.921426	0.453992	0.177999
	N253	N	0.093005	0.528552	0.178844
	N254	N	0.091659	0.453680	0.822243
	N255	N	0.920999	0.528189	0.820587
	N256	N	0.184975	0.907025	0.461373
	N257	N	0.184286	0.075702	0.536964
	N258	N	0.831727	0.075898	0.462724
	N259	N	0.830834	0.906288	0.537161
	N260	N	0.471606	0.172234	0.912281
	N261	N	0.544539	0.172269	0.086128
	N262	N	0.471475	0.811312	0.087488
	N263	N	0.544084	0.812274	0.912473
	N264	N	0.469433	0.908227	0.175509
	N265	N	0.545367	0.076628	0.175652
	N266	N	0.470686	0.076686	0.823207
	N267	N	0.545991	0.909430	0.824708
	N268	N	0.921222	0.170312	0.463856
	N269	N	0.094000	0.169874	0.536704
	N270	N	0.095671	0.811563	0.462705
	N271	N	0.922252	0.813018	0.536403
	N272	N	0.186659	0.454976	0.913427
	N273	N	0.186120	0.528918	0.085176
	N274	N	0.826998	0.454752	0.085685
	N275	N	0.826970	0.528332	0.913836
	O276	O	0.993348	0.984476	-0.022125
	H277	H	0.989912	0.987366	-0.029021
	H278	H	0.991901	0.988907	-0.013728
	O279	O	0.039215	-0.037781	0.035643
	H280	H	0.033289	-0.030906	0.032695
	H281	H	0.041484	-0.046434	0.031071
	O282	O	0.090018	-0.017659	0.978224
	H283	H	0.096200	-0.015457	0.985889
	H284	H	0.095457	-0.014242	0.980794
	O285	O	-0.016678	0.963357	0.004785
	H286	H	-0.021140	0.964253	0.013732
	H287	H	-0.017411	0.958282	0.026160
	O288	O	0.453778	0.522864	0.468625
	H289	H	0.449992	0.517621	0.473464
	H290	H	0.454375	0.521866	0.458010
	O291	O	0.503680	0.490942	0.470803
	H292	H	0.507052	0.490815	0.469726
	H293	H	0.504174	0.499214	0.475649
	O294	O	-0.481704	0.477915	0.521966
	H295	H	-0.481759	0.483699	0.518517
	H296	H	-0.483729	0.481314	0.520315
	O297	O	0.480242	0.513931	0.477546
	H298	H	0.484996	0.516357	0.474531
	H299	H	0.479004	0.504439	0.481797
	O300	O	-0.023077	0.956984	1.030206
	H301	H	-0.026170	0.959382	1.018160
	H302	H	-0.030108	0.956565	1.032728
	O303	O	0.510178	0.521511	0.485598
	H304	H	0.508993	0.521999	0.483571
	H305	H	0.518985	0.519773	0.487393
	O306	O	0.546567	-0.469207	1.462322
	H307	H	0.545342	-0.466547	1.468701
	H308	H	0.540595	-0.462394	1.464414
	O309	O	0.997027	1.041860	1.017772
	H310	H	0.995740	1.038664	1.011804
	H311	H	0.987572	1.033138	1.016720
	O312	O	-0.050865	0.957309	0.013001
	H313	H	-0.040832	0.957796	0.013262
	H314	H	-0.048121	0.955652	0.017776
	O315	O	0.478848	0.510732	0.512675
	H316	H	0.471555	0.511005	0.511487
	H317	H	0.482246	0.508917	0.518410
	O318	O	0.014093	0.993530	0.061997
	H319	H	0.005252	0.996097	0.058986
	H320	H	0.021187	0.993907	0.057229
	O321	O	1.003452	0.989362	-0.023327
	H322	H	1.005557	0.986652	-0.017006
	H323	H	1.004298	0.991188	-0.028917
