data_Molecule from HDF5

_cell_length_a		16.172947
_cell_length_b		16.404169
_cell_length_c		16.184419
_cell_angle_alpha	89.844919
_cell_angle_beta	90.702469
_cell_angle_gamma	90.258215
_symmetry_space_group_name_H-M	'P 1'
_symmetry_Int_Tables_number		1

loop_
	_symmetry_equiv_pos_as_xyz
	x,y,z

loop_
	_atom_site_label
	_atom_site_type_symbol
	_atom_site_fract_x
	_atom_site_fract_y
	_atom_site_fract_z
	H0	H	0.390103	0.843452	0.714428
	H1	H	0.593722	0.166408	0.714070
	H2	H	0.587792	0.841859	0.283391
	H3	H	0.389085	0.165883	0.277296
	H4	H	0.701792	0.408313	0.832022
	H5	H	0.709410	0.601413	0.161598
	H6	H	0.275068	0.600712	0.834242
	H7	H	0.279138	0.402276	0.162737
	H8	H	0.828109	0.719384	0.391425
	H9	H	0.152695	0.723824	0.603924
	H10	H	0.828541	0.286136	0.597714
	H11	H	0.153418	0.286538	0.395922
	H12	H	0.826053	0.404446	0.707763
	H13	H	0.153946	0.603571	0.716003
	H14	H	0.828912	0.602278	0.278869
	H15	H	0.156357	0.405044	0.286570
	H16	H	0.387665	0.720436	0.835469
	H17	H	0.598150	0.720837	0.161207
	H18	H	0.591883	0.286922	0.833933
	H19	H	0.391791	0.284090	0.160605
	H20	H	0.705352	0.842697	0.396779
	H21	H	0.708730	0.166906	0.595882
	H22	H	0.271336	0.844459	0.600499
	H23	H	0.274724	0.167308	0.395282
	H24	H	0.895200	0.340455	0.211370
	H25	H	0.097486	0.664669	0.216523
	H26	H	0.089090	0.341125	0.782096
	H27	H	0.886864	0.663664	0.778042
	H28	H	0.202687	0.907514	0.332032
	H29	H	0.209946	0.106658	0.660648
	H30	H	0.775935	0.101635	0.332233
	H31	H	0.779340	0.906392	0.661398
	H32	H	0.328844	0.219562	0.891619
	H33	H	0.655114	0.219655	0.101166
	H34	H	0.330559	0.781722	0.102320
	H35	H	0.654726	0.788225	0.898122
	H36	H	0.326882	0.902795	0.209736
	H37	H	0.655439	0.101496	0.213282
	H38	H	0.328206	0.102960	0.779519
	H39	H	0.656301	0.906814	0.786414
	H40	H	0.886825	0.221691	0.334471
	H41	H	0.095083	0.222328	0.660767
	H42	H	0.092636	0.786013	0.334470
	H43	H	0.888031	0.785460	0.658449
	H44	H	0.206785	0.340985	0.897198
	H45	H	0.213695	0.663587	0.100924
	H46	H	0.777693	0.340186	0.095693
	H47	H	0.776013	0.665153	0.896783
	H48	H	0.411685	0.117015	0.591330
	H49	H	0.588941	0.890136	0.582522
	H50	H	0.580287	0.117392	0.410174
	H51	H	0.398141	0.892229	0.409746
	H52	H	0.585217	0.408407	0.114622
	H53	H	0.580442	0.603701	0.879116
	H54	H	0.404574	0.587007	0.112656
	H55	H	0.400650	0.407506	0.881257
	H56	H	0.112076	0.606511	0.407867
	H57	H	0.873730	0.586473	0.595477
	H58	H	0.104252	0.420411	0.586068
	H59	H	0.876581	0.417653	0.402325
	H60	H	0.110227	0.412666	0.599204
	H61	H	0.869058	0.607189	0.588929
	H62	H	0.104160	0.594852	0.419055
	H63	H	0.871688	0.407121	0.400168
	H64	H	0.410238	0.596867	0.113173
	H65	H	0.587505	0.595632	0.879546
	H66	H	0.586167	0.411173	0.114529
	H67	H	0.395726	0.411049	0.880877
	H68	H	0.590608	0.121879	0.404442
	H69	H	0.589052	0.885558	0.600037
	H70	H	0.400578	0.116368	0.577421
	H71	H	0.390909	0.887745	0.402763
	H72	H	0.905174	0.617714	0.090526
	H73	H	0.079326	0.391229	0.087259
	H74	H	0.079646	0.617921	0.904552
	H75	H	0.905663	0.388908	0.900852
	H76	H	0.087617	0.913146	0.614198
	H77	H	0.079873	0.089717	0.384421
	H78	H	0.898266	0.096589	0.614354
	H79	H	0.885474	0.914933	0.376291
	H80	H	0.610495	0.099331	0.904859
	H81	H	0.373601	0.096830	0.085326
	H82	H	0.605515	0.910111	0.080896
	H83	H	0.375147	0.909002	0.909947
	H84	H	0.606685	0.921031	0.094385
	H85	H	0.376121	0.094238	0.081961
	H86	H	0.608754	0.098089	0.908937
	H87	H	0.376240	0.914730	0.905386
	H88	H	0.902926	0.094780	0.612896
	H89	H	0.072915	0.102353	0.381491
	H90	H	0.078368	0.919714	0.610766
	H91	H	0.906316	0.919020	0.384555
	H92	H	0.079458	0.614609	0.911601
	H93	H	0.090838	0.386313	0.089513
	H94	H	0.900501	0.616876	0.084102
	H95	H	0.891795	0.387400	0.911890
	H96	H	0.395540	0.123107	0.592442
	H97	H	0.573585	0.891881	0.592556
	H98	H	0.579371	0.120963	0.397578
	H99	H	0.400616	0.889111	0.400116
	H100	H	0.582314	0.410366	0.113924
	H101	H	0.577637	0.593786	0.883566
	H102	H	0.399798	0.595806	0.116839
	H103	H	0.400144	0.413350	0.883320
	H104	H	0.108669	0.590369	0.402508
	H105	H	0.879517	0.593081	0.574048
	H106	H	0.109342	0.406314	0.584956
	H107	H	0.875480	0.409169	0.411037
	H108	H	0.897443	0.620467	0.090877
	H109	H	0.082193	0.386338	0.098816
	H110	H	0.085876	0.618347	0.907785
	H111	H	0.889593	0.382833	0.894550
	H112	H	0.076930	0.908589	0.613468
	H113	H	0.087026	0.101005	0.377380
	H114	H	0.901400	0.098861	0.615047
	H115	H	0.900832	0.899616	0.376445
	H116	H	0.609095	0.095933	0.905761
	H117	H	0.374768	0.092766	0.086590
	H118	H	0.612739	0.905215	0.096186
	H119	H	0.373159	0.909100	0.902696
	C120	C	0.370538	0.013259	0.618345
	C121	C	0.614189	0.996361	0.619689
	C122	C	0.611689	0.012836	0.375698
	C123	C	0.367186	0.996433	0.373728
	C124	C	0.612543	0.382122	0.005708
	C125	C	0.613794	0.626134	0.988911
	C126	C	0.372166	0.623440	0.006678
	C127	C	0.370124	0.380258	0.989474
	C128	C	0.000510	0.625537	0.376783
	C129	C	0.981660	0.626256	0.618661
	C130	C	-0.000201	0.383017	0.618066
	C131	C	0.982647	0.382340	0.376407
	C132	C	0.871457	0.511291	0.118435
	C133	C	0.115655	0.494707	0.121842
	C134	C	0.111237	0.510528	0.877647
	C135	C	0.867146	0.493959	0.873509
	C136	C	0.110548	0.884322	0.504879
	C137	C	0.112062	0.127403	0.488782
	C138	C	0.870188	0.125864	0.505705
	C139	C	0.868469	0.882013	0.487463
	C140	C	0.501320	0.126263	0.875123
	C141	C	0.482892	0.124136	0.116629
	C142	C	0.500207	0.881612	0.119744
	C143	C	0.483083	0.882588	0.876989
	C144	C	0.370556	0.891652	0.675530
	C145	C	0.613900	0.118004	0.675869
	C146	C	0.608436	0.890444	0.321082
	C147	C	0.368927	0.117686	0.316161
	C148	C	0.665227	0.386662	0.881194
	C149	C	0.671430	0.622647	0.112444
	C150	C	0.313460	0.621713	0.883379
	C151	C	0.316235	0.382092	0.113448
	C152	C	0.877318	0.681312	0.373601
	C153	C	0.104213	0.684103	0.621292
	C154	C	0.876866	0.325317	0.616524
	C155	C	0.105126	0.325305	0.377077
	C156	C	0.875637	0.384356	0.671447
	C157	C	0.104805	0.624647	0.677330
	C158	C	0.877699	0.623053	0.317556
	C159	C	0.106758	0.384546	0.322896
	C160	C	0.369248	0.681460	0.884188
	C161	C	0.615955	0.682238	0.112251
	C162	C	0.610475	0.326498	0.882223
	C163	C	0.372102	0.323151	0.112159
	C164	C	0.666949	0.890892	0.377473
	C165	C	0.670924	0.118169	0.616962
	C166	C	0.311354	0.892313	0.618761
	C167	C	0.312049	0.118526	0.374881
	C168	C	0.874125	0.389111	0.173835
	C169	C	0.116743	0.615936	0.178424
	C170	C	0.109548	0.389417	0.820408
	C171	C	0.867935	0.615414	0.816807
	C172	C	0.165551	0.886770	0.381552
	C173	C	0.171018	0.126407	0.611614
	C174	C	0.813367	0.123067	0.381778
	C175	C	0.814982	0.884901	0.611500
	C176	C	0.377795	0.181210	0.873762
	C177	C	0.606198	0.180876	0.119118
	C178	C	0.378286	0.822443	0.119509
	C179	C	0.605965	0.826799	0.878554
	C180	C	0.376582	0.882471	0.173487
	C181	C	0.606335	0.122201	0.174923
	C182	C	0.377215	0.123164	0.818034
	C183	C	0.606724	0.885926	0.823128
	C184	C	0.868812	0.182356	0.382831
	C185	C	0.114147	0.184207	0.611534
	C186	C	0.110944	0.826241	0.382639
	C187	C	0.869430	0.824968	0.610285
	C188	C	0.167856	0.389111	0.877952
	C189	C	0.174412	0.615487	0.120843
	C190	C	0.815613	0.389035	0.116133
	C191	C	0.812599	0.616123	0.875796
	C192	C	0.395108	0.097156	0.594160
	C193	C	0.590781	0.911366	0.597938
	C194	C	0.589767	0.097858	0.397587
	C195	C	0.389898	0.911801	0.397345
	C196	C	0.590910	0.403746	0.091901
	C197	C	0.589021	0.604208	0.903082
	C198	C	0.397437	0.600168	0.092116
	C199	C	0.392277	0.403777	0.903909
	C200	C	0.086142	0.603555	0.402440
	C201	C	0.896205	0.602602	0.593423
	C202	C	0.085851	0.406237	0.596188
	C203	C	0.897012	0.404823	0.397932
	C204	C	0.894378	0.596304	0.095592
	C205	C	0.091480	0.410055	0.098454
	C206	C	0.088485	0.595024	0.901402
	C207	C	0.889168	0.408432	0.895798
	C208	C	0.087580	0.907063	0.590473
	C209	C	0.087216	0.104535	0.403168
	C210	C	0.893967	0.103343	0.591751
	C211	C	0.890890	0.904694	0.401489
	C212	C	0.587377	0.104197	0.899322
	C213	C	0.397073	0.101210	0.091732
	C214	C	0.586189	0.905337	0.097207
	C215	C	0.397112	0.904551	0.899486
	Zn216	Zn	0.492035	0.004279	0.749102
	Zn217	Zn	0.490465	0.003842	0.245477
	Zn218	Zn	0.741044	0.503193	-0.003122
	Zn219	Zn	0.242513	0.502313	-0.001420
	Zn220	Zn	-0.009695	0.754361	0.496263
	Zn221	Zn	-0.009098	0.255179	0.497540
	Zn222	Zn	-0.009873	0.503082	0.746439
	Zn223	Zn	-0.006900	0.503560	0.249533
	Zn224	Zn	0.492282	0.754197	-0.001393
	Zn225	Zn	0.491920	0.252613	-0.003597
	Zn226	Zn	0.742266	0.004375	0.496524
	Zn227	Zn	0.239680	0.005662	0.497019
	N228	N	0.406683	0.967711	0.675446
	N229	N	0.579202	0.041247	0.677736
	N230	N	0.574717	0.967290	0.319670
	N231	N	0.402441	0.040711	0.315184
	N232	N	0.666502	0.420593	0.958873
	N233	N	0.670401	0.588669	0.034833
	N234	N	0.314930	0.586567	0.960621
	N235	N	0.314624	0.416925	0.036031
	N236	N	0.954713	0.683054	0.409707
	N237	N	0.026575	0.685322	0.585731
	N238	N	0.955112	0.324589	0.583956
	N239	N	0.027130	0.323839	0.409823
	N240	N	0.952954	0.419546	0.672476
	N241	N	0.027452	0.589695	0.676054
	N242	N	0.955332	0.589238	0.319111
	N243	N	0.029750	0.419415	0.322310
	N244	N	0.404901	0.682644	0.961773
	N245	N	0.580731	0.684550	0.034424
	N246	N	0.578481	0.323627	0.960500
	N247	N	0.404596	0.321817	0.034124
	N248	N	0.669142	0.967753	0.410728
	N249	N	0.671354	0.041485	0.582929
	N250	N	0.311181	0.968915	0.583944
	N251	N	0.310496	0.042104	0.409735
	N252	N	0.908148	0.466064	0.175331
	N253	N	0.081023	0.539666	0.179122
	N254	N	0.074703	0.465782	0.820363
	N255	N	0.901099	0.538351	0.815200
	N256	N	0.165716	0.922029	0.458612
	N257	N	0.169942	0.091900	0.534187
	N258	N	0.814081	0.088684	0.459196
	N259	N	0.814136	0.919423	0.534029
	N260	N	0.455880	0.183180	0.908575
	N261	N	0.528477	0.182110	0.083572
	N262	N	0.456373	0.821759	0.086749
	N263	N	0.527938	0.824500	0.911181
	N264	N	0.453360	0.918670	0.173612
	N265	N	0.528612	0.087621	0.173530
	N266	N	0.455084	0.089764	0.818723
	N267	N	0.529198	0.919944	0.822045
	N268	N	0.903589	0.184171	0.460879
	N269	N	0.078068	0.184828	0.534198
	N270	N	0.077517	0.824608	0.460444
	N271	N	0.901940	0.822854	0.532045
	N272	N	0.169197	0.465513	0.912821
	N273	N	0.173729	0.539010	0.086204
	N274	N	0.813903	0.466131	0.082259
	N275	N	0.811784	0.539432	0.910318
	O276	O	0.993837	0.063168	0.968062
	H277	H	1.004618	0.050589	0.964290
	H278	H	0.991665	0.064855	0.976942
	O279	O	0.557247	0.414399	0.559637
	H280	H	0.543505	0.412777	0.556266
	H281	H	0.552576	0.405353	0.556244
	O282	O	0.488306	0.480151	0.539080
	H283	H	0.495008	0.471338	0.548318
	H284	H	0.483707	0.471183	0.545662
	O285	O	0.463812	0.629719	0.542276
	H286	H	0.466386	0.621959	0.529186
	H287	H	0.452362	0.630704	0.534906
	O288	O	0.507084	0.423128	0.464191
	H289	H	0.520025	0.436174	0.457138
	H290	H	0.510288	0.427142	0.460341
	O291	O	-0.040477	0.075589	1.084239
	H292	H	-0.052329	0.071083	1.083831
	H293	H	-0.031538	0.077438	1.089601
	O294	O	1.023462	1.157073	0.058327
	H295	H	1.014418	1.161065	0.059350
	H296	H	1.020784	1.167656	0.053190
	O297	O	1.055168	0.830984	-0.016975
	H298	H	1.046914	0.821530	-0.006052
	H299	H	1.052168	0.841378	-0.024551
	O300	O	0.521876	0.595107	0.452237
	H301	H	0.529531	0.605854	0.448593
	H302	H	0.525710	0.587702	0.454895
	O303	O	0.960593	0.092314	0.838056
	H304	H	0.956994	0.102176	0.835965
	H305	H	0.979390	0.086759	0.833705
	O306	O	0.497725	0.490126	0.426621
	H307	H	0.489112	0.492985	0.435766
	H308	H	0.491423	0.484377	0.422837
	O309	O	0.639135	0.662702	0.643085
	H310	H	0.635156	0.654003	0.651097
	H311	H	0.640941	0.651831	0.647913
	O312	O	1.009935	1.007172	1.115828
	H313	H	1.005939	0.987114	1.100832
	H314	H	1.021284	0.994011	1.121192
	O315	O	1.015227	1.033075	0.007080
	H316	H	1.023401	1.028992	0.017531
	H317	H	1.009451	1.039624	0.010595
	O318	O	0.428107	0.673302	0.545045
	H319	H	0.441967	0.682887	0.536257
	H320	H	0.419821	0.682440	0.549552
	O321	O	0.319760	0.516390	0.419551
	H322	H	0.311097	0.507794	0.428083
	H323	H	0.339730	0.516382	0.416816
	O324	O	-0.035328	0.956137	0.936809
	H325	H	-0.017109	0.947801	0.930016
	H326	H	-0.039841	0.960475	0.928397
	O327	O	0.003464	1.015944	0.911914
	H328	H	-0.001356	1.013796	0.916459
	H329	H	0.000373	1.017724	0.922812
	O330	O	0.147120	-0.033768	0.009202
	H331	H	0.160064	-0.039806	0.013040
	H332	H	0.142895	-0.030208	0.007113
	O333	O	0.516149	0.470544	0.396863
	H334	H	0.507573	0.467024	0.401754
	H335	H	0.513520	0.484394	0.391710
	O336	O	0.002909	-0.099816	0.087722
	H337	H	0.014866	-0.104448	0.082881
	H338	H	0.007478	-0.102314	0.083013
	O339	O	-0.119500	-0.021958	0.025275
	H340	H	-0.124379	-0.008015	0.019898
	H341	H	-0.134106	-0.027773	0.018807
	O342	O	0.554542	0.405775	0.394441
	H343	H	0.567019	0.397025	0.385286
	H344	H	0.539060	0.405564	0.395885
	O345	O	-0.057870	0.921840	0.932807
	H346	H	-0.055850	0.917612	0.927849
	H347	H	-0.056505	0.918467	0.931919
	O348	O	0.538046	0.499079	0.616709
	H349	H	0.548778	0.497754	0.621005
	H350	H	0.535843	0.499740	0.612047
	O351	O	0.546453	0.648285	0.443862
	H352	H	0.549202	0.649895	0.448172
	H353	H	0.561121	0.653232	0.449061
	O354	O	0.075330	0.886880	-0.071922
	H355	H	0.086422	0.889587	-0.069874
	H356	H	0.078122	0.884429	-0.066956
	O357	O	0.528927	0.564697	0.454216
	H358	H	0.526022	0.578567	0.451627
	H359	H	0.520803	0.568926	0.468724
	O360	O	0.914689	0.044787	1.004061
	H361	H	0.911640	0.045910	1.014387
	H362	H	0.908279	0.030443	1.001684
	O363	O	0.399629	0.500874	0.633437
	H364	H	0.393853	0.511739	0.617344
	H365	H	0.411304	0.501787	0.638635
	O366	O	0.444947	0.363503	0.495934
	H367	H	0.436401	0.362128	0.504692
	H368	H	0.437390	0.354274	0.503545
	O369	O	1.129259	-0.006877	0.020649
	H370	H	1.111689	-0.020540	0.023771
	H371	H	1.128911	-0.004121	0.018092
	O372	O	0.487431	0.435640	0.590405
	H373	H	0.488551	0.441908	0.587662
	H374	H	0.476667	0.432776	0.592411
	O375	O	0.969778	-0.053282	0.892081
	H376	H	0.972923	-0.053390	0.891747
	H377	H	0.973369	-0.060012	0.887861
	O378	O	0.102714	1.022295	0.007830
	H379	H	0.106654	1.024368	0.017468
	H380	H	0.080031	1.024689	0.004963
	O381	O	0.405165	0.536764	0.471112
	H382	H	0.404456	0.538527	0.465884
	H383	H	0.403888	0.544047	0.458855
	O384	O	0.914744	0.995768	-0.067674
	H385	H	0.912199	0.990810	-0.074767
	H386	H	0.913432	1.001754	-0.063688
	O387	O	0.934730	0.019380	1.060919
	H388	H	0.939161	0.041306	1.064768
	H389	H	0.950759	0.012642	1.048644
	O390	O	1.086474	1.036417	0.061044
	H391	H	1.078471	1.050922	0.071990
	H392	H	1.096865	1.047910	0.074338
	O393	O	0.541692	0.560701	0.498307
	H394	H	0.546853	0.562145	0.510568
	H395	H	0.546705	0.555911	0.502648
