data_Molecule from HDF5

_cell_length_a		16.354137
_cell_length_b		15.966792
_cell_length_c		16.370771
_cell_angle_alpha	90.362947
_cell_angle_beta	90.617478
_cell_angle_gamma	90.881248
_symmetry_space_group_name_H-M	'P 1'
_symmetry_Int_Tables_number		1

loop_
	_symmetry_equiv_pos_as_xyz
	x,y,z

loop_
	_atom_site_label
	_atom_site_type_symbol
	_atom_site_fract_x
	_atom_site_fract_y
	_atom_site_fract_z
	H0	H	0.402229	0.827120	0.707340
	H1	H	0.605367	0.160451	0.711546
	H2	H	0.598052	0.828911	0.281137
	H3	H	0.403738	0.160831	0.284146
	H4	H	0.715716	0.392795	0.836591
	H5	H	0.720878	0.600634	0.160258
	H6	H	0.281483	0.594284	0.836987
	H7	H	0.284546	0.391881	0.161286
	H8	H	0.835961	0.699191	0.403647
	H9	H	0.164671	0.712098	0.598239
	H10	H	0.837742	0.277487	0.591512
	H11	H	0.166242	0.283889	0.404886
	H12	H	0.838667	0.388811	0.713981
	H13	H	0.162826	0.602376	0.720455
	H14	H	0.840093	0.592647	0.279778
	H15	H	0.163756	0.393525	0.282581
	H16	H	0.406054	0.701722	0.831927
	H17	H	0.600820	0.712274	0.160400
	H18	H	0.591284	0.284001	0.832896
	H19	H	0.405680	0.280883	0.162107
	H20	H	0.708965	0.826091	0.399693
	H21	H	0.719787	0.159040	0.598146
	H22	H	0.286292	0.827475	0.593819
	H23	H	0.287538	0.159086	0.396390
	H24	H	0.900844	0.327372	0.208612
	H25	H	0.105236	0.659605	0.216424
	H26	H	0.097809	0.329509	0.785392
	H27	H	0.902776	0.661505	0.784114
	H28	H	0.214599	0.889243	0.335344
	H29	H	0.225869	0.099919	0.657734
	H30	H	0.783172	0.094519	0.336919
	H31	H	0.783081	0.889501	0.660109
	H32	H	0.336215	0.201625	0.900501
	H33	H	0.664528	0.210160	0.095465
	H34	H	0.336524	0.779879	0.088944
	H35	H	0.665972	0.783479	0.902300
	H36	H	0.339928	0.888651	0.212581
	H37	H	0.661775	0.101825	0.218383
	H38	H	0.340534	0.093843	0.776175
	H39	H	0.664658	0.893994	0.780391
	H40	H	0.907184	0.201370	0.334043
	H41	H	0.103139	0.209147	0.661936
	H42	H	0.090659	0.781244	0.333947
	H43	H	0.905352	0.780604	0.662718
	H44	H	0.209330	0.328866	0.900512
	H45	H	0.219868	0.659631	0.102741
	H46	H	0.783880	0.329775	0.096748
	H47	H	0.789289	0.662571	0.899571
	H48	H	0.416912	0.110164	0.585316
	H49	H	0.594936	0.875010	0.585003
	H50	H	0.596766	0.114482	0.405423
	H51	H	0.401426	0.873182	0.403105
	H52	H	0.594438	0.406275	0.112966
	H53	H	0.588514	0.593250	0.881753
	H54	H	0.410069	0.587543	0.113600
	H55	H	0.402878	0.397710	0.882708
	H56	H	0.120933	0.592886	0.401198
	H57	H	0.884685	0.585646	0.593993
	H58	H	0.114866	0.407063	0.589562
	H59	H	0.888717	0.405597	0.405807
	H60	H	0.117296	0.409688	0.599789
	H61	H	0.885903	0.583661	0.590022
	H62	H	0.115657	0.588597	0.414317
	H63	H	0.883291	0.398007	0.391547
	H64	H	0.409714	0.584948	0.114100
	H65	H	0.604686	0.589921	0.877909
	H66	H	0.593865	0.402517	0.114060
	H67	H	0.399473	0.399627	0.882046
	H68	H	0.592760	0.112414	0.406487
	H69	H	0.594351	0.872070	0.594019
	H70	H	0.409574	0.112785	0.586108
	H71	H	0.410321	0.874451	0.398243
	H72	H	0.907125	0.613241	0.084554
	H73	H	0.087702	0.380115	0.079582
	H74	H	0.095787	0.615333	0.909179
	H75	H	0.899680	0.373467	0.900425
	H76	H	0.094263	0.907892	0.611734
	H77	H	0.093269	0.082636	0.383200
	H78	H	0.910969	0.095879	0.617773
	H79	H	0.905294	0.902331	0.384854
	H80	H	0.617383	0.087106	0.902951
	H81	H	0.385241	0.082238	0.089832
	H82	H	0.614280	0.909598	0.087029
	H83	H	0.384669	0.896886	0.897960
	H84	H	0.617415	0.908897	0.096593
	H85	H	0.383849	0.084743	0.094145
	H86	H	0.618294	0.090840	0.902675
	H87	H	0.386959	0.900770	0.901118
	H88	H	0.899168	0.076837	0.615653
	H89	H	0.094117	0.089098	0.381653
	H90	H	0.093489	0.901303	0.614298
	H91	H	0.905850	0.890521	0.381476
	H92	H	0.092138	0.613970	0.907985
	H93	H	0.103712	0.369998	0.092302
	H94	H	0.909745	0.617080	0.099318
	H95	H	0.914915	0.378910	0.902488
	H96	H	0.414333	0.113918	0.591788
	H97	H	0.587766	0.875806	0.589646
	H98	H	0.595949	0.112225	0.410207
	H99	H	0.409671	0.877109	0.408761
	H100	H	0.597369	0.404729	0.114508
	H101	H	0.594435	0.577453	0.885011
	H102	H	0.411471	0.585514	0.112281
	H103	H	0.402375	0.402529	0.882572
	H104	H	0.116228	0.578026	0.404219
	H105	H	0.885889	0.580811	0.593356
	H106	H	0.119104	0.399376	0.595906
	H107	H	0.883798	0.388619	0.406046
	H108	H	0.920892	0.610990	0.090568
	H109	H	0.083242	0.374484	0.101089
	H110	H	0.092318	0.614262	0.911276
	H111	H	0.904736	0.379065	0.915252
	H112	H	0.099914	0.904799	0.614509
	H113	H	0.099097	0.084780	0.381847
	H114	H	0.920081	0.077502	0.608532
	H115	H	0.895738	0.896445	0.378925
	H116	H	0.617621	0.090074	0.906282
	H117	H	0.383823	0.087315	0.089462
	H118	H	0.618483	0.901122	0.089482
	H119	H	0.386101	0.902116	0.896322
	C120	C	0.382861	0.002231	0.615804
	C121	C	0.623836	0.984459	0.619027
	C122	C	0.621661	0.002984	0.377615
	C123	C	0.379423	0.984965	0.374924
	C124	C	0.621948	0.374494	0.006227
	C125	C	0.625328	0.618329	0.989031
	C126	C	0.380239	0.614743	0.005919
	C127	C	0.375512	0.371027	0.990011
	C128	C	0.009829	0.613817	0.377501
	C129	C	0.992648	0.616109	0.621942
	C130	C	0.009570	0.372874	0.621523
	C131	C	0.993255	0.370516	0.374749
	C132	C	0.881767	0.503577	0.119137
	C133	C	0.122681	0.485065	0.121002
	C134	C	0.120347	0.504502	0.879929
	C135	C	0.878848	0.486626	0.877028
	C136	C	0.121731	0.873403	0.505980
	C137	C	0.126167	0.116767	0.489175
	C138	C	0.880961	0.112690	0.506552
	C139	C	0.876035	0.868615	0.489930
	C140	C	0.509999	0.116007	0.874899
	C141	C	0.491970	0.116678	0.120235
	C142	C	0.509176	0.874202	0.118100
	C143	C	0.493683	0.871955	0.872226
	C144	C	0.382942	0.877009	0.670228
	C145	C	0.624289	0.110216	0.674122
	C146	C	0.617883	0.878011	0.320451
	C147	C	0.382829	0.110584	0.321090
	C148	C	0.676266	0.374653	0.884227
	C149	C	0.681876	0.619146	0.111528
	C150	C	0.321828	0.613095	0.884529
	C151	C	0.322145	0.372494	0.112507
	C152	C	0.885620	0.664565	0.381614
	C153	C	0.115808	0.673789	0.619292
	C154	C	0.886637	0.315496	0.614636
	C155	C	0.116794	0.319188	0.381674
	C156	C	0.887205	0.370752	0.675762
	C157	C	0.114816	0.619076	0.679992
	C158	C	0.887732	0.611619	0.320135
	C159	C	0.115482	0.373813	0.320767
	C160	C	0.383907	0.666637	0.882089
	C161	C	0.622178	0.674659	0.111647
	C162	C	0.614653	0.320225	0.882559
	C163	C	0.382413	0.317150	0.113014
	C164	C	0.673166	0.876700	0.379213
	C165	C	0.681526	0.109437	0.618072
	C166	C	0.325115	0.877138	0.613868
	C167	C	0.324935	0.109732	0.376979
	C168	C	0.881569	0.377822	0.172272
	C169	C	0.123911	0.609906	0.177990
	C170	C	0.117328	0.379053	0.823586
	C171	C	0.882372	0.611891	0.821767
	C172	C	0.175809	0.871861	0.383764
	C173	C	0.185409	0.118175	0.610198
	C174	C	0.823552	0.112235	0.384699
	C175	C	0.821651	0.870391	0.611791
	C176	C	0.385959	0.166651	0.878468
	C177	C	0.615052	0.173043	0.117006
	C178	C	0.386140	0.817096	0.111943
	C179	C	0.616702	0.818836	0.878745
	C180	C	0.387667	0.871340	0.173419
	C181	C	0.613904	0.118869	0.177961
	C182	C	0.388075	0.112835	0.816877
	C183	C	0.616179	0.874205	0.818454
	C184	C	0.885042	0.165809	0.383399
	C185	C	0.124355	0.172396	0.612232
	C186	C	0.114272	0.818006	0.382833
	C187	C	0.882120	0.815619	0.613043
	C188	C	0.172755	0.378648	0.880951
	C189	C	0.180922	0.609886	0.121431
	C190	C	0.823380	0.378794	0.116495
	C191	C	0.825837	0.612367	0.879235
	C192	C	0.406565	0.089344	0.594031
	C193	C	0.599607	0.896954	0.596264
	C194	C	0.601339	0.090361	0.400481
	C195	C	0.400837	0.897580	0.396836
	C196	C	0.601439	0.397679	0.091764
	C197	C	0.602740	0.593888	0.903733
	C198	C	0.403440	0.592628	0.091192
	C199	C	0.395539	0.393322	0.904485
	C200	C	0.095322	0.592819	0.399986
	C201	C	0.907382	0.590800	0.599190
	C202	C	0.094857	0.397833	0.601066
	C203	C	0.907365	0.391086	0.395151
	C204	C	0.905594	0.591186	0.097690
	C205	C	0.098618	0.397604	0.097713
	C206	C	0.099486	0.591815	0.902739
	C207	C	0.899973	0.399574	0.899479
	C208	C	0.101789	0.897572	0.591392
	C209	C	0.102421	0.092650	0.404283
	C210	C	0.903393	0.090050	0.591950
	C211	C	0.896329	0.890044	0.403942
	C212	C	0.595508	0.095295	0.897208
	C213	C	0.406318	0.091865	0.097663
	C214	C	0.594722	0.899229	0.097280
	C215	C	0.407940	0.893467	0.892508
	Zn216	Zn	0.503047	-0.005746	0.744663
	Zn217	Zn	0.501013	-0.005101	0.248934
	Zn218	Zn	0.753124	0.496010	-0.001375
	Zn219	Zn	0.247888	0.494537	-0.000562
	Zn220	Zn	0.000603	0.742709	0.498666
	Zn221	Zn	0.002507	0.242904	0.498379
	Zn222	Zn	0.001193	0.495322	0.751388
	Zn223	Zn	0.001848	0.493850	0.247254
	Zn224	Zn	0.501486	0.744764	-0.003526
	Zn225	Zn	0.500265	0.244249	-0.002291
	Zn226	Zn	0.749652	-0.007339	0.498071
	Zn227	Zn	0.253314	-0.006620	0.496610
	N228	N	0.417991	0.955826	0.671817
	N229	N	0.589217	0.031354	0.674992
	N230	N	0.586779	0.957680	0.319074
	N231	N	0.416075	0.031988	0.319867
	N232	N	0.680970	0.407591	0.962122
	N233	N	0.684023	0.584916	0.034188
	N234	N	0.319626	0.581469	0.962567
	N235	N	0.317500	0.405198	0.034975
	N236	N	0.962466	0.666152	0.416796
	N237	N	0.038934	0.672052	0.584013
	N238	N	0.963793	0.316662	0.581659
	N239	N	0.039802	0.317032	0.414512
	N240	N	0.964564	0.405845	0.680107
	N241	N	0.037368	0.583801	0.681755
	N242	N	0.965696	0.580871	0.317373
	N243	N	0.037548	0.404691	0.316160
	N244	N	0.419516	0.667817	0.958537
	N245	N	0.587719	0.674360	0.034615
	N246	N	0.581535	0.320263	0.959437
	N247	N	0.414818	0.315884	0.035901
	N248	N	0.675712	0.955268	0.414110
	N249	N	0.681517	0.030093	0.584790
	N250	N	0.325060	0.955977	0.580501
	N251	N	0.322602	0.030503	0.409636
	N252	N	0.917285	0.456545	0.173827
	N253	N	0.088227	0.531294	0.177576
	N254	N	0.085383	0.458215	0.822736
	N255	N	0.914324	0.532787	0.820043
	N256	N	0.180570	0.905787	0.461362
	N257	N	0.186748	0.084252	0.532791
	N258	N	0.820943	0.080080	0.462482
	N259	N	0.817550	0.902517	0.534134
	N260	N	0.462593	0.168902	0.913869
	N261	N	0.538164	0.171776	0.081822
	N262	N	0.462838	0.818830	0.078331
	N263	N	0.539575	0.817411	0.911576
	N264	N	0.465206	0.906106	0.177345
	N265	N	0.536230	0.084656	0.180240
	N266	N	0.466193	0.082058	0.814469
	N267	N	0.538705	0.906319	0.814307
	N268	N	0.920327	0.166193	0.460224
	N269	N	0.088432	0.171698	0.535881
	N270	N	0.081608	0.818729	0.459777
	N271	N	0.915210	0.814374	0.536108
	N272	N	0.174864	0.457491	0.915451
	N273	N	0.180451	0.531023	0.086953
	N274	N	0.823256	0.458145	0.084204
	N275	N	0.823601	0.533560	0.913031
	O276	O	0.546401	0.626157	0.565500
	H277	H	0.540148	0.623231	0.571869
	H278	H	0.561808	0.619324	0.560473
	O279	O	0.432974	0.478490	0.426039
	H280	H	0.425137	0.480562	0.421402
	H281	H	0.451412	0.477798	0.422624
	O282	O	0.890968	1.013734	-0.070506
	H283	H	0.894423	1.023602	-0.067155
	H284	H	0.890728	1.012966	-0.078552
	O285	O	1.039463	-0.016970	1.045404
	H286	H	1.028878	-0.012857	1.048284
	H287	H	1.051304	0.001054	1.050497
	O288	O	0.484341	0.466111	0.550911
	H289	H	0.486509	0.471905	0.555097
	H290	H	0.481950	0.458598	0.560087
	O291	O	0.600635	0.460014	0.558491
	H292	H	0.597040	0.466741	0.560994
	H293	H	0.594824	0.452013	0.559243
	O294	O	0.423523	0.439444	0.535724
	H295	H	0.409147	0.436732	0.529691
	H296	H	0.420564	0.427137	0.541776
	O297	O	0.070824	-0.040481	0.921673
	H298	H	0.082334	-0.042552	0.925958
	H299	H	0.068094	-0.047941	0.916370
	O300	O	0.489284	0.620964	0.405598
	H301	H	0.498687	0.613547	0.416006
	H302	H	0.498764	0.621391	0.413140
	O303	O	1.143970	0.977299	-0.025328
	H304	H	1.154714	0.977042	-0.036375
	H305	H	1.149662	0.980357	-0.017979
	O306	O	-0.056053	1.029076	1.080209
	H307	H	-0.051565	1.034889	1.065881
	H308	H	-0.059501	1.020566	1.078631
	O309	O	0.510584	0.467405	0.529133
	H310	H	0.507431	0.476430	0.527757
	H311	H	0.510771	0.458482	0.541157
	O312	O	-0.001959	0.061685	-0.098418
	H313	H	-0.000075	0.062540	-0.103119
	H314	H	0.004037	0.059652	-0.102635
	O315	O	0.495914	-0.450010	0.553880
	H316	H	0.498344	-0.447922	0.546745
	H317	H	0.492365	-0.466701	0.547706
	O318	O	1.132565	1.022532	0.955044
	H319	H	1.137242	1.015983	0.968501
	H320	H	1.142380	1.031803	0.959355
	O321	O	-0.125773	-0.037401	1.033167
	H322	H	-0.132360	-0.045698	1.036628
	H323	H	-0.117298	-0.034573	1.035896
	O324	O	0.509567	0.596788	0.482316
	H325	H	0.506350	0.600570	0.486940
	H326	H	0.504790	0.594628	0.478981
	O327	O	0.010822	0.033259	0.172974
	H328	H	0.010794	0.038153	0.179697
	H329	H	0.006765	0.040545	0.178758
	O330	O	0.557242	0.547921	0.457552
	H331	H	0.553766	0.542528	0.452762
	H332	H	0.563416	0.557694	0.457074
	O333	O	0.076129	1.123027	0.990695
	H334	H	0.062761	1.126749	0.971827
	H335	H	0.064143	1.125782	1.003085
	O336	O	0.063993	-0.087499	-0.049478
	H337	H	0.061300	-0.083136	-0.040543
	H338	H	0.056860	-0.099744	-0.048124
	O339	O	0.495690	0.393126	0.579095
	H340	H	0.492133	0.406106	0.580202
	H341	H	0.495348	0.389201	0.582725
	O342	O	0.897477	0.986088	1.057215
	H343	H	0.906940	0.983607	1.053566
	H344	H	0.890000	0.986666	1.065948
	O345	O	0.963573	1.986518	0.011574
	H346	H	0.955554	1.982347	0.019360
	H347	H	0.967438	1.999724	0.004195
	O348	O	0.476144	0.505606	0.422911
	H349	H	0.471706	0.511605	0.412457
	H350	H	0.483898	0.516339	0.426588
	O351	O	0.490038	0.428243	0.447882
	H352	H	0.495750	0.434294	0.448920
	H353	H	0.494552	0.429989	0.449809
	O354	O	0.383453	0.414278	0.623377
	H355	H	0.378226	0.421897	0.623968
	H356	H	0.386306	0.411675	0.624931
	O357	O	0.980100	-0.017689	0.980577
	H358	H	0.978029	-0.019239	0.982214
	H359	H	0.971478	-0.026103	0.979663
	O360	O	0.539382	0.448229	0.495750
	H361	H	0.538151	0.432377	0.501732
	H362	H	0.550027	0.450551	0.489986
	O363	O	0.531094	0.493468	0.523953
	H364	H	0.531431	0.491251	0.533816
	H365	H	0.541858	0.491529	0.531220
	O366	O	0.950655	0.911881	1.112054
	H367	H	0.970637	0.918990	1.118067
	H368	H	0.948721	0.896575	1.105454
	O369	O	1.027763	0.063018	1.100988
	H370	H	1.023694	0.061134	1.095997
	H371	H	1.032870	0.061491	1.108041
	O372	O	-0.115656	-0.016179	-0.174442
	H373	H	-0.115004	-0.012296	-0.162286
	H374	H	-0.114327	-0.013076	-0.181550
	O375	O	0.937630	0.020333	-0.043108
	H376	H	0.933243	0.009066	-0.031798
	H377	H	0.944495	0.028417	-0.044050
	O378	O	0.491496	0.500119	0.491983
	H379	H	0.498948	0.507005	0.497739
	H380	H	0.502032	0.514679	0.491492
	O381	O	1.065114	1.079360	0.076958
	H382	H	1.058766	1.069355	0.093983
	H383	H	1.074114	1.088338	0.077319
