data_Molecule from HDF5

_cell_length_a		16.361154
_cell_length_b		16.139196
_cell_length_c		16.224751
_cell_angle_alpha	89.823280
_cell_angle_beta	90.234654
_cell_angle_gamma	90.093087
_symmetry_space_group_name_H-M	'P 1'
_symmetry_Int_Tables_number		1

loop_
	_symmetry_equiv_pos_as_xyz
	x,y,z

loop_
	_atom_site_label
	_atom_site_type_symbol
	_atom_site_fract_x
	_atom_site_fract_y
	_atom_site_fract_z
	H0	H	0.405595	0.828719	0.711353
	H1	H	0.603707	0.158407	0.714265
	H2	H	0.599417	0.829493	0.286082
	H3	H	0.403585	0.158936	0.284234
	H4	H	0.718341	0.392529	0.835863
	H5	H	0.717144	0.594689	0.162016
	H6	H	0.283834	0.597784	0.836161
	H7	H	0.283765	0.393169	0.161705
	H8	H	0.837839	0.709342	0.398815
	H9	H	0.164190	0.708978	0.597984
	H10	H	0.839430	0.275863	0.597786
	H11	H	0.165049	0.281471	0.400194
	H12	H	0.838647	0.392045	0.715277
	H13	H	0.162759	0.595308	0.716367
	H14	H	0.837895	0.595456	0.281632
	H15	H	0.163197	0.395860	0.283180
	H16	H	0.403891	0.708404	0.834298
	H17	H	0.599193	0.706494	0.163762
	H18	H	0.597416	0.281005	0.834075
	H19	H	0.401014	0.278734	0.162409
	H20	H	0.716251	0.830041	0.399365
	H21	H	0.720064	0.157799	0.601510
	H22	H	0.287278	0.830118	0.598674
	H23	H	0.285359	0.157641	0.395701
	H24	H	0.900655	0.330331	0.213261
	H25	H	0.099903	0.660198	0.213007
	H26	H	0.098495	0.330889	0.786422
	H27	H	0.900968	0.659764	0.782380
	H28	H	0.217583	0.892633	0.334326
	H29	H	0.220291	0.095422	0.661131
	H30	H	0.784546	0.097439	0.335756
	H31	H	0.786445	0.892093	0.661581
	H32	H	0.337845	0.209318	0.896858
	H33	H	0.662960	0.211743	0.099416
	H34	H	0.338195	0.780245	0.095013
	H35	H	0.665119	0.779975	0.901139
	H36	H	0.339552	0.892178	0.215375
	H37	H	0.664128	0.095276	0.215247
	H38	H	0.339787	0.095273	0.779533
	H39	H	0.665426	0.895216	0.784457
	H40	H	0.904758	0.207779	0.334135
	H41	H	0.102835	0.208987	0.662299
	H42	H	0.097864	0.780639	0.333531
	H43	H	0.904369	0.779904	0.663126
	H44	H	0.218396	0.332787	0.895544
	H45	H	0.217409	0.659895	0.099944
	H46	H	0.784582	0.331524	0.100157
	H47	H	0.783935	0.659350	0.896092
	H48	H	0.419938	0.106807	0.585011
	H49	H	0.604739	0.875513	0.586201
	H50	H	0.593645	0.111327	0.408643
	H51	H	0.398944	0.872299	0.402356
	H52	H	0.608055	0.405304	0.118613
	H53	H	0.596238	0.587905	0.880790
	H54	H	0.404248	0.586247	0.117170
	H55	H	0.400243	0.411367	0.882660
	H56	H	0.112953	0.577904	0.408050
	H57	H	0.881673	0.592662	0.595465
	H58	H	0.117342	0.403817	0.594858
	H59	H	0.885641	0.399468	0.408446
	H60	H	0.117650	0.400222	0.593972
	H61	H	0.886574	0.587884	0.582349
	H62	H	0.120573	0.589025	0.396566
	H63	H	0.886395	0.404466	0.405868
	H64	H	0.410103	0.583777	0.115264
	H65	H	0.593609	0.583983	0.882828
	H66	H	0.585671	0.416077	0.108551
	H67	H	0.416820	0.406497	0.886151
	H68	H	0.595901	0.112650	0.407808
	H69	H	0.595546	0.874131	0.601181
	H70	H	0.401879	0.112158	0.582217
	H71	H	0.419832	0.877164	0.400569
	H72	H	0.909056	0.612755	0.090017
	H73	H	0.094814	0.376486	0.094254
	H74	H	0.094109	0.613390	0.908192
	H75	H	0.908328	0.377334	0.904413
	H76	H	0.089058	0.898118	0.614204
	H77	H	0.084687	0.077392	0.387331
	H78	H	0.907067	0.081019	0.615070
	H79	H	0.912039	0.898180	0.381565
	H80	H	0.620110	0.087267	0.897070
	H81	H	0.391043	0.077779	0.082726
	H82	H	0.618752	0.903082	0.098625
	H83	H	0.388476	0.913155	0.899551
	H84	H	0.619107	0.895457	0.092655
	H85	H	0.383244	0.081306	0.104173
	H86	H	0.617687	0.096448	0.912421
	H87	H	0.382048	0.894079	0.896830
	H88	H	0.914952	0.081099	0.612912
	H89	H	0.092057	0.100240	0.378209
	H90	H	0.101651	0.898006	0.617720
	H91	H	0.901824	0.900938	0.378563
	H92	H	0.092101	0.613052	0.905801
	H93	H	0.087676	0.380493	0.089219
	H94	H	0.907232	0.612612	0.088916
	H95	H	0.909312	0.379887	0.909400
	H96	H	0.408984	0.115380	0.599702
	H97	H	0.587366	0.881086	0.586544
	H98	H	0.594455	0.111744	0.405926
	H99	H	0.409356	0.880756	0.418649
	H100	H	0.586723	0.389688	0.117415
	H101	H	0.590922	0.588049	0.881574
	H102	H	0.409322	0.589838	0.116042
	H103	H	0.405459	0.395112	0.878824
	H104	H	0.115991	0.594455	0.412501
	H105	H	0.887079	0.578916	0.594116
	H106	H	0.115637	0.403109	0.591453
	H107	H	0.883946	0.399109	0.402530
	H108	H	0.907157	0.613036	0.091800
	H109	H	0.096003	0.378827	0.085667
	H110	H	0.092109	0.612513	0.908053
	H111	H	0.904610	0.377695	0.908947
	H112	H	0.096820	0.908736	0.612632
	H113	H	0.107500	0.080207	0.378965
	H114	H	0.911878	0.087514	0.616275
	H115	H	0.908927	0.907541	0.383618
	H116	H	0.611531	0.078770	0.911395
	H117	H	0.382488	0.098689	0.087812
	H118	H	0.615493	0.904469	0.089745
	H119	H	0.388858	0.899078	0.915335
	C120	C	0.381859	0.002688	0.618621
	C121	C	0.624902	0.985632	0.620624
	C122	C	0.622977	0.002943	0.378406
	C123	C	0.380539	0.985228	0.376958
	C124	C	0.622455	0.373756	0.006804
	C125	C	0.622917	0.616240	0.990031
	C126	C	0.379382	0.616477	0.007679
	C127	C	0.378371	0.373564	0.990198
	C128	C	0.009024	0.617002	0.375829
	C129	C	0.992736	0.615676	0.620234
	C130	C	0.009716	0.371666	0.622203
	C131	C	0.992659	0.372288	0.376318
	C132	C	0.879174	0.504178	0.119893
	C133	C	0.122148	0.487043	0.119816
	C134	C	0.121850	0.504274	0.878234
	C135	C	0.878638	0.486823	0.877567
	C136	C	0.123722	0.872617	0.506520
	C137	C	0.124441	0.115561	0.489725
	C138	C	0.881576	0.114227	0.506841
	C139	C	0.879408	0.872440	0.489683
	C140	C	0.509380	0.116996	0.876156
	C141	C	0.492850	0.116049	0.121020
	C142	C	0.510001	0.871874	0.121488
	C143	C	0.494128	0.872987	0.876327
	C144	C	0.384914	0.878321	0.673998
	C145	C	0.623298	0.109189	0.676309
	C146	C	0.620401	0.878781	0.323577
	C147	C	0.382800	0.109519	0.321300
	C148	C	0.678878	0.374051	0.884276
	C149	C	0.678908	0.614497	0.113273
	C150	C	0.322779	0.616731	0.884634
	C151	C	0.322125	0.373590	0.112831
	C152	C	0.886485	0.672234	0.378005
	C153	C	0.115462	0.671002	0.618097
	C154	C	0.887961	0.314029	0.619297
	C155	C	0.115602	0.317900	0.379268
	C156	C	0.887524	0.372070	0.677458
	C157	C	0.114539	0.614865	0.677448
	C158	C	0.886700	0.615347	0.319901
	C159	C	0.114783	0.375137	0.320939
	C160	C	0.382425	0.671850	0.883885
	C161	C	0.620458	0.670382	0.114040
	C162	C	0.619178	0.318226	0.883395
	C163	C	0.380584	0.316882	0.113300
	C164	C	0.678792	0.879256	0.379640
	C165	C	0.681646	0.108844	0.620402
	C166	C	0.325751	0.878928	0.618215
	C167	C	0.324182	0.108801	0.376859
	C168	C	0.880803	0.380054	0.175723
	C169	C	0.119863	0.610982	0.175440
	C170	C	0.119046	0.380223	0.823693
	C171	C	0.880342	0.610578	0.820398
	C172	C	0.179269	0.873146	0.383353
	C173	C	0.181388	0.114528	0.612432
	C174	C	0.823851	0.115620	0.384395
	C175	C	0.824517	0.872821	0.612780
	C176	C	0.387077	0.172232	0.876601
	C177	C	0.614728	0.173361	0.119504
	C178	C	0.387239	0.817256	0.116991
	C179	C	0.616336	0.817482	0.879983
	C180	C	0.387852	0.873263	0.176574
	C181	C	0.615158	0.115384	0.177282
	C182	C	0.387930	0.115162	0.818307
	C183	C	0.616640	0.874977	0.821945
	C184	C	0.883664	0.170622	0.383378
	C185	C	0.123259	0.171497	0.612925
	C186	C	0.119666	0.817570	0.382797
	C187	C	0.883075	0.816778	0.613499
	C188	C	0.178692	0.381226	0.877924
	C189	C	0.178510	0.610795	0.119337
	C190	C	0.822979	0.380557	0.119340
	C191	C	0.822463	0.610369	0.877303
	C192	C	0.403799	0.089032	0.595487
	C193	C	0.602412	0.899005	0.597882
	C194	C	0.601113	0.089299	0.400799
	C195	C	0.402826	0.899235	0.400158
	C196	C	0.600071	0.396929	0.092676
	C197	C	0.600082	0.593474	0.904004
	C198	C	0.401434	0.593392	0.093740
	C199	C	0.400925	0.397314	0.904696
	C200	C	0.094324	0.593943	0.398917
	C201	C	0.907386	0.593083	0.597307
	C202	C	0.094787	0.395415	0.599922
	C203	C	0.907343	0.394445	0.398898
	C204	C	0.901365	0.590550	0.096914
	C205	C	0.099594	0.401014	0.096771
	C206	C	0.099589	0.590620	0.900829
	C207	C	0.900765	0.400685	0.900753
	C208	C	0.102162	0.895008	0.592430
	C209	C	0.101408	0.092634	0.403666
	C210	C	0.904614	0.090357	0.592521
	C211	C	0.901145	0.895416	0.403833
	C212	C	0.594358	0.094314	0.900158
	C213	C	0.407715	0.092745	0.098225
	C214	C	0.595487	0.894333	0.099961
	C215	C	0.408574	0.895409	0.897644
	Zn216	Zn	0.502785	-0.005423	0.747131
	Zn217	Zn	0.501799	-0.005764	0.250250
	Zn218	Zn	0.751148	0.495862	-0.001066
	Zn219	Zn	0.250318	0.495831	-0.001265
	Zn220	Zn	0.001121	0.744534	0.498080
	Zn221	Zn	0.002098	0.243182	0.498366
	Zn222	Zn	0.000447	0.495481	0.750126
	Zn223	Zn	0.000411	0.494935	0.247771
	Zn224	Zn	0.501927	0.743833	-0.001136
	Zn225	Zn	0.500033	0.245404	-0.001832
	Zn226	Zn	0.751784	-0.005559	0.498639
	Zn227	Zn	0.252596	-0.006148	0.497817
	N228	N	0.419128	0.956294	0.674425
	N229	N	0.588916	0.031470	0.676633
	N230	N	0.586435	0.956637	0.322534
	N231	N	0.417177	0.031728	0.321241
	N232	N	0.680950	0.407803	0.962115
	N233	N	0.680531	0.581522	0.035240
	N234	N	0.320583	0.583104	0.962612
	N235	N	0.320623	0.408226	0.035280
	N236	N	0.963643	0.673572	0.411986
	N237	N	0.038630	0.671908	0.583323
	N238	N	0.964988	0.313748	0.585663
	N239	N	0.038683	0.316340	0.413397
	N240	N	0.964213	0.407260	0.679429
	N241	N	0.037271	0.581094	0.678674
	N242	N	0.964020	0.581752	0.318610
	N243	N	0.037480	0.408211	0.318958
	N244	N	0.417211	0.671541	0.961263
	N245	N	0.586431	0.671438	0.036321
	N246	N	0.584655	0.318014	0.960644
	N247	N	0.414730	0.316689	0.036011
	N248	N	0.680402	0.957507	0.413073
	N249	N	0.682703	0.030873	0.586334
	N250	N	0.323712	0.957095	0.584408
	N251	N	0.322514	0.030701	0.410713
	N252	N	0.915287	0.457772	0.176110
	N253	N	0.085293	0.533021	0.175718
	N254	N	0.084698	0.457965	0.823572
	N255	N	0.914563	0.532840	0.820333
	N256	N	0.181966	0.906718	0.461134
	N257	N	0.182101	0.080514	0.534741
	N258	N	0.822575	0.081271	0.462096
	N259	N	0.822023	0.906521	0.534918
	N260	N	0.463699	0.173518	0.911997
	N261	N	0.537709	0.173897	0.084998
	N262	N	0.464166	0.816410	0.083328
	N263	N	0.539112	0.815986	0.913064
	N264	N	0.465208	0.906639	0.179460
	N265	N	0.538533	0.080457	0.178289
	N266	N	0.465118	0.081608	0.817865
	N267	N	0.539640	0.908861	0.819638
	N268	N	0.918894	0.169897	0.460524
	N269	N	0.088580	0.172282	0.535504
	N270	N	0.085851	0.817096	0.460256
	N271	N	0.916581	0.816102	0.535800
	N272	N	0.180433	0.459372	0.911460
	N273	N	0.180111	0.532917	0.085434
	N274	N	0.821702	0.458820	0.085415
	N275	N	0.821058	0.532387	0.911821
	O276	O	0.455859	0.479530	0.559169
	H277	H	0.456835	0.471809	0.568623
	H278	H	0.453447	0.486824	0.559605
	O279	O	0.462625	0.525300	0.485396
	H280	H	0.467920	0.529650	0.477276
	H281	H	0.466433	0.521203	0.485685
	O282	O	0.919286	0.859536	0.075418
	H283	H	0.920053	0.863255	0.066960
	H284	H	0.918153	0.857818	0.077392
	O285	O	1.015904	-0.030799	0.943992
	H286	H	1.005640	-0.026378	0.938944
	H287	H	1.023877	-0.035917	0.936893
	O288	O	0.532648	0.584258	0.543990
	H289	H	0.524033	0.598725	0.533311
	H290	H	0.532372	0.586998	0.536723
	O291	O	0.441440	0.568959	0.582907
	H292	H	0.446508	0.561044	0.577068
	H293	H	0.442132	0.558782	0.592424
	O294	O	0.510855	0.454725	0.475306
	H295	H	0.512930	0.447150	0.473601
	H296	H	0.511036	0.452529	0.468550
	O297	O	-0.035569	-0.002884	1.046169
	H298	H	-0.039449	0.005102	1.030725
	H299	H	-0.035878	-0.001785	1.044690
	O300	O	0.531087	0.533208	0.620974
	H301	H	0.533861	0.521148	0.621946
	H302	H	0.530839	0.541149	0.635744
	O303	O	0.941369	1.053182	0.004713
	H304	H	0.939721	1.048856	0.005738
	H305	H	0.950081	1.060301	0.013765
	O306	O	0.075705	1.067016	1.087968
	H307	H	0.079097	1.083517	1.093891
	H308	H	0.055828	1.069054	1.094005
	O309	O	0.485164	0.430215	0.537317
	H310	H	0.473393	0.417375	0.536111
	H311	H	0.484243	0.437830	0.530314
	O312	O	-0.027514	0.011047	-0.013095
	H313	H	-0.024529	0.022676	-0.007842
	H314	H	-0.029067	0.012144	-0.019557
	O315	O	0.577308	-0.578239	0.556056
	H316	H	0.579617	-0.573062	0.540777
	H317	H	0.592234	-0.579243	0.572629
	O318	O	0.994955	1.071657	1.042058
	H319	H	0.989171	1.061538	1.050149
	H320	H	1.005947	1.068966	1.033068
	O321	O	0.040811	0.017389	1.057549
	H322	H	0.027059	0.027907	1.055792
	H323	H	0.045670	0.013197	1.060069
	O324	O	0.610220	0.520237	0.463974
	H325	H	0.614753	0.526463	0.459842
	H326	H	0.594763	0.528253	0.464317
	O327	O	-0.060262	-0.041616	0.071976
	H328	H	-0.069455	-0.042076	0.074139
	H329	H	-0.050271	-0.043693	0.073501
	O330	O	0.454423	0.524831	0.485885
	H331	H	0.439176	0.531100	0.486850
	H332	H	0.457541	0.520153	0.479660
	O333	O	0.076020	0.949384	0.924057
	H334	H	0.082903	0.963369	0.923410
	H335	H	0.072554	0.954707	0.907987
	O336	O	-0.111787	0.099712	-0.071858
	H337	H	-0.116925	0.104279	-0.078107
	H338	H	-0.126300	0.094101	-0.078289
	O339	O	0.466326	0.490818	0.539815
	H340	H	0.467115	0.502081	0.530505
	H341	H	0.471860	0.501034	0.548930
	O342	O	0.901609	0.959427	0.967204
	H343	H	0.902869	0.957836	0.959369
	H344	H	0.903273	0.956251	0.964421
	O345	O	1.061157	1.980630	-0.081925
	H346	H	1.062196	1.985939	-0.076631
	H347	H	1.070702	1.967909	-0.064991
	O348	O	0.487194	0.441389	0.548003
	H349	H	0.489593	0.446181	0.548913
	H350	H	0.484840	0.435933	0.555609
	O351	O	0.504474	0.517986	0.485207
	H352	H	0.512135	0.524238	0.486379
	H353	H	0.502748	0.519353	0.498741
	O354	O	0.402194	0.499601	0.512935
	H355	H	0.396846	0.495111	0.502451
	H356	H	0.394113	0.504360	0.528360
	O357	O	1.039702	-0.007021	1.013329
	H358	H	1.045601	-0.008110	1.009864
	H359	H	1.041613	-0.006979	1.018897
	O360	O	0.626276	0.534197	0.429306
	H361	H	0.627837	0.530280	0.420498
	H362	H	0.632214	0.547929	0.427536
	O363	O	0.486257	0.443985	0.479889
	H364	H	0.487512	0.447831	0.484956
	H365	H	0.482399	0.446982	0.475440
	O366	O	1.038192	0.976027	0.956021
	H367	H	1.025288	0.986564	0.955156
	H368	H	1.041645	0.977123	0.957271
	O369	O	1.077963	0.028446	0.919455
	H370	H	1.070211	0.013539	0.921859
	H371	H	1.087883	0.049071	0.925463
	O372	O	0.061956	-0.002099	-0.092253
	H373	H	0.060738	-0.012178	-0.091496
	H374	H	0.066048	-0.004086	-0.086802
	O375	O	0.879963	-0.028585	0.061202
	H376	H	0.884024	-0.042089	0.075148
	H377	H	0.873847	-0.037665	0.066346
	O378	O	0.464324	0.517426	0.383206
	H379	H	0.460371	0.509952	0.384857
	H380	H	0.451925	0.510536	0.394960
	O381	O	1.000464	0.995581	0.026746
	H382	H	1.004415	0.996723	0.014834
	H383	H	1.001165	1.006650	0.029986
