data_Molecule from HDF5

_cell_length_a		16.201868
_cell_length_b		16.398728
_cell_length_c		16.264364
_cell_angle_alpha	90.005953
_cell_angle_beta	89.952380
_cell_angle_gamma	89.987677
_symmetry_space_group_name_H-M	'P 1'
_symmetry_Int_Tables_number		1

loop_
	_symmetry_equiv_pos_as_xyz
	x,y,z

loop_
	_atom_site_label
	_atom_site_type_symbol
	_atom_site_fract_x
	_atom_site_fract_y
	_atom_site_fract_z
	H0	H	0.401167	0.837213	0.715042
	H1	H	0.597522	0.162725	0.713946
	H2	H	0.598632	0.837562	0.285955
	H3	H	0.401178	0.162008	0.285380
	H4	H	0.712070	0.404610	0.835190
	H5	H	0.712364	0.596748	0.164397
	H6	H	0.287719	0.595295	0.835306
	H7	H	0.287713	0.403537	0.164414
	H8	H	0.836579	0.714169	0.400833
	H9	H	0.164128	0.715437	0.600658
	H10	H	0.836005	0.285871	0.598876
	H11	H	0.163844	0.285414	0.400553
	H12	H	0.835259	0.403371	0.712664
	H13	H	0.164745	0.596986	0.713799
	H14	H	0.835319	0.596297	0.286415
	H15	H	0.164471	0.402142	0.286082
	H16	H	0.400184	0.715433	0.837003
	H17	H	0.599326	0.714904	0.163036
	H18	H	0.599691	0.284724	0.836713
	H19	H	0.399878	0.284528	0.163304
	H20	H	0.715306	0.837977	0.401533
	H21	H	0.713189	0.163567	0.596313
	H22	H	0.286165	0.836902	0.596601
	H23	H	0.286630	0.163235	0.404039
	H24	H	0.900659	0.336637	0.214939
	H25	H	0.097411	0.662554	0.214385
	H26	H	0.097175	0.337080	0.786037
	H27	H	0.900504	0.662380	0.784317
	H28	H	0.212073	0.904563	0.335945
	H29	H	0.210837	0.095626	0.665207
	H30	H	0.788315	0.095425	0.335890
	H31	H	0.786631	0.903919	0.664797
	H32	H	0.335078	0.213809	0.901158
	H33	H	0.663459	0.215431	0.098593
	H34	H	0.337033	0.785530	0.098960
	H35	H	0.664858	0.786558	0.900881
	H36	H	0.335690	0.902939	0.213075
	H37	H	0.664571	0.097404	0.212280
	H38	H	0.335085	0.094843	0.788338
	H39	H	0.664626	0.902409	0.785878
	H40	H	0.901106	0.214747	0.337099
	H41	H	0.099584	0.216281	0.662737
	H42	H	0.101431	0.783953	0.337739
	H43	H	0.900238	0.784934	0.663403
	H44	H	0.214031	0.337360	0.902146
	H45	H	0.214873	0.662335	0.098495
	H46	H	0.785757	0.336578	0.096933
	H47	H	0.785581	0.662800	0.901830
	H48	H	0.405184	0.118672	0.603815
	H49	H	0.578918	0.890366	0.586039
	H50	H	0.606125	0.118200	0.412313
	H51	H	0.405520	0.882730	0.403547
	H52	H	0.587369	0.411321	0.113737
	H53	H	0.600121	0.590674	0.881573
	H54	H	0.404321	0.596024	0.118754
	H55	H	0.406288	0.402406	0.881618
	H56	H	0.113192	0.583549	0.411206
	H57	H	0.883635	0.595484	0.588731
	H58	H	0.118290	0.400339	0.591733
	H59	H	0.883260	0.406555	0.410142
	H60	H	0.114747	0.410823	0.588052
	H61	H	0.884753	0.588771	0.591875
	H62	H	0.120994	0.593479	0.396336
	H63	H	0.882920	0.409958	0.405805
	H64	H	0.407731	0.588395	0.114844
	H65	H	0.586626	0.589835	0.886464
	H66	H	0.590509	0.399300	0.118400
	H67	H	0.404267	0.407078	0.881845
	H68	H	0.590967	0.119499	0.393057
	H69	H	0.607679	0.882826	0.584139
	H70	H	0.412398	0.113206	0.591376
	H71	H	0.408949	0.884629	0.406951
	H72	H	0.910809	0.614557	0.097066
	H73	H	0.084961	0.384839	0.097265
	H74	H	0.092549	0.613549	0.911875
	H75	H	0.893617	0.382677	0.912709
	H76	H	0.100423	0.910034	0.618367
	H77	H	0.101149	0.098967	0.379347
	H78	H	0.901672	0.100701	0.621019
	H79	H	0.910518	0.905999	0.384003
	H80	H	0.615819	0.090661	0.907508
	H81	H	0.379391	0.101815	0.095265
	H82	H	0.615769	0.906379	0.083908
	H83	H	0.380029	0.908127	0.895861
	H84	H	0.616210	0.914503	0.096031
	H85	H	0.385629	0.092346	0.084045
	H86	H	0.618670	0.095391	0.904344
	H87	H	0.381784	0.896046	0.913685
	H88	H	0.904167	0.085760	0.616030
	H89	H	0.092811	0.084360	0.385775
	H90	H	0.085356	0.910605	0.614041
	H91	H	0.906385	0.902812	0.382110
	H92	H	0.099582	0.618755	0.904625
	H93	H	0.095466	0.385981	0.084415
	H94	H	0.907246	0.613715	0.088896
	H95	H	0.906896	0.380028	0.892348
	H96	H	0.398105	0.117038	0.590060
	H97	H	0.593264	0.879544	0.609586
	H98	H	0.583094	0.110537	0.413871
	H99	H	0.404367	0.883880	0.407486
	H100	H	0.599293	0.408179	0.118249
	H101	H	0.591395	0.601678	0.880733
	H102	H	0.413514	0.595667	0.115915
	H103	H	0.409106	0.405712	0.884183
	H104	H	0.117674	0.602201	0.413532
	H105	H	0.881902	0.594635	0.595876
	H106	H	0.118195	0.408865	0.599170
	H107	H	0.881847	0.404505	0.405421
	H108	H	0.902194	0.617155	0.095751
	H109	H	0.100876	0.379983	0.099169
	H110	H	0.088891	0.615938	0.901742
	H111	H	0.917292	0.388846	0.912520
	H112	H	0.091603	0.897386	0.620049
	H113	H	0.083636	0.099353	0.384559
	H114	H	0.916239	0.096112	0.615405
	H115	H	0.905574	0.908341	0.383277
	H116	H	0.616521	0.096284	0.910162
	H117	H	0.382389	0.086719	0.098515
	H118	H	0.620659	0.900679	0.096631
	H119	H	0.387791	0.916736	0.914143
	C120	C	0.377760	0.008400	0.622646
	C121	C	0.621457	0.991849	0.621460
	C122	C	0.622169	0.008817	0.377750
	C123	C	0.377795	0.991427	0.378266
	C124	C	0.620808	0.378541	0.008444
	C125	C	0.621502	0.622179	0.991359
	C126	C	0.379403	0.621333	0.008226
	C127	C	0.378752	0.377805	0.991613
	C128	C	0.008709	0.621161	0.378745
	C129	C	0.991838	0.621462	0.621450
	C130	C	0.008413	0.378869	0.621221
	C131	C	0.991324	0.378535	0.378560
	C132	C	0.878060	0.507487	0.122225
	C133	C	0.121673	0.491450	0.121631
	C134	C	0.121650	0.508278	0.878100
	C135	C	0.877760	0.491614	0.877672
	C136	C	0.121186	0.878386	0.508931
	C137	C	0.121124	0.121954	0.491513
	C138	C	0.879160	0.121577	0.508842
	C139	C	0.878701	0.877922	0.491822
	C140	C	0.508197	0.121585	0.878826
	C141	C	0.491069	0.122034	0.121168
	C142	C	0.508998	0.878843	0.120905
	C143	C	0.491982	0.878724	0.878837
	C144	C	0.380891	0.885665	0.676986
	C145	C	0.618643	0.114176	0.676446
	C146	C	0.619291	0.886345	0.323415
	C147	C	0.380798	0.113832	0.323749
	C148	C	0.675075	0.382808	0.884494
	C149	C	0.675633	0.618512	0.115017
	C150	C	0.324660	0.617370	0.884581
	C151	C	0.324990	0.382406	0.115438
	C152	C	0.885159	0.675989	0.381106
	C153	C	0.115416	0.676663	0.619880
	C154	C	0.884856	0.323897	0.619043
	C155	C	0.115268	0.323960	0.380906
	C156	C	0.884387	0.382417	0.675429
	C157	C	0.115609	0.618037	0.676296
	C158	C	0.884821	0.617763	0.323906
	C159	C	0.115582	0.381732	0.323988
	C160	C	0.380416	0.677023	0.885551
	C161	C	0.619390	0.677342	0.114383
	C162	C	0.619311	0.323280	0.885168
	C163	C	0.380616	0.323111	0.114554
	C164	C	0.676908	0.886331	0.381160
	C165	C	0.675563	0.114758	0.617539
	C166	C	0.323618	0.885455	0.618402
	C167	C	0.323607	0.114298	0.382284
	C168	C	0.880576	0.385168	0.176746
	C169	C	0.118526	0.613883	0.176741
	C170	C	0.118248	0.385771	0.823648
	C171	C	0.880264	0.613901	0.822489
	C172	C	0.175071	0.882803	0.385221
	C173	C	0.174884	0.117655	0.615479
	C174	C	0.825054	0.117507	0.384912
	C175	C	0.824143	0.882103	0.615440
	C176	C	0.384276	0.175839	0.881215
	C177	C	0.614698	0.177141	0.118828
	C178	C	0.385657	0.823469	0.119175
	C179	C	0.615778	0.823910	0.880856
	C180	C	0.385194	0.881853	0.175705
	C181	C	0.615144	0.118815	0.175460
	C182	C	0.384062	0.116898	0.825104
	C183	C	0.615796	0.881722	0.823909
	C184	C	0.880876	0.176719	0.385741
	C185	C	0.119062	0.177131	0.614627
	C186	C	0.119871	0.822940	0.386070
	C187	C	0.880412	0.822899	0.614756
	C188	C	0.175769	0.385469	0.881802
	C189	C	0.176580	0.613941	0.119039
	C190	C	0.823139	0.385188	0.118400
	C191	C	0.823548	0.614358	0.881091
	C192	C	0.399068	0.094079	0.601480
	C193	C	0.599760	0.906365	0.599720
	C194	C	0.599987	0.094092	0.399760
	C195	C	0.399596	0.905907	0.399879
	C196	C	0.598964	0.400038	0.094686
	C197	C	0.599360	0.600422	0.905209
	C198	C	0.401854	0.599598	0.094269
	C199	C	0.400186	0.398793	0.904863
	C200	C	0.095092	0.599490	0.400630
	C201	C	0.905622	0.599490	0.598842
	C202	C	0.094905	0.400235	0.599417
	C203	C	0.905015	0.400396	0.400543
	C204	C	0.900259	0.593221	0.100349
	C205	C	0.100185	0.405764	0.100030
	C206	C	0.100083	0.593966	0.899640
	C207	C	0.899484	0.405975	0.899395
	C208	C	0.098932	0.899710	0.595369
	C209	C	0.099071	0.100384	0.405345
	C210	C	0.900958	0.100411	0.595102
	C211	C	0.900779	0.899431	0.405426
	C212	C	0.594792	0.100343	0.900740
	C213	C	0.404807	0.100057	0.099184
	C214	C	0.595292	0.900685	0.098702
	C215	C	0.405474	0.900485	0.901298
	Zn216	Zn	0.500219	-0.000099	0.750999
	Zn217	Zn	0.500263	0.000226	0.249069
	Zn218	Zn	0.749388	0.500392	-0.000187
	Zn219	Zn	0.250751	0.499789	0.000088
	Zn220	Zn	0.000522	0.749474	0.500210
	Zn221	Zn	0.000107	0.250709	0.499905
	Zn222	Zn	-0.000498	0.499947	0.749309
	Zn223	Zn	0.000270	0.499042	0.250832
	Zn224	Zn	0.500466	0.750522	-0.000453
	Zn225	Zn	0.499454	0.249735	-0.000455
	Zn226	Zn	0.751059	0.000284	0.499921
	Zn227	Zn	0.249114	0.000002	0.500240
	N228	N	0.413655	0.963159	0.679736
	N229	N	0.585768	0.036924	0.678792
	N230	N	0.585814	0.963403	0.321332
	N231	N	0.413926	0.036658	0.321334
	N232	N	0.676336	0.416333	0.962093
	N233	N	0.677076	0.584892	0.037474
	N234	N	0.323700	0.583525	0.961997
	N235	N	0.323657	0.415808	0.037874
	N236	N	0.963204	0.678067	0.414293
	N237	N	0.037312	0.679026	0.586792
	N238	N	0.962903	0.321635	0.585888
	N239	N	0.037223	0.321993	0.414319
	N240	N	0.962129	0.415910	0.676671
	N241	N	0.038005	0.584025	0.677032
	N242	N	0.962556	0.584071	0.322487
	N243	N	0.037617	0.414879	0.322461
	N244	N	0.413722	0.679379	0.963135
	N245	N	0.586537	0.679511	0.036472
	N246	N	0.586275	0.320513	0.963185
	N247	N	0.413207	0.320341	0.036470
	N248	N	0.678630	0.963424	0.414522
	N249	N	0.677521	0.037698	0.584031
	N250	N	0.321634	0.962565	0.585188
	N251	N	0.321370	0.037053	0.415165
	N252	N	0.913946	0.462316	0.179212
	N253	N	0.085365	0.536665	0.178581
	N254	N	0.085339	0.463033	0.821333
	N255	N	0.913325	0.536583	0.820282
	N256	N	0.176077	0.916457	0.462670
	N257	N	0.176290	0.084237	0.537988
	N258	N	0.823932	0.083800	0.462403
	N259	N	0.822813	0.915658	0.537814
	N260	N	0.462565	0.178474	0.914078
	N261	N	0.536639	0.179228	0.085871
	N262	N	0.463657	0.821477	0.085772
	N263	N	0.537688	0.822192	0.914462
	N264	N	0.462800	0.915563	0.176914
	N265	N	0.537291	0.085136	0.177029
	N266	N	0.461968	0.083855	0.823671
	N267	N	0.537878	0.914986	0.822455
	N268	N	0.913761	0.179296	0.463664
	N269	N	0.086666	0.180127	0.536468
	N270	N	0.087041	0.820331	0.463986
	N271	N	0.913615	0.820542	0.536947
	N272	N	0.178100	0.462706	0.914949
	N273	N	0.178492	0.536977	0.085310
	N274	N	0.821504	0.462424	0.085271
	N275	N	0.822059	0.537496	0.914769
