data_Molecule from HDF5

_cell_length_a		16.252564
_cell_length_b		16.282539
_cell_length_c		16.291496
_cell_angle_alpha	90.096952
_cell_angle_beta	90.191550
_cell_angle_gamma	90.000963
_symmetry_space_group_name_H-M	'P 1'
_symmetry_Int_Tables_number		1

loop_
	_symmetry_equiv_pos_as_xyz
	x,y,z

loop_
	_atom_site_label
	_atom_site_type_symbol
	_atom_site_fract_x
	_atom_site_fract_y
	_atom_site_fract_z
	H0	H	0.404718	0.837609	0.715723
	H1	H	0.601742	0.165143	0.717182
	H2	H	0.600164	0.837979	0.287830
	H3	H	0.403834	0.165338	0.287803
	H4	H	0.715995	0.401758	0.838741
	H5	H	0.717356	0.600534	0.166202
	H6	H	0.287415	0.599061	0.838149
	H7	H	0.288685	0.404472	0.166610
	H8	H	0.839005	0.715074	0.403044
	H9	H	0.166167	0.715501	0.601391
	H10	H	0.838447	0.287150	0.600343
	H11	H	0.165473	0.286368	0.403823
	H12	H	0.838668	0.401336	0.716779
	H13	H	0.165611	0.599714	0.718172
	H14	H	0.837954	0.599403	0.288992
	H15	H	0.165472	0.403310	0.288389
	H16	H	0.403780	0.715432	0.838366
	H17	H	0.600520	0.715700	0.166248
	H18	H	0.600137	0.286207	0.839142
	H19	H	0.403766	0.286981	0.166129
	H20	H	0.716163	0.837928	0.403118
	H21	H	0.716454	0.165624	0.600808
	H22	H	0.289946	0.837230	0.598934
	H23	H	0.286787	0.165093	0.402956
	H24	H	0.902294	0.338192	0.217417
	H25	H	0.100636	0.664539	0.217717
	H26	H	0.100810	0.337859	0.787798
	H27	H	0.902678	0.664356	0.787504
	H28	H	0.216844	0.901403	0.338628
	H29	H	0.216584	0.098498	0.666176
	H30	H	0.788678	0.098148	0.338311
	H31	H	0.788125	0.903332	0.665997
	H32	H	0.338778	0.215229	0.903729
	H33	H	0.665857	0.216248	0.101102
	H34	H	0.338612	0.787969	0.099523
	H35	H	0.666749	0.787412	0.904731
	H36	H	0.338131	0.904312	0.214597
	H37	H	0.666125	0.100487	0.216792
	H38	H	0.338064	0.100563	0.787665
	H39	H	0.666673	0.902578	0.788369
	H40	H	0.902330	0.216375	0.340130
	H41	H	0.101964	0.215535	0.666196
	H42	H	0.099302	0.786494	0.337780
	H43	H	0.903306	0.785476	0.665766
	H44	H	0.215764	0.338214	0.904405
	H45	H	0.215446	0.665512	0.100665
	H46	H	0.788978	0.337561	0.099299
	H47	H	0.787639	0.664742	0.904331
	H48	H	0.410335	0.118920	0.596775
	H49	H	0.599722	0.884828	0.592013
	H50	H	0.587012	0.116737	0.408106
	H51	H	0.412353	0.886686	0.409953
	H52	H	0.589789	0.409205	0.116947
	H53	H	0.593505	0.593515	0.886770
	H54	H	0.410139	0.599717	0.119973
	H55	H	0.397704	0.406417	0.882160
	H56	H	0.118148	0.594246	0.411572
	H57	H	0.883661	0.591525	0.605833
	H58	H	0.120747	0.402393	0.596835
	H59	H	0.884116	0.400091	0.411985
	H60	H	0.117051	0.409647	0.589986
	H61	H	0.883716	0.603775	0.591000
	H62	H	0.118926	0.592080	0.408901
	H63	H	0.888112	0.413757	0.414995
	H64	H	0.405031	0.593195	0.118374
	H65	H	0.594687	0.596884	0.885516
	H66	H	0.597696	0.403281	0.121361
	H67	H	0.412618	0.418017	0.890156
	H68	H	0.599552	0.117041	0.416476
	H69	H	0.596528	0.883385	0.600643
	H70	H	0.410384	0.116741	0.593795
	H71	H	0.406386	0.884690	0.410618
	H72	H	0.910578	0.614416	0.087165
	H73	H	0.099501	0.384432	0.091628
	H74	H	0.096267	0.616997	0.914842
	H75	H	0.904282	0.382467	0.905011
	H76	H	0.095779	0.901404	0.619551
	H77	H	0.097490	0.092420	0.386293
	H78	H	0.910225	0.086394	0.616330
	H79	H	0.901114	0.912034	0.385422
	H80	H	0.617942	0.092753	0.915657
	H81	H	0.380907	0.107389	0.100112
	H82	H	0.617959	0.909371	0.093101
	H83	H	0.385799	0.907907	0.911006
	H84	H	0.619716	0.909996	0.098471
	H85	H	0.389564	0.093151	0.082105
	H86	H	0.618345	0.089129	0.905394
	H87	H	0.387177	0.910620	0.907789
	H88	H	0.915679	0.100248	0.619777
	H89	H	0.091039	0.090155	0.388623
	H90	H	0.101732	0.909684	0.618829
	H91	H	0.915722	0.909383	0.388833
	H92	H	0.098964	0.620965	0.905132
	H93	H	0.096806	0.382922	0.101616
	H94	H	0.901877	0.621537	0.098574
	H95	H	0.915348	0.385299	0.906910
	H96	H	0.407648	0.119119	0.594832
	H97	H	0.590477	0.886805	0.594112
	H98	H	0.599781	0.121817	0.402201
	H99	H	0.409033	0.884716	0.405066
	H100	H	0.599028	0.413743	0.118323
	H101	H	0.597150	0.593478	0.885752
	H102	H	0.413211	0.592604	0.117226
	H103	H	0.415926	0.398565	0.885614
	H104	H	0.120518	0.595272	0.409017
	H105	H	0.889222	0.585541	0.588037
	H106	H	0.119122	0.412509	0.599805
	H107	H	0.883307	0.410429	0.401697
	H108	H	0.916678	0.617553	0.101035
	H109	H	0.089768	0.385709	0.095087
	H110	H	0.089547	0.617655	0.906800
	H111	H	0.907316	0.385846	0.915067
	H112	H	0.091351	0.910268	0.616469
	H113	H	0.091946	0.096846	0.386132
	H114	H	0.901540	0.097146	0.622368
	H115	H	0.907420	0.898510	0.382210
	H116	H	0.621129	0.099464	0.907936
	H117	H	0.385582	0.083324	0.104082
	H118	H	0.620425	0.904720	0.095732
	H119	H	0.385266	0.906563	0.906898
	C120	C	0.381458	0.009924	0.623394
	C121	C	0.624293	0.993180	0.624404
	C122	C	0.623571	0.010052	0.380697
	C123	C	0.380292	0.993458	0.379940
	C124	C	0.623787	0.379763	0.010842
	C125	C	0.623749	0.622690	0.994296
	C126	C	0.380199	0.623447	0.010750
	C127	C	0.379858	0.379124	0.994192
	C128	C	0.010593	0.622024	0.381093
	C129	C	0.993843	0.622680	0.624000
	C130	C	0.010844	0.379633	0.623998
	C131	C	0.993384	0.379506	0.381035
	C132	C	0.880723	0.509836	0.124020
	C133	C	0.123677	0.492601	0.124424
	C134	C	0.123147	0.510230	0.881089
	C135	C	0.880057	0.492420	0.880381
	C136	C	0.124352	0.878599	0.510184
	C137	C	0.123136	0.122188	0.494320
	C138	C	0.880405	0.122969	0.511036
	C139	C	0.880456	0.878792	0.493871
	C140	C	0.510520	0.122311	0.880923
	C141	C	0.493648	0.123080	0.123730
	C142	C	0.510930	0.880173	0.123529
	C143	C	0.494223	0.879085	0.879995
	C144	C	0.384628	0.886584	0.677822
	C145	C	0.621898	0.116306	0.679367
	C146	C	0.620821	0.886817	0.325640
	C147	C	0.382820	0.116567	0.325313
	C148	C	0.678703	0.381535	0.887723
	C149	C	0.679192	0.620561	0.117451
	C150	C	0.325233	0.620170	0.887102
	C151	C	0.325998	0.383027	0.117592
	C152	C	0.887591	0.677029	0.383238
	C153	C	0.117224	0.677485	0.621850
	C154	C	0.887447	0.324623	0.621127
	C155	C	0.116828	0.324653	0.383647
	C156	C	0.887345	0.381834	0.678622
	C157	C	0.116929	0.619827	0.679467
	C158	C	0.887335	0.619627	0.326300
	C159	C	0.116859	0.382538	0.326256
	C160	C	0.382879	0.678090	0.887283
	C161	C	0.621028	0.677740	0.117436
	C162	C	0.620990	0.324251	0.887971
	C163	C	0.383134	0.324583	0.117119
	C164	C	0.678178	0.886664	0.383390
	C165	C	0.678789	0.116572	0.621360
	C166	C	0.327217	0.886342	0.620272
	C167	C	0.324895	0.116409	0.382789
	C168	C	0.882539	0.386808	0.179181
	C169	C	0.120889	0.615872	0.179523
	C170	C	0.120995	0.386739	0.826043
	C171	C	0.882288	0.615539	0.825297
	C172	C	0.178879	0.880966	0.387262
	C173	C	0.178965	0.119604	0.617390
	C174	C	0.825660	0.119460	0.387759
	C175	C	0.825986	0.882271	0.617192
	C176	C	0.387589	0.177532	0.883265
	C177	C	0.617071	0.178114	0.121286
	C178	C	0.387266	0.826066	0.119938
	C179	C	0.617726	0.824706	0.883540
	C180	C	0.387239	0.883448	0.177508
	C181	C	0.617227	0.120837	0.178826
	C182	C	0.387223	0.119959	0.825968
	C183	C	0.617582	0.881862	0.825696
	C184	C	0.882444	0.178034	0.388465
	C185	C	0.121860	0.177581	0.617374
	C186	C	0.120554	0.823915	0.386871
	C187	C	0.883278	0.823890	0.616936
	C188	C	0.178309	0.387020	0.883558
	C189	C	0.178170	0.616199	0.121522
	C190	C	0.826196	0.386452	0.120607
	C191	C	0.825410	0.615931	0.883556
	C192	C	0.402955	0.096043	0.601679
	C193	C	0.602164	0.907286	0.602115
	C194	C	0.601829	0.096271	0.402435
	C195	C	0.402673	0.907569	0.401947
	C196	C	0.601947	0.402313	0.096735
	C197	C	0.601755	0.600963	0.908396
	C198	C	0.402675	0.601652	0.096313
	C199	C	0.401895	0.401222	0.908048
	C200	C	0.097007	0.600149	0.403286
	C201	C	0.907819	0.600347	0.601422
	C202	C	0.096589	0.401675	0.602088
	C203	C	0.907520	0.401583	0.402955
	C204	C	0.903173	0.595816	0.101941
	C205	C	0.101794	0.406527	0.102569
	C206	C	0.101326	0.596389	0.902573
	C207	C	0.902283	0.406688	0.902571
	C208	C	0.102754	0.900664	0.595983
	C209	C	0.100227	0.099506	0.409036
	C210	C	0.902562	0.100884	0.597326
	C211	C	0.901756	0.900299	0.407695
	C212	C	0.597028	0.100125	0.903133
	C213	C	0.407511	0.101012	0.101898
	C214	C	0.597109	0.901833	0.102251
	C215	C	0.408170	0.901663	0.902084
	Zn216	Zn	0.502549	0.001542	0.752300
	Zn217	Zn	0.502377	0.001746	0.251731
	Zn218	Zn	0.752398	0.501002	0.002633
	Zn219	Zn	0.251539	0.501413	0.002423
	Zn220	Zn	0.002307	0.750597	0.501826
	Zn221	Zn	0.001934	0.251101	0.502924
	Zn222	Zn	0.001859	0.500819	0.752286
	Zn223	Zn	0.001806	0.500996	0.252672
	Zn224	Zn	0.502257	0.751984	0.002179
	Zn225	Zn	0.502325	0.251087	0.002279
	Zn226	Zn	0.751864	0.001234	0.502625
	Zn227	Zn	0.252637	0.001093	0.502090
	N228	N	0.417545	0.964360	0.679803
	N229	N	0.588790	0.038601	0.681492
	N230	N	0.587211	0.964322	0.324176
	N231	N	0.416515	0.039082	0.323480
	N232	N	0.680490	0.415468	0.965147
	N233	N	0.680772	0.586882	0.039963
	N234	N	0.323362	0.586975	0.964682
	N235	N	0.323633	0.415952	0.039906
	N236	N	0.965304	0.678491	0.416786
	N237	N	0.039612	0.679244	0.587906
	N238	N	0.965078	0.323162	0.587753
	N239	N	0.039066	0.322441	0.416757
	N240	N	0.964989	0.415240	0.680584
	N241	N	0.039112	0.586715	0.681059
	N242	N	0.964981	0.586178	0.324905
	N243	N	0.039186	0.415894	0.324511
	N244	N	0.416323	0.680292	0.964930
	N245	N	0.587230	0.679290	0.039944
	N246	N	0.587790	0.322759	0.965554
	N247	N	0.415721	0.322299	0.039286
	N248	N	0.679945	0.964324	0.416877
	N249	N	0.680208	0.039073	0.587575
	N250	N	0.325142	0.964001	0.586998
	N251	N	0.323197	0.038839	0.415923
	N252	N	0.916020	0.464475	0.181127
	N253	N	0.087842	0.538115	0.181516
	N254	N	0.087536	0.464319	0.824302
	N255	N	0.915712	0.538008	0.823484
	N256	N	0.181117	0.914411	0.464777
	N257	N	0.179742	0.085418	0.540161
	N258	N	0.824453	0.085840	0.465191
	N259	N	0.824041	0.915690	0.539696
	N260	N	0.465299	0.178972	0.916972
	N261	N	0.539333	0.179685	0.087756
	N262	N	0.465090	0.823811	0.087360
	N263	N	0.539986	0.822858	0.916543
	N264	N	0.465131	0.916502	0.179867
	N265	N	0.539546	0.087300	0.180529
	N266	N	0.464902	0.086356	0.824545
	N267	N	0.539740	0.915135	0.823609
	N268	N	0.915496	0.180243	0.466316
	N269	N	0.087824	0.179419	0.539928
	N270	N	0.087528	0.822120	0.464455
	N271	N	0.916342	0.821666	0.539200
	N272	N	0.179712	0.464464	0.917180
	N273	N	0.180212	0.538579	0.088079
	N274	N	0.825250	0.463931	0.086869
	N275	N	0.823644	0.538324	0.916921
	O276	O	0.526899	0.533902	0.490240
	H277	H	0.524497	0.536430	0.496373
	H278	H	0.525149	0.538319	0.494428
	O279	O	0.036476	0.067244	0.025211
	H280	H	0.034618	0.063973	0.024764
	H281	H	0.040161	0.059636	0.016858
	O282	O	0.492693	0.593863	0.459531
	H283	H	0.495306	0.597255	0.459941
	H284	H	0.492824	0.588614	0.462503
	O285	O	0.068566	0.039210	0.012457
	H286	H	0.068253	0.040660	0.020854
	H287	H	0.078509	0.041266	0.023047
	O288	O	1.098662	0.050579	0.049591
	H289	H	1.091820	0.053648	0.040418
	H290	H	1.104499	0.056786	0.047707
	O291	O	-0.504727	0.593714	-0.519304
	H292	H	-0.501887	0.591680	-0.518013
	H293	H	-0.495522	0.588825	-0.526822
	O294	O	0.531805	0.520849	0.491641
	H295	H	0.523232	0.528624	0.482383
	H296	H	0.535378	0.521132	0.493905
	O297	O	-0.434184	1.530430	0.528262
	H298	H	-0.430282	1.535812	0.529876
	H299	H	-0.429155	1.528544	0.527969
	O300	O	1.473819	-0.446271	0.491201
	H301	H	1.473368	-0.437283	0.495679
	H302	H	1.477315	-0.452795	0.488815
	O303	O	0.566124	0.608848	0.540855
	H304	H	0.556586	0.606049	0.544036
	H305	H	0.566736	0.619489	0.536395
	O306	O	0.084544	1.063515	1.020243
	H307	H	0.090630	1.064753	1.017260
	H308	H	0.087420	1.057825	1.026625
	O309	O	1.091269	1.034088	1.012465
	H310	H	1.088463	1.038579	1.012913
	H311	H	1.090107	1.040634	1.011199
