data_Molecule from HDF5

_cell_length_a		16.337468
_cell_length_b		16.182551
_cell_length_c		16.266716
_cell_angle_alpha	90.168015
_cell_angle_beta	89.756112
_cell_angle_gamma	90.273348
_symmetry_space_group_name_H-M	'P 1'
_symmetry_Int_Tables_number		1

loop_
	_symmetry_equiv_pos_as_xyz
	x,y,z

loop_
	_atom_site_label
	_atom_site_type_symbol
	_atom_site_fract_x
	_atom_site_fract_y
	_atom_site_fract_z
	H0	H	0.411323	0.825629	0.709821
	H1	H	0.608426	0.154939	0.713846
	H2	H	0.606882	0.826148	0.285336
	H3	H	0.414447	0.155783	0.287196
	H4	H	0.724944	0.390002	0.836118
	H5	H	0.722409	0.590532	0.163606
	H6	H	0.295823	0.587705	0.835808
	H7	H	0.292386	0.390425	0.162467
	H8	H	0.846321	0.704432	0.403624
	H9	H	0.172876	0.706768	0.597869
	H10	H	0.846306	0.274927	0.598624
	H11	H	0.174233	0.279607	0.402257
	H12	H	0.845930	0.391730	0.715501
	H13	H	0.172728	0.591051	0.713759
	H14	H	0.846575	0.589848	0.285677
	H15	H	0.172365	0.393400	0.283823
	H16	H	0.412401	0.701771	0.835239
	H17	H	0.604951	0.704639	0.163245
	H18	H	0.605365	0.276873	0.834737
	H19	H	0.410454	0.276663	0.163085
	H20	H	0.724549	0.827247	0.398434
	H21	H	0.725155	0.155357	0.598525
	H22	H	0.293466	0.827590	0.597444
	H23	H	0.297535	0.155227	0.400733
	H24	H	0.909706	0.326186	0.213952
	H25	H	0.108256	0.655611	0.213315
	H26	H	0.106014	0.326392	0.785892
	H27	H	0.912135	0.656908	0.788024
	H28	H	0.224028	0.892745	0.335819
	H29	H	0.225476	0.092873	0.662567
	H30	H	0.795398	0.091222	0.336126
	H31	H	0.791187	0.889112	0.661612
	H32	H	0.344595	0.201720	0.902954
	H33	H	0.671350	0.205598	0.096197
	H34	H	0.344385	0.777243	0.095518
	H35	H	0.672108	0.777015	0.901174
	H36	H	0.345987	0.890623	0.215324
	H37	H	0.672206	0.091030	0.212745
	H38	H	0.345798	0.086474	0.785508
	H39	H	0.672143	0.890232	0.781806
	H40	H	0.913981	0.203974	0.335435
	H41	H	0.107408	0.205257	0.663961
	H42	H	0.107639	0.777689	0.336415
	H43	H	0.911840	0.778890	0.664470
	H44	H	0.222199	0.326314	0.900146
	H45	H	0.224441	0.654158	0.098671
	H46	H	0.793809	0.326058	0.099330
	H47	H	0.795698	0.655238	0.902281
	H48	H	0.422852	0.106057	0.589029
	H49	H	0.602681	0.874441	0.586613
	H50	H	0.611225	0.110499	0.406534
	H51	H	0.404635	0.869766	0.406202
	H52	H	0.604078	0.394366	0.117426
	H53	H	0.608970	0.578047	0.882605
	H54	H	0.428135	0.583365	0.113177
	H55	H	0.422327	0.388648	0.882398
	H56	H	0.122746	0.577763	0.410136
	H57	H	0.890468	0.589504	0.597542
	H58	H	0.126297	0.395416	0.591945
	H59	H	0.891036	0.398637	0.398055
	H60	H	0.124053	0.401609	0.591560
	H61	H	0.894547	0.584698	0.589180
	H62	H	0.127402	0.583604	0.397741
	H63	H	0.891664	0.387605	0.410559
	H64	H	0.409056	0.593578	0.121073
	H65	H	0.598126	0.580288	0.884806
	H66	H	0.604320	0.403556	0.115133
	H67	H	0.405378	0.392308	0.877546
	H68	H	0.600208	0.109177	0.400336
	H69	H	0.603554	0.872601	0.592389
	H70	H	0.410506	0.110581	0.589391
	H71	H	0.422820	0.871756	0.397494
	H72	H	0.914993	0.608527	0.095014
	H73	H	0.112507	0.371041	0.087449
	H74	H	0.113223	0.612273	0.902583
	H75	H	0.917977	0.372313	0.899595
	H76	H	0.092405	0.893471	0.615462
	H77	H	0.104013	0.083314	0.383575
	H78	H	0.915111	0.078219	0.614776
	H79	H	0.925470	0.903361	0.387268
	H80	H	0.623045	0.081745	0.909880
	H81	H	0.392472	0.083850	0.094178
	H82	H	0.626670	0.893880	0.095545
	H83	H	0.393721	0.906435	0.896903
	H84	H	0.623572	0.896795	0.086795
	H85	H	0.392438	0.080855	0.093143
	H86	H	0.625017	0.080069	0.901706
	H87	H	0.387364	0.884076	0.899019
	H88	H	0.921439	0.084062	0.614761
	H89	H	0.104093	0.086276	0.382360
	H90	H	0.112346	0.894061	0.621851
	H91	H	0.918021	0.887758	0.380590
	H92	H	0.094915	0.607279	0.901371
	H93	H	0.098471	0.369955	0.103791
	H94	H	0.918180	0.607931	0.094295
	H95	H	0.922393	0.377175	0.912431
	H96	H	0.418554	0.111014	0.600861
	H97	H	0.598046	0.874381	0.590344
	H98	H	0.600820	0.105621	0.412410
	H99	H	0.420226	0.877614	0.416693
	H100	H	0.596406	0.398054	0.114192
	H101	H	0.604437	0.588325	0.880081
	H102	H	0.408924	0.571773	0.115164
	H103	H	0.415981	0.405248	0.886006
	H104	H	0.126925	0.592207	0.409893
	H105	H	0.893791	0.579223	0.597874
	H106	H	0.125923	0.399368	0.597341
	H107	H	0.896598	0.403651	0.412471
	H108	H	0.915217	0.607859	0.091437
	H109	H	0.092194	0.378032	0.085103
	H110	H	0.103262	0.605503	0.917807
	H111	H	0.908706	0.372536	0.910266
	H112	H	0.103803	0.911496	0.613227
	H113	H	0.106941	0.083931	0.382040
	H114	H	0.913048	0.086160	0.617724
	H115	H	0.908154	0.902876	0.381853
	H116	H	0.625782	0.087674	0.904862
	H117	H	0.391881	0.081440	0.096202
	H118	H	0.624317	0.903116	0.093852
	H119	H	0.396308	0.896210	0.916700
	C120	C	0.388392	0.000109	0.620700
	C121	C	0.630407	0.982557	0.619583
	C122	C	0.632190	-0.000193	0.377085
	C123	C	0.388764	0.982166	0.378280
	C124	C	0.630549	0.368905	0.007728
	C125	C	0.631193	0.611820	0.990729
	C126	C	0.387876	0.610755	0.007938
	C127	C	0.385954	0.367297	0.990324
	C128	C	0.017789	0.612921	0.378170
	C129	C	1.000912	0.613342	0.622444
	C130	C	0.017519	0.369437	0.621980
	C131	C	1.001245	0.368835	0.377762
	C132	C	0.886842	0.499397	0.122075
	C133	C	0.130109	0.481881	0.120657
	C134	C	0.131157	0.499603	0.878054
	C135	C	0.888451	0.482729	0.879253
	C136	C	0.131434	0.870693	0.508576
	C137	C	0.132830	0.113680	0.490779
	C138	C	0.888791	0.111606	0.507707
	C139	C	0.887938	0.869419	0.491350
	C140	C	0.516950	0.111000	0.877525
	C141	C	0.499969	0.111809	0.121634
	C142	C	0.517016	0.868583	0.121037
	C143	C	0.500251	0.867537	0.875856
	C144	C	0.390679	0.875331	0.673415
	C145	C	0.628691	0.106073	0.675788
	C146	C	0.628630	0.875802	0.322042
	C147	C	0.393082	0.106344	0.324091
	C148	C	0.686550	0.369978	0.884838
	C149	C	0.685159	0.610571	0.114363
	C150	C	0.333550	0.608102	0.884612
	C151	C	0.330505	0.370041	0.113565
	C152	C	0.895150	0.667299	0.381947
	C153	C	0.124030	0.668762	0.618968
	C154	C	0.894739	0.313244	0.619559
	C155	C	0.124754	0.316049	0.381209
	C156	C	0.894595	0.371224	0.677418
	C157	C	0.123929	0.611244	0.676483
	C158	C	0.895218	0.610113	0.323731
	C159	C	0.123965	0.372598	0.322211
	C160	C	0.391291	0.664862	0.884454
	C161	C	0.626726	0.667240	0.114209
	C162	C	0.627237	0.313828	0.884010
	C163	C	0.389010	0.313395	0.114020
	C164	C	0.687098	0.876284	0.378249
	C165	C	0.686276	0.106389	0.618164
	C166	C	0.332232	0.876226	0.617743
	C167	C	0.335039	0.106210	0.380561
	C168	C	0.889328	0.375323	0.176335
	C169	C	0.127793	0.606096	0.175387
	C170	C	0.127242	0.375647	0.823169
	C171	C	0.891370	0.607139	0.825186
	C172	C	0.186378	0.872751	0.385063
	C173	C	0.187627	0.112537	0.613917
	C174	C	0.833929	0.110339	0.384606
	C175	C	0.830611	0.870349	0.613455
	C176	C	0.393621	0.164581	0.881475
	C177	C	0.622869	0.167669	0.117119
	C178	C	0.393772	0.813904	0.117504
	C179	C	0.623354	0.813817	0.879515
	C180	C	0.394685	0.870186	0.177084
	C181	C	0.623157	0.110544	0.175181
	C182	C	0.394152	0.107534	0.823253
	C183	C	0.623211	0.870180	0.820481
	C184	C	0.892679	0.166573	0.384344
	C185	C	0.128792	0.168440	0.614589
	C186	C	0.128388	0.815666	0.385113
	C187	C	0.890269	0.815056	0.614897
	C188	C	0.184764	0.375460	0.880104
	C189	C	0.185761	0.605378	0.118475
	C190	C	0.831385	0.375463	0.119857
	C191	C	0.833438	0.606560	0.881886
	C192	C	0.410714	0.086784	0.599392
	C193	C	0.607827	0.896193	0.596437
	C194	C	0.610436	0.086199	0.399766
	C195	C	0.409642	0.895443	0.400327
	C196	C	0.608206	0.391725	0.093509
	C197	C	0.610206	0.588823	0.904862
	C198	C	0.409159	0.589158	0.094293
	C199	C	0.408119	0.388878	0.904224
	C200	C	0.103640	0.591035	0.399743
	C201	C	0.914977	0.591053	0.601187
	C202	C	0.103129	0.392010	0.599901
	C203	C	0.915414	0.390415	0.400280
	C204	C	0.909418	0.585771	0.100077
	C205	C	0.107568	0.395209	0.098501
	C206	C	0.109979	0.586115	0.900660
	C207	C	0.909951	0.396434	0.901066
	C208	C	0.109342	0.892994	0.594735
	C209	C	0.111448	0.091022	0.404817
	C210	C	0.910221	0.089419	0.593523
	C211	C	0.910753	0.891466	0.405442
	C212	C	0.602506	0.089616	0.899078
	C213	C	0.414298	0.088809	0.100616
	C214	C	0.602811	0.891286	0.098605
	C215	C	0.414525	0.889152	0.897782
	Zn216	Zn	0.509053	-0.009818	0.748051
	Zn217	Zn	0.509558	-0.009164	0.250429
	Zn218	Zn	0.759879	0.490399	-0.000129
	Zn219	Zn	0.258715	0.489903	-0.000714
	Zn220	Zn	0.009697	0.741254	0.500512
	Zn221	Zn	0.010253	0.240500	0.500159
	Zn222	Zn	0.009269	0.491779	0.750856
	Zn223	Zn	0.008958	0.490905	0.249105
	Zn224	Zn	0.508428	0.739511	-0.001215
	Zn225	Zn	0.508341	0.239840	-0.000931
	Zn226	Zn	0.759454	-0.009312	0.498690
	Zn227	Zn	0.260746	-0.007959	0.499702
	N228	N	0.424869	0.953226	0.675410
	N229	N	0.594853	0.028032	0.676917
	N230	N	0.595368	0.953646	0.321140
	N231	N	0.425830	0.028132	0.322835
	N232	N	0.688700	0.403502	0.962636
	N233	N	0.688283	0.576974	0.036566
	N234	N	0.331275	0.575170	0.962544
	N235	N	0.328505	0.402759	0.035727
	N236	N	0.972558	0.669171	0.415013
	N237	N	0.046553	0.670217	0.586066
	N238	N	0.972142	0.311974	0.585901
	N239	N	0.047187	0.313284	0.414833
	N240	N	0.971866	0.405456	0.678952
	N241	N	0.046496	0.577251	0.678433
	N242	N	0.972582	0.577243	0.321109
	N243	N	0.046229	0.404532	0.320015
	N244	N	0.424539	0.666376	0.961995
	N245	N	0.594052	0.668468	0.036463
	N246	N	0.592998	0.313104	0.961530
	N247	N	0.422980	0.311597	0.036567
	N248	N	0.689587	0.954530	0.411496
	N249	N	0.687550	0.028490	0.584128
	N250	N	0.330495	0.954796	0.585669
	N251	N	0.332094	0.028095	0.413487
	N252	N	0.923212	0.453285	0.177961
	N253	N	0.093671	0.528122	0.176715
	N254	N	0.094493	0.453768	0.821942
	N255	N	0.924754	0.529229	0.823392
	N256	N	0.188182	0.906531	0.462723
	N257	N	0.190134	0.079070	0.535980
	N258	N	0.831225	0.076976	0.462200
	N259	N	0.829028	0.903290	0.535479
	N260	N	0.470890	0.166710	0.914716
	N261	N	0.545176	0.168716	0.084630
	N262	N	0.470976	0.812897	0.083356
	N263	N	0.545923	0.811808	0.913144
	N264	N	0.472399	0.903470	0.179340
	N265	N	0.545970	0.076494	0.177956
	N266	N	0.471718	0.075098	0.820586
	N267	N	0.545611	0.902793	0.818055
	N268	N	0.926316	0.167382	0.461750
	N269	N	0.095494	0.169293	0.537057
	N270	N	0.094899	0.814044	0.462834
	N271	N	0.925326	0.814381	0.537937
	N272	N	0.187538	0.453763	0.913354
	N273	N	0.187492	0.527089	0.085391
	N274	N	0.829786	0.453607	0.086726
	N275	N	0.831501	0.528285	0.914798
	O276	O	0.988299	0.991075	0.035436
	H277	H	0.983077	0.999410	0.032877
	H278	H	0.992529	0.986002	0.037626
	O279	O	-0.049101	0.035935	0.091800
	H280	H	-0.057440	0.036965	0.092114
	H281	H	-0.052878	0.038754	0.089471
	O282	O	-0.074739	-0.005266	1.058072
	H283	H	-0.078713	-0.007800	1.061182
	H284	H	-0.085969	0.001339	1.062112
	O285	O	-0.056866	1.049156	-0.023263
	H286	H	-0.050103	1.046731	-0.028876
	H287	H	-0.058292	1.052005	-0.024607
	O288	O	0.556222	0.520728	0.475172
	H289	H	0.552770	0.518551	0.481597
	H290	H	0.559225	0.530800	0.470727
	O291	O	0.540763	0.461002	0.475380
	H292	H	0.541215	0.458517	0.468931
	H293	H	0.543311	0.468428	0.474019
	O294	O	-0.486441	0.574391	0.460095
	H295	H	-0.480887	0.566916	0.461668
	H296	H	-0.493190	0.581854	0.464455
	O297	O	0.530417	0.513537	0.481829
	H298	H	0.524873	0.510696	0.472604
	H299	H	0.538325	0.515921	0.486413
	O300	O	-0.069209	0.961516	1.021878
	H301	H	-0.064972	0.955909	1.024705
	H302	H	-0.069949	0.959443	1.028520
	O303	O	0.533720	0.475520	0.452068
	H304	H	0.528086	0.471708	0.465284
	H305	H	0.539782	0.478633	0.442661
	O306	O	0.490019	-0.510654	1.503894
	H307	H	0.494742	-0.514856	1.496434
	H308	H	0.489302	-0.517979	1.499960
	O309	O	0.948983	0.933451	0.983063
	H310	H	0.952282	0.935194	0.989158
	H311	H	0.945604	0.930180	0.991477
	O312	O	0.010388	1.030680	0.007803
	H313	H	0.018950	1.034983	0.000251
	H314	H	0.016893	1.009824	0.011861
	O315	O	0.516634	0.499043	0.475466
	H316	H	0.515223	0.496431	0.474947
	H317	H	0.527279	0.488843	0.481187
	O318	O	-0.113218	1.016423	0.006287
	H319	H	-0.106809	1.011796	0.013477
	H320	H	-0.119585	1.028191	-0.003146
	O321	O	0.978458	1.013351	0.022336
	H322	H	0.981112	1.014930	0.020760
	H323	H	0.972444	1.015445	0.021818
