data_Molecule from HDF5

_cell_length_a		16.283232
_cell_length_b		16.204810
_cell_length_c		16.353422
_cell_angle_alpha	89.815534
_cell_angle_beta	89.793189
_cell_angle_gamma	89.935044
_symmetry_space_group_name_H-M	'P 1'
_symmetry_Int_Tables_number		1

loop_
	_symmetry_equiv_pos_as_xyz
	x,y,z

loop_
	_atom_site_label
	_atom_site_type_symbol
	_atom_site_fract_x
	_atom_site_fract_y
	_atom_site_fract_z
	H0	H	0.398909	0.846250	0.695399
	H1	H	0.603223	0.172042	0.694401
	H2	H	0.601225	0.845630	0.262910
	H3	H	0.399129	0.172268	0.261018
	H4	H	0.716582	0.410030	0.815803
	H5	H	0.715413	0.609845	0.139742
	H6	H	0.282536	0.612726	0.816023
	H7	H	0.281968	0.408911	0.139951
	H8	H	0.837115	0.725273	0.378483
	H9	H	0.163583	0.723664	0.575624
	H10	H	0.836792	0.293863	0.577290
	H11	H	0.162950	0.293581	0.376360
	H12	H	0.837565	0.407430	0.695254
	H13	H	0.161804	0.612748	0.695789
	H14	H	0.836967	0.611141	0.262150
	H15	H	0.162563	0.409148	0.260137
	H16	H	0.401441	0.726305	0.815504
	H17	H	0.598865	0.723925	0.140603
	H18	H	0.599934	0.294438	0.815064
	H19	H	0.399685	0.293798	0.141025
	H20	H	0.717047	0.845918	0.377569
	H21	H	0.714298	0.173480	0.574787
	H22	H	0.286340	0.845372	0.578734
	H23	H	0.283591	0.172602	0.377263
	H24	H	0.900173	0.345913	0.192398
	H25	H	0.098984	0.673758	0.191508
	H26	H	0.101291	0.346340	0.761681
	H27	H	0.898069	0.672783	0.761323
	H28	H	0.217643	0.909589	0.316408
	H29	H	0.214734	0.107522	0.641346
	H30	H	0.785243	0.109712	0.314617
	H31	H	0.783940	0.909513	0.640203
	H32	H	0.336442	0.224768	0.879606
	H33	H	0.664249	0.221476	0.074348
	H34	H	0.336221	0.795671	0.075985
	H35	H	0.664258	0.795953	0.880223
	H36	H	0.337473	0.908407	0.195396
	H37	H	0.663182	0.108328	0.192560
	H38	H	0.337379	0.111464	0.760353
	H39	H	0.662591	0.909252	0.761663
	H40	H	0.902143	0.224238	0.313834
	H41	H	0.099446	0.225124	0.640283
	H42	H	0.098976	0.796214	0.314399
	H43	H	0.901712	0.794269	0.640727
	H44	H	0.216712	0.347153	0.876907
	H45	H	0.213392	0.674220	0.075744
	H46	H	0.785760	0.345623	0.076291
	H47	H	0.785216	0.673818	0.879100
	H48	H	0.407956	0.127055	0.574597
	H49	H	0.587371	0.893645	0.570998
	H50	H	0.594813	0.125686	0.388902
	H51	H	0.407934	0.895465	0.396205
	H52	H	0.587322	0.414384	0.092161
	H53	H	0.588363	0.598677	0.864703
	H54	H	0.399352	0.601053	0.095022
	H55	H	0.411425	0.423844	0.865235
	H56	H	0.117660	0.600786	0.379039
	H57	H	0.881849	0.605710	0.572717
	H58	H	0.117928	0.420449	0.578353
	H59	H	0.885867	0.422579	0.385419
	H60	H	0.118155	0.409258	0.565955
	H61	H	0.885490	0.601883	0.564746
	H62	H	0.116014	0.605482	0.383784
	H63	H	0.881936	0.417139	0.379877
	H64	H	0.409465	0.595346	0.090211
	H65	H	0.591375	0.606908	0.860922
	H66	H	0.596095	0.412752	0.095828
	H67	H	0.411655	0.412403	0.862579
	H68	H	0.595474	0.128186	0.380893
	H69	H	0.592782	0.893329	0.566216
	H70	H	0.412281	0.124602	0.567371
	H71	H	0.403017	0.889345	0.381602
	H72	H	0.899871	0.630266	0.074083
	H73	H	0.090729	0.390794	0.076916
	H74	H	0.105249	0.628829	0.893922
	H75	H	0.913536	0.391801	0.878963
	H76	H	0.090658	0.904954	0.596103
	H77	H	0.091679	0.108000	0.361202
	H78	H	0.911307	0.096649	0.590026
	H79	H	0.903023	0.922202	0.361447
	H80	H	0.615693	0.098600	0.881217
	H81	H	0.381425	0.098194	0.078479
	H82	H	0.617830	0.914208	0.072720
	H83	H	0.385744	0.919763	0.888187
	H84	H	0.616472	0.915693	0.069491
	H85	H	0.381857	0.108227	0.070099
	H86	H	0.617417	0.105401	0.883702
	H87	H	0.383319	0.919220	0.881576
	H88	H	0.910006	0.107502	0.593713
	H89	H	0.099362	0.098143	0.362235
	H90	H	0.104038	0.917884	0.596809
	H91	H	0.914438	0.918927	0.364583
	H92	H	0.088580	0.631301	0.868013
	H93	H	0.084631	0.397471	0.066005
	H94	H	0.912876	0.626441	0.074890
	H95	H	0.910366	0.395511	0.893093
	H96	H	0.403646	0.126263	0.567601
	H97	H	0.594597	0.890983	0.572851
	H98	H	0.587749	0.124432	0.383320
	H99	H	0.418280	0.894525	0.383539
	H100	H	0.593653	0.421082	0.091976
	H101	H	0.597143	0.600090	0.861298
	H102	H	0.410400	0.607182	0.093442
	H103	H	0.401990	0.418959	0.861325
	H104	H	0.114722	0.599508	0.385339
	H105	H	0.884922	0.596240	0.573369
	H106	H	0.111442	0.424768	0.563658
	H107	H	0.884178	0.413950	0.387675
	H108	H	0.905949	0.625298	0.063189
	H109	H	0.097973	0.392150	0.064815
	H110	H	0.075951	0.618448	0.893669
	H111	H	0.899392	0.389874	0.883661
	H112	H	0.086934	0.922317	0.590058
	H113	H	0.087848	0.097496	0.365514
	H114	H	0.900913	0.099704	0.593482
	H115	H	0.906793	0.911157	0.359271
	H116	H	0.613882	0.100497	0.888842
	H117	H	0.386561	0.096916	0.066332
	H118	H	0.615630	0.916968	0.073026
	H119	H	0.383061	0.914632	0.886212
	C120	C	0.379022	0.017804	0.599429
	C121	C	0.621394	1.000785	0.598458
	C122	C	0.621841	0.017737	0.355860
	C123	C	0.379157	1.000809	0.357028
	C124	C	0.621772	0.387444	-0.013857
	C125	C	0.621178	0.630752	0.969675
	C126	C	0.377338	0.631662	-0.013868
	C127	C	0.378128	0.388149	0.969965
	C128	C	0.008354	0.631457	0.354386
	C129	C	0.991784	0.630585	0.598996
	C130	C	0.008269	0.388211	0.598871
	C131	C	0.991737	0.388116	0.354979
	C132	C	0.877456	0.518842	0.099630
	C133	C	0.120136	0.501639	0.098135
	C134	C	0.120574	0.518426	0.855800
	C135	C	0.878363	0.500871	0.856245
	C136	C	0.122886	0.886445	0.486299
	C137	C	0.122042	0.130665	0.469865
	C138	C	0.878566	0.131201	0.485401
	C139	C	0.878709	0.887886	0.469358
	C140	C	0.508226	0.131392	0.855387
	C141	C	0.491497	0.129986	0.099467
	C142	C	0.508817	0.886663	0.100545
	C143	C	0.491867	0.888123	0.856012
	C144	C	0.379803	0.895145	0.656580
	C145	C	0.621363	0.123477	0.655159
	C146	C	0.620794	0.894555	0.300852
	C147	C	0.379881	0.123576	0.300068
	C148	C	0.678466	0.389422	0.864272
	C149	C	0.676967	0.629417	0.091529
	C150	C	0.321201	0.631712	0.864236
	C151	C	0.321017	0.389286	0.091730
	C152	C	0.885884	0.687354	0.357667
	C153	C	0.114663	0.686168	0.596440
	C154	C	0.885609	0.331905	0.597627
	C155	C	0.114213	0.331794	0.356358
	C156	C	0.886087	0.388565	0.656112
	C157	C	0.113521	0.631036	0.656328
	C158	C	0.885958	0.630580	0.299661
	C159	C	0.113712	0.388741	0.297934
	C160	C	0.380059	0.688310	0.863969
	C161	C	0.619138	0.686270	0.091880
	C162	C	0.620554	0.331823	0.863910
	C163	C	0.379518	0.331785	0.092130
	C164	C	0.678499	0.894793	0.357861
	C165	C	0.677030	0.124161	0.596003
	C166	C	0.323880	0.894496	0.598196
	C167	C	0.322487	0.123733	0.357956
	C168	C	0.879759	0.395255	0.154855
	C169	C	0.118565	0.624981	0.153346
	C170	C	0.120565	0.395400	0.799623
	C171	C	0.879078	0.623979	0.799805
	C172	C	0.179299	0.889088	0.364645
	C173	C	0.177051	0.128526	0.592581
	C174	C	0.823518	0.129484	0.363029
	C175	C	0.822693	0.889662	0.591710
	C176	C	0.385318	0.187208	0.858285
	C177	C	0.614965	0.184654	0.095850
	C178	C	0.385447	0.832299	0.097748
	C179	C	0.614910	0.833207	0.859208
	C180	C	0.386032	0.888893	0.156486
	C181	C	0.614431	0.128533	0.154683
	C182	C	0.385818	0.130693	0.799148
	C183	C	0.614204	0.889438	0.800046
	C184	C	0.881676	0.186640	0.362743
	C185	C	0.119959	0.187064	0.591900
	C186	C	0.120104	0.832909	0.363554
	C187	C	0.881091	0.832268	0.591925
	C188	C	0.177813	0.395791	0.857204
	C189	C	0.175504	0.625197	0.095846
	C190	C	0.823113	0.394918	0.096899
	C191	C	0.822737	0.624552	0.858175
	C192	C	0.401616	0.103786	0.576451
	C193	C	0.598368	0.914892	0.576367
	C194	C	0.599179	0.103705	0.377880
	C195	C	0.402901	0.915210	0.380293
	C196	C	0.599061	0.409700	0.071328
	C197	C	0.598781	0.608368	0.884335
	C198	C	0.399782	0.608038	0.070913
	C199	C	0.401427	0.411592	0.885035
	C200	C	0.094229	0.608649	0.376314
	C201	C	0.906362	0.607959	0.576747
	C202	C	0.093641	0.411374	0.575928
	C203	C	0.906248	0.411113	0.377768
	C204	C	0.899463	0.604925	0.077121
	C205	C	0.097669	0.415673	0.075789
	C206	C	0.096902	0.604035	0.878566
	C207	C	0.901046	0.414844	0.878760
	C208	C	0.100353	0.908383	0.572225
	C209	C	0.099812	0.107800	0.384963
	C210	C	0.900915	0.107935	0.570236
	C211	C	0.901577	0.910634	0.384013
	C212	C	0.593514	0.108263	0.877976
	C213	C	0.405683	0.107791	0.077893
	C214	C	0.594570	0.909106	0.078236
	C215	C	0.405981	0.911331	0.878703
	Zn216	Zn	0.500235	0.009399	0.726933
	Zn217	Zn	0.500549	0.008952	0.228185
	Zn218	Zn	0.750502	0.509983	-0.022341
	Zn219	Zn	0.248602	0.510011	-0.022513
	Zn220	Zn	0.000499	0.758644	0.477165
	Zn221	Zn	0.000343	0.260066	0.476909
	Zn222	Zn	-0.000600	0.509363	0.727768
	Zn223	Zn	-0.000436	0.510271	0.226379
	Zn224	Zn	0.500174	0.759516	-0.022261
	Zn225	Zn	0.500202	0.258851	-0.021918
	Zn226	Zn	0.749808	0.009803	0.477207
	Zn227	Zn	0.250870	0.009333	0.478846
	N228	N	0.413707	0.972824	0.657268
	N229	N	0.587572	0.045686	0.656870
	N230	N	0.586247	0.972014	0.299477
	N231	N	0.414201	0.046039	0.299174
	N232	N	0.679331	0.423216	0.941183
	N233	N	0.678412	0.595454	0.014561
	N234	N	0.319373	0.597143	0.941114
	N235	N	0.319964	0.423683	0.014705
	N236	N	0.963207	0.688040	0.391157
	N237	N	0.037930	0.686099	0.561435
	N238	N	0.962633	0.331274	0.562821
	N239	N	0.037366	0.331452	0.391336
	N240	N	0.963263	0.422882	0.656825
	N241	N	0.036265	0.596986	0.657778
	N242	N	0.963300	0.596468	0.297688
	N243	N	0.036640	0.423068	0.296974
	N244	N	0.414103	0.688495	0.940701
	N245	N	0.584947	0.686990	0.015153
	N246	N	0.585884	0.330511	0.940643
	N247	N	0.414313	0.331027	0.015424
	N248	N	0.679177	0.972312	0.391463
	N249	N	0.677002	0.046949	0.561299
	N250	N	0.323319	0.971888	0.563402
	N251	N	0.321927	0.046300	0.392628
	N252	N	0.912943	0.473235	0.156444
	N253	N	0.084953	0.547109	0.154862
	N254	N	0.085749	0.472829	0.798480
	N255	N	0.912687	0.546070	0.798244
	N256	N	0.181065	0.921350	0.442215
	N257	N	0.178628	0.094440	0.515715
	N258	N	0.821332	0.095758	0.440214
	N259	N	0.821100	0.923450	0.514437
	N260	N	0.462474	0.187964	0.892340
	N261	N	0.537499	0.186019	0.062498
	N262	N	0.462665	0.830797	0.063666
	N263	N	0.537413	0.832139	0.893048
	N264	N	0.463862	0.921822	0.158281
	N265	N	0.536726	0.095386	0.157018
	N266	N	0.463311	0.096942	0.797216
	N267	N	0.536662	0.922937	0.798358
	N268	N	0.915234	0.187791	0.439766
	N269	N	0.086439	0.188458	0.514782
	N270	N	0.085992	0.830921	0.440625
	N271	N	0.915183	0.830991	0.514814
	N272	N	0.178173	0.473400	0.891104
	N273	N	0.176590	0.547523	0.062088
	N274	N	0.821265	0.472850	0.063513
	N275	N	0.822176	0.546982	0.892598
	O276	O	-0.497309	-0.561784	0.545478
	H277	H	-0.502894	-0.559766	0.549756
	H278	H	-0.493827	-0.571165	0.547240
	O279	O	0.547682	0.513103	0.521330
	H280	H	0.545463	0.525967	0.516419
	H281	H	0.560037	0.520404	0.512622
	O282	O	0.458309	0.524614	0.527326
	H283	H	0.455319	0.511404	0.520284
	H284	H	0.459668	0.516410	0.535134
	O285	O	-0.000847	1.103506	0.940964
	H286	H	0.002658	1.102203	0.938057
	H287	H	0.009611	1.106386	0.934884
	O288	O	0.496015	0.480168	0.504989
	H289	H	0.494112	0.484654	0.504220
	H290	H	0.484539	0.490216	0.509563
	O291	O	0.367978	1.505741	1.558609
	H292	H	0.372730	1.506746	1.562624
	H293	H	0.360202	1.508075	1.564807
	O294	O	1.013943	0.997672	0.977325
	H295	H	1.005550	0.993190	0.978345
	H296	H	1.010708	1.000468	0.984021
	O297	O	1.059735	0.018391	0.969560
	H298	H	1.066320	0.016381	0.967720
	H299	H	1.059911	0.009086	0.973823
	O300	O	0.620935	0.558392	0.562801
	H301	H	0.621642	0.572117	0.566920
	H302	H	0.624486	0.562635	0.561354
	O303	O	1.065972	-0.031475	-0.059864
	H304	H	1.054017	-0.031585	-0.059613
	H305	H	1.058799	-0.028030	-0.064027
	O306	O	-0.051209	1.010907	1.016679
	H307	H	-0.042853	1.012853	1.027157
	H308	H	-0.046761	1.008602	1.021470
	O309	O	0.441077	0.564871	0.355043
	H310	H	0.442895	0.570443	0.353066
	H311	H	0.440042	0.559754	0.344018
	O312	O	1.029503	0.021118	1.015524
	H313	H	1.033055	0.024033	1.009764
	H314	H	1.020495	0.023769	1.016862
	O315	O	0.477652	0.541547	0.455586
	H316	H	0.483466	0.535645	0.446162
	H317	H	0.474231	0.543482	0.449235
	O318	O	-0.038625	0.076852	0.946122
	H319	H	-0.035064	0.078030	0.941271
	H320	H	-0.040051	0.091314	0.942951
	O321	O	2.012891	0.016196	1.963922
	H322	H	2.020211	0.025988	1.969308
	H323	H	2.013610	0.014327	1.957180
	O324	O	0.467999	0.377389	0.505872
	H325	H	0.469608	0.372105	0.506669
	H326	H	0.460084	0.370446	0.499708
	O327	O	0.559266	0.413891	0.463162
	H328	H	0.563313	0.411931	0.466909
	H329	H	0.563419	0.414315	0.463869
	O330	O	0.457291	-0.553905	0.359874
	H331	H	0.458442	-0.542589	0.353931
	H332	H	0.452209	-0.558086	0.379873
	O333	O	0.964747	1.057581	0.037088
	H334	H	0.962710	1.051067	0.037483
	H335	H	0.966068	1.054063	0.033359
	O336	O	0.561177	0.527984	0.524948
	H337	H	0.562040	0.526909	0.543350
	H338	H	0.554181	0.526103	0.531846
	O339	O	0.532558	0.655122	0.525596
	H340	H	0.527563	0.658749	0.520086
	H341	H	0.532870	0.670793	0.527008
	O342	O	0.431804	1.394250	0.341361
	H343	H	0.441860	1.387871	0.331725
	H344	H	0.439075	1.406426	0.348972
	O345	O	0.672373	0.569143	0.450573
	H346	H	0.678352	0.572561	0.451189
	H347	H	0.653957	0.570633	0.455781
	O348	O	0.472744	0.344399	0.604802
	H349	H	0.475954	0.332688	0.601978
	H350	H	0.461696	0.341775	0.602024
	O351	O	-0.395432	0.581376	0.366445
	H352	H	-0.401160	0.571449	0.360188
	H353	H	-0.395376	0.587465	0.368400
	O354	O	0.561194	0.407322	0.345595
	H355	H	0.569915	0.408126	0.350632
	H356	H	0.559644	0.395270	0.354312
	O357	O	0.423240	0.636370	0.418805
	H358	H	0.418185	0.622750	0.405013
	H359	H	0.410625	0.650004	0.416910
	O360	O	-0.081958	0.002658	-0.008202
	H361	H	-0.090512	0.001018	-0.009244
	H362	H	-0.087442	0.010200	-0.009506
	O363	O	0.578367	0.515016	0.522257
	H364	H	0.585730	0.513058	0.531281
	H365	H	0.573719	0.506796	0.519782
	O366	O	0.385570	-0.520943	1.473469
	H367	H	0.380660	-0.498326	1.474308
	H368	H	0.385372	-0.523099	1.468392
	O369	O	0.379453	0.646016	0.540522
	H370	H	0.386370	0.636560	0.527542
	H371	H	0.371796	0.651508	0.529500
