data_Molecule from HDF5

_cell_length_a		16.551300
_cell_length_b		16.424673
_cell_length_c		16.491845
_cell_angle_alpha	89.841541
_cell_angle_beta	90.028189
_cell_angle_gamma	89.953405
_symmetry_space_group_name_H-M	'P 1'
_symmetry_Int_Tables_number		1

loop_
	_symmetry_equiv_pos_as_xyz
	x,y,z

loop_
	_atom_site_label
	_atom_site_type_symbol
	_atom_site_fract_x
	_atom_site_fract_y
	_atom_site_fract_z
	H0	H	0.401656	0.835922	0.740021
	H1	H	0.608517	0.153228	0.737841
	H2	H	0.613514	0.837689	0.295172
	H3	H	0.399279	0.151663	0.296103
	H4	H	0.726489	0.389042	0.859876
	H5	H	0.732243	0.605903	0.171261
	H6	H	0.283748	0.602329	0.859578
	H7	H	0.284394	0.390481	0.175571
	H8	H	0.849997	0.718865	0.409463
	H9	H	0.163276	0.714943	0.622237
	H10	H	0.847362	0.273545	0.621000
	H11	H	0.162880	0.271118	0.410639
	H12	H	0.848758	0.387107	0.740212
	H13	H	0.163213	0.597941	0.738514
	H14	H	0.850883	0.603641	0.291899
	H15	H	0.161871	0.386431	0.292934
	H16	H	0.401660	0.716438	0.859453
	H17	H	0.610563	0.716034	0.175025
	H18	H	0.607787	0.274786	0.859643
	H19	H	0.400768	0.274019	0.175777
	H20	H	0.728601	0.837532	0.411963
	H21	H	0.728212	0.151970	0.625999
	H22	H	0.285163	0.835487	0.623800
	H23	H	0.281748	0.150127	0.410377
	H24	H	0.899928	0.336626	0.238127
	H25	H	0.109614	0.653291	0.238398
	H26	H	0.107411	0.334540	0.800892
	H27	H	0.900148	0.651775	0.794498
	H28	H	0.229200	0.885733	0.361334
	H29	H	0.225624	0.095392	0.675584
	H30	H	0.780353	0.103502	0.362317
	H31	H	0.784611	0.887300	0.675516
	H32	H	0.347648	0.214709	0.915033
	H33	H	0.663074	0.215720	0.121486
	H34	H	0.347357	0.773700	0.123027
	H35	H	0.662350	0.773607	0.913908
	H36	H	0.347897	0.888970	0.240372
	H37	H	0.662433	0.099832	0.239462
	H38	H	0.348194	0.098802	0.797223
	H39	H	0.662326	0.889466	0.797620
	H40	H	0.900711	0.214994	0.359407
	H41	H	0.108932	0.211968	0.675684
	H42	H	0.110915	0.771662	0.359907
	H43	H	0.901107	0.771420	0.675123
	H44	H	0.226466	0.336514	0.915045
	H45	H	0.224882	0.654209	0.121588
	H46	H	0.781838	0.338224	0.123924
	H47	H	0.780845	0.650668	0.906504
	H48	H	0.414000	0.107606	0.607512
	H49	H	0.591987	0.884768	0.602964
	H50	H	0.588594	0.104166	0.433305
	H51	H	0.420724	0.882109	0.429338
	H52	H	0.597657	0.406357	0.130539
	H53	H	0.594360	0.581445	0.904938
	H54	H	0.411003	0.582679	0.130760
	H55	H	0.410079	0.402975	0.902155
	H56	H	0.111782	0.574566	0.434145
	H57	H	0.894359	0.584089	0.603332
	H58	H	0.115941	0.404675	0.606448
	H59	H	0.893919	0.402440	0.429463
	H60	H	0.118606	0.404585	0.611555
	H61	H	0.895307	0.578836	0.606355
	H62	H	0.119605	0.580227	0.419797
	H63	H	0.896869	0.408774	0.431210
	H64	H	0.416746	0.581830	0.129026
	H65	H	0.591542	0.583776	0.906355
	H66	H	0.593064	0.410854	0.128561
	H67	H	0.414450	0.412499	0.906458
	H68	H	0.598021	0.107603	0.433548
	H69	H	0.601275	0.878984	0.607258
	H70	H	0.416006	0.106993	0.607920
	H71	H	0.416687	0.881897	0.432260
	H72	H	0.920140	0.604729	0.100877
	H73	H	0.097312	0.381360	0.104475
	H74	H	0.096723	0.608582	0.928107
	H75	H	0.918449	0.384259	0.933667
	H76	H	0.094489	0.897246	0.632518
	H77	H	0.095992	0.082440	0.404014
	H78	H	0.920303	0.083558	0.629614
	H79	H	0.915531	0.912453	0.406916
	H80	H	0.618099	0.077277	0.921499
	H81	H	0.396919	0.076953	0.103934
	H82	H	0.617560	0.906597	0.109350
	H83	H	0.399659	0.913458	0.940518
	H84	H	0.616876	0.904131	0.105551
	H85	H	0.390780	0.083509	0.114953
	H86	H	0.622437	0.093761	0.925073
	H87	H	0.391009	0.913894	0.916157
	H88	H	0.913668	0.087671	0.632525
	H89	H	0.095141	0.080217	0.404707
	H90	H	0.102379	0.905029	0.631968
	H91	H	0.921277	0.906352	0.407362
	H92	H	0.095408	0.609358	0.925356
	H93	H	0.094466	0.381267	0.107199
	H94	H	0.915065	0.607748	0.102499
	H95	H	0.912229	0.380320	0.931126
	H96	H	0.415204	0.106222	0.605787
	H97	H	0.591629	0.880637	0.613115
	H98	H	0.592556	0.108060	0.424801
	H99	H	0.416635	0.879766	0.427737
	H100	H	0.591137	0.404903	0.129317
	H101	H	0.594600	0.585510	0.904381
	H102	H	0.415036	0.587861	0.131075
	H103	H	0.420642	0.403100	0.905829
	H104	H	0.118923	0.589993	0.433274
	H105	H	0.892536	0.583172	0.609142
	H106	H	0.119530	0.400005	0.608395
	H107	H	0.894109	0.407518	0.424466
	H108	H	0.919678	0.607331	0.106454
	H109	H	0.093635	0.383418	0.104058
	H110	H	0.093336	0.608474	0.927580
	H111	H	0.918177	0.380931	0.926562
	H112	H	0.092387	0.907076	0.627732
	H113	H	0.093783	0.082646	0.404638
	H114	H	0.913080	0.079433	0.630608
	H115	H	0.913792	0.905236	0.403733
	H116	H	0.614546	0.083630	0.937486
	H117	H	0.392052	0.090599	0.102417
	H118	H	0.615448	0.908286	0.105377
	H119	H	0.388779	0.892584	0.930215
	C120	C	0.384205	0.002085	0.639310
	C121	C	0.626792	0.986256	0.639652
	C122	C	0.626734	0.002863	0.397420
	C123	C	0.384667	0.985132	0.396751
	C124	C	0.626150	0.374448	0.025474
	C125	C	0.626656	0.616611	1.008798
	C126	C	0.383175	0.616468	0.025847
	C127	C	0.383307	0.373830	1.009140
	C128	C	0.014029	0.615743	0.395323
	C129	C	0.998172	0.613963	0.638219
	C130	C	0.013715	0.371362	0.639956
	C131	C	0.998028	0.372786	0.395318
	C132	C	0.884254	0.503121	0.137484
	C133	C	0.126482	0.486788	0.137913
	C134	C	0.127004	0.503388	0.896009
	C135	C	0.883693	0.485756	0.895973
	C136	C	0.128068	0.870956	0.526288
	C137	C	0.126838	0.113682	0.508862
	C138	C	0.883048	0.116557	0.526904
	C139	C	0.884553	0.873761	0.509605
	C140	C	0.514054	0.116474	0.896323
	C141	C	0.497160	0.116036	0.139152
	C142	C	0.513156	0.873417	0.139611
	C143	C	0.496864	0.873751	0.897132
	C144	C	0.383050	0.883154	0.699770
	C145	C	0.627818	0.105520	0.698853
	C146	C	0.630731	0.884789	0.336138
	C147	C	0.381137	0.103888	0.335800
	C148	C	0.686347	0.371254	0.907244
	C149	C	0.689604	0.621485	0.125598
	C150	C	0.323860	0.619605	0.906873
	C151	C	0.324047	0.371791	0.127917
	C152	C	0.896816	0.677936	0.391557
	C153	C	0.116094	0.674373	0.640367
	C154	C	0.895142	0.312592	0.640459
	C155	C	0.115635	0.311303	0.392341
	C156	C	0.895635	0.369402	0.699560
	C157	C	0.116185	0.616079	0.698296
	C158	C	0.897295	0.620638	0.333040
	C159	C	0.115299	0.369055	0.333979
	C160	C	0.382538	0.676380	0.906771
	C161	C	0.629171	0.676484	0.127360
	C162	C	0.627248	0.314606	0.906895
	C163	C	0.381918	0.313849	0.128148
	C164	C	0.688140	0.884656	0.394321
	C165	C	0.687028	0.104894	0.642652
	C166	C	0.325218	0.882879	0.641851
	C167	C	0.322900	0.103214	0.392945
	C168	C	0.881421	0.384421	0.198468
	C169	C	0.128116	0.605872	0.198271
	C170	C	0.127436	0.382808	0.839001
	C171	C	0.881429	0.604325	0.834493
	C172	C	0.188525	0.868053	0.408107
	C173	C	0.186186	0.114990	0.628141
	C174	C	0.821368	0.120722	0.409137
	C175	C	0.824716	0.869850	0.628361
	C176	C	0.395074	0.175444	0.895433
	C177	C	0.615950	0.175789	0.140300
	C178	C	0.394675	0.813694	0.141564
	C179	C	0.615011	0.813562	0.895412
	C180	C	0.395085	0.870976	0.200085
	C181	C	0.615660	0.118297	0.198990
	C182	C	0.395168	0.117470	0.837379
	C183	C	0.615043	0.871114	0.837320
	C184	C	0.881453	0.176217	0.407722
	C185	C	0.127927	0.172527	0.628304
	C186	C	0.129769	0.811242	0.407449
	C187	C	0.882517	0.811947	0.627792
	C188	C	0.186318	0.383768	0.895829
	C189	C	0.185693	0.606316	0.140360
	C190	C	0.822509	0.385134	0.141891
	C191	C	0.822247	0.604084	0.890567
	C192	C	0.408361	0.085225	0.614119
	C193	C	0.602098	0.903176	0.614717
	C194	C	0.600609	0.085294	0.423170
	C195	C	0.410555	0.902801	0.422546
	C196	C	0.601160	0.400081	0.108195
	C197	C	0.600893	0.590797	0.926540
	C198	C	0.407289	0.591287	0.108737
	C199	C	0.408033	0.399057	0.926205
	C200	C	0.095677	0.589051	0.421538
	C201	C	0.915523	0.589170	0.613380
	C202	C	0.096620	0.395970	0.615607
	C203	C	0.916200	0.398809	0.420949
	C204	C	0.910462	0.585007	0.110936
	C205	C	0.101974	0.403764	0.112647
	C206	C	0.102396	0.587014	0.919953
	C207	C	0.909010	0.403371	0.922659
	C208	C	0.103540	0.896113	0.609074
	C209	C	0.102016	0.088898	0.426213
	C210	C	0.908415	0.090828	0.609410
	C211	C	0.909700	0.900315	0.427631
	C212	C	0.596768	0.091934	0.920982
	C213	C	0.414699	0.091071	0.114349
	C214	C	0.595252	0.899056	0.114213
	C215	C	0.414339	0.899338	0.921833
	Zn216	Zn	0.505473	-0.005268	0.768135
	Zn217	Zn	0.506022	-0.005330	0.268402
	Zn218	Zn	0.755239	0.495294	0.016661
	Zn219	Zn	0.255158	0.495644	0.017362
	Zn220	Zn	0.005566	0.744268	0.516803
	Zn221	Zn	0.005841	0.243279	0.517011
	Zn222	Zn	0.005057	0.493329	0.768387
	Zn223	Zn	0.005356	0.494641	0.266038
	Zn224	Zn	0.504860	0.744937	0.018194
	Zn225	Zn	0.505221	0.245192	0.017993
	Zn226	Zn	0.755415	-0.005464	0.518794
	Zn227	Zn	0.255605	-0.006897	0.517410
	N228	N	0.418930	0.958432	0.698287
	N229	N	0.591028	0.030702	0.697082
	N230	N	0.593178	0.959337	0.338019
	N231	N	0.419073	0.029670	0.338298
	N232	N	0.685601	0.407921	0.982100
	N233	N	0.688272	0.585049	0.050725
	N234	N	0.323955	0.583446	0.982081
	N235	N	0.324761	0.408500	0.052928
	N236	N	0.970560	0.674893	0.429522
	N237	N	0.041637	0.673205	0.603562
	N238	N	0.969727	0.313627	0.604043
	N239	N	0.041582	0.313389	0.429794
	N240	N	0.970742	0.404970	0.699507
	N241	N	0.041672	0.579281	0.697071
	N242	N	0.970973	0.582317	0.335602
	N243	N	0.041158	0.406456	0.335638
	N244	N	0.418727	0.674715	0.981756
	N245	N	0.590933	0.673707	0.053575
	N246	N	0.590705	0.316376	0.981541
	N247	N	0.418029	0.314982	0.053137
	N248	N	0.685793	0.959289	0.431763
	N249	N	0.686626	0.029571	0.606797
	N250	N	0.325880	0.957899	0.604903
	N251	N	0.324939	0.028372	0.430197
	N252	N	0.919122	0.458768	0.195746
	N253	N	0.092231	0.530418	0.196976
	N254	N	0.091479	0.458311	0.838891
	N255	N	0.918656	0.529730	0.837735
	N256	N	0.187836	0.904048	0.483239
	N257	N	0.185770	0.079476	0.552780
	N258	N	0.821951	0.084652	0.484424
	N259	N	0.825502	0.907375	0.553786
	N260	N	0.469955	0.174936	0.931223
	N261	N	0.541130	0.174703	0.104051
	N262	N	0.469102	0.814910	0.104874
	N263	N	0.540346	0.815136	0.931789
	N264	N	0.469936	0.907390	0.199085
	N265	N	0.540949	0.081998	0.198275
	N266	N	0.470248	0.081599	0.837853
	N267	N	0.540511	0.907938	0.838297
	N268	N	0.918806	0.173914	0.482048
	N269	N	0.091974	0.172056	0.553190
	N270	N	0.093034	0.813005	0.482022
	N271	N	0.918947	0.814260	0.553055
	N272	N	0.186401	0.459983	0.930020
	N273	N	0.184923	0.531288	0.103750
	N274	N	0.823764	0.460068	0.104905
	N275	N	0.823499	0.529321	0.928252
	O276	O	0.573127	0.591738	0.461340
	H277	H	0.585343	0.592211	0.478134
	H278	H	0.576469	0.582130	0.448948
	O279	O	0.312839	0.686030	0.321441
	H280	H	0.331049	0.694846	0.349736
	H281	H	0.337450	0.687213	0.334960
	O282	O	0.970569	1.045981	-0.061922
	H283	H	0.963797	1.046181	-0.056824
	H284	H	0.974948	1.034089	-0.078144
	O285	O	0.385204	0.537277	0.675380
	H286	H	0.402749	0.524023	0.677234
	H287	H	0.381498	0.531869	0.665667
	O288	O	-0.143326	-0.219659	0.048660
	H289	H	-0.147467	-0.220774	0.043287
	H290	H	-0.146868	-0.233486	0.036998
	O291	O	0.553268	0.454915	0.736511
	H292	H	0.545697	0.440965	0.733313
	H293	H	0.559842	0.458235	0.742443
	O294	O	0.155634	0.864972	-0.088069
	H295	H	0.151570	0.863308	-0.082717
	H296	H	0.139608	0.867317	-0.080267
	O297	O	0.646524	0.393944	0.336329
	H298	H	0.641154	0.396859	0.356440
	H299	H	0.619783	0.377161	0.332135
	O300	O	0.504889	0.403385	0.311140
	H301	H	0.519762	0.408361	0.311699
	H302	H	0.511219	0.400832	0.310067
	O303	O	0.759814	0.702979	0.314278
	H304	H	0.777282	0.696637	0.298056
	H305	H	0.770536	0.706227	0.294898
	O306	O	0.185123	1.173133	0.848459
	H307	H	0.160863	1.156155	0.851362
	H308	H	0.181894	1.170031	0.864860
	O309	O	0.362473	0.286964	0.500698
	H310	H	0.357929	0.296054	0.511967
	H311	H	0.348270	0.285932	0.498135
	O312	O	0.512947	0.618563	0.653683
	H313	H	0.533457	0.631797	0.662159
	H314	H	0.510448	0.611320	0.647312
	O315	O	0.201764	0.187034	1.156365
	H316	H	0.200368	0.194719	1.135298
	H317	H	0.212760	0.199410	1.168698
	O318	O	-0.150334	1.150912	-0.004377
	H319	H	-0.152431	1.141806	0.004839
	H320	H	-0.158849	1.163660	0.005470
	O321	O	0.554307	0.294957	0.670030
	H322	H	0.534950	0.288451	0.678883
	H323	H	0.542715	0.301338	0.664167
	O324	O	1.174733	-0.020417	0.814642
	H325	H	1.170565	-0.016957	0.820207
	H326	H	1.175932	-0.023922	0.811562
	O327	O	1.029606	-0.131839	1.194686
	H328	H	1.037330	-0.143620	1.191637
	H329	H	1.054214	-0.128333	1.199913
	O330	O	0.593357	0.599666	-0.364921
	H331	H	0.590587	0.592765	-0.373875
	H332	H	0.583106	0.603009	-0.370986
	O333	O	1.186169	0.986065	1.069010
	H334	H	1.181598	0.971759	1.072932
	H335	H	1.203196	0.981083	1.070251
	O336	O	0.981509	-0.160953	0.978633
	H337	H	0.977152	-0.159058	0.959055
	H338	H	1.002544	-0.173915	0.970999
	O339	O	0.390166	0.327125	0.449212
	H340	H	0.391950	0.325559	0.453390
	H341	H	0.385039	0.336564	0.453348
	O342	O	0.714253	0.687189	0.555434
	H343	H	0.731133	0.686990	0.547439
	H344	H	0.727197	0.682604	0.537656
	O345	O	0.051015	-0.033054	0.048591
	H346	H	0.050761	-0.037021	0.051190
	H347	H	0.043722	-0.033274	0.040623
	O348	O	0.922399	0.102706	1.036688
	H349	H	0.916611	0.087209	1.037481
	H350	H	0.915091	0.106433	1.029105
	O351	O	0.835260	0.798224	0.142065
	H352	H	0.830455	0.805930	0.147062
	H353	H	0.838291	0.799504	0.110155
	O354	O	0.288890	0.518750	0.303945
	H355	H	0.274970	0.542027	0.294754
	H356	H	0.282541	0.540127	0.297886
	O357	O	0.992776	1.208601	1.031490
	H358	H	0.990024	1.205568	1.036525
	H359	H	0.984706	1.201680	1.028794
	O360	O	0.290849	0.459656	0.480589
	H361	H	0.295958	0.451770	0.470105
	H362	H	0.285750	0.448884	0.466932
	O363	O	0.413054	0.626334	0.585865
	H364	H	0.421698	0.614165	0.567509
	H365	H	0.412580	0.633956	0.574075
	O366	O	1.392457	0.286292	0.722512
	H367	H	1.383948	0.260129	0.752129
	H368	H	1.367579	0.306544	0.720630
	O369	O	0.297635	0.530848	0.727018
	H370	H	0.299712	0.533200	0.735262
	H371	H	0.307490	0.541909	0.722572
	O372	O	0.475789	0.699483	0.305187
	H373	H	0.488862	0.720580	0.303691
	H374	H	0.498075	0.707569	0.312223
	O375	O	0.035910	1.204263	1.224772
	H376	H	0.033276	1.206953	1.242409
	H377	H	0.048396	1.212064	1.220105
	O378	O	1.121758	-0.078630	0.043062
	H379	H	1.122869	-0.079312	0.036073
	H380	H	1.112348	-0.070181	0.063421
	O381	O	0.973408	-0.021456	-0.055780
	H382	H	0.958555	-0.022338	-0.051632
	H383	H	0.979388	-0.010604	-0.059770
	O384	O	-0.208851	0.022322	0.801446
	H385	H	-0.223252	0.048788	0.785210
	H386	H	-0.211947	0.048569	0.796010
	O387	O	-0.190336	1.189523	0.821018
	H388	H	-0.191241	1.213589	0.802970
	H389	H	-0.190565	1.199761	0.864448
	O390	O	0.215189	0.119306	1.042291
	H391	H	0.220307	0.120005	1.024103
	H392	H	0.202890	0.116262	1.034819
	O393	O	1.003438	1.168927	-0.189606
	H394	H	1.006162	1.168237	-0.188883
	H395	H	0.991373	1.172665	-0.204446
	O396	O	0.628877	0.500517	0.494110
	H397	H	0.626324	0.511549	0.479414
	H398	H	0.629436	0.488026	0.488070
	O399	O	0.208849	0.064580	0.216486
	H400	H	0.216204	0.073540	0.216732
	H401	H	0.212838	0.077225	0.225291
	O402	O	-0.022142	-0.080246	0.806779
	H403	H	-0.029550	-0.076127	0.805484
	H404	H	-0.040158	-0.082235	0.810348
	O405	O	0.215675	-0.216018	-0.111749
	H406	H	0.216742	-0.208139	-0.112674
	H407	H	0.242693	-0.239060	-0.134735
	O408	O	0.727849	0.479376	0.296055
	H409	H	0.706921	0.445675	0.311952
	H410	H	0.760388	0.469925	0.258777
	O411	O	0.470300	0.614445	0.503289
	H412	H	0.487790	0.623477	0.505505
	H413	H	0.473046	0.600450	0.493045
	O414	O	0.596631	0.284314	0.311103
	H415	H	0.584311	0.276567	0.318539
	H416	H	0.593176	0.284105	0.293633
	O417	O	0.723265	0.278637	0.490730
	H418	H	0.722414	0.262360	0.491307
	H419	H	0.726115	0.258596	0.490773
	O420	O	0.484616	0.424879	0.546799
	H421	H	0.486968	0.412977	0.563066
	H422	H	0.485700	0.429380	0.540506
	O423	O	-0.187669	1.083075	0.119630
	H424	H	-0.179227	1.058999	0.128332
	H425	H	-0.181271	1.067642	0.098057
	O426	O	0.591016	1.549813	0.713707
	H427	H	0.615743	1.557067	0.729180
	H428	H	0.591995	1.530581	0.703556
	O429	O	-0.179075	0.929568	-0.042208
	H430	H	-0.177736	0.941771	-0.066332
	H431	H	-0.178061	0.923078	-0.055722
	O432	O	0.401227	0.418883	0.592923
	H433	H	0.398932	0.418019	0.587637
	H434	H	0.409858	0.414840	0.596107
	O435	O	0.123449	-0.047449	0.200024
	H436	H	0.136880	-0.058084	0.195174
	H437	H	0.147497	-0.055102	0.202005
	O438	O	1.094489	-0.186741	-0.167885
	H439	H	1.090654	-0.198015	-0.186379
	H440	H	1.109127	-0.169368	-0.163862
	O441	O	0.646889	0.603331	0.420200
	H442	H	0.665248	0.620380	0.408114
	H443	H	0.641608	0.591366	0.419817
	O444	O	-0.089591	1.105404	1.165996
	H445	H	-0.073196	1.102275	1.169003
	H446	H	-0.081107	1.082285	1.172255
	O447	O	0.871357	0.770061	-0.027033
	H448	H	0.851453	0.779970	-0.029037
	H449	H	0.871712	0.750967	-0.034294
	O450	O	0.295076	0.283924	0.634463
	H451	H	0.272913	0.262943	0.622795
	H452	H	0.291834	0.315239	0.657395
	O453	O	0.296731	0.704646	0.488171
	H454	H	0.282516	0.700843	0.507526
	H455	H	0.289834	0.712276	0.496352
	O456	O	0.706915	0.403343	-0.323824
	H457	H	0.694663	0.421683	-0.344508
	H458	H	0.707375	0.409026	-0.332064
	O459	O	0.452933	0.464016	0.303662
	H460	H	0.447280	0.469946	0.297333
	H461	H	0.446626	0.477807	0.301522
	O462	O	0.655237	0.653642	0.666703
	H463	H	0.666101	0.640615	0.636032
	H464	H	0.639026	0.643037	0.671088
	O465	O	0.812499	-0.020698	0.226973
	H466	H	0.830142	-0.009305	0.232749
	H467	H	0.801461	-0.030085	0.241837
