data_Molecule from HDF5

_cell_length_a		16.216738
_cell_length_b		16.268834
_cell_length_c		16.357532
_cell_angle_alpha	90.063058
_cell_angle_beta	90.095218
_cell_angle_gamma	89.930024
_symmetry_space_group_name_H-M	'P 1'
_symmetry_Int_Tables_number		1

loop_
	_symmetry_equiv_pos_as_xyz
	x,y,z

loop_
	_atom_site_label
	_atom_site_type_symbol
	_atom_site_fract_x
	_atom_site_fract_y
	_atom_site_fract_z
	H0	H	0.402440	0.844526	0.725850
	H1	H	0.601035	0.170589	0.725868
	H2	H	0.602625	0.844096	0.294159
	H3	H	0.401236	0.170300	0.294757
	H4	H	0.715752	0.409661	0.845592
	H5	H	0.716193	0.605313	0.172193
	H6	H	0.287505	0.604744	0.845139
	H7	H	0.287626	0.410764	0.172498
	H8	H	0.836887	0.720689	0.411826
	H9	H	0.166364	0.720777	0.608335
	H10	H	0.837166	0.294797	0.607264
	H11	H	0.166379	0.294040	0.411958
	H12	H	0.837525	0.408574	0.723325
	H13	H	0.165276	0.605822	0.724546
	H14	H	0.837413	0.606552	0.294434
	H15	H	0.165275	0.407061	0.295066
	H16	H	0.402805	0.721718	0.846281
	H17	H	0.599566	0.721440	0.172888
	H18	H	0.599068	0.292254	0.846513
	H19	H	0.402541	0.293339	0.172725
	H20	H	0.714468	0.843381	0.414148
	H21	H	0.715918	0.171483	0.609120
	H22	H	0.288392	0.843641	0.607199
	H23	H	0.289805	0.172056	0.414463
	H24	H	0.903425	0.343113	0.223162
	H25	H	0.100621	0.670364	0.225851
	H26	H	0.100741	0.343588	0.795025
	H27	H	0.902144	0.670842	0.794374
	H28	H	0.214932	0.910162	0.345649
	H29	H	0.215415	0.105334	0.673214
	H30	H	0.785938	0.105476	0.346777
	H31	H	0.788431	0.910012	0.673283
	H32	H	0.337481	0.220027	0.913413
	H33	H	0.665128	0.222365	0.109371
	H34	H	0.336190	0.795355	0.106550
	H35	H	0.665707	0.793709	0.913370
	H36	H	0.337051	0.909401	0.223831
	H37	H	0.665504	0.106343	0.225642
	H38	H	0.337963	0.105772	0.797052
	H39	H	0.665634	0.907620	0.796345
	H40	H	0.902907	0.221749	0.346229
	H41	H	0.099628	0.221925	0.672482
	H42	H	0.100522	0.790728	0.346268
	H43	H	0.903021	0.792373	0.672510
	H44	H	0.214709	0.343407	0.912789
	H45	H	0.213662	0.672336	0.106684
	H46	H	0.788796	0.342905	0.105399
	H47	H	0.788175	0.672177	0.911897
	H48	H	0.408769	0.124013	0.604372
	H49	H	0.589878	0.891848	0.604611
	H50	H	0.601068	0.126990	0.413719
	H51	H	0.415484	0.891591	0.416745
	H52	H	0.595525	0.420636	0.123496
	H53	H	0.595007	0.606466	0.891798
	H54	H	0.412007	0.600350	0.123725
	H55	H	0.412879	0.411373	0.894041
	H56	H	0.119607	0.604529	0.418578
	H57	H	0.887552	0.601142	0.594131
	H58	H	0.118155	0.417240	0.603923
	H59	H	0.882547	0.412313	0.413780
	H60	H	0.120504	0.412135	0.606086
	H61	H	0.885347	0.592422	0.605984
	H62	H	0.115319	0.595700	0.421252
	H63	H	0.886086	0.413979	0.419211
	H64	H	0.407241	0.604902	0.126768
	H65	H	0.598332	0.597851	0.892678
	H66	H	0.589789	0.411897	0.124414
	H67	H	0.404199	0.409789	0.891129
	H68	H	0.585193	0.122758	0.412133
	H69	H	0.598108	0.891067	0.600300
	H70	H	0.408643	0.124578	0.605061
	H71	H	0.403886	0.889309	0.420623
	H72	H	0.908669	0.622677	0.096660
	H73	H	0.096740	0.389292	0.105595
	H74	H	0.090925	0.625781	0.907558
	H75	H	0.901338	0.389878	0.921580
	H76	H	0.097174	0.912751	0.625774
	H77	H	0.104831	0.102865	0.389572
	H78	H	0.908932	0.098018	0.624482
	H79	H	0.911367	0.907518	0.392547
	H80	H	0.622277	0.106197	0.913520
	H81	H	0.386543	0.096404	0.099049
	H82	H	0.619391	0.911113	0.103326
	H83	H	0.386247	0.915231	0.922777
	H84	H	0.616244	0.915875	0.099898
	H85	H	0.382482	0.098937	0.109965
	H86	H	0.617136	0.101706	0.925406
	H87	H	0.384324	0.919253	0.911867
	H88	H	0.912127	0.104597	0.625211
	H89	H	0.092579	0.090347	0.397517
	H90	H	0.094096	0.915063	0.623856
	H91	H	0.901043	0.914786	0.392622
	H92	H	0.088852	0.620947	0.920919
	H93	H	0.092331	0.391182	0.104387
	H94	H	0.904360	0.626510	0.107700
	H95	H	0.909130	0.388528	0.906200
	H96	H	0.409241	0.123993	0.603975
	H97	H	0.597018	0.888659	0.609039
	H98	H	0.592573	0.121099	0.426425
	H99	H	0.406363	0.888016	0.409152
	H100	H	0.600371	0.411979	0.127826
	H101	H	0.589400	0.599440	0.895018
	H102	H	0.405013	0.598459	0.125302
	H103	H	0.406450	0.418142	0.893705
	H104	H	0.119048	0.596772	0.411980
	H105	H	0.880725	0.607175	0.607329
	H106	H	0.118305	0.412762	0.600139
	H107	H	0.885155	0.418557	0.414378
	H108	H	0.915402	0.623041	0.107075
	H109	H	0.096010	0.391509	0.100393
	H110	H	0.102025	0.626396	0.917508
	H111	H	0.917950	0.395234	0.919577
	H112	H	0.093715	0.910961	0.625337
	H113	H	0.086495	0.108480	0.393215
	H114	H	0.904444	0.103562	0.626992
	H115	H	0.912143	0.919780	0.396392
	H116	H	0.618585	0.092839	0.914466
	H117	H	0.382942	0.107438	0.101927
	H118	H	0.618847	0.916151	0.106070
	H119	H	0.381719	0.908310	0.915087
	C120	C	0.380152	0.016088	0.631889
	C121	C	0.623525	0.998950	0.632807
	C122	C	0.622364	0.015642	0.388856
	C123	C	0.380043	0.998621	0.388319
	C124	C	0.623306	0.386261	0.017271
	C125	C	0.622949	0.629436	1.000982
	C126	C	0.379274	0.629258	0.017541
	C127	C	0.379668	0.385861	1.001108
	C128	C	0.009595	0.628318	0.388257
	C129	C	0.993223	0.628687	0.630879
	C130	C	0.010270	0.386038	0.631147
	C131	C	0.993220	0.385995	0.387880
	C132	C	0.880786	0.515550	0.131172
	C133	C	0.122999	0.499192	0.131443
	C134	C	0.122529	0.516045	0.887535
	C135	C	0.880112	0.499183	0.887222
	C136	C	0.123434	0.884741	0.517530
	C137	C	0.122539	0.128744	0.501422
	C138	C	0.879271	0.130012	0.517940
	C139	C	0.880179	0.885819	0.501716
	C140	C	0.510434	0.128444	0.889644
	C141	C	0.492624	0.129237	0.132196
	C142	C	0.509408	0.886051	0.131295
	C143	C	0.492683	0.885843	0.888746
	C144	C	0.382420	0.893043	0.687274
	C145	C	0.621472	0.121946	0.687879
	C146	C	0.621524	0.892793	0.332929
	C147	C	0.381812	0.121709	0.333387
	C148	C	0.678022	0.388893	0.894493
	C149	C	0.678197	0.626363	0.123613
	C150	C	0.324641	0.625763	0.894264
	C151	C	0.324766	0.389302	0.123696
	C152	C	0.886056	0.683269	0.391004
	C153	C	0.117007	0.683229	0.628451
	C154	C	0.886478	0.331747	0.627901
	C155	C	0.117058	0.331267	0.391032
	C156	C	0.886311	0.388847	0.685340
	C157	C	0.116557	0.626175	0.686061
	C158	C	0.886426	0.626613	0.332520
	C159	C	0.116559	0.387559	0.333021
	C160	C	0.381866	0.683804	0.894597
	C161	C	0.620088	0.683910	0.124037
	C162	C	0.620150	0.330693	0.894759
	C163	C	0.382155	0.331169	0.123912
	C164	C	0.677118	0.892297	0.392544
	C165	C	0.677905	0.122612	0.629192
	C166	C	0.325849	0.892530	0.628194
	C167	C	0.325922	0.122417	0.392365
	C168	C	0.882959	0.392028	0.185550
	C169	C	0.120961	0.621855	0.187359
	C170	C	0.120806	0.392612	0.832785
	C171	C	0.881470	0.622128	0.832043
	C172	C	0.178045	0.888077	0.394595
	C173	C	0.177490	0.125717	0.624460
	C174	C	0.824100	0.126473	0.395252
	C175	C	0.825815	0.889204	0.624468
	C176	C	0.386618	0.182681	0.892696
	C177	C	0.616361	0.184256	0.129833
	C178	C	0.385497	0.832227	0.128018
	C179	C	0.616575	0.831055	0.892143
	C180	C	0.385692	0.889229	0.185644
	C181	C	0.616345	0.126612	0.187467
	C182	C	0.387098	0.126024	0.834642
	C183	C	0.616617	0.888017	0.834345
	C184	C	0.881999	0.184515	0.395151
	C185	C	0.120142	0.183721	0.624097
	C186	C	0.120629	0.829592	0.394508
	C187	C	0.882979	0.830775	0.624073
	C188	C	0.177378	0.392490	0.891308
	C189	C	0.176750	0.622972	0.127723
	C190	C	0.826211	0.391875	0.126790
	C191	C	0.825456	0.622875	0.890949
	C192	C	0.402340	0.102172	0.610736
	C193	C	0.601585	0.912680	0.611148
	C194	C	0.599528	0.101414	0.410896
	C195	C	0.401992	0.912164	0.409266
	C196	C	0.601406	0.408176	0.102968
	C197	C	0.600635	0.607659	0.915208
	C198	C	0.401372	0.607642	0.103039
	C199	C	0.401367	0.407065	0.915288
	C200	C	0.095836	0.605616	0.410564
	C201	C	0.906780	0.606727	0.608887
	C202	C	0.096700	0.407695	0.609722
	C203	C	0.906903	0.408371	0.409496
	C204	C	0.902799	0.601844	0.109934
	C205	C	0.101587	0.412878	0.109787
	C206	C	0.100413	0.602131	0.909086
	C207	C	0.902814	0.413404	0.909167
	C208	C	0.101447	0.906410	0.602873
	C209	C	0.100910	0.106941	0.415744
	C210	C	0.901662	0.108342	0.603601
	C211	C	0.901787	0.907773	0.415976
	C212	C	0.597122	0.106627	0.911437
	C213	C	0.406258	0.107348	0.109994
	C214	C	0.595782	0.907835	0.109464
	C215	C	0.406438	0.907903	0.910134
	Zn216	Zn	0.502168	0.007606	0.760983
	Zn217	Zn	0.501082	0.007142	0.259790
	Zn218	Zn	0.752426	0.507818	0.009190
	Zn219	Zn	0.250813	0.508060	0.008912
	Zn220	Zn	0.001439	0.756124	0.509656
	Zn221	Zn	0.001650	0.258738	0.509232
	Zn222	Zn	0.001286	0.507336	0.758824
	Zn223	Zn	0.001658	0.506576	0.260081
	Zn224	Zn	0.500521	0.757905	0.009720
	Zn225	Zn	0.501588	0.257050	0.010197
	Zn226	Zn	0.750770	0.007565	0.510367
	Zn227	Zn	0.251793	0.007450	0.509563
	N228	N	0.415957	0.970779	0.689462
	N229	N	0.588298	0.044200	0.689960
	N230	N	0.587917	0.970544	0.330519
	N231	N	0.414704	0.043774	0.330471
	N232	N	0.680041	0.422499	0.971786
	N233	N	0.680030	0.593476	0.046262
	N234	N	0.322926	0.592589	0.971646
	N235	N	0.323266	0.422666	0.046526
	N236	N	0.963699	0.684123	0.424902
	N237	N	0.039143	0.684814	0.594857
	N238	N	0.964188	0.330303	0.594648
	N239	N	0.039347	0.329994	0.424342
	N240	N	0.964491	0.421825	0.687696
	N241	N	0.038657	0.592926	0.687654
	N242	N	0.964365	0.593109	0.330637
	N243	N	0.038553	0.421049	0.331028
	N244	N	0.414997	0.686290	0.972089
	N245	N	0.586370	0.686151	0.046600
	N246	N	0.586961	0.328912	0.972087
	N247	N	0.415528	0.328844	0.046599
	N248	N	0.677568	0.969502	0.426596
	N249	N	0.679258	0.044955	0.595614
	N250	N	0.324366	0.969856	0.594606
	N251	N	0.324923	0.044882	0.425832
	N252	N	0.916316	0.469655	0.188103
	N253	N	0.088270	0.544025	0.189620
	N254	N	0.087318	0.470421	0.830271
	N255	N	0.914803	0.544272	0.829725
	N256	N	0.179912	0.921662	0.471796
	N257	N	0.179277	0.092345	0.547183
	N258	N	0.822187	0.093535	0.472632
	N259	N	0.823986	0.922794	0.547388
	N260	N	0.464323	0.183971	0.926367
	N261	N	0.538467	0.186022	0.096255
	N262	N	0.463411	0.830278	0.094947
	N263	N	0.538783	0.829867	0.925441
	N264	N	0.463785	0.922007	0.187754
	N265	N	0.538391	0.093231	0.189064
	N266	N	0.465083	0.092807	0.832803
	N267	N	0.538608	0.921426	0.832150
	N268	N	0.915717	0.186622	0.472400
	N269	N	0.086651	0.185665	0.546711
	N270	N	0.087626	0.827046	0.471951
	N271	N	0.915946	0.828462	0.546801
	N272	N	0.178594	0.470085	0.924619
	N273	N	0.178527	0.545424	0.093902
	N274	N	0.824672	0.469739	0.093934
	N275	N	0.824391	0.545448	0.924608
	O276	O	0.489070	0.536343	0.428301
	H277	H	0.483238	0.529958	0.436519
	H278	H	0.492831	0.533683	0.421550
	O279	O	0.010696	-0.003540	-0.035525
	H280	H	0.018959	-0.007666	-0.026593
	H281	H	0.016735	-0.008238	-0.033904
	O282	O	0.544828	0.491515	0.492394
	H283	H	0.556250	0.484985	0.494442
	H284	H	0.549057	0.494770	0.489100
	O285	O	0.477083	0.543479	0.402215
	H286	H	0.472095	0.542871	0.408135
	H287	H	0.486396	0.533732	0.401749
	O288	O	0.957783	0.012010	-0.047855
	H289	H	0.954741	0.011094	-0.054232
	H290	H	0.971709	0.015404	-0.048494
	O291	O	-0.478415	0.508554	-0.597465
	H292	H	-0.488878	0.519014	-0.603630
	H293	H	-0.473022	0.515872	-0.592436
	O294	O	0.538408	0.489952	0.411506
	H295	H	0.535731	0.494514	0.415562
	H296	H	0.533069	0.496125	0.410156
	O297	O	-0.021843	0.980759	0.020410
	H298	H	-0.030601	0.974199	0.021097
	H299	H	-0.025783	0.987557	0.013701
	O300	O	1.521044	-0.472247	0.404535
	H301	H	1.523512	-0.468568	0.393168
	H302	H	1.514630	-0.471964	0.403246
	O303	O	0.471309	0.557866	0.458362
	H304	H	0.471425	0.556327	0.459207
	H305	H	0.474697	0.560151	0.460025
	O306	O	0.012209	1.011042	0.986653
	H307	H	0.012967	1.012498	0.991349
	H308	H	0.001344	1.011619	0.982064
	O309	O	0.617588	0.593715	0.555784
	H310	H	0.626036	0.593660	0.546648
	H311	H	0.606195	0.589350	0.538737
