data_Molecule from HDF5

_cell_length_a		16.205852
_cell_length_b		16.159075
_cell_length_c		16.340371
_cell_angle_alpha	89.730840
_cell_angle_beta	89.736362
_cell_angle_gamma	90.411202
_symmetry_space_group_name_H-M	'P 1'
_symmetry_Int_Tables_number		1

loop_
	_symmetry_equiv_pos_as_xyz
	x,y,z

loop_
	_atom_site_label
	_atom_site_type_symbol
	_atom_site_fract_x
	_atom_site_fract_y
	_atom_site_fract_z
	H0	H	0.401554	0.841503	0.714852
	H1	H	0.605914	0.169419	0.709935
	H2	H	0.606132	0.840522	0.281181
	H3	H	0.405142	0.167701	0.280476
	H4	H	0.721195	0.405612	0.834961
	H5	H	0.718482	0.605517	0.159887
	H6	H	0.289144	0.603468	0.833867
	H7	H	0.286036	0.404367	0.160590
	H8	H	0.839360	0.716530	0.402387
	H9	H	0.168310	0.718694	0.594868
	H10	H	0.840189	0.286349	0.597725
	H11	H	0.170585	0.295731	0.400429
	H12	H	0.840055	0.399493	0.715667
	H13	H	0.167261	0.604921	0.712609
	H14	H	0.839936	0.604699	0.284694
	H15	H	0.166408	0.405852	0.279725
	H16	H	0.406159	0.719947	0.833176
	H17	H	0.601862	0.720375	0.159284
	H18	H	0.601727	0.292861	0.833335
	H19	H	0.400879	0.286800	0.159455
	H20	H	0.717466	0.839142	0.399651
	H21	H	0.720775	0.168791	0.594168
	H22	H	0.288412	0.840561	0.597678
	H23	H	0.293600	0.169014	0.398067
	H24	H	0.900204	0.341257	0.216385
	H25	H	0.102879	0.669897	0.210594
	H26	H	0.103414	0.340938	0.782214
	H27	H	0.902625	0.667209	0.780807
	H28	H	0.221077	0.904908	0.335044
	H29	H	0.222065	0.104573	0.660058
	H30	H	0.790525	0.103987	0.333533
	H31	H	0.787243	0.902851	0.659593
	H32	H	0.338083	0.216923	0.898930
	H33	H	0.668316	0.220026	0.092801
	H34	H	0.340014	0.788699	0.096046
	H35	H	0.669120	0.793437	0.898863
	H36	H	0.341706	0.901315	0.215070
	H37	H	0.668261	0.106256	0.211145
	H38	H	0.341029	0.106451	0.779128
	H39	H	0.668398	0.906426	0.781394
	H40	H	0.908712	0.219604	0.333975
	H41	H	0.105501	0.220125	0.660299
	H42	H	0.103268	0.791126	0.334753
	H43	H	0.904279	0.788811	0.660538
	H44	H	0.215604	0.339463	0.900082
	H45	H	0.217133	0.669652	0.094137
	H46	H	0.786536	0.340665	0.098814
	H47	H	0.793192	0.670522	0.901088
	H48	H	0.406846	0.121505	0.581691
	H49	H	0.592381	0.888930	0.587541
	H50	H	0.595592	0.121048	0.402771
	H51	H	0.405494	0.885166	0.408898
	H52	H	0.594370	0.411015	0.112806
	H53	H	0.605443	0.594631	0.879834
	H54	H	0.413593	0.608409	0.115611
	H55	H	0.396586	0.412468	0.878216
	H56	H	0.121402	0.597914	0.402069
	H57	H	0.887389	0.594871	0.592204
	H58	H	0.124071	0.403400	0.592257
	H59	H	0.888644	0.416535	0.407403
	H60	H	0.116740	0.417146	0.583123
	H61	H	0.886308	0.595525	0.591168
	H62	H	0.121852	0.598663	0.403989
	H63	H	0.885438	0.408944	0.403038
	H64	H	0.397606	0.593703	0.115957
	H65	H	0.590935	0.594584	0.883575
	H66	H	0.593705	0.414392	0.112311
	H67	H	0.414604	0.421352	0.885057
	H68	H	0.597784	0.120806	0.406123
	H69	H	0.600709	0.885858	0.589697
	H70	H	0.413594	0.125235	0.597758
	H71	H	0.415310	0.884678	0.397378
	H72	H	0.921697	0.618210	0.088993
	H73	H	0.099347	0.384306	0.094113
	H74	H	0.095222	0.621747	0.902081
	H75	H	0.914852	0.388769	0.908426
	H76	H	0.096180	0.917220	0.612162
	H77	H	0.107033	0.102649	0.378455
	H78	H	0.913852	0.093993	0.611623
	H79	H	0.902279	0.914053	0.379277
	H80	H	0.620969	0.103502	0.902721
	H81	H	0.385076	0.097726	0.094601
	H82	H	0.616913	0.921868	0.082270
	H83	H	0.389175	0.911557	0.913085
	H84	H	0.624292	0.916179	0.100304
	H85	H	0.387826	0.096708	0.086352
	H86	H	0.619550	0.096502	0.904799
	H87	H	0.388889	0.920869	0.900578
	H88	H	0.912745	0.095469	0.613032
	H89	H	0.100413	0.091877	0.383183
	H90	H	0.092748	0.908282	0.613764
	H91	H	0.917527	0.916166	0.383738
	H92	H	0.095387	0.621396	0.905966
	H93	H	0.085402	0.389211	0.094813
	H94	H	0.903047	0.623268	0.083518
	H95	H	0.908989	0.387597	0.910202
	H96	H	0.423808	0.118565	0.584990
	H97	H	0.593270	0.885606	0.596091
	H98	H	0.600473	0.122665	0.401987
	H99	H	0.419049	0.890058	0.410172
	H100	H	0.591486	0.412652	0.111944
	H101	H	0.597584	0.607280	0.878427
	H102	H	0.417812	0.589033	0.108136
	H103	H	0.413763	0.400612	0.878949
	H104	H	0.121083	0.596897	0.403406
	H105	H	0.885986	0.594896	0.591231
	H106	H	0.121428	0.419551	0.600160
	H107	H	0.887540	0.408744	0.411685
	H108	H	0.909357	0.626862	0.101885
	H109	H	0.093361	0.390517	0.083473
	H110	H	0.098670	0.622717	0.904079
	H111	H	0.909866	0.385480	0.903870
	H112	H	0.102545	0.910973	0.616152
	H113	H	0.094152	0.104182	0.382159
	H114	H	0.911777	0.093823	0.612445
	H115	H	0.912562	0.901804	0.378200
	H116	H	0.621542	0.097793	0.898125
	H117	H	0.388675	0.089924	0.091830
	H118	H	0.623331	0.902934	0.085051
	H119	H	0.383627	0.905614	0.899621
	C120	C	0.384005	0.013362	0.618223
	C121	C	0.625859	0.995560	0.618559
	C122	C	0.626570	0.012807	0.375090
	C123	C	0.384402	0.995295	0.375893
	C124	C	0.623714	0.384151	0.005244
	C125	C	0.626027	0.627645	0.988351
	C126	C	0.381792	0.626374	0.005224
	C127	C	0.379137	0.381969	0.988614
	C128	C	0.012784	0.626459	0.375638
	C129	C	0.994824	0.625205	0.619886
	C130	C	0.012468	0.382120	0.620838
	C131	C	0.995781	0.383733	0.377179
	C132	C	0.881077	0.513993	0.120927
	C133	C	0.123107	0.496576	0.118848
	C134	C	0.124720	0.513202	0.875793
	C135	C	0.882792	0.496042	0.877795
	C136	C	0.126193	0.883288	0.506328
	C137	C	0.129023	0.127678	0.488989
	C138	C	0.884084	0.124930	0.505166
	C139	C	0.881848	0.881256	0.488175
	C140	C	0.512310	0.127063	0.873989
	C141	C	0.495528	0.125686	0.118583
	C142	C	0.513349	0.883242	0.118642
	C143	C	0.495938	0.884352	0.875495
	C144	C	0.382976	0.890287	0.675747
	C145	C	0.625307	0.119843	0.672517
	C146	C	0.625022	0.889314	0.319625
	C147	C	0.386038	0.118858	0.319451
	C148	C	0.681686	0.385921	0.883256
	C149	C	0.680456	0.625476	0.111225
	C150	C	0.327000	0.624037	0.882516
	C151	C	0.323718	0.383917	0.111629
	C152	C	0.888887	0.680123	0.380532
	C153	C	0.118918	0.681096	0.616537
	C154	C	0.889238	0.324244	0.618558
	C155	C	0.120284	0.331357	0.379390
	C156	C	0.888961	0.381055	0.677006
	C157	C	0.118367	0.624115	0.674570
	C158	C	0.889081	0.624547	0.321792
	C159	C	0.118232	0.385927	0.319176
	C160	C	0.385235	0.681816	0.882144
	C161	C	0.622821	0.682952	0.110719
	C162	C	0.622128	0.329869	0.882345
	C163	C	0.380964	0.325603	0.111087
	C164	C	0.680292	0.888403	0.378699
	C165	C	0.682024	0.119741	0.614634
	C166	C	0.326797	0.889834	0.617511
	C167	C	0.330099	0.119377	0.377441
	C168	C	0.881047	0.390170	0.177431
	C169	C	0.122343	0.620508	0.173276
	C170	C	0.122958	0.389750	0.820697
	C171	C	0.883840	0.618914	0.820205
	C172	C	0.182433	0.885145	0.383606
	C173	C	0.184401	0.125107	0.611278
	C174	C	0.829065	0.123716	0.382247
	C175	C	0.825651	0.882952	0.611019
	C176	C	0.387784	0.180198	0.877911
	C177	C	0.619187	0.182359	0.114395
	C178	C	0.389360	0.826953	0.116330
	C179	C	0.619768	0.830687	0.878314
	C180	C	0.390153	0.882769	0.175504
	C181	C	0.619140	0.125877	0.173305
	C182	C	0.389344	0.125277	0.818239
	C183	C	0.619464	0.886812	0.819739
	C184	C	0.887592	0.181358	0.382517
	C185	C	0.126123	0.182407	0.611553
	C186	C	0.124090	0.828404	0.383574
	C187	C	0.883727	0.826077	0.611387
	C188	C	0.178729	0.389062	0.879268
	C189	C	0.179147	0.620563	0.115446
	C190	C	0.824242	0.390021	0.119436
	C191	C	0.828990	0.620497	0.879670
	C192	C	0.407804	0.099389	0.594969
	C193	C	0.602494	0.909047	0.597360
	C194	C	0.604334	0.099143	0.397152
	C195	C	0.406763	0.908980	0.398610
	C196	C	0.600222	0.406101	0.090372
	C197	C	0.604348	0.605361	0.902724
	C198	C	0.403399	0.603633	0.091026
	C199	C	0.401572	0.404766	0.902903
	C200	C	0.099150	0.604347	0.396747
	C201	C	0.908987	0.602130	0.597783
	C202	C	0.098410	0.406390	0.598318
	C203	C	0.909530	0.405096	0.400374
	C204	C	0.904503	0.600407	0.098130
	C205	C	0.099607	0.410347	0.097141
	C206	C	0.102858	0.599538	0.897563
	C207	C	0.904782	0.409680	0.900869
	C208	C	0.103702	0.905677	0.591855
	C209	C	0.106912	0.105866	0.403386
	C210	C	0.906173	0.101323	0.590302
	C211	C	0.904146	0.903836	0.402637
	C212	C	0.598415	0.105627	0.895683
	C213	C	0.409647	0.101887	0.097272
	C214	C	0.599173	0.906812	0.095832
	C215	C	0.409551	0.906320	0.897755
	Zn216	Zn	0.504765	0.005317	0.746723
	Zn217	Zn	0.505071	0.004120	0.247537
	Zn218	Zn	0.754065	0.505343	-0.001828
	Zn219	Zn	0.252040	0.504756	-0.002389
	Zn220	Zn	0.004520	0.754070	0.497408
	Zn221	Zn	0.005433	0.254989	0.497666
	Zn222	Zn	0.002826	0.503940	0.748674
	Zn223	Zn	0.002963	0.505290	0.248454
	Zn224	Zn	0.503992	0.755623	-0.003913
	Zn225	Zn	0.502464	0.254178	-0.003600
	Zn226	Zn	0.753749	0.003493	0.496482
	Zn227	Zn	0.256396	0.004417	0.496871
	N228	N	0.418061	0.968020	0.676339
	N229	N	0.591007	0.041757	0.674970
	N230	N	0.592172	0.967672	0.317418
	N231	N	0.419179	0.040600	0.318349
	N232	N	0.682622	0.419285	0.960523
	N233	N	0.682505	0.591732	0.034155
	N234	N	0.325012	0.590413	0.959936
	N235	N	0.322497	0.418249	0.034349
	N236	N	0.966835	0.681397	0.413416
	N237	N	0.041191	0.682069	0.583200
	N238	N	0.967090	0.324527	0.584556
	N239	N	0.042923	0.329769	0.414616
	N240	N	0.966565	0.416129	0.678567
	N241	N	0.040159	0.590181	0.676897
	N242	N	0.967056	0.591893	0.318742
	N243	N	0.039869	0.417825	0.317775
	N244	N	0.418493	0.683493	0.959560
	N245	N	0.589723	0.684402	0.033249
	N246	N	0.586631	0.328701	0.958964
	N247	N	0.414576	0.324176	0.033638
	N248	N	0.681333	0.966179	0.412570
	N249	N	0.682622	0.041390	0.581853
	N250	N	0.327430	0.967325	0.582364
	N251	N	0.329171	0.041581	0.412097
	N252	N	0.915421	0.468224	0.178602
	N253	N	0.088049	0.542328	0.175405
	N254	N	0.090159	0.467994	0.818415
	N255	N	0.916507	0.540466	0.818904
	N256	N	0.184101	0.918298	0.461000
	N257	N	0.186266	0.091903	0.533907
	N258	N	0.826776	0.089383	0.459496
	N259	N	0.824265	0.916749	0.533600
	N260	N	0.465240	0.181693	0.911683
	N261	N	0.541284	0.182607	0.081229
	N262	N	0.466821	0.827246	0.081416
	N263	N	0.541936	0.829017	0.911935
	N264	N	0.468138	0.917033	0.177048
	N265	N	0.541295	0.091368	0.176051
	N266	N	0.467725	0.092996	0.815699
	N267	N	0.541228	0.919664	0.817841
	N268	N	0.921157	0.182191	0.459805
	N269	N	0.092587	0.184508	0.534384
	N270	N	0.089725	0.827161	0.460784
	N271	N	0.917982	0.824864	0.534128
	N272	N	0.179833	0.466872	0.912967
	N273	N	0.179762	0.542660	0.082252
	N274	N	0.824037	0.467972	0.085071
	N275	N	0.828347	0.542963	0.914974
	O276	O	0.079340	-0.008723	0.003342
	H277	H	0.081628	-0.013162	0.006001
	H278	H	0.088261	-0.014404	0.000555
	O279	O	0.509859	0.480058	0.393313
	H280	H	0.512505	0.474654	0.401895
	H281	H	0.504302	0.479597	0.406479
	O282	O	0.462085	0.565638	0.521671
	H283	H	0.460618	0.567580	0.517159
	H284	H	0.455036	0.559890	0.512246
	O285	O	0.995916	0.056469	1.003577
	H286	H	0.998755	0.053018	1.003550
	H287	H	1.001251	0.055115	1.010252
	O288	O	1.085673	-0.027167	-0.015390
	H289	H	1.081874	-0.026828	-0.019540
	H290	H	1.082692	-0.032750	-0.012032
	O291	O	0.471805	0.491359	0.558309
	H292	H	0.473055	0.488353	0.550243
	H293	H	0.470328	0.488897	0.553626
	O294	O	1.043636	0.056440	0.990307
	H295	H	1.046702	0.059452	1.000297
	H296	H	1.045811	0.051061	0.991052
	O297	O	0.084878	-0.011340	0.011664
	H298	H	0.089256	-0.006925	0.005490
	H299	H	0.097108	-0.002068	0.002535
	O300	O	0.500802	0.425136	0.503642
	H301	H	0.499748	0.415509	0.506175
	H302	H	0.494356	0.419123	0.505812
	O303	O	0.511668	0.466359	0.448651
	H304	H	0.517355	0.459434	0.442398
	H305	H	0.512368	0.468311	0.449465
	O306	O	0.982512	0.060360	-0.024398
	H307	H	0.974187	0.055650	-0.028892
	H308	H	0.981945	0.061789	-0.024955
	O309	O	-0.035110	-0.041761	0.972013
	H310	H	-0.033143	-0.038528	0.986980
	H311	H	-0.029249	-0.037371	0.961373
	O312	O	1.031710	0.954736	0.949972
	H313	H	1.032212	0.954734	0.941242
	H314	H	1.036121	0.952243	0.953411
	O315	O	0.536637	0.437055	0.485034
	H316	H	0.544832	0.434192	0.483433
	H317	H	0.527506	0.436103	0.489625
	O318	O	0.425435	0.520976	0.383151
	H319	H	0.421546	0.520321	0.372952
	H320	H	0.434912	0.515196	0.377391
	O321	O	-0.012619	1.075596	0.974148
	H322	H	-0.018027	1.072669	0.970710
	H323	H	-0.013083	1.079269	0.974022
	O324	O	0.533405	0.497471	0.486488
	H325	H	0.527982	0.511014	0.487235
	H326	H	0.530269	0.497585	0.492916
	O327	O	0.553629	0.512785	0.506886
	H328	H	0.548903	0.515926	0.508427
	H329	H	0.563053	0.512011	0.511229
	O330	O	0.466438	0.496144	0.500086
	H331	H	0.463574	0.483509	0.505122
	H332	H	0.476474	0.498440	0.507925
	O333	O	0.498876	0.572021	0.625446
	H334	H	0.494500	0.573823	0.637656
	H335	H	0.498912	0.573473	0.626986
	O336	O	0.476500	0.514834	0.534705
	H337	H	0.471253	0.523768	0.536933
	H338	H	0.473045	0.520709	0.540448
	O339	O	1.023112	1.063889	-0.017743
	H340	H	1.025768	1.066639	-0.028702
	H341	H	1.025559	1.060481	-0.012658
	O342	O	0.513842	0.408385	0.500661
	H343	H	0.522716	0.419580	0.494317
	H344	H	0.515244	0.404440	0.497320
	O345	O	0.572065	0.468965	0.427313
	H346	H	0.578538	0.471047	0.427311
	H347	H	0.571105	0.465941	0.425799
	O348	O	-0.041408	0.002376	-0.008427
	H349	H	-0.049567	-0.000356	-0.008554
	H350	H	-0.051894	0.014935	-0.010680
	O351	O	-0.049285	1.037396	1.060309
	H352	H	-0.046738	1.040302	1.063183
	H353	H	-0.050175	1.035430	1.067805
	O354	O	0.513874	0.544480	0.576978
	H355	H	0.520797	0.553747	0.586954
	H356	H	0.514231	0.540352	0.561635
	O357	O	0.009367	0.995360	1.000014
	H358	H	0.008812	0.986974	1.008062
	H359	H	0.004468	0.999943	0.994029
