data_Molecule from HDF5

_cell_length_a		16.598947
_cell_length_b		16.278005
_cell_length_c		16.425594
_cell_angle_alpha	90.143845
_cell_angle_beta	90.055267
_cell_angle_gamma	90.053867
_symmetry_space_group_name_H-M	'P 1'
_symmetry_Int_Tables_number		1

loop_
	_symmetry_equiv_pos_as_xyz
	x,y,z

loop_
	_atom_site_label
	_atom_site_type_symbol
	_atom_site_fract_x
	_atom_site_fract_y
	_atom_site_fract_z
	H0	H	0.402894	0.830473	0.723279
	H1	H	0.614210	0.149454	0.725271
	H2	H	0.613987	0.832105	0.279596
	H3	H	0.401610	0.149045	0.283673
	H4	H	0.732342	0.379052	0.846805
	H5	H	0.730770	0.598991	0.160346
	H6	H	0.282692	0.601306	0.845979
	H7	H	0.282941	0.383911	0.158668
	H8	H	0.849779	0.714374	0.396250
	H9	H	0.164220	0.711582	0.607285
	H10	H	0.851436	0.266145	0.610285
	H11	H	0.163534	0.270399	0.398944
	H12	H	0.852051	0.380796	0.728364
	H13	H	0.162362	0.599513	0.727546
	H14	H	0.852145	0.603035	0.275622
	H15	H	0.162348	0.386109	0.280656
	H16	H	0.405530	0.709110	0.842737
	H17	H	0.612037	0.712192	0.161658
	H18	H	0.611890	0.270072	0.844059
	H19	H	0.403223	0.271711	0.160678
	H20	H	0.730841	0.832516	0.392668
	H21	H	0.731831	0.148199	0.611504
	H22	H	0.284300	0.831691	0.612680
	H23	H	0.282700	0.145928	0.396424
	H24	H	0.902177	0.330528	0.222917
	H25	H	0.113173	0.650041	0.225422
	H26	H	0.112572	0.330555	0.781358
	H27	H	0.904117	0.649768	0.784299
	H28	H	0.231768	0.879219	0.345610
	H29	H	0.232242	0.098936	0.659254
	H30	H	0.783264	0.101252	0.345199
	H31	H	0.785973	0.885270	0.659019
	H32	H	0.348766	0.211799	0.897596
	H33	H	0.664597	0.212762	0.105996
	H34	H	0.350832	0.767991	0.108859
	H35	H	0.664245	0.771747	0.900565
	H36	H	0.351042	0.883207	0.225600
	H37	H	0.663881	0.098422	0.225598
	H38	H	0.350305	0.099623	0.777584
	H39	H	0.663237	0.886886	0.781576
	H40	H	0.905579	0.209852	0.342401
	H41	H	0.113758	0.212603	0.660372
	H42	H	0.109871	0.769936	0.343119
	H43	H	0.907188	0.774200	0.661846
	H44	H	0.227637	0.331107	0.895700
	H45	H	0.232152	0.648346	0.112905
	H46	H	0.785937	0.330747	0.109439
	H47	H	0.784410	0.647552	0.896480
	H48	H	0.413522	0.104369	0.588685
	H49	H	0.598230	0.878349	0.584460
	H50	H	0.592738	0.103456	0.415009
	H51	H	0.425922	0.876357	0.411689
	H52	H	0.591497	0.399199	0.115274
	H53	H	0.598210	0.575296	0.890999
	H54	H	0.418169	0.578154	0.115359
	H55	H	0.412075	0.405662	0.887741
	H56	H	0.120374	0.578608	0.405659
	H57	H	0.892639	0.581616	0.598765
	H58	H	0.119603	0.405676	0.596385
	H59	H	0.894983	0.406094	0.410670
	H60	H	0.120719	0.397619	0.590699
	H61	H	0.894281	0.583976	0.588903
	H62	H	0.118139	0.584462	0.418097
	H63	H	0.891734	0.397858	0.410618
	H64	H	0.417308	0.577478	0.115474
	H65	H	0.594721	0.579344	0.890066
	H66	H	0.603122	0.402359	0.118514
	H67	H	0.420169	0.405162	0.890464
	H68	H	0.597218	0.103699	0.418674
	H69	H	0.599156	0.874865	0.592855
	H70	H	0.422145	0.104038	0.593486
	H71	H	0.418915	0.877287	0.422416
	H72	H	0.916733	0.605787	0.092893
	H73	H	0.095728	0.376501	0.091415
	H74	H	0.095800	0.607914	0.906976
	H75	H	0.916202	0.375225	0.917748
	H76	H	0.090788	0.897679	0.615141
	H77	H	0.104093	0.071735	0.388902
	H78	H	0.920812	0.080904	0.613868
	H79	H	0.915699	0.903422	0.387546
	H80	H	0.617278	0.078067	0.912914
	H81	H	0.395769	0.075638	0.095214
	H82	H	0.615944	0.910759	0.089462
	H83	H	0.392520	0.898180	0.911109
	H84	H	0.621248	0.902683	0.099246
	H85	H	0.392336	0.083697	0.094933
	H86	H	0.618418	0.079804	0.911752
	H87	H	0.394951	0.902189	0.914863
	H88	H	0.914439	0.076982	0.616431
	H89	H	0.088882	0.068946	0.395468
	H90	H	0.104374	0.897712	0.619484
	H91	H	0.918465	0.903527	0.388314
	H92	H	0.089071	0.601181	0.918533
	H93	H	0.092009	0.379511	0.089548
	H94	H	0.921940	0.602369	0.089513
	H95	H	0.919444	0.374352	0.912891
	H96	H	0.421942	0.101515	0.584198
	H97	H	0.591427	0.878819	0.590492
	H98	H	0.598388	0.105954	0.413004
	H99	H	0.414281	0.871981	0.411506
	H100	H	0.595860	0.410351	0.112994
	H101	H	0.600285	0.579905	0.887950
	H102	H	0.418255	0.577357	0.114853
	H103	H	0.416498	0.398309	0.887003
	H104	H	0.114075	0.571621	0.415556
	H105	H	0.896436	0.574312	0.592246
	H106	H	0.115688	0.405433	0.587690
	H107	H	0.895400	0.401256	0.418094
	H108	H	0.915822	0.603760	0.086087
	H109	H	0.096108	0.377632	0.086797
	H110	H	0.103323	0.605242	0.919458
	H111	H	0.921906	0.377000	0.917251
	H112	H	0.098815	0.909186	0.613727
	H113	H	0.092900	0.083957	0.389075
	H114	H	0.920301	0.072878	0.612288
	H115	H	0.917448	0.900739	0.387106
	H116	H	0.617743	0.079808	0.913646
	H117	H	0.396549	0.080172	0.087630
	H118	H	0.619028	0.896563	0.086185
	H119	H	0.393412	0.903362	0.909207
	C120	C	0.386664	-0.001699	0.622825
	C121	C	0.628918	0.981965	0.623237
	C122	C	0.628747	-0.000507	0.381706
	C123	C	0.386566	0.980111	0.382350
	C124	C	0.628645	0.369937	0.011162
	C125	C	0.629581	0.611723	0.994312
	C126	C	0.385813	0.611534	0.011006
	C127	C	0.384803	0.370280	0.993270
	C128	C	0.014806	0.612997	0.379864
	C129	C	0.998241	0.612232	0.625114
	C130	C	0.015785	0.368655	0.625078
	C131	C	0.997750	0.369588	0.380958
	C132	C	0.885449	0.498958	0.123393
	C133	C	0.127824	0.482666	0.123193
	C134	C	0.128225	0.499320	0.881482
	C135	C	0.886664	0.480960	0.883003
	C136	C	0.129729	0.868228	0.511380
	C137	C	0.128337	0.109513	0.494704
	C138	C	0.885631	0.111827	0.510771
	C139	C	0.886445	0.870554	0.492818
	C140	C	0.514789	0.112897	0.879720
	C141	C	0.498431	0.113229	0.124877
	C142	C	0.515630	0.869424	0.124539
	C143	C	0.498004	0.869296	0.880565
	C144	C	0.384277	0.878639	0.683932
	C145	C	0.631873	0.101561	0.684815
	C146	C	0.631828	0.879774	0.319834
	C147	C	0.383364	0.100562	0.322719
	C148	C	0.690569	0.363665	0.893471
	C149	C	0.690424	0.616321	0.112852
	C150	C	0.324275	0.617298	0.892877
	C151	C	0.323906	0.366444	0.111588
	C152	C	0.897198	0.674544	0.377450
	C153	C	0.116742	0.672298	0.626369
	C154	C	0.898506	0.306630	0.628260
	C155	C	0.116408	0.310257	0.379855
	C156	C	0.898756	0.363907	0.687195
	C157	C	0.115901	0.616087	0.686030
	C158	C	0.898304	0.618950	0.317181
	C159	C	0.115680	0.367515	0.320949
	C160	C	0.385339	0.671124	0.891282
	C161	C	0.631031	0.672699	0.113617
	C162	C	0.630296	0.309456	0.891923
	C163	C	0.383980	0.310809	0.112874
	C164	C	0.689885	0.879964	0.376353
	C165	C	0.690477	0.101009	0.628047
	C166	C	0.325476	0.878972	0.628488
	C167	C	0.324163	0.098985	0.378525
	C168	C	0.883800	0.378745	0.183567
	C169	C	0.130869	0.602318	0.184849
	C170	C	0.130225	0.378751	0.821400
	C171	C	0.884858	0.601318	0.823212
	C172	C	0.190595	0.863050	0.392715
	C173	C	0.190654	0.115312	0.612373
	C174	C	0.824497	0.117284	0.392171
	C175	C	0.826590	0.867804	0.612137
	C176	C	0.396493	0.172969	0.878167
	C177	C	0.617140	0.173453	0.125809
	C178	C	0.398023	0.808199	0.127043
	C179	C	0.616823	0.810991	0.880773
	C180	C	0.398169	0.865598	0.185440
	C181	C	0.616552	0.116759	0.185531
	C182	C	0.397248	0.116944	0.818452
	C183	C	0.616297	0.868189	0.821721
	C184	C	0.885085	0.171876	0.391015
	C185	C	0.131628	0.172035	0.613058
	C186	C	0.130121	0.808257	0.391495
	C187	C	0.886659	0.812701	0.613609
	C188	C	0.187661	0.378945	0.878556
	C189	C	0.189937	0.601492	0.128737
	C190	C	0.825694	0.378865	0.127160
	C191	C	0.825506	0.600406	0.878966
	C192	C	0.412050	0.081620	0.596324
	C193	C	0.603579	0.898975	0.596720
	C194	C	0.603474	0.082523	0.408201
	C195	C	0.412263	0.896838	0.407860
	C196	C	0.603849	0.396466	0.094007
	C197	C	0.604828	0.585611	0.911387
	C198	C	0.410695	0.585153	0.093592
	C199	C	0.409258	0.395764	0.909987
	C200	C	0.096041	0.586090	0.405803
	C201	C	0.916053	0.587076	0.600355
	C202	C	0.097340	0.395261	0.599134
	C203	C	0.915407	0.394637	0.405924
	C204	C	0.910743	0.582494	0.097122
	C205	C	0.101983	0.399758	0.096800
	C206	C	0.103193	0.582867	0.907425
	C207	C	0.911776	0.397334	0.908569
	C208	C	0.105201	0.894148	0.594660
	C209	C	0.102492	0.082405	0.412472
	C210	C	0.911088	0.084703	0.592766
	C211	C	0.910464	0.895218	0.409381
	C212	C	0.596522	0.086799	0.905487
	C213	C	0.416435	0.087303	0.099846
	C214	C	0.597442	0.895796	0.098978
	C215	C	0.415101	0.894108	0.904729
	Zn216	Zn	0.506003	-0.009101	0.750791
	Zn217	Zn	0.507274	-0.009311	0.254182
	Zn218	Zn	0.757675	0.489290	0.003128
	Zn219	Zn	0.256462	0.491651	0.001883
	Zn220	Zn	0.006663	0.740968	0.502674
	Zn221	Zn	0.007705	0.239722	0.502633
	Zn222	Zn	0.007681	0.490252	0.754377
	Zn223	Zn	0.006095	0.490892	0.250982
	Zn224	Zn	0.506983	0.740184	0.002794
	Zn225	Zn	0.506872	0.242123	0.001611
	Zn226	Zn	0.757475	-0.009286	0.501259
	Zn227	Zn	0.257768	-0.011223	0.503198
	N228	N	0.421693	0.953949	0.680506
	N229	N	0.594143	0.026449	0.682177
	N230	N	0.594447	0.954978	0.322996
	N231	N	0.421494	0.025794	0.325181
	N232	N	0.689654	0.400702	0.968634
	N233	N	0.689888	0.579293	0.037451
	N234	N	0.324231	0.581171	0.968453
	N235	N	0.324219	0.402206	0.035928
	N236	N	0.970669	0.670997	0.415739
	N237	N	0.042731	0.669911	0.588760
	N238	N	0.972160	0.309548	0.590394
	N239	N	0.041982	0.311373	0.416444
	N240	N	0.972786	0.401870	0.685269
	N241	N	0.041288	0.579498	0.685497
	N242	N	0.972292	0.581299	0.318502
	N243	N	0.040888	0.403575	0.321560
	N244	N	0.422911	0.667797	0.965792
	N245	N	0.593977	0.670048	0.038816
	N246	N	0.592268	0.313315	0.966111
	N247	N	0.421075	0.313000	0.038166
	N248	N	0.688138	0.955426	0.414116
	N249	N	0.688664	0.025797	0.590252
	N250	N	0.326802	0.954363	0.591166
	N251	N	0.325892	0.023110	0.414892
	N252	N	0.919971	0.454751	0.181612
	N253	N	0.092655	0.527522	0.181340
	N254	N	0.094211	0.454826	0.823103
	N255	N	0.921966	0.525947	0.825638
	N256	N	0.190550	0.899248	0.468528
	N257	N	0.188685	0.076978	0.537742
	N258	N	0.824434	0.080962	0.467735
	N259	N	0.826101	0.902711	0.535905
	N260	N	0.470707	0.170814	0.915363
	N261	N	0.542670	0.171868	0.089002
	N262	N	0.472196	0.810377	0.090010
	N263	N	0.542105	0.811708	0.916631
	N264	N	0.472449	0.902964	0.184059
	N265	N	0.541726	0.080412	0.185297
	N266	N	0.471739	0.080246	0.819198
	N267	N	0.541249	0.903521	0.821477
	N268	N	0.922331	0.168807	0.465747
	N269	N	0.093541	0.168349	0.538969
	N270	N	0.093056	0.811213	0.466206
	N271	N	0.922980	0.814273	0.538507
	N272	N	0.186821	0.455028	0.915077
	N273	N	0.188148	0.526189	0.090899
	N274	N	0.826612	0.454714	0.090600
	N275	N	0.826547	0.524499	0.915454
	O276	O	0.567613	0.471327	0.626171
	H277	H	0.557774	0.475619	0.621896
	H278	H	0.578737	0.470058	0.630042
	O279	O	1.036909	0.110892	1.136306
	H280	H	1.031968	0.111010	1.122938
	H281	H	1.057598	0.108746	1.155516
	O282	O	0.330965	0.622167	0.609238
	H283	H	0.328389	0.604541	0.616758
	H284	H	0.339089	0.627365	0.609875
	O285	O	0.470988	0.280573	0.447004
	H286	H	0.479591	0.270848	0.422980
	H287	H	0.493473	0.295809	0.447301
	O288	O	1.220545	1.200321	0.032165
	H289	H	1.234237	1.215797	0.047476
	H290	H	1.228791	1.204290	0.056411
	O291	O	0.292939	0.664409	0.498647
	H292	H	0.272056	0.689608	0.501725
	H293	H	0.292036	0.653589	0.503904
	O294	O	0.039652	0.095341	1.189515
	H295	H	0.046675	0.106900	1.207179
	H296	H	0.035544	0.089796	1.188679
	O297	O	0.292784	0.469313	1.716600
	H298	H	0.278143	0.464917	1.734813
	H299	H	0.290563	0.442449	1.713940
	O300	O	0.319197	0.666437	0.313882
	H301	H	0.345906	0.675703	0.326761
	H302	H	0.332725	0.663653	0.327974
	O303	O	-0.273686	-0.547476	0.550912
	H304	H	-0.266947	-0.537428	0.571618
	H305	H	-0.285699	-0.554872	0.563861
	O306	O	0.571869	0.305643	0.555236
	H307	H	0.557678	0.308830	0.552385
	H308	H	0.590576	0.307640	0.551031
	O309	O	0.723550	0.513755	0.715164
	H310	H	0.731569	0.534567	0.732307
	H311	H	0.725413	0.533942	0.727871
	O312	O	-0.163845	1.078295	0.812091
	H313	H	-0.152970	1.058275	0.808229
	H314	H	-0.150265	1.087311	0.804829
	O315	O	0.725166	0.293036	0.486553
	H316	H	0.714724	0.314323	0.512480
	H317	H	0.758952	0.256494	0.489389
	O318	O	1.207954	0.188712	0.200121
	H319	H	1.177858	0.184412	0.200157
	H320	H	1.232917	0.212919	0.231810
	O321	O	0.172147	-0.021392	-0.104740
	H322	H	0.169604	-0.018115	-0.088840
	H323	H	0.184358	-0.032400	-0.125001
	O324	O	0.838162	1.082789	-0.036399
	H325	H	0.852173	1.093819	-0.070599
	H326	H	0.831291	1.106280	-0.017635
	O327	O	0.555103	0.634736	0.395243
	H328	H	0.561317	0.624053	0.409918
	H329	H	0.569468	0.626003	0.386827
	O330	O	-0.053452	1.110889	-0.195721
	H331	H	-0.036678	1.090274	-0.202232
	H332	H	-0.047845	1.115632	-0.178726
	O333	O	0.532693	0.269674	0.282896
	H334	H	0.568831	0.264151	0.278320
	H335	H	0.553858	0.250371	0.260765
	O336	O	-0.048478	-0.214349	-0.055599
	H337	H	-0.051206	-0.208148	-0.030442
	H338	H	-0.045205	-0.213337	-0.033531
	O339	O	0.185962	0.845539	0.814152
	H340	H	0.172941	0.856636	0.799109
	H341	H	0.169423	0.836566	0.823592
	O342	O	0.324651	1.310250	0.678077
	H343	H	0.331139	1.313493	0.665787
	H344	H	0.356700	1.299349	0.667347
	O345	O	0.945253	1.109983	0.102253
	H346	H	0.945866	1.110021	0.099920
	H347	H	0.951527	1.107909	0.094744
	O348	O	0.300847	0.497429	0.349465
	H349	H	0.284134	0.525120	0.335789
	H350	H	0.306559	0.498528	0.375932
	O351	O	0.324582	1.306464	1.321154
	H352	H	0.330574	1.326953	1.337568
	H353	H	0.348937	1.318536	1.337467
	O354	O	0.055470	0.793326	-0.197206
	H355	H	0.036959	0.789873	-0.199314
	H356	H	0.044031	0.783218	-0.181751
	O357	O	-0.037525	-0.004791	1.059893
	H358	H	-0.042307	-0.014035	1.058645
	H359	H	-0.042341	-0.007944	1.067933
	O360	O	0.713624	0.527684	0.428463
	H361	H	0.702017	0.497189	0.454800
	H362	H	0.717294	0.564682	0.452592
	O363	O	0.172670	-0.018515	1.001713
	H364	H	0.165827	-0.014322	1.028878
	H365	H	0.173264	0.010002	0.996697
	O366	O	0.491634	0.670583	0.301528
	H367	H	0.511366	0.677401	0.284341
	H368	H	0.508950	0.664093	0.296444
	O369	O	0.707995	0.685857	-0.302227
	H370	H	0.652778	0.693778	-0.293871
	H371	H	0.731594	0.708093	-0.275115
	O372	O	0.995436	0.079284	1.074480
	H373	H	0.988055	0.073899	1.075084
	H374	H	1.000755	0.092003	1.063301
	O375	O	-0.014639	0.796676	1.202813
	H376	H	-0.002573	0.785247	1.212244
	H377	H	0.004564	0.798774	1.198856
	O378	O	0.856889	0.807674	0.808820
	H379	H	0.867608	0.828980	0.814016
	H380	H	0.866551	0.815910	0.832922
	O381	O	0.704769	0.466595	0.293270
	H382	H	0.715408	0.484495	0.319151
	H383	H	0.726127	0.476286	0.281358
	O384	O	-0.202197	0.784659	1.017524
	H385	H	-0.210727	0.797579	1.024719
	H386	H	-0.208202	0.769243	1.029183
	O387	O	-0.201011	-0.023838	1.210733
	H388	H	-0.219624	-0.022989	1.211687
	H389	H	-0.204003	-0.043871	1.214586
	O390	O	0.202092	0.003726	0.211971
	H391	H	0.226393	0.010030	0.224293
	H392	H	0.207699	0.008994	0.209473
	O393	O	1.008907	0.826855	1.055443
	H394	H	1.022710	0.822053	1.055488
	H395	H	1.023178	0.824636	1.053373
	O396	O	0.438988	0.456255	0.291510
	H397	H	0.421662	0.456686	0.291634
	H398	H	0.434342	0.427382	0.289529
	O399	O	0.714948	0.708439	0.526479
	H400	H	0.734789	0.731758	0.540058
	H401	H	0.712956	0.708471	0.566806
	O402	O	1.210355	0.788973	0.984071
	H403	H	1.210281	0.795978	0.962190
	H404	H	1.237726	0.774373	0.976945
	O405	O	0.690198	0.306510	-0.683769
	H406	H	0.704323	0.351310	-0.685930
	H407	H	0.702660	0.303781	-0.640156
	O408	O	1.049836	0.076844	-0.194568
	H409	H	1.056053	0.072926	-0.199154
	H410	H	1.052774	0.078225	-0.187000
	O411	O	0.869049	1.075605	-0.031302
	H412	H	0.858602	1.083893	-0.011045
	H413	H	0.881180	1.080144	-0.019978
	O414	O	0.536144	0.546945	0.427980
	H415	H	0.528938	0.524531	0.415458
	H416	H	0.548745	0.533608	0.413258
	O417	O	0.504684	1.474347	-0.445455
	H418	H	0.509113	1.482003	-0.468930
	H419	H	0.498720	1.480186	-0.446108
	O420	O	0.019214	0.183934	-0.108964
	H421	H	0.033684	0.179672	-0.093658
	H422	H	0.021148	0.195477	-0.119489
	O423	O	0.488789	0.282794	0.714393
	H424	H	0.496719	0.270610	0.728838
	H425	H	0.503987	0.283939	0.717758
	O426	O	-0.000965	1.032734	0.824837
	H427	H	0.016799	1.026907	0.822426
	H428	H	0.007651	1.036425	0.841626
	O429	O	0.500022	0.702402	0.502814
	H430	H	0.516053	0.708620	0.494153
	H431	H	0.490097	0.700319	0.488569
	O432	O	0.307598	0.456189	0.475213
	H433	H	0.306203	0.468178	0.471327
	H434	H	0.321000	0.446947	0.491123
	O435	O	0.544184	0.702061	0.713584
	H436	H	0.518410	0.705860	0.697639
	H437	H	0.527849	0.710335	0.732335
	O438	O	-0.173360	-0.182301	0.175714
	H439	H	-0.123967	-0.192403	0.187920
	H440	H	-0.178445	-0.162397	0.151937
	O441	O	1.118574	-0.089545	0.090981
	H442	H	1.132739	-0.088016	0.090482
	H443	H	1.130576	-0.082985	0.079585
	O444	O	0.855016	0.062213	0.936228
	H445	H	0.857087	0.070818	0.949079
	H446	H	0.846714	0.061225	0.926312
	O447	O	0.586512	0.451890	0.539350
	H448	H	0.588511	0.456780	0.530445
	H449	H	0.590468	0.465099	0.553276
	O450	O	0.436324	0.615463	0.659082
	H451	H	0.450429	0.606608	0.650140
	H452	H	0.444813	0.597966	0.645511
	O453	O	0.312056	0.290030	0.517056
	H454	H	0.325885	0.286947	0.502936
	H455	H	0.314055	0.289803	0.525973
