data_Molecule from HDF5

_cell_length_a		16.403539
_cell_length_b		16.028288
_cell_length_c		16.324092
_cell_angle_alpha	89.764974
_cell_angle_beta	89.340371
_cell_angle_gamma	90.502970
_symmetry_space_group_name_H-M	'P 1'
_symmetry_Int_Tables_number		1

loop_
	_symmetry_equiv_pos_as_xyz
	x,y,z

loop_
	_atom_site_label
	_atom_site_type_symbol
	_atom_site_fract_x
	_atom_site_fract_y
	_atom_site_fract_z
	H0	H	0.388630	0.837779	0.715698
	H1	H	0.592195	0.168143	0.712121
	H2	H	0.589537	0.838371	0.284035
	H3	H	0.394354	0.168531	0.286033
	H4	H	0.708890	0.402099	0.839856
	H5	H	0.704957	0.605833	0.162784
	H6	H	0.273811	0.609703	0.838088
	H7	H	0.266968	0.398270	0.159882
	H8	H	0.827215	0.717464	0.402761
	H9	H	0.152680	0.720906	0.594439
	H10	H	0.828722	0.287069	0.601371
	H11	H	0.153604	0.292759	0.399337
	H12	H	0.830379	0.398679	0.721051
	H13	H	0.150563	0.611928	0.716600
	H14	H	0.828220	0.605814	0.283482
	H15	H	0.149816	0.401782	0.276605
	H16	H	0.396653	0.718314	0.836569
	H17	H	0.585297	0.716791	0.164322
	H18	H	0.588137	0.293544	0.836441
	H19	H	0.388461	0.287801	0.162580
	H20	H	0.707782	0.839126	0.395895
	H21	H	0.707308	0.167443	0.598934
	H22	H	0.271833	0.838835	0.602055
	H23	H	0.277003	0.167380	0.395201
	H24	H	0.886071	0.339497	0.216616
	H25	H	0.087752	0.670171	0.210559
	H26	H	0.089626	0.339902	0.783461
	H27	H	0.892010	0.670365	0.786420
	H28	H	0.210015	0.902960	0.336455
	H29	H	0.210257	0.109964	0.660361
	H30	H	0.776365	0.108701	0.337957
	H31	H	0.769385	0.897147	0.659021
	H32	H	0.327437	0.217332	0.902332
	H33	H	0.653290	0.219341	0.093280
	H34	H	0.328024	0.786989	0.100848
	H35	H	0.654253	0.792473	0.901443
	H36	H	0.329043	0.899775	0.220145
	H37	H	0.651934	0.108722	0.214170
	H38	H	0.329331	0.105867	0.781112
	H39	H	0.651711	0.901005	0.778266
	H40	H	0.898227	0.217376	0.335492
	H41	H	0.088950	0.220228	0.662101
	H42	H	0.088538	0.792894	0.334709
	H43	H	0.890603	0.789650	0.662303
	H44	H	0.205305	0.339728	0.897147
	H45	H	0.207653	0.667396	0.100902
	H46	H	0.772338	0.338729	0.103327
	H47	H	0.777436	0.669230	0.902280
	H48	H	0.396621	0.121511	0.586677
	H49	H	0.576142	0.889166	0.581480
	H50	H	0.590106	0.120570	0.412981
	H51	H	0.401876	0.886005	0.409925
	H52	H	0.582720	0.416014	0.115059
	H53	H	0.587495	0.590326	0.886049
	H54	H	0.391527	0.595701	0.117918
	H55	H	0.405007	0.416314	0.886483
	H56	H	0.104756	0.590246	0.397140
	H57	H	0.874726	0.595318	0.593481
	H58	H	0.104660	0.424313	0.595641
	H59	H	0.875659	0.417638	0.404989
	H60	H	0.109477	0.407534	0.596681
	H61	H	0.875748	0.594076	0.593474
	H62	H	0.109152	0.606380	0.399650
	H63	H	0.872064	0.406596	0.404139
	H64	H	0.394883	0.586658	0.113783
	H65	H	0.581240	0.599484	0.884655
	H66	H	0.576762	0.410175	0.116291
	H67	H	0.396604	0.404587	0.880635
	H68	H	0.589117	0.124911	0.400690
	H69	H	0.588244	0.883203	0.587896
	H70	H	0.399478	0.122107	0.594766
	H71	H	0.396977	0.885439	0.412413
	H72	H	0.899680	0.623271	0.098386
	H73	H	0.083818	0.383655	0.090263
	H74	H	0.083284	0.622546	0.908526
	H75	H	0.894241	0.384906	0.909521
	H76	H	0.085117	0.924971	0.611350
	H77	H	0.079630	0.099148	0.385086
	H78	H	0.904672	0.099197	0.614932
	H79	H	0.897034	0.916579	0.382548
	H80	H	0.605779	0.091478	0.897068
	H81	H	0.372743	0.094800	0.103148
	H82	H	0.605399	0.911286	0.088578
	H83	H	0.376258	0.915017	0.905989
	H84	H	0.605145	0.918568	0.094457
	H85	H	0.373582	0.099615	0.089135
	H86	H	0.608787	0.105643	0.901845
	H87	H	0.374880	0.909447	0.908194
	H88	H	0.889832	0.097978	0.618546
	H89	H	0.090242	0.099946	0.381132
	H90	H	0.072089	0.909936	0.612504
	H91	H	0.902186	0.910566	0.382581
	H92	H	0.082247	0.622065	0.907865
	H93	H	0.073559	0.385425	0.093608
	H94	H	0.900662	0.619768	0.086572
	H95	H	0.899270	0.386449	0.906861
	H96	H	0.404779	0.119124	0.588481
	H97	H	0.575993	0.884002	0.596434
	H98	H	0.578566	0.119888	0.405953
	H99	H	0.397468	0.883644	0.406984
	H100	H	0.584765	0.409474	0.119608
	H101	H	0.591833	0.600492	0.881027
	H102	H	0.401744	0.595234	0.114446
	H103	H	0.390596	0.419002	0.883359
	H104	H	0.103051	0.597410	0.411109
	H105	H	0.874135	0.594695	0.595242
	H106	H	0.103409	0.414676	0.581914
	H107	H	0.876879	0.410299	0.413699
	H108	H	0.889745	0.624380	0.091140
	H109	H	0.076984	0.388788	0.083701
	H110	H	0.081693	0.621788	0.908692
	H111	H	0.898879	0.386530	0.913097
	H112	H	0.090521	0.907722	0.618670
	H113	H	0.086496	0.089893	0.385331
	H114	H	0.896598	0.085329	0.613363
	H115	H	0.895313	0.910027	0.380061
	H116	H	0.603047	0.095216	0.911461
	H117	H	0.377903	0.085713	0.092947
	H118	H	0.607465	0.909916	0.097305
	H119	H	0.377347	0.913351	0.911694
	C120	C	0.369033	0.012124	0.620700
	C121	C	0.610834	0.994245	0.618307
	C122	C	0.614431	0.012593	0.376600
	C123	C	0.371262	0.994489	0.379897
	C124	C	0.611183	0.382910	0.009305
	C125	C	0.613305	0.625870	0.991699
	C126	C	0.368709	0.624406	0.008239
	C127	C	0.366241	0.381383	0.990445
	C128	C	-0.001604	0.626890	0.375654
	C129	C	0.981720	0.626343	0.621491
	C130	C	-0.000696	0.383400	0.622082
	C131	C	0.981786	0.382886	0.377102
	C132	C	0.866607	0.513044	0.121977
	C133	C	0.108803	0.494999	0.118894
	C134	C	0.111570	0.513227	0.878215
	C135	C	0.869276	0.495532	0.880195
	C136	C	0.112354	0.883641	0.506957
	C137	C	0.114754	0.127087	0.490663
	C138	C	0.869767	0.124906	0.508143
	C139	C	0.868433	0.881988	0.489575
	C140	C	0.498671	0.126120	0.875596
	C141	C	0.481748	0.125309	0.121799
	C142	C	0.498980	0.882129	0.123152
	C143	C	0.482798	0.882815	0.877999
	C144	C	0.368732	0.887769	0.677742
	C145	C	0.611113	0.118653	0.674399
	C146	C	0.610887	0.888109	0.321487
	C147	C	0.374141	0.119071	0.323785
	C148	C	0.669291	0.383383	0.887575
	C149	C	0.667164	0.624816	0.114322
	C150	C	0.313051	0.626831	0.886376
	C151	C	0.307297	0.380132	0.112019
	C152	C	0.876040	0.680771	0.381042
	C153	C	0.103761	0.683313	0.616504
	C154	C	0.877503	0.324999	0.621555
	C155	C	0.104518	0.329107	0.378618
	C156	C	0.878150	0.380952	0.681084
	C157	C	0.102608	0.629025	0.677490
	C158	C	0.876594	0.624960	0.321738
	C159	C	0.102396	0.383175	0.317201
	C160	C	0.374072	0.680997	0.885466
	C161	C	0.607839	0.680272	0.114975
	C162	C	0.608889	0.329391	0.885908
	C163	C	0.367184	0.324573	0.113145
	C164	C	0.669678	0.888444	0.377073
	C165	C	0.668399	0.118292	0.617808
	C166	C	0.310925	0.888150	0.620938
	C167	C	0.315797	0.118483	0.378270
	C168	C	0.866662	0.388836	0.178754
	C169	C	0.107938	0.619850	0.173875
	C170	C	0.109905	0.389311	0.821389
	C171	C	0.871967	0.620404	0.824431
	C172	C	0.169717	0.884410	0.384623
	C173	C	0.171581	0.128151	0.612025
	C174	C	0.815191	0.126244	0.386103
	C175	C	0.809843	0.879939	0.611224
	C176	C	0.376270	0.180162	0.880616
	C177	C	0.604263	0.181975	0.115577
	C178	C	0.376736	0.824775	0.121368
	C179	C	0.605363	0.828935	0.880278
	C180	C	0.377192	0.881026	0.180704
	C181	C	0.603595	0.126784	0.175828
	C182	C	0.377527	0.124954	0.819911
	C183	C	0.603882	0.882878	0.818796
	C184	C	0.875662	0.180668	0.384900
	C185	C	0.111015	0.182942	0.613166
	C186	C	0.109770	0.829348	0.383833
	C187	C	0.870035	0.826154	0.612682
	C188	C	0.167534	0.389235	0.877951
	C189	C	0.167452	0.618868	0.119252
	C190	C	0.810224	0.388394	0.121945
	C191	C	0.814818	0.619837	0.882117
	C192	C	0.393144	0.098660	0.596932
	C193	C	0.586952	0.907731	0.595313
	C194	C	0.592289	0.099427	0.399606
	C195	C	0.392607	0.907321	0.403032
	C196	C	0.587972	0.405183	0.094756
	C197	C	0.592879	0.603459	0.906080
	C198	C	0.389661	0.599754	0.093247
	C199	C	0.390379	0.406006	0.905610
	C200	C	0.083632	0.604626	0.396466
	C201	C	0.896759	0.601757	0.600374
	C202	C	0.083849	0.408350	0.598234
	C203	C	0.896787	0.404889	0.400663
	C204	C	0.889903	0.600062	0.098574
	C205	C	0.084977	0.408424	0.095861
	C206	C	0.088963	0.599752	0.901506
	C207	C	0.891164	0.408430	0.903068
	C208	C	0.089334	0.907262	0.592030
	C209	C	0.092298	0.103214	0.405976
	C210	C	0.890763	0.100965	0.593617
	C211	C	0.891457	0.905485	0.404127
	C212	C	0.583843	0.103884	0.897121
	C213	C	0.396862	0.100810	0.101312
	C214	C	0.583897	0.906143	0.100219
	C215	C	0.398031	0.905697	0.901667
	Zn216	Zn	0.491001	0.003195	0.747146
	Zn217	Zn	0.490810	0.003845	0.251972
	Zn218	Zn	0.740351	0.503372	0.001209
	Zn219	Zn	0.238358	0.504080	-0.000808
	Zn220	Zn	-0.009998	0.755072	0.498467
	Zn221	Zn	-0.008701	0.254491	0.499963
	Zn222	Zn	-0.009747	0.504985	0.751068
	Zn223	Zn	-0.011461	0.504504	0.247136
	Zn224	Zn	0.491278	0.753741	0.000168
	Zn225	Zn	0.489806	0.254489	-0.000548
	Zn226	Zn	0.740595	0.003292	0.498778
	Zn227	Zn	0.242955	0.004236	0.498619
	N228	N	0.404003	0.965856	0.677722
	N229	N	0.575999	0.040504	0.674870
	N230	N	0.577502	0.966590	0.320897
	N231	N	0.408116	0.040887	0.324635
	N232	N	0.670721	0.415860	0.965309
	N233	N	0.670925	0.591889	0.036639
	N234	N	0.309704	0.592240	0.963772
	N235	N	0.306327	0.414372	0.034610
	N236	N	0.952777	0.682128	0.413961
	N237	N	0.027487	0.681857	0.582415
	N238	N	0.953729	0.326402	0.585522
	N239	N	0.028430	0.328691	0.415217
	N240	N	0.954801	0.416414	0.681578
	N241	N	0.025622	0.594287	0.680734
	N242	N	0.953615	0.592036	0.318304
	N243	N	0.025158	0.416132	0.316421
	N244	N	0.407895	0.679955	0.962135
	N245	N	0.575018	0.681188	0.037774
	N246	N	0.573472	0.328890	0.962572
	N247	N	0.403210	0.325222	0.036567
	N248	N	0.671880	0.966967	0.410738
	N249	N	0.668443	0.039874	0.583864
	N250	N	0.310953	0.966599	0.586102
	N251	N	0.314080	0.040196	0.412688
	N252	N	0.900803	0.467229	0.178945
	N253	N	0.072270	0.541791	0.173737
	N254	N	0.076072	0.467670	0.821286
	N255	N	0.905151	0.541860	0.823230
	N256	N	0.171389	0.917619	0.462172
	N257	N	0.174111	0.094223	0.534658
	N258	N	0.811584	0.092124	0.463643
	N259	N	0.808666	0.914069	0.533726
	N260	N	0.452794	0.181224	0.914313
	N261	N	0.527496	0.181281	0.082673
	N262	N	0.453277	0.825450	0.086092
	N263	N	0.529150	0.828844	0.916455
	N264	N	0.454153	0.915887	0.182061
	N265	N	0.526563	0.092240	0.179865
	N266	N	0.454729	0.092151	0.816741
	N267	N	0.526621	0.915616	0.817245
	N268	N	0.908927	0.179999	0.461856
	N269	N	0.076563	0.182682	0.536815
	N270	N	0.074519	0.828872	0.460729
	N271	N	0.905690	0.827153	0.535973
	N272	N	0.168717	0.467311	0.912487
	N273	N	0.168182	0.540282	0.085774
	N274	N	0.809940	0.467097	0.087485
	N275	N	0.812863	0.541032	0.915771
	O276	O	0.832159	-0.147021	1.111667
	H277	H	0.825315	-0.145743	1.088951
	H278	H	0.831952	-0.151505	1.103955
	O279	O	0.587330	0.559297	0.546961
	H280	H	0.590770	0.558701	0.538956
	H281	H	0.586844	0.559980	0.555202
	O282	O	0.454231	0.423938	0.351855
	H283	H	0.452885	0.422650	0.354883
	H284	H	0.456986	0.420133	0.345117
	O285	O	0.397072	0.423315	0.558608
	H286	H	0.401583	0.416014	0.555489
	H287	H	0.399495	0.417738	0.561892
	O288	O	0.555093	0.567727	0.573461
	H289	H	0.544389	0.567608	0.575244
	H290	H	0.553543	0.562251	0.585952
	O291	O	-0.058336	0.061475	0.976694
	H292	H	-0.044346	0.062668	0.968770
	H293	H	-0.071594	0.054942	0.978937
	O294	O	0.962353	1.046047	0.010908
	H295	H	0.962405	1.046702	0.003018
	H296	H	0.970545	1.053210	0.018517
	O297	O	1.018157	0.955726	-0.069462
	H298	H	1.023872	0.951660	-0.068578
	H299	H	1.022950	0.948265	-0.069027
	O300	O	0.608149	0.537036	0.524908
	H301	H	0.614122	0.532147	0.519823
	H302	H	0.606899	0.539026	0.528611
	O303	O	0.912800	-0.002779	1.136034
	H304	H	0.901383	-0.006061	1.152956
	H305	H	0.916542	-0.015884	1.133235
	O306	O	0.562934	0.578570	0.514729
	H307	H	0.560552	0.591308	0.517696
	H308	H	0.554132	0.582740	0.513959
	O309	O	0.459953	0.459459	0.515765
	H310	H	0.470697	0.464932	0.522534
	H311	H	0.457389	0.459124	0.517920
	O312	O	0.518908	1.561316	0.507532
	H313	H	0.515110	1.567718	0.501419
	H314	H	0.508348	1.548523	0.503669
	O315	O	1.468186	0.576713	0.414195
	H316	H	1.461167	0.562955	0.406383
	H317	H	1.461330	0.575034	0.428568
	O318	O	0.327363	0.473775	0.624228
	H319	H	0.346472	0.472821	0.625649
	H320	H	0.323906	0.467828	0.615228
	O321	O	0.497182	0.441182	0.589316
	H322	H	0.507986	0.453838	0.586097
	H323	H	0.502061	0.436262	0.583003
	O324	O	0.058784	1.017679	0.958463
	H325	H	0.059758	1.017767	0.954260
	H326	H	0.070949	1.009368	0.960377
	O327	O	-0.048257	0.860641	1.147037
	H328	H	-0.051693	0.847757	1.154212
	H329	H	-0.063335	0.864112	1.152113
	O330	O	-0.050047	0.114581	-0.025022
	H331	H	-0.051552	0.131734	-0.028601
	H332	H	-0.054082	0.112241	-0.012749
	O333	O	0.618434	0.460464	0.410993
	H334	H	0.606902	0.473745	0.404105
	H335	H	0.629985	0.448889	0.421513
	O336	O	0.094772	-0.020146	0.107185
	H337	H	0.089600	-0.029813	0.100381
	H338	H	0.089141	-0.020647	0.102391
	O339	O	-0.074846	-0.050534	0.039674
	H340	H	-0.072581	-0.048639	0.042733
	H341	H	-0.078325	-0.052100	0.051965
	O342	O	0.541240	0.412398	0.509687
	H343	H	0.551190	0.428231	0.516554
	H344	H	0.532213	0.411211	0.515542
	O345	O	0.050136	0.920004	0.949987
	H346	H	0.039409	0.912267	0.957139
	H347	H	0.051476	0.919209	0.954044
	O348	O	0.444986	0.397995	0.400635
	H349	H	0.450257	0.391277	0.395115
	H350	H	0.443241	0.401186	0.400374
	O351	O	0.436835	0.453639	0.437620
	H352	H	0.421450	0.451381	0.440709
	H353	H	0.433192	0.452851	0.445608
	O354	O	-0.103233	0.870148	-0.114134
	H355	H	-0.111628	0.885111	-0.119691
	H356	H	-0.092133	0.881260	-0.115791
	O357	O	0.480729	0.556342	0.668272
	H358	H	0.481121	0.561235	0.674649
	H359	H	0.475803	0.544597	0.664274
	O360	O	0.978847	0.102070	0.872729
	H361	H	0.978801	0.105614	0.865454
	H362	H	0.981259	0.107860	0.883076
	O363	O	0.545037	0.516544	0.542443
	H364	H	0.546432	0.522087	0.547108
	H365	H	0.552020	0.519018	0.545949
	O366	O	1.016839	1.004399	0.039133
	H367	H	1.009693	1.000154	0.050185
	H368	H	1.013715	0.999793	0.043661
	O369	O	0.917756	0.017459	0.002594
	H370	H	0.927296	0.025215	0.006992
	H371	H	0.921807	0.021928	-0.004295
	O372	O	0.597916	0.475647	0.559816
	H373	H	0.606000	0.471089	0.558713
	H374	H	0.591983	0.491279	0.555209
	O375	O	1.047094	-0.015369	0.901686
	H376	H	1.047834	-0.010538	0.918917
	H377	H	1.041955	-0.016665	0.902403
	O378	O	0.062015	1.004056	0.001911
	H379	H	0.068012	1.002855	0.001318
	H380	H	0.061197	0.994538	-0.006138
	O381	O	0.344436	0.540285	0.465954
	H382	H	0.335706	0.536803	0.464235
	H383	H	0.338754	0.530986	0.477486
	O384	O	1.171251	1.031247	-0.092849
	H385	H	1.182781	1.028827	-0.099587
	H386	H	1.177799	1.035176	-0.098041
	O387	O	1.035767	0.099048	1.026714
	H388	H	1.033010	0.103305	1.033840
	H389	H	1.034353	0.095886	1.026644
	O390	O	0.951899	1.083519	-0.086138
	H391	H	0.944728	1.078579	-0.100285
	H392	H	0.966607	1.091555	-0.074634
	O393	O	0.393206	0.405135	0.524389
	H394	H	0.396745	0.384387	0.533127
	H395	H	0.407623	0.407207	0.515375
