data_Molecule from HDF5

_cell_length_a		16.518479
_cell_length_b		16.368031
_cell_length_c		16.582688
_cell_angle_alpha	90.011148
_cell_angle_beta	90.151135
_cell_angle_gamma	89.838615
_symmetry_space_group_name_H-M	'P 1'
_symmetry_Int_Tables_number		1

loop_
	_symmetry_equiv_pos_as_xyz
	x,y,z

loop_
	_atom_site_label
	_atom_site_type_symbol
	_atom_site_fract_x
	_atom_site_fract_y
	_atom_site_fract_z
	H0	H	0.386018	0.850479	0.745970
	H1	H	0.601154	0.165518	0.745732
	H2	H	0.602950	0.850593	0.299079
	H3	H	0.389950	0.166472	0.302089
	H4	H	0.717244	0.399699	0.866089
	H5	H	0.718859	0.617608	0.177683
	H6	H	0.266326	0.619847	0.866644
	H7	H	0.271481	0.402965	0.178001
	H8	H	0.836231	0.733370	0.414756
	H9	H	0.151067	0.730420	0.628727
	H10	H	0.837535	0.283548	0.627984
	H11	H	0.149693	0.285850	0.416385
	H12	H	0.838811	0.396824	0.747285
	H13	H	0.149105	0.617451	0.747620
	H14	H	0.836025	0.619011	0.296459
	H15	H	0.146894	0.399419	0.297261
	H16	H	0.386821	0.732190	0.865095
	H17	H	0.598581	0.729301	0.179341
	H18	H	0.599826	0.285045	0.865524
	H19	H	0.392033	0.289718	0.179782
	H20	H	0.717997	0.850672	0.415214
	H21	H	0.716398	0.165660	0.629127
	H22	H	0.275580	0.848173	0.626347
	H23	H	0.274017	0.165941	0.418199
	H24	H	0.883298	0.350607	0.246133
	H25	H	0.098311	0.663927	0.244708
	H26	H	0.100946	0.348930	0.800113
	H27	H	0.885307	0.664403	0.797613
	H28	H	0.215129	0.903714	0.366440
	H29	H	0.219820	0.116489	0.678374
	H30	H	0.765577	0.121250	0.368486
	H31	H	0.770683	0.900843	0.678586
	H32	H	0.336684	0.231794	0.915806
	H33	H	0.653438	0.229019	0.126340
	H34	H	0.337678	0.787838	0.126345
	H35	H	0.651158	0.785092	0.915256
	H36	H	0.339196	0.903150	0.244022
	H37	H	0.651417	0.117116	0.246074
	H38	H	0.337334	0.118462	0.797309
	H39	H	0.648860	0.899194	0.796877
	H40	H	0.886614	0.231353	0.366083
	H41	H	0.100969	0.231094	0.678618
	H42	H	0.097408	0.787765	0.366105
	H43	H	0.889593	0.786853	0.679794
	H44	H	0.217244	0.350056	0.913518
	H45	H	0.214532	0.664605	0.128353
	H46	H	0.771873	0.348622	0.126966
	H47	H	0.770967	0.666177	0.915092
	H48	H	0.411149	0.120510	0.614497
	H49	H	0.573793	0.897917	0.612237
	H50	H	0.580220	0.120553	0.435814
	H51	H	0.405147	0.892752	0.431131
	H52	H	0.582625	0.425415	0.131639
	H53	H	0.583038	0.595462	0.910757
	H54	H	0.409240	0.593630	0.130259
	H55	H	0.409151	0.424231	0.912708
	H56	H	0.105527	0.600461	0.432726
	H57	H	0.882290	0.594303	0.612511
	H58	H	0.105486	0.421957	0.613657
	H59	H	0.879852	0.421313	0.431724
	H60	H	0.106224	0.417352	0.609978
	H61	H	0.881424	0.598064	0.610310
	H62	H	0.101803	0.593665	0.436310
	H63	H	0.880506	0.419347	0.435988
	H64	H	0.404505	0.604555	0.136228
	H65	H	0.581340	0.594120	0.911391
	H66	H	0.579198	0.416358	0.132771
	H67	H	0.405056	0.414268	0.907490
	H68	H	0.581739	0.120703	0.434419
	H69	H	0.581091	0.898867	0.600708
	H70	H	0.407099	0.118399	0.604362
	H71	H	0.407132	0.893899	0.431212
	H72	H	0.906437	0.619895	0.109823
	H73	H	0.080152	0.395953	0.104430
	H74	H	0.071594	0.617664	0.931741
	H75	H	0.901526	0.394464	0.935777
	H76	H	0.084952	0.915631	0.637521
	H77	H	0.080216	0.095891	0.412263
	H78	H	0.899683	0.093581	0.635235
	H79	H	0.903638	0.926661	0.412892
	H80	H	0.608149	0.098081	0.929942
	H81	H	0.380854	0.097513	0.117346
	H82	H	0.607532	0.917682	0.106225
	H83	H	0.381577	0.919772	0.932084
	H84	H	0.606663	0.924084	0.111765
	H85	H	0.382491	0.101787	0.109914
	H86	H	0.602943	0.096817	0.938948
	H87	H	0.383535	0.921302	0.937198
	H88	H	0.909068	0.088725	0.629930
	H89	H	0.085760	0.098834	0.409958
	H90	H	0.088678	0.922140	0.636248
	H91	H	0.909933	0.919774	0.412672
	H92	H	0.081261	0.618219	0.941962
	H93	H	0.085287	0.392021	0.111055
	H94	H	0.904736	0.619617	0.107729
	H95	H	0.905919	0.392711	0.929153
	H96	H	0.400506	0.122963	0.612074
	H97	H	0.586503	0.892674	0.611485
	H98	H	0.579874	0.120936	0.433774
	H99	H	0.405950	0.893167	0.432950
	H100	H	0.587601	0.418453	0.135464
	H101	H	0.580971	0.596402	0.910651
	H102	H	0.396966	0.593719	0.134138
	H103	H	0.397722	0.423349	0.909065
	H104	H	0.104648	0.593396	0.428484
	H105	H	0.883278	0.594983	0.607916
	H106	H	0.103720	0.422564	0.608478
	H107	H	0.881957	0.424048	0.435282
	H108	H	0.904713	0.620610	0.109954
	H109	H	0.076031	0.393903	0.112407
	H110	H	0.084205	0.624184	0.929400
	H111	H	0.908907	0.396672	0.935878
	H112	H	0.081671	0.921073	0.633244
	H113	H	0.086190	0.092265	0.411667
	H114	H	0.909336	0.100123	0.633372
	H115	H	0.901398	0.918369	0.408867
	H116	H	0.603795	0.089044	0.931654
	H117	H	0.384683	0.093400	0.110765
	H118	H	0.609193	0.917423	0.114555
	H119	H	0.383142	0.925013	0.932747
	C120	C	0.373561	0.016189	0.642973
	C121	C	0.614135	1.000182	0.642519
	C122	C	0.615465	0.016931	0.401013
	C123	C	0.373772	0.998765	0.400353
	C124	C	0.615853	0.386748	0.030105
	C125	C	0.615250	0.629137	1.013796
	C126	C	0.370744	0.630734	0.030066
	C127	C	0.372429	0.387980	1.013389
	C128	C	0.000705	0.630641	0.399379
	C129	C	0.985461	0.629153	0.643740
	C130	C	0.001985	0.386164	0.643537
	C131	C	0.983948	0.387345	0.400972
	C132	C	0.871550	0.515937	0.142463
	C133	C	0.113029	0.498279	0.142484
	C134	C	0.113728	0.515869	0.900765
	C135	C	0.872029	0.498886	0.900066
	C136	C	0.116068	0.887078	0.532020
	C137	C	0.116910	0.129398	0.514334
	C138	C	0.872105	0.129033	0.530280
	C139	C	0.872302	0.887172	0.514360
	C140	C	0.501888	0.129823	0.900166
	C141	C	0.486866	0.130277	0.144075
	C142	C	0.503836	0.887504	0.143365
	C143	C	0.485425	0.887280	0.900461
	C144	C	0.369560	0.897587	0.704795
	C145	C	0.618269	0.118382	0.704434
	C146	C	0.619956	0.898121	0.339812
	C147	C	0.371206	0.118412	0.341298
	C148	C	0.676727	0.382553	0.912812
	C149	C	0.677179	0.633704	0.131109
	C150	C	0.308186	0.635879	0.913205
	C151	C	0.312199	0.385006	0.131251
	C152	C	0.883389	0.693014	0.396402
	C153	C	0.103506	0.690311	0.647025
	C154	C	0.884531	0.323996	0.646499
	C155	C	0.102172	0.325926	0.398032
	C156	C	0.885147	0.380530	0.705623
	C157	C	0.102688	0.633756	0.706140
	C158	C	0.883323	0.635592	0.337676
	C159	C	0.100914	0.382473	0.338840
	C160	C	0.368073	0.692196	0.912459
	C161	C	0.617305	0.689730	0.131952
	C162	C	0.618260	0.325338	0.912577
	C163	C	0.371831	0.328303	0.131997
	C164	C	0.677165	0.898123	0.397737
	C165	C	0.676032	0.118367	0.646899
	C166	C	0.314356	0.896239	0.645223
	C167	C	0.313714	0.118175	0.399102
	C168	C	0.866837	0.397572	0.204934
	C169	C	0.116415	0.617006	0.204009
	C170	C	0.118125	0.396879	0.839847
	C171	C	0.867508	0.617058	0.838025
	C172	C	0.175377	0.884705	0.413478
	C173	C	0.178599	0.133596	0.631462
	C174	C	0.808001	0.136432	0.414548
	C175	C	0.811314	0.883307	0.631710
	C176	C	0.383910	0.191906	0.897332
	C177	C	0.605584	0.189842	0.145121
	C178	C	0.385274	0.827496	0.145236
	C179	C	0.603596	0.825392	0.897214
	C180	C	0.385960	0.884693	0.203869
	C181	C	0.604613	0.134008	0.204900
	C182	C	0.384512	0.135315	0.838261
	C183	C	0.602622	0.882241	0.838171
	C184	C	0.868627	0.191151	0.413202
	C185	C	0.119462	0.190840	0.631639
	C186	C	0.116825	0.827348	0.413513
	C187	C	0.870525	0.826368	0.632243
	C188	C	0.176153	0.397451	0.896726
	C189	C	0.173996	0.617000	0.145979
	C190	C	0.811341	0.396595	0.145498
	C191	C	0.810754	0.617938	0.896623
	C192	C	0.398985	0.099088	0.617563
	C193	C	0.587832	0.917748	0.615938
	C194	C	0.588440	0.099262	0.427107
	C195	C	0.398998	0.915149	0.424921
	C196	C	0.590397	0.412718	0.112045
	C197	C	0.589203	0.602810	0.932188
	C198	C	0.396183	0.604701	0.112068
	C199	C	0.396866	0.413367	0.931107
	C200	C	0.082631	0.603528	0.425194
	C201	C	0.903796	0.603265	0.617736
	C202	C	0.083708	0.412939	0.618149
	C203	C	0.902147	0.413994	0.426809
	C204	C	0.897852	0.598340	0.116536
	C205	C	0.087426	0.415576	0.116826
	C206	C	0.086830	0.598359	0.926773
	C207	C	0.898137	0.416139	0.926111
	C208	C	0.091916	0.912331	0.614111
	C209	C	0.091305	0.103265	0.432587
	C210	C	0.898673	0.101880	0.611687
	C211	C	0.897803	0.913942	0.432682
	C212	C	0.583770	0.102640	0.926128
	C213	C	0.403984	0.104811	0.119361
	C214	C	0.586191	0.912612	0.118110
	C215	C	0.404150	0.914237	0.926563
	Zn216	Zn	0.493481	0.008578	0.771196
	Zn217	Zn	0.495485	0.008677	0.272532
	Zn218	Zn	0.744363	0.508011	0.021673
	Zn219	Zn	0.241726	0.508173	0.021291
	Zn220	Zn	-0.006425	0.758352	0.522681
	Zn221	Zn	-0.006364	0.257790	0.522090
	Zn222	Zn	-0.006036	0.507143	0.772243
	Zn223	Zn	-0.008379	0.507408	0.271094
	Zn224	Zn	0.494338	0.758545	0.021846
	Zn225	Zn	0.494241	0.257952	0.022033
	Zn226	Zn	0.742976	0.008666	0.522415
	Zn227	Zn	0.246040	0.007337	0.522852
	N228	N	0.405356	0.973375	0.703748
	N229	N	0.580508	0.043762	0.701941
	N230	N	0.582532	0.973185	0.341638
	N231	N	0.407637	0.042830	0.341637
	N232	N	0.675302	0.419998	0.986983
	N233	N	0.676132	0.596829	0.056576
	N234	N	0.309435	0.598602	0.987525
	N235	N	0.312174	0.420873	0.056365
	N236	N	0.957558	0.690052	0.433965
	N237	N	0.029738	0.687569	0.608815
	N238	N	0.958294	0.327306	0.608717
	N239	N	0.028457	0.328777	0.436052
	N240	N	0.959272	0.418455	0.703830
	N241	N	0.028301	0.596393	0.704461
	N242	N	0.957439	0.597352	0.339361
	N243	N	0.026402	0.419779	0.340532
	N244	N	0.406104	0.689247	0.986157
	N245	N	0.579507	0.686993	0.058098
	N246	N	0.580941	0.327933	0.986451
	N247	N	0.408326	0.329788	0.057609
	N248	N	0.674617	0.973021	0.434945
	N249	N	0.673484	0.043786	0.609116
	N250	N	0.316803	0.970887	0.607415
	N251	N	0.315117	0.042595	0.435001
	N252	N	0.903437	0.472984	0.203337
	N253	N	0.079226	0.542161	0.202075
	N254	N	0.079755	0.471652	0.842365
	N255	N	0.904673	0.541941	0.839912
	N256	N	0.175363	0.920677	0.488188
	N257	N	0.177179	0.096302	0.557320
	N258	N	0.810320	0.098234	0.488270
	N259	N	0.812261	0.920268	0.557175
	N260	N	0.458001	0.188708	0.935072
	N261	N	0.530977	0.187637	0.108096
	N262	N	0.459671	0.828822	0.108505
	N263	N	0.529769	0.828252	0.935178
	N264	N	0.460872	0.920935	0.202910
	N265	N	0.529748	0.097654	0.204355
	N266	N	0.458865	0.097488	0.839839
	N267	N	0.528188	0.919765	0.839702
	N268	N	0.907970	0.186648	0.486202
	N269	N	0.081681	0.188387	0.557868
	N270	N	0.081000	0.828341	0.488124
	N271	N	0.907388	0.828648	0.558097
	N272	N	0.173601	0.472458	0.933615
	N273	N	0.171917	0.542309	0.108445
	N274	N	0.813917	0.471210	0.107767
	N275	N	0.813429	0.543313	0.934500
	O276	O	0.459124	0.634536	0.732213
	H277	H	0.466654	0.648986	0.728907
	H278	H	0.466006	0.630929	0.741791
	O279	O	0.610638	0.643794	0.426259
	H280	H	0.591694	0.632513	0.399908
	H281	H	0.593625	0.630042	0.437153
	O282	O	1.204843	0.992945	-0.188095
	H283	H	1.210239	1.009806	-0.177559
	H284	H	1.225311	0.968380	-0.201094
	O285	O	0.290915	0.712864	0.317730
	H286	H	0.309541	0.707313	0.318640
	H287	H	0.290643	0.703663	0.317647
	O288	O	0.199212	0.035248	0.228605
	H289	H	0.206180	0.025084	0.207644
	H290	H	0.199671	0.019952	0.243477
	O291	O	0.551441	0.357974	0.449728
	H292	H	0.533281	0.361093	0.469420
	H293	H	0.554511	0.371903	0.457124
	O294	O	0.192052	1.205198	0.217075
	H295	H	0.217728	1.230316	0.236546
	H296	H	0.199044	1.159201	0.220403
	O297	O	1.168626	0.102866	-0.025115
	H298	H	1.184481	0.098573	-0.002719
	H299	H	1.156431	0.102377	0.004196
	O300	O	0.284392	0.479278	0.478690
	H301	H	0.279233	0.497626	0.501600
	H302	H	0.293679	0.474080	0.492965
	O303	O	0.789817	1.052385	0.080517
	H304	H	0.795369	1.067314	0.081280
	H305	H	0.795907	1.055905	0.071758
	O306	O	0.504411	0.524043	1.437193
	H307	H	0.508581	0.533685	1.437619
	H308	H	0.504718	0.531449	1.431598
	O309	O	0.652756	0.305517	0.522284
	H310	H	0.630175	0.291176	0.528970
	H311	H	0.663574	0.298398	0.520949
	O312	O	0.302466	0.343505	0.350741
	H313	H	0.310371	0.362887	0.377520
	H314	H	0.312972	0.366794	0.353402
	O315	O	-0.159131	-0.128108	0.844653
	H316	H	-0.160414	-0.113970	0.862489
	H317	H	-0.163070	-0.127574	0.838461
	O318	O	-0.023645	1.090088	-0.150590
	H319	H	-0.016201	1.098562	-0.130526
	H320	H	-0.017981	1.092184	-0.158876
	O321	O	0.310751	0.329350	0.702112
	H322	H	0.299740	0.345461	0.680153
	H323	H	0.360629	0.320540	0.713002
	O324	O	0.926224	0.028115	0.930083
	H325	H	0.925935	0.037280	0.944485
	H326	H	0.935039	0.010502	0.937374
	O327	O	0.809231	-0.174579	1.202374
	H328	H	0.798661	-0.121181	1.214398
	H329	H	0.849495	-0.183616	1.200207
	O330	O	0.713568	0.491329	-0.691035
	H331	H	0.737959	0.489549	-0.718811
	H332	H	0.712039	0.485446	-0.676494
	O333	O	0.949695	1.128505	1.083501
	H334	H	0.961849	1.121707	1.100078
	H335	H	0.933966	1.131092	1.074535
	O336	O	1.180253	-0.169917	0.838304
	H337	H	1.176968	-0.152272	0.849092
	H338	H	1.141194	-0.175820	0.833927
	O339	O	0.022386	0.217857	0.229441
	H340	H	0.053332	0.221379	0.228311
	H341	H	0.032630	0.232680	0.242845
	O342	O	0.550599	0.452405	0.742310
	H343	H	0.560460	0.467716	0.734982
	H344	H	0.571480	0.467747	0.742390
	O345	O	0.215895	0.227353	0.051401
	H346	H	0.221141	0.246743	0.057888
	H347	H	0.225853	0.241451	0.078261
	O348	O	1.020561	-0.199669	0.812190
	H349	H	1.001790	-0.214048	0.807370
	H350	H	1.002438	-0.192948	0.809810
	O351	O	0.937566	1.045998	-0.056095
	H352	H	0.932643	1.039222	-0.053757
	H353	H	0.937205	1.050384	-0.058886
	O354	O	0.470553	0.559232	0.521789
	H355	H	0.480029	0.555717	0.535889
	H356	H	0.472065	0.557315	0.517230
	O357	O	0.933835	1.076010	1.240777
	H358	H	0.943261	1.103631	1.231242
	H359	H	0.947696	1.080740	1.241725
	O360	O	1.050328	0.173159	-0.007088
	H361	H	1.043630	0.174982	0.000820
	H362	H	1.060861	0.156431	-0.002783
	O363	O	1.089806	0.036371	1.009227
	H364	H	1.082806	0.029871	0.981669
	H365	H	1.094877	0.048934	1.018016
	O366	O	1.463694	0.715732	0.311406
	H367	H	1.457717	0.747528	0.285634
	H368	H	1.474965	0.694840	0.321504
	O369	O	0.279451	0.296646	0.543712
	H370	H	0.271035	0.299206	0.556285
	H371	H	0.271285	0.286721	0.537394
	O372	O	0.498716	0.716503	0.534075
	H373	H	0.504897	0.722740	0.562366
	H374	H	0.500296	0.705588	0.530890
	O375	O	0.181267	0.823878	1.210194
	H376	H	0.182629	0.819378	1.212284
	H377	H	0.174048	0.839695	1.204125
	O378	O	1.167111	-0.039810	0.057430
	H379	H	1.170818	-0.052891	0.048093
	H380	H	1.158387	-0.041154	0.044968
	O381	O	0.795994	0.201724	-0.172513
	H382	H	0.804099	0.181323	-0.164247
	H383	H	0.823891	0.187644	-0.171635
	O384	O	-0.066296	-0.210870	0.968447
	H385	H	-0.103519	-0.211526	0.983311
	H386	H	-0.065554	-0.205589	0.954284
	O387	O	-0.289985	1.533591	0.741921
	H388	H	-0.253384	1.535023	0.767586
	H389	H	-0.288226	1.546384	0.715432
	O390	O	-0.031204	-0.198000	1.234338
	H391	H	-0.026666	-0.195941	1.239911
	H392	H	-0.021655	-0.216401	1.232213
	O393	O	0.826772	1.145373	0.024608
	H394	H	0.829945	1.136282	0.000872
	H395	H	0.823012	1.163892	0.013910
	O396	O	0.274707	0.720501	0.493464
	H397	H	0.253858	0.739515	0.486815
	H398	H	0.285375	0.727320	0.483229
	O399	O	-0.215475	-0.014084	0.229916
	H400	H	-0.207570	0.006492	0.248400
	H401	H	-0.214753	0.001401	0.243369
	O402	O	0.042987	-0.048837	1.239978
	H403	H	0.033971	-0.043501	1.240747
	H404	H	0.044774	-0.047173	1.243026
	O405	O	0.272034	-0.496275	0.718687
	H406	H	0.240673	-0.499374	0.751738
	H407	H	0.296194	-0.509108	0.713426
	O408	O	0.471317	0.297964	0.734590
	H409	H	0.490166	0.318771	0.744176
	H410	H	0.476459	0.279803	0.746687
	O411	O	0.479822	0.662965	0.741141
	H412	H	0.482316	0.658368	0.742577
	H413	H	0.495364	0.672649	0.758980
	O414	O	0.667262	0.329194	0.388313
	H415	H	0.669128	0.331353	0.423472
	H416	H	0.659245	0.342059	0.390433
	O417	O	0.279215	0.537205	0.312349
	H418	H	0.273887	0.541396	0.302743
	H419	H	0.266076	0.534890	0.323448
	O420	O	0.711647	0.726174	0.553512
	H421	H	0.713098	0.719666	0.529357
	H422	H	0.727421	0.753001	0.543215
	O423	O	-0.222044	0.794423	0.044749
	H424	H	-0.230217	0.788703	0.074447
	H425	H	-0.241766	0.787075	0.052283
	O426	O	0.451517	1.430072	0.337339
	H427	H	0.445826	1.429729	0.332294
	H428	H	0.453477	1.428450	0.349466
	O429	O	0.302474	0.552307	-0.398548
	H430	H	0.298403	0.555378	-0.374071
	H431	H	0.307556	0.563562	-0.388398
	O432	O	0.703456	0.389333	0.650157
	H433	H	0.718712	0.355585	0.653514
	H434	H	0.688913	0.411365	0.640545
	O435	O	-0.213250	0.025875	-0.178809
	H436	H	-0.223908	0.026244	-0.171979
	H437	H	-0.199556	0.019287	-0.187966
	O438	O	0.981740	0.077699	-0.144340
	H439	H	0.990475	0.080452	-0.145435
	H440	H	0.986189	0.095555	-0.146484
	O441	O	0.459303	0.568241	0.531827
	H442	H	0.446719	0.574850	0.517036
	H443	H	0.454846	0.563441	0.543387
	O444	O	0.057179	0.786437	1.072575
	H445	H	0.049767	0.791256	1.055481
	H446	H	0.056123	0.783860	1.079119
	O447	O	0.701068	0.531592	-0.499571
	H448	H	0.695973	0.531502	-0.502210
	H449	H	0.690019	0.523339	-0.495027
	O450	O	0.678922	0.694206	0.713284
	H451	H	0.662571	0.671386	0.722403
	H452	H	0.690542	0.705169	0.660094
	O453	O	0.519998	0.300683	0.545435
	H454	H	0.493208	0.304060	0.535529
	H455	H	0.519766	0.307382	0.557422
	O456	O	0.911005	1.176647	-0.090689
	H457	H	0.934359	1.167529	-0.072838
	H458	H	0.916793	1.184029	-0.096794
	O459	O	0.515231	0.301111	0.313291
	H460	H	0.520479	0.285558	0.302514
	H461	H	0.532086	0.307720	0.317267
	O462	O	0.573259	0.532458	0.388617
	H463	H	0.570083	0.532474	0.397385
	H464	H	0.589010	0.517282	0.391124
	O465	O	1.212606	-0.208354	-0.004320
	H466	H	1.245293	-0.248770	-0.008865
	H467	H	1.183311	-0.208715	-0.023784
