data_Molecule from HDF5

_cell_length_a		16.357715
_cell_length_b		16.285294
_cell_length_c		16.095325
_cell_angle_alpha	90.411992
_cell_angle_beta	89.204095
_cell_angle_gamma	90.235881
_symmetry_space_group_name_H-M	'P 1'
_symmetry_Int_Tables_number		1

loop_
	_symmetry_equiv_pos_as_xyz
	x,y,z

loop_
	_atom_site_label
	_atom_site_type_symbol
	_atom_site_fract_x
	_atom_site_fract_y
	_atom_site_fract_z
	H0	H	0.392825	0.840908	0.711079
	H1	H	0.587659	0.169497	0.709420
	H2	H	0.593244	0.842252	0.277709
	H3	H	0.398549	0.168905	0.286884
	H4	H	0.711680	0.403044	0.833522
	H5	H	0.703043	0.605891	0.162842
	H6	H	0.279554	0.603728	0.832428
	H7	H	0.272018	0.401709	0.159794
	H8	H	0.830259	0.720255	0.398284
	H9	H	0.153256	0.724609	0.599462
	H10	H	0.830176	0.287136	0.600850
	H11	H	0.153281	0.287336	0.391394
	H12	H	0.829541	0.405872	0.714565
	H13	H	0.155596	0.603781	0.709780
	H14	H	0.827444	0.600243	0.287947
	H15	H	0.152296	0.403026	0.277118
	H16	H	0.395657	0.717877	0.831978
	H17	H	0.591493	0.721756	0.160733
	H18	H	0.594134	0.290213	0.831329
	H19	H	0.390633	0.290773	0.161500
	H20	H	0.712619	0.842988	0.389396
	H21	H	0.708982	0.167696	0.597925
	H22	H	0.271372	0.843152	0.601165
	H23	H	0.278411	0.167191	0.398025
	H24	H	0.890620	0.340390	0.211658
	H25	H	0.087517	0.668294	0.211806
	H26	H	0.091554	0.341000	0.779040
	H27	H	0.896853	0.669066	0.786600
	H28	H	0.211281	0.900449	0.333253
	H29	H	0.205084	0.106111	0.661153
	H30	H	0.781639	0.104282	0.331445
	H31	H	0.772537	0.905215	0.660313
	H32	H	0.332783	0.221463	0.895278
	H33	H	0.654383	0.224663	0.096018
	H34	H	0.332093	0.784867	0.103174
	H35	H	0.655824	0.787131	0.890731
	H36	H	0.331610	0.903684	0.217148
	H37	H	0.657316	0.105041	0.208788
	H38	H	0.330235	0.103065	0.785694
	H39	H	0.655245	0.905748	0.776595
	H40	H	0.894017	0.218489	0.332611
	H41	H	0.090452	0.221294	0.660411
	H42	H	0.094443	0.786866	0.333553
	H43	H	0.889993	0.792675	0.662938
	H44	H	0.212011	0.342387	0.889680
	H45	H	0.209779	0.666137	0.100791
	H46	H	0.771670	0.342812	0.099783
	H47	H	0.777859	0.667561	0.899476
	H48	H	0.393105	0.123401	0.596558
	H49	H	0.584483	0.887343	0.591985
	H50	H	0.592093	0.124137	0.400441
	H51	H	0.406820	0.885895	0.395416
	H52	H	0.594792	0.427152	0.114813
	H53	H	0.585282	0.597383	0.879307
	H54	H	0.398912	0.596627	0.114344
	H55	H	0.401231	0.420139	0.881729
	H56	H	0.107406	0.600057	0.407341
	H57	H	0.876899	0.587838	0.600439
	H58	H	0.106527	0.413901	0.586413
	H59	H	0.876073	0.403935	0.415080
	H60	H	0.109366	0.410923	0.588343
	H61	H	0.871827	0.608748	0.597014
	H62	H	0.104860	0.592451	0.409431
	H63	H	0.877014	0.418787	0.406931
	H64	H	0.398806	0.593990	0.114182
	H65	H	0.590485	0.595983	0.877647
	H66	H	0.564014	0.420456	0.106702
	H67	H	0.410440	0.407906	0.879988
	H68	H	0.583745	0.120219	0.403515
	H69	H	0.577058	0.892199	0.582559
	H70	H	0.404201	0.119996	0.592974
	H71	H	0.410083	0.894683	0.416664
	H72	H	0.886901	0.627588	0.103994
	H73	H	0.086599	0.387677	0.084877
	H74	H	0.087315	0.619280	0.907911
	H75	H	0.899115	0.389376	0.908487
	H76	H	0.082786	0.917366	0.614073
	H77	H	0.086939	0.095140	0.378509
	H78	H	0.896795	0.103867	0.617799
	H79	H	0.898122	0.905690	0.376516
	H80	H	0.610399	0.097035	0.900378
	H81	H	0.374905	0.103327	0.094795
	H82	H	0.606277	0.917496	0.082707
	H83	H	0.382520	0.920135	0.913222
	H84	H	0.609269	0.913278	0.088916
	H85	H	0.378356	0.098130	0.085234
	H86	H	0.610326	0.100816	0.903783
	H87	H	0.374579	0.910807	0.894095
	H88	H	0.894060	0.088701	0.614812
	H89	H	0.087444	0.095502	0.378326
	H90	H	0.079052	0.915301	0.614186
	H91	H	0.900911	0.917459	0.381224
	H92	H	0.088924	0.621153	0.905482
	H93	H	0.080270	0.388538	0.088795
	H94	H	0.911643	0.618010	0.096214
	H95	H	0.898164	0.387425	0.905418
	H96	H	0.394588	0.120248	0.585078
	H97	H	0.589554	0.888472	0.579791
	H98	H	0.591507	0.119721	0.409440
	H99	H	0.388670	0.886384	0.411402
	H100	H	0.582652	0.397400	0.120253
	H101	H	0.586139	0.592546	0.880598
	H102	H	0.401172	0.594932	0.113492
	H103	H	0.395708	0.406481	0.874236
	H104	H	0.107994	0.593964	0.401292
	H105	H	0.880319	0.596644	0.580589
	H106	H	0.107835	0.410222	0.584769
	H107	H	0.871114	0.404135	0.398512
	H108	H	0.892029	0.618602	0.078605
	H109	H	0.081060	0.390271	0.081496
	H110	H	0.085815	0.620027	0.904772
	H111	H	0.901750	0.388325	0.905628
	H112	H	0.082786	0.913059	0.615296
	H113	H	0.087194	0.095181	0.377987
	H114	H	0.907789	0.095440	0.611387
	H115	H	0.909936	0.908556	0.380401
	H116	H	0.608325	0.096077	0.905306
	H117	H	0.378332	0.092043	0.095073
	H118	H	0.608345	0.909770	0.081238
	H119	H	0.376376	0.898462	0.912539
	C120	C	0.368506	0.013614	0.620610
	C121	C	0.613074	0.996993	0.615984
	C122	C	0.617829	0.013972	0.372772
	C123	C	0.373115	0.996314	0.378059
	C124	C	0.612789	0.384152	0.005423
	C125	C	0.614429	0.625997	0.988186
	C126	C	0.371751	0.624754	0.005534
	C127	C	0.370884	0.382017	0.987256
	C128	C	-0.000312	0.624439	0.377556
	C129	C	0.983475	0.627556	0.620760
	C130	C	0.000718	0.382507	0.618218
	C131	C	0.982227	0.380592	0.374892
	C132	C	0.867479	0.513266	0.121063
	C133	C	0.112349	0.495897	0.117410
	C134	C	0.116125	0.512710	0.874638
	C135	C	0.871586	0.496387	0.877672
	C136	C	0.113170	0.883525	0.506241
	C137	C	0.114433	0.125661	0.487362
	C138	C	0.871807	0.125019	0.505531
	C139	C	0.871136	0.882682	0.488182
	C140	C	0.502014	0.126199	0.875615
	C141	C	0.484683	0.127587	0.119352
	C142	C	0.501582	0.882880	0.117638
	C143	C	0.484912	0.881074	0.874395
	C144	C	0.371408	0.890356	0.674776
	C145	C	0.609714	0.120109	0.672389
	C146	C	0.614650	0.891238	0.315671
	C147	C	0.377144	0.119688	0.323786
	C148	C	0.672035	0.383921	0.882230
	C149	C	0.667267	0.625644	0.112783
	C150	C	0.316949	0.623655	0.881848
	C151	C	0.311769	0.382892	0.110936
	C152	C	0.877974	0.680760	0.379542
	C153	C	0.105234	0.685095	0.618999
	C154	C	0.878833	0.325936	0.619335
	C155	C	0.104369	0.325207	0.373102
	C156	C	0.878553	0.384849	0.676313
	C157	C	0.106389	0.625259	0.674030
	C158	C	0.876836	0.621246	0.324052
	C159	C	0.103896	0.382680	0.315993
	C160	C	0.375021	0.680073	0.881510
	C161	C	0.611628	0.683126	0.111995
	C162	C	0.613630	0.327666	0.881203
	C163	C	0.370558	0.327300	0.111679
	C164	C	0.673756	0.891577	0.371398
	C165	C	0.669830	0.119261	0.616603
	C166	C	0.311212	0.891314	0.619936
	C167	C	0.317093	0.118750	0.378951
	C168	C	0.870211	0.389716	0.174506
	C169	C	0.109605	0.618721	0.174771
	C170	C	0.112972	0.389894	0.817215
	C171	C	0.875604	0.619863	0.823628
	C172	C	0.172063	0.882009	0.382640
	C173	C	0.167604	0.125639	0.611879
	C174	C	0.818162	0.123645	0.381069
	C175	C	0.811968	0.884961	0.611527
	C176	C	0.380632	0.182747	0.876760
	C177	C	0.606430	0.185185	0.116257
	C178	C	0.380299	0.824372	0.120901
	C179	C	0.607064	0.825326	0.872362
	C180	C	0.380027	0.883487	0.177696
	C181	C	0.607677	0.125981	0.172522
	C182	C	0.379320	0.123293	0.822343
	C183	C	0.607035	0.884329	0.815644
	C184	C	0.874266	0.180460	0.381480
	C185	C	0.110635	0.182777	0.611341
	C186	C	0.113826	0.825498	0.382602
	C187	C	0.870297	0.828944	0.612867
	C188	C	0.172888	0.390700	0.872158
	C189	C	0.170280	0.617693	0.119222
	C190	C	0.810496	0.390996	0.119297
	C191	C	0.816285	0.619089	0.879770
	C192	C	0.390763	0.099017	0.598256
	C193	C	0.590229	0.911417	0.591837
	C194	C	0.595741	0.099257	0.397318
	C195	C	0.395414	0.911107	0.401050
	C196	C	0.587758	0.408022	0.091703
	C197	C	0.593472	0.602270	0.901497
	C198	C	0.393324	0.601923	0.091640
	C199	C	0.395245	0.404871	0.901105
	C200	C	0.084671	0.601954	0.399487
	C201	C	0.898431	0.604561	0.599112
	C202	C	0.086051	0.405118	0.593598
	C203	C	0.896856	0.402504	0.399657
	C204	C	0.890101	0.599129	0.099239
	C205	C	0.089173	0.410847	0.092442
	C206	C	0.093954	0.598061	0.899040
	C207	C	0.893383	0.410599	0.900009
	C208	C	0.088637	0.908199	0.592146
	C209	C	0.093558	0.101969	0.400926
	C210	C	0.893105	0.102613	0.592081
	C211	C	0.895705	0.904262	0.401834
	C212	C	0.587590	0.104294	0.896895
	C213	C	0.399280	0.104455	0.097983
	C214	C	0.585951	0.906584	0.091689
	C215	C	0.400006	0.902981	0.899314
	Zn216	Zn	0.492278	0.005091	0.747051
	Zn217	Zn	0.493865	0.005141	0.247306
	Zn218	Zn	0.740737	0.505544	-0.001880
	Zn219	Zn	0.243752	0.503554	-0.003443
	Zn220	Zn	-0.007909	0.755066	0.498217
	Zn221	Zn	-0.008032	0.252489	0.496277
	Zn222	Zn	-0.007154	0.504660	0.747593
	Zn223	Zn	-0.009515	0.503306	0.247436
	Zn224	Zn	0.493824	0.752253	-0.003235
	Zn225	Zn	0.492472	0.255149	-0.003562
	Zn226	Zn	0.744191	0.004820	0.495470
	Zn227	Zn	0.241651	0.004528	0.497523
	N228	N	0.406055	0.967389	0.675707
	N229	N	0.575183	0.042945	0.672186
	N230	N	0.580749	0.968272	0.316243
	N231	N	0.411177	0.042669	0.323038
	N232	N	0.671731	0.418249	0.960524
	N233	N	0.669312	0.590986	0.034583
	N234	N	0.314972	0.589747	0.959859
	N235	N	0.311744	0.415931	0.032429
	N236	N	0.955316	0.682999	0.412173
	N237	N	0.027823	0.686646	0.586764
	N238	N	0.955864	0.324429	0.583823
	N239	N	0.027487	0.323840	0.409013
	N240	N	0.955456	0.419287	0.675596
	N241	N	0.029846	0.589874	0.675046
	N242	N	0.953438	0.586540	0.322786
	N243	N	0.026987	0.416312	0.316968
	N244	N	0.408222	0.681101	0.959492
	N245	N	0.579638	0.683528	0.033454
	N246	N	0.577425	0.327758	0.958981
	N247	N	0.406645	0.326763	0.033953
	N248	N	0.675779	0.968913	0.406356
	N249	N	0.671885	0.041637	0.582163
	N250	N	0.308992	0.968965	0.587152
	N251	N	0.314346	0.040929	0.411766
	N252	N	0.904713	0.466735	0.175846
	N253	N	0.074304	0.541740	0.173818
	N254	N	0.078466	0.466782	0.818338
	N255	N	0.909257	0.542504	0.822288
	N256	N	0.171680	0.917580	0.460602
	N257	N	0.170199	0.090900	0.533899
	N258	N	0.816568	0.089682	0.459089
	N259	N	0.812229	0.917570	0.533015
	N260	N	0.457972	0.184543	0.909259
	N261	N	0.528761	0.186509	0.084260
	N262	N	0.456637	0.823971	0.084181
	N263	N	0.530242	0.823304	0.908391
	N264	N	0.456366	0.919283	0.175709
	N265	N	0.531115	0.090722	0.174370
	N266	N	0.455962	0.088880	0.821377
	N267	N	0.530245	0.918403	0.816689
	N268	N	0.907060	0.181499	0.459791
	N269	N	0.078434	0.183193	0.532868
	N270	N	0.078020	0.826282	0.460329
	N271	N	0.906439	0.827380	0.535109
	N272	N	0.175138	0.468164	0.906968
	N273	N	0.172090	0.540348	0.084336
	N274	N	0.808861	0.468818	0.086535
	N275	N	0.813471	0.541235	0.912509
	O276	O	1.064473	-0.080068	0.981870
	H277	H	1.067218	-0.081752	0.981608
	H278	H	1.048934	-0.073106	0.981492
	O279	O	0.521890	0.500285	0.511348
	H280	H	0.524244	0.514763	0.514822
	H281	H	0.526324	0.510631	0.514192
	O282	O	0.472051	0.505184	0.420382
	H283	H	0.474008	0.509636	0.410278
	H284	H	0.472225	0.501666	0.430522
	O285	O	0.490908	0.438136	0.534706
	H286	H	0.495775	0.442164	0.526208
	H287	H	0.498322	0.435412	0.546107
	O288	O	0.593689	0.526842	0.511559
	H289	H	0.601177	0.523969	0.510660
	H290	H	0.585544	0.547009	0.500049
	O291	O	0.011152	0.023439	1.050888
	H292	H	0.006781	0.036751	1.066588
	H293	H	0.009745	0.017045	1.058141
	O294	O	1.085737	0.948353	0.024635
	H295	H	1.073608	0.947557	0.022997
	H296	H	1.088704	0.954042	0.016450
	O297	O	1.071363	0.938026	0.057181
	H298	H	1.072592	0.940651	0.043598
	H299	H	1.078357	0.949178	0.046976
	O300	O	0.520269	0.562610	0.545739
	H301	H	0.516274	0.563019	0.556287
	H302	H	0.502794	0.567249	0.537548
	O303	O	1.024739	0.107442	1.009404
	H304	H	1.021888	0.110099	1.023133
	H305	H	1.020557	0.129473	1.014975
	O306	O	0.533697	0.542887	0.584756
	H307	H	0.532007	0.552030	0.583898
	H308	H	0.533855	0.553947	0.590312
	O309	O	0.538078	0.639938	0.496676
	H310	H	0.527857	0.638163	0.499370
	H311	H	0.545545	0.639603	0.499750
	O312	O	1.060207	0.945457	0.942249
	H313	H	1.071699	0.936806	0.938374
	H314	H	1.046615	0.954819	0.938114
	O315	O	1.044594	1.157182	0.067148
	H316	H	1.045548	1.154259	0.057405
	H317	H	1.048928	1.146712	0.072489
	O318	O	0.358792	0.439551	0.504712
	H319	H	0.370633	0.435262	0.491899
	H320	H	0.348650	0.431041	0.510966
	O321	O	0.584680	0.348618	0.446348
	H322	H	0.599326	0.337865	0.442523
	H323	H	0.576391	0.350698	0.430381
	O324	O	-0.097373	0.863657	1.040585
	H325	H	-0.103536	0.844590	1.033849
	H326	H	-0.084910	0.860464	1.029897
	O327	O	0.146324	0.975404	0.895946
	H328	H	0.155324	0.990836	0.878483
	H329	H	0.149298	0.969018	0.891137
	O330	O	-0.065233	0.029829	0.071912
	H331	H	-0.066232	0.016641	0.076418
	H332	H	-0.066730	0.028121	0.079278
	O333	O	0.533388	0.641606	0.469920
	H334	H	0.524947	0.642867	0.469183
	H335	H	0.530660	0.634991	0.463105
	O336	O	-0.126628	0.059817	-0.088153
	H337	H	-0.129912	0.064447	-0.080988
	H338	H	-0.134837	0.055124	-0.094727
	O339	O	-0.154020	-0.060243	-0.015230
	H340	H	-0.152996	-0.070141	-0.015294
	H341	H	-0.149662	-0.056399	-0.020898
	O342	O	0.490366	0.474957	0.356238
	H343	H	0.482135	0.465621	0.346806
	H344	H	0.479754	0.478349	0.359423
	O345	O	-0.011608	1.062961	0.902485
	H346	H	-0.014020	1.067298	0.889236
	H347	H	-0.027916	1.052717	0.915570
	O348	O	0.359793	0.567473	0.382073
	H349	H	0.353967	0.567372	0.394097
	H350	H	0.359314	0.570660	0.388228
	O351	O	0.556093	0.449887	0.415271
	H352	H	0.553655	0.461557	0.415013
	H353	H	0.567615	0.450228	0.419849
	O354	O	-0.108529	1.045650	-0.002074
	H355	H	-0.103121	1.032794	0.004469
	H356	H	-0.109953	1.059766	-0.011863
	O357	O	0.495967	0.622727	0.518439
	H358	H	0.488738	0.626204	0.535479
	H359	H	0.502657	0.621617	0.516561
	O360	O	1.045383	-0.016256	1.054876
	H361	H	1.064810	-0.001514	1.072344
	H362	H	1.051750	-0.029491	1.066190
	O363	O	0.516171	0.485051	0.604351
	H364	H	0.514357	0.487721	0.611031
	H365	H	0.527098	0.488142	0.591169
	O366	O	0.456392	0.492226	0.561607
	H367	H	0.459949	0.479622	0.565585
	H368	H	0.460526	0.487980	0.565384
	O369	O	0.998308	-0.006126	-0.040855
	H370	H	1.003075	-0.021165	-0.040288
	H371	H	0.994306	-0.006992	-0.048751
	O372	O	0.402850	0.568906	0.415918
	H373	H	0.395184	0.569641	0.409578
	H374	H	0.403140	0.559083	0.427741
	O375	O	0.986482	-0.113932	0.836117
	H376	H	0.992843	-0.100494	0.832093
	H377	H	1.002884	-0.114217	0.829348
	O378	O	0.107696	1.023800	0.061912
	H379	H	0.103603	1.012171	0.067851
	H380	H	0.115745	1.022884	0.065114
	O381	O	0.444024	0.392807	0.575489
	H382	H	0.449520	0.394677	0.567466
	H383	H	0.463203	0.385388	0.564030
	O384	O	0.862311	1.021770	0.022505
	H385	H	0.854869	1.028907	0.039705
	H386	H	0.857911	1.013527	0.013349
	O387	O	1.011839	0.047530	1.035526
	H388	H	1.012650	0.050013	1.049268
	H389	H	1.004102	0.042342	1.027627
	O390	O	1.057817	1.018500	0.057264
	H391	H	1.058070	1.032358	0.063528
	H392	H	1.065143	1.012931	0.049160
	O393	O	0.413626	0.536996	0.667715
	H394	H	0.399711	0.541056	0.670001
	H395	H	0.424957	0.504372	0.669052
