data_Molecule from HDF5

_cell_length_a		16.163682
_cell_length_b		16.316867
_cell_length_c		16.349923
_cell_angle_alpha	89.791530
_cell_angle_beta	89.901142
_cell_angle_gamma	89.940428
_symmetry_space_group_name_H-M	'P 1'
_symmetry_Int_Tables_number		1

loop_
	_symmetry_equiv_pos_as_xyz
	x,y,z

loop_
	_atom_site_label
	_atom_site_type_symbol
	_atom_site_fract_x
	_atom_site_fract_y
	_atom_site_fract_z
	H0	H	0.405522	0.836281	0.717391
	H1	H	0.605416	0.162485	0.715713
	H2	H	0.605858	0.836034	0.286628
	H3	H	0.406011	0.162237	0.285914
	H4	H	0.718310	0.405135	0.837978
	H5	H	0.717944	0.595637	0.166346
	H6	H	0.292323	0.596868	0.837631
	H7	H	0.291944	0.401134	0.165041
	H8	H	0.841271	0.713664	0.402753
	H9	H	0.170951	0.712207	0.597557
	H10	H	0.840800	0.284370	0.601487
	H11	H	0.169673	0.285600	0.403109
	H12	H	0.841075	0.400262	0.716657
	H13	H	0.170963	0.598072	0.714009
	H14	H	0.840702	0.598070	0.287817
	H15	H	0.169843	0.401175	0.288637
	H16	H	0.406742	0.715990	0.839005
	H17	H	0.604669	0.714761	0.164709
	H18	H	0.604861	0.285263	0.838816
	H19	H	0.405896	0.283053	0.164284
	H20	H	0.718844	0.835321	0.406204
	H21	H	0.719443	0.162740	0.597572
	H22	H	0.292321	0.835012	0.598718
	H23	H	0.291629	0.162526	0.403583
	H24	H	0.905589	0.336221	0.217684
	H25	H	0.104260	0.661984	0.216600
	H26	H	0.106821	0.336393	0.786521
	H27	H	0.908116	0.662984	0.786213
	H28	H	0.220040	0.903607	0.337900
	H29	H	0.219330	0.095360	0.665104
	H30	H	0.792247	0.097657	0.337945
	H31	H	0.793140	0.902857	0.665199
	H32	H	0.341307	0.215149	0.901494
	H33	H	0.669832	0.212091	0.098339
	H34	H	0.340546	0.785607	0.099594
	H35	H	0.670151	0.787568	0.904075
	H36	H	0.340288	0.901021	0.215396
	H37	H	0.669824	0.097139	0.213743
	H38	H	0.340734	0.098800	0.786598
	H39	H	0.669754	0.901623	0.788206
	H40	H	0.906026	0.215729	0.338927
	H41	H	0.105714	0.215114	0.664505
	H42	H	0.106342	0.784840	0.338281
	H43	H	0.904995	0.781992	0.663006
	H44	H	0.218286	0.334739	0.906998
	H45	H	0.217813	0.663508	0.097521
	H46	H	0.793513	0.335251	0.098132
	H47	H	0.792521	0.664039	0.904437
	H48	H	0.409488	0.114938	0.588531
	H49	H	0.607627	0.880741	0.592841
	H50	H	0.599815	0.116985	0.401503
	H51	H	0.418761	0.881969	0.399729
	H52	H	0.591559	0.398339	0.118738
	H53	H	0.595014	0.601099	0.885572
	H54	H	0.407278	0.588201	0.117918
	H55	H	0.419702	0.395567	0.885224
	H56	H	0.125099	0.592276	0.403119
	H57	H	0.888121	0.599751	0.586742
	H58	H	0.122045	0.409517	0.593326
	H59	H	0.892005	0.409136	0.420895
	H60	H	0.123659	0.405897	0.596689
	H61	H	0.892551	0.581995	0.590460
	H62	H	0.123303	0.596003	0.410222
	H63	H	0.888615	0.417729	0.402023
	H64	H	0.418544	0.591985	0.115978
	H65	H	0.606508	0.594804	0.883828
	H66	H	0.607186	0.401314	0.121471
	H67	H	0.400851	0.406536	0.881420
	H68	H	0.592547	0.114225	0.407321
	H69	H	0.594971	0.881298	0.604939
	H70	H	0.408715	0.117642	0.600184
	H71	H	0.416817	0.885930	0.415443
	H72	H	0.905479	0.617906	0.095928
	H73	H	0.100404	0.383378	0.093250
	H74	H	0.101365	0.617181	0.902395
	H75	H	0.907950	0.382546	0.908445
	H76	H	0.097658	0.908177	0.615502
	H77	H	0.106236	0.093095	0.384110
	H78	H	0.910995	0.091718	0.618015
	H79	H	0.909442	0.913792	0.385601
	H80	H	0.622713	0.091524	0.908866
	H81	H	0.388713	0.087760	0.093164
	H82	H	0.621223	0.909404	0.092126
	H83	H	0.386928	0.898545	0.915728
	H84	H	0.623426	0.907915	0.097961
	H85	H	0.386591	0.092999	0.097941
	H86	H	0.623111	0.092320	0.905611
	H87	H	0.391642	0.917504	0.912851
	H88	H	0.914439	0.090928	0.616619
	H89	H	0.093829	0.087648	0.389226
	H90	H	0.095381	0.902358	0.617330
	H91	H	0.921322	0.904170	0.386688
	H92	H	0.094598	0.614975	0.904862
	H93	H	0.100120	0.381460	0.099397
	H94	H	0.915316	0.616537	0.101412
	H95	H	0.915505	0.382813	0.903732
	H96	H	0.419449	0.113170	0.595483
	H97	H	0.591387	0.886718	0.589320
	H98	H	0.601666	0.115623	0.410751
	H99	H	0.403656	0.879509	0.406456
	H100	H	0.597828	0.413014	0.115266
	H101	H	0.596432	0.587872	0.888072
	H102	H	0.410629	0.599897	0.119986
	H103	H	0.418713	0.417319	0.890063
	H104	H	0.121368	0.588240	0.409844
	H105	H	0.885059	0.593180	0.604410
	H106	H	0.122080	0.404607	0.592036
	H107	H	0.883523	0.396921	0.405299
	H108	H	0.915271	0.613911	0.090475
	H109	H	0.094950	0.383512	0.095999
	H110	H	0.100189	0.615283	0.910204
	H111	H	0.915569	0.385702	0.912558
	H112	H	0.101700	0.903551	0.618700
	H113	H	0.094051	0.101472	0.384451
	H114	H	0.913564	0.094582	0.617845
	H115	H	0.907763	0.899155	0.382114
	H116	H	0.623078	0.094365	0.908066
	H117	H	0.387390	0.094788	0.091008
	H118	H	0.623334	0.903158	0.093774
	H119	H	0.384059	0.906572	0.898101
	C120	C	0.383864	0.007185	0.622841
	C121	C	0.627117	0.990886	0.623383
	C122	C	0.627154	0.007484	0.379109
	C123	C	0.384266	0.990852	0.379196
	C124	C	0.627546	0.376795	0.010576
	C125	C	0.627340	0.621836	0.993861
	C126	C	0.384021	0.621680	0.009604
	C127	C	0.384290	0.377736	0.993451
	C128	C	0.014229	0.620929	0.379503
	C129	C	0.997680	0.620130	0.622042
	C130	C	0.013817	0.377705	0.623143
	C131	C	0.996656	0.378509	0.380724
	C132	C	0.883867	0.507967	0.123925
	C133	C	0.126678	0.490619	0.123538
	C134	C	0.127485	0.507679	0.879076
	C135	C	0.884521	0.491536	0.879727
	C136	C	0.127571	0.877296	0.509574
	C137	C	0.127320	0.121951	0.493443
	C138	C	0.884242	0.121026	0.509609
	C139	C	0.884302	0.877657	0.492754
	C140	C	0.514001	0.120984	0.879408
	C141	C	0.496585	0.119851	0.121716
	C142	C	0.513684	0.878244	0.123371
	C143	C	0.496511	0.878877	0.880375
	C144	C	0.385406	0.884855	0.679017
	C145	C	0.625539	0.113667	0.678067
	C146	C	0.625384	0.884770	0.324738
	C147	C	0.385766	0.113431	0.323846
	C148	C	0.681392	0.382706	0.886945
	C149	C	0.680763	0.617077	0.117286
	C150	C	0.329653	0.618094	0.886643
	C151	C	0.329526	0.380274	0.116311
	C152	C	0.890160	0.675715	0.382390
	C153	C	0.121874	0.674449	0.618415
	C154	C	0.889778	0.322634	0.621331
	C155	C	0.120593	0.323312	0.383069
	C156	C	0.890253	0.379721	0.678860
	C157	C	0.121635	0.617726	0.676411
	C158	C	0.889992	0.618147	0.325536
	C159	C	0.120566	0.380356	0.325613
	C160	C	0.386424	0.677258	0.887192
	C161	C	0.624864	0.676676	0.116356
	C162	C	0.625024	0.323299	0.887411
	C163	C	0.386081	0.321446	0.115588
	C164	C	0.681878	0.884414	0.383927
	C165	C	0.682269	0.113809	0.619440
	C166	C	0.329408	0.883973	0.619691
	C167	C	0.329357	0.113791	0.382640
	C168	C	0.885806	0.384876	0.179222
	C169	C	0.124717	0.613534	0.178612
	C170	C	0.125996	0.384611	0.825023
	C171	C	0.887080	0.614314	0.824227
	C172	C	0.182266	0.881986	0.386623
	C173	C	0.182249	0.117507	0.616118
	C174	C	0.829640	0.118668	0.386688
	C175	C	0.829272	0.880673	0.615825
	C176	C	0.390292	0.176746	0.881314
	C177	C	0.620669	0.174467	0.118804
	C178	C	0.389546	0.823416	0.120369
	C179	C	0.620813	0.824601	0.883364
	C180	C	0.389374	0.881013	0.177645
	C181	C	0.620522	0.117802	0.176559
	C182	C	0.389985	0.119318	0.824163
	C183	C	0.620655	0.881260	0.825683
	C184	C	0.886113	0.177301	0.387247
	C185	C	0.125453	0.176622	0.615994
	C186	C	0.125988	0.822905	0.386799
	C187	C	0.885639	0.821517	0.615080
	C188	C	0.181967	0.384103	0.884404
	C189	C	0.180524	0.614378	0.118929
	C190	C	0.830017	0.384251	0.119954
	C191	C	0.829938	0.614807	0.883216
	C192	C	0.405978	0.093025	0.601057
	C193	C	0.604635	0.905029	0.601990
	C194	C	0.604635	0.093493	0.400329
	C195	C	0.406482	0.904665	0.401000
	C196	C	0.605355	0.397800	0.096368
	C197	C	0.605677	0.600945	0.907967
	C198	C	0.405745	0.599824	0.095503
	C199	C	0.406534	0.400125	0.907782
	C200	C	0.100910	0.598755	0.401356
	C201	C	0.910916	0.597933	0.600278
	C202	C	0.100378	0.399979	0.600716
	C203	C	0.910426	0.401198	0.403056
	C204	C	0.905686	0.593815	0.102434
	C205	C	0.104861	0.405096	0.102529
	C206	C	0.105459	0.593621	0.899708
	C207	C	0.906448	0.405664	0.901710
	C208	C	0.104752	0.898338	0.595052
	C209	C	0.104662	0.100395	0.408052
	C210	C	0.906500	0.098955	0.595298
	C211	C	0.906389	0.899445	0.407013
	C212	C	0.600460	0.099070	0.900940
	C213	C	0.409937	0.098237	0.100308
	C214	C	0.600263	0.900314	0.101281
	C215	C	0.409950	0.901055	0.902379
	Zn216	Zn	0.505463	-0.000542	0.752301
	Zn217	Zn	0.505431	-0.000417	0.250640
	Zn218	Zn	0.755811	0.499444	0.002515
	Zn219	Zn	0.255296	0.499096	0.001974
	Zn220	Zn	0.006023	0.748531	0.500650
	Zn221	Zn	0.004918	0.250651	0.502042
	Zn222	Zn	0.006013	0.499177	0.750052
	Zn223	Zn	0.005286	0.499327	0.252463
	Zn224	Zn	0.505721	0.751031	0.001641
	Zn225	Zn	0.505233	0.248187	0.001213
	Zn226	Zn	0.755973	-0.000653	0.501152
	Zn227	Zn	0.255801	-0.000723	0.501079
	N228	N	0.418848	0.962392	0.680912
	N229	N	0.591749	0.036245	0.680440
	N230	N	0.592439	0.962486	0.321361
	N231	N	0.419267	0.036016	0.321830
	N232	N	0.683113	0.415367	0.964481
	N233	N	0.682835	0.584030	0.040053
	N234	N	0.328035	0.584220	0.963882
	N235	N	0.328263	0.414596	0.039239
	N236	N	0.968513	0.677470	0.415326
	N237	N	0.043591	0.676063	0.585339
	N238	N	0.967676	0.321138	0.587393
	N239	N	0.042447	0.322016	0.416534
	N240	N	0.968309	0.413344	0.679720
	N241	N	0.043379	0.584793	0.678722
	N242	N	0.968146	0.584959	0.323607
	N243	N	0.042668	0.414278	0.324385
	N244	N	0.419457	0.679572	0.964625
	N245	N	0.592069	0.679411	0.038687
	N246	N	0.592507	0.319442	0.965086
	N247	N	0.419240	0.319785	0.038091
	N248	N	0.682928	0.961717	0.417218
	N249	N	0.683259	0.036543	0.586141
	N250	N	0.328338	0.961197	0.585606
	N251	N	0.328354	0.036351	0.416232
	N252	N	0.918653	0.462633	0.181667
	N253	N	0.091900	0.535781	0.181605
	N254	N	0.093027	0.462312	0.821456
	N255	N	0.920344	0.536632	0.822071
	N256	N	0.183347	0.914987	0.463840
	N257	N	0.183595	0.084323	0.538866
	N258	N	0.828301	0.084416	0.463609
	N259	N	0.828465	0.914788	0.538767
	N260	N	0.468200	0.178086	0.914870
	N261	N	0.542647	0.175899	0.085425
	N262	N	0.467765	0.821752	0.087235
	N263	N	0.542505	0.822981	0.916678
	N264	N	0.467708	0.914170	0.179610
	N265	N	0.542561	0.084269	0.178240
	N266	N	0.467990	0.085484	0.822656
	N267	N	0.542439	0.914246	0.823755
	N268	N	0.919176	0.179025	0.464795
	N269	N	0.092211	0.179663	0.538609
	N270	N	0.092617	0.819852	0.464268
	N271	N	0.919118	0.819423	0.537705
	N272	N	0.182898	0.461488	0.917516
	N273	N	0.182078	0.537153	0.085572
	N274	N	0.828525	0.461676	0.086289
	N275	N	0.828221	0.537466	0.916921
	O276	O	-0.060122	-0.012001	0.974752
	H277	H	-0.059564	-0.009386	0.977309
	H278	H	-0.063640	-0.019328	0.974274
	O279	O	0.455888	0.457164	0.511497
	H280	H	0.446732	0.451369	0.522173
	H281	H	0.460819	0.458774	0.511087
	O282	O	0.473344	0.535375	0.506260
	H283	H	0.471803	0.532626	0.509086
	H284	H	0.479536	0.536170	0.514336
	O285	O	0.457103	0.461640	0.528093
	H286	H	0.458486	0.459040	0.523231
	H287	H	0.452880	0.456442	0.522805
	O288	O	0.500890	0.523138	0.510618
	H289	H	0.498475	0.518854	0.514250
	H290	H	0.495319	0.527250	0.503042
	O291	O	-0.463775	1.437295	0.545362
	H292	H	-0.458788	1.447947	0.552430
	H293	H	-0.467576	1.440598	0.536859
	O294	O	0.524256	0.510340	0.487103
	H295	H	0.517225	0.505502	0.492423
	H296	H	0.519738	0.511518	0.481711
	O297	O	0.930758	-0.013600	0.014573
	H298	H	0.926697	-0.011192	0.021297
	H299	H	0.927600	-0.012817	0.012621
