data_Molecule from HDF5

_cell_length_a		16.330345
_cell_length_b		16.149157
_cell_length_c		16.347125
_cell_angle_alpha	89.823694
_cell_angle_beta	89.794973
_cell_angle_gamma	90.076630
_symmetry_space_group_name_H-M	'P 1'
_symmetry_Int_Tables_number		1

loop_
	_symmetry_equiv_pos_as_xyz
	x,y,z

loop_
	_atom_site_label
	_atom_site_type_symbol
	_atom_site_fract_x
	_atom_site_fract_y
	_atom_site_fract_z
	H0	H	0.403167	0.846053	0.716395
	H1	H	0.601705	0.175405	0.713727
	H2	H	0.602033	0.845251	0.287016
	H3	H	0.406149	0.174113	0.286330
	H4	H	0.719910	0.409340	0.838942
	H5	H	0.718786	0.610171	0.163602
	H6	H	0.288608	0.609658	0.838641
	H7	H	0.286198	0.409260	0.164113
	H8	H	0.837781	0.723965	0.405206
	H9	H	0.166977	0.724164	0.595950
	H10	H	0.839108	0.296549	0.598684
	H11	H	0.166489	0.298251	0.404064
	H12	H	0.840208	0.409922	0.716875
	H13	H	0.166129	0.611013	0.715183
	H14	H	0.838563	0.609830	0.286153
	H15	H	0.165714	0.412371	0.285330
	H16	H	0.406449	0.724716	0.838140
	H17	H	0.600101	0.724588	0.165264
	H18	H	0.600046	0.297692	0.837210
	H19	H	0.405462	0.296267	0.165090
	H20	H	0.717303	0.846234	0.402345
	H21	H	0.715273	0.175678	0.597508
	H22	H	0.288669	0.845575	0.600417
	H23	H	0.290586	0.175272	0.401474
	H24	H	0.902616	0.346323	0.216784
	H25	H	0.100360	0.675516	0.213163
	H26	H	0.100701	0.345432	0.787340
	H27	H	0.904542	0.675813	0.786598
	H28	H	0.218393	0.912607	0.338422
	H29	H	0.218571	0.110990	0.663277
	H30	H	0.788198	0.111672	0.338594
	H31	H	0.785811	0.911274	0.663856
	H32	H	0.338802	0.223251	0.905656
	H33	H	0.667044	0.222804	0.095529
	H34	H	0.338771	0.797807	0.098507
	H35	H	0.666851	0.797733	0.904216
	H36	H	0.340854	0.907968	0.218724
	H37	H	0.666065	0.110260	0.215474
	H38	H	0.339901	0.110111	0.786247
	H39	H	0.665543	0.910945	0.784258
	H40	H	0.906982	0.224961	0.337394
	H41	H	0.099243	0.223941	0.665201
	H42	H	0.099576	0.799137	0.337399
	H43	H	0.905532	0.797068	0.665390
	H44	H	0.217187	0.345655	0.902665
	H45	H	0.215314	0.675458	0.097819
	H46	H	0.789859	0.344969	0.098846
	H47	H	0.788390	0.674883	0.901637
	H48	H	0.409141	0.127837	0.590557
	H49	H	0.602767	0.888992	0.598356
	H50	H	0.591370	0.128024	0.401822
	H51	H	0.398143	0.889182	0.409456
	H52	H	0.592027	0.426159	0.113227
	H53	H	0.595220	0.599627	0.887783
	H54	H	0.406512	0.612096	0.121929
	H55	H	0.412639	0.411208	0.884858
	H56	H	0.113989	0.599851	0.415338
	H57	H	0.887064	0.603349	0.591584
	H58	H	0.115410	0.421282	0.586711
	H59	H	0.885239	0.423396	0.399120
	H60	H	0.119413	0.424569	0.600587
	H61	H	0.887982	0.599160	0.595674
	H62	H	0.119795	0.598282	0.394551
	H63	H	0.884128	0.408943	0.408549
	H64	H	0.399280	0.597071	0.117966
	H65	H	0.593287	0.606258	0.885785
	H66	H	0.590630	0.408499	0.118034
	H67	H	0.401040	0.418912	0.883209
	H68	H	0.594773	0.125879	0.413004
	H69	H	0.586896	0.893988	0.598573
	H70	H	0.408896	0.128317	0.595675
	H71	H	0.416914	0.891619	0.399107
	H72	H	0.905194	0.629985	0.097474
	H73	H	0.106810	0.390441	0.089361
	H74	H	0.087347	0.625428	0.907816
	H75	H	0.904666	0.393891	0.917407
	H76	H	0.095020	0.918196	0.616620
	H77	H	0.094592	0.107713	0.384595
	H78	H	0.909768	0.097990	0.615045
	H79	H	0.905744	0.914216	0.383163
	H80	H	0.620915	0.106238	0.901920
	H81	H	0.385587	0.106396	0.096257
	H82	H	0.620935	0.922429	0.104073
	H83	H	0.390026	0.921564	0.916012
	H84	H	0.621916	0.907038	0.092253
	H85	H	0.388812	0.101056	0.090938
	H86	H	0.619110	0.106402	0.908891
	H87	H	0.386724	0.924382	0.900827
	H88	H	0.910780	0.108629	0.618570
	H89	H	0.101978	0.105427	0.383102
	H90	H	0.097468	0.916419	0.617898
	H91	H	0.905809	0.923779	0.386008
	H92	H	0.102086	0.627423	0.914718
	H93	H	0.092526	0.389616	0.106835
	H94	H	0.916928	0.626754	0.095023
	H95	H	0.906604	0.389196	0.899451
	H96	H	0.413801	0.126731	0.593847
	H97	H	0.595342	0.895905	0.584472
	H98	H	0.602220	0.130397	0.404511
	H99	H	0.415375	0.897244	0.420250
	H100	H	0.606530	0.417593	0.120356
	H101	H	0.599669	0.604038	0.884395
	H102	H	0.416303	0.599653	0.114586
	H103	H	0.412665	0.425101	0.888731
	H104	H	0.121746	0.616779	0.404838
	H105	H	0.885859	0.604510	0.596859
	H106	H	0.122024	0.410622	0.595602
	H107	H	0.889611	0.423724	0.416225
	H108	H	0.908673	0.626005	0.086135
	H109	H	0.084779	0.397580	0.086682
	H110	H	0.100015	0.630976	0.899525
	H111	H	0.921067	0.396037	0.907996
	H112	H	0.097684	0.919706	0.617576
	H113	H	0.097287	0.101076	0.387108
	H114	H	0.901226	0.103912	0.619210
	H115	H	0.915016	0.918301	0.387537
	H116	H	0.618254	0.100636	0.905000
	H117	H	0.386156	0.099093	0.099087
	H118	H	0.614426	0.924112	0.085491
	H119	H	0.384044	0.909725	0.907097
	C120	C	0.381542	0.018958	0.622548
	C121	C	0.623206	1.002343	0.621375
	C122	C	0.624579	0.019151	0.378629
	C123	C	0.382522	1.001614	0.380639
	C124	C	0.624767	0.388728	0.009520
	C125	C	0.624589	0.632009	0.993362
	C126	C	0.380311	0.632158	0.010182
	C127	C	0.380160	0.388779	0.993313
	C128	C	0.010376	0.633160	0.378057
	C129	C	0.995036	0.631846	0.622415
	C130	C	0.011081	0.389048	0.623024
	C131	C	0.994147	0.390011	0.379276
	C132	C	0.881385	0.518706	0.122131
	C133	C	0.122919	0.502053	0.121496
	C134	C	0.124682	0.518995	0.879079
	C135	C	0.882126	0.502067	0.879636
	C136	C	0.124657	0.889694	0.509454
	C137	C	0.125430	0.132923	0.492670
	C138	C	0.880597	0.132493	0.509648
	C139	C	0.880194	0.889358	0.493067
	C140	C	0.511411	0.132562	0.878422
	C141	C	0.494934	0.131283	0.122719
	C142	C	0.511231	0.888731	0.123141
	C143	C	0.494575	0.889245	0.879071
	C144	C	0.382928	0.895015	0.678428
	C145	C	0.621122	0.126300	0.675919
	C146	C	0.622344	0.894741	0.324515
	C147	C	0.385563	0.125286	0.324760
	C148	C	0.680998	0.390038	0.887235
	C149	C	0.679881	0.629767	0.115647
	C150	C	0.326189	0.630144	0.887304
	C151	C	0.324764	0.389854	0.115887
	C152	C	0.887094	0.687265	0.382764
	C153	C	0.118069	0.686655	0.617616
	C154	C	0.888092	0.334049	0.619729
	C155	C	0.117693	0.335692	0.382615
	C156	C	0.888731	0.390341	0.678459
	C157	C	0.117511	0.630930	0.677231
	C158	C	0.887457	0.630519	0.323668
	C159	C	0.117060	0.392051	0.323497
	C160	C	0.385011	0.687099	0.887035
	C161	C	0.621081	0.686761	0.116208
	C162	C	0.621234	0.334694	0.886320
	C163	C	0.383965	0.333490	0.116372
	C164	C	0.679609	0.895161	0.381825
	C165	C	0.677697	0.126437	0.618173
	C166	C	0.326125	0.895006	0.620629
	C167	C	0.328054	0.125764	0.381893
	C168	C	0.883066	0.395030	0.178134
	C169	C	0.120514	0.626368	0.175485
	C170	C	0.121755	0.394759	0.824789
	C171	C	0.884108	0.626277	0.824172
	C172	C	0.180274	0.892153	0.386911
	C173	C	0.180269	0.131051	0.615024
	C174	C	0.826281	0.131258	0.386949
	C175	C	0.824354	0.890671	0.615700
	C176	C	0.387967	0.186581	0.883265
	C177	C	0.618104	0.185724	0.117764
	C178	C	0.388031	0.834252	0.120166
	C179	C	0.617662	0.834407	0.882308
	C180	C	0.389084	0.889620	0.179420
	C181	C	0.617535	0.129321	0.177069
	C182	C	0.388552	0.130430	0.823858
	C183	C	0.617129	0.890721	0.822890
	C184	C	0.885166	0.187677	0.386397
	C185	C	0.121138	0.187278	0.615852
	C186	C	0.120896	0.836048	0.386247
	C187	C	0.883582	0.834106	0.616253
	C188	C	0.179526	0.394820	0.881960
	C189	C	0.177805	0.626254	0.118308
	C190	C	0.826903	0.394498	0.119729
	C191	C	0.826664	0.626017	0.881577
	C192	C	0.404111	0.105378	0.600103
	C193	C	0.601360	0.915536	0.599902
	C194	C	0.602754	0.105713	0.400035
	C195	C	0.403859	0.914962	0.403102
	C196	C	0.602823	0.410851	0.095187
	C197	C	0.602690	0.609699	0.908041
	C198	C	0.401257	0.609566	0.095967
	C199	C	0.402374	0.411591	0.907731
	C200	C	0.096348	0.611394	0.398844
	C201	C	0.909221	0.609091	0.600885
	C202	C	0.096743	0.411962	0.600673
	C203	C	0.908639	0.412192	0.401221
	C204	C	0.903508	0.605325	0.099387
	C205	C	0.101162	0.415237	0.100336
	C206	C	0.102892	0.605546	0.900992
	C207	C	0.904201	0.415289	0.901850
	C208	C	0.102886	0.911485	0.595144
	C209	C	0.104251	0.111181	0.407010
	C210	C	0.901070	0.110084	0.595455
	C211	C	0.902245	0.912004	0.407721
	C212	C	0.597247	0.110974	0.899187
	C213	C	0.408906	0.108613	0.101511
	C214	C	0.597077	0.911248	0.100608
	C215	C	0.409060	0.912012	0.901271
	Zn216	Zn	0.502796	0.010635	0.749813
	Zn217	Zn	0.503210	0.009283	0.251856
	Zn218	Zn	0.753631	0.510242	0.000915
	Zn219	Zn	0.251422	0.510110	0.001556
	Zn220	Zn	0.002537	0.761083	0.501066
	Zn221	Zn	0.002776	0.261011	0.501138
	Zn222	Zn	0.003071	0.510799	0.751490
	Zn223	Zn	0.002183	0.511124	0.249736
	Zn224	Zn	0.502435	0.761246	0.001625
	Zn225	Zn	0.502797	0.260841	0.001277
	Zn226	Zn	0.751371	0.011085	0.500703
	Zn227	Zn	0.253832	0.011121	0.501642
	N228	N	0.416601	0.973057	0.679658
	N229	N	0.587903	0.047940	0.678014
	N230	N	0.589007	0.972796	0.322487
	N231	N	0.418694	0.047192	0.323804
	N232	N	0.683098	0.423243	0.964645
	N233	N	0.682345	0.596637	0.038228
	N234	N	0.323383	0.596526	0.964665
	N235	N	0.322458	0.423515	0.038549
	N236	N	0.964401	0.689049	0.415793
	N237	N	0.040770	0.687510	0.584341
	N238	N	0.965345	0.333231	0.585666
	N239	N	0.040578	0.334382	0.416701
	N240	N	0.966216	0.423929	0.680492
	N241	N	0.039989	0.597458	0.680153
	N242	N	0.965285	0.597693	0.320636
	N243	N	0.039445	0.425172	0.321309
	N244	N	0.418024	0.688278	0.964344
	N245	N	0.587261	0.688168	0.039260
	N246	N	0.586800	0.333946	0.963294
	N247	N	0.417756	0.332650	0.038992
	N248	N	0.681163	0.973593	0.414779
	N249	N	0.679007	0.048464	0.584892
	N250	N	0.325085	0.973067	0.586844
	N251	N	0.326165	0.047853	0.416191
	N252	N	0.916305	0.473295	0.179618
	N253	N	0.087206	0.548235	0.177796
	N254	N	0.088607	0.472996	0.822886
	N255	N	0.917626	0.548171	0.822873
	N256	N	0.182850	0.924688	0.464556
	N257	N	0.182786	0.097910	0.537752
	N258	N	0.823357	0.097580	0.464401
	N259	N	0.822175	0.924315	0.538369
	N260	N	0.465154	0.187868	0.916564
	N261	N	0.540855	0.187083	0.084601
	N262	N	0.465016	0.833818	0.085640
	N263	N	0.540525	0.833260	0.916419
	N264	N	0.466921	0.922457	0.181534
	N265	N	0.539717	0.096556	0.180294
	N266	N	0.466244	0.097702	0.820647
	N267	N	0.539748	0.924339	0.821013
	N268	N	0.918366	0.188449	0.463623
	N269	N	0.087597	0.188641	0.538720
	N270	N	0.087002	0.834497	0.463365
	N271	N	0.917578	0.833113	0.539135
	N272	N	0.181484	0.473105	0.915074
	N273	N	0.179043	0.547865	0.085191
	N274	N	0.825702	0.472453	0.085615
	N275	N	0.825215	0.547789	0.915344
	O276	O	0.519206	0.487368	0.572216
	H277	H	0.515804	0.486008	0.578696
	H278	H	0.522510	0.486288	0.575045
	O279	O	0.053526	-0.045132	0.092935
	H280	H	0.052206	-0.034408	0.092092
	H281	H	0.055743	-0.043845	0.099745
	O282	O	0.498452	0.491937	0.558238
	H283	H	0.499228	0.502384	0.562196
	H284	H	0.511581	0.497721	0.555092
	O285	O	0.438537	0.414218	0.568236
	H286	H	0.446254	0.413201	0.572348
	H287	H	0.436232	0.419082	0.567625
	O288	O	0.990464	-0.017174	0.071321
	H289	H	0.989093	-0.032769	0.075613
	H290	H	0.979122	-0.010394	0.070186
	O291	O	-0.552470	0.483439	-0.439927
	H292	H	-0.551376	0.472923	-0.453199
	H293	H	-0.558772	0.474544	-0.432439
	O294	O	0.519284	0.493704	0.540018
	H295	H	0.531694	0.488800	0.534501
	H296	H	0.519347	0.502642	0.542702
	O297	O	0.015660	0.937248	0.073811
	H298	H	0.034432	0.942910	0.067244
	H299	H	0.021133	0.929213	0.087233
	O300	O	1.542892	-0.496905	0.574192
	H301	H	1.542881	-0.492920	0.576323
	H302	H	1.541514	-0.491013	0.576878
	O303	O	0.459005	0.468166	0.582445
	H304	H	0.448747	0.459442	0.592395
	H305	H	0.462077	0.460831	0.580245
	O306	O	-0.012383	0.989715	1.076245
	H307	H	-0.022249	0.977713	1.067041
	H308	H	-0.017574	0.995173	1.077457
	O309	O	0.470959	0.550053	0.537738
	H310	H	0.462524	0.533262	0.532489
	H311	H	0.467789	0.557517	0.544203
