data_Molecule from HDF5

_cell_length_a		16.485142
_cell_length_b		16.454745
_cell_length_c		16.526955
_cell_angle_alpha	89.967673
_cell_angle_beta	90.127172
_cell_angle_gamma	89.855837
_symmetry_space_group_name_H-M	'P 1'
_symmetry_Int_Tables_number		1

loop_
	_symmetry_equiv_pos_as_xyz
	x,y,z

loop_
	_atom_site_label
	_atom_site_type_symbol
	_atom_site_fract_x
	_atom_site_fract_y
	_atom_site_fract_z
	H0	H	0.399323	0.839269	0.739403
	H1	H	0.609535	0.153004	0.740441
	H2	H	0.611525	0.838204	0.295623
	H3	H	0.396646	0.152650	0.294100
	H4	H	0.726493	0.389595	0.862992
	H5	H	0.728187	0.602278	0.177137
	H6	H	0.281469	0.603317	0.863388
	H7	H	0.284029	0.390801	0.176848
	H8	H	0.847670	0.721933	0.408735
	H9	H	0.162082	0.717340	0.622767
	H10	H	0.848143	0.273700	0.626060
	H11	H	0.161457	0.274015	0.413668
	H12	H	0.848338	0.389548	0.743138
	H13	H	0.160274	0.604289	0.742652
	H14	H	0.848783	0.606408	0.292625
	H15	H	0.161389	0.389196	0.296606
	H16	H	0.398146	0.718572	0.863275
	H17	H	0.613463	0.719705	0.176486
	H18	H	0.608993	0.274171	0.863033
	H19	H	0.401498	0.276152	0.177525
	H20	H	0.730735	0.839747	0.408243
	H21	H	0.725714	0.153459	0.623417
	H22	H	0.285187	0.838543	0.621437
	H23	H	0.281337	0.153634	0.410698
	H24	H	0.898987	0.339232	0.241614
	H25	H	0.109061	0.654799	0.239116
	H26	H	0.109231	0.339697	0.797479
	H27	H	0.897111	0.655084	0.797790
	H28	H	0.226019	0.890701	0.360989
	H29	H	0.225584	0.101051	0.676090
	H30	H	0.780842	0.105064	0.362299
	H31	H	0.784427	0.891907	0.674929
	H32	H	0.347072	0.215751	0.915961
	H33	H	0.663048	0.215596	0.124078
	H34	H	0.348511	0.772043	0.126259
	H35	H	0.661803	0.771596	0.911618
	H36	H	0.348388	0.887658	0.242026
	H37	H	0.660798	0.101769	0.243338
	H38	H	0.346166	0.098832	0.799978
	H39	H	0.661037	0.887158	0.794125
	H40	H	0.897330	0.221345	0.363348
	H41	H	0.109277	0.217999	0.676238
	H42	H	0.110586	0.773766	0.360897
	H43	H	0.899443	0.775161	0.674706
	H44	H	0.225917	0.338983	0.913584
	H45	H	0.223491	0.655319	0.121033
	H46	H	0.785884	0.337491	0.122513
	H47	H	0.779781	0.653071	0.912555
	H48	H	0.419837	0.109299	0.609855
	H49	H	0.587224	0.887391	0.601361
	H50	H	0.591353	0.108046	0.429552
	H51	H	0.421122	0.886829	0.431031
	H52	H	0.597104	0.404004	0.134649
	H53	H	0.597436	0.579115	0.908153
	H54	H	0.421545	0.585796	0.130883
	H55	H	0.416879	0.407209	0.907804
	H56	H	0.118413	0.587022	0.426831
	H57	H	0.893050	0.586208	0.603180
	H58	H	0.114061	0.411240	0.604706
	H59	H	0.893146	0.408417	0.435297
	H60	H	0.117429	0.411148	0.612720
	H61	H	0.892747	0.582472	0.608285
	H62	H	0.114777	0.586543	0.434916
	H63	H	0.895062	0.414657	0.430224
	H64	H	0.413084	0.586174	0.133414
	H65	H	0.586204	0.580340	0.911936
	H66	H	0.597271	0.408134	0.132383
	H67	H	0.415419	0.403899	0.906075
	H68	H	0.590230	0.106155	0.431340
	H69	H	0.600789	0.881696	0.602957
	H70	H	0.411863	0.109706	0.603296
	H71	H	0.411760	0.883956	0.435025
	H72	H	0.910729	0.609848	0.102728
	H73	H	0.093932	0.381864	0.110841
	H74	H	0.089172	0.607544	0.934453
	H75	H	0.918561	0.380786	0.917535
	H76	H	0.093821	0.908043	0.629467
	H77	H	0.095592	0.079938	0.407682
	H78	H	0.915038	0.078107	0.628738
	H79	H	0.914411	0.912796	0.405243
	H80	H	0.617008	0.080028	0.927016
	H81	H	0.394906	0.078027	0.105912
	H82	H	0.613821	0.910741	0.101840
	H83	H	0.394120	0.906389	0.932043
	H84	H	0.616478	0.912161	0.110662
	H85	H	0.388847	0.086793	0.115250
	H86	H	0.620249	0.088270	0.926275
	H87	H	0.393454	0.909610	0.928958
	H88	H	0.921865	0.088124	0.629738
	H89	H	0.086138	0.086639	0.408378
	H90	H	0.093340	0.906087	0.630966
	H91	H	0.921301	0.910829	0.407864
	H92	H	0.098586	0.611512	0.932421
	H93	H	0.093359	0.384165	0.107314
	H94	H	0.918827	0.610318	0.112996
	H95	H	0.927519	0.390270	0.936580
	H96	H	0.411036	0.113308	0.613170
	H97	H	0.591431	0.881501	0.614484
	H98	H	0.592476	0.106702	0.431444
	H99	H	0.414386	0.881327	0.425435
	H100	H	0.593361	0.405314	0.132276
	H101	H	0.592397	0.589518	0.906975
	H102	H	0.416398	0.578459	0.129890
	H103	H	0.412970	0.406854	0.906375
	H104	H	0.114298	0.579445	0.429636
	H105	H	0.890054	0.588235	0.608476
	H106	H	0.118857	0.403910	0.607774
	H107	H	0.891006	0.408020	0.427418
	H108	H	0.922846	0.604416	0.102570
	H109	H	0.097271	0.382962	0.108443
	H110	H	0.091134	0.611061	0.924566
	H111	H	0.905483	0.382717	0.936459
	H112	H	0.095952	0.907204	0.630764
	H113	H	0.095987	0.090453	0.403851
	H114	H	0.910657	0.088558	0.633732
	H115	H	0.916982	0.905687	0.404588
	H116	H	0.617438	0.084800	0.933870
	H117	H	0.391621	0.091172	0.102463
	H118	H	0.618099	0.903474	0.106621
	H119	H	0.391938	0.905122	0.928514
	C120	C	0.382792	0.006030	0.640045
	C121	C	0.625412	0.987525	0.638998
	C122	C	0.625896	0.003708	0.396836
	C123	C	0.382448	0.987539	0.396654
	C124	C	0.627182	0.373978	0.028724
	C125	C	0.626309	0.616874	1.011916
	C126	C	0.383948	0.616912	0.028221
	C127	C	0.383162	0.374266	1.010633
	C128	C	0.012874	0.618714	0.396134
	C129	C	0.995883	0.618134	0.639466
	C130	C	0.012975	0.375948	0.641069
	C131	C	0.996054	0.375859	0.397601
	C132	C	0.884721	0.504188	0.139147
	C133	C	0.126446	0.487798	0.140334
	C134	C	0.125475	0.505738	0.898182
	C135	C	0.882715	0.488097	0.897153
	C136	C	0.126526	0.874709	0.526513
	C137	C	0.125128	0.117859	0.510349
	C138	C	0.882361	0.118654	0.527589
	C139	C	0.884128	0.876052	0.509269
	C140	C	0.513838	0.116549	0.897716
	C141	C	0.496327	0.117005	0.140680
	C142	C	0.512932	0.874707	0.139722
	C143	C	0.496617	0.873476	0.896883
	C144	C	0.381106	0.886729	0.699318
	C145	C	0.628128	0.106004	0.700096
	C146	C	0.629969	0.885849	0.335192
	C147	C	0.379315	0.105561	0.335157
	C148	C	0.686337	0.371695	0.910173
	C149	C	0.688012	0.620208	0.129857
	C150	C	0.322247	0.620849	0.910337
	C151	C	0.323673	0.372325	0.129262
	C152	C	0.895108	0.680936	0.391710
	C153	C	0.114552	0.677795	0.641641
	C154	C	0.895255	0.314179	0.644216
	C155	C	0.114376	0.314455	0.395163
	C156	C	0.895337	0.372015	0.702204
	C157	C	0.113740	0.621276	0.701015
	C158	C	0.895433	0.623446	0.333611
	C159	C	0.114303	0.371960	0.336940
	C160	C	0.380249	0.678394	0.910463
	C161	C	0.630643	0.678588	0.129666
	C162	C	0.628298	0.313970	0.910222
	C163	C	0.382142	0.315050	0.129732
	C164	C	0.689068	0.886509	0.391712
	C165	C	0.685713	0.106183	0.641827
	C166	C	0.324287	0.886330	0.640672
	C167	C	0.321837	0.106172	0.393190
	C168	C	0.881619	0.386102	0.200687
	C169	C	0.127963	0.607216	0.199459
	C170	C	0.127626	0.386973	0.837770
	C171	C	0.879113	0.607070	0.837378
	C172	C	0.185820	0.872935	0.407905
	C173	C	0.185444	0.119688	0.628954
	C174	C	0.821388	0.122513	0.409346
	C175	C	0.824134	0.873439	0.627575
	C176	C	0.394554	0.175833	0.896836
	C177	C	0.615304	0.176188	0.142930
	C178	C	0.395420	0.812659	0.143513
	C179	C	0.614535	0.811880	0.893665
	C180	C	0.395548	0.870055	0.201364
	C181	C	0.614299	0.119555	0.202107
	C182	C	0.394212	0.117935	0.838998
	C183	C	0.614209	0.869486	0.835194
	C184	C	0.879178	0.180395	0.409973
	C185	C	0.127419	0.177563	0.629066
	C186	C	0.128808	0.814276	0.408112
	C187	C	0.881321	0.815128	0.627483
	C188	C	0.185602	0.386507	0.895521
	C189	C	0.184911	0.607492	0.140808
	C190	C	0.825283	0.385068	0.141526
	C191	C	0.820587	0.605992	0.894488
	C192	C	0.407148	0.088992	0.615763
	C193	C	0.600321	0.905116	0.613528
	C194	C	0.599045	0.085546	0.423380
	C195	C	0.408410	0.905394	0.422850
	C196	C	0.602834	0.398475	0.111567
	C197	C	0.599571	0.590937	0.930237
	C198	C	0.409783	0.590848	0.110094
	C199	C	0.407881	0.398911	0.928077
	C200	C	0.094541	0.591962	0.422890
	C201	C	0.913375	0.592749	0.613903
	C202	C	0.095412	0.401509	0.615647
	C203	C	0.914354	0.402678	0.423644
	C204	C	0.910232	0.586773	0.113423
	C205	C	0.101795	0.404739	0.115938
	C206	C	0.100255	0.588394	0.923316
	C207	C	0.909550	0.405841	0.922868
	C208	C	0.101508	0.899823	0.608917
	C209	C	0.099802	0.092886	0.428025
	C210	C	0.908164	0.092414	0.609296
	C211	C	0.910193	0.902151	0.427289
	C212	C	0.596647	0.091493	0.921987
	C213	C	0.413201	0.092495	0.115320
	C214	C	0.594830	0.901136	0.113621
	C215	C	0.414431	0.899666	0.922601
	Zn216	Zn	0.505104	-0.004698	0.768323
	Zn217	Zn	0.504441	-0.004797	0.268460
	Zn218	Zn	0.755341	0.495662	0.019997
	Zn219	Zn	0.254502	0.496260	0.019310
	Zn220	Zn	0.004383	0.746810	0.517771
	Zn221	Zn	0.004315	0.247529	0.519273
	Zn222	Zn	0.004059	0.497686	0.769390
	Zn223	Zn	0.004784	0.496918	0.268583
	Zn224	Zn	0.505320	0.745676	0.019764
	Zn225	Zn	0.505354	0.245251	0.019458
	Zn226	Zn	0.754511	-0.003866	0.517918
	Zn227	Zn	0.254532	-0.003132	0.517956
	N228	N	0.416843	0.962060	0.699040
	N229	N	0.591470	0.031190	0.698494
	N230	N	0.591282	0.959685	0.338436
	N231	N	0.416346	0.030794	0.337173
	N232	N	0.685684	0.408078	0.984845
	N233	N	0.685552	0.582564	0.055620
	N234	N	0.324512	0.583110	0.984435
	N235	N	0.324053	0.408132	0.054149
	N236	N	0.969089	0.677976	0.430107
	N237	N	0.040127	0.675984	0.604141
	N238	N	0.969580	0.316521	0.606763
	N239	N	0.039914	0.316783	0.432311
	N240	N	0.969527	0.409692	0.700171
	N241	N	0.038714	0.585099	0.699956
	N242	N	0.969643	0.585311	0.336346
	N243	N	0.039730	0.409478	0.338420
	N244	N	0.417974	0.676063	0.984696
	N245	N	0.593299	0.676802	0.055277
	N246	N	0.592545	0.314859	0.985219
	N247	N	0.418705	0.315928	0.054934
	N248	N	0.686795	0.961034	0.429200
	N249	N	0.684300	0.031527	0.604657
	N250	N	0.324907	0.961490	0.604648
	N251	N	0.323802	0.031825	0.430972
	N252	N	0.917795	0.461303	0.199254
	N253	N	0.092505	0.531681	0.199471
	N254	N	0.091172	0.462016	0.839138
	N255	N	0.916824	0.532536	0.838768
	N256	N	0.184788	0.909592	0.482621
	N257	N	0.184299	0.083438	0.554107
	N258	N	0.823219	0.084723	0.483516
	N259	N	0.825692	0.910357	0.552989
	N260	N	0.469811	0.175238	0.932598
	N261	N	0.540730	0.174639	0.105601
	N262	N	0.469736	0.815196	0.106074
	N263	N	0.540383	0.814188	0.931268
	N264	N	0.469603	0.908033	0.199026
	N265	N	0.539184	0.083695	0.200845
	N266	N	0.469474	0.081804	0.839182
	N267	N	0.539759	0.906910	0.837000
	N268	N	0.916187	0.178432	0.484383
	N269	N	0.090900	0.176833	0.554295
	N270	N	0.092592	0.815251	0.482820
	N271	N	0.917665	0.816497	0.552619
	N272	N	0.184449	0.461387	0.932259
	N273	N	0.184267	0.532060	0.105174
	N274	N	0.827160	0.459531	0.104089
	N275	N	0.822371	0.530760	0.930552
	O276	O	0.437953	0.343000	0.487180
	H277	H	0.432607	0.352068	0.487962
	H278	H	0.418885	0.346434	0.490794
	O279	O	0.579634	0.497072	0.346267
	H280	H	0.583864	0.497483	0.355105
	H281	H	0.572042	0.488674	0.341122
	O282	O	1.069915	0.971108	-0.105237
	H283	H	1.086410	0.953118	-0.114138
	H284	H	1.062226	0.957998	-0.105124
	O285	O	0.312005	0.684388	0.324964
	H286	H	0.325453	0.688411	0.311020
	H287	H	0.319301	0.697979	0.346903
	O288	O	0.166993	0.055744	-0.086593
	H289	H	0.162319	0.048897	-0.086262
	H290	H	0.142719	0.039578	-0.071002
	O291	O	0.293702	0.292896	0.660842
	H292	H	0.301721	0.279645	0.655793
	H293	H	0.280190	0.275314	0.687788
	O294	O	0.212558	1.207019	0.046234
	H295	H	0.203179	1.210057	0.050649
	H296	H	0.219741	1.222648	0.040677
	O297	O	0.702273	0.304553	0.321877
	H298	H	0.713977	0.295260	0.355000
	H299	H	0.649029	0.296515	0.313824
	O300	O	0.558057	0.439250	0.720659
	H301	H	0.542434	0.449943	0.725828
	H302	H	0.557635	0.449325	0.718287
	O303	O	0.960761	0.804657	0.202946
	H304	H	0.975273	0.805341	0.204305
	H305	H	0.976870	0.805392	0.196163
	O306	O	0.289625	0.519390	1.302624
	H307	H	0.304292	0.550836	1.310337
	H308	H	0.263144	0.526907	1.271036
	O309	O	0.504326	0.657433	0.566025
	H310	H	0.513713	0.664924	0.570179
	H311	H	0.496714	0.661269	0.561157
	O312	O	0.401343	0.373882	0.409513
	H313	H	0.401258	0.376472	0.410885
	H314	H	0.395998	0.372971	0.414765
	O315	O	0.123596	0.119272	0.941592
	H316	H	0.114813	0.124540	0.934041
	H317	H	0.116549	0.102016	0.933149
	O318	O	-0.042540	1.003166	0.183839
	H319	H	-0.041044	0.994265	0.182188
	H320	H	-0.034151	1.019054	0.177341
	O321	O	0.652027	0.556587	0.498110
	H322	H	0.638859	0.554929	0.498047
	H323	H	0.649210	0.545697	0.475189
	O324	O	1.163488	-0.185675	0.829770
	H325	H	1.141219	-0.195275	0.834393
	H326	H	1.169456	-0.184030	0.850086
	O327	O	1.015193	-0.108381	0.878601
	H328	H	0.996444	-0.118137	0.884856
	H329	H	1.015063	-0.129717	0.865884
	O330	O	0.692165	0.525920	-0.670921
	H331	H	0.699490	0.503714	-0.671924
	H332	H	0.706889	0.508467	-0.683586
	O333	O	0.874261	1.100183	1.113751
	H334	H	0.871542	1.109553	1.103082
	H335	H	0.863958	1.100656	1.123278
	O336	O	0.975757	-0.082330	0.934874
	H337	H	0.968501	-0.068574	0.921637
	H338	H	0.973665	-0.084093	0.926589
	O339	O	0.189838	0.185515	0.206133
	H340	H	0.185665	0.169581	0.207944
	H341	H	0.175760	0.185337	0.185046
	O342	O	0.440635	0.436774	0.341043
	H343	H	0.445924	0.432938	0.349366
	H344	H	0.435718	0.430009	0.332348
	O345	O	0.217589	0.017691	0.226975
	H346	H	0.234462	0.019864	0.230299
	H347	H	0.230038	0.027829	0.224850
	O348	O	0.953544	0.109990	0.838669
	H349	H	0.955451	0.103473	0.828109
	H350	H	0.960999	0.099408	0.829350
	O351	O	0.844978	0.881963	-0.103750
	H352	H	0.850520	0.906803	-0.090582
	H353	H	0.822253	0.878425	-0.100049
	O354	O	0.473043	0.625346	0.540170
	H355	H	0.465720	0.619540	0.538985
	H356	H	0.482316	0.638039	0.542518
	O357	O	0.939874	1.044583	0.916529
	H358	H	0.935627	1.051197	0.916954
	H359	H	0.925150	1.036226	0.912418
	O360	O	0.720098	0.284668	0.488335
	H361	H	0.742094	0.263985	0.496569
	H362	H	0.729578	0.304964	0.493693
	O363	O	0.765490	0.283637	0.734416
	H364	H	0.744257	0.301095	0.715231
	H365	H	0.772631	0.308756	0.731313
	O366	O	1.442752	0.502951	0.699056
	H367	H	1.420011	0.491994	0.706758
	H368	H	1.442568	0.509081	0.690977
	O369	O	0.292771	0.473348	0.729415
	H370	H	0.279070	0.451212	0.734615
	H371	H	0.281751	0.471753	0.730045
	O372	O	0.523920	0.708019	0.730703
	H373	H	0.536638	0.698201	0.713241
	H374	H	0.535041	0.732521	0.758784
	O375	O	0.014040	1.169975	1.034355
	H376	H	0.006697	1.169946	1.049021
	H377	H	0.004272	1.175796	1.038608
	O378	O	1.207408	-0.027869	-0.192792
	H379	H	1.224053	-0.031776	-0.215813
	H380	H	1.202876	-0.063014	-0.188378
	O381	O	0.961557	0.055058	0.040109
	H382	H	0.947845	0.054474	0.044706
	H383	H	0.953689	0.066405	0.028465
	O384	O	0.188151	-0.193008	0.998376
	H385	H	0.193092	-0.181191	0.996428
	H386	H	0.181889	-0.189602	1.002622
	O387	O	-0.263853	1.466859	0.548845
	H388	H	-0.274445	1.484608	0.538874
	H389	H	-0.257279	1.473208	0.560726
	O390	O	-0.164724	0.012646	1.223634
	H391	H	-0.161117	0.022628	1.245294
	H392	H	-0.152970	0.026622	1.216202
	O393	O	0.829609	1.131125	-0.142631
	H394	H	0.846250	1.134802	-0.160137
	H395	H	0.818218	1.139745	-0.155893
	O396	O	0.374459	0.542203	0.488503
	H397	H	0.359449	0.548626	0.486487
	H398	H	0.376271	0.538183	0.479858
	O399	O	-0.183278	-0.163368	0.206703
	H400	H	-0.151749	-0.167906	0.213131
	H401	H	-0.186000	-0.133731	0.219632
	O402	O	-0.209634	0.016638	0.874582
	H403	H	-0.216953	0.016532	0.863547
	H404	H	-0.207305	0.021379	0.883464
	O405	O	0.136938	-0.034153	0.011239
	H406	H	0.152362	-0.023460	-0.010471
	H407	H	0.113871	-0.035283	-0.005748
	O408	O	0.292673	0.574606	0.596531
	H409	H	0.292879	0.557604	0.585808
	H410	H	0.298943	0.572462	0.591472
	O411	O	0.413581	0.533783	0.429303
	H412	H	0.409644	0.552087	0.428163
	H413	H	0.410420	0.499231	0.423689
	O414	O	0.519960	0.367616	0.304414
	H415	H	0.500283	0.372260	0.304472
	H416	H	0.501980	0.358150	0.307476
	O417	O	0.592284	0.390800	0.552541
	H418	H	0.579758	0.401492	0.560603
	H419	H	0.599766	0.389330	0.537118
	O420	O	0.695529	0.688146	0.705642
	H421	H	0.695828	0.673364	0.717846
	H422	H	0.701929	0.698057	0.656751
	O423	O	-0.009535	1.204037	0.222161
	H424	H	-0.008150	1.213985	0.227743
	H425	H	-0.013354	1.210830	0.228494
	O426	O	0.725740	1.526874	0.737293
	H427	H	0.728108	1.531552	0.753086
	H428	H	0.732799	1.534755	0.757147
	O429	O	0.223329	0.828497	0.006078
	H430	H	0.223043	0.831144	-0.011416
	H431	H	0.220996	0.836659	0.016579
	O432	O	0.400064	0.371249	0.430492
	H433	H	0.401957	0.364961	0.441479
	H434	H	0.391919	0.375204	0.431701
	O435	O	-0.214407	-0.222476	0.044397
	H436	H	-0.224933	-0.230701	0.075068
	H437	H	-0.232575	-0.231474	0.054432
	O438	O	0.795533	0.204819	-0.048682
	H439	H	0.787291	0.212384	-0.067943
	H440	H	0.795169	0.224308	-0.057497
	O441	O	0.723077	0.713374	0.540881
	H442	H	0.732681	0.700461	0.515554
	H443	H	0.739900	0.731376	0.528234
	O444	O	-0.122603	0.950725	0.950478
	H445	H	-0.127616	0.943548	0.950004
	H446	H	-0.127615	0.952844	0.944182
	O447	O	0.566289	0.309689	-0.332519
	H448	H	0.565509	0.317888	-0.325509
	H449	H	0.570389	0.322087	-0.353047
	O450	O	0.416648	0.296262	0.719562
	H451	H	0.443891	0.285575	0.715333
	H452	H	0.411792	0.302665	0.730769
	O453	O	0.416252	0.495077	0.623109
	H454	H	0.429570	0.485189	0.612071
	H455	H	0.415689	0.498100	0.637317
	O456	O	1.015869	0.849490	0.075533
	H457	H	1.002321	0.836208	0.078663
	H458	H	1.006451	0.850545	0.072007
	O459	O	0.547660	0.697980	0.370484
	H460	H	0.549366	0.689301	0.362410
	H461	H	0.538922	0.711383	0.380775
	O462	O	0.307986	0.704168	0.492447
	H463	H	0.318478	0.686639	0.496915
	H464	H	0.278301	0.724711	0.492066
	O465	O	1.072661	-0.054786	0.224399
	H466	H	1.092755	-0.040033	0.228257
	H467	H	1.074056	-0.045368	0.207847
