data_Molecule from HDF5

_cell_length_a		16.271822
_cell_length_b		16.223769
_cell_length_c		16.262049
_cell_angle_alpha	90.021829
_cell_angle_beta	90.087859
_cell_angle_gamma	89.726866
_symmetry_space_group_name_H-M	'P 1'
_symmetry_Int_Tables_number		1

loop_
	_symmetry_equiv_pos_as_xyz
	x,y,z

loop_
	_atom_site_label
	_atom_site_type_symbol
	_atom_site_fract_x
	_atom_site_fract_y
	_atom_site_fract_z
	H0	H	0.400444	0.838115	0.711353
	H1	H	0.596191	0.167293	0.713216
	H2	H	0.596952	0.838928	0.284047
	H3	H	0.399869	0.166881	0.284766
	H4	H	0.713614	0.402775	0.835560
	H5	H	0.711898	0.602228	0.162344
	H6	H	0.281490	0.602521	0.835847
	H7	H	0.284728	0.404257	0.162756
	H8	H	0.835169	0.719425	0.398844
	H9	H	0.161848	0.716882	0.598154
	H10	H	0.833883	0.288733	0.597571
	H11	H	0.161139	0.288599	0.401064
	H12	H	0.834239	0.404453	0.713980
	H13	H	0.161472	0.602094	0.714146
	H14	H	0.834638	0.602733	0.284136
	H15	H	0.161497	0.402981	0.284217
	H16	H	0.397544	0.717223	0.834992
	H17	H	0.596190	0.717508	0.161900
	H18	H	0.596397	0.288217	0.834313
	H19	H	0.399392	0.288713	0.162327
	H20	H	0.714802	0.839661	0.398321
	H21	H	0.711479	0.167699	0.597238
	H22	H	0.284172	0.839460	0.595930
	H23	H	0.282606	0.166877	0.398188
	H24	H	0.900490	0.338543	0.212807
	H25	H	0.095220	0.667657	0.212495
	H26	H	0.098310	0.339359	0.783672
	H27	H	0.897522	0.667225	0.783644
	H28	H	0.213010	0.903268	0.334798
	H29	H	0.213102	0.102613	0.661352
	H30	H	0.783013	0.103340	0.334543
	H31	H	0.783451	0.904638	0.661790
	H32	H	0.333366	0.218616	0.898896
	H33	H	0.661628	0.214944	0.095707
	H34	H	0.332750	0.790207	0.095070
	H35	H	0.660976	0.787430	0.900819
	H36	H	0.332737	0.905098	0.211893
	H37	H	0.660672	0.099929	0.212941
	H38	H	0.333320	0.101575	0.783637
	H39	H	0.661341	0.903739	0.784586
	H40	H	0.899291	0.217890	0.333940
	H41	H	0.096185	0.217211	0.662293
	H42	H	0.097335	0.787956	0.335130
	H43	H	0.899864	0.789554	0.662551
	H44	H	0.213193	0.339345	0.900402
	H45	H	0.213173	0.666397	0.099122
	H46	H	0.784658	0.338311	0.096907
	H47	H	0.781189	0.667400	0.899152
	H48	H	0.406865	0.119494	0.592830
	H49	H	0.589853	0.885576	0.595254
	H50	H	0.589381	0.120090	0.404977
	H51	H	0.411701	0.884306	0.395519
	H52	H	0.594741	0.401404	0.118412
	H53	H	0.593528	0.595218	0.880266
	H54	H	0.397937	0.599097	0.118367
	H55	H	0.412151	0.413613	0.885008
	H56	H	0.111940	0.592484	0.412671
	H57	H	0.881901	0.600597	0.586713
	H58	H	0.114461	0.407040	0.591882
	H59	H	0.877936	0.399680	0.408897
	H60	H	0.113327	0.410661	0.589772
	H61	H	0.883857	0.590584	0.591003
	H62	H	0.115508	0.590503	0.398368
	H63	H	0.886427	0.419283	0.414488
	H64	H	0.404245	0.588290	0.113903
	H65	H	0.588841	0.592060	0.883213
	H66	H	0.596956	0.415015	0.115412
	H67	H	0.404097	0.401206	0.878875
	H68	H	0.589974	0.120320	0.406329
	H69	H	0.589203	0.888209	0.587560
	H70	H	0.406144	0.118904	0.587392
	H71	H	0.409629	0.890120	0.415500
	H72	H	0.903746	0.621244	0.096310
	H73	H	0.083361	0.388826	0.091741
	H74	H	0.091275	0.618898	0.911101
	H75	H	0.905899	0.385620	0.902332
	H76	H	0.091223	0.916721	0.612035
	H77	H	0.096011	0.096759	0.379189
	H78	H	0.913998	0.100406	0.612912
	H79	H	0.909012	0.914466	0.384195
	H80	H	0.610672	0.086652	0.908566
	H81	H	0.381196	0.096639	0.090011
	H82	H	0.615123	0.907446	0.096534
	H83	H	0.378037	0.906869	0.900483
	H84	H	0.613294	0.906332	0.087483
	H85	H	0.379824	0.096176	0.090654
	H86	H	0.616682	0.095860	0.895818
	H87	H	0.380796	0.907619	0.906907
	H88	H	0.896621	0.102081	0.618726
	H89	H	0.088153	0.091207	0.383347
	H90	H	0.086770	0.905395	0.615539
	H91	H	0.907278	0.907691	0.381180
	H92	H	0.091632	0.621744	0.903276
	H93	H	0.095613	0.386824	0.084653
	H94	H	0.907113	0.617849	0.089428
	H95	H	0.909995	0.388625	0.908007
	H96	H	0.402031	0.120886	0.590790
	H97	H	0.596194	0.885283	0.590201
	H98	H	0.590413	0.120909	0.404917
	H99	H	0.393414	0.882005	0.404615
	H100	H	0.584390	0.409344	0.113365
	H101	H	0.588276	0.598357	0.881632
	H102	H	0.410675	0.600225	0.114662
	H103	H	0.397034	0.415283	0.880909
	H104	H	0.117686	0.603748	0.404677
	H105	H	0.879058	0.598885	0.596935
	H106	H	0.114383	0.409823	0.594701
	H107	H	0.880089	0.416010	0.394883
	H108	H	0.899296	0.620469	0.088661
	H109	H	0.094238	0.382821	0.098475
	H110	H	0.084672	0.619121	0.906484
	H111	H	0.902993	0.386256	0.909059
	H112	H	0.098920	0.908492	0.618570
	H113	H	0.087365	0.101037	0.381098
	H114	H	0.902851	0.086526	0.612072
	H115	H	0.902095	0.912781	0.381164
	H116	H	0.614046	0.103607	0.910599
	H117	H	0.380145	0.096719	0.090803
	H118	H	0.611818	0.914667	0.091653
	H119	H	0.381251	0.912714	0.902722
	C120	C	0.376666	0.011443	0.619116
	C121	C	0.619557	0.994849	0.619680
	C122	C	0.619202	0.011771	0.376675
	C123	C	0.375927	0.994132	0.376501
	C124	C	0.620137	0.380210	0.007098
	C125	C	0.618759	0.624107	0.989855
	C126	C	0.375547	0.624369	0.007357
	C127	C	0.376383	0.381735	0.990246
	C128	C	0.007197	0.625032	0.376757
	C129	C	0.989635	0.624738	0.620399
	C130	C	0.006130	0.380877	0.620699
	C131	C	0.989366	0.381950	0.377166
	C132	C	0.875815	0.511146	0.120335
	C133	C	0.119670	0.494419	0.120807
	C134	C	0.119151	0.511731	0.877819
	C135	C	0.875932	0.494886	0.877120
	C136	C	0.120619	0.881415	0.507074
	C137	C	0.118969	0.124477	0.489701
	C138	C	0.875534	0.125814	0.506445
	C139	C	0.877121	0.882512	0.490016
	C140	C	0.505806	0.124728	0.876193
	C141	C	0.488642	0.124241	0.119628
	C142	C	0.505274	0.880890	0.120242
	C143	C	0.488409	0.880396	0.875810
	C144	C	0.379725	0.887655	0.673884
	C145	C	0.616736	0.118136	0.675240
	C146	C	0.617415	0.888244	0.321643
	C147	C	0.378613	0.117894	0.321591
	C148	C	0.675302	0.382633	0.884050
	C149	C	0.674049	0.622258	0.113558
	C150	C	0.319792	0.622421	0.884269
	C151	C	0.322084	0.383888	0.113648
	C152	C	0.884093	0.681239	0.378679
	C153	C	0.113072	0.679060	0.618027
	C154	C	0.882847	0.326327	0.617946
	C155	C	0.112328	0.326398	0.380046
	C156	C	0.883084	0.383778	0.675964
	C157	C	0.112784	0.621989	0.675733
	C158	C	0.883737	0.623265	0.321780
	C159	C	0.112557	0.383254	0.322026
	C160	C	0.377290	0.679740	0.884068
	C161	C	0.616445	0.679328	0.113289
	C162	C	0.617193	0.325587	0.883671
	C163	C	0.379308	0.326550	0.113470
	C164	C	0.676069	0.888487	0.378276
	C165	C	0.674370	0.118326	0.617766
	C166	C	0.321979	0.888045	0.616503
	C167	C	0.320555	0.117822	0.378203
	C168	C	0.879227	0.387716	0.175226
	C169	C	0.116768	0.618233	0.175627
	C170	C	0.117695	0.388169	0.822096
	C171	C	0.877239	0.618413	0.821477
	C172	C	0.175308	0.883332	0.383832
	C173	C	0.174642	0.122198	0.612819
	C174	C	0.820349	0.123877	0.383344
	C175	C	0.821749	0.884511	0.613056
	C176	C	0.382235	0.180047	0.878622
	C177	C	0.612206	0.178285	0.116902
	C178	C	0.381962	0.826790	0.116497
	C179	C	0.612154	0.825229	0.879311
	C180	C	0.381895	0.883795	0.174783
	C181	C	0.611746	0.121071	0.175128
	C182	C	0.382201	0.122104	0.821347
	C183	C	0.612204	0.882843	0.821837
	C184	C	0.878320	0.180691	0.383083
	C185	C	0.116503	0.179290	0.613239
	C186	C	0.118005	0.825867	0.383923
	C187	C	0.879680	0.827420	0.613389
	C188	C	0.174718	0.388029	0.879975
	C189	C	0.174971	0.617551	0.118936
	C190	C	0.821803	0.387583	0.117430
	C191	C	0.819448	0.618173	0.878875
	C192	C	0.398487	0.097534	0.596763
	C193	C	0.598164	0.908570	0.597503
	C194	C	0.596544	0.098016	0.398947
	C195	C	0.398284	0.907871	0.398611
	C196	C	0.598311	0.402031	0.093515
	C197	C	0.596848	0.601891	0.903937
	C198	C	0.397814	0.602139	0.093389
	C199	C	0.398110	0.403628	0.903870
	C200	C	0.093079	0.602248	0.398890
	C201	C	0.903789	0.603012	0.598043
	C202	C	0.092002	0.402766	0.598617
	C203	C	0.903681	0.405006	0.399385
	C204	C	0.897430	0.597596	0.098250
	C205	C	0.097389	0.408328	0.098345
	C206	C	0.096033	0.597587	0.900442
	C207	C	0.899418	0.409169	0.899705
	C208	C	0.098611	0.903687	0.593109
	C209	C	0.096956	0.102648	0.403568
	C210	C	0.897865	0.103011	0.592510
	C211	C	0.899552	0.905090	0.404221
	C212	C	0.591467	0.102223	0.898428
	C213	C	0.402594	0.102775	0.097352
	C214	C	0.591230	0.902943	0.098478
	C215	C	0.402402	0.902406	0.897141
	Zn216	Zn	0.497857	0.002805	0.747764
	Zn217	Zn	0.497108	0.002731	0.248648
	Zn218	Zn	0.747253	0.503075	-0.000968
	Zn219	Zn	0.247755	0.502633	-0.000872
	Zn220	Zn	-0.001413	0.753240	0.498945
	Zn221	Zn	-0.002520	0.253177	0.498297
	Zn222	Zn	-0.002052	0.503597	0.749118
	Zn223	Zn	-0.002023	0.503117	0.248816
	Zn224	Zn	0.497071	0.752495	-0.001723
	Zn225	Zn	0.497207	0.253146	-0.001785
	Zn226	Zn	0.748114	0.003531	0.497602
	Zn227	Zn	0.247850	0.003213	0.497811
	N228	N	0.412890	0.965488	0.675675
	N229	N	0.583506	0.040457	0.676485
	N230	N	0.582876	0.965830	0.320539
	N231	N	0.412445	0.040114	0.320561
	N232	N	0.677124	0.416017	0.961830
	N233	N	0.675710	0.588604	0.035875
	N234	N	0.318585	0.588710	0.961907
	N235	N	0.320415	0.417603	0.036038
	N236	N	0.961726	0.682612	0.412122
	N237	N	0.035533	0.681008	0.584102
	N238	N	0.960447	0.324379	0.584538
	N239	N	0.034826	0.325383	0.413455
	N240	N	0.960683	0.417108	0.677803
	N241	N	0.035206	0.588914	0.677374
	N242	N	0.961153	0.588994	0.320383
	N243	N	0.035020	0.417469	0.320299
	N244	N	0.411340	0.680988	0.961416
	N245	N	0.582626	0.680652	0.035623
	N246	N	0.583503	0.324099	0.961276
	N247	N	0.412474	0.325117	0.035609
	N248	N	0.677169	0.966367	0.411760
	N249	N	0.676286	0.040671	0.583584
	N250	N	0.319923	0.965875	0.583137
	N251	N	0.318903	0.039933	0.411716
	N252	N	0.912027	0.465710	0.177078
	N253	N	0.082799	0.540790	0.176756
	N254	N	0.083525	0.466085	0.820731
	N255	N	0.911916	0.540741	0.820362
	N256	N	0.177111	0.916901	0.461465
	N257	N	0.176424	0.089151	0.534822
	N258	N	0.818513	0.090468	0.461038
	N259	N	0.820065	0.918070	0.535349
	N260	N	0.459898	0.181786	0.912246
	N261	N	0.534620	0.180505	0.083269
	N262	N	0.459702	0.825057	0.083217
	N263	N	0.534409	0.823655	0.912311
	N264	N	0.459526	0.916917	0.177019
	N265	N	0.533996	0.088216	0.176796
	N266	N	0.459945	0.088582	0.819584
	N267	N	0.534423	0.916410	0.819491
	N268	N	0.911975	0.181816	0.460700
	N269	N	0.082553	0.180836	0.535771
	N270	N	0.084690	0.824363	0.461634
	N271	N	0.913616	0.826180	0.535956
	N272	N	0.175895	0.465656	0.913677
	N273	N	0.176776	0.539509	0.085478
	N274	N	0.819539	0.465471	0.084021
	N275	N	0.818607	0.540514	0.912735
	O276	O	0.487048	0.502223	0.492133
	H277	H	0.492969	0.505079	0.491490
	H278	H	0.481141	0.505663	0.490440
	O279	O	0.471508	0.509347	0.547248
	H280	H	0.476827	0.503412	0.554339
	H281	H	0.468555	0.516861	0.552020
	O282	O	0.519000	0.562879	0.524308
	H283	H	0.521578	0.566361	0.523395
	H284	H	0.522018	0.560608	0.524575
	O285	O	-0.033075	1.020728	0.967598
	H286	H	-0.022038	1.027661	0.969937
	H287	H	-0.028354	1.010292	0.958630
	O288	O	0.523166	0.537956	0.455160
	H289	H	0.524552	0.535798	0.459877
	H290	H	0.516105	0.543143	0.462130
	O291	O	-0.083811	-0.015185	0.998494
	H292	H	-0.081498	-0.006423	0.997497
	H293	H	-0.083625	-0.012205	1.005982
	O294	O	0.529106	0.479898	0.499912
	H295	H	0.527962	0.472971	0.498227
	H296	H	0.534902	0.480339	0.498651
	O297	O	0.541475	0.463020	0.534590
	H298	H	0.546641	0.470063	0.531479
	H299	H	0.539537	0.464573	0.524234
	O300	O	0.528289	0.581500	0.549878
	H301	H	0.528369	0.576687	0.552745
	H302	H	0.532735	0.578006	0.551579
	O303	O	0.526410	0.545994	0.501005
	H304	H	0.535900	0.540498	0.509253
	H305	H	0.522514	0.545548	0.490348
	O306	O	0.945920	-0.052431	0.959355
	H307	H	0.929653	-0.059347	0.959536
	H308	H	0.944193	-0.054214	0.970527
	O309	O	0.477465	0.510448	0.508225
	H310	H	0.486601	0.511645	0.516375
	H311	H	0.465757	0.517474	0.509384
	O312	O	0.471690	0.513845	0.481170
	H313	H	0.470473	0.511381	0.487905
	H314	H	0.467688	0.519556	0.482686
	O315	O	0.935233	-0.025132	0.997169
	H316	H	0.930225	-0.023163	0.991779
	H317	H	0.942200	-0.020316	0.984648
	O318	O	-0.026203	-0.035849	-0.014773
	H319	H	-0.039883	-0.037490	-0.013124
	H320	H	-0.026812	-0.032614	-0.011144
	O321	O	0.619756	0.462157	0.511583
	H322	H	0.628089	0.450476	0.501004
	H323	H	0.614917	0.465650	0.509775
	O324	O	0.981565	-0.027126	-0.042786
	H325	H	0.987537	-0.036426	-0.035051
	H326	H	0.984050	-0.021617	-0.050917
	O327	O	1.034813	0.973086	-0.014540
	H328	H	1.030498	0.968120	-0.019240
	H329	H	1.037051	0.974979	-0.018450
	O330	O	0.543265	0.423863	0.476939
	H331	H	0.538164	0.420719	0.476603
	H332	H	0.542952	0.418378	0.470217
	O333	O	0.410331	0.483008	0.557444
	H334	H	0.409862	0.488061	0.554068
	H335	H	0.402328	0.487839	0.558012
