data_Molecule from HDF5

_cell_length_a		16.341751
_cell_length_b		16.227334
_cell_length_c		16.293011
_cell_angle_alpha	90.062362
_cell_angle_beta	89.991973
_cell_angle_gamma	90.099668
_symmetry_space_group_name_H-M	'P 1'
_symmetry_Int_Tables_number		1

loop_
	_symmetry_equiv_pos_as_xyz
	x,y,z

loop_
	_atom_site_label
	_atom_site_type_symbol
	_atom_site_fract_x
	_atom_site_fract_y
	_atom_site_fract_z
	H0	H	0.401550	0.835048	0.713573
	H1	H	0.596893	0.164959	0.713813
	H2	H	0.596982	0.835301	0.287249
	H3	H	0.401528	0.164459	0.285687
	H4	H	0.714351	0.401270	0.835840
	H5	H	0.716142	0.599160	0.162648
	H6	H	0.285463	0.597870	0.836586
	H7	H	0.284685	0.399979	0.163393
	H8	H	0.835876	0.713013	0.403230
	H9	H	0.163206	0.713777	0.596315
	H10	H	0.836517	0.286162	0.597202
	H11	H	0.163452	0.285647	0.402174
	H12	H	0.836539	0.402245	0.714010
	H13	H	0.163667	0.598342	0.714059
	H14	H	0.836467	0.598468	0.285179
	H15	H	0.163965	0.402754	0.285495
	H16	H	0.404147	0.712812	0.835819
	H17	H	0.597507	0.713118	0.164335
	H18	H	0.596866	0.286768	0.835768
	H19	H	0.403178	0.286258	0.164105
	H20	H	0.713604	0.835960	0.402244
	H21	H	0.712836	0.164908	0.596431
	H22	H	0.285501	0.835853	0.598437
	H23	H	0.286696	0.164293	0.403166
	H24	H	0.902405	0.335572	0.213714
	H25	H	0.097640	0.664863	0.212598
	H26	H	0.098180	0.335041	0.784742
	H27	H	0.903590	0.664154	0.786759
	H28	H	0.215479	0.900067	0.336898
	H29	H	0.215446	0.100055	0.663405
	H30	H	0.785098	0.099225	0.336524
	H31	H	0.784555	0.901095	0.663387
	H32	H	0.335988	0.213827	0.902901
	H33	H	0.663407	0.214630	0.097908
	H34	H	0.336808	0.786146	0.097439
	H35	H	0.664261	0.786838	0.902959
	H36	H	0.337118	0.900459	0.214890
	H37	H	0.663082	0.099211	0.215634
	H38	H	0.336310	0.097783	0.786047
	H39	H	0.663207	0.902518	0.785527
	H40	H	0.903657	0.212776	0.335833
	H41	H	0.095694	0.213075	0.664817
	H42	H	0.096154	0.786869	0.336053
	H43	H	0.902115	0.786592	0.664067
	H44	H	0.213980	0.334911	0.901133
	H45	H	0.213794	0.664551	0.097623
	H46	H	0.784604	0.336204	0.099076
	H47	H	0.787510	0.664165	0.902611
	H48	H	0.404212	0.117793	0.592414
	H49	H	0.598064	0.880804	0.595899
	H50	H	0.584684	0.113647	0.409788
	H51	H	0.397572	0.880800	0.410282
	H52	H	0.594965	0.407178	0.116709
	H53	H	0.591875	0.581317	0.887348
	H54	H	0.402865	0.600361	0.119169
	H55	H	0.408392	0.414446	0.886388
	H56	H	0.115665	0.593889	0.405559
	H57	H	0.879118	0.598746	0.605992
	H58	H	0.114934	0.406455	0.590176
	H59	H	0.883663	0.404051	0.407778
	H60	H	0.116090	0.410232	0.596004
	H61	H	0.884105	0.601225	0.583753
	H62	H	0.116353	0.594007	0.405315
	H63	H	0.885811	0.409419	0.408799
	H64	H	0.400759	0.586911	0.116488
	H65	H	0.584733	0.602871	0.883238
	H66	H	0.593221	0.410008	0.115759
	H67	H	0.411822	0.400466	0.883571
	H68	H	0.601396	0.117738	0.412899
	H69	H	0.588986	0.883047	0.596411
	H70	H	0.408278	0.116783	0.596179
	H71	H	0.409055	0.881443	0.398176
	H72	H	0.907983	0.614347	0.084923
	H73	H	0.094281	0.384063	0.086499
	H74	H	0.094884	0.618584	0.900844
	H75	H	0.913664	0.385504	0.907705
	H76	H	0.090028	0.909638	0.614649
	H77	H	0.097702	0.088664	0.383521
	H78	H	0.907693	0.098128	0.617896
	H79	H	0.893958	0.907282	0.379859
	H80	H	0.617004	0.096758	0.905523
	H81	H	0.385175	0.088691	0.092543
	H82	H	0.617309	0.904544	0.094383
	H83	H	0.381777	0.902231	0.905605
	H84	H	0.615659	0.908101	0.092182
	H85	H	0.382490	0.093762	0.097020
	H86	H	0.614841	0.092788	0.909201
	H87	H	0.384427	0.906117	0.909355
	H88	H	0.900884	0.092831	0.618221
	H89	H	0.088719	0.091399	0.386532
	H90	H	0.092732	0.902099	0.617830
	H91	H	0.911911	0.917276	0.388731
	H92	H	0.087472	0.613259	0.908482
	H93	H	0.098001	0.380747	0.096838
	H94	H	0.899732	0.619507	0.095161
	H95	H	0.900028	0.382709	0.912087
	H96	H	0.408905	0.115059	0.591051
	H97	H	0.593956	0.884234	0.588444
	H98	H	0.594513	0.120400	0.397079
	H99	H	0.413462	0.887340	0.413614
	H100	H	0.591622	0.406998	0.116351
	H101	H	0.606268	0.597124	0.878580
	H102	H	0.413063	0.592362	0.114396
	H103	H	0.398702	0.405249	0.880418
	H104	H	0.116057	0.594421	0.405616
	H105	H	0.887396	0.581102	0.594392
	H106	H	0.117997	0.403733	0.595926
	H107	H	0.884043	0.408070	0.403213
	H108	H	0.913138	0.616571	0.097571
	H109	H	0.086942	0.383513	0.095061
	H110	H	0.098389	0.615714	0.912457
	H111	H	0.903850	0.379171	0.898556
	H112	H	0.098104	0.908768	0.617388
	H113	H	0.094690	0.097393	0.381986
	H114	H	0.908421	0.090142	0.614947
	H115	H	0.912719	0.895897	0.382117
	H116	H	0.616196	0.091467	0.903976
	H117	H	0.384927	0.095550	0.089817
	H118	H	0.616983	0.908646	0.096444
	H119	H	0.383898	0.907768	0.903703
	C120	C	0.378322	0.008069	0.621754
	C121	C	0.621371	0.991705	0.621375
	C122	C	0.621417	0.008466	0.378659
	C123	C	0.378392	0.991820	0.378773
	C124	C	0.621184	0.379093	0.007930
	C125	C	0.622179	0.621990	0.991344
	C126	C	0.378304	0.621446	0.008322
	C127	C	0.378526	0.378223	0.991845
	C128	C	0.007728	0.622125	0.377978
	C129	C	0.991839	0.621967	0.622085
	C130	C	0.008164	0.378433	0.621847
	C131	C	0.992240	0.378548	0.377976
	C132	C	0.878351	0.508442	0.121311
	C133	C	0.121477	0.491631	0.121166
	C134	C	0.121796	0.507479	0.878225
	C135	C	0.878600	0.491066	0.878735
	C136	C	0.121542	0.878440	0.508478
	C137	C	0.121588	0.121518	0.492090
	C138	C	0.878216	0.121803	0.508398
	C139	C	0.878353	0.878368	0.491615
	C140	C	0.507773	0.121909	0.878246
	C141	C	0.491959	0.121757	0.121714
	C142	C	0.508554	0.878447	0.121814
	C143	C	0.491987	0.878005	0.878385
	C144	C	0.381474	0.884262	0.675950
	C145	C	0.618021	0.115717	0.676038
	C146	C	0.618137	0.884558	0.324411
	C147	C	0.381291	0.115373	0.323943
	C148	C	0.676491	0.380993	0.884744
	C149	C	0.677355	0.619231	0.114413
	C150	C	0.323905	0.618264	0.885080
	C151	C	0.323251	0.380097	0.114884
	C152	C	0.884739	0.675806	0.381890
	C153	C	0.114596	0.676666	0.618122
	C154	C	0.885095	0.324005	0.618201
	C155	C	0.115073	0.324059	0.381562
	C156	C	0.885210	0.381255	0.676391
	C157	C	0.114658	0.619375	0.676386
	C158	C	0.885170	0.619101	0.323144
	C159	C	0.115020	0.381836	0.323420
	C160	C	0.382700	0.675354	0.884667
	C161	C	0.618817	0.676020	0.115206
	C162	C	0.618328	0.323793	0.884759
	C163	C	0.381981	0.323592	0.115260
	C164	C	0.675768	0.884818	0.381622
	C165	C	0.675555	0.115922	0.617917
	C166	C	0.323460	0.884573	0.619018
	C167	C	0.323599	0.115314	0.381525
	C168	C	0.881434	0.384726	0.176049
	C169	C	0.118453	0.615599	0.175375
	C170	C	0.118732	0.384110	0.822738
	C171	C	0.882555	0.615169	0.824654
	C172	C	0.176575	0.880642	0.385230
	C173	C	0.176820	0.119679	0.615004
	C174	C	0.823658	0.118870	0.385074
	C175	C	0.823491	0.881293	0.614856
	C176	C	0.384807	0.176388	0.881548
	C177	C	0.614887	0.176736	0.118551
	C178	C	0.385431	0.823746	0.118067
	C179	C	0.615295	0.824356	0.881975
	C180	C	0.385606	0.880847	0.176286
	C181	C	0.614553	0.119416	0.176911
	C182	C	0.385091	0.118775	0.823639
	C183	C	0.614755	0.881624	0.823578
	C184	C	0.882118	0.175816	0.384945
	C185	C	0.117562	0.175926	0.615629
	C186	C	0.117694	0.824045	0.384881
	C187	C	0.881682	0.824182	0.615326
	C188	C	0.176301	0.383791	0.880437
	C189	C	0.176487	0.615346	0.118476
	C190	C	0.823003	0.384887	0.119059
	C191	C	0.824782	0.615226	0.881805
	C192	C	0.400471	0.094270	0.599698
	C193	C	0.600134	0.905284	0.599840
	C194	C	0.600033	0.094846	0.400079
	C195	C	0.400168	0.905460	0.400850
	C196	C	0.599581	0.401422	0.094099
	C197	C	0.600644	0.600247	0.905337
	C198	C	0.399337	0.599767	0.094395
	C199	C	0.400072	0.400336	0.905725
	C200	C	0.093916	0.600505	0.399320
	C201	C	0.905732	0.600093	0.601044
	C202	C	0.094148	0.400435	0.600423
	C203	C	0.906411	0.400638	0.399952
	C204	C	0.900439	0.594493	0.099284
	C205	C	0.099541	0.404909	0.099315
	C206	C	0.099960	0.593624	0.900731
	C207	C	0.899621	0.404744	0.899953
	C208	C	0.099978	0.900443	0.594439
	C209	C	0.100133	0.099027	0.406257
	C210	C	0.899340	0.100165	0.594714
	C211	C	0.899888	0.900355	0.405832
	C212	C	0.593788	0.100097	0.899980
	C213	C	0.406386	0.099404	0.099657
	C214	C	0.594424	0.900571	0.100594
	C215	C	0.405777	0.899055	0.899904
	Zn216	Zn	0.499470	-0.000086	0.749854
	Zn217	Zn	0.500151	0.000026	0.250612
	Zn218	Zn	0.750218	0.499767	-0.000600
	Zn219	Zn	0.249608	0.499044	0.000225
	Zn220	Zn	-0.000334	0.750357	0.499897
	Zn221	Zn	0.000107	0.250116	0.500076
	Zn222	Zn	-0.000025	0.499747	0.750349
	Zn223	Zn	0.000152	0.500313	0.249148
	Zn224	Zn	0.500666	0.749918	0.000450
	Zn225	Zn	0.499955	0.249963	0.000014
	Zn226	Zn	0.749632	0.000206	0.499805
	Zn227	Zn	0.250090	0.000050	0.500174
	N228	N	0.415066	0.962085	0.677613
	N229	N	0.584934	0.037621	0.678389
	N230	N	0.584847	0.962314	0.322681
	N231	N	0.414433	0.037447	0.322052
	N232	N	0.678401	0.414607	0.962394
	N233	N	0.679789	0.586570	0.036384
	N234	N	0.321209	0.585255	0.962740
	N235	N	0.321158	0.413433	0.037331
	N236	N	0.962117	0.677728	0.415103
	N237	N	0.037041	0.678282	0.585008
	N238	N	0.962587	0.322173	0.585046
	N239	N	0.037559	0.321845	0.414460
	N240	N	0.962689	0.414397	0.678521
	N241	N	0.037303	0.586215	0.678931
	N242	N	0.962818	0.586301	0.320722
	N243	N	0.037470	0.415132	0.321220
	N244	N	0.415715	0.677327	0.962329
	N245	N	0.585047	0.677626	0.037926
	N246	N	0.584758	0.322559	0.962295
	N247	N	0.415325	0.322071	0.037602
	N248	N	0.678130	0.962953	0.414458
	N249	N	0.677652	0.037952	0.584755
	N250	N	0.321557	0.962476	0.585826
	N251	N	0.321858	0.037605	0.415207
	N252	N	0.915303	0.462429	0.177403
	N253	N	0.084855	0.537703	0.177112
	N254	N	0.085457	0.461941	0.821463
	N255	N	0.915629	0.537266	0.822861
	N256	N	0.179001	0.913832	0.462965
	N257	N	0.179503	0.086712	0.537071
	N258	N	0.821076	0.086102	0.462980
	N259	N	0.821138	0.914449	0.537156
	N260	N	0.462225	0.178333	0.914893
	N261	N	0.537606	0.178102	0.084853
	N262	N	0.462931	0.822209	0.084947
	N263	N	0.537866	0.822084	0.915238
	N264	N	0.463048	0.914158	0.178752
	N265	N	0.537339	0.085775	0.178750
	N266	N	0.462489	0.085596	0.821782
	N267	N	0.537082	0.914259	0.821364
	N268	N	0.915485	0.177509	0.462537
	N269	N	0.083840	0.177105	0.538341
	N270	N	0.084241	0.822687	0.462334
	N271	N	0.915031	0.822342	0.537781
	N272	N	0.178266	0.461429	0.914275
	N273	N	0.178226	0.537159	0.085461
	N274	N	0.821152	0.462650	0.085652
	N275	N	0.822329	0.537168	0.914749
