data_Molecule from HDF5

_cell_length_a		16.305292
_cell_length_b		16.249688
_cell_length_c		16.187653
_cell_angle_alpha	90.155755
_cell_angle_beta	89.914315
_cell_angle_gamma	89.944595
_symmetry_space_group_name_H-M	'P 1'
_symmetry_Int_Tables_number		1

loop_
	_symmetry_equiv_pos_as_xyz
	x,y,z

loop_
	_atom_site_label
	_atom_site_type_symbol
	_atom_site_fract_x
	_atom_site_fract_y
	_atom_site_fract_z
	H0	H	0.404181	0.845124	0.700369
	H1	H	0.601623	0.173423	0.702660
	H2	H	0.601427	0.845918	0.272186
	H3	H	0.406438	0.174870	0.275058
	H4	H	0.719958	0.407896	0.823295
	H5	H	0.720110	0.609169	0.151190
	H6	H	0.288830	0.609172	0.823775
	H7	H	0.289228	0.407132	0.151038
	H8	H	0.842614	0.726753	0.385071
	H9	H	0.167496	0.724966	0.586697
	H10	H	0.841697	0.294422	0.587601
	H11	H	0.167724	0.292971	0.386444
	H12	H	0.841730	0.410026	0.703190
	H13	H	0.167728	0.609315	0.702033
	H14	H	0.842736	0.609759	0.270100
	H15	H	0.168778	0.409631	0.272849
	H16	H	0.404496	0.723734	0.823643
	H17	H	0.603414	0.724174	0.151422
	H18	H	0.603870	0.293203	0.822852
	H19	H	0.405410	0.295192	0.151157
	H20	H	0.720061	0.846424	0.385707
	H21	H	0.718249	0.173689	0.586672
	H22	H	0.287493	0.846840	0.587552
	H23	H	0.287930	0.173809	0.387482
	H24	H	0.907015	0.343601	0.201648
	H25	H	0.104141	0.672404	0.201523
	H26	H	0.102570	0.345112	0.772263
	H27	H	0.906664	0.673042	0.774117
	H28	H	0.219278	0.910409	0.323173
	H29	H	0.217311	0.108718	0.651876
	H30	H	0.789208	0.109580	0.322232
	H31	H	0.789010	0.910450	0.651492
	H32	H	0.340198	0.224944	0.888340
	H33	H	0.665988	0.225657	0.087395
	H34	H	0.340942	0.792595	0.088728
	H35	H	0.667217	0.793587	0.886804
	H36	H	0.340202	0.912391	0.201959
	H37	H	0.666498	0.109640	0.202176
	H38	H	0.338893	0.107370	0.773782
	H39	H	0.666621	0.909482	0.770741
	H40	H	0.906260	0.223865	0.322390
	H41	H	0.101977	0.223941	0.651596
	H42	H	0.105795	0.792850	0.323748
	H43	H	0.905419	0.795439	0.651951
	H44	H	0.218914	0.344614	0.888336
	H45	H	0.220995	0.671139	0.087823
	H46	H	0.788145	0.344604	0.087887
	H47	H	0.788718	0.671699	0.886923
	H48	H	0.412011	0.123900	0.574575
	H49	H	0.600644	0.890916	0.582426
	H50	H	0.595123	0.125199	0.397573
	H51	H	0.403958	0.891192	0.394887
	H52	H	0.588979	0.416051	0.102826
	H53	H	0.602031	0.601378	0.868476
	H54	H	0.414275	0.603156	0.105041
	H55	H	0.410714	0.414963	0.868887
	H56	H	0.121226	0.601822	0.393975
	H57	H	0.885648	0.610218	0.582449
	H58	H	0.121101	0.417329	0.580422
	H59	H	0.890619	0.423236	0.394029
	H60	H	0.120893	0.414795	0.579188
	H61	H	0.890907	0.602273	0.572580
	H62	H	0.120773	0.603098	0.396458
	H63	H	0.886313	0.413149	0.390206
	H64	H	0.409983	0.601246	0.104814
	H65	H	0.595471	0.594949	0.872236
	H66	H	0.600372	0.411949	0.106589
	H67	H	0.410546	0.417656	0.869663
	H68	H	0.602238	0.128159	0.395263
	H69	H	0.589097	0.894933	0.579493
	H70	H	0.404562	0.128569	0.581113
	H71	H	0.415797	0.892686	0.388881
	H72	H	0.922215	0.620430	0.076823
	H73	H	0.090672	0.393457	0.079967
	H74	H	0.099259	0.626464	0.894533
	H75	H	0.912747	0.392854	0.898003
	H76	H	0.105069	0.920256	0.605958
	H77	H	0.091615	0.108287	0.369170
	H78	H	0.904135	0.101452	0.606181
	H79	H	0.911510	0.919678	0.370592
	H80	H	0.615969	0.100249	0.903449
	H81	H	0.384158	0.109784	0.082977
	H82	H	0.619080	0.915010	0.075336
	H83	H	0.384756	0.915034	0.885205
	H84	H	0.618620	0.919912	0.079713
	H85	H	0.389159	0.103275	0.074091
	H86	H	0.618416	0.093854	0.889283
	H87	H	0.386032	0.907982	0.899146
	H88	H	0.913929	0.097156	0.600702
	H89	H	0.105159	0.102374	0.367487
	H90	H	0.091135	0.922817	0.601559
	H91	H	0.915317	0.918099	0.372221
	H92	H	0.097109	0.625835	0.895869
	H93	H	0.102481	0.391785	0.072880
	H94	H	0.905136	0.623669	0.071690
	H95	H	0.908686	0.390841	0.893450
	H96	H	0.413957	0.127472	0.585012
	H97	H	0.598471	0.895347	0.570277
	H98	H	0.595952	0.128065	0.390499
	H99	H	0.413515	0.896846	0.401550
	H100	H	0.599223	0.424402	0.102267
	H101	H	0.593017	0.604736	0.870817
	H102	H	0.413537	0.598077	0.103315
	H103	H	0.412781	0.416202	0.870871
	H104	H	0.120420	0.599603	0.395647
	H105	H	0.887572	0.596696	0.584829
	H106	H	0.120041	0.416688	0.578495
	H107	H	0.890092	0.414338	0.401073
	H108	H	0.910647	0.627833	0.088463
	H109	H	0.101679	0.388795	0.085933
	H110	H	0.099428	0.625244	0.897036
	H111	H	0.913847	0.391964	0.891971
	H112	H	0.094753	0.909011	0.606087
	H113	H	0.093768	0.093561	0.372609
	H114	H	0.913446	0.108408	0.605473
	H115	H	0.911710	0.915031	0.370366
	H116	H	0.622860	0.109149	0.891909
	H117	H	0.386669	0.098424	0.084925
	H118	H	0.621294	0.914028	0.082342
	H119	H	0.390446	0.922664	0.897763
	C120	C	0.381451	0.018095	0.608907
	C121	C	0.624836	1.001550	0.608011
	C122	C	0.626321	0.018835	0.364842
	C123	C	0.382255	1.002032	0.366248
	C124	C	0.625250	0.387734	-0.004467
	C125	C	0.626506	0.630261	0.978710
	C126	C	0.383028	0.629918	-0.004106
	C127	C	0.382794	0.387593	0.978489
	C128	C	0.013306	0.631023	0.365261
	C129	C	0.996071	0.631354	0.608854
	C130	C	0.013200	0.387575	0.608912
	C131	C	0.996601	0.387729	0.365673
	C132	C	0.883325	0.516092	0.108847
	C133	C	0.127017	0.499468	0.109042
	C134	C	0.126805	0.517556	0.865650
	C135	C	0.883128	0.500177	0.865594
	C136	C	0.126163	0.887994	0.496222
	C137	C	0.125040	0.130587	0.478595
	C138	C	0.882177	0.131669	0.495431
	C139	C	0.883364	0.888539	0.479357
	C140	C	0.511442	0.130380	0.865872
	C141	C	0.494629	0.132230	0.109127
	C142	C	0.511505	0.888020	0.108467
	C143	C	0.494983	0.886688	0.864678
	C144	C	0.383695	0.894780	0.663501
	C145	C	0.621857	0.124696	0.664355
	C146	C	0.623261	0.895064	0.309424
	C147	C	0.385337	0.125475	0.311950
	C148	C	0.681445	0.388159	0.872180
	C149	C	0.682325	0.629161	0.102025
	C150	C	0.326953	0.628596	0.872821
	C151	C	0.327372	0.388700	0.102013
	C152	C	0.891209	0.687807	0.366037
	C153	C	0.118734	0.687053	0.606866
	C154	C	0.890291	0.332427	0.607508
	C155	C	0.119158	0.331324	0.366950
	C156	C	0.890307	0.390286	0.664839
	C157	C	0.118755	0.629512	0.664368
	C158	C	0.891250	0.629617	0.308739
	C159	C	0.119645	0.389264	0.310205
	C160	C	0.384521	0.685832	0.872718
	C161	C	0.624219	0.686389	0.102122
	C162	C	0.623999	0.330925	0.872129
	C163	C	0.385281	0.332844	0.102257
	C164	C	0.682028	0.895444	0.366063
	C165	C	0.680295	0.124729	0.607073
	C166	C	0.325673	0.895429	0.607082
	C167	C	0.326315	0.124940	0.368024
	C168	C	0.885872	0.392799	0.164439
	C169	C	0.124756	0.623058	0.164413
	C170	C	0.124005	0.394350	0.809524
	C171	C	0.886019	0.623942	0.811448
	C172	C	0.181788	0.889532	0.372406
	C173	C	0.179695	0.128936	0.602580
	C174	C	0.827063	0.129649	0.371597
	C175	C	0.826927	0.890254	0.602492
	C176	C	0.388540	0.186550	0.867950
	C177	C	0.617283	0.187554	0.107188
	C178	C	0.389335	0.831713	0.107806
	C179	C	0.618311	0.831825	0.866862
	C180	C	0.388898	0.891006	0.164305
	C181	C	0.617579	0.129811	0.164297
	C182	C	0.388101	0.128080	0.811046
	C183	C	0.617759	0.889049	0.808758
	C184	C	0.885094	0.186555	0.371596
	C185	C	0.122514	0.186159	0.602509
	C186	C	0.124969	0.831606	0.372674
	C187	C	0.884944	0.833109	0.602670
	C188	C	0.181622	0.394063	0.867318
	C189	C	0.182942	0.622426	0.107985
	C190	C	0.826518	0.393361	0.107947
	C191	C	0.827113	0.623004	0.867320
	C192	C	0.403573	0.104418	0.586807
	C193	C	0.602706	0.915940	0.584266
	C194	C	0.604237	0.104783	0.387477
	C195	C	0.404480	0.915811	0.388492
	C196	C	0.602661	0.410671	0.081479
	C197	C	0.603673	0.607048	0.892757
	C198	C	0.405884	0.607371	0.082035
	C199	C	0.404940	0.409850	0.892259
	C200	C	0.098639	0.608185	0.388507
	C201	C	0.910228	0.609460	0.586654
	C202	C	0.098592	0.409715	0.586230
	C203	C	0.911146	0.410356	0.388335
	C204	C	0.905969	0.601714	0.085743
	C205	C	0.104729	0.413555	0.086309
	C206	C	0.104811	0.603622	0.888788
	C207	C	0.905377	0.414190	0.887910
	C208	C	0.103639	0.910731	0.582346
	C209	C	0.103177	0.108040	0.392084
	C210	C	0.904096	0.109077	0.581786
	C211	C	0.906142	0.911031	0.393342
	C212	C	0.596548	0.107820	0.888330
	C213	C	0.408843	0.110227	0.087191
	C214	C	0.597401	0.910053	0.085752
	C215	C	0.409318	0.908737	0.887391
	Zn216	Zn	0.502786	0.009122	0.736689
	Zn217	Zn	0.503345	0.010338	0.237198
	Zn218	Zn	0.754415	0.507970	-0.012961
	Zn219	Zn	0.255231	0.508265	-0.012100
	Zn220	Zn	0.004813	0.759750	0.487283
	Zn221	Zn	0.004546	0.258787	0.486914
	Zn222	Zn	0.004535	0.509981	0.737591
	Zn223	Zn	0.005694	0.508574	0.237108
	Zn224	Zn	0.503996	0.758444	-0.012786
	Zn225	Zn	0.503488	0.259873	-0.013100
	Zn226	Zn	0.754363	0.009839	0.486758
	Zn227	Zn	0.253637	0.010002	0.487504
	N228	N	0.417838	0.972079	0.664412
	N229	N	0.588349	0.046992	0.665112
	N230	N	0.589405	0.972641	0.308418
	N231	N	0.419514	0.047967	0.310866
	N232	N	0.682457	0.422777	0.949793
	N233	N	0.683782	0.595067	0.024147
	N234	N	0.326015	0.594519	0.950539
	N235	N	0.325729	0.422129	0.023997
	N236	N	0.968319	0.689040	0.400279
	N237	N	0.041384	0.688484	0.573036
	N238	N	0.967532	0.330592	0.573245
	N239	N	0.041506	0.329947	0.400735
	N240	N	0.967732	0.423993	0.665850
	N241	N	0.041405	0.595689	0.665699
	N242	N	0.968245	0.595292	0.308060
	N243	N	0.042497	0.423515	0.309251
	N244	N	0.418886	0.686521	0.950292
	N245	N	0.590494	0.687500	0.024211
	N246	N	0.589726	0.330576	0.949848
	N247	N	0.419248	0.332082	0.024469
	N248	N	0.684181	0.973483	0.399483
	N249	N	0.682273	0.047144	0.572715
	N250	N	0.324065	0.973318	0.573791
	N251	N	0.324248	0.047014	0.401047
	N252	N	0.920210	0.470215	0.165272
	N253	N	0.090429	0.545726	0.164983
	N254	N	0.090819	0.472230	0.808283
	N255	N	0.920008	0.546479	0.810280
	N256	N	0.182675	0.923771	0.450212
	N257	N	0.181381	0.095148	0.524615
	N258	N	0.825095	0.096127	0.449674
	N259	N	0.825875	0.924002	0.524687
	N260	N	0.466121	0.188250	0.901347
	N261	N	0.539794	0.189201	0.073464
	N262	N	0.466834	0.829802	0.073969
	N263	N	0.540799	0.829798	0.900817
	N264	N	0.466032	0.925067	0.164829
	N265	N	0.540329	0.096063	0.165566
	N266	N	0.465214	0.093886	0.809646
	N267	N	0.540288	0.922347	0.807359
	N268	N	0.918452	0.187994	0.449603
	N269	N	0.089336	0.187396	0.524299
	N270	N	0.091125	0.830404	0.450514
	N271	N	0.919121	0.831792	0.524905
	N272	N	0.183510	0.471689	0.901433
	N273	N	0.184341	0.544703	0.074347
	N274	N	0.825043	0.470939	0.074006
	N275	N	0.824950	0.544939	0.900120
	O276	O	-0.101763	-0.008618	-0.006035
	H277	H	-0.105375	-0.015837	0.000686
	H278	H	-0.106843	-0.012551	-0.012929
	O279	O	0.400580	0.590030	0.492370
	H280	H	0.403621	0.582803	0.489913
	H281	H	0.399922	0.592142	0.508657
	O282	O	0.583342	0.502833	0.482103
	H283	H	0.592669	0.494106	0.467933
	H284	H	0.579083	0.500500	0.487939
	O285	O	1.007910	-0.034375	1.007912
	H286	H	1.004809	-0.033928	1.008205
	H287	H	0.992811	-0.030686	1.013526
	O288	O	0.993049	-0.025367	-0.021818
	H289	H	0.995727	-0.027087	-0.023427
	H290	H	0.997788	-0.020841	-0.025839
	O291	O	0.556596	0.619079	0.569237
	H292	H	0.552411	0.624072	0.567710
	H293	H	0.553027	0.622350	0.567013
	O294	O	0.964355	-0.065653	1.080593
	H295	H	0.968458	-0.069528	1.077271
	H296	H	0.962189	-0.075779	1.085555
	O297	O	-0.060680	-0.016354	0.012525
	H298	H	-0.067095	-0.031082	0.019000
	H299	H	-0.065216	-0.013050	0.014271
	O300	O	0.564087	0.554675	0.487117
	H301	H	0.565859	0.552649	0.507384
	H302	H	0.562724	0.549265	0.485386
	O303	O	0.432166	0.464246	0.564371
	H304	H	0.432746	0.458530	0.572305
	H305	H	0.430556	0.463686	0.564996
	O306	O	0.959467	-0.012030	-0.051337
	H307	H	0.957475	-0.006953	-0.044815
	H308	H	0.973014	-0.007488	-0.049103
	O309	O	-0.029972	-0.040954	0.999542
	H310	H	-0.038842	-0.042366	0.995402
	H311	H	-0.031266	-0.046539	1.008913
	O312	O	1.509969	0.563569	1.453012
	H313	H	1.510737	0.568131	1.451384
	H314	H	1.513827	0.562437	1.456295
	O315	O	0.443953	0.513492	0.467252
	H316	H	0.437685	0.528165	0.452964
	H317	H	0.447870	0.518937	0.472655
	O318	O	0.646966	0.551632	0.504975
	H319	H	0.642026	0.565556	0.498209
	H320	H	0.656905	0.544038	0.522208
	O321	O	-0.120682	0.909898	1.047916
	H322	H	-0.115007	0.898259	1.050213
	H323	H	-0.124529	0.907523	1.060955
	O324	O	0.511089	0.408629	0.469774
	H325	H	0.522362	0.405602	0.469658
	H326	H	0.514335	0.407692	0.468387
	O327	O	0.638460	0.567835	0.542955
	H328	H	0.643429	0.570984	0.549512
	H329	H	0.648273	0.576272	0.542543
	O330	O	0.471298	0.397187	0.477059
	H331	H	0.463201	0.399703	0.473534
	H332	H	0.486338	0.381035	0.475215
	O333	O	0.476292	0.429617	0.414519
	H334	H	0.470995	0.427171	0.409492
	H335	H	0.470118	0.439078	0.411899
	O336	O	0.486288	0.463058	0.439395
	H337	H	0.483215	0.462527	0.451074
	H338	H	0.499608	0.457824	0.434443
	O339	O	1.492792	0.519781	0.611445
	H340	H	1.490844	0.522769	0.605901
	H341	H	1.489068	0.526030	0.628734
	O342	O	0.504168	0.591296	0.464474
	H343	H	0.500698	0.592948	0.470964
	H344	H	0.515242	0.588568	0.462299
	O345	O	0.579369	0.504289	0.421449
	H346	H	0.584074	0.504356	0.421127
	H347	H	0.584322	0.506610	0.406237
	O348	O	-0.525136	0.533806	0.495292
	H349	H	-0.528057	0.531532	0.491892
	H350	H	-0.526093	0.526656	0.497625
	O351	O	-0.070377	0.898680	0.975534
	H352	H	-0.062204	0.909639	0.981306
	H353	H	-0.055010	0.903649	0.964718
	O354	O	0.438761	0.549443	0.445762
	H355	H	0.437961	0.561075	0.446544
	H356	H	0.431482	0.552577	0.436198
	O357	O	-0.037493	0.983931	1.046308
	H358	H	-0.039536	0.978061	1.044681
	H359	H	-0.037317	0.993399	1.029888
