data_Molecule from HDF5

_cell_length_a		16.315291
_cell_length_b		16.589552
_cell_length_c		16.317688
_cell_angle_alpha	89.821620
_cell_angle_beta	90.029338
_cell_angle_gamma	90.036434
_symmetry_space_group_name_H-M	'P 1'
_symmetry_Int_Tables_number		1

loop_
	_symmetry_equiv_pos_as_xyz
	x,y,z

loop_
	_atom_site_label
	_atom_site_type_symbol
	_atom_site_fract_x
	_atom_site_fract_y
	_atom_site_fract_z
	H0	H	0.389041	0.825712	0.726002
	H1	H	0.601126	0.140101	0.720909
	H2	H	0.600696	0.823980	0.280073
	H3	H	0.389470	0.139000	0.278719
	H4	H	0.717376	0.376631	0.844931
	H5	H	0.712037	0.583476	0.163653
	H6	H	0.273959	0.588033	0.841951
	H7	H	0.276298	0.380537	0.163216
	H8	H	0.836834	0.703227	0.394926
	H9	H	0.156366	0.702162	0.608207
	H10	H	0.840328	0.255205	0.610251
	H11	H	0.155679	0.260836	0.394091
	H12	H	0.836541	0.375049	0.721907
	H13	H	0.156579	0.584231	0.721795
	H14	H	0.833709	0.583976	0.284489
	H15	H	0.157600	0.382089	0.284332
	H16	H	0.385068	0.708257	0.843635
	H17	H	0.600817	0.703034	0.161109
	H18	H	0.606808	0.255655	0.847315
	H19	H	0.382802	0.257755	0.159498
	H20	H	0.720430	0.823905	0.393480
	H21	H	0.719382	0.137941	0.604518
	H22	H	0.276797	0.823257	0.605860
	H23	H	0.273230	0.138727	0.395997
	H24	H	0.891527	0.323973	0.222779
	H25	H	0.093959	0.642202	0.216989
	H26	H	0.103254	0.323641	0.779559
	H27	H	0.891575	0.639411	0.780337
	H28	H	0.210716	0.885493	0.340175
	H29	H	0.215037	0.082399	0.664074
	H30	H	0.780636	0.082137	0.339717
	H31	H	0.775820	0.874679	0.661576
	H32	H	0.335783	0.205593	0.894846
	H33	H	0.652814	0.206469	0.111895
	H34	H	0.335878	0.764473	0.105291
	H35	H	0.655423	0.762985	0.896579
	H36	H	0.334976	0.883742	0.218479
	H37	H	0.656103	0.084667	0.220235
	H38	H	0.334453	0.086778	0.781843
	H39	H	0.656598	0.880553	0.783947
	H40	H	0.892370	0.202400	0.342921
	H41	H	0.108826	0.206619	0.660351
	H42	H	0.098029	0.764545	0.341968
	H43	H	0.890983	0.758799	0.661182
	H44	H	0.220918	0.324791	0.894617
	H45	H	0.211704	0.641296	0.101126
	H46	H	0.774719	0.324394	0.106221
	H47	H	0.774647	0.640557	0.897311
	H48	H	0.410401	0.092443	0.589291
	H49	H	0.583044	0.870334	0.593529
	H50	H	0.587689	0.095739	0.404787
	H51	H	0.413236	0.872618	0.412225
	H52	H	0.584991	0.401799	0.114127
	H53	H	0.586661	0.576074	0.886143
	H54	H	0.405567	0.582012	0.119115
	H55	H	0.412136	0.392792	0.890080
	H56	H	0.109461	0.571754	0.413566
	H57	H	0.882536	0.568694	0.592311
	H58	H	0.108394	0.394707	0.586357
	H59	H	0.879071	0.385478	0.411099
	H60	H	0.111042	0.394811	0.593083
	H61	H	0.881543	0.574455	0.589932
	H62	H	0.110690	0.571820	0.408627
	H63	H	0.884029	0.388995	0.421510
	H64	H	0.399327	0.569979	0.116936
	H65	H	0.584634	0.570692	0.888513
	H66	H	0.572087	0.390865	0.114223
	H67	H	0.407046	0.395914	0.888858
	H68	H	0.580808	0.089030	0.415416
	H69	H	0.585387	0.869685	0.590676
	H70	H	0.402746	0.095077	0.588577
	H71	H	0.402630	0.870709	0.417527
	H72	H	0.903120	0.594246	0.089498
	H73	H	0.081336	0.369524	0.095781
	H74	H	0.085614	0.592487	0.912707
	H75	H	0.904907	0.368247	0.910255
	H76	H	0.082097	0.881950	0.619091
	H77	H	0.075387	0.073084	0.391679
	H78	H	0.905856	0.063096	0.614729
	H79	H	0.909232	0.886280	0.386236
	H80	H	0.606331	0.072689	0.921774
	H81	H	0.376599	0.074458	0.099080
	H82	H	0.612583	0.895403	0.099243
	H83	H	0.380379	0.896784	0.909187
	H84	H	0.613724	0.883079	0.090177
	H85	H	0.382660	0.077208	0.082274
	H86	H	0.606607	0.066324	0.912600
	H87	H	0.379697	0.887030	0.914969
	H88	H	0.917085	0.067604	0.612547
	H89	H	0.089804	0.079175	0.385034
	H90	H	0.094303	0.889249	0.620334
	H91	H	0.904581	0.893590	0.387155
	H92	H	0.082671	0.591969	0.910109
	H93	H	0.085989	0.370143	0.088183
	H94	H	0.899696	0.597166	0.095677
	H95	H	0.909957	0.371944	0.914852
	H96	H	0.406394	0.095503	0.595684
	H97	H	0.586026	0.868369	0.593660
	H98	H	0.594619	0.094292	0.417448
	H99	H	0.403860	0.866994	0.406028
	H100	H	0.587075	0.386753	0.120835
	H101	H	0.580263	0.575534	0.887667
	H102	H	0.412431	0.571864	0.112202
	H103	H	0.411175	0.398118	0.891596
	H104	H	0.111200	0.575820	0.411829
	H105	H	0.884349	0.570321	0.586225
	H106	H	0.111008	0.388775	0.588875
	H107	H	0.883223	0.396651	0.412680
	H108	H	0.906803	0.595368	0.095463
	H109	H	0.090038	0.366566	0.095437
	H110	H	0.082074	0.591449	0.913661
	H111	H	0.902892	0.370594	0.917212
	H112	H	0.082489	0.895606	0.615018
	H113	H	0.089173	0.063008	0.390232
	H114	H	0.908384	0.074359	0.617627
	H115	H	0.912859	0.892893	0.390306
	H116	H	0.609808	0.076783	0.912322
	H117	H	0.384823	0.061679	0.090067
	H118	H	0.608585	0.896194	0.084752
	H119	H	0.384935	0.896069	0.919678
	C120	C	0.373972	-0.009719	0.623807
	C121	C	0.618287	0.973168	0.623738
	C122	C	0.619084	-0.010982	0.379940
	C123	C	0.374240	0.974037	0.380050
	C124	C	0.616224	0.360141	0.012300
	C125	C	0.615625	0.604089	0.993523
	C126	C	0.372905	0.606391	0.010523
	C127	C	0.375057	0.362563	0.994460
	C128	C	0.004213	0.603813	0.380231
	C129	C	0.988515	0.602261	0.622157
	C130	C	0.005337	0.359466	0.622924
	C131	C	0.987924	0.360240	0.381682
	C132	C	0.872296	0.490968	0.124820
	C133	C	0.116090	0.473671	0.122942
	C134	C	0.117761	0.488893	0.879547
	C135	C	0.873371	0.473772	0.880747
	C136	C	0.116992	0.860203	0.511430
	C137	C	0.117944	0.102982	0.494493
	C138	C	0.877763	0.100622	0.509740
	C139	C	0.875343	0.858280	0.492726
	C140	C	0.502672	0.104574	0.881881
	C141	C	0.486569	0.103375	0.123258
	C142	C	0.505114	0.861567	0.122814
	C143	C	0.487369	0.861810	0.881880
	C144	C	0.371441	0.872382	0.684951
	C145	C	0.620329	0.092114	0.682071
	C146	C	0.620516	0.871262	0.319412
	C147	C	0.371406	0.091980	0.319323
	C148	C	0.677821	0.357700	0.892979
	C149	C	0.673436	0.603294	0.115130
	C150	C	0.313026	0.607270	0.890270
	C151	C	0.314551	0.360849	0.114436
	C152	C	0.884322	0.663392	0.377551
	C153	C	0.108309	0.661908	0.625532
	C154	C	0.887038	0.296730	0.627561
	C155	C	0.108127	0.301308	0.377703
	C156	C	0.885185	0.356477	0.682891
	C157	C	0.108594	0.603347	0.682273
	C158	C	0.882924	0.603677	0.322437
	C159	C	0.108820	0.361388	0.322611
	C160	C	0.368440	0.667359	0.891222
	C161	C	0.618100	0.662814	0.113822
	C162	C	0.622713	0.297480	0.894251
	C163	C	0.368164	0.299986	0.112757
	C164	C	0.679693	0.871141	0.376343
	C165	C	0.679162	0.091095	0.624348
	C166	C	0.315051	0.871448	0.625442
	C167	C	0.313567	0.091875	0.377821
	C168	C	0.871893	0.371746	0.183782
	C169	C	0.114397	0.594037	0.178712
	C170	C	0.121234	0.370910	0.819583
	C171	C	0.872383	0.592312	0.820426
	C172	C	0.173236	0.863599	0.388977
	C173	C	0.177043	0.103166	0.615469
	C174	C	0.819014	0.101419	0.388712
	C175	C	0.815188	0.855947	0.613256
	C176	C	0.383325	0.164937	0.877850
	C177	C	0.605686	0.164797	0.127590
	C178	C	0.383993	0.803763	0.124006
	C179	C	0.607566	0.802877	0.879190
	C180	C	0.383493	0.862763	0.180283
	C181	C	0.607579	0.104511	0.181918
	C182	C	0.382730	0.105897	0.821310
	C183	C	0.608320	0.861584	0.823113
	C184	C	0.875099	0.161097	0.390013
	C185	C	0.123684	0.164537	0.613516
	C186	C	0.117417	0.803774	0.389776
	C187	C	0.872584	0.798392	0.613123
	C188	C	0.180035	0.371605	0.876984
	C189	C	0.172953	0.593725	0.121079
	C190	C	0.813881	0.371866	0.125546
	C191	C	0.813901	0.592607	0.878341
	C192	C	0.399159	0.072896	0.598507
	C193	C	0.592433	0.890859	0.599461
	C194	C	0.594562	0.071377	0.405341
	C195	C	0.399382	0.891550	0.404851
	C196	C	0.589039	0.385773	0.094856
	C197	C	0.591097	0.580653	0.909388
	C198	C	0.398550	0.581764	0.094242
	C199	C	0.402406	0.388381	0.911821
	C200	C	0.088518	0.580080	0.404513
	C201	C	0.904687	0.577902	0.596783
	C202	C	0.088489	0.385232	0.596838
	C203	C	0.904042	0.383720	0.407461
	C204	C	0.896368	0.574008	0.100524
	C205	C	0.092576	0.390392	0.099981
	C206	C	0.091277	0.570707	0.904891
	C207	C	0.898535	0.391733	0.906618
	C208	C	0.093292	0.882494	0.596164
	C209	C	0.092259	0.078846	0.410834
	C210	C	0.903061	0.075525	0.593255
	C211	C	0.901314	0.883558	0.409649
	C212	C	0.585874	0.079073	0.908033
	C213	C	0.403028	0.078253	0.097884
	C214	C	0.589609	0.884724	0.098333
	C215	C	0.403436	0.886388	0.907215
	Zn216	Zn	0.495704	-0.017516	0.753347
	Zn217	Zn	0.496603	-0.017214	0.251357
	Zn218	Zn	0.743381	0.483183	0.002652
	Zn219	Zn	0.246412	0.482387	0.001751
	Zn220	Zn	-0.003566	0.731038	0.501600
	Zn221	Zn	-0.002222	0.231235	0.502059
	Zn222	Zn	-0.004227	0.480644	0.750397
	Zn223	Zn	-0.004947	0.481995	0.253688
	Zn224	Zn	0.495827	0.733203	0.001610
	Zn225	Zn	0.493735	0.232928	0.003592
	Zn226	Zn	0.748036	-0.019895	0.501650
	Zn227	Zn	0.245232	-0.018078	0.502660
	N228	N	0.407491	0.947286	0.683982
	N229	N	0.583384	0.017582	0.682210
	N230	N	0.583430	0.945640	0.321460
	N231	N	0.408850	0.017832	0.320960
	N232	N	0.673721	0.396127	0.967237
	N233	N	0.671955	0.567310	0.039336
	N234	N	0.315762	0.569803	0.965347
	N235	N	0.318801	0.399343	0.039899
	N236	N	0.960972	0.663752	0.412675
	N237	N	0.032365	0.661564	0.588950
	N238	N	0.962935	0.298413	0.591188
	N239	N	0.031829	0.300292	0.413444
	N240	N	0.959787	0.394578	0.680175
	N241	N	0.032870	0.566887	0.680253
	N242	N	0.958409	0.567281	0.324022
	N243	N	0.032858	0.397336	0.324783
	N244	N	0.405317	0.666643	0.966986
	N245	N	0.582661	0.663318	0.037369
	N246	N	0.584826	0.299068	0.969526
	N247	N	0.405106	0.300882	0.037117
	N248	N	0.678881	0.945389	0.413235
	N249	N	0.678288	0.015839	0.589287
	N250	N	0.316928	0.945697	0.587829
	N251	N	0.315385	0.017564	0.414893
	N252	N	0.907307	0.446786	0.183561
	N253	N	0.079861	0.518443	0.180100
	N254	N	0.083037	0.444664	0.821260
	N255	N	0.908411	0.517395	0.821296
	N256	N	0.173141	0.897719	0.465688
	N257	N	0.173426	0.065575	0.540752
	N258	N	0.820617	0.064386	0.464255
	N259	N	0.816516	0.892230	0.537568
	N260	N	0.459078	0.164237	0.914674
	N261	N	0.529369	0.164149	0.091930
	N262	N	0.460743	0.802722	0.089317
	N263	N	0.531137	0.802974	0.914838
	N264	N	0.459794	0.897904	0.179691
	N265	N	0.532536	0.067026	0.179297
	N266	N	0.458229	0.069210	0.823322
	N267	N	0.532421	0.897287	0.824462
	N268	N	0.910910	0.160820	0.466179
	N269	N	0.087521	0.164550	0.537255
	N270	N	0.083511	0.801365	0.466845
	N271	N	0.909069	0.799607	0.537102
	N272	N	0.178117	0.446174	0.913446
	N273	N	0.174315	0.517910	0.087341
	N274	N	0.813921	0.447064	0.089791
	N275	N	0.814029	0.517789	0.914789
	O276	O	0.371667	0.693624	0.536738
	H277	H	0.387027	0.676829	0.520754
	H278	H	0.367978	0.711916	0.554944
	O279	O	0.511597	0.501921	0.571100
	H280	H	0.517613	0.490032	0.549207
	H281	H	0.501315	0.489833	0.566745
	O282	O	0.705445	0.421342	0.315590
	H283	H	0.706841	0.428323	0.321622
	H284	H	0.719547	0.440286	0.304822
	O285	O	1.090706	0.925850	-0.094672
	H286	H	1.091311	0.917334	-0.096460
	H287	H	1.087971	0.935260	-0.099182
	O288	O	0.562871	0.495727	0.359694
	H289	H	0.554280	0.491691	0.363849
	H290	H	0.570202	0.495517	0.367347
	O291	O	0.282636	0.501294	0.372313
	H292	H	0.274267	0.522853	0.361441
	H293	H	0.284689	0.526628	0.366530
	O294	O	0.986999	1.037350	0.948075
	H295	H	0.998046	1.040442	0.942373
	H296	H	0.982188	1.036886	0.926288
	O297	O	0.308129	0.316903	0.679221
	H298	H	0.296949	0.328087	0.650842
	H299	H	0.298136	0.341002	0.660448
	O300	O	0.316651	0.389285	0.431964
	H301	H	0.315936	0.406318	0.424598
	H302	H	0.331947	0.396424	0.412143
	O303	O	0.435901	0.371577	0.342654
	H304	H	0.447672	0.373945	0.331626
	H305	H	0.446981	0.365487	0.341811
	O306	O	0.136213	-0.158479	0.901207
	H307	H	0.130799	-0.144513	0.897688
	H308	H	0.124912	-0.146584	0.890639
	O309	O	0.971194	-0.149226	-0.108485
	H310	H	0.972628	-0.132547	-0.103534
	H311	H	0.984017	-0.143061	-0.106075
	O312	O	-0.001581	1.132714	0.805349
	H313	H	-0.000479	1.160766	0.780857
	H314	H	-0.031363	1.131876	0.810690
	O315	O	1.046000	1.192189	0.198406
	H316	H	1.056603	1.213076	0.227429
	H317	H	1.054348	1.194501	0.177946
	O318	O	-0.098568	-0.106290	0.149303
	H319	H	-0.095070	-0.092059	0.143848
	H320	H	-0.101253	-0.106545	0.137102
	O321	O	0.474696	0.566089	0.491168
	H322	H	0.461365	0.563174	0.482987
	H323	H	0.485519	0.575858	0.478187
	O324	O	0.814501	0.169922	0.820635
	H325	H	0.795752	0.167708	0.799361
	H326	H	0.804686	0.176840	0.874182
	O327	O	0.236569	0.748883	0.245976
	H328	H	0.221451	0.745606	0.272910
	H329	H	0.219388	0.778096	0.230943
	O330	O	0.081170	0.974476	1.056388
	H331	H	0.085030	0.958455	1.058454
	H332	H	0.079269	0.977452	1.066969
	O333	O	-0.142454	1.067053	-0.032935
	H334	H	-0.157020	1.082027	-0.039268
	H335	H	-0.132346	1.072054	-0.005430
	O336	O	0.936572	0.792390	0.149019
	H337	H	0.912598	0.787585	0.158857
	H338	H	0.924627	0.791782	0.128471
	O339	O	-0.205457	0.956320	1.115891
	H340	H	-0.218127	0.945867	1.114337
	H341	H	-0.198691	0.948084	1.116922
	O342	O	0.563607	0.382395	0.444297
	H343	H	0.549408	0.399001	0.442350
	H344	H	0.554618	0.389879	0.457634
	O345	O	0.011692	0.076924	0.849222
	H346	H	0.015181	0.067934	0.849251
	H347	H	-0.000777	0.107492	0.841541
	O348	O	0.444018	0.500046	0.506824
	H349	H	0.427054	0.500847	0.481381
	H350	H	0.447460	0.501205	0.515870
	O351	O	1.020866	1.015081	0.045165
	H352	H	1.022330	1.005267	0.042577
	H353	H	1.010825	1.025627	0.051952
	O354	O	0.900579	1.174658	0.997755
	H355	H	0.899912	1.153969	1.017849
	H356	H	0.893052	1.182174	0.984963
	O357	O	-0.485834	0.695061	-0.284277
	H358	H	-0.460541	0.689749	-0.297896
	H359	H	-0.488534	0.713956	-0.264103
	O360	O	0.718030	0.478703	0.644207
	H361	H	0.704888	0.475359	0.638476
	H362	H	0.731891	0.481514	0.680939
	O363	O	0.642084	-0.380996	0.407646
	H364	H	0.631966	-0.372201	0.422704
	H365	H	0.642074	-0.376333	0.411085
	O366	O	0.072961	-0.144261	1.000767
	H367	H	0.064950	-0.131287	0.981720
	H368	H	0.081398	-0.147240	0.992259
	O369	O	1.662011	0.472200	0.451615
	H370	H	1.667937	0.487774	0.458810
	H371	H	1.652300	0.461037	0.446728
	O372	O	0.452615	0.524949	0.719638
	H373	H	0.467174	0.543903	0.717750
	H374	H	0.462371	0.519138	0.706963
	O375	O	-0.033687	-0.183040	0.871737
	H376	H	-0.039195	-0.183726	0.858434
	H377	H	-0.031047	-0.173416	0.864227
	O378	O	0.328205	0.687882	0.407620
	H379	H	0.350378	0.681242	0.420439
	H380	H	0.321501	0.701783	0.415815
	O381	O	0.013368	0.894187	0.070130
	H382	H	-0.005779	0.891366	0.062304
	H383	H	0.013539	0.902359	0.069644
	O384	O	0.519799	0.260347	0.295424
	H385	H	0.538749	0.247586	0.277169
	H386	H	0.557074	0.255145	0.291949
	O387	O	0.674872	0.670690	0.686970
	H388	H	0.678203	0.668420	0.656742
	H389	H	0.674833	0.630909	0.695243
	O390	O	0.782346	1.009441	-0.208513
	H391	H	0.803774	1.021727	-0.206142
	H392	H	0.754124	1.013128	-0.242373
	O393	O	1.123507	0.019296	1.099437
	H394	H	1.127662	0.004943	1.087047
	H395	H	1.137278	0.018755	1.085982
	O396	O	0.318076	0.301766	0.501183
	H397	H	0.310774	0.322366	0.481724
	H398	H	0.311614	0.289180	0.481904
	O399	O	0.582296	0.280419	0.604268
	H400	H	0.558100	0.284118	0.601533
	H401	H	0.564553	0.274945	0.592224
	O402	O	1.121401	0.897131	0.174618
	H403	H	1.106214	0.906466	0.165397
	H404	H	1.118187	0.907799	0.165804
	O405	O	0.462904	0.268245	0.724705
	H406	H	0.427447	0.261118	0.733463
	H407	H	0.440488	0.250507	0.741467
	O408	O	0.634536	0.550301	0.510817
	H409	H	0.618003	0.542197	0.510810
	H410	H	0.614447	0.551990	0.510528
	O411	O	0.899047	1.120839	1.095993
	H412	H	0.903069	1.116485	1.079178
	H413	H	0.906585	1.117914	1.085570
	O414	O	0.569556	0.288748	0.441309
	H415	H	0.571380	0.295239	0.450541
	H416	H	0.557341	0.283005	0.435714
	O417	O	0.639237	1.465303	0.675248
	H418	H	0.612532	1.452112	0.667296
	H419	H	0.645843	1.453612	0.693712
	O420	O	-0.165976	0.961587	1.151016
	H421	H	-0.166683	0.960002	1.160325
	H422	H	-0.156554	0.966376	1.156846
	O423	O	0.152703	1.053353	0.013394
	H424	H	0.146002	1.049605	0.012924
	H425	H	0.147936	1.050380	0.008130
	O426	O	0.641951	0.281123	0.385115
	H427	H	0.659926	0.274104	0.395043
	H428	H	0.645712	0.303453	0.387380
	O429	O	0.503749	0.686401	0.297609
	H430	H	0.489374	0.682681	0.292063
	H431	H	0.487563	0.685837	0.291406
	O432	O	0.643937	0.699260	0.497916
	H433	H	0.659100	0.717983	0.496135
	H434	H	0.638439	0.707875	0.487696
	O435	O	0.297219	0.496330	0.536230
	H436	H	0.307108	0.503564	0.535005
	H437	H	0.291400	0.498765	0.537432
	O438	O	0.185710	1.150151	1.006019
	H439	H	0.200574	1.169042	1.002485
	H440	H	0.176357	1.144630	1.015531
	O441	O	0.301722	0.479820	0.703101
	H442	H	0.281562	0.484538	0.711795
	H443	H	0.332277	0.496540	0.712115
