data_Molecule from HDF5

_cell_length_a		16.142765
_cell_length_b		16.219308
_cell_length_c		16.338479
_cell_angle_alpha	89.870965
_cell_angle_beta	90.198442
_cell_angle_gamma	90.291694
_symmetry_space_group_name_H-M	'P 1'
_symmetry_Int_Tables_number		1

loop_
	_symmetry_equiv_pos_as_xyz
	x,y,z

loop_
	_atom_site_label
	_atom_site_type_symbol
	_atom_site_fract_x
	_atom_site_fract_y
	_atom_site_fract_z
	H0	H	0.396186	0.835137	0.714562
	H1	H	0.602306	0.161399	0.712486
	H2	H	0.599140	0.833685	0.281781
	H3	H	0.398857	0.159939	0.278402
	H4	H	0.713046	0.400052	0.835148
	H5	H	0.713446	0.596316	0.162064
	H6	H	0.282425	0.594051	0.835756
	H7	H	0.286861	0.397947	0.163180
	H8	H	0.833736	0.709273	0.402065
	H9	H	0.163686	0.712618	0.599532
	H10	H	0.836057	0.280409	0.600855
	H11	H	0.164623	0.285196	0.402776
	H12	H	0.834280	0.396973	0.712559
	H13	H	0.162568	0.598793	0.717606
	H14	H	0.835279	0.599588	0.282794
	H15	H	0.162654	0.396622	0.284634
	H16	H	0.395809	0.713349	0.835289
	H17	H	0.598635	0.714094	0.160615
	H18	H	0.598154	0.284063	0.834526
	H19	H	0.399871	0.279617	0.161023
	H20	H	0.711602	0.831574	0.398793
	H21	H	0.714768	0.160634	0.594316
	H22	H	0.286403	0.832837	0.592479
	H23	H	0.286671	0.162610	0.396834
	H24	H	0.896431	0.334242	0.216761
	H25	H	0.101047	0.660979	0.215616
	H26	H	0.099765	0.334358	0.783682
	H27	H	0.896406	0.659566	0.781912
	H28	H	0.210506	0.900486	0.333596
	H29	H	0.215813	0.096127	0.660297
	H30	H	0.784589	0.095709	0.334609
	H31	H	0.783070	0.896053	0.661013
	H32	H	0.333864	0.208852	0.898831
	H33	H	0.663534	0.211545	0.095065
	H34	H	0.334247	0.782265	0.095623
	H35	H	0.663264	0.784527	0.898400
	H36	H	0.335575	0.893962	0.212899
	H37	H	0.663402	0.098993	0.212795
	H38	H	0.335222	0.098329	0.781222
	H39	H	0.663504	0.898873	0.783619
	H40	H	0.899505	0.215353	0.337274
	H41	H	0.100614	0.210620	0.662913
	H42	H	0.098668	0.780714	0.336071
	H43	H	0.899662	0.781265	0.661669
	H44	H	0.208603	0.331791	0.904654
	H45	H	0.216619	0.660296	0.100275
	H46	H	0.784294	0.332768	0.096910
	H47	H	0.786518	0.661531	0.901469
	H48	H	0.415788	0.113778	0.591228
	H49	H	0.598574	0.877229	0.593526
	H50	H	0.591053	0.112595	0.406029
	H51	H	0.414499	0.883850	0.405449
	H52	H	0.588602	0.409477	0.111827
	H53	H	0.591862	0.587630	0.882968
	H54	H	0.406146	0.584106	0.113186
	H55	H	0.396095	0.402238	0.880625
	H56	H	0.113785	0.583043	0.410285
	H57	H	0.882395	0.584105	0.594597
	H58	H	0.117705	0.403625	0.593965
	H59	H	0.885282	0.412310	0.410816
	H60	H	0.116223	0.407943	0.593077
	H61	H	0.878944	0.592322	0.594336
	H62	H	0.119014	0.590329	0.400109
	H63	H	0.879941	0.406499	0.402913
	H64	H	0.414272	0.590304	0.111581
	H65	H	0.590272	0.595158	0.881459
	H66	H	0.586255	0.399483	0.114076
	H67	H	0.405594	0.409370	0.883780
	H68	H	0.593833	0.114160	0.403355
	H69	H	0.582440	0.879918	0.598157
	H70	H	0.406358	0.113178	0.581833
	H71	H	0.398402	0.881350	0.411632
	H72	H	0.910102	0.616301	0.101432
	H73	H	0.080724	0.382406	0.095235
	H74	H	0.085731	0.609644	0.916046
	H75	H	0.905257	0.380323	0.909091
	H76	H	0.083805	0.912108	0.608916
	H77	H	0.083753	0.093536	0.384503
	H78	H	0.906389	0.091610	0.615714
	H79	H	0.904238	0.902544	0.381575
	H80	H	0.615985	0.095546	0.912207
	H81	H	0.381074	0.085916	0.091936
	H82	H	0.616723	0.906510	0.091565
	H83	H	0.382015	0.910097	0.903513
	H84	H	0.617541	0.904377	0.089858
	H85	H	0.380289	0.090410	0.087728
	H86	H	0.615423	0.082317	0.903009
	H87	H	0.379814	0.902889	0.900865
	H88	H	0.905169	0.086141	0.613918
	H89	H	0.094151	0.099757	0.378925
	H90	H	0.090475	0.892224	0.617380
	H91	H	0.904781	0.905022	0.382494
	H92	H	0.098742	0.615480	0.908981
	H93	H	0.093670	0.381375	0.086079
	H94	H	0.913971	0.610777	0.086979
	H95	H	0.902193	0.377813	0.904272
	H96	H	0.402987	0.117888	0.593762
	H97	H	0.587137	0.882850	0.582599
	H98	H	0.590239	0.113328	0.402909
	H99	H	0.402799	0.876614	0.395065
	H100	H	0.595868	0.403444	0.116049
	H101	H	0.596787	0.592467	0.880469
	H102	H	0.406142	0.593464	0.115792
	H103	H	0.407350	0.397056	0.881590
	H104	H	0.117431	0.596525	0.411556
	H105	H	0.884005	0.588476	0.587136
	H106	H	0.118760	0.406568	0.596563
	H107	H	0.882629	0.400952	0.412414
	H108	H	0.898827	0.616222	0.089934
	H109	H	0.095275	0.377190	0.101496
	H110	H	0.084881	0.614625	0.901247
	H111	H	0.907988	0.379065	0.902510
	H112	H	0.105211	0.909469	0.616294
	H113	H	0.095633	0.085959	0.381849
	H114	H	0.909786	0.087767	0.613066
	H115	H	0.907038	0.902542	0.382482
	H116	H	0.620793	0.095991	0.896472
	H117	H	0.382919	0.085747	0.086022
	H118	H	0.616954	0.906833	0.088400
	H119	H	0.381921	0.904575	0.908289
	C120	C	0.378507	0.006711	0.617876
	C121	C	0.620276	0.988567	0.619294
	C122	C	0.620502	0.004855	0.375488
	C123	C	0.376862	0.988750	0.374488
	C124	C	0.619730	0.376132	0.006183
	C125	C	0.621597	0.620273	0.989606
	C126	C	0.377442	0.618488	0.006701
	C127	C	0.375502	0.373623	0.990077
	C128	C	0.007836	0.618665	0.378130
	C129	C	0.990353	0.618493	0.621514
	C130	C	0.008467	0.375889	0.622556
	C131	C	0.990973	0.377172	0.379679
	C132	C	0.877308	0.506142	0.121812
	C133	C	0.120410	0.488636	0.122576
	C134	C	0.118748	0.505260	0.879638
	C135	C	0.877036	0.487851	0.877483
	C136	C	0.120955	0.875983	0.506266
	C137	C	0.121484	0.120803	0.489649
	C138	C	0.877505	0.118379	0.506935
	C139	C	0.876489	0.874126	0.489889
	C140	C	0.508143	0.119644	0.875097
	C141	C	0.490498	0.117335	0.117769
	C142	C	0.508046	0.875758	0.118296
	C143	C	0.490172	0.877027	0.875654
	C144	C	0.377832	0.883632	0.675003
	C145	C	0.620730	0.112020	0.674270
	C146	C	0.618915	0.882087	0.319849
	C147	C	0.379426	0.111657	0.317744
	C148	C	0.675492	0.379307	0.883856
	C149	C	0.676023	0.617238	0.112887
	C150	C	0.320281	0.615500	0.884356
	C151	C	0.323112	0.376815	0.113687
	C152	C	0.883306	0.672731	0.380952
	C153	C	0.114382	0.674555	0.619815
	C154	C	0.884916	0.319194	0.619947
	C155	C	0.114977	0.322383	0.382072
	C156	C	0.884134	0.376607	0.676248
	C157	C	0.113800	0.618005	0.678553
	C158	C	0.884216	0.617966	0.321613
	C159	C	0.113986	0.378044	0.323318
	C160	C	0.376814	0.674710	0.884034
	C161	C	0.619175	0.676040	0.112080
	C162	C	0.618045	0.321627	0.883462
	C163	C	0.379382	0.317940	0.112517
	C164	C	0.674735	0.881138	0.378448
	C165	C	0.676775	0.111778	0.615535
	C166	C	0.323223	0.882422	0.614168
	C167	C	0.322954	0.112798	0.376225
	C168	C	0.877351	0.382825	0.177880
	C169	C	0.120565	0.611898	0.177824
	C170	C	0.118206	0.382590	0.823060
	C171	C	0.878009	0.611137	0.821288
	C172	C	0.173943	0.879435	0.382990
	C173	C	0.177914	0.117086	0.611984
	C174	C	0.821899	0.116720	0.384017
	C175	C	0.820974	0.876117	0.612465
	C176	C	0.383572	0.172652	0.877946
	C177	C	0.614427	0.173626	0.115472
	C178	C	0.383831	0.819720	0.115843
	C179	C	0.613940	0.821842	0.877981
	C180	C	0.384422	0.875472	0.174224
	C181	C	0.614249	0.117446	0.173945
	C182	C	0.384423	0.117648	0.819371
	C183	C	0.614183	0.879119	0.821069
	C184	C	0.879129	0.176065	0.385275
	C185	C	0.120466	0.174116	0.613275
	C186	C	0.117976	0.820013	0.384070
	C187	C	0.879003	0.819123	0.612759
	C188	C	0.172791	0.381488	0.882851
	C189	C	0.177782	0.611811	0.120101
	C190	C	0.821275	0.382257	0.118728
	C191	C	0.823423	0.612234	0.880757
	C192	C	0.401636	0.092582	0.595384
	C193	C	0.596379	0.902358	0.597622
	C194	C	0.598314	0.091027	0.397552
	C195	C	0.398861	0.902785	0.397234
	C196	C	0.596998	0.397761	0.091812
	C197	C	0.599530	0.598259	0.903997
	C198	C	0.401784	0.596136	0.091495
	C199	C	0.396782	0.396185	0.904282
	C200	C	0.094212	0.596613	0.400667
	C201	C	0.904060	0.595089	0.598658
	C202	C	0.095182	0.399301	0.600846
	C203	C	0.904925	0.400174	0.402220
	C204	C	0.900608	0.592024	0.099324
	C205	C	0.096688	0.402668	0.100684
	C206	C	0.096187	0.591117	0.902037
	C207	C	0.898769	0.401548	0.899150
	C208	C	0.099521	0.898201	0.592188
	C209	C	0.098079	0.099615	0.404192
	C210	C	0.900323	0.095186	0.591998
	C211	C	0.898815	0.896689	0.404412
	C212	C	0.594911	0.097715	0.897328
	C213	C	0.403953	0.094132	0.095308
	C214	C	0.594484	0.899061	0.096380
	C215	C	0.403703	0.899299	0.897674
	Zn216	Zn	0.499296	-0.001843	0.747710
	Zn217	Zn	0.499352	-0.003510	0.246474
	Zn218	Zn	0.749542	0.497216	-0.001049
	Zn219	Zn	0.247721	0.496647	0.000132
	Zn220	Zn	-0.000760	0.746334	0.498974
	Zn221	Zn	0.000207	0.248853	0.500415
	Zn222	Zn	-0.001696	0.496587	0.750053
	Zn223	Zn	-0.001277	0.497576	0.250454
	Zn224	Zn	0.498802	0.748955	-0.002965
	Zn225	Zn	0.498293	0.246311	-0.003043
	Zn226	Zn	0.748205	-0.004607	0.497657
	Zn227	Zn	0.249163	-0.001513	0.496218
	N228	N	0.411302	0.961738	0.677468
	N229	N	0.586363	0.034171	0.676670
	N230	N	0.585857	0.959962	0.318028
	N231	N	0.411983	0.033432	0.316401
	N232	N	0.676519	0.412611	0.961094
	N233	N	0.677748	0.583394	0.035752
	N234	N	0.320483	0.581272	0.961483
	N235	N	0.320663	0.410835	0.036627
	N236	N	0.961159	0.673356	0.415357
	N237	N	0.036516	0.674984	0.585092
	N238	N	0.963492	0.318434	0.587447
	N239	N	0.037402	0.321735	0.416276
	N240	N	0.962016	0.411303	0.677799
	N241	N	0.035684	0.584084	0.679776
	N242	N	0.962530	0.585048	0.319974
	N243	N	0.035671	0.411327	0.321603
	N244	N	0.411575	0.676800	0.961018
	N245	N	0.586012	0.678128	0.034355
	N246	N	0.583786	0.319647	0.960611
	N247	N	0.411119	0.315724	0.034463
	N248	N	0.676042	0.958721	0.412358
	N249	N	0.676813	0.033982	0.582344
	N250	N	0.323179	0.959917	0.579458
	N251	N	0.321350	0.035436	0.410944
	N252	N	0.911249	0.460828	0.180011
	N253	N	0.085402	0.534475	0.179193
	N254	N	0.085309	0.460653	0.820887
	N255	N	0.910664	0.532887	0.819072
	N256	N	0.175857	0.913388	0.460100
	N257	N	0.178813	0.084730	0.534294
	N258	N	0.820716	0.081665	0.460613
	N259	N	0.819347	0.909586	0.534984
	N260	N	0.461653	0.174350	0.911796
	N261	N	0.536466	0.173739	0.081244
	N262	N	0.461733	0.819970	0.081731
	N263	N	0.535843	0.820361	0.911262
	N264	N	0.462637	0.909465	0.175966
	N265	N	0.536153	0.083188	0.175429
	N266	N	0.463015	0.085464	0.817486
	N267	N	0.536067	0.912759	0.819542
	N268	N	0.913028	0.177294	0.462588
	N269	N	0.086042	0.176562	0.536195
	N270	N	0.085900	0.817756	0.462092
	N271	N	0.912892	0.817791	0.535645
	N272	N	0.173225	0.458708	0.917513
	N273	N	0.178017	0.534051	0.086684
	N274	N	0.821171	0.459833	0.084577
	N275	N	0.822477	0.534619	0.914930
	O276	O	0.384631	0.569212	0.500685
	H277	H	0.384330	0.567415	0.496380
	H278	H	0.391981	0.560009	0.508408
	O279	O	0.510712	0.477098	0.524816
	H280	H	0.510108	0.467692	0.518084
	H281	H	0.520273	0.482417	0.535900
	O282	O	0.924938	1.033034	-0.136491
	H283	H	0.916804	1.025702	-0.135478
	H284	H	0.930505	1.037759	-0.149822
	O285	O	0.884622	-0.093139	0.968198
	H286	H	0.897191	-0.086847	0.970083
	H287	H	0.889155	-0.100880	0.970636
	O288	O	0.517172	0.542324	0.519404
	H289	H	0.512488	0.533760	0.512476
	H290	H	0.513992	0.539020	0.516286
	O291	O	0.532505	0.482366	0.541792
	H292	H	0.539299	0.474496	0.544482
	H293	H	0.535900	0.476307	0.553526
	O294	O	0.561538	0.566113	0.540190
	H295	H	0.565775	0.570645	0.537678
	H296	H	0.566243	0.556305	0.539405
	O297	O	0.101306	0.074566	1.101970
	H298	H	0.108593	0.076613	1.105619
	H299	H	0.096989	0.078242	1.106843
	O300	O	0.463849	0.579681	0.485865
	H301	H	0.462578	0.588567	0.475535
	H302	H	0.462970	0.586099	0.481302
	O303	O	1.045560	0.967643	-0.127083
	H304	H	1.044325	0.970252	-0.123656
	H305	H	1.053508	0.975319	-0.131006
	O306	O	0.144394	1.044399	1.103015
	H307	H	0.145236	1.051548	1.098588
	H308	H	0.158051	1.059312	1.114093
	O309	O	0.541890	0.395595	0.508440
	H310	H	0.537434	0.379858	0.511779
	H311	H	0.525787	0.401125	0.508562
	O312	O	0.199535	-0.257103	0.311939
	H313	H	0.213242	-0.253443	0.313124
	H314	H	0.200546	-0.253622	0.291889
	O315	O	0.555453	-0.551856	0.390236
	H316	H	0.574601	-0.557065	0.381900
	H317	H	0.550787	-0.556406	0.389608
	O318	O	0.967984	0.998185	1.029040
	H319	H	0.973533	1.005000	1.025984
	H320	H	0.965644	0.995614	1.028948
	O321	O	-0.020726	0.061302	0.888575
	H322	H	-0.027173	0.054151	0.881345
	H323	H	-0.026759	0.057231	0.894931
	O324	O	0.643297	0.459359	0.532864
	H325	H	0.643619	0.452042	0.528897
	H326	H	0.641794	0.459564	0.539269
	O327	O	-0.083636	0.088512	0.069772
	H328	H	-0.090441	0.081769	0.063523
	H329	H	-0.085196	0.086515	0.081158
	O330	O	0.461757	0.505395	0.482920
	H331	H	0.470227	0.510449	0.474534
	H332	H	0.455033	0.509232	0.490469
	O333	O	-0.092088	0.981800	0.945181
	H334	H	-0.086325	0.986282	0.943109
	H335	H	-0.101861	0.987123	0.943553
	O336	O	0.088479	0.074456	-0.009220
	H337	H	0.071167	0.077359	-0.013025
	H338	H	0.091717	0.072656	-0.002628
	O339	O	0.450765	0.486352	0.469287
	H340	H	0.457754	0.494129	0.466264
	H341	H	0.450505	0.485169	0.472250
	O342	O	0.975155	0.959369	1.021409
	H343	H	0.973207	0.968837	1.025539
	H344	H	0.982747	0.959013	1.006431
	O345	O	0.919637	1.879981	0.079878
	H346	H	0.918102	1.882109	0.079184
	H347	H	0.921741	1.877652	0.084374
	O348	O	0.448911	0.503549	0.390470
	H349	H	0.458099	0.502266	0.393902
	H350	H	0.454547	0.513906	0.391440
	O351	O	0.418665	0.476117	0.519237
	H352	H	0.427054	0.478911	0.523925
	H353	H	0.410334	0.487089	0.524200
	O354	O	0.561861	0.509811	0.607359
	H355	H	0.565618	0.526728	0.615241
	H356	H	0.568016	0.497310	0.608464
	O357	O	0.993737	-0.037449	0.935173
	H358	H	0.995205	-0.036224	0.927605
	H359	H	1.002177	-0.046313	0.938207
	O360	O	0.447635	0.392422	0.470426
	H361	H	0.439928	0.393009	0.467348
	H362	H	0.444720	0.396422	0.458077
	O363	O	0.457667	0.467859	0.382835
	H364	H	0.460925	0.455760	0.389991
	H365	H	0.453578	0.476664	0.371159
	O366	O	0.983427	1.038680	1.082519
	H367	H	0.994566	1.050636	1.075459
	H368	H	0.977614	1.031150	1.095728
	O369	O	1.102905	-0.041152	0.970327
	H370	H	1.101726	-0.044993	0.967717
	H371	H	1.100199	-0.038926	0.972787
	O372	O	-0.009574	0.027744	0.113008
	H373	H	-0.008821	0.014565	0.103340
	H374	H	-0.003041	0.030769	0.110208
	O375	O	1.103681	-0.051684	-0.046417
	H376	H	1.106312	-0.066463	-0.042883
	H377	H	1.109383	-0.049965	-0.041413
	O378	O	0.607758	0.495628	0.491492
	H379	H	0.598291	0.495419	0.495847
	H380	H	0.604032	0.497895	0.500126
	O381	O	0.964933	0.931560	-0.006363
	H382	H	0.967130	0.915329	0.006524
	H383	H	0.955053	0.932016	-0.006368
