data_Molecule from HDF5

_cell_length_a		16.282868
_cell_length_b		16.293969
_cell_length_c		16.239299
_cell_angle_alpha	89.975331
_cell_angle_beta	90.114146
_cell_angle_gamma	90.177676
_symmetry_space_group_name_H-M	'P 1'
_symmetry_Int_Tables_number		1

loop_
	_symmetry_equiv_pos_as_xyz
	x,y,z

loop_
	_atom_site_label
	_atom_site_type_symbol
	_atom_site_fract_x
	_atom_site_fract_y
	_atom_site_fract_z
	H0	H	0.411905	0.837222	0.709700
	H1	H	0.609876	0.165032	0.711529
	H2	H	0.606935	0.837344	0.281852
	H3	H	0.410508	0.164804	0.281658
	H4	H	0.722945	0.404543	0.831137
	H5	H	0.724435	0.600900	0.160133
	H6	H	0.295675	0.600782	0.831581
	H7	H	0.295039	0.403204	0.159837
	H8	H	0.845479	0.715056	0.397201
	H9	H	0.172970	0.717686	0.594766
	H10	H	0.846036	0.286303	0.595173
	H11	H	0.173165	0.287085	0.396585
	H12	H	0.845598	0.403722	0.710044
	H13	H	0.173617	0.601248	0.710762
	H14	H	0.845801	0.599852	0.280758
	H15	H	0.173442	0.404614	0.282738
	H16	H	0.410728	0.716994	0.831759
	H17	H	0.608312	0.715667	0.160691
	H18	H	0.607581	0.288382	0.831861
	H19	H	0.409627	0.286957	0.160120
	H20	H	0.722802	0.836835	0.398489
	H21	H	0.727931	0.163664	0.597733
	H22	H	0.293224	0.838229	0.595707
	H23	H	0.294814	0.164668	0.396679
	H24	H	0.911940	0.337760	0.208935
	H25	H	0.108527	0.665878	0.210080
	H26	H	0.106564	0.338597	0.782439
	H27	H	0.912042	0.666018	0.781153
	H28	H	0.222357	0.904348	0.331456
	H29	H	0.224454	0.100230	0.659581
	H30	H	0.794992	0.099067	0.332098
	H31	H	0.796526	0.903784	0.660185
	H32	H	0.346139	0.216588	0.896564
	H33	H	0.672688	0.218320	0.095846
	H34	H	0.346150	0.786285	0.095409
	H35	H	0.674116	0.788985	0.898369
	H36	H	0.344935	0.904423	0.209018
	H37	H	0.672603	0.101426	0.211632
	H38	H	0.345005	0.099358	0.781860
	H39	H	0.673552	0.904790	0.782308
	H40	H	0.909338	0.216605	0.331886
	H41	H	0.108103	0.216151	0.659797
	H42	H	0.106826	0.788330	0.331241
	H43	H	0.909425	0.785816	0.659552
	H44	H	0.223923	0.338939	0.896767
	H45	H	0.225040	0.665984	0.094115
	H46	H	0.793204	0.339010	0.095258
	H47	H	0.796651	0.666834	0.898324
	H48	H	0.414980	0.118959	0.592685
	H49	H	0.592295	0.888747	0.586563
	H50	H	0.597411	0.117134	0.398615
	H51	H	0.425618	0.886515	0.398158
	H52	H	0.594299	0.409817	0.110170
	H53	H	0.602197	0.596665	0.878959
	H54	H	0.418504	0.597062	0.112474
	H55	H	0.418080	0.414236	0.880988
	H56	H	0.125259	0.589219	0.398420
	H57	H	0.895718	0.593907	0.579989
	H58	H	0.128835	0.403394	0.592681
	H59	H	0.894489	0.405969	0.410649
	H60	H	0.123481	0.408155	0.582221
	H61	H	0.894253	0.587736	0.593744
	H62	H	0.128854	0.603080	0.400784
	H63	H	0.894651	0.417178	0.400595
	H64	H	0.415055	0.594076	0.113295
	H65	H	0.603907	0.596801	0.877993
	H66	H	0.605993	0.404069	0.115423
	H67	H	0.421333	0.406190	0.880245
	H68	H	0.599534	0.113428	0.411686
	H69	H	0.610121	0.885596	0.581472
	H70	H	0.421321	0.116134	0.588658
	H71	H	0.412926	0.887196	0.414180
	H72	H	0.914690	0.620488	0.094042
	H73	H	0.095437	0.383783	0.103090
	H74	H	0.097089	0.616062	0.906417
	H75	H	0.913170	0.385057	0.902599
	H76	H	0.095694	0.904781	0.611889
	H77	H	0.096581	0.098272	0.379919
	H78	H	0.916338	0.097944	0.613642
	H79	H	0.915483	0.903193	0.377550
	H80	H	0.622309	0.094817	0.914032
	H81	H	0.392291	0.091395	0.096539
	H82	H	0.621503	0.917952	0.085063
	H83	H	0.397508	0.912913	0.912992
	H84	H	0.628318	0.910268	0.101185
	H85	H	0.390981	0.102620	0.087387
	H86	H	0.625515	0.087276	0.897135
	H87	H	0.393079	0.915566	0.894838
	H88	H	0.915801	0.090748	0.612382
	H89	H	0.107763	0.098076	0.376423
	H90	H	0.107636	0.905457	0.615543
	H91	H	0.912073	0.910785	0.379143
	H92	H	0.108865	0.619125	0.907293
	H93	H	0.095429	0.391535	0.076488
	H94	H	0.922401	0.616514	0.089038
	H95	H	0.916536	0.386490	0.901337
	H96	H	0.414443	0.116944	0.585489
	H97	H	0.604331	0.881515	0.599194
	H98	H	0.609391	0.118953	0.405010
	H99	H	0.406282	0.880052	0.396092
	H100	H	0.605513	0.417446	0.111392
	H101	H	0.603340	0.596076	0.879588
	H102	H	0.418826	0.593030	0.111678
	H103	H	0.413325	0.407589	0.878184
	H104	H	0.123364	0.594451	0.411569
	H105	H	0.889869	0.601568	0.592016
	H106	H	0.125130	0.415010	0.592472
	H107	H	0.889911	0.403756	0.396624
	H108	H	0.913638	0.618971	0.084161
	H109	H	0.118506	0.381354	0.088781
	H110	H	0.103030	0.620283	0.896509
	H111	H	0.915781	0.386858	0.905202
	H112	H	0.101819	0.915757	0.610548
	H113	H	0.102712	0.089046	0.380610
	H114	H	0.921735	0.094455	0.610880
	H115	H	0.921016	0.909885	0.380533
	H116	H	0.629912	0.105607	0.900315
	H117	H	0.395662	0.089841	0.082099
	H118	H	0.627254	0.899651	0.085044
	H119	H	0.390582	0.898814	0.902921
	C120	C	0.387879	0.009349	0.617848
	C121	C	0.631725	0.993062	0.618032
	C122	C	0.630618	0.009019	0.375537
	C123	C	0.387048	0.992958	0.374468
	C124	C	0.630527	0.381728	0.003892
	C125	C	0.631691	0.624454	0.987603
	C126	C	0.388663	0.623404	0.003937
	C127	C	0.387892	0.380296	0.987778
	C128	C	0.017816	0.623664	0.374404
	C129	C	1.001418	0.623521	0.617541
	C130	C	0.017546	0.380423	0.617256
	C131	C	1.001229	0.379997	0.374027
	C132	C	0.887869	0.510293	0.117592
	C133	C	0.132177	0.493869	0.117838
	C134	C	0.131136	0.510651	0.874736
	C135	C	0.887585	0.494485	0.874505
	C136	C	0.129946	0.880792	0.503878
	C137	C	0.130936	0.123438	0.487460
	C138	C	0.888218	0.123083	0.504282
	C139	C	0.887402	0.879486	0.487426
	C140	C	0.517783	0.123843	0.874530
	C141	C	0.500720	0.123969	0.117962
	C142	C	0.517768	0.880337	0.118496
	C143	C	0.501545	0.880348	0.874821
	C144	C	0.391039	0.886143	0.672315
	C145	C	0.630351	0.116065	0.673920
	C146	C	0.627151	0.885912	0.320342
	C147	C	0.389831	0.115924	0.319204
	C148	C	0.685450	0.384271	0.880354
	C149	C	0.687043	0.621785	0.110948
	C150	C	0.333903	0.620899	0.880551
	C151	C	0.332298	0.382476	0.110854
	C152	C	0.894413	0.677578	0.376843
	C153	C	0.124495	0.679086	0.615046
	C154	C	0.894871	0.324330	0.615429
	C155	C	0.124118	0.324898	0.376394
	C156	C	0.894574	0.382891	0.672533
	C157	C	0.124559	0.621459	0.672919
	C158	C	0.894682	0.620365	0.318874
	C159	C	0.124719	0.383429	0.319862
	C160	C	0.391013	0.678794	0.880736
	C161	C	0.629213	0.678634	0.111263
	C162	C	0.628038	0.326392	0.880711
	C163	C	0.389353	0.324839	0.111012
	C164	C	0.685419	0.885846	0.377665
	C165	C	0.688863	0.115419	0.617068
	C166	C	0.331943	0.886640	0.615766
	C167	C	0.332344	0.115947	0.376509
	C168	C	0.890562	0.386841	0.171785
	C169	C	0.129313	0.617140	0.172383
	C170	C	0.128026	0.387338	0.819816
	C171	C	0.891201	0.617447	0.819210
	C172	C	0.184645	0.883825	0.380585
	C173	C	0.186306	0.120942	0.610879
	C174	C	0.832464	0.120248	0.380988
	C175	C	0.833680	0.882912	0.611095
	C176	C	0.394641	0.178496	0.876367
	C177	C	0.624067	0.179758	0.116185
	C178	C	0.394728	0.824632	0.115752
	C179	C	0.625125	0.826230	0.877643
	C180	C	0.394006	0.883401	0.172108
	C181	C	0.623806	0.121932	0.173702
	C182	C	0.394391	0.120413	0.819244
	C183	C	0.624895	0.883916	0.820290
	C184	C	0.889413	0.178397	0.380761
	C185	C	0.128580	0.178401	0.610795
	C186	C	0.127605	0.825788	0.380574
	C187	C	0.889964	0.824578	0.610841
	C188	C	0.186234	0.387639	0.876494
	C189	C	0.187274	0.616922	0.114883
	C190	C	0.832204	0.387542	0.114808
	C191	C	0.833694	0.617881	0.876980
	C192	C	0.410311	0.095050	0.595576
	C193	C	0.608936	0.907516	0.595541
	C194	C	0.608625	0.094461	0.398367
	C195	C	0.408561	0.906840	0.396409
	C196	C	0.608406	0.403878	0.090007
	C197	C	0.609616	0.602949	0.901114
	C198	C	0.410892	0.601159	0.090410
	C199	C	0.410784	0.402667	0.902023
	C200	C	0.103736	0.601853	0.396895
	C201	C	0.915499	0.601090	0.595097
	C202	C	0.103558	0.402415	0.595326
	C203	C	0.915228	0.402323	0.396077
	C204	C	0.910264	0.596436	0.095550
	C205	C	0.109678	0.407758	0.095950
	C206	C	0.109418	0.596300	0.896855
	C207	C	0.908778	0.408453	0.896496
	C208	C	0.108182	0.902361	0.590314
	C209	C	0.108876	0.101508	0.401239
	C210	C	0.911183	0.100865	0.590021
	C211	C	0.909583	0.901545	0.401237
	C212	C	0.603689	0.102162	0.897196
	C213	C	0.415109	0.101398	0.095115
	C214	C	0.603505	0.902610	0.096858
	C215	C	0.415851	0.902458	0.897023
	Zn216	Zn	0.509819	0.002110	0.746341
	Zn217	Zn	0.508932	0.001775	0.246622
	Zn218	Zn	0.759127	0.502688	-0.004163
	Zn219	Zn	0.260165	0.502003	-0.004469
	Zn220	Zn	0.009053	0.751951	0.496023
	Zn221	Zn	0.009042	0.251905	0.495374
	Zn222	Zn	0.009692	0.501949	0.746258
	Zn223	Zn	0.009792	0.501642	0.245914
	Zn224	Zn	0.510132	0.752021	-0.003821
	Zn225	Zn	0.509274	0.252281	-0.003853
	Zn226	Zn	0.759895	0.000915	0.496259
	Zn227	Zn	0.258899	0.001487	0.495866
	N228	N	0.425216	0.963502	0.673676
	N229	N	0.595380	0.039112	0.674733
	N230	N	0.593912	0.963557	0.318737
	N231	N	0.423092	0.038461	0.317920
	N232	N	0.687071	0.417995	0.958003
	N233	N	0.688561	0.588805	0.032963
	N234	N	0.332427	0.587232	0.958234
	N235	N	0.331513	0.416503	0.033283
	N236	N	0.971896	0.679705	0.410805
	N237	N	0.046779	0.680707	0.581691
	N238	N	0.972317	0.323073	0.581737
	N239	N	0.046222	0.322736	0.409300
	N240	N	0.971910	0.417177	0.673744
	N241	N	0.047084	0.587497	0.674201
	N242	N	0.972489	0.587614	0.317135
	N243	N	0.047359	0.417181	0.318433
	N244	N	0.424451	0.680461	0.958641
	N245	N	0.595234	0.680120	0.033725
	N246	N	0.594534	0.324829	0.958398
	N247	N	0.423519	0.323472	0.033592
	N248	N	0.687622	0.963348	0.411239
	N249	N	0.689701	0.038132	0.583122
	N250	N	0.329915	0.964275	0.582569
	N251	N	0.330534	0.038457	0.410158
	N252	N	0.924695	0.464278	0.173425
	N253	N	0.095622	0.539519	0.174352
	N254	N	0.094533	0.464659	0.818468
	N255	N	0.923956	0.539705	0.817665
	N256	N	0.186186	0.917151	0.458386
	N257	N	0.188053	0.087652	0.533074
	N258	N	0.831542	0.086556	0.458644
	N259	N	0.832293	0.916472	0.533405
	N260	N	0.472283	0.180660	0.909890
	N261	N	0.546605	0.181182	0.082348
	N262	N	0.472497	0.822755	0.082915
	N263	N	0.547524	0.824090	0.911043
	N264	N	0.471479	0.917288	0.173957
	N265	N	0.546298	0.087919	0.174919
	N266	N	0.472041	0.087190	0.817823
	N267	N	0.547212	0.916797	0.818472
	N268	N	0.923371	0.180130	0.458346
	N269	N	0.094913	0.179997	0.533020
	N270	N	0.094322	0.823730	0.458392
	N271	N	0.922642	0.822277	0.532754
	N272	N	0.188117	0.465219	0.910083
	N273	N	0.189081	0.539239	0.081871
	N274	N	0.830584	0.465419	0.081939
	N275	N	0.831343	0.540429	0.910605
	O276	O	-0.507946	0.422289	1.509608
	H277	H	-0.516119	0.429458	1.516358
	H278	H	-0.506590	0.421706	1.520062
	O279	O	0.472622	0.436296	0.518216
	H280	H	0.470398	0.434857	0.511425
	H281	H	0.468281	0.423502	0.508834
	O282	O	0.548786	0.466016	0.532840
	H283	H	0.562510	0.462110	0.531576
	H284	H	0.550457	0.472193	0.536113
	O285	O	0.545109	0.436322	0.404719
	H286	H	0.555883	0.432729	0.405581
	H287	H	0.550493	0.427278	0.389342
	O288	O	0.488085	0.415477	0.503040
	H289	H	0.490505	0.420317	0.509676
	H290	H	0.484614	0.418475	0.498787
	O291	O	-0.437757	1.479419	0.520555
	H292	H	-0.446056	1.474046	0.517084
	H293	H	-0.436288	1.468868	0.516400
	O294	O	0.590619	0.448878	0.424488
	H295	H	0.586589	0.459597	0.425210
	H296	H	0.599851	0.461112	0.427597
	O297	O	0.524860	-0.584437	0.478638
	H298	H	0.517559	-0.594781	0.484753
	H299	H	0.520616	-0.586282	0.484772
