data_Molecule from HDF5

_cell_length_a		16.158749
_cell_length_b		16.224916
_cell_length_c		16.329950
_cell_angle_alpha	90.160226
_cell_angle_beta	90.229480
_cell_angle_gamma	89.556748
_symmetry_space_group_name_H-M	'P 1'
_symmetry_Int_Tables_number		1

loop_
	_symmetry_equiv_pos_as_xyz
	x,y,z

loop_
	_atom_site_label
	_atom_site_type_symbol
	_atom_site_fract_x
	_atom_site_fract_y
	_atom_site_fract_z
	H0	H	0.402767	0.832084	0.712366
	H1	H	0.598680	0.159524	0.713634
	H2	H	0.603011	0.831991	0.282192
	H3	H	0.397649	0.159152	0.281177
	H4	H	0.715629	0.396868	0.834452
	H5	H	0.715667	0.594167	0.160919
	H6	H	0.283047	0.595064	0.835495
	H7	H	0.289259	0.398503	0.162647
	H8	H	0.836427	0.708909	0.402140
	H9	H	0.166951	0.707598	0.598005
	H10	H	0.836484	0.284113	0.597325
	H11	H	0.166321	0.280289	0.401913
	H12	H	0.836439	0.399305	0.711694
	H13	H	0.165852	0.594505	0.715609
	H14	H	0.837552	0.597284	0.283746
	H15	H	0.166416	0.394987	0.285469
	H16	H	0.400005	0.711129	0.834004
	H17	H	0.600692	0.710784	0.160630
	H18	H	0.599546	0.280210	0.834359
	H19	H	0.403407	0.280859	0.161083
	H20	H	0.715876	0.831191	0.400802
	H21	H	0.713132	0.160649	0.596562
	H22	H	0.289704	0.830902	0.594787
	H23	H	0.284315	0.159342	0.400396
	H24	H	0.902752	0.331735	0.214048
	H25	H	0.100496	0.659569	0.215660
	H26	H	0.103686	0.333079	0.783118
	H27	H	0.899443	0.659616	0.783774
	H28	H	0.215129	0.895052	0.335286
	H29	H	0.215179	0.092605	0.661426
	H30	H	0.785830	0.094129	0.334938
	H31	H	0.788662	0.900357	0.661892
	H32	H	0.336041	0.211135	0.898756
	H33	H	0.666901	0.207498	0.097309
	H34	H	0.335932	0.783852	0.094315
	H35	H	0.666196	0.781758	0.900284
	H36	H	0.336539	0.897420	0.210787
	H37	H	0.665550	0.094359	0.214875
	H38	H	0.336258	0.096388	0.782790
	H39	H	0.665697	0.895002	0.783874
	H40	H	0.898326	0.213330	0.336720
	H41	H	0.100608	0.209662	0.661989
	H42	H	0.100599	0.778379	0.336048
	H43	H	0.902587	0.781709	0.662340
	H44	H	0.215476	0.331795	0.902153
	H45	H	0.213944	0.660314	0.098183
	H46	H	0.789436	0.330926	0.095411
	H47	H	0.786090	0.660754	0.901895
	H48	H	0.412817	0.110278	0.588042
	H49	H	0.590091	0.881048	0.589116
	H50	H	0.591086	0.115598	0.393979
	H51	H	0.409016	0.880471	0.409526
	H52	H	0.595952	0.404887	0.113192
	H53	H	0.598183	0.590770	0.878982
	H54	H	0.413326	0.588261	0.111816
	H55	H	0.400313	0.401377	0.879222
	H56	H	0.121054	0.592206	0.406756
	H57	H	0.881152	0.594842	0.595794
	H58	H	0.120225	0.392842	0.586370
	H59	H	0.884243	0.411755	0.397506
	H60	H	0.115220	0.412479	0.588081
	H61	H	0.885487	0.590138	0.585355
	H62	H	0.117610	0.585019	0.412700
	H63	H	0.880477	0.395069	0.403613
	H64	H	0.409445	0.594625	0.115417
	H65	H	0.593064	0.583960	0.882623
	H66	H	0.593128	0.400331	0.113032
	H67	H	0.409724	0.410910	0.884807
	H68	H	0.582448	0.108359	0.410267
	H69	H	0.600504	0.877179	0.588715
	H70	H	0.402346	0.114271	0.588549
	H71	H	0.403985	0.875624	0.399461
	H72	H	0.911003	0.610831	0.090987
	H73	H	0.093968	0.377127	0.098956
	H74	H	0.090496	0.614828	0.901591
	H75	H	0.901787	0.376649	0.906059
	H76	H	0.094899	0.901966	0.615112
	H77	H	0.095428	0.091172	0.380050
	H78	H	0.902748	0.091962	0.617118
	H79	H	0.907423	0.908021	0.383730
	H80	H	0.611886	0.071023	0.909278
	H81	H	0.383283	0.083728	0.098705
	H82	H	0.614645	0.911287	0.086080
	H83	H	0.381780	0.906937	0.897668
	H84	H	0.621585	0.903074	0.100458
	H85	H	0.381500	0.098313	0.089609
	H86	H	0.624733	0.090627	0.888657
	H87	H	0.381774	0.897615	0.905322
	H88	H	0.908333	0.085122	0.613215
	H89	H	0.093056	0.082822	0.383473
	H90	H	0.095096	0.901879	0.615076
	H91	H	0.914182	0.899323	0.383168
	H92	H	0.087644	0.610857	0.910151
	H93	H	0.091156	0.381160	0.089140
	H94	H	0.906345	0.612942	0.091567
	H95	H	0.912433	0.376849	0.896157
	H96	H	0.407698	0.114528	0.597146
	H97	H	0.594899	0.876803	0.598499
	H98	H	0.601993	0.114278	0.410353
	H99	H	0.415236	0.879326	0.399642
	H100	H	0.597821	0.399948	0.115276
	H101	H	0.589693	0.591646	0.882494
	H102	H	0.405354	0.587682	0.113877
	H103	H	0.414577	0.397616	0.882058
	H104	H	0.119275	0.582806	0.401852
	H105	H	0.885353	0.584269	0.595872
	H106	H	0.122348	0.402689	0.603719
	H107	H	0.887269	0.407742	0.415048
	H108	H	0.909539	0.612781	0.094956
	H109	H	0.100485	0.377673	0.090883
	H110	H	0.096454	0.614173	0.908582
	H111	H	0.914617	0.382532	0.909691
	H112	H	0.095318	0.901957	0.613978
	H113	H	0.086344	0.089864	0.383952
	H114	H	0.911530	0.093733	0.614770
	H115	H	0.903602	0.898165	0.379599
	H116	H	0.618480	0.099504	0.917991
	H117	H	0.387887	0.083958	0.082149
	H118	H	0.619694	0.894039	0.085568
	H119	H	0.386330	0.907712	0.908691
	C120	C	0.379906	0.004155	0.619142
	C121	C	0.622974	0.987143	0.620407
	C122	C	0.621992	0.004012	0.376500
	C123	C	0.379012	0.986832	0.375309
	C124	C	0.624217	0.372781	0.006404
	C125	C	0.622376	0.616918	0.989529
	C126	C	0.378865	0.618686	0.006095
	C127	C	0.380064	0.374528	0.989761
	C128	C	0.010277	0.616264	0.378547
	C129	C	0.993023	0.617765	0.621235
	C130	C	0.010225	0.374774	0.620641
	C131	C	0.992929	0.374469	0.377322
	C132	C	0.880437	0.503960	0.120657
	C133	C	0.123360	0.487491	0.121613
	C134	C	0.121831	0.504852	0.878152
	C135	C	0.879518	0.487498	0.876765
	C136	C	0.123825	0.872671	0.507298
	C137	C	0.121515	0.116423	0.490160
	C138	C	0.877912	0.118963	0.507262
	C139	C	0.880097	0.874160	0.490166
	C140	C	0.509279	0.116656	0.876539
	C141	C	0.493134	0.116929	0.119513
	C142	C	0.509867	0.874243	0.119051
	C143	C	0.492254	0.874219	0.875650
	C144	C	0.382633	0.880789	0.674386
	C145	C	0.619516	0.110777	0.675509
	C146	C	0.621807	0.880736	0.320954
	C147	C	0.378933	0.110344	0.320110
	C148	C	0.678217	0.375794	0.883139
	C149	C	0.677737	0.614346	0.112318
	C150	C	0.322009	0.615539	0.883731
	C151	C	0.326038	0.377459	0.113388
	C152	C	0.885888	0.671630	0.381424
	C153	C	0.117428	0.670984	0.619018
	C154	C	0.885869	0.321329	0.617756
	C155	C	0.117096	0.318272	0.381235
	C156	C	0.885933	0.378584	0.674889
	C157	C	0.116839	0.614746	0.677415
	C158	C	0.886539	0.615970	0.322586
	C159	C	0.117247	0.375235	0.323357
	C160	C	0.379955	0.673353	0.883116
	C161	C	0.620689	0.672488	0.112078
	C162	C	0.620530	0.317857	0.883177
	C163	C	0.382805	0.319124	0.112731
	C164	C	0.677982	0.880355	0.379829
	C165	C	0.676273	0.111244	0.617153
	C166	C	0.326347	0.880252	0.615724
	C167	C	0.322532	0.110498	0.379107
	C168	C	0.882574	0.380537	0.175823
	C169	C	0.120748	0.610756	0.177575
	C170	C	0.122462	0.381839	0.822010
	C171	C	0.880001	0.611099	0.822397
	C172	C	0.178164	0.874193	0.384381
	C173	C	0.177501	0.113252	0.612711
	C174	C	0.822738	0.115532	0.384222
	C175	C	0.825665	0.878220	0.613113
	C176	C	0.385529	0.172983	0.878452
	C177	C	0.617302	0.170711	0.117599
	C178	C	0.385504	0.820739	0.115436
	C179	C	0.616719	0.819032	0.879071
	C180	C	0.385818	0.877053	0.173572
	C181	C	0.616690	0.114521	0.176173
	C182	C	0.385635	0.116071	0.820730
	C183	C	0.616298	0.875545	0.821399
	C184	C	0.878952	0.174598	0.385072
	C185	C	0.120373	0.171609	0.613077
	C186	C	0.121060	0.816354	0.384726
	C187	C	0.882691	0.819844	0.613451
	C188	C	0.178025	0.381106	0.881284
	C189	C	0.177347	0.611219	0.119293
	C190	C	0.826605	0.380011	0.116465
	C191	C	0.823673	0.611410	0.880958
	C192	C	0.401366	0.090663	0.597636
	C193	C	0.601572	0.900679	0.598511
	C194	C	0.598634	0.090334	0.398385
	C195	C	0.402501	0.900816	0.396698
	C196	C	0.602204	0.395058	0.091716
	C197	C	0.600198	0.595129	0.903495
	C198	C	0.402270	0.596573	0.091672
	C199	C	0.401765	0.396655	0.904443
	C200	C	0.097016	0.593440	0.400563
	C201	C	0.906332	0.596339	0.598800
	C202	C	0.096849	0.396110	0.599121
	C203	C	0.906428	0.397879	0.399073
	C204	C	0.902318	0.590043	0.098876
	C205	C	0.101691	0.400886	0.099488
	C206	C	0.098168	0.590974	0.900175
	C207	C	0.902706	0.401020	0.897797
	C208	C	0.101758	0.895393	0.592735
	C209	C	0.098371	0.094459	0.404583
	C210	C	0.900698	0.096745	0.592894
	C211	C	0.901968	0.895604	0.404604
	C212	C	0.596080	0.093627	0.898673
	C213	C	0.406467	0.095023	0.096901
	C214	C	0.596370	0.896221	0.097140
	C215	C	0.405607	0.897120	0.897383
	Zn216	Zn	0.500814	-0.004189	0.747900
	Zn217	Zn	0.501248	-0.004386	0.247113
	Zn218	Zn	0.751830	0.495378	-0.001912
	Zn219	Zn	0.250636	0.496140	-0.000477
	Zn220	Zn	0.001874	0.744895	0.499447
	Zn221	Zn	0.000746	0.246853	0.499276
	Zn222	Zn	0.001064	0.496107	0.749032
	Zn223	Zn	0.001973	0.495720	0.249797
	Zn224	Zn	0.501361	0.746877	-0.002803
	Zn225	Zn	0.501224	0.245009	-0.001829
	Zn226	Zn	0.750354	-0.003999	0.498149
	Zn227	Zn	0.251406	-0.005115	0.497832
	N228	N	0.415126	0.958972	0.676504
	N229	N	0.587282	0.032615	0.677676
	N230	N	0.587652	0.958787	0.318956
	N231	N	0.413428	0.032572	0.317500
	N232	N	0.680586	0.409277	0.960568
	N233	N	0.678690	0.580382	0.035104
	N234	N	0.321170	0.582357	0.961108
	N235	N	0.324296	0.411389	0.036240
	N236	N	0.963956	0.671857	0.415545
	N237	N	0.039388	0.673034	0.585117
	N238	N	0.963934	0.319039	0.584651
	N239	N	0.038714	0.317756	0.414150
	N240	N	0.964309	0.411044	0.676855
	N241	N	0.038387	0.582244	0.678859
	N242	N	0.964839	0.582202	0.320730
	N243	N	0.039094	0.409217	0.320771
	N244	N	0.414736	0.675228	0.960155
	N245	N	0.586768	0.674036	0.034733
	N246	N	0.587711	0.315725	0.960840
	N247	N	0.415805	0.317214	0.035232
	N248	N	0.678182	0.958014	0.413600
	N249	N	0.678523	0.033247	0.583657
	N250	N	0.324822	0.957814	0.581951
	N251	N	0.322532	0.032855	0.412647
	N252	N	0.915000	0.458695	0.178738
	N253	N	0.088092	0.532675	0.179017
	N254	N	0.087972	0.459578	0.820286
	N255	N	0.913943	0.533155	0.819649
	N256	N	0.179728	0.908630	0.461324
	N257	N	0.178257	0.079594	0.535332
	N258	N	0.821878	0.081737	0.461343
	N259	N	0.824026	0.911422	0.535667
	N260	N	0.463382	0.173180	0.912731
	N261	N	0.539460	0.172310	0.082935
	N262	N	0.463547	0.818927	0.082149
	N263	N	0.538536	0.818001	0.912055
	N264	N	0.464245	0.909634	0.175890
	N265	N	0.538474	0.081725	0.177255
	N266	N	0.463814	0.081757	0.819504
	N267	N	0.537800	0.909168	0.819021
	N268	N	0.912634	0.176853	0.462587
	N269	N	0.086113	0.173610	0.535830
	N270	N	0.087661	0.815386	0.462129
	N271	N	0.915738	0.817027	0.535961
	N272	N	0.177652	0.458744	0.915589
	N273	N	0.178999	0.533593	0.085027
	N274	N	0.824891	0.457670	0.082874
	N275	N	0.823472	0.533344	0.913850
	O276	O	1.048828	1.003959	0.014554
	H277	H	1.042652	0.995070	0.008521
	H278	H	1.045660	1.004605	0.008235
	O279	O	-0.019920	-0.036970	0.998199
	H280	H	-0.017173	-0.036274	0.998858
	H281	H	-0.021648	-0.034717	1.001113
	O282	O	-0.030985	-0.026768	0.019921
	H283	H	-0.029748	-0.026711	0.022392
	H284	H	-0.036541	-0.027804	0.018492
	O285	O	0.561260	0.496534	0.521793
	H286	H	0.563548	0.487408	0.529370
	H287	H	0.561554	0.493271	0.515882
	O288	O	0.063058	0.018143	0.007751
	H289	H	0.058712	0.017606	0.007259
	H290	H	0.060870	0.025030	0.007954
	O291	O	-0.006311	1.097383	-0.045372
	H292	H	-0.004831	1.098732	-0.052415
	H293	H	-0.011923	1.102445	-0.050983
	O294	O	0.010117	1.017077	-0.055924
	H295	H	0.009820	1.010220	-0.052436
	H296	H	0.012400	1.022950	-0.062840
	O297	O	0.567330	0.475309	0.432265
	H298	H	0.571127	0.470608	0.426493
	H299	H	0.562626	0.464080	0.433434
	O300	O	0.550616	0.524081	0.502483
	H301	H	0.546560	0.527830	0.499296
	H302	H	0.557209	0.520820	0.507594
	O303	O	1.053628	0.011892	0.977954
	H304	H	1.045627	0.015224	0.971150
	H305	H	1.049899	0.025964	0.973192
	O306	O	0.021222	1.000091	0.959725
	H307	H	0.035299	1.004717	0.961255
	H308	H	0.011866	0.993805	0.964638
	O309	O	-0.043630	1.011389	0.946680
	H310	H	-0.031743	1.002771	0.941913
	H311	H	-0.052009	1.010194	0.947344
	O312	O	-0.057697	0.032178	0.939682
	H313	H	-0.061920	0.028438	0.946692
	H314	H	-0.053182	0.030111	0.952746
	O315	O	0.603200	0.459887	0.457650
	H316	H	0.596099	0.455644	0.456157
	H317	H	0.605445	0.457646	0.448952
	O318	O	0.046264	-0.068143	0.985048
	H319	H	0.061450	-0.060794	0.988035
	H320	H	0.048100	-0.062937	0.985709
	O321	O	0.553744	0.527401	0.455897
	H322	H	0.560847	0.525180	0.451593
	H323	H	0.559818	0.531525	0.449873
	O324	O	1.015051	0.004014	1.014070
	H325	H	1.015535	-0.004911	1.004452
	H326	H	1.009986	0.008721	1.014405
	O327	O	0.957817	1.052815	0.945824
	H328	H	0.960958	1.050880	0.945640
	H329	H	0.967803	1.052268	0.948067
	O330	O	0.442117	0.561259	0.467817
	H331	H	0.439200	0.576190	0.475591
	H332	H	0.434070	0.555999	0.455371
	O333	O	0.507721	0.510142	0.458274
	H334	H	0.506223	0.505579	0.462823
	H335	H	0.502415	0.525393	0.455760
	O336	O	0.477498	0.598401	0.457979
	H337	H	0.479515	0.601986	0.470726
	H338	H	0.485435	0.608873	0.466253
	O339	O	0.448824	0.550354	0.490186
	H340	H	0.455582	0.560598	0.486695
	H341	H	0.445842	0.548629	0.492378
	O342	O	0.537880	0.482804	0.431285
	H343	H	0.546684	0.483101	0.420098
	H344	H	0.535908	0.476071	0.434080
	O345	O	0.538221	0.505441	0.439827
	H346	H	0.539581	0.507723	0.436328
	H347	H	0.534816	0.514300	0.439803
