data_Molecule from HDF5

_cell_length_a		16.551937
_cell_length_b		16.402987
_cell_length_c		16.188166
_cell_angle_alpha	90.086596
_cell_angle_beta	89.980031
_cell_angle_gamma	90.011495
_symmetry_space_group_name_H-M	'P 1'
_symmetry_Int_Tables_number		1

loop_
	_symmetry_equiv_pos_as_xyz
	x,y,z

loop_
	_atom_site_label
	_atom_site_type_symbol
	_atom_site_fract_x
	_atom_site_fract_y
	_atom_site_fract_z
	H0	H	0.397983	0.831665	0.706810
	H1	H	0.599130	0.153808	0.702247
	H2	H	0.600236	0.831525	0.268543
	H3	H	0.400860	0.152587	0.273143
	H4	H	0.720850	0.387016	0.825047
	H5	H	0.723354	0.599136	0.146993
	H6	H	0.281939	0.597629	0.826213
	H7	H	0.281459	0.388342	0.148750
	H8	H	0.843089	0.712300	0.381112
	H9	H	0.157828	0.714166	0.594429
	H10	H	0.841456	0.270743	0.592712
	H11	H	0.160183	0.271394	0.385479
	H12	H	0.841515	0.389552	0.707868
	H13	H	0.161164	0.591980	0.703885
	H14	H	0.842361	0.592243	0.267595
	H15	H	0.161294	0.389722	0.269661
	H16	H	0.399804	0.710597	0.825061
	H17	H	0.605526	0.711802	0.148670
	H18	H	0.603509	0.273383	0.825571
	H19	H	0.402239	0.278412	0.151739
	H20	H	0.722374	0.833327	0.377370
	H21	H	0.722683	0.149484	0.594109
	H22	H	0.280185	0.831735	0.592722
	H23	H	0.279105	0.149564	0.381373
	H24	H	0.898747	0.331249	0.205267
	H25	H	0.106460	0.650476	0.209726
	H26	H	0.100793	0.331084	0.770810
	H27	H	0.898910	0.652040	0.768040
	H28	H	0.222880	0.882035	0.327823
	H29	H	0.222432	0.099522	0.647874
	H30	H	0.778027	0.096783	0.327021
	H31	H	0.774782	0.879959	0.645831
	H32	H	0.344037	0.214315	0.883428
	H33	H	0.657828	0.216155	0.097398
	H34	H	0.345908	0.765653	0.098361
	H35	H	0.657064	0.765956	0.875632
	H36	H	0.341436	0.888545	0.207789
	H37	H	0.658098	0.095684	0.210431
	H38	H	0.342049	0.095511	0.768000
	H39	H	0.656821	0.884055	0.761330
	H40	H	0.894767	0.211193	0.326743
	H41	H	0.103716	0.211553	0.649192
	H42	H	0.106827	0.768451	0.327945
	H43	H	0.893714	0.769395	0.647363
	H44	H	0.223450	0.334866	0.879369
	H45	H	0.225767	0.649339	0.097579
	H46	H	0.777519	0.334814	0.094496
	H47	H	0.776683	0.649417	0.875266
	H48	H	0.415614	0.103728	0.577945
	H49	H	0.594844	0.875420	0.576936
	H50	H	0.582828	0.101845	0.401147
	H51	H	0.406031	0.878422	0.406339
	H52	H	0.592466	0.401388	0.103626
	H53	H	0.591068	0.572951	0.874771
	H54	H	0.408912	0.577858	0.102673
	H55	H	0.414874	0.405379	0.874193
	H56	H	0.114793	0.581527	0.395476
	H57	H	0.890495	0.572155	0.578501
	H58	H	0.114084	0.396754	0.575867
	H59	H	0.886290	0.398114	0.392575
	H60	H	0.111540	0.401422	0.575502
	H61	H	0.885144	0.585305	0.581571
	H62	H	0.113828	0.583585	0.403388
	H63	H	0.888427	0.396340	0.400294
	H64	H	0.415787	0.575557	0.099069
	H65	H	0.583701	0.582314	0.874210
	H66	H	0.594310	0.409050	0.101343
	H67	H	0.412355	0.398231	0.871605
	H68	H	0.594848	0.104033	0.407343
	H69	H	0.581787	0.879853	0.577247
	H70	H	0.405329	0.104056	0.568604
	H71	H	0.403410	0.872497	0.392690
	H72	H	0.907780	0.606223	0.072284
	H73	H	0.097278	0.375975	0.077512
	H74	H	0.089456	0.604261	0.903474
	H75	H	0.908985	0.378119	0.897815
	H76	H	0.085120	0.906522	0.599095
	H77	H	0.092692	0.073248	0.373773
	H78	H	0.913433	0.082536	0.601969
	H79	H	0.911908	0.898712	0.371594
	H80	H	0.613797	0.084601	0.900838
	H81	H	0.388605	0.084471	0.076756
	H82	H	0.610949	0.902432	0.070319
	H83	H	0.390094	0.904057	0.900382
	H84	H	0.611329	0.908891	0.078434
	H85	H	0.386846	0.085266	0.079795
	H86	H	0.612117	0.079623	0.898433
	H87	H	0.389220	0.901646	0.899731
	H88	H	0.906642	0.078638	0.603302
	H89	H	0.084025	0.078863	0.375362
	H90	H	0.088508	0.899248	0.603101
	H91	H	0.907766	0.906499	0.372685
	H92	H	0.101290	0.609100	0.897828
	H93	H	0.085945	0.380071	0.076707
	H94	H	0.912209	0.605956	0.079296
	H95	H	0.911810	0.378890	0.898628
	H96	H	0.402895	0.109212	0.581401
	H97	H	0.589266	0.880632	0.565221
	H98	H	0.592874	0.108734	0.394134
	H99	H	0.416763	0.878322	0.396420
	H100	H	0.587003	0.405738	0.100564
	H101	H	0.594954	0.583010	0.868997
	H102	H	0.415789	0.583393	0.102857
	H103	H	0.407446	0.404738	0.871636
	H104	H	0.111256	0.576295	0.400852
	H105	H	0.890407	0.582853	0.568246
	H106	H	0.114040	0.400712	0.579690
	H107	H	0.890181	0.403876	0.396778
	H108	H	0.915668	0.603341	0.072096
	H109	H	0.093724	0.381064	0.067195
	H110	H	0.089689	0.608304	0.889894
	H111	H	0.909927	0.378619	0.900369
	H112	H	0.093831	0.906295	0.602528
	H113	H	0.092375	0.083687	0.371144
	H114	H	0.912775	0.075187	0.600250
	H115	H	0.915638	0.904993	0.376548
	H116	H	0.614917	0.083753	0.895209
	H117	H	0.387615	0.087580	0.077738
	H118	H	0.614570	0.898983	0.079646
	H119	H	0.390407	0.901998	0.901876
	C120	C	0.377550	0.000362	0.609003
	C121	C	0.620905	0.983280	0.607006
	C122	C	0.621628	0.000009	0.366546
	C123	C	0.378226	0.982427	0.366859
	C124	C	0.622763	0.372280	-0.004488
	C125	C	0.622512	0.613206	0.978289
	C126	C	0.381153	0.612479	-0.004438
	C127	C	0.380718	0.371911	0.979354
	C128	C	0.009235	0.612492	0.366276
	C129	C	0.992987	0.612128	0.608150
	C130	C	0.008505	0.368731	0.609502
	C131	C	0.992882	0.368237	0.364829
	C132	C	0.880393	0.500291	0.107297
	C133	C	0.123715	0.483537	0.108004
	C134	C	0.123793	0.501407	0.865473
	C135	C	0.879404	0.483650	0.865739
	C136	C	0.121526	0.870592	0.496001
	C137	C	0.121103	0.111257	0.479976
	C138	C	0.878832	0.111363	0.495798
	C139	C	0.878882	0.869754	0.478913
	C140	C	0.509356	0.114210	0.866336
	C141	C	0.491989	0.115720	0.110784
	C142	C	0.508502	0.870669	0.109089
	C143	C	0.492983	0.869794	0.865585
	C144	C	0.378143	0.879746	0.667862
	C145	C	0.620298	0.104604	0.665115
	C146	C	0.620881	0.879726	0.306941
	C147	C	0.379840	0.103941	0.310264
	C148	C	0.681391	0.369226	0.873919
	C149	C	0.682904	0.616443	0.099181
	C150	C	0.321508	0.615624	0.874535
	C151	C	0.321564	0.370306	0.100519
	C152	C	0.890586	0.672337	0.363110
	C153	C	0.111194	0.672920	0.611372
	C154	C	0.889057	0.310301	0.611086
	C155	C	0.112485	0.310453	0.365664
	C156	C	0.889154	0.369408	0.668553
	C157	C	0.112834	0.612196	0.666116
	C158	C	0.890126	0.612629	0.306502
	C159	C	0.113225	0.369296	0.307896
	C160	C	0.380453	0.671681	0.873942
	C161	C	0.624544	0.672878	0.099976
	C162	C	0.623074	0.312475	0.873996
	C163	C	0.381642	0.315570	0.102108
	C164	C	0.681464	0.880784	0.361447
	C165	C	0.681592	0.102479	0.611072
	C166	C	0.319470	0.879709	0.611099
	C167	C	0.319339	0.102165	0.364292
	C168	C	0.879239	0.379748	0.166474
	C169	C	0.125352	0.602637	0.169789
	C170	C	0.122079	0.380045	0.808290
	C171	C	0.879040	0.603863	0.806095
	C172	C	0.182564	0.865752	0.376057
	C173	C	0.181948	0.116024	0.599940
	C174	C	0.818215	0.114465	0.375254
	C175	C	0.816557	0.864313	0.598221
	C176	C	0.390740	0.174035	0.864797
	C177	C	0.610776	0.175509	0.114541
	C178	C	0.391614	0.807991	0.113825
	C179	C	0.610097	0.807522	0.859693
	C180	C	0.389712	0.868841	0.168830
	C181	C	0.610837	0.115732	0.170910
	C182	C	0.389912	0.114947	0.807379
	C183	C	0.610019	0.866294	0.802309
	C184	C	0.876424	0.171420	0.374842
	C185	C	0.122551	0.171788	0.600768
	C186	C	0.124332	0.809132	0.375701
	C187	C	0.875609	0.808699	0.599145
	C188	C	0.183214	0.381996	0.862342
	C189	C	0.184516	0.602367	0.113718
	C190	C	0.818858	0.381517	0.111430
	C191	C	0.818231	0.602375	0.859904
	C192	C	0.401274	0.083828	0.583473
	C193	C	0.595772	0.900420	0.580939
	C194	C	0.597201	0.083224	0.393129
	C195	C	0.401893	0.898298	0.391156
	C196	C	0.598365	0.398046	0.080135
	C197	C	0.597213	0.587240	0.894451
	C198	C	0.406264	0.586605	0.079642
	C199	C	0.404667	0.395787	0.894293
	C200	C	0.091783	0.587754	0.392480
	C201	C	0.910235	0.587261	0.583152
	C202	C	0.091514	0.392700	0.584561
	C203	C	0.909733	0.392550	0.389282
	C204	C	0.905074	0.583410	0.081919
	C205	C	0.099415	0.400546	0.081349
	C206	C	0.100220	0.585341	0.889970
	C207	C	0.903447	0.400258	0.891471
	C208	C	0.096068	0.896509	0.579770
	C209	C	0.096566	0.085727	0.395366
	C210	C	0.903712	0.086034	0.579915
	C211	C	0.904527	0.895810	0.395295
	C212	C	0.592050	0.089725	0.891015
	C213	C	0.409188	0.092458	0.085326
	C214	C	0.590874	0.896157	0.083341
	C215	C	0.411276	0.895513	0.892818
	Zn216	Zn	0.500280	-0.007762	0.736458
	Zn217	Zn	0.499515	-0.007882	0.238723
	Zn218	Zn	0.751177	0.493075	-0.013379
	Zn219	Zn	0.252391	0.492353	-0.012653
	Zn220	Zn	0.000694	0.742486	0.487862
	Zn221	Zn	0.000073	0.239427	0.487557
	Zn222	Zn	0.000850	0.491910	0.738331
	Zn223	Zn	0.001963	0.491410	0.236003
	Zn224	Zn	0.501718	0.740781	-0.012154
	Zn225	Zn	0.502023	0.244165	-0.011980
	Zn226	Zn	0.750470	-0.009608	0.487105
	Zn227	Zn	0.249946	-0.009050	0.487713
	N228	N	0.413170	0.955735	0.666974
	N229	N	0.583379	0.029481	0.662887
	N230	N	0.584447	0.954990	0.309919
	N231	N	0.415714	0.028390	0.311840
	N232	N	0.681379	0.405622	0.950545
	N233	N	0.681994	0.580297	0.022438
	N234	N	0.321880	0.579608	0.951160
	N235	N	0.320756	0.404414	0.023041
	N236	N	0.965742	0.672408	0.399403
	N237	N	0.035607	0.673153	0.576178
	N238	N	0.964348	0.309844	0.575071
	N239	N	0.036457	0.309637	0.400009
	N240	N	0.964350	0.404987	0.667617
	N241	N	0.038228	0.575283	0.664401
	N242	N	0.964903	0.576230	0.308487
	N243	N	0.037711	0.404143	0.307107
	N244	N	0.416632	0.670148	0.950536
	N245	N	0.587746	0.670860	0.023955
	N246	N	0.587450	0.314285	0.950740
	N247	N	0.417900	0.316518	0.025612
	N248	N	0.682048	0.956581	0.397707
	N249	N	0.682353	0.025980	0.576123
	N250	N	0.318899	0.955782	0.575463
	N251	N	0.317757	0.025350	0.398133
	N252	N	0.916881	0.454534	0.164163
	N253	N	0.088191	0.527838	0.166328
	N254	N	0.085868	0.455384	0.810063
	N255	N	0.916483	0.529106	0.809672
	N256	N	0.180872	0.903166	0.451913
	N257	N	0.180989	0.078762	0.523714
	N258	N	0.819718	0.077824	0.451525
	N259	N	0.818531	0.901705	0.522545
	N260	N	0.465882	0.173778	0.900632
	N261	N	0.536067	0.175456	0.077541
	N262	N	0.466607	0.809124	0.077288
	N263	N	0.536369	0.809603	0.898580
	N264	N	0.463284	0.907524	0.165729
	N265	N	0.536188	0.079124	0.168645
	N266	N	0.464566	0.078290	0.808380
	N267	N	0.536292	0.904574	0.806006
	N268	N	0.913569	0.169625	0.450728
	N269	N	0.085448	0.168934	0.524944
	N270	N	0.086693	0.812123	0.451226
	N271	N	0.913831	0.811894	0.523794
	N272	N	0.184462	0.458388	0.897112
	N273	N	0.183677	0.527281	0.075811
	N274	N	0.819339	0.457258	0.075482
	N275	N	0.818160	0.526710	0.896284
	O276	O	0.487757	0.490742	0.350188
	H277	H	0.479472	0.508385	0.353759
	H278	H	0.504378	0.484951	0.341208
	O279	O	0.561648	0.427709	0.523763
	H280	H	0.554777	0.415674	0.515066
	H281	H	0.562112	0.428361	0.516697
	O282	O	0.659635	0.486454	0.574703
	H283	H	0.653994	0.473301	0.566871
	H284	H	0.662903	0.472766	0.566671
	O285	O	0.972703	0.090067	0.038445
	H286	H	0.976761	0.082409	0.053892
	H287	H	0.981782	0.081845	0.037854
	O288	O	-0.021264	-0.217665	1.188465
	H289	H	-0.051532	-0.219936	1.185045
	H290	H	-0.030963	-0.233192	1.207587
	O291	O	0.570207	0.418485	0.372043
	H292	H	0.569155	0.427233	0.366594
	H293	H	0.562077	0.413265	0.378168
	O294	O	0.598810	0.514028	0.559950
	H295	H	0.607409	0.507816	0.552349
	H296	H	0.611315	0.513601	0.563239
	O297	O	1.193072	1.184252	1.114511
	H298	H	1.207585	1.191513	1.081165
	H299	H	1.193392	1.145666	1.115004
	O300	O	-0.453746	0.668141	0.486228
	H301	H	-0.446301	0.661244	0.493723
	H302	H	-0.442923	0.678200	0.486031
	O303	O	0.328882	0.593952	0.405543
	H304	H	0.333011	0.592378	0.430335
	H305	H	0.311606	0.579764	0.397348
	O306	O	1.007036	0.141956	0.091542
	H307	H	1.010250	0.141840	0.108007
	H308	H	1.032657	0.144858	0.098190
	O309	O	0.464313	0.475915	0.498739
	H310	H	0.455072	0.462364	0.506508
	H311	H	0.472842	0.477181	0.507995
	O312	O	0.849304	1.170699	-0.155656
	H313	H	0.884654	1.178717	-0.160116
	H314	H	0.859751	1.157907	-0.148534
	O315	O	0.485397	0.551890	0.441615
	H316	H	0.475729	0.552079	0.443484
	H317	H	0.496969	0.563357	0.457070
	O318	O	0.493416	0.578755	0.455321
	H319	H	0.485887	0.584966	0.452397
	H320	H	0.495258	0.581833	0.464023
	O321	O	1.215290	0.019976	1.029872
	H322	H	1.217296	0.019806	1.040659
	H323	H	1.218322	0.009708	1.026842
	O324	O	0.213731	-0.220768	0.958926
	H325	H	0.213707	-0.230588	0.943199
	H326	H	0.214268	-0.240272	0.970701
	O327	O	0.632205	0.424974	0.400070
	H328	H	0.627634	0.428559	0.393352
	H329	H	0.632461	0.430896	0.405438
	O330	O	0.424355	0.405520	0.543781
	H331	H	0.419533	0.408971	0.544354
	H332	H	0.430423	0.395530	0.556154
	O333	O	0.807250	0.795968	1.107317
	H334	H	0.786308	0.811858	1.114304
	H335	H	0.800108	0.805488	1.081533
	O336	O	0.348956	0.365168	0.606553
	H337	H	0.340923	0.356606	0.604159
	H338	H	0.346426	0.385967	0.604516
	O339	O	1.053927	0.209643	1.110120
	H340	H	1.068688	0.227700	1.119139
	H341	H	1.065440	0.213257	1.105968
	O342	O	0.186298	0.963984	1.190937
	H343	H	0.168391	0.952844	1.195345
	H344	H	0.192323	0.956191	1.199831
	O345	O	-0.004495	0.820276	0.803806
	H346	H	-0.010893	0.807188	0.786296
	H347	H	-0.016985	0.845716	0.807151
	O348	O	0.912194	0.853280	0.972004
	H349	H	0.887826	0.843600	0.977096
	H350	H	0.920822	0.859547	0.955577
	O351	O	0.177676	-0.175464	-0.189633
	H352	H	0.163777	-0.162146	-0.201371
	H353	H	0.163279	-0.185683	-0.161154
	O354	O	1.053947	1.004863	-0.131194
	H355	H	1.056590	0.987299	-0.109042
	H356	H	1.076886	0.993071	-0.142550
	O357	O	-0.187488	0.816646	-0.029333
	H358	H	-0.213169	0.796555	-0.018043
	H359	H	-0.204858	0.853189	-0.052529
	O360	O	0.480571	0.429282	0.398804
	H361	H	0.484342	0.428817	0.392267
	H362	H	0.497133	0.424454	0.407598
	O363	O	0.397241	0.552606	0.632521
	H364	H	0.398222	0.543830	0.626607
	H365	H	0.419748	0.561623	0.634972
	O366	O	1.208621	0.992221	0.783724
	H367	H	1.222507	1.001136	0.780816
	H368	H	1.219487	0.965967	0.780137
	O369	O	0.479876	0.452409	0.511178
	H370	H	0.459079	0.455926	0.501154
	H371	H	0.475629	0.457392	0.510208
	O372	O	-0.137748	1.035878	0.064292
	H373	H	-0.149302	1.053039	0.076154
	H374	H	-0.137638	1.044938	0.071498
	O375	O	0.481285	0.375948	0.638964
	H376	H	0.474200	0.359650	0.640417
	H377	H	0.474096	0.377309	0.648020
	O378	O	0.397588	0.436787	0.447096
	H379	H	0.390547	0.440984	0.455040
	H380	H	0.396890	0.452981	0.452358
	O381	O	0.553358	0.638722	0.449981
	H382	H	0.558160	0.640336	0.445907
	H383	H	0.548220	0.652506	0.459202
	O384	O	0.017044	1.046863	0.903210
	H385	H	0.026598	1.031319	0.901841
	H386	H	0.012134	1.054283	0.897108
	O387	O	0.806394	0.969510	0.037710
	H388	H	0.802589	0.986019	0.016530
	H389	H	0.797917	0.995668	0.051901
	O390	O	-0.121836	0.118741	1.142084
	H391	H	-0.105261	0.121697	1.139178
	H392	H	-0.104116	0.130066	1.135844
	O393	O	1.238936	0.176030	1.263193
	H394	H	1.238763	0.166230	1.254233
	H395	H	1.243730	0.156247	1.279552
	O396	O	0.140116	1.147727	0.897476
	H397	H	0.134521	1.129539	0.905804
	H398	H	0.129188	1.144688	0.923545
	O399	O	0.619003	0.493743	0.526619
	H400	H	0.613627	0.487817	0.521284
	H401	H	0.628671	0.476437	0.515748
	O402	O	1.019790	-0.008788	1.139840
	H403	H	1.028128	-0.025858	1.151385
	H404	H	1.018968	-0.012628	1.114157
	O405	O	0.083485	-0.202152	0.060716
	H406	H	0.072539	-0.207607	0.057924
	H407	H	0.070553	-0.210317	0.051218
	O408	O	0.954889	0.885227	0.811456
	H409	H	0.939250	0.896496	0.834956
	H410	H	0.959838	0.893281	0.803110
	O411	O	0.804828	0.908810	0.186073
	H412	H	0.831426	0.930283	0.181013
	H413	H	0.790207	0.926063	0.205735
	O414	O	-0.210099	0.164094	0.909351
	H415	H	-0.222174	0.185579	0.899235
	H416	H	-0.199811	0.169338	0.890555
	O417	O	0.465925	0.481264	0.541024
	H418	H	0.476246	0.487777	0.529928
	H419	H	0.469327	0.475591	0.526783
	O420	O	-0.219900	0.992431	-0.199952
	H421	H	-0.213384	1.025992	-0.201001
	H422	H	-0.226999	0.998949	-0.225261
	O423	O	1.178567	0.075255	-0.038639
	H424	H	1.173431	0.075544	-0.022001
	H425	H	1.175541	0.057609	-0.045041
	O426	O	0.018511	0.124219	0.815794
	H427	H	0.014928	0.120444	0.822285
	H428	H	0.031186	0.104429	0.819554
	O429	O	0.546051	0.516813	0.418869
	H430	H	0.551353	0.512515	0.435099
	H431	H	0.529877	0.516638	0.403782
