data_Molecule from HDF5

_cell_length_a		16.160280
_cell_length_b		16.371150
_cell_length_c		16.231468
_cell_angle_alpha	90.153100
_cell_angle_beta	90.069781
_cell_angle_gamma	89.659725
_symmetry_space_group_name_H-M	'P 1'
_symmetry_Int_Tables_number		1

loop_
	_symmetry_equiv_pos_as_xyz
	x,y,z

loop_
	_atom_site_label
	_atom_site_type_symbol
	_atom_site_fract_x
	_atom_site_fract_y
	_atom_site_fract_z
	H0	H	0.393050	0.841769	0.713845
	H1	H	0.593326	0.166031	0.714233
	H2	H	0.592908	0.842345	0.278972
	H3	H	0.389441	0.166783	0.280580
	H4	H	0.707119	0.405436	0.832732
	H5	H	0.705232	0.601711	0.161796
	H6	H	0.276780	0.604665	0.832927
	H7	H	0.280510	0.409667	0.161151
	H8	H	0.828654	0.720752	0.395819
	H9	H	0.155387	0.719012	0.599788
	H10	H	0.828455	0.289290	0.597701
	H11	H	0.155603	0.284257	0.397357
	H12	H	0.828162	0.405101	0.711862
	H13	H	0.157074	0.600733	0.711217
	H14	H	0.827325	0.601909	0.284410
	H15	H	0.156969	0.401469	0.282689
	H16	H	0.391129	0.721891	0.833975
	H17	H	0.594674	0.721673	0.159597
	H18	H	0.597541	0.284898	0.834825
	H19	H	0.390675	0.288362	0.159295
	H20	H	0.707052	0.841154	0.397799
	H21	H	0.705052	0.166984	0.594374
	H22	H	0.279258	0.839335	0.596024
	H23	H	0.273341	0.165871	0.398741
	H24	H	0.891831	0.341220	0.213629
	H25	H	0.092375	0.665700	0.216530
	H26	H	0.095381	0.341359	0.780722
	H27	H	0.891097	0.665991	0.780320
	H28	H	0.206163	0.902129	0.333661
	H29	H	0.206286	0.099823	0.661859
	H30	H	0.778375	0.101496	0.332475
	H31	H	0.777528	0.906145	0.661379
	H32	H	0.329213	0.222965	0.892568
	H33	H	0.655746	0.219917	0.098160
	H34	H	0.329780	0.789462	0.099499
	H35	H	0.656090	0.786419	0.894685
	H36	H	0.328109	0.908330	0.208267
	H37	H	0.656345	0.103339	0.210948
	H38	H	0.328520	0.104719	0.780527
	H39	H	0.657326	0.903936	0.781374
	H40	H	0.888042	0.221620	0.335363
	H41	H	0.094038	0.219453	0.660663
	H42	H	0.094530	0.784041	0.335954
	H43	H	0.890295	0.787737	0.660677
	H44	H	0.210947	0.342286	0.897428
	H45	H	0.205406	0.668133	0.097344
	H46	H	0.776943	0.341756	0.095347
	H47	H	0.776259	0.667033	0.898631
	H48	H	0.404134	0.119346	0.594731
	H49	H	0.580926	0.890435	0.586196
	H50	H	0.581122	0.116651	0.410896
	H51	H	0.405262	0.890105	0.405264
	H52	H	0.577584	0.412148	0.110972
	H53	H	0.583722	0.602065	0.879115
	H54	H	0.399624	0.605906	0.115184
	H55	H	0.417251	0.411073	0.884400
	H56	H	0.110469	0.593560	0.402022
	H57	H	0.875980	0.594309	0.586164
	H58	H	0.113196	0.401564	0.590059
	H59	H	0.873836	0.408859	0.402353
	H60	H	0.106547	0.411344	0.581605
	H61	H	0.874652	0.594500	0.591987
	H62	H	0.109981	0.598386	0.410190
	H63	H	0.876269	0.408681	0.410430
	H64	H	0.395734	0.596504	0.114041
	H65	H	0.588085	0.593496	0.879996
	H66	H	0.585736	0.406097	0.115432
	H67	H	0.394730	0.401263	0.874543
	H68	H	0.591710	0.122656	0.402171
	H69	H	0.589542	0.887667	0.587295
	H70	H	0.400894	0.115436	0.581029
	H71	H	0.394826	0.887544	0.404659
	H72	H	0.896215	0.618894	0.086406
	H73	H	0.087683	0.390236	0.083485
	H74	H	0.083554	0.619565	0.904249
	H75	H	0.895044	0.386834	0.905911
	H76	H	0.087200	0.915034	0.613720
	H77	H	0.076377	0.098501	0.381904
	H78	H	0.909512	0.103167	0.612166
	H79	H	0.894759	0.909680	0.379765
	H80	H	0.608398	0.093996	0.907125
	H81	H	0.376229	0.100032	0.083109
	H82	H	0.609784	0.915980	0.088438
	H83	H	0.375957	0.915174	0.904012
	H84	H	0.611720	0.909833	0.089214
	H85	H	0.376028	0.093983	0.087729
	H86	H	0.609031	0.095031	0.904055
	H87	H	0.375732	0.912047	0.904341
	H88	H	0.888518	0.103856	0.619461
	H89	H	0.087542	0.094538	0.379532
	H90	H	0.077922	0.908182	0.613457
	H91	H	0.902506	0.916275	0.382921
	H92	H	0.082458	0.619655	0.903680
	H93	H	0.089700	0.386893	0.093222
	H94	H	0.895852	0.621899	0.095607
	H95	H	0.902054	0.387189	0.898326
	H96	H	0.391053	0.120770	0.590202
	H97	H	0.583836	0.887172	0.594044
	H98	H	0.577931	0.119611	0.396787
	H99	H	0.400431	0.886742	0.395688
	H100	H	0.587792	0.416619	0.113169
	H101	H	0.577730	0.594140	0.882535
	H102	H	0.405813	0.597589	0.111492
	H103	H	0.396045	0.426308	0.882769
	H104	H	0.106439	0.589435	0.409772
	H105	H	0.874690	0.599454	0.588523
	H106	H	0.110214	0.414565	0.594791
	H107	H	0.876850	0.416516	0.405561
	H108	H	0.904744	0.618262	0.091840
	H109	H	0.080437	0.391061	0.090506
	H110	H	0.082863	0.619045	0.904780
	H111	H	0.904126	0.390546	0.907623
	H112	H	0.088246	0.904248	0.617527
	H113	H	0.079716	0.086822	0.384145
	H114	H	0.897774	0.084970	0.611048
	H115	H	0.904601	0.905666	0.379957
	H116	H	0.609508	0.096949	0.906552
	H117	H	0.373124	0.100127	0.090519
	H118	H	0.608405	0.910701	0.083490
	H119	H	0.376392	0.913090	0.907560
	C120	C	0.370570	0.011011	0.618073
	C121	C	0.614066	0.995696	0.618924
	C122	C	0.613249	0.012489	0.374435
	C123	C	0.369407	0.995371	0.373558
	C124	C	0.614203	0.382121	0.005347
	C125	C	0.613344	0.625738	0.988571
	C126	C	0.370204	0.628602	0.005605
	C127	C	0.372505	0.384145	0.988239
	C128	C	0.000612	0.623786	0.377262
	C129	C	0.983571	0.624493	0.618922
	C130	C	0.001318	0.381493	0.618306
	C131	C	0.983643	0.380765	0.376019
	C132	C	0.870436	0.512111	0.119205
	C133	C	0.114532	0.496429	0.119492
	C134	C	0.114360	0.512336	0.874958
	C135	C	0.870684	0.495682	0.875075
	C136	C	0.114186	0.879601	0.506549
	C137	C	0.111723	0.122763	0.489466
	C138	C	0.869488	0.125757	0.505851
	C139	C	0.870480	0.881781	0.489216
	C140	C	0.501206	0.126018	0.874940
	C141	C	0.483293	0.126732	0.117520
	C142	C	0.501563	0.883760	0.116997
	C143	C	0.484324	0.882974	0.875073
	C144	C	0.372732	0.889734	0.675291
	C145	C	0.612679	0.117707	0.675272
	C146	C	0.612169	0.890483	0.318005
	C147	C	0.369574	0.117764	0.318560
	C148	C	0.669985	0.384254	0.882134
	C149	C	0.668427	0.622899	0.112178
	C150	C	0.314192	0.625762	0.882225
	C151	C	0.317364	0.387699	0.111873
	C152	C	0.877538	0.681733	0.376876
	C153	C	0.106602	0.680704	0.618785
	C154	C	0.877521	0.327076	0.617214
	C155	C	0.106754	0.323106	0.377220
	C156	C	0.877487	0.384515	0.674124
	C157	C	0.107641	0.621406	0.673700
	C158	C	0.876616	0.622283	0.321710
	C159	C	0.107342	0.381377	0.320343
	C160	C	0.371080	0.683937	0.882693
	C161	C	0.613300	0.682468	0.111261
	C162	C	0.615266	0.324255	0.883250
	C163	C	0.372145	0.327494	0.110826
	C164	C	0.669154	0.889913	0.376751
	C165	C	0.668535	0.118124	0.615883
	C166	C	0.316052	0.888585	0.616558
	C167	C	0.311834	0.117502	0.377183
	C168	C	0.871908	0.390018	0.175346
	C169	C	0.112642	0.617528	0.177786
	C170	C	0.114477	0.390017	0.819029
	C171	C	0.871459	0.617680	0.818992
	C172	C	0.169394	0.881599	0.383335
	C173	C	0.168183	0.120620	0.612904
	C174	C	0.814893	0.122842	0.382071
	C175	C	0.814507	0.885036	0.611964
	C176	C	0.378160	0.183920	0.874258
	C177	C	0.606769	0.181897	0.117131
	C178	C	0.378446	0.828246	0.117142
	C179	C	0.607409	0.825621	0.875481
	C180	C	0.377669	0.887088	0.171839
	C181	C	0.606912	0.124087	0.173588
	C182	C	0.377796	0.125130	0.818301
	C183	C	0.607987	0.884244	0.819302
	C184	C	0.869599	0.182461	0.383499
	C185	C	0.112423	0.179988	0.612296
	C186	C	0.113481	0.822964	0.384272
	C187	C	0.870797	0.825896	0.611684
	C188	C	0.172216	0.390604	0.877028
	C189	C	0.168925	0.618926	0.118370
	C190	C	0.814784	0.390120	0.116509
	C191	C	0.814319	0.618195	0.877680
	C192	C	0.392291	0.096415	0.595305
	C193	C	0.591516	0.910464	0.595841
	C194	C	0.590399	0.097538	0.396920
	C195	C	0.393093	0.910299	0.395539
	C196	C	0.590555	0.404940	0.091035
	C197	C	0.590027	0.603355	0.902811
	C198	C	0.393419	0.606527	0.091330
	C199	C	0.395877	0.406456	0.902657
	C200	C	0.086660	0.600456	0.400681
	C201	C	0.897362	0.602476	0.595699
	C202	C	0.087500	0.402778	0.595375
	C203	C	0.897894	0.404375	0.399298
	C204	C	0.892371	0.597413	0.097441
	C205	C	0.092435	0.411434	0.096088
	C206	C	0.090193	0.597308	0.897646
	C207	C	0.893590	0.410513	0.897337
	C208	C	0.091142	0.902367	0.592614
	C209	C	0.088058	0.100074	0.404097
	C210	C	0.891968	0.103843	0.591771
	C211	C	0.893827	0.904136	0.403096
	C212	C	0.586814	0.102209	0.899075
	C213	C	0.397259	0.104782	0.094053
	C214	C	0.587874	0.905619	0.093605
	C215	C	0.398292	0.906564	0.898407
	Zn216	Zn	0.492430	0.004199	0.747066
	Zn217	Zn	0.492075	0.004784	0.244127
	Zn218	Zn	0.740905	0.504199	-0.003272
	Zn219	Zn	0.243559	0.505857	-0.002807
	Zn220	Zn	-0.007909	0.752421	0.497987
	Zn221	Zn	-0.008071	0.252492	0.497958
	Zn222	Zn	-0.007239	0.503172	0.746129
	Zn223	Zn	-0.007590	0.503251	0.248770
	Zn224	Zn	0.492687	0.755731	-0.003151
	Zn225	Zn	0.492399	0.254391	-0.003670
	Zn226	Zn	0.742302	0.004248	0.496801
	Zn227	Zn	0.240886	0.002231	0.497306
	N228	N	0.405833	0.966958	0.676275
	N229	N	0.579545	0.040470	0.677165
	N230	N	0.578178	0.967640	0.316450
	N231	N	0.404428	0.040983	0.316092
	N232	N	0.669477	0.419427	0.959140
	N233	N	0.668446	0.588247	0.034812
	N234	N	0.313528	0.592165	0.959757
	N235	N	0.317352	0.422164	0.034643
	N236	N	0.955664	0.682806	0.410674
	N237	N	0.028331	0.682883	0.585348
	N238	N	0.955519	0.324733	0.583353
	N239	N	0.028557	0.322206	0.410753
	N240	N	0.955596	0.417359	0.675133
	N241	N	0.030069	0.587630	0.674117
	N242	N	0.954082	0.586958	0.321924
	N243	N	0.029853	0.416419	0.319492
	N244	N	0.404898	0.685962	0.960364
	N245	N	0.579584	0.684421	0.033402
	N246	N	0.581109	0.323095	0.960895
	N247	N	0.405699	0.325234	0.032940
	N248	N	0.669908	0.966619	0.411271
	N249	N	0.669632	0.041154	0.581722
	N250	N	0.314799	0.964982	0.581382
	N251	N	0.311350	0.040373	0.410649
	N252	N	0.905732	0.466830	0.177154
	N253	N	0.079464	0.540280	0.178634
	N254	N	0.079307	0.466824	0.817832
	N255	N	0.905628	0.540473	0.817005
	N256	N	0.170069	0.915979	0.460588
	N257	N	0.167892	0.085706	0.535715
	N258	N	0.814609	0.088382	0.459129
	N259	N	0.814162	0.918852	0.534413
	N260	N	0.456038	0.184832	0.908672
	N261	N	0.528922	0.183604	0.082764
	N262	N	0.456769	0.825872	0.083794
	N263	N	0.529535	0.824820	0.909576
	N264	N	0.455236	0.920889	0.171628
	N265	N	0.529147	0.090460	0.173793
	N266	N	0.455221	0.089975	0.818493
	N267	N	0.530436	0.919477	0.819263
	N268	N	0.902866	0.184612	0.461500
	N269	N	0.077953	0.181395	0.534761
	N270	N	0.079890	0.821607	0.462035
	N271	N	0.904872	0.823753	0.534124
	N272	N	0.172259	0.467644	0.911111
	N273	N	0.170453	0.542548	0.082981
	N274	N	0.813539	0.467024	0.082432
	N275	N	0.813693	0.541400	0.911771
	O276	O	0.987401	0.042022	1.056706
	H277	H	0.992001	0.045869	1.061673
	H278	H	0.980086	0.037823	1.049268
	O279	O	0.486010	0.590568	0.606582
	H280	H	0.487706	0.598916	0.612600
	H281	H	0.492952	0.577923	0.603223
	O282	O	0.376682	0.517848	0.480453
	H283	H	0.368680	0.527508	0.477037
	H284	H	0.386170	0.523426	0.489551
	O285	O	0.472271	0.577054	0.491182
	H286	H	0.466822	0.573024	0.497416
	H287	H	0.460651	0.590271	0.487406
	O288	O	0.556368	0.461976	0.540028
	H289	H	0.551861	0.458344	0.547869
	H290	H	0.562730	0.462678	0.545477
	O291	O	0.065039	-0.064838	1.064326
	H292	H	0.071327	-0.075370	1.056645
	H293	H	0.071607	-0.047633	1.076030
	O294	O	1.050129	0.931151	0.005859
	H295	H	1.048709	0.931511	0.010337
	H296	H	1.044051	0.946083	0.011591
	O297	O	1.016156	0.970082	-0.049439
	H298	H	1.023840	0.961457	-0.040009
	H299	H	0.998739	0.968739	-0.050297
	O300	O	0.352975	0.488597	0.598252
	H301	H	0.347140	0.490657	0.608963
	H302	H	0.354255	0.477286	0.593404
	O303	O	1.131151	-0.046409	0.998562
	H304	H	1.141936	-0.058761	0.999267
	H305	H	1.130913	-0.035709	0.997186
	O306	O	0.479423	0.435450	0.438098
	H307	H	0.482157	0.434985	0.438137
	H308	H	0.482127	0.429924	0.450325
	O309	O	0.591959	0.431397	0.491850
	H310	H	0.604217	0.433347	0.484257
	H311	H	0.591263	0.454172	0.496810
	O312	O	0.945827	1.082863	1.093343
	H313	H	0.946382	1.083421	1.085219
	H314	H	0.949940	1.081733	1.091819
	O315	O	1.107467	1.122624	0.128199
	H316	H	1.101176	1.133628	0.133394
	H317	H	1.114649	1.132303	0.141576
	O318	O	0.491316	0.475459	0.451004
	H319	H	0.486288	0.476271	0.449931
	H320	H	0.504331	0.485429	0.460265
	O321	O	0.559057	0.613633	0.556529
	H322	H	0.572419	0.608153	0.560581
	H323	H	0.565824	0.597187	0.551173
	O324	O	-0.096580	0.924462	0.947884
	H325	H	-0.110865	0.934775	0.943518
	H326	H	-0.084627	0.927216	0.936737
	O327	O	-0.090544	1.172177	0.961926
	H328	H	-0.090481	1.187122	0.967473
	H329	H	-0.078731	1.171146	0.968653
	O330	O	-0.117198	-0.076293	-0.041105
	H331	H	-0.110399	-0.090939	-0.049232
	H332	H	-0.094926	-0.081136	-0.039520
	O333	O	0.374680	0.464762	0.552553
	H334	H	0.366518	0.458089	0.557509
	H335	H	0.385892	0.475564	0.548166
	O336	O	0.106788	-0.076294	-0.050885
	H337	H	0.110499	-0.072690	-0.056060
	H338	H	0.102764	-0.065600	-0.041872
	O339	O	-0.077392	-0.092655	-0.012949
	H340	H	-0.071156	-0.099639	-0.008627
	H341	H	-0.079080	-0.077123	-0.019266
	O342	O	0.566957	0.481217	0.468593
	H343	H	0.562718	0.481587	0.461579
	H344	H	0.570574	0.473160	0.474966
	O345	O	0.012219	0.943962	0.870918
	H346	H	0.005460	0.955363	0.869717
	H347	H	0.020116	0.943269	0.860760
	O348	O	0.532548	0.407919	0.469985
	H349	H	0.538138	0.413254	0.458183
	H350	H	0.545689	0.410318	0.469542
	O351	O	0.474362	0.518272	0.376422
	H352	H	0.460840	0.526650	0.368714
	H353	H	0.475179	0.518930	0.360266
	O354	O	-0.089954	1.068452	-0.070244
	H355	H	-0.083207	1.062220	-0.081909
	H356	H	-0.095004	1.066946	-0.070416
	O357	O	0.546876	0.551517	0.474724
	H358	H	0.559980	0.552675	0.480909
	H359	H	0.546147	0.547818	0.461324
	O360	O	0.921727	0.073962	0.845851
	H361	H	0.910811	0.081846	0.837740
	H362	H	0.936708	0.071867	0.851389
	O363	O	0.508766	0.536098	0.475426
	H364	H	0.494059	0.544642	0.484126
	H365	H	0.524924	0.539454	0.482538
	O366	O	0.510526	0.513958	0.416649
	H367	H	0.506182	0.512512	0.416888
	H368	H	0.509235	0.519074	0.411315
	O369	O	0.997425	0.076060	0.139703
	H370	H	1.008498	0.075614	0.140903
	H371	H	0.994652	0.072147	0.145304
	O372	O	0.516059	0.470396	0.571026
	H373	H	0.512067	0.461037	0.567358
	H374	H	0.502300	0.456273	0.561884
	O375	O	1.091095	0.092032	0.926391
	H376	H	1.077724	0.085498	0.936294
	H377	H	1.104568	0.101218	0.927945
	O378	O	0.025351	1.062283	-0.072642
	H379	H	0.039679	1.055655	-0.069850
	H380	H	0.016350	1.059961	-0.078088
	O381	O	0.489894	0.560192	0.433021
	H382	H	0.487700	0.559517	0.415363
	H383	H	0.498815	0.573983	0.428329
	O384	O	1.022546	0.934949	0.069903
	H385	H	1.006585	0.941564	0.077959
	H386	H	1.022220	0.923692	0.067501
	O387	O	0.823902	-0.004659	1.126548
	H388	H	0.822035	-0.005433	1.128745
	H389	H	0.820164	-0.008529	1.115633
	O390	O	1.130106	1.100834	0.057333
	H391	H	1.137745	1.100785	0.048767
	H392	H	1.126160	1.092774	0.056691
	O393	O	0.490621	0.470899	0.611906
	H394	H	0.496107	0.478019	0.607676
	H395	H	0.486148	0.459653	0.621180
