data_Molecule from HDF5

_cell_length_a		16.138925
_cell_length_b		16.232024
_cell_length_c		16.316075
_cell_angle_alpha	89.427170
_cell_angle_beta	90.631676
_cell_angle_gamma	89.451659
_symmetry_space_group_name_H-M	'P 1'
_symmetry_Int_Tables_number		1

loop_
	_symmetry_equiv_pos_as_xyz
	x,y,z

loop_
	_atom_site_label
	_atom_site_type_symbol
	_atom_site_fract_x
	_atom_site_fract_y
	_atom_site_fract_z
	H0	H	0.408971	0.841177	0.706894
	H1	H	0.607242	0.167016	0.704217
	H2	H	0.605053	0.839174	0.279469
	H3	H	0.400082	0.166614	0.269938
	H4	H	0.717192	0.408305	0.824545
	H5	H	0.720061	0.597981	0.153216
	H6	H	0.288514	0.605519	0.825069
	H7	H	0.296090	0.406031	0.152955
	H8	H	0.841388	0.719149	0.387889
	H9	H	0.171488	0.711469	0.589083
	H10	H	0.840194	0.289637	0.586316
	H11	H	0.171468	0.290009	0.396438
	H12	H	0.840699	0.402960	0.703188
	H13	H	0.169442	0.598568	0.705526
	H14	H	0.841599	0.605726	0.272039
	H15	H	0.170779	0.403430	0.277835
	H16	H	0.402456	0.723191	0.825732
	H17	H	0.605101	0.714901	0.153645
	H18	H	0.605600	0.288368	0.826111
	H19	H	0.408979	0.287068	0.151163
	H20	H	0.719920	0.839196	0.395298
	H21	H	0.719131	0.168318	0.586639
	H22	H	0.297132	0.837941	0.588127
	H23	H	0.287309	0.166728	0.388411
	H24	H	0.908102	0.340221	0.205243
	H25	H	0.105229	0.668122	0.203000
	H26	H	0.104382	0.338911	0.779794
	H27	H	0.901035	0.666107	0.769251
	H28	H	0.219568	0.905717	0.325662
	H29	H	0.219925	0.096614	0.653286
	H30	H	0.790180	0.103712	0.326301
	H31	H	0.795452	0.905364	0.654056
	H32	H	0.342073	0.219734	0.886883
	H33	H	0.671142	0.213938	0.088957
	H34	H	0.339427	0.791910	0.084745
	H35	H	0.670844	0.790956	0.895628
	H36	H	0.340320	0.904109	0.203430
	H37	H	0.670112	0.099937	0.205180
	H38	H	0.343090	0.107532	0.770228
	H39	H	0.671029	0.903369	0.778711
	H40	H	0.902703	0.221339	0.327243
	H41	H	0.105857	0.214135	0.653753
	H42	H	0.105302	0.787968	0.326213
	H43	H	0.910719	0.786987	0.652801
	H44	H	0.219452	0.339510	0.894322
	H45	H	0.217171	0.669391	0.083530
	H46	H	0.796750	0.338271	0.085191
	H47	H	0.789841	0.668494	0.888186
	H48	H	0.399259	0.123201	0.573357
	H49	H	0.603309	0.885919	0.582151
	H50	H	0.594923	0.119181	0.400431
	H51	H	0.418545	0.885518	0.389790
	H52	H	0.598506	0.414504	0.103202
	H53	H	0.596040	0.592593	0.874728
	H54	H	0.409201	0.595887	0.105630
	H55	H	0.414967	0.406381	0.871282
	H56	H	0.119539	0.596652	0.416840
	H57	H	0.890517	0.590740	0.573470
	H58	H	0.118648	0.411786	0.573174
	H59	H	0.884754	0.407773	0.388105
	H60	H	0.124256	0.416866	0.597528
	H61	H	0.885843	0.592698	0.585938
	H62	H	0.121163	0.575762	0.386567
	H63	H	0.889183	0.408815	0.403389
	H64	H	0.416129	0.594568	0.103354
	H65	H	0.590338	0.604576	0.872870
	H66	H	0.597010	0.401587	0.105785
	H67	H	0.405372	0.412814	0.869963
	H68	H	0.601430	0.123190	0.393832
	H69	H	0.602754	0.884669	0.589700
	H70	H	0.415484	0.124364	0.594282
	H71	H	0.419322	0.890071	0.402846
	H72	H	0.909771	0.625553	0.091872
	H73	H	0.104336	0.386779	0.080315
	H74	H	0.097533	0.620697	0.897353
	H75	H	0.903684	0.384360	0.900041
	H76	H	0.095826	0.916424	0.601914
	H77	H	0.092612	0.097122	0.374299
	H78	H	0.910107	0.100104	0.609113
	H79	H	0.913920	0.910522	0.373466
	H80	H	0.624437	0.092890	0.893824
	H81	H	0.386928	0.100097	0.079652
	H82	H	0.623637	0.910177	0.087442
	H83	H	0.385770	0.908859	0.895261
	H84	H	0.624436	0.905581	0.088075
	H85	H	0.389770	0.095033	0.076087
	H86	H	0.625856	0.098127	0.896606
	H87	H	0.390325	0.916936	0.900692
	H88	H	0.911413	0.092111	0.606415
	H89	H	0.097264	0.101380	0.371035
	H90	H	0.096031	0.895048	0.608620
	H91	H	0.909438	0.909833	0.371674
	H92	H	0.096244	0.622896	0.891112
	H93	H	0.103196	0.385096	0.089800
	H94	H	0.923396	0.617804	0.077370
	H95	H	0.913848	0.383804	0.887147
	H96	H	0.424156	0.114719	0.571693
	H97	H	0.597129	0.887481	0.584811
	H98	H	0.591978	0.121544	0.390252
	H99	H	0.407341	0.884855	0.398725
	H100	H	0.608510	0.407284	0.108355
	H101	H	0.603765	0.602384	0.870106
	H102	H	0.413979	0.601339	0.105541
	H103	H	0.415011	0.417416	0.874520
	H104	H	0.131461	0.609980	0.386218
	H105	H	0.886305	0.602757	0.576688
	H106	H	0.127974	0.394283	0.588344
	H107	H	0.890585	0.422237	0.393527
	H108	H	0.903125	0.621316	0.072660
	H109	H	0.095548	0.388323	0.084456
	H110	H	0.091781	0.620544	0.895006
	H111	H	0.919057	0.390183	0.902053
	H112	H	0.114200	0.906955	0.609478
	H113	H	0.099839	0.094107	0.373208
	H114	H	0.918130	0.097510	0.606087
	H115	H	0.911138	0.913944	0.373561
	H116	H	0.623167	0.093730	0.900179
	H117	H	0.386989	0.093212	0.082464
	H118	H	0.622174	0.906708	0.083679
	H119	H	0.387902	0.917829	0.890679
	C120	C	0.385474	0.012424	0.609882
	C121	C	0.628592	0.994870	0.611935
	C122	C	0.625915	0.012412	0.368428
	C123	C	0.383375	0.994705	0.366707
	C124	C	0.628802	0.380800	-0.002429
	C125	C	0.626102	0.625630	0.981063
	C126	C	0.383246	0.627044	-0.003147
	C127	C	0.384636	0.382866	0.979901
	C128	C	0.014862	0.624878	0.366708
	C129	C	0.996667	0.622476	0.609417
	C130	C	0.014180	0.380255	0.612313
	C131	C	0.997309	0.383090	0.368690
	C132	C	0.884834	0.512645	0.109661
	C133	C	0.128732	0.495611	0.111801
	C134	C	0.124893	0.512336	0.868297
	C135	C	0.882437	0.494809	0.866332
	C136	C	0.129267	0.879278	0.498237
	C137	C	0.126754	0.124330	0.480974
	C138	C	0.882962	0.126298	0.498888
	C139	C	0.884599	0.882050	0.481128
	C140	C	0.515679	0.125437	0.866772
	C141	C	0.497069	0.123792	0.109524
	C142	C	0.513598	0.880544	0.112466
	C143	C	0.497230	0.884300	0.868851
	C144	C	0.388692	0.889322	0.667383
	C145	C	0.626681	0.118360	0.666446
	C146	C	0.624856	0.888453	0.315971
	C147	C	0.381612	0.117563	0.308958
	C148	C	0.680994	0.386037	0.873882
	C149	C	0.682144	0.620044	0.104438
	C150	C	0.326804	0.625767	0.873950
	C151	C	0.332199	0.385191	0.103509
	C152	C	0.890891	0.681628	0.367716
	C153	C	0.121359	0.675264	0.608821
	C154	C	0.889379	0.327035	0.607452
	C155	C	0.121899	0.327341	0.374019
	C156	C	0.889715	0.383152	0.665636
	C157	C	0.120399	0.618981	0.667030
	C158	C	0.890804	0.624881	0.310189
	C159	C	0.121685	0.384017	0.315597
	C160	C	0.383049	0.684607	0.874510
	C161	C	0.624792	0.677901	0.104667
	C162	C	0.625512	0.326535	0.874658
	C163	C	0.388784	0.326189	0.102741
	C164	C	0.681867	0.888531	0.373669
	C165	C	0.682398	0.118879	0.607874
	C166	C	0.333012	0.887851	0.608286
	C167	C	0.325806	0.117845	0.368137
	C168	C	0.888084	0.388769	0.165976
	C169	C	0.125713	0.619029	0.165574
	C170	C	0.123756	0.388102	0.816443
	C171	C	0.882019	0.617461	0.808277
	C172	C	0.182725	0.884043	0.374828
	C173	C	0.182438	0.118971	0.604457
	C174	C	0.827443	0.124555	0.375521
	C175	C	0.832006	0.884240	0.604775
	C176	C	0.391499	0.181929	0.867168
	C177	C	0.621643	0.177272	0.108867
	C178	C	0.388955	0.828122	0.106996
	C179	C	0.621604	0.828294	0.873900
	C180	C	0.389485	0.884015	0.165948
	C181	C	0.621039	0.120376	0.166713
	C182	C	0.391989	0.125986	0.809188
	C183	C	0.621816	0.884407	0.815808
	C184	C	0.883616	0.182914	0.376017
	C185	C	0.125578	0.177137	0.604599
	C186	C	0.125931	0.825464	0.375017
	C187	C	0.889175	0.825615	0.604128
	C188	C	0.181175	0.388511	0.873363
	C189	C	0.181279	0.619709	0.105916
	C190	C	0.832314	0.388033	0.106852
	C191	C	0.826789	0.618798	0.867732
	C192	C	0.406561	0.098602	0.586724
	C193	C	0.607332	0.908458	0.591669
	C194	C	0.603012	0.099033	0.388788
	C195	C	0.407835	0.908905	0.390234
	C196	C	0.607624	0.401559	0.083519
	C197	C	0.603431	0.605640	0.894810
	C198	C	0.406410	0.603937	0.082819
	C199	C	0.405502	0.405467	0.894023
	C200	C	0.101595	0.601152	0.389779
	C201	C	0.909809	0.601606	0.585710
	C202	C	0.100994	0.401221	0.592394
	C203	C	0.910509	0.406083	0.389044
	C204	C	0.905888	0.598957	0.087280
	C205	C	0.107343	0.409098	0.091158
	C206	C	0.101844	0.599044	0.888548
	C207	C	0.905335	0.408443	0.889774
	C208	C	0.108256	0.899926	0.584471
	C209	C	0.103392	0.103623	0.395063
	C210	C	0.906257	0.103347	0.584848
	C211	C	0.905353	0.904613	0.395130
	C212	C	0.602123	0.101810	0.890068
	C213	C	0.410438	0.102476	0.086076
	C214	C	0.600938	0.901315	0.092295
	C215	C	0.410463	0.907741	0.889299
	Zn216	Zn	0.507031	0.004277	0.739293
	Zn217	Zn	0.505081	0.003305	0.239035
	Zn218	Zn	0.755430	0.503789	-0.011365
	Zn219	Zn	0.255182	0.504349	-0.011705
	Zn220	Zn	0.006584	0.751596	0.488971
	Zn221	Zn	0.005344	0.253719	0.490584
	Zn222	Zn	0.004519	0.502677	0.739057
	Zn223	Zn	0.005846	0.503964	0.239163
	Zn224	Zn	0.504909	0.755205	-0.010933
	Zn225	Zn	0.506685	0.252536	-0.011556
	Zn226	Zn	0.755034	0.004694	0.490009
	Zn227	Zn	0.256405	0.002617	0.489429
	N228	N	0.420761	0.967491	0.668462
	N229	N	0.593981	0.040271	0.669101
	N230	N	0.590853	0.966462	0.312577
	N231	N	0.416708	0.039990	0.308200
	N232	N	0.683229	0.418927	0.951269
	N233	N	0.683294	0.588502	0.026483
	N234	N	0.326585	0.590713	0.951148
	N235	N	0.329634	0.419832	0.026283
	N236	N	0.969075	0.681589	0.402328
	N237	N	0.043580	0.677353	0.573487
	N238	N	0.967572	0.324881	0.575078
	N239	N	0.043576	0.326770	0.406502
	N240	N	0.968238	0.415579	0.668798
	N241	N	0.041759	0.586652	0.667222
	N242	N	0.969011	0.590400	0.309476
	N243	N	0.043313	0.418066	0.312095
	N244	N	0.417413	0.685389	0.951950
	N245	N	0.590830	0.681659	0.026866
	N246	N	0.593679	0.323060	0.952557
	N247	N	0.420741	0.324624	0.024859
	N248	N	0.682832	0.966827	0.405425
	N249	N	0.683901	0.041272	0.574888
	N250	N	0.330858	0.965339	0.573235
	N251	N	0.326549	0.040361	0.403178
	N252	N	0.919900	0.467179	0.167994
	N253	N	0.093788	0.540691	0.169203
	N254	N	0.089481	0.466082	0.813061
	N255	N	0.915636	0.539383	0.807209
	N256	N	0.185155	0.916461	0.452502
	N257	N	0.183267	0.086780	0.526665
	N258	N	0.826967	0.090078	0.452818
	N259	N	0.829148	0.918856	0.527440
	N260	N	0.469409	0.181976	0.902160
	N261	N	0.543540	0.179604	0.074199
	N262	N	0.467073	0.825907	0.074674
	N263	N	0.543101	0.827933	0.905913
	N264	N	0.468347	0.915831	0.169504
	N265	N	0.542512	0.087789	0.167259
	N266	N	0.470261	0.091456	0.808889
	N267	N	0.543519	0.918637	0.812552
	N268	N	0.917619	0.184121	0.453766
	N269	N	0.091660	0.180639	0.526759
	N270	N	0.093673	0.822153	0.452809
	N271	N	0.921020	0.823945	0.526138
	N272	N	0.181956	0.466796	0.904827
	N273	N	0.183372	0.541943	0.073360
	N274	N	0.830212	0.465829	0.072404
	N275	N	0.826722	0.541269	0.903033
	O276	O	-0.068664	0.009497	0.023949
	H277	H	-0.069400	0.005296	0.018375
	H278	H	-0.067943	0.009594	0.020562
	O279	O	0.405776	0.544890	0.434039
	H280	H	0.410770	0.521525	0.433474
	H281	H	0.391803	0.556142	0.422192
	O282	O	0.481706	0.496902	0.509122
	H283	H	0.494237	0.492015	0.503160
	H284	H	0.480933	0.500246	0.511771
	O285	O	0.958380	-0.040707	1.005729
	H286	H	0.955630	-0.040089	1.016400
	H287	H	0.952156	-0.049235	1.010874
	O288	O	0.998879	-0.028847	0.048776
	H289	H	0.995922	-0.020995	0.043043
	H290	H	1.003792	-0.024235	0.052646
	O291	O	0.492442	0.453945	0.366288
	H292	H	0.499588	0.455312	0.367499
	H293	H	0.497030	0.442703	0.371210
	O294	O	0.981062	0.107471	1.010229
	H295	H	0.976924	0.117263	1.005233
	H296	H	0.988676	0.111313	1.013773
	O297	O	0.032556	0.082925	0.034717
	H298	H	0.036494	0.087954	0.035733
	H299	H	0.032112	0.081838	0.035677
	O300	O	0.421743	0.598490	0.439267
	H301	H	0.414136	0.607194	0.439932
	H302	H	0.420146	0.592179	0.433209
	O303	O	0.449095	0.451931	0.571335
	H304	H	0.447780	0.447843	0.578911
	H305	H	0.441530	0.460518	0.575913
	O306	O	0.947000	0.010968	0.025795
	H307	H	0.946135	-0.001713	0.023515
	H308	H	0.952714	0.011167	0.030328
	O309	O	0.027656	0.051343	0.989310
	H310	H	0.023446	0.051135	0.987099
	H311	H	0.017383	0.050925	0.985804
	O312	O	1.477164	0.493785	1.418862
	H313	H	1.487651	0.482178	1.416563
	H314	H	1.478419	0.486373	1.434448
	O315	O	0.453936	0.543078	0.407890
	H316	H	0.448970	0.543948	0.393998
	H317	H	0.448911	0.544483	0.403083
	O318	O	0.558802	0.471995	0.373113
	H319	H	0.568348	0.470049	0.382793
	H320	H	0.559901	0.460818	0.361618
	O321	O	0.039762	1.016325	1.082956
	H322	H	0.042862	1.016981	1.087249
	H323	H	0.039667	1.017872	1.083339
	O324	O	0.544908	0.482523	0.484329
	H325	H	0.540145	0.483956	0.484298
	H326	H	0.544144	0.472402	0.480809
	O327	O	0.558240	0.470080	0.555059
	H328	H	0.566401	0.471816	0.560288
	H329	H	0.561297	0.475193	0.546927
	O330	O	0.575471	0.543219	0.492103
	H331	H	0.565889	0.540737	0.492563
	H332	H	0.572432	0.551513	0.487990
	O333	O	0.584984	0.543562	0.642015
	H334	H	0.591422	0.559307	0.646209
	H335	H	0.580186	0.549701	0.651525
	O336	O	0.613965	0.505446	0.567029
	H337	H	0.617727	0.511738	0.564766
	H338	H	0.603459	0.513102	0.568480
	O339	O	1.082614	0.825349	0.163234
	H340	H	1.080328	0.826813	0.169033
	H341	H	1.071250	0.822198	0.161798
	O342	O	0.557088	0.546974	0.399697
	H343	H	0.554133	0.542727	0.401746
	H344	H	0.562693	0.555436	0.394892
	O345	O	0.399384	0.550057	0.467759
	H346	H	0.399393	0.549532	0.465837
	H347	H	0.384206	0.549795	0.462599
	O348	O	-0.538480	0.594402	0.544770
	H349	H	-0.551487	0.595000	0.536191
	H350	H	-0.528676	0.598654	0.542407
	O351	O	-0.032929	1.001097	1.026213
	H352	H	-0.027669	1.005203	1.026607
	H353	H	-0.041707	1.014312	1.020233
	O354	O	0.511287	0.418123	0.508480
	H355	H	0.513907	0.421390	0.507241
	H356	H	0.512419	0.426746	0.509033
	O357	O	-0.020598	1.050349	0.988686
	H358	H	-0.018337	1.043515	0.991398
	H359	H	-0.030009	1.048504	0.988469
