data_Molecule from HDF5

_cell_length_a		16.394627
_cell_length_b		16.210276
_cell_length_c		16.176305
_cell_angle_alpha	90.139817
_cell_angle_beta	89.984678
_cell_angle_gamma	90.108194
_symmetry_space_group_name_H-M	'P 1'
_symmetry_Int_Tables_number		1

loop_
	_symmetry_equiv_pos_as_xyz
	x,y,z

loop_
	_atom_site_label
	_atom_site_type_symbol
	_atom_site_fract_x
	_atom_site_fract_y
	_atom_site_fract_z
	H0	H	0.399458	0.838012	0.710966
	H1	H	0.595057	0.167621	0.711542
	H2	H	0.594206	0.838211	0.285413
	H3	H	0.401738	0.169223	0.285891
	H4	H	0.712401	0.401747	0.834908
	H5	H	0.712836	0.605869	0.161625
	H6	H	0.281668	0.603447	0.834185
	H7	H	0.282032	0.402532	0.161652
	H8	H	0.833682	0.717810	0.400234
	H9	H	0.159547	0.719705	0.597163
	H10	H	0.834302	0.289482	0.595725
	H11	H	0.159300	0.288899	0.398941
	H12	H	0.834501	0.403788	0.713188
	H13	H	0.160050	0.603332	0.714086
	H14	H	0.834514	0.601223	0.282950
	H15	H	0.160157	0.404843	0.283414
	H16	H	0.400332	0.715328	0.832878
	H17	H	0.594562	0.717106	0.163340
	H18	H	0.594705	0.289501	0.834062
	H19	H	0.398948	0.289836	0.163101
	H20	H	0.714441	0.840732	0.396347
	H21	H	0.712612	0.166725	0.598794
	H22	H	0.278418	0.841092	0.599741
	H23	H	0.281527	0.168092	0.397036
	H24	H	0.900597	0.338323	0.209740
	H25	H	0.093851	0.668287	0.210571
	H26	H	0.094096	0.338162	0.784250
	H27	H	0.900863	0.668120	0.785831
	H28	H	0.212342	0.903666	0.333389
	H29	H	0.213026	0.106071	0.661892
	H30	H	0.781868	0.103485	0.334614
	H31	H	0.781954	0.903896	0.661725
	H32	H	0.334221	0.217304	0.899086
	H33	H	0.658863	0.219150	0.097787
	H34	H	0.334369	0.788037	0.096983
	H35	H	0.659582	0.787024	0.898087
	H36	H	0.334711	0.903857	0.213423
	H37	H	0.660376	0.101424	0.212287
	H38	H	0.335193	0.100238	0.782875
	H39	H	0.660619	0.903331	0.782492
	H40	H	0.899980	0.215625	0.333120
	H41	H	0.094432	0.219101	0.663002
	H42	H	0.095131	0.789042	0.333035
	H43	H	0.900086	0.791893	0.663283
	H44	H	0.212349	0.338655	0.897188
	H45	H	0.213988	0.665893	0.099531
	H46	H	0.780284	0.339758	0.098620
	H47	H	0.781151	0.667193	0.897679
	H48	H	0.406255	0.116769	0.583046
	H49	H	0.589187	0.884651	0.593959
	H50	H	0.591323	0.120255	0.405237
	H51	H	0.396345	0.882618	0.396566
	H52	H	0.586709	0.404783	0.116858
	H53	H	0.598367	0.595319	0.878836
	H54	H	0.410415	0.604542	0.115624
	H55	H	0.398996	0.414528	0.880567
	H56	H	0.110721	0.589279	0.404931
	H57	H	0.884403	0.588648	0.588719
	H58	H	0.111241	0.412509	0.587222
	H59	H	0.880168	0.405747	0.403239
	H60	H	0.112985	0.414806	0.593284
	H61	H	0.878792	0.598266	0.602248
	H62	H	0.114620	0.600419	0.398813
	H63	H	0.882017	0.410741	0.407355
	H64	H	0.394290	0.595500	0.118120
	H65	H	0.586928	0.586049	0.884200
	H66	H	0.597494	0.413667	0.118076
	H67	H	0.408940	0.411374	0.882986
	H68	H	0.590053	0.120648	0.406709
	H69	H	0.588238	0.888309	0.585442
	H70	H	0.397774	0.122094	0.591796
	H71	H	0.416319	0.890900	0.405444
	H72	H	0.913591	0.614721	0.083708
	H73	H	0.090625	0.385558	0.089483
	H74	H	0.083927	0.616805	0.909199
	H75	H	0.906345	0.386387	0.902809
	H76	H	0.089383	0.907802	0.616258
	H77	H	0.092440	0.097629	0.380012
	H78	H	0.907572	0.094037	0.613676
	H79	H	0.904674	0.911224	0.380732
	H80	H	0.615673	0.093841	0.893997
	H81	H	0.382271	0.095031	0.090123
	H82	H	0.611579	0.910608	0.086859
	H83	H	0.381342	0.912578	0.898526
	H84	H	0.612932	0.913723	0.094794
	H85	H	0.380666	0.094578	0.093280
	H86	H	0.616195	0.108663	0.907537
	H87	H	0.380135	0.902661	0.905214
	H88	H	0.905066	0.102494	0.616881
	H89	H	0.090796	0.094018	0.381189
	H90	H	0.094054	0.915755	0.615353
	H91	H	0.903780	0.910554	0.380734
	H92	H	0.095999	0.619259	0.912708
	H93	H	0.090960	0.385505	0.090035
	H94	H	0.892337	0.621931	0.082956
	H95	H	0.904052	0.388191	0.910905
	H96	H	0.409550	0.121082	0.595161
	H97	H	0.595927	0.884748	0.588863
	H98	H	0.591689	0.120676	0.406801
	H99	H	0.397919	0.889257	0.419155
	H100	H	0.584795	0.418191	0.113363
	H101	H	0.583428	0.602072	0.881063
	H102	H	0.409172	0.585644	0.111014
	H103	H	0.402619	0.404443	0.878217
	H104	H	0.111811	0.600720	0.411791
	H105	H	0.881028	0.605520	0.587175
	H106	H	0.113372	0.408338	0.591196
	H107	H	0.880091	0.412019	0.400731
	H108	H	0.903826	0.623555	0.102795
	H109	H	0.090412	0.385412	0.089802
	H110	H	0.092249	0.621912	0.900565
	H111	H	0.898667	0.384706	0.905747
	H112	H	0.085779	0.914928	0.612754
	H113	H	0.088326	0.096984	0.381077
	H114	H	0.898270	0.095297	0.617684
	H115	H	0.904112	0.912068	0.380501
	H116	H	0.609206	0.090348	0.912990
	H117	H	0.381172	0.098101	0.091984
	H118	H	0.615792	0.904839	0.093509
	H119	H	0.384856	0.912639	0.910001
	C120	C	0.375334	0.011838	0.619279
	C121	C	0.619124	0.994609	0.618712
	C122	C	0.619068	0.011874	0.376930
	C123	C	0.375749	0.996074	0.377305
	C124	C	0.618077	0.382322	0.007325
	C125	C	0.617925	0.624136	0.990012
	C126	C	0.375953	0.624310	0.006371
	C127	C	0.375418	0.381363	0.989298
	C128	C	0.005027	0.625270	0.376300
	C129	C	0.988958	0.625963	0.620993
	C130	C	0.005166	0.382618	0.619347
	C131	C	0.988594	0.381058	0.375351
	C132	C	0.874993	0.511659	0.119284
	C133	C	0.119035	0.494090	0.119111
	C134	C	0.119106	0.511169	0.877212
	C135	C	0.875072	0.495020	0.877483
	C136	C	0.118602	0.882818	0.506248
	C137	C	0.118744	0.125958	0.489525
	C138	C	0.875884	0.125162	0.507122
	C139	C	0.875979	0.882810	0.489480
	C140	C	0.505847	0.125230	0.876232
	C141	C	0.488690	0.125239	0.120638
	C142	C	0.505710	0.881007	0.120189
	C143	C	0.489485	0.880770	0.875753
	C144	C	0.378324	0.887792	0.674030
	C145	C	0.615934	0.118288	0.674245
	C146	C	0.615539	0.887907	0.322120
	C147	C	0.379846	0.119703	0.322494
	C148	C	0.673834	0.382837	0.883911
	C149	C	0.673847	0.624335	0.113187
	C150	C	0.320155	0.622815	0.883016
	C151	C	0.319910	0.382399	0.112641
	C152	C	0.882462	0.679618	0.379860
	C153	C	0.111175	0.681650	0.618228
	C154	C	0.882900	0.327160	0.616462
	C155	C	0.110758	0.326093	0.377995
	C156	C	0.882878	0.384250	0.674773
	C157	C	0.111331	0.623808	0.676404
	C158	C	0.882827	0.622044	0.321248
	C159	C	0.111106	0.384190	0.320711
	C160	C	0.379009	0.678839	0.882363
	C161	C	0.615188	0.680032	0.113652
	C162	C	0.615110	0.327150	0.883358
	C163	C	0.378246	0.326664	0.113465
	C164	C	0.675327	0.889063	0.377414
	C165	C	0.674404	0.117864	0.618246
	C166	C	0.318106	0.889143	0.618733
	C167	C	0.320640	0.119447	0.378360
	C168	C	0.879067	0.387742	0.173067
	C169	C	0.115545	0.618388	0.173876
	C170	C	0.115562	0.387303	0.821668
	C171	C	0.879091	0.618749	0.822751
	C172	C	0.174205	0.883870	0.382516
	C173	C	0.174813	0.125734	0.612896
	C174	C	0.820719	0.122833	0.383325
	C175	C	0.820396	0.884325	0.612929
	C176	C	0.382985	0.179225	0.878766
	C177	C	0.610734	0.180902	0.118122
	C178	C	0.383097	0.825847	0.117358
	C179	C	0.611581	0.825392	0.878390
	C180	C	0.383316	0.883360	0.175301
	C181	C	0.611383	0.122429	0.175166
	C182	C	0.383539	0.121267	0.820788
	C183	C	0.611935	0.883026	0.820564
	C184	C	0.878989	0.179118	0.382633
	C185	C	0.115708	0.181549	0.613585
	C186	C	0.116092	0.826868	0.382285
	C187	C	0.878809	0.828411	0.613584
	C188	C	0.174712	0.387751	0.877467
	C189	C	0.175410	0.617249	0.118798
	C190	C	0.819142	0.388527	0.118131
	C191	C	0.819585	0.618185	0.878288
	C192	C	0.397999	0.097764	0.596669
	C193	C	0.597422	0.908216	0.596020
	C194	C	0.597280	0.098178	0.399600
	C195	C	0.397116	0.909786	0.400505
	C196	C	0.596083	0.405259	0.093691
	C197	C	0.596166	0.601056	0.903577
	C198	C	0.397921	0.601677	0.092665
	C199	C	0.397133	0.403677	0.902883
	C200	C	0.090519	0.603290	0.398736
	C201	C	0.903658	0.603906	0.599128
	C202	C	0.090438	0.405160	0.597199
	C203	C	0.902817	0.403058	0.397407
	C204	C	0.896802	0.597866	0.096487
	C205	C	0.097206	0.407937	0.096387
	C206	C	0.097118	0.597069	0.900640
	C207	C	0.896680	0.408749	0.899893
	C208	C	0.096364	0.906115	0.592376
	C209	C	0.096885	0.103022	0.403112
	C210	C	0.897413	0.103597	0.593654
	C211	C	0.897717	0.904870	0.403029
	C212	C	0.591534	0.103833	0.898351
	C213	C	0.403409	0.102578	0.098430
	C214	C	0.591228	0.903174	0.098316
	C215	C	0.404202	0.902811	0.898079
	Zn216	Zn	0.498620	0.002551	0.747025
	Zn217	Zn	0.497034	0.003221	0.249096
	Zn218	Zn	0.745965	0.503378	-0.001403
	Zn219	Zn	0.247593	0.502535	-0.001936
	Zn220	Zn	-0.003097	0.754942	0.498298
	Zn221	Zn	-0.003207	0.253283	0.497920
	Zn222	Zn	-0.002506	0.503022	0.749674
	Zn223	Zn	-0.002588	0.502864	0.247079
	Zn224	Zn	0.497079	0.752362	-0.001906
	Zn225	Zn	0.496674	0.254335	-0.001626
	Zn226	Zn	0.748068	0.003739	0.498440
	Zn227	Zn	0.246662	0.004394	0.497813
	N228	N	0.413181	0.965132	0.674616
	N229	N	0.582105	0.040730	0.674392
	N230	N	0.581338	0.965394	0.321643
	N231	N	0.413449	0.042010	0.321674
	N232	N	0.675422	0.416720	0.961894
	N233	N	0.675833	0.590480	0.035155
	N234	N	0.318119	0.589597	0.961200
	N235	N	0.318162	0.415952	0.034590
	N236	N	0.959790	0.681944	0.413142
	N237	N	0.034247	0.683363	0.584770
	N238	N	0.959940	0.326084	0.582842
	N239	N	0.033516	0.324286	0.411383
	N240	N	0.959925	0.418087	0.676671
	N241	N	0.034354	0.589917	0.678303
	N242	N	0.959995	0.589116	0.318999
	N243	N	0.033958	0.417400	0.318961
	N244	N	0.412827	0.679922	0.960151
	N245	N	0.580912	0.679689	0.036128
	N246	N	0.581054	0.326603	0.961190
	N247	N	0.411997	0.325912	0.035581
	N248	N	0.677562	0.967042	0.411083
	N249	N	0.676551	0.039877	0.584335
	N250	N	0.316154	0.967203	0.585511
	N251	N	0.318135	0.041453	0.411727
	N252	N	0.913269	0.465364	0.173797
	N253	N	0.081337	0.540844	0.174292
	N254	N	0.081750	0.464906	0.821400
	N255	N	0.913099	0.541181	0.822240
	N256	N	0.175805	0.917993	0.460550
	N257	N	0.176821	0.092041	0.534799
	N258	N	0.818716	0.090204	0.461634
	N259	N	0.818667	0.917655	0.534798
	N260	N	0.460163	0.181952	0.912329
	N261	N	0.533466	0.182878	0.085164
	N262	N	0.460279	0.824284	0.083875
	N263	N	0.534309	0.823640	0.911682
	N264	N	0.460374	0.917026	0.177127
	N265	N	0.534420	0.088486	0.176789
	N266	N	0.460908	0.088446	0.819040
	N267	N	0.535072	0.916824	0.818849
	N268	N	0.912846	0.180528	0.460454
	N269	N	0.081864	0.182030	0.535758
	N270	N	0.082023	0.826346	0.460111
	N271	N	0.912583	0.827318	0.535878
	N272	N	0.177013	0.465746	0.911273
	N273	N	0.177608	0.539103	0.085389
	N274	N	0.816504	0.466688	0.085412
	N275	N	0.817002	0.540228	0.911630
	O276	O	0.464846	0.519004	0.535988
	H277	H	0.472573	0.528216	0.542560
	H278	H	0.466963	0.522600	0.531032
	O279	O	0.424558	0.451139	0.528684
	H280	H	0.418694	0.450545	0.520690
	H281	H	0.432682	0.447754	0.517501
	O282	O	0.531533	0.500818	0.494394
	H283	H	0.534978	0.512329	0.494222
	H284	H	0.528158	0.496909	0.488473
	O285	O	0.046605	0.951647	0.965476
	H286	H	0.051467	0.953664	0.960258
	H287	H	0.051395	0.943308	0.957285
	O288	O	0.494699	0.539929	0.481223
	H289	H	0.490007	0.559950	0.483299
	H290	H	0.499147	0.530500	0.476502
	O291	O	0.044155	-0.050161	1.011434
	H292	H	0.040493	-0.044908	1.014757
	H293	H	0.039787	-0.048771	1.008170
	O294	O	0.465739	0.518759	0.480121
	H295	H	0.470834	0.528768	0.482598
	H296	H	0.464616	0.506949	0.492891
	O297	O	0.491867	0.560514	0.442494
	H298	H	0.495001	0.552649	0.442595
	H299	H	0.489090	0.565994	0.447692
	O300	O	0.484785	0.505884	0.491332
	H301	H	0.476193	0.510559	0.498284
	H302	H	0.487026	0.499674	0.496095
	O303	O	0.465592	0.523007	0.517162
	H304	H	0.471250	0.518675	0.522340
	H305	H	0.462327	0.522685	0.523647
	O306	O	1.046305	-0.059119	1.007698
	H307	H	1.045765	-0.056389	1.014827
	H308	H	1.051414	-0.072996	1.006240
	O309	O	0.435144	0.487164	0.489093
	H310	H	0.429143	0.489603	0.487742
	H311	H	0.428651	0.482920	0.493846
	O312	O	0.436745	0.553497	0.491601
	H313	H	0.437622	0.558823	0.482860
	H314	H	0.432878	0.553061	0.486674
	O315	O	1.086619	-0.084626	0.975836
	H316	H	1.091737	-0.085927	0.970658
	H317	H	1.093131	-0.084917	0.980002
	O318	O	0.079502	-0.005451	0.008187
	H319	H	0.085967	-0.006731	0.003078
	H320	H	0.076947	-0.008406	0.009475
	O321	O	0.418155	0.475229	0.497275
	H322	H	0.428620	0.465958	0.497382
	H323	H	0.407599	0.473059	0.494276
	O324	O	1.125178	-0.059522	-0.005693
	H325	H	1.130096	-0.059787	-0.002913
	H326	H	1.115712	-0.061268	-0.003912
	O327	O	1.045925	1.001578	-0.014365
	H328	H	1.053372	1.006956	-0.015989
	H329	H	1.052565	1.001863	-0.016636
	O330	O	0.434643	0.456602	0.532938
	H331	H	0.433155	0.450680	0.546680
	H332	H	0.426191	0.451595	0.528680
	O333	O	0.466301	0.571373	0.602431
	H334	H	0.456257	0.571567	0.594725
	H335	H	0.466460	0.577247	0.603375
