data_Molecule from HDF5

_cell_length_a		16.490720
_cell_length_b		16.475846
_cell_length_c		16.639672
_cell_angle_alpha	89.995979
_cell_angle_beta	89.947786
_cell_angle_gamma	89.746550
_symmetry_space_group_name_H-M	'P 1'
_symmetry_Int_Tables_number		1

loop_
	_symmetry_equiv_pos_as_xyz
	x,y,z

loop_
	_atom_site_label
	_atom_site_type_symbol
	_atom_site_fract_x
	_atom_site_fract_y
	_atom_site_fract_z
	H0	H	0.381778	0.843513	0.726537
	H1	H	0.591243	0.156574	0.727926
	H2	H	0.597469	0.844286	0.281631
	H3	H	0.383973	0.158823	0.287647
	H4	H	0.710961	0.393506	0.852045
	H5	H	0.706470	0.604986	0.164249
	H6	H	0.262184	0.608540	0.853081
	H7	H	0.267119	0.397828	0.164111
	H8	H	0.829142	0.726294	0.399942
	H9	H	0.143921	0.719548	0.607619
	H10	H	0.828322	0.282343	0.611544
	H11	H	0.143871	0.282135	0.403961
	H12	H	0.829926	0.395544	0.730349
	H13	H	0.143265	0.605520	0.726438
	H14	H	0.828443	0.611676	0.283251
	H15	H	0.143266	0.398401	0.287068
	H16	H	0.377448	0.725981	0.853562
	H17	H	0.589917	0.721526	0.164195
	H18	H	0.595988	0.275984	0.852727
	H19	H	0.384187	0.281437	0.163041
	H20	H	0.711479	0.844033	0.398961
	H21	H	0.701762	0.159853	0.606197
	H22	H	0.266318	0.843847	0.608715
	H23	H	0.268293	0.159540	0.404889
	H24	H	0.880383	0.345619	0.230506
	H25	H	0.094038	0.657686	0.230642
	H26	H	0.093925	0.344502	0.784712
	H27	H	0.878275	0.657765	0.784308
	H28	H	0.209869	0.895248	0.350962
	H29	H	0.210163	0.108734	0.661161
	H30	H	0.763889	0.108193	0.351401
	H31	H	0.762720	0.894887	0.661593
	H32	H	0.330038	0.223291	0.902163
	H33	H	0.643856	0.219780	0.110453
	H34	H	0.327460	0.783934	0.108962
	H35	H	0.641597	0.774176	0.897965
	H36	H	0.330433	0.895729	0.228908
	H37	H	0.644402	0.104528	0.227097
	H38	H	0.330316	0.108382	0.784425
	H39	H	0.642537	0.890095	0.781887
	H40	H	0.880767	0.224832	0.351595
	H41	H	0.093680	0.224154	0.662051
	H42	H	0.094266	0.777548	0.351461
	H43	H	0.878366	0.777016	0.661656
	H44	H	0.208206	0.343894	0.903053
	H45	H	0.206009	0.658844	0.110865
	H46	H	0.766975	0.344533	0.111465
	H47	H	0.762050	0.657094	0.900459
	H48	H	0.402327	0.112427	0.596454
	H49	H	0.574300	0.887231	0.596717
	H50	H	0.577876	0.114836	0.416766
	H51	H	0.397247	0.884794	0.410140
	H52	H	0.569713	0.413796	0.115431
	H53	H	0.570845	0.584766	0.898514
	H54	H	0.397627	0.587151	0.117948
	H55	H	0.400306	0.411074	0.895614
	H56	H	0.099870	0.592241	0.413964
	H57	H	0.871763	0.593528	0.595592
	H58	H	0.097100	0.415711	0.595673
	H59	H	0.874514	0.414991	0.421723
	H60	H	0.100194	0.412560	0.599486
	H61	H	0.875403	0.587417	0.591679
	H62	H	0.095916	0.591547	0.422690
	H63	H	0.873708	0.418033	0.415677
	H64	H	0.398691	0.594323	0.119247
	H65	H	0.571591	0.589751	0.896839
	H66	H	0.576198	0.402914	0.120772
	H67	H	0.394473	0.410555	0.893819
	H68	H	0.572667	0.113180	0.412940
	H69	H	0.573683	0.887822	0.593308
	H70	H	0.396483	0.112891	0.591968
	H71	H	0.404940	0.889948	0.418868
	H72	H	0.893708	0.616798	0.098913
	H73	H	0.076149	0.390447	0.090381
	H74	H	0.067074	0.611281	0.918760
	H75	H	0.909555	0.392777	0.920234
	H76	H	0.074849	0.913831	0.616511
	H77	H	0.072766	0.093937	0.395323
	H78	H	0.900516	0.093846	0.617958
	H79	H	0.900726	0.915982	0.397319
	H80	H	0.598278	0.085999	0.916777
	H81	H	0.374424	0.084030	0.099746
	H82	H	0.599348	0.912961	0.096481
	H83	H	0.375462	0.918224	0.914171
	H84	H	0.600077	0.908821	0.094590
	H85	H	0.371590	0.094453	0.101721
	H86	H	0.598230	0.088003	0.918095
	H87	H	0.372253	0.909586	0.913912
	H88	H	0.890929	0.095392	0.621803
	H89	H	0.080232	0.093702	0.392485
	H90	H	0.074196	0.912642	0.617435
	H91	H	0.900023	0.913658	0.396400
	H92	H	0.078847	0.614182	0.922050
	H93	H	0.081402	0.384741	0.101217
	H94	H	0.902750	0.613582	0.096872
	H95	H	0.893705	0.389968	0.926283
	H96	H	0.396563	0.115917	0.598480
	H97	H	0.576717	0.886756	0.594369
	H98	H	0.573000	0.110994	0.419034
	H99	H	0.392865	0.887194	0.422346
	H100	H	0.582929	0.414660	0.119340
	H101	H	0.575788	0.586514	0.896575
	H102	H	0.392020	0.591079	0.121337
	H103	H	0.397024	0.416141	0.895866
	H104	H	0.096181	0.583643	0.416830
	H105	H	0.873192	0.586745	0.599677
	H106	H	0.098863	0.410674	0.594363
	H107	H	0.871744	0.412125	0.416739
	H108	H	0.896142	0.613057	0.090107
	H109	H	0.068682	0.389503	0.101207
	H110	H	0.075054	0.616913	0.910881
	H111	H	0.898028	0.385178	0.910297
	H112	H	0.075734	0.913244	0.617736
	H113	H	0.076992	0.087606	0.395512
	H114	H	0.893701	0.086053	0.617238
	H115	H	0.898333	0.915057	0.396511
	H116	H	0.598257	0.085697	0.919155
	H117	H	0.374938	0.091911	0.091652
	H118	H	0.598467	0.912470	0.092578
	H119	H	0.375565	0.913268	0.921885
	C120	C	0.365547	0.009618	0.627476
	C121	C	0.606833	0.991645	0.626894
	C122	C	0.608510	0.009211	0.384243
	C123	C	0.366473	0.992141	0.386058
	C124	C	0.609440	0.377874	0.015674
	C125	C	0.605706	0.620490	0.999957
	C126	C	0.363565	0.623481	0.016651
	C127	C	0.365862	0.380555	0.998864
	C128	C	-0.006189	0.623757	0.384646
	C129	C	0.977221	0.621786	0.627351
	C130	C	-0.005039	0.380149	0.629086
	C131	C	0.977333	0.381849	0.386323
	C132	C	0.865351	0.510419	0.128203
	C133	C	0.107417	0.492459	0.129045
	C134	C	0.107290	0.510003	0.885663
	C135	C	0.865900	0.492558	0.886224
	C136	C	0.107648	0.880382	0.514456
	C137	C	0.108756	0.123843	0.497672
	C138	C	0.863679	0.123811	0.515697
	C139	C	0.865362	0.880484	0.498725
	C140	C	0.495113	0.121230	0.885283
	C141	C	0.478132	0.121247	0.128285
	C142	C	0.495190	0.880024	0.127159
	C143	C	0.477591	0.878539	0.883885
	C144	C	0.363315	0.890810	0.686602
	C145	C	0.608816	0.110016	0.686922
	C146	C	0.614041	0.891478	0.322683
	C147	C	0.365447	0.111596	0.327552
	C148	C	0.670607	0.375250	0.898933
	C149	C	0.666229	0.623025	0.117345
	C150	C	0.302389	0.626706	0.899813
	C151	C	0.306760	0.379260	0.116828
	C152	C	0.876185	0.685702	0.381632
	C153	C	0.096338	0.680700	0.627654
	C154	C	0.876224	0.321313	0.630692
	C155	C	0.096252	0.321963	0.385031
	C156	C	0.876761	0.377670	0.689639
	C157	C	0.095722	0.624173	0.686775
	C158	C	0.876128	0.628479	0.323507
	C159	C	0.096073	0.379593	0.326930
	C160	C	0.360020	0.684804	0.899861
	C161	C	0.608092	0.681187	0.117399
	C162	C	0.613123	0.317021	0.899047
	C163	C	0.364841	0.321273	0.116442
	C164	C	0.671017	0.891375	0.380929
	C165	C	0.663889	0.111649	0.626649
	C166	C	0.306141	0.890919	0.628157
	C167	C	0.307847	0.111898	0.385513
	C168	C	0.862510	0.392431	0.189378
	C169	C	0.110847	0.610696	0.189516
	C170	C	0.111358	0.391656	0.825284
	C171	C	0.861066	0.610538	0.825000
	C172	C	0.169077	0.877301	0.397507
	C173	C	0.169827	0.126808	0.614428
	C174	C	0.803950	0.126420	0.398147
	C175	C	0.803331	0.876606	0.615098
	C176	C	0.377298	0.182798	0.883156
	C177	C	0.596716	0.180192	0.129331
	C178	C	0.375485	0.822046	0.128536
	C179	C	0.594742	0.814830	0.879807
	C180	C	0.377089	0.877706	0.188174
	C181	C	0.597018	0.122942	0.187286
	C182	C	0.377250	0.125636	0.824686
	C183	C	0.594979	0.872816	0.822196
	C184	C	0.861971	0.184479	0.398422
	C185	C	0.111635	0.184158	0.614905
	C186	C	0.111483	0.818787	0.397859
	C187	C	0.861121	0.818201	0.615175
	C188	C	0.167982	0.391212	0.884296
	C189	C	0.166750	0.611306	0.130110
	C190	C	0.806448	0.391642	0.130155
	C191	C	0.803414	0.610493	0.882785
	C192	C	0.391185	0.092190	0.602809
	C193	C	0.582153	0.908738	0.601864
	C194	C	0.582222	0.091413	0.409104
	C195	C	0.391158	0.908959	0.410051
	C196	C	0.583541	0.403241	0.097311
	C197	C	0.579995	0.594539	0.918461
	C198	C	0.389058	0.598125	0.098293
	C199	C	0.390508	0.405381	0.916491
	C200	C	0.075977	0.596900	0.410377
	C201	C	0.894964	0.596471	0.602734
	C202	C	0.077352	0.405554	0.603733
	C203	C	0.894667	0.407489	0.411127
	C204	C	0.890592	0.592909	0.102727
	C205	C	0.082519	0.409819	0.104571
	C206	C	0.081119	0.592507	0.910127
	C207	C	0.892728	0.410639	0.911827
	C208	C	0.082130	0.906151	0.596072
	C209	C	0.083731	0.099058	0.415806
	C210	C	0.888059	0.098777	0.597643
	C211	C	0.892224	0.907304	0.417686
	C212	C	0.576934	0.094305	0.910719
	C213	C	0.395455	0.097068	0.104381
	C214	C	0.577618	0.904335	0.101916
	C215	C	0.395823	0.905697	0.909522
	Zn216	Zn	0.486400	0.000186	0.755849
	Zn217	Zn	0.486991	0.000198	0.256699
	Zn218	Zn	0.736818	0.500851	0.007012
	Zn219	Zn	0.235713	0.501024	0.007241
	Zn220	Zn	-0.013593	0.751161	0.506670
	Zn221	Zn	-0.013773	0.252308	0.507217
	Zn222	Zn	-0.014083	0.501377	0.757058
	Zn223	Zn	-0.014595	0.502703	0.256763
	Zn224	Zn	0.486425	0.751644	0.007357
	Zn225	Zn	0.486880	0.250209	0.007016
	Zn226	Zn	0.735415	0.001016	0.506240
	Zn227	Zn	0.237062	0.001450	0.506026
	N228	N	0.399360	0.965726	0.686251
	N229	N	0.574235	0.034316	0.687084
	N230	N	0.575842	0.965599	0.324527
	N231	N	0.401038	0.035976	0.327484
	N232	N	0.668272	0.412555	0.972574
	N233	N	0.665019	0.586255	0.043228
	N234	N	0.304172	0.589469	0.973564
	N235	N	0.307190	0.415255	0.042417
	N236	N	0.950499	0.682941	0.418838
	N237	N	0.021455	0.679411	0.591461
	N238	N	0.950849	0.322406	0.594070
	N239	N	0.021179	0.323046	0.421127
	N240	N	0.951973	0.413190	0.688930
	N241	N	0.020681	0.588545	0.686853
	N242	N	0.950624	0.590741	0.325246
	N243	N	0.021022	0.415974	0.327561
	N244	N	0.397264	0.683079	0.973545
	N245	N	0.571309	0.679734	0.043366
	N246	N	0.575714	0.318491	0.972783
	N247	N	0.400809	0.321998	0.041875
	N248	N	0.667872	0.965598	0.418404
	N249	N	0.662956	0.036846	0.590192
	N250	N	0.307072	0.966123	0.592457
	N251	N	0.308352	0.036505	0.420811
	N252	N	0.898385	0.467500	0.188456
	N253	N	0.074703	0.535741	0.189116
	N254	N	0.074422	0.466616	0.825837
	N255	N	0.899180	0.536265	0.827096
	N256	N	0.166753	0.915002	0.471027
	N257	N	0.168115	0.089824	0.540564
	N258	N	0.804869	0.089587	0.472082
	N259	N	0.805975	0.914552	0.541619
	N260	N	0.451646	0.180333	0.920142
	N261	N	0.521907	0.179385	0.093255
	N262	N	0.449960	0.823443	0.091472
	N263	N	0.520436	0.817862	0.917278
	N264	N	0.452586	0.912661	0.187857
	N265	N	0.522250	0.087085	0.186921
	N266	N	0.451750	0.088187	0.825749
	N267	N	0.521279	0.911750	0.824660
	N268	N	0.898436	0.183140	0.472477
	N269	N	0.074162	0.182564	0.541300
	N270	N	0.074031	0.820555	0.471626
	N271	N	0.898730	0.820414	0.541575
	N272	N	0.165782	0.466060	0.920739
	N273	N	0.164810	0.536762	0.093194
	N274	N	0.808117	0.465899	0.092921
	N275	N	0.806147	0.536097	0.920154
	O276	O	1.139856	0.994944	0.223597
	H277	H	1.143512	0.992206	0.229128
	H278	H	1.148250	0.999313	0.222191
	O279	O	0.147677	-0.148820	1.201147
	H280	H	0.127903	-0.140310	1.186212
	H281	H	0.137919	-0.125986	1.191609
	O282	O	1.056644	1.022436	0.985086
	H283	H	1.052011	1.021440	0.970814
	H284	H	1.060245	1.015351	0.985454
	O285	O	0.641213	0.414002	0.333844
	H286	H	0.650491	0.414618	0.325418
	H287	H	0.637723	0.419550	0.332467
	O288	O	1.464607	-0.429667	1.469544
	H289	H	1.472229	-0.426365	1.466532
	H290	H	1.438017	-0.420122	1.449607
	O291	O	0.278790	0.550703	0.323920
	H292	H	0.267793	0.562427	0.299742
	H293	H	0.272102	0.581870	0.326936
	O294	O	-0.231385	-0.213697	0.028078
	H295	H	-0.235028	-0.237641	0.025078
	H296	H	-0.229107	-0.204428	0.038849
	O297	O	1.453327	0.290551	-0.273340
	H298	H	1.445113	0.272129	-0.265208
	H299	H	1.453192	0.280207	-0.284578
	O300	O	-0.121226	0.210133	-0.033117
	H301	H	-0.122006	0.201967	-0.038998
	H302	H	-0.146137	0.219275	-0.051563
	O303	O	0.004360	0.199893	0.229487
	H304	H	0.018351	0.201695	0.231646
	H305	H	-0.001849	0.211945	0.238755
	O306	O	1.102800	0.136363	-0.178321
	H307	H	1.087047	0.127678	-0.177953
	H308	H	1.085297	0.128838	-0.174008
	O309	O	0.700715	0.708052	0.524462
	H310	H	0.717595	0.711309	0.533862
	H311	H	0.702712	0.714596	0.547184
	O312	O	0.527449	0.402278	0.595551
	H313	H	0.535820	0.385060	0.596877
	H314	H	0.529371	0.404452	0.585268
	O315	O	0.848830	1.134472	0.065482
	H316	H	0.842051	1.133640	0.065157
	H317	H	0.857220	1.130360	0.063513
	O318	O	1.093532	1.176364	-0.086444
	H319	H	1.091427	1.158274	-0.085582
	H320	H	1.080012	1.177872	-0.088887
	O321	O	0.022603	1.055816	1.228107
	H322	H	0.039515	1.066831	1.236246
	H323	H	0.029473	1.078509	1.225782
	O324	O	0.779931	0.006523	0.977852
	H325	H	0.782881	0.018398	0.984532
	H326	H	0.785249	-0.010567	0.994807
	O327	O	1.396035	0.565938	0.566498
	H328	H	1.385151	0.591127	0.560056
	H329	H	1.396336	0.559988	0.573492
	O330	O	0.392137	0.402385	0.307661
	H331	H	0.387354	0.417734	0.320687
	H332	H	0.407610	0.412409	0.309083
	O333	O	0.346331	0.684602	0.300957
	H334	H	0.332079	0.711264	0.275805
	H335	H	0.389569	0.690789	0.309938
	O336	O	-0.141558	0.870818	-0.039373
	H337	H	-0.146137	0.882896	-0.046970
	H338	H	-0.140779	0.874556	-0.045019
	O339	O	0.573896	0.551156	0.336163
	H340	H	0.575080	0.555319	0.335052
	H341	H	0.567163	0.550907	0.349730
	O342	O	-0.093901	0.928527	-0.126865
	H343	H	-0.083970	0.919624	-0.122670
	H344	H	-0.099804	0.923822	-0.121194
	O345	O	0.198204	0.208709	0.061338
	H346	H	0.195720	0.216246	0.060382
	H347	H	0.207960	0.217330	0.059756
	O348	O	0.670336	0.506703	0.483120
	H349	H	0.679607	0.514080	0.478078
	H350	H	0.654923	0.513822	0.492258
	O351	O	-0.000985	-0.199697	1.011001
	H352	H	0.008693	-0.202944	0.996616
	H353	H	-0.003672	-0.191040	1.000034
	O354	O	0.804949	0.185248	1.186585
	H355	H	0.820491	0.167499	1.177068
	H356	H	0.809013	0.181692	1.164935
	O357	O	0.502791	0.713869	0.326271
	H358	H	0.499703	0.722262	0.324594
	H359	H	0.530184	0.714267	0.331158
	O360	O	0.404911	0.322504	0.414343
	H361	H	0.405395	0.321578	0.411811
	H362	H	0.416648	0.326735	0.421105
	O363	O	0.631251	0.601846	0.723255
	H364	H	0.636139	0.578258	0.719819
	H365	H	0.601147	0.591094	0.721369
	O366	O	0.786583	-0.196114	0.747591
	H367	H	0.778990	-0.221454	0.756224
	H368	H	0.778380	-0.215647	0.749751
	O369	O	-0.039922	0.214992	0.787752
	H370	H	-0.053724	0.236676	0.762972
	H371	H	-0.054688	0.208516	0.793311
	O372	O	0.401035	0.704360	0.527099
	H373	H	0.403788	0.704004	0.525419
	H374	H	0.408994	0.688235	0.536667
	O375	O	1.223368	0.239269	0.228423
	H376	H	1.205387	0.224936	0.224662
	H377	H	1.233855	0.252918	0.231731
	O378	O	-0.228377	0.038880	0.792882
	H379	H	-0.233474	0.021363	0.801099
	H380	H	-0.238357	0.024825	0.779505
	O381	O	0.193589	0.794441	-0.206933
	H382	H	0.220959	0.770240	-0.220017
	H383	H	0.206847	0.813104	-0.204727
	O384	O	0.689607	0.299595	0.300448
	H385	H	0.668126	0.323855	0.298088
	H386	H	0.711234	0.289725	0.274084
	O387	O	0.290643	0.493366	1.518450
	H388	H	0.297798	0.487449	1.515297
	H389	H	0.287630	0.498556	1.534489
	O390	O	0.199545	0.968073	0.788356
	H391	H	0.216220	0.966347	0.763899
	H392	H	0.175012	0.965312	0.782271
	O393	O	1.017258	-0.215777	-0.211806
	H394	H	1.051163	-0.214278	-0.207323
	H395	H	1.035495	-0.238468	-0.234688
	O396	O	0.267398	0.473877	0.729729
	H397	H	0.270959	0.424868	0.725418
	H398	H	0.231691	0.472867	0.753450
	O399	O	0.801306	0.817175	0.187168
	H400	H	0.816667	0.815913	0.164921
	H401	H	0.815394	0.842073	0.193505
	O402	O	1.284559	-0.301970	1.403227
	H403	H	1.288228	-0.302457	1.397749
	H404	H	1.288581	-0.281321	1.383939
	O405	O	0.034190	0.035392	0.202843
	H406	H	0.016352	0.024958	0.206542
	H407	H	0.036783	0.028193	0.197479
	O408	O	0.988453	0.780666	1.169705
	H409	H	0.989175	0.764970	1.177483
	H410	H	0.988339	0.772918	1.165609
	O411	O	1.319656	1.419092	0.487178
	H412	H	1.315820	1.412304	0.488099
	H413	H	1.324310	1.430815	0.475626
	O414	O	-0.021812	0.008417	-0.179907
	H415	H	-0.040708	-0.004288	-0.173900
	H416	H	-0.030488	0.001510	-0.181115
	O417	O	0.504112	0.315437	0.333888
	H418	H	0.502260	0.307928	0.310650
	H419	H	0.523244	0.308508	0.341994
	O420	O	1.187376	-0.211186	0.969856
	H421	H	1.208248	-0.233675	0.975046
	H422	H	1.175739	-0.198409	0.953577
	O423	O	0.708196	1.275506	-0.260409
	H424	H	0.702294	1.255489	-0.263524
	H425	H	0.696435	1.294432	-0.266759
	O426	O	-0.219604	1.205692	-0.115412
	H427	H	-0.223514	1.221417	-0.128393
	H428	H	-0.221158	1.174247	-0.123324
	O429	O	0.704152	0.288041	0.472596
	H430	H	0.721792	0.275396	0.462131
	H431	H	0.714789	0.279918	0.437987
	O432	O	1.070671	-0.008640	0.969978
	H433	H	1.073003	-0.000047	0.958834
	H434	H	1.074182	-0.011981	0.967097
	O435	O	0.515425	0.693294	0.463519
	H436	H	0.505475	0.702831	0.470859
	H437	H	0.524539	0.687398	0.471070
	O438	O	0.300058	0.690669	0.697975
	H439	H	0.324397	0.672252	0.681747
	H440	H	0.317277	0.673545	0.680347
	O441	O	1.040453	0.966787	0.013742
	H442	H	1.047070	0.979888	-0.004661
	H443	H	1.041350	0.982325	0.028409
	O444	O	0.560278	0.463708	0.379201
	H445	H	0.552114	0.470768	0.366043
	H446	H	0.559075	0.448679	0.397413
	O447	O	0.440218	0.576857	0.733303
	H448	H	0.423316	0.562397	0.729534
	H449	H	0.442787	0.545338	0.735255
	O450	O	1.114559	-0.118124	0.115455
	H451	H	1.112498	-0.109154	0.118822
	H452	H	1.109667	-0.130723	0.121849
	O453	O	0.696304	0.417103	0.586405
	H454	H	0.695003	0.415534	0.550168
	H455	H	0.687260	0.406505	0.583378
	O456	O	0.098835	1.028341	1.032125
	H457	H	0.109504	1.023007	1.015753
	H458	H	0.091417	1.040657	1.027286
	O459	O	0.694474	0.507614	0.684882
	H460	H	0.704848	0.494358	0.690890
	H461	H	0.676850	0.491583	0.681273
	O462	O	0.365404	0.345736	0.584812
	H463	H	0.347212	0.351875	0.572464
	H464	H	0.357957	0.349203	0.572479
	O465	O	0.286645	0.306410	0.694807
	H466	H	0.282299	0.288552	0.668358
	H467	H	0.299164	0.288020	0.713383
	O468	O	-0.226019	0.975072	0.217683
	H469	H	-0.228894	0.982827	0.233849
	H470	H	-0.226084	0.966404	0.223792
	O471	O	0.520314	0.365697	0.578588
	H472	H	0.530266	0.366808	0.561863
	H473	H	0.515494	0.376327	0.561419
	O474	O	1.021003	1.119564	0.022148
	H475	H	1.012582	1.119754	0.023162
	H476	H	1.033032	1.118982	0.023739
	O477	O	0.540000	0.713194	0.723839
	H478	H	0.527589	0.689796	0.724583
	H479	H	0.533925	0.729592	0.752346
