data_Molecule from HDF5

_cell_length_a		16.295329
_cell_length_b		16.262119
_cell_length_c		16.317887
_cell_angle_alpha	89.955357
_cell_angle_beta	89.931358
_cell_angle_gamma	90.035505
_symmetry_space_group_name_H-M	'P 1'
_symmetry_Int_Tables_number		1

loop_
	_symmetry_equiv_pos_as_xyz
	x,y,z

loop_
	_atom_site_label
	_atom_site_type_symbol
	_atom_site_fract_x
	_atom_site_fract_y
	_atom_site_fract_z
	H0	H	0.400980	0.835915	0.714691
	H1	H	0.597320	0.163728	0.713693
	H2	H	0.597835	0.835719	0.286664
	H3	H	0.403308	0.164157	0.287324
	H4	H	0.713760	0.402507	0.836561
	H5	H	0.714765	0.598641	0.163287
	H6	H	0.286689	0.597231	0.835899
	H7	H	0.285730	0.401823	0.163520
	H8	H	0.836616	0.713735	0.403210
	H9	H	0.164248	0.714074	0.596848
	H10	H	0.836880	0.286220	0.597240
	H11	H	0.163992	0.285963	0.401326
	H12	H	0.837148	0.401495	0.714658
	H13	H	0.164315	0.597950	0.713622
	H14	H	0.837289	0.599344	0.285196
	H15	H	0.163384	0.402378	0.285255
	H16	H	0.402566	0.714694	0.836205
	H17	H	0.597973	0.714547	0.163412
	H18	H	0.596598	0.287491	0.836018
	H19	H	0.402492	0.286307	0.163651
	H20	H	0.714337	0.836196	0.403048
	H21	H	0.712752	0.164126	0.597009
	H22	H	0.285350	0.836484	0.597686
	H23	H	0.286623	0.163748	0.402642
	H24	H	0.901179	0.336660	0.213971
	H25	H	0.097377	0.664159	0.213179
	H26	H	0.097690	0.336100	0.785875
	H27	H	0.903196	0.664361	0.786839
	H28	H	0.214126	0.902107	0.336866
	H29	H	0.215002	0.098885	0.663085
	H30	H	0.786552	0.098196	0.336571
	H31	H	0.786616	0.902405	0.663675
	H32	H	0.335655	0.213085	0.902831
	H33	H	0.664393	0.212549	0.095860
	H34	H	0.335810	0.786717	0.098015
	H35	H	0.663800	0.786278	0.902845
	H36	H	0.336078	0.901704	0.214994
	H37	H	0.663878	0.098024	0.213840
	H38	H	0.336276	0.097938	0.785594
	H39	H	0.663105	0.901372	0.785368
	H40	H	0.902963	0.214124	0.336950
	H41	H	0.096960	0.212877	0.663922
	H42	H	0.097152	0.786883	0.336098
	H43	H	0.903071	0.786242	0.664095
	H44	H	0.213260	0.335351	0.902435
	H45	H	0.214209	0.663860	0.097528
	H46	H	0.785648	0.336183	0.098279
	H47	H	0.785955	0.663677	0.901065
	H48	H	0.416416	0.115682	0.600176
	H49	H	0.591379	0.884274	0.591913
	H50	H	0.588617	0.115002	0.408947
	H51	H	0.408023	0.884180	0.408837
	H52	H	0.588151	0.402296	0.115979
	H53	H	0.600046	0.598484	0.880307
	H54	H	0.402651	0.593963	0.118305
	H55	H	0.407313	0.407547	0.884210
	H56	H	0.118980	0.599936	0.406726
	H57	H	0.879831	0.600161	0.599534
	H58	H	0.119461	0.399502	0.596163
	H59	H	0.884358	0.410960	0.405461
	H60	H	0.114687	0.407781	0.585160
	H61	H	0.885478	0.595046	0.585116
	H62	H	0.114482	0.590667	0.412004
	H63	H	0.882168	0.402732	0.403340
	H64	H	0.406719	0.589927	0.115094
	H65	H	0.595492	0.584251	0.885823
	H66	H	0.599508	0.403428	0.119490
	H67	H	0.406105	0.403605	0.883039
	H68	H	0.599252	0.117403	0.408378
	H69	H	0.595831	0.881759	0.591947
	H70	H	0.407357	0.113394	0.582263
	H71	H	0.404087	0.882436	0.407047
	H72	H	0.906818	0.616024	0.090612
	H73	H	0.084887	0.384844	0.093470
	H74	H	0.093323	0.617415	0.906067
	H75	H	0.901734	0.382580	0.907329
	H76	H	0.099922	0.896611	0.621487
	H77	H	0.093340	0.100738	0.381483
	H78	H	0.911342	0.095854	0.616000
	H79	H	0.900444	0.916508	0.384111
	H80	H	0.616090	0.085391	0.900247
	H81	H	0.383099	0.089575	0.099569
	H82	H	0.614836	0.915052	0.096091
	H83	H	0.383760	0.914803	0.902203
	H84	H	0.619477	0.901257	0.098290
	H85	H	0.381470	0.099773	0.095068
	H86	H	0.620394	0.102069	0.901543
	H87	H	0.379922	0.899643	0.903055
	H88	H	0.901073	0.096583	0.619288
	H89	H	0.101278	0.089059	0.382429
	H90	H	0.099410	0.918062	0.615442
	H91	H	0.917810	0.905380	0.386672
	H92	H	0.094940	0.617056	0.906993
	H93	H	0.098240	0.384386	0.086408
	H94	H	0.906274	0.616818	0.093437
	H95	H	0.909222	0.382429	0.901702
	H96	H	0.396793	0.121021	0.597696
	H97	H	0.593100	0.881902	0.596621
	H98	H	0.592814	0.118529	0.399853
	H99	H	0.407747	0.882121	0.404531
	H100	H	0.593745	0.412630	0.114840
	H101	H	0.584927	0.595881	0.885619
	H102	H	0.408469	0.595677	0.116403
	H103	H	0.403250	0.406986	0.882770
	H104	H	0.117192	0.589817	0.400241
	H105	H	0.885673	0.585046	0.597625
	H106	H	0.116444	0.413437	0.598695
	H107	H	0.884569	0.404821	0.411662
	H108	H	0.908969	0.616428	0.092071
	H109	H	0.096809	0.380181	0.100742
	H110	H	0.095014	0.617029	0.905095
	H111	H	0.909642	0.385254	0.910485
	H112	H	0.080925	0.905484	0.613485
	H113	H	0.087684	0.089059	0.387052
	H114	H	0.904937	0.087665	0.615483
	H115	H	0.900673	0.895946	0.378720
	H116	H	0.613238	0.093542	0.915138
	H117	H	0.385684	0.091039	0.088220
	H118	H	0.614533	0.905309	0.085473
	H119	H	0.385509	0.906684	0.915696
	C120	C	0.377948	0.008352	0.621689
	C121	C	0.620942	0.991436	0.621315
	C122	C	0.621690	0.008243	0.377928
	C123	C	0.378696	0.991488	0.378843
	C124	C	0.621579	0.378431	0.008595
	C125	C	0.621572	0.621312	0.991935
	C126	C	0.378241	0.621329	0.008231
	C127	C	0.377845	0.377990	0.991629
	C128	C	0.008585	0.621651	0.378495
	C129	C	0.991963	0.621748	0.621921
	C130	C	0.008893	0.378349	0.621615
	C131	C	0.991985	0.378470	0.378685
	C132	C	0.878601	0.508369	0.121023
	C133	C	0.121485	0.491647	0.121531
	C134	C	0.121778	0.508465	0.878070
	C135	C	0.878864	0.491809	0.878667
	C136	C	0.121400	0.878559	0.508515
	C137	C	0.121861	0.121230	0.491699
	C138	C	0.878292	0.121614	0.508534
	C139	C	0.878556	0.878230	0.491819
	C140	C	0.508066	0.121590	0.878091
	C141	C	0.491723	0.121539	0.121746
	C142	C	0.507963	0.878610	0.121980
	C143	C	0.491369	0.878569	0.878695
	C144	C	0.380386	0.884971	0.676714
	C145	C	0.617748	0.114882	0.675724
	C146	C	0.618537	0.884841	0.323844
	C147	C	0.382328	0.115102	0.324910
	C148	C	0.676191	0.381405	0.885377
	C149	C	0.676585	0.619034	0.114839
	C150	C	0.324489	0.618143	0.884608
	C151	C	0.323699	0.381540	0.114866
	C152	C	0.885536	0.676250	0.381906
	C153	C	0.115585	0.675953	0.617918
	C154	C	0.885431	0.324057	0.618041
	C155	C	0.115128	0.323626	0.380969
	C156	C	0.885764	0.381429	0.676192
	C157	C	0.115493	0.618499	0.675906
	C158	C	0.885653	0.619293	0.323715
	C159	C	0.114944	0.381337	0.323393
	C160	C	0.381695	0.676592	0.885002
	C161	C	0.618288	0.676099	0.114891
	C162	C	0.617715	0.324630	0.884882
	C163	C	0.381546	0.323856	0.114885
	C164	C	0.676411	0.884980	0.381584
	C165	C	0.675050	0.115182	0.617865
	C166	C	0.322963	0.885028	0.618785
	C167	C	0.324336	0.114985	0.382005
	C168	C	0.880804	0.385316	0.176295
	C169	C	0.118496	0.614964	0.176089
	C170	C	0.118458	0.384898	0.823611
	C171	C	0.882536	0.615369	0.824340
	C172	C	0.176201	0.881286	0.385507
	C173	C	0.176575	0.118901	0.614752
	C174	C	0.824291	0.118639	0.385501
	C175	C	0.824019	0.881344	0.614831
	C176	C	0.384796	0.176033	0.881665
	C177	C	0.615111	0.175919	0.117664
	C178	C	0.384869	0.824172	0.118582
	C179	C	0.614740	0.824048	0.881671
	C180	C	0.384845	0.881452	0.176736
	C181	C	0.615029	0.118564	0.176056
	C182	C	0.385002	0.118740	0.823422
	C183	C	0.614697	0.881482	0.823680
	C184	C	0.881725	0.176479	0.385649
	C185	C	0.117993	0.175361	0.615051
	C186	C	0.118065	0.824161	0.385140
	C187	C	0.881913	0.823818	0.615077
	C188	C	0.175828	0.384652	0.881452
	C189	C	0.176008	0.615040	0.118036
	C190	C	0.823389	0.385116	0.118563
	C191	C	0.824058	0.615060	0.881069
	C192	C	0.400305	0.094350	0.599817
	C193	C	0.599698	0.905131	0.599917
	C194	C	0.600109	0.094668	0.399559
	C195	C	0.400131	0.905173	0.400513
	C196	C	0.600181	0.399786	0.094422
	C197	C	0.599895	0.599422	0.906192
	C198	C	0.399626	0.599694	0.094171
	C199	C	0.399261	0.399735	0.905557
	C200	C	0.094746	0.599895	0.399847
	C201	C	0.905889	0.600010	0.600398
	C202	C	0.094739	0.400430	0.599755
	C203	C	0.905897	0.400119	0.400368
	C204	C	0.900921	0.594232	0.098668
	C205	C	0.099628	0.405285	0.099883
	C206	C	0.100710	0.594704	0.899604
	C207	C	0.900470	0.405641	0.900327
	C208	C	0.099579	0.900305	0.594676
	C209	C	0.100306	0.099444	0.405842
	C210	C	0.899503	0.099695	0.594801
	C211	C	0.900121	0.899710	0.405351
	C212	C	0.594265	0.100041	0.899200
	C213	C	0.405521	0.099697	0.100447
	C214	C	0.594147	0.900715	0.099929
	C215	C	0.405401	0.900636	0.900650
	Zn216	Zn	0.499738	-0.000143	0.749795
	Zn217	Zn	0.499932	-0.000003	0.250221
	Zn218	Zn	0.750113	0.500178	-0.000064
	Zn219	Zn	0.249578	0.500012	-0.000464
	Zn220	Zn	0.000186	0.750002	0.500058
	Zn221	Zn	0.000567	0.249651	0.500035
	Zn222	Zn	0.000463	0.500289	0.749970
	Zn223	Zn	-0.000330	0.500063	0.250019
	Zn224	Zn	0.499891	0.749984	0.000125
	Zn225	Zn	0.499984	0.250040	-0.000357
	Zn226	Zn	0.749662	-0.000010	0.500440
	Zn227	Zn	0.249845	0.000162	0.500099
	N228	N	0.413958	0.962456	0.678444
	N229	N	0.584677	0.037062	0.677743
	N230	N	0.585461	0.962628	0.321500
	N231	N	0.415360	0.037423	0.322882
	N232	N	0.678579	0.414323	0.962912
	N233	N	0.678634	0.585670	0.037444
	N234	N	0.322338	0.584493	0.962000
	N235	N	0.321212	0.414454	0.037128
	N236	N	0.962934	0.677723	0.415395
	N237	N	0.037844	0.678095	0.584959
	N238	N	0.963102	0.321787	0.585004
	N239	N	0.037758	0.321682	0.414713
	N240	N	0.963339	0.414486	0.678319
	N241	N	0.037673	0.585798	0.678516
	N242	N	0.963145	0.585956	0.321621
	N243	N	0.037235	0.414298	0.321535
	N244	N	0.414440	0.678624	0.962713
	N245	N	0.584744	0.677577	0.037662
	N246	N	0.584527	0.322487	0.962396
	N247	N	0.414444	0.321697	0.037407
	N248	N	0.678303	0.962704	0.414750
	N249	N	0.677042	0.037468	0.584648
	N250	N	0.321507	0.962665	0.585180
	N251	N	0.322015	0.037004	0.414869
	N252	N	0.914097	0.462879	0.178090
	N253	N	0.084993	0.537253	0.177896
	N254	N	0.085646	0.462797	0.821566
	N255	N	0.915820	0.537703	0.822544
	N256	N	0.178489	0.914242	0.463188
	N257	N	0.178940	0.085833	0.537187
	N258	N	0.821790	0.085583	0.463176
	N259	N	0.821693	0.914294	0.537111
	N260	N	0.462202	0.177627	0.915230
	N261	N	0.537437	0.177883	0.084641
	N262	N	0.462387	0.822371	0.085239
	N263	N	0.537257	0.822292	0.915167
	N264	N	0.462486	0.914657	0.178717
	N265	N	0.537291	0.085677	0.178665
	N266	N	0.462628	0.085860	0.821053
	N267	N	0.536872	0.914364	0.821473
	N268	N	0.914676	0.178308	0.463109
	N269	N	0.084711	0.177045	0.537632
	N270	N	0.084792	0.822380	0.462682
	N271	N	0.915059	0.821851	0.537606
	N272	N	0.178002	0.462363	0.914733
	N273	N	0.178101	0.537270	0.085020
	N274	N	0.822072	0.462597	0.084683
	N275	N	0.821894	0.537309	0.914288
