data_Molecule from HDF5

_cell_length_a		16.293123
_cell_length_b		16.256921
_cell_length_c		16.327444
_cell_angle_alpha	90.166140
_cell_angle_beta	89.553506
_cell_angle_gamma	90.106034
_symmetry_space_group_name_H-M	'P 1'
_symmetry_Int_Tables_number		1

loop_
	_symmetry_equiv_pos_as_xyz
	x,y,z

loop_
	_atom_site_label
	_atom_site_type_symbol
	_atom_site_fract_x
	_atom_site_fract_y
	_atom_site_fract_z
	H0	H	0.401214	0.840130	0.714254
	H1	H	0.604174	0.165182	0.718861
	H2	H	0.604884	0.840928	0.282969
	H3	H	0.401133	0.164507	0.280921
	H4	H	0.722394	0.399153	0.836815
	H5	H	0.717332	0.603862	0.160721
	H6	H	0.289041	0.601065	0.834713
	H7	H	0.282216	0.400629	0.159551
	H8	H	0.840245	0.720427	0.401699
	H9	H	0.166477	0.723824	0.597360
	H10	H	0.842013	0.288770	0.601071
	H11	H	0.166712	0.291261	0.396615
	H12	H	0.840840	0.406103	0.715437
	H13	H	0.165499	0.611663	0.716129
	H14	H	0.841494	0.607119	0.281832
	H15	H	0.166526	0.407378	0.281106
	H16	H	0.402647	0.719653	0.836258
	H17	H	0.599019	0.716547	0.161854
	H18	H	0.603598	0.284680	0.836478
	H19	H	0.399404	0.286954	0.160529
	H20	H	0.721312	0.842482	0.397441
	H21	H	0.718187	0.168048	0.601117
	H22	H	0.281881	0.843805	0.602839
	H23	H	0.290538	0.168079	0.400340
	H24	H	0.901662	0.342625	0.216394
	H25	H	0.105373	0.667989	0.212648
	H26	H	0.105572	0.344230	0.776463
	H27	H	0.902151	0.668772	0.783601
	H28	H	0.222913	0.904627	0.337865
	H29	H	0.220899	0.110596	0.660459
	H30	H	0.786449	0.107745	0.337115
	H31	H	0.785406	0.905093	0.660720
	H32	H	0.339747	0.218246	0.899796
	H33	H	0.663180	0.221654	0.100606
	H34	H	0.339672	0.786491	0.098441
	H35	H	0.666365	0.787646	0.899040
	H36	H	0.341122	0.899341	0.218472
	H37	H	0.664635	0.104359	0.214705
	H38	H	0.340532	0.103014	0.783494
	H39	H	0.664482	0.898216	0.779208
	H40	H	0.904803	0.221312	0.335803
	H41	H	0.103090	0.225449	0.660270
	H42	H	0.106047	0.790948	0.336842
	H43	H	0.899939	0.789244	0.660943
	H44	H	0.217846	0.341209	0.894824
	H45	H	0.220404	0.666015	0.097506
	H46	H	0.787209	0.340702	0.099094
	H47	H	0.784840	0.666150	0.897141
	H48	H	0.412058	0.120129	0.591797
	H49	H	0.591089	0.889233	0.590489
	H50	H	0.594625	0.120558	0.406991
	H51	H	0.406439	0.889933	0.419923
	H52	H	0.590563	0.408374	0.113513
	H53	H	0.592147	0.594469	0.883817
	H54	H	0.401240	0.590180	0.114814
	H55	H	0.416588	0.399853	0.881985
	H56	H	0.119924	0.595087	0.397372
	H57	H	0.886188	0.605414	0.590608
	H58	H	0.120265	0.416192	0.589516
	H59	H	0.885796	0.406601	0.408982
	H60	H	0.118222	0.415468	0.584147
	H61	H	0.891958	0.594006	0.584649
	H62	H	0.121989	0.607383	0.404595
	H63	H	0.891585	0.419880	0.413229
	H64	H	0.416047	0.588705	0.109552
	H65	H	0.597033	0.596799	0.881883
	H66	H	0.597581	0.410968	0.115411
	H67	H	0.401146	0.409748	0.879499
	H68	H	0.594034	0.119730	0.406789
	H69	H	0.596073	0.889001	0.585460
	H70	H	0.414032	0.119827	0.594440
	H71	H	0.407920	0.884462	0.400540
	H72	H	0.910033	0.622977	0.096062
	H73	H	0.086776	0.390991	0.087432
	H74	H	0.096675	0.619051	0.911766
	H75	H	0.917622	0.389863	0.902747
	H76	H	0.091079	0.912548	0.614970
	H77	H	0.094660	0.090266	0.386746
	H78	H	0.916488	0.097521	0.611985
	H79	H	0.905641	0.917579	0.382126
	H80	H	0.619524	0.101563	0.908576
	H81	H	0.390664	0.090842	0.083652
	H82	H	0.618828	0.912253	0.095538
	H83	H	0.385525	0.905602	0.907018
	H84	H	0.620685	0.904822	0.091015
	H85	H	0.386786	0.085474	0.097647
	H86	H	0.612931	0.088473	0.916341
	H87	H	0.388584	0.911579	0.909573
	H88	H	0.909286	0.102335	0.615971
	H89	H	0.092837	0.105340	0.382043
	H90	H	0.096235	0.918209	0.614925
	H91	H	0.918023	0.917525	0.386204
	H92	H	0.098441	0.623148	0.904604
	H93	H	0.097245	0.388344	0.084059
	H94	H	0.915918	0.617602	0.086596
	H95	H	0.913587	0.391253	0.910753
	H96	H	0.415601	0.118600	0.591598
	H97	H	0.597476	0.886436	0.591496
	H98	H	0.595047	0.119936	0.407218
	H99	H	0.423153	0.891554	0.410222
	H100	H	0.592822	0.415840	0.111574
	H101	H	0.596938	0.590878	0.883200
	H102	H	0.410883	0.602551	0.115839
	H103	H	0.415735	0.418049	0.886935
	H104	H	0.117437	0.595535	0.410940
	H105	H	0.887632	0.594920	0.598255
	H106	H	0.117009	0.420877	0.587616
	H107	H	0.886496	0.417384	0.399027
	H108	H	0.903926	0.621129	0.085900
	H109	H	0.094183	0.386463	0.095283
	H110	H	0.091026	0.619345	0.905790
	H111	H	0.909428	0.387678	0.903835
	H112	H	0.089884	0.920055	0.612467
	H113	H	0.106825	0.097919	0.380340
	H114	H	0.907999	0.093788	0.613111
	H115	H	0.912947	0.906644	0.381112
	H116	H	0.618703	0.087833	0.901303
	H117	H	0.383541	0.099896	0.094233
	H118	H	0.617413	0.911554	0.086947
	H119	H	0.385919	0.911425	0.903310
	C120	C	0.382174	0.012513	0.621639
	C121	C	0.624362	0.995745	0.620546
	C122	C	0.625109	0.012789	0.377238
	C123	C	0.382813	0.995616	0.379576
	C124	C	0.624236	0.380646	0.006894
	C125	C	0.623825	0.624024	0.990252
	C126	C	0.381038	0.623439	0.006050
	C127	C	0.380065	0.380225	0.989483
	C128	C	0.012414	0.628647	0.375819
	C129	C	0.995663	0.629041	0.620395
	C130	C	0.011567	0.386158	0.618789
	C131	C	0.995236	0.385196	0.376517
	C132	C	0.880790	0.512917	0.120101
	C133	C	0.123383	0.496031	0.118237
	C134	C	0.124879	0.513598	0.875725
	C135	C	0.882460	0.496492	0.876484
	C136	C	0.124347	0.886224	0.507432
	C137	C	0.126649	0.129099	0.489813
	C138	C	0.881758	0.127973	0.506997
	C139	C	0.881405	0.884253	0.490477
	C140	C	0.510443	0.122728	0.878805
	C141	C	0.493608	0.123627	0.121138
	C142	C	0.511402	0.880101	0.121255
	C143	C	0.494418	0.879884	0.876813
	C144	C	0.381587	0.889562	0.676771
	C145	C	0.623761	0.117075	0.679639
	C146	C	0.624608	0.889950	0.321042
	C147	C	0.382713	0.116948	0.320900
	C148	C	0.682656	0.380087	0.885121
	C149	C	0.679104	0.622984	0.112254
	C150	C	0.326269	0.621779	0.883748
	C151	C	0.321637	0.381319	0.111351
	C152	C	0.889417	0.683575	0.379729
	C153	C	0.117882	0.685756	0.618022
	C154	C	0.890274	0.328093	0.619659
	C155	C	0.117901	0.329261	0.377051
	C156	C	0.889612	0.386669	0.676706
	C157	C	0.117321	0.629398	0.676702
	C158	C	0.890045	0.627142	0.320186
	C159	C	0.117882	0.386840	0.319502
	C160	C	0.382977	0.680524	0.884425
	C161	C	0.620252	0.679232	0.112911
	C162	C	0.623564	0.323271	0.884945
	C163	C	0.379782	0.324729	0.112044
	C164	C	0.682772	0.890952	0.377808
	C165	C	0.680185	0.118737	0.620791
	C166	C	0.322398	0.891370	0.621350
	C167	C	0.327755	0.118668	0.380532
	C168	C	0.882033	0.391168	0.177634
	C169	C	0.123786	0.619031	0.174139
	C170	C	0.124749	0.392236	0.816098
	C171	C	0.882301	0.619362	0.820864
	C172	C	0.183305	0.885828	0.386091
	C173	C	0.182580	0.129826	0.611885
	C174	C	0.824929	0.127358	0.385450
	C175	C	0.823968	0.885353	0.612269
	C176	C	0.388243	0.179558	0.880064
	C177	C	0.614921	0.182358	0.119951
	C178	C	0.388581	0.824049	0.119618
	C179	C	0.617050	0.824315	0.878349
	C180	C	0.389399	0.880399	0.178999
	C181	C	0.615936	0.123763	0.176575
	C182	C	0.388636	0.122045	0.822268
	C183	C	0.616320	0.879874	0.818987
	C184	C	0.883890	0.183683	0.384640
	C185	C	0.123946	0.186929	0.611645
	C186	C	0.125355	0.829105	0.385591
	C187	C	0.881237	0.827882	0.612517
	C188	C	0.180665	0.390660	0.874763
	C189	C	0.181414	0.617987	0.117021
	C190	C	0.824922	0.389960	0.119331
	C191	C	0.824128	0.618128	0.877761
	C192	C	0.406724	0.097673	0.599074
	C193	C	0.601665	0.910412	0.596141
	C194	C	0.601467	0.097892	0.400331
	C195	C	0.405772	0.910682	0.403341
	C196	C	0.600637	0.404796	0.091422
	C197	C	0.601836	0.600827	0.904776
	C198	C	0.403007	0.600413	0.091412
	C199	C	0.404140	0.402665	0.904663
	C200	C	0.097831	0.606082	0.397815
	C201	C	0.910476	0.605309	0.597758
	C202	C	0.096632	0.410404	0.594181
	C203	C	0.910120	0.407909	0.400172
	C204	C	0.903427	0.598346	0.096472
	C205	C	0.099498	0.410628	0.095613
	C206	C	0.102184	0.598574	0.900344
	C207	C	0.906455	0.411622	0.899204
	C208	C	0.099555	0.909967	0.592116
	C209	C	0.104655	0.104787	0.405170
	C210	C	0.904502	0.104631	0.591673
	C211	C	0.905187	0.907194	0.405285
	C212	C	0.595106	0.099522	0.901949
	C213	C	0.408959	0.099246	0.098398
	C214	C	0.596781	0.902887	0.097924
	C215	C	0.408818	0.902802	0.900079
	Zn216	Zn	0.502869	0.002044	0.749680
	Zn217	Zn	0.502787	0.002531	0.250029
	Zn218	Zn	0.753118	0.503252	-0.002003
	Zn219	Zn	0.252178	0.502227	-0.002352
	Zn220	Zn	0.003875	0.757291	0.499147
	Zn221	Zn	0.003611	0.256668	0.497472
	Zn222	Zn	0.004055	0.507085	0.747912
	Zn223	Zn	0.003565	0.506079	0.247189
	Zn224	Zn	0.502649	0.752298	-0.001696
	Zn225	Zn	0.501266	0.252141	-0.000792
	Zn226	Zn	0.753458	0.005845	0.498663
	Zn227	Zn	0.254053	0.005977	0.500169
	N228	N	0.418035	0.965778	0.676976
	N229	N	0.590091	0.039507	0.679572
	N230	N	0.589401	0.966715	0.320510
	N231	N	0.416189	0.039389	0.320171
	N232	N	0.683214	0.415074	0.961799
	N233	N	0.681536	0.589368	0.034806
	N234	N	0.325182	0.586982	0.960445
	N235	N	0.321450	0.414777	0.034164
	N236	N	0.966571	0.684960	0.413348
	N237	N	0.041186	0.685577	0.583578
	N238	N	0.967035	0.327946	0.584241
	N239	N	0.040686	0.327933	0.411653
	N240	N	0.966430	0.422101	0.676132
	N241	N	0.040160	0.594972	0.678242
	N242	N	0.967448	0.593900	0.317595
	N243	N	0.040756	0.420790	0.318848
	N244	N	0.416217	0.681722	0.961487
	N245	N	0.586731	0.679877	0.035945
	N246	N	0.588336	0.323033	0.961784
	N247	N	0.415572	0.323994	0.035498
	N248	N	0.683266	0.968327	0.411990
	N249	N	0.680668	0.042222	0.584480
	N250	N	0.322453	0.968948	0.587787
	N251	N	0.327812	0.042308	0.416448
	N252	N	0.915837	0.468864	0.178312
	N253	N	0.088555	0.542261	0.175014
	N254	N	0.090923	0.469741	0.816398
	N255	N	0.917824	0.542881	0.819895
	N256	N	0.182752	0.920839	0.462854
	N257	N	0.184450	0.094628	0.535293
	N258	N	0.823302	0.093525	0.462592
	N259	N	0.823995	0.919658	0.535348
	N260	N	0.464816	0.180066	0.914625
	N261	N	0.537833	0.182479	0.086140
	N262	N	0.465343	0.823811	0.084319
	N263	N	0.540038	0.824381	0.913698
	N264	N	0.466792	0.914344	0.180260
	N265	N	0.539567	0.087995	0.177466
	N266	N	0.465491	0.087261	0.821606
	N267	N	0.539043	0.913517	0.817852
	N268	N	0.918424	0.184230	0.461099
	N269	N	0.090097	0.186692	0.534732
	N270	N	0.089255	0.829295	0.461960
	N271	N	0.916133	0.826905	0.535534
	N272	N	0.180867	0.466977	0.911191
	N273	N	0.181188	0.540548	0.082919
	N274	N	0.824209	0.466568	0.084074
	N275	N	0.823766	0.540607	0.911455
	O276	O	-0.062238	-0.126915	0.150367
	H277	H	-0.072914	-0.134876	0.138467
	H278	H	-0.070478	-0.122319	0.147864
	O279	O	0.526072	0.561995	0.440300
	H280	H	0.523833	0.571926	0.425409
	H281	H	0.527493	0.560908	0.451123
	O282	O	1.016265	0.065297	-0.020152
	H283	H	1.011214	0.083765	-0.026185
	H284	H	1.032097	0.079712	-0.012111
	O285	O	-0.014861	1.106215	-0.023624
	H286	H	-0.010696	1.099876	-0.020668
	H287	H	0.001376	1.116239	-0.017793
	O288	O	0.918714	1.140005	0.058556
	H289	H	0.900904	1.144472	0.054132
	H290	H	0.923019	1.140147	0.064061
	O291	O	0.586658	0.407178	0.529089
	H292	H	0.584987	0.398083	0.541714
	H293	H	0.563950	0.403495	0.531238
	O294	O	0.910439	0.965178	1.009361
	H295	H	0.912261	0.969007	1.004818
	H296	H	0.903437	0.972860	1.009813
	O297	O	-0.021603	-0.022500	-0.155625
	H298	H	-0.010517	-0.017521	-0.157259
	H299	H	-0.012115	-0.042132	-0.151908
	O300	O	0.492194	0.398612	0.535230
	H301	H	0.488933	0.400302	0.542560
	H302	H	0.495965	0.395622	0.518796
	O303	O	0.079591	1.170939	0.856285
	H304	H	0.075593	1.176737	0.862433
	H305	H	0.064630	1.167169	0.866368
	O306	O	0.629842	0.501588	0.332484
	H307	H	0.642740	0.502338	0.317414
	H308	H	0.621948	0.491451	0.340298
	O309	O	1.047740	-0.064268	-0.168289
	H310	H	1.058912	-0.076385	-0.169415
	H311	H	1.042100	-0.084440	-0.151132
	O312	O	-0.099105	-0.088260	1.127871
	H313	H	-0.110735	-0.088792	1.124987
	H314	H	-0.104143	-0.099277	1.143007
	O315	O	0.476338	0.421617	0.670884
	H316	H	0.469340	0.419727	0.668107
	H317	H	0.467475	0.426157	0.673583
	O318	O	0.551809	0.496694	0.482915
	H319	H	0.541872	0.501460	0.484899
	H320	H	0.551085	0.502004	0.485511
	O321	O	0.350097	0.521356	0.507706
	H322	H	0.348382	0.522189	0.511463
	H323	H	0.360558	0.530812	0.513839
	O324	O	0.480305	0.569534	0.554969
	H325	H	0.472063	0.555174	0.555274
	H326	H	0.479348	0.577508	0.565999
	O327	O	-0.038675	0.912843	0.997755
	H328	H	-0.022373	0.906989	0.988145
	H329	H	-0.054023	0.912998	0.998515
	O330	O	0.067324	-0.148959	-0.053362
	H331	H	0.058678	-0.153072	-0.030365
	H332	H	0.060317	-0.146003	-0.046595
	O333	O	-0.070386	1.099128	1.042786
	H334	H	-0.076007	1.111982	1.035528
	H335	H	-0.062586	1.086305	1.021747
	O336	O	1.147522	1.017022	1.029459
	H337	H	1.143156	1.017177	1.028997
	H338	H	1.149873	1.028216	1.030132
	O339	O	0.541335	0.520836	0.570091
	H340	H	0.539418	0.502950	0.572233
	H341	H	0.544413	0.510843	0.573004
	O342	O	1.034930	0.062806	0.080830
	H343	H	1.029696	0.042141	0.095797
	H344	H	1.021288	0.054391	0.071922
	O345	O	0.416147	0.489524	0.442350
	H346	H	0.423670	0.480499	0.439810
	H347	H	0.412541	0.497745	0.440527
	O348	O	1.121704	1.117682	0.994326
	H349	H	1.120067	1.122264	1.000546
	H350	H	1.120543	1.120001	1.003060
	O351	O	0.620731	0.497236	0.371354
	H352	H	0.626224	0.507796	0.383581
	H353	H	0.626712	0.509378	0.377690
	O354	O	0.432010	0.371656	0.498196
	H355	H	0.407684	0.373597	0.495219
	H356	H	0.433608	0.366978	0.494933
	O357	O	0.555960	0.566365	0.392993
	H358	H	0.560481	0.563250	0.399914
	H359	H	0.539891	0.564270	0.400537
	O360	O	-0.144949	-0.070159	0.124681
	H361	H	-0.154070	-0.075083	0.120952
	H362	H	-0.158803	-0.061032	0.122527
	O363	O	0.539023	0.330217	0.489405
	H364	H	0.536782	0.324158	0.494614
	H365	H	0.543001	0.322554	0.507620
	O366	O	1.107468	-0.115482	0.934132
	H367	H	1.119769	-0.123894	0.922214
	H368	H	1.111443	-0.101350	0.945269
	O369	O	0.469812	0.653506	0.514704
	H370	H	0.461507	0.648036	0.513896
	H371	H	0.467245	0.652426	0.517145
	O372	O	-0.112001	1.000506	1.056406
	H373	H	-0.109114	1.002182	1.054782
	H374	H	-0.104655	0.992782	1.045937
	O375	O	0.483104	0.663966	0.493720
	H376	H	0.479192	0.671470	0.496224
	H377	H	0.488418	0.660623	0.492379
	O378	O	0.548158	0.447120	0.513318
	H379	H	0.551268	0.459991	0.518995
	H380	H	0.547779	0.438194	0.503685
	O381	O	0.463674	0.478684	0.461594
	H382	H	0.458543	0.476062	0.454306
	H383	H	0.469264	0.474606	0.455334
	O384	O	-0.098761	1.019568	-0.136767
	H385	H	-0.095363	1.022629	-0.142423
	H386	H	-0.103205	1.026563	-0.144401
	O387	O	0.962118	0.089827	1.040171
	H388	H	0.953167	0.077401	1.046102
	H389	H	0.953342	0.094766	1.055796
	O390	O	0.130553	0.996350	0.068263
	H391	H	0.125126	0.991897	0.061726
	H392	H	0.122551	0.986072	0.083696
	O393	O	0.481489	0.379880	-0.566435
	H394	H	0.509950	0.385950	-0.563117
	H395	H	0.480110	0.366809	-0.579958
	O396	O	0.570603	0.464008	0.499764
	H397	H	0.584032	0.449411	0.493630
	H398	H	0.561785	0.474675	0.515334
	O399	O	-0.021445	0.856801	0.899295
	H400	H	-0.019987	0.869600	0.903089
	H401	H	-0.014389	0.840960	0.891008
	O402	O	1.120092	1.112755	1.082965
	H403	H	1.120347	1.108425	1.092488
	H404	H	1.115107	1.103797	1.087376
	O405	O	0.597351	0.559701	0.569192
	H406	H	0.600288	0.546147	0.579504
	H407	H	0.592061	0.570520	0.570418
