data_Molecule from HDF5

_cell_length_a		16.322262
_cell_length_b		16.259300
_cell_length_c		16.197070
_cell_angle_alpha	90.139683
_cell_angle_beta	90.180349
_cell_angle_gamma	89.936894
_symmetry_space_group_name_H-M	'P 1'
_symmetry_Int_Tables_number		1

loop_
	_symmetry_equiv_pos_as_xyz
	x,y,z

loop_
	_atom_site_label
	_atom_site_type_symbol
	_atom_site_fract_x
	_atom_site_fract_y
	_atom_site_fract_z
	H0	H	0.406613	0.841144	0.699286
	H1	H	0.601518	0.168720	0.705010
	H2	H	0.603368	0.843023	0.272475
	H3	H	0.402898	0.169946	0.273285
	H4	H	0.718311	0.404793	0.822997
	H5	H	0.720208	0.607514	0.150255
	H6	H	0.287311	0.604799	0.823662
	H7	H	0.288591	0.405288	0.151283
	H8	H	0.841263	0.723708	0.385918
	H9	H	0.165790	0.724292	0.589732
	H10	H	0.841180	0.291637	0.587073
	H11	H	0.165862	0.289250	0.385450
	H12	H	0.840029	0.409134	0.700407
	H13	H	0.166545	0.606476	0.703961
	H14	H	0.841380	0.608656	0.270370
	H15	H	0.167077	0.407332	0.272558
	H16	H	0.401888	0.719844	0.823163
	H17	H	0.604098	0.721897	0.150306
	H18	H	0.600882	0.289947	0.822893
	H19	H	0.403432	0.290722	0.151244
	H20	H	0.719793	0.843846	0.388498
	H21	H	0.719340	0.169627	0.591396
	H22	H	0.285913	0.843978	0.589540
	H23	H	0.286231	0.169361	0.386086
	H24	H	0.905911	0.342959	0.201912
	H25	H	0.101749	0.670645	0.201522
	H26	H	0.101872	0.342509	0.773126
	H27	H	0.904506	0.670531	0.773870
	H28	H	0.218143	0.905737	0.323633
	H29	H	0.218589	0.106704	0.651512
	H30	H	0.786085	0.108910	0.324782
	H31	H	0.790841	0.908021	0.651716
	H32	H	0.339628	0.219788	0.887834
	H33	H	0.664795	0.222325	0.089739
	H34	H	0.339735	0.790387	0.086729
	H35	H	0.664909	0.789980	0.888457
	H36	H	0.339473	0.908492	0.201976
	H37	H	0.666543	0.103983	0.201853
	H38	H	0.339833	0.103300	0.773176
	H39	H	0.665424	0.906209	0.775155
	H40	H	0.904851	0.220407	0.322710
	H41	H	0.102932	0.222312	0.651475
	H42	H	0.101739	0.791869	0.323761
	H43	H	0.905692	0.792216	0.650559
	H44	H	0.219015	0.342820	0.887299
	H45	H	0.220334	0.668881	0.088582
	H46	H	0.788301	0.342774	0.088030
	H47	H	0.785829	0.668488	0.886392
	H48	H	0.411992	0.124337	0.585855
	H49	H	0.601295	0.885378	0.591502
	H50	H	0.599583	0.125008	0.393878
	H51	H	0.413827	0.889848	0.392620
	H52	H	0.594471	0.420677	0.100938
	H53	H	0.594650	0.606750	0.866988
	H54	H	0.411442	0.600462	0.104773
	H55	H	0.408701	0.416311	0.871028
	H56	H	0.117663	0.604435	0.405083
	H57	H	0.887793	0.601331	0.577160
	H58	H	0.115721	0.421003	0.573519
	H59	H	0.894415	0.428147	0.401924
	H60	H	0.122149	0.417385	0.591744
	H61	H	0.888226	0.597880	0.580026
	H62	H	0.116721	0.589429	0.394630
	H63	H	0.883783	0.416520	0.378840
	H64	H	0.409707	0.596590	0.104686
	H65	H	0.603433	0.590455	0.869661
	H66	H	0.591150	0.409356	0.103821
	H67	H	0.413683	0.412682	0.871167
	H68	H	0.590524	0.122515	0.393607
	H69	H	0.588060	0.892563	0.578733
	H70	H	0.415677	0.119851	0.577741
	H71	H	0.413659	0.892630	0.400354
	H72	H	0.913328	0.621886	0.080833
	H73	H	0.103059	0.386507	0.083030
	H74	H	0.099478	0.622593	0.898951
	H75	H	0.914612	0.389902	0.889993
	H76	H	0.089287	0.917547	0.601142
	H77	H	0.100539	0.103113	0.367683
	H78	H	0.910142	0.092019	0.602360
	H79	H	0.922005	0.923715	0.376684
	H80	H	0.619309	0.096234	0.894252
	H81	H	0.388458	0.094353	0.077390
	H82	H	0.618029	0.907960	0.073547
	H83	H	0.383484	0.905017	0.890734
	H84	H	0.615955	0.920827	0.080328
	H85	H	0.385370	0.098048	0.085111
	H86	H	0.619588	0.101211	0.896688
	H87	H	0.386704	0.911595	0.901198
	H88	H	0.919397	0.104172	0.604202
	H89	H	0.097367	0.092264	0.371806
	H90	H	0.097400	0.908352	0.607313
	H91	H	0.913029	0.901634	0.366653
	H92	H	0.097588	0.623882	0.892982
	H93	H	0.090901	0.390115	0.083132
	H94	H	0.911109	0.621311	0.074813
	H95	H	0.911160	0.391239	0.898685
	H96	H	0.406338	0.123562	0.578075
	H97	H	0.606305	0.889428	0.572156
	H98	H	0.595645	0.121537	0.402104
	H99	H	0.406843	0.889134	0.396849
	H100	H	0.602461	0.412998	0.106141
	H101	H	0.585479	0.592251	0.874427
	H102	H	0.413766	0.596806	0.102981
	H103	H	0.408477	0.409700	0.868729
	H104	H	0.123913	0.604903	0.387729
	H105	H	0.887268	0.601611	0.581975
	H106	H	0.122534	0.403451	0.577986
	H107	H	0.886400	0.401165	0.402213
	H108	H	0.906852	0.623806	0.079452
	H109	H	0.097261	0.392146	0.072848
	H110	H	0.092702	0.621777	0.896802
	H111	H	0.905986	0.387336	0.892811
	H112	H	0.101971	0.921173	0.604899
	H113	H	0.088980	0.101283	0.371830
	H114	H	0.904885	0.105852	0.608551
	H115	H	0.897862	0.922261	0.368416
	H116	H	0.617800	0.096066	0.899944
	H117	H	0.386154	0.103571	0.077262
	H118	H	0.622638	0.908939	0.088401
	H119	H	0.385339	0.917015	0.889624
	C120	C	0.382318	0.014596	0.609428
	C121	C	0.626397	0.997204	0.610820
	C122	C	0.624672	0.015087	0.367014
	C123	C	0.381931	0.998196	0.366808
	C124	C	0.624753	0.384297	-0.004600
	C125	C	0.624501	0.626934	0.978369
	C126	C	0.382154	0.626675	-0.004133
	C127	C	0.381396	0.384121	0.978887
	C128	C	0.012128	0.629147	0.365683
	C129	C	0.995229	0.629454	0.609590
	C130	C	0.012087	0.385838	0.608921
	C131	C	0.995686	0.385348	0.365417
	C132	C	0.881494	0.514704	0.108478
	C133	C	0.125831	0.497802	0.109029
	C134	C	0.125213	0.514632	0.866443
	C135	C	0.881554	0.497673	0.865431
	C136	C	0.125179	0.885744	0.496063
	C137	C	0.125104	0.128695	0.478773
	C138	C	0.882072	0.129170	0.496542
	C139	C	0.882788	0.886557	0.478979
	C140	C	0.511279	0.126619	0.866816
	C141	C	0.494239	0.127950	0.109465
	C142	C	0.511045	0.883669	0.109632
	C143	C	0.493366	0.882912	0.865997
	C144	C	0.385169	0.890852	0.663078
	C145	C	0.622884	0.119979	0.667241
	C146	C	0.623248	0.892021	0.310969
	C147	C	0.383009	0.120901	0.310826
	C148	C	0.679924	0.385097	0.871726
	C149	C	0.681442	0.626479	0.101326
	C150	C	0.325500	0.624664	0.872627
	C151	C	0.325980	0.385518	0.102254
	C152	C	0.889912	0.685389	0.366300
	C153	C	0.117490	0.685741	0.609073
	C154	C	0.889643	0.330115	0.606762
	C155	C	0.117585	0.328237	0.366469
	C156	C	0.889247	0.388405	0.663601
	C157	C	0.117753	0.627124	0.665868
	C158	C	0.890110	0.628072	0.308670
	C159	C	0.118103	0.386848	0.310000
	C160	C	0.382629	0.681965	0.872312
	C161	C	0.623626	0.683530	0.101521
	C162	C	0.621991	0.327761	0.871984
	C163	C	0.383562	0.328627	0.102180
	C164	C	0.681474	0.892508	0.368373
	C165	C	0.681496	0.120431	0.610526
	C166	C	0.325469	0.892246	0.608074
	C167	C	0.324921	0.120618	0.367198
	C168	C	0.884680	0.391672	0.164267
	C169	C	0.122805	0.621323	0.164041
	C170	C	0.122322	0.391590	0.810508
	C171	C	0.883828	0.621285	0.811018
	C172	C	0.180296	0.886369	0.372718
	C173	C	0.180587	0.126812	0.602359
	C174	C	0.825332	0.127883	0.373239
	C175	C	0.828093	0.888008	0.602472
	C176	C	0.388580	0.182066	0.868030
	C177	C	0.616330	0.184310	0.109175
	C178	C	0.388459	0.828439	0.107156
	C179	C	0.616237	0.827745	0.868277
	C180	C	0.388244	0.887241	0.164485
	C181	C	0.617351	0.125623	0.165054
	C182	C	0.388604	0.124224	0.810912
	C183	C	0.616419	0.885496	0.812022
	C184	C	0.884048	0.183719	0.372329
	C185	C	0.122901	0.184158	0.602463
	C186	C	0.122307	0.829759	0.372649
	C187	C	0.885288	0.830542	0.601970
	C188	C	0.180886	0.391617	0.867139
	C189	C	0.181664	0.620392	0.107943
	C190	C	0.826454	0.391680	0.107222
	C191	C	0.825161	0.620342	0.867048
	C192	C	0.404860	0.100340	0.587162
	C193	C	0.604836	0.911465	0.587639
	C194	C	0.601869	0.100808	0.389917
	C195	C	0.404817	0.912691	0.389909
	C196	C	0.602534	0.407554	0.081284
	C197	C	0.601261	0.603535	0.892450
	C198	C	0.405067	0.604457	0.082003
	C199	C	0.403761	0.406524	0.892717
	C200	C	0.097408	0.606188	0.388839
	C201	C	0.909849	0.607002	0.586262
	C202	C	0.097859	0.407536	0.587212
	C203	C	0.910431	0.408466	0.387914
	C204	C	0.903909	0.600208	0.085291
	C205	C	0.103559	0.411867	0.086337
	C206	C	0.103231	0.600560	0.889540
	C207	C	0.904021	0.411825	0.887393
	C208	C	0.102825	0.908861	0.582162
	C209	C	0.102361	0.105729	0.392630
	C210	C	0.904646	0.107106	0.582519
	C211	C	0.904655	0.909174	0.392935
	C212	C	0.596822	0.104327	0.890057
	C213	C	0.408820	0.105279	0.086698
	C214	C	0.596612	0.905880	0.087329
	C215	C	0.407466	0.904755	0.887492
	Zn216	Zn	0.502935	0.004867	0.738350
	Zn217	Zn	0.503105	0.007065	0.238068
	Zn218	Zn	0.752906	0.505595	-0.013427
	Zn219	Zn	0.254227	0.505426	-0.012228
	Zn220	Zn	0.003875	0.757740	0.487350
	Zn221	Zn	0.003659	0.257115	0.487034
	Zn222	Zn	0.003456	0.506926	0.738111
	Zn223	Zn	0.003850	0.507102	0.236790
	Zn224	Zn	0.502697	0.754913	-0.013330
	Zn225	Zn	0.502611	0.255792	-0.012229
	Zn226	Zn	0.754272	0.007787	0.488297
	Zn227	Zn	0.253622	0.006552	0.487371
	N228	N	0.419844	0.967969	0.663978
	N229	N	0.589710	0.042368	0.667885
	N230	N	0.588593	0.969207	0.310028
	N231	N	0.417889	0.043876	0.310443
	N232	N	0.681769	0.419334	0.949433
	N233	N	0.682059	0.591907	0.023854
	N234	N	0.325201	0.590808	0.950385
	N235	N	0.324711	0.419715	0.024538
	N236	N	0.966643	0.685929	0.401211
	N237	N	0.040314	0.687247	0.574619
	N238	N	0.967023	0.328351	0.573429
	N239	N	0.040318	0.327156	0.400082
	N240	N	0.966316	0.422377	0.664953
	N241	N	0.040633	0.592930	0.666462
	N242	N	0.967262	0.593732	0.308063
	N243	N	0.041307	0.421848	0.309314
	N244	N	0.417184	0.683247	0.949993
	N245	N	0.588611	0.683617	0.024198
	N246	N	0.588213	0.327271	0.949802
	N247	N	0.417143	0.327700	0.024528
	N248	N	0.682513	0.970097	0.402452
	N249	N	0.683746	0.043074	0.575983
	N250	N	0.323532	0.970219	0.575176
	N251	N	0.324018	0.043178	0.401270
	N252	N	0.918245	0.469186	0.165352
	N253	N	0.088817	0.544017	0.164790
	N254	N	0.088639	0.469214	0.809860
	N255	N	0.918346	0.544006	0.809875
	N256	N	0.182060	0.920524	0.450490
	N257	N	0.182069	0.093088	0.524364
	N258	N	0.823862	0.094996	0.451390
	N259	N	0.826157	0.921985	0.524947
	N260	N	0.465896	0.183647	0.902264
	N261	N	0.538960	0.185927	0.075463
	N262	N	0.465809	0.826335	0.073860
	N263	N	0.538829	0.826113	0.901162
	N264	N	0.465540	0.920828	0.166225
	N265	N	0.540325	0.091203	0.165466
	N266	N	0.465919	0.090582	0.809976
	N267	N	0.538972	0.919120	0.810226
	N268	N	0.918560	0.184862	0.449846
	N269	N	0.089207	0.185401	0.524525
	N270	N	0.088685	0.829417	0.450493
	N271	N	0.918361	0.829333	0.524085
	N272	N	0.182728	0.469142	0.901199
	N273	N	0.183661	0.542467	0.074585
	N274	N	0.824341	0.469152	0.073552
	N275	N	0.823583	0.542571	0.900158
	O276	O	-0.400219	-0.572502	0.384858
	H277	H	-0.397005	-0.572213	0.387868
	H278	H	-0.393679	-0.566959	0.373379
	O279	O	0.620329	0.530980	0.501631
	H280	H	0.621455	0.534544	0.503374
	H281	H	0.619559	0.530544	0.502824
	O282	O	0.539037	0.393997	0.452909
	H283	H	0.538373	0.406186	0.452887
	H284	H	0.522084	0.383526	0.450816
	O285	O	-0.073681	1.003878	0.961665
	H286	H	-0.079286	0.991473	0.954804
	H287	H	-0.066086	1.010711	0.961228
	O288	O	0.578945	0.623036	0.617461
	H289	H	0.590346	0.632235	0.616659
	H290	H	0.580351	0.620871	0.613677
	O291	O	1.009383	0.994233	0.991722
	H292	H	0.995685	0.987042	0.998180
	H293	H	1.004235	0.991917	0.990403
	O294	O	0.992813	0.994230	0.927556
	H295	H	1.003077	0.980846	0.912132
	H296	H	0.992061	0.988932	0.927669
	O297	O	0.990155	0.074257	0.980169
	H298	H	0.989577	0.069465	0.982090
	H299	H	0.987963	0.075881	0.975061
	O300	O	0.492951	0.498581	0.601706
	H301	H	0.501394	0.498728	0.598232
	H302	H	0.496163	0.493112	0.594956
	O303	O	0.954124	0.059530	-0.011610
	H304	H	0.961926	0.053810	-0.015761
	H305	H	0.947539	0.072835	-0.005286
	O306	O	0.001543	1.029740	1.018735
	H307	H	0.010411	1.022343	1.013038
	H308	H	0.003543	1.034023	1.030233
	O309	O	0.414329	0.403256	0.532826
	H310	H	0.423624	0.413142	0.533434
	H311	H	0.418737	0.401019	0.535086
	O312	O	0.913914	-0.031962	0.913616
	H313	H	0.912224	-0.030634	0.920778
	H314	H	0.902091	-0.034336	0.905386
	O315	O	0.481021	0.561718	0.524375
	H316	H	0.482329	0.556381	0.523367
	H317	H	0.487188	0.567139	0.527365
	O318	O	0.049711	0.072361	1.000329
	H319	H	0.050070	0.065407	0.995709
	H320	H	0.046775	0.074398	1.008878
	O321	O	1.469983	0.480109	1.423524
	H322	H	1.463606	0.477927	1.425302
	H323	H	1.456465	0.470425	1.422754
	O324	O	0.380387	0.524663	0.465430
	H325	H	0.387422	0.512389	0.473151
	H326	H	0.374671	0.524610	0.475991
	O327	O	0.425558	0.523020	0.503131
	H328	H	0.430770	0.508270	0.504838
	H329	H	0.421837	0.513552	0.505465
	O330	O	0.509883	-0.538067	0.534625
	H331	H	0.499556	-0.535990	0.531490
	H332	H	0.520763	-0.530198	0.538741
	O333	O	0.977899	1.038872	-0.003421
	H334	H	0.981139	1.044326	-0.006185
	H335	H	0.975305	1.045261	-0.009977
	O336	O	0.467532	0.503064	0.501701
	H337	H	0.457988	0.500658	0.509028
	H338	H	0.478599	0.495033	0.494872
	O339	O	0.482173	0.594945	0.378268
	H340	H	0.483147	0.593034	0.385080
	H341	H	0.493743	0.604296	0.380241
	O342	O	0.567889	1.367756	0.383990
	H343	H	0.564899	1.377391	0.363757
	H344	H	0.566608	1.360277	0.383540
	O345	O	0.607280	0.639104	0.606595
	H346	H	0.605310	0.631461	0.596050
	H347	H	0.599832	0.635545	0.597234
	O348	O	0.487974	0.468422	0.377053
	H349	H	0.485458	0.473522	0.376721
	H350	H	0.475146	0.479573	0.378912
	O351	O	-0.419938	0.409604	0.598131
	H352	H	-0.405801	0.406772	0.592628
	H353	H	-0.413218	0.415841	0.593071
	O354	O	0.611887	0.485569	0.419017
	H355	H	0.606733	0.482769	0.409991
	H356	H	0.609488	0.489903	0.418832
	O357	O	0.365524	0.551805	0.432897
	H358	H	0.359835	0.558714	0.428954
	H359	H	0.355781	0.553829	0.448256
	O360	O	0.015279	0.031353	-0.084800
	H361	H	0.006424	0.032504	-0.084418
	H362	H	0.015936	0.043599	-0.074770
	O363	O	0.473097	0.644849	0.355352
	H364	H	0.467843	0.657353	0.339126
	H365	H	0.470622	0.625763	0.346496
	O366	O	0.006262	-0.024483	0.937540
	H367	H	0.014464	-0.023453	0.939372
	H368	H	0.005227	-0.021283	0.929132
	O369	O	0.468704	0.531951	0.530998
	H370	H	0.473961	0.514764	0.526393
	H371	H	0.465654	0.536330	0.538978
