data_Molecule from HDF5

_cell_length_a		16.311780
_cell_length_b		16.164108
_cell_length_c		16.278108
_cell_angle_alpha	90.116052
_cell_angle_beta	89.957732
_cell_angle_gamma	89.799813
_symmetry_space_group_name_H-M	'P 1'
_symmetry_Int_Tables_number		1

loop_
	_symmetry_equiv_pos_as_xyz
	x,y,z

loop_
	_atom_site_label
	_atom_site_type_symbol
	_atom_site_fract_x
	_atom_site_fract_y
	_atom_site_fract_z
	H0	H	0.391212	0.833372	0.711527
	H1	H	0.586707	0.162476	0.712029
	H2	H	0.590181	0.834446	0.281965
	H3	H	0.389523	0.162965	0.284799
	H4	H	0.703922	0.396667	0.833426
	H5	H	0.704045	0.598279	0.160504
	H6	H	0.272723	0.597915	0.833755
	H7	H	0.271618	0.397848	0.160645
	H8	H	0.824525	0.711128	0.400636
	H9	H	0.152308	0.711089	0.595671
	H10	H	0.824805	0.284348	0.593314
	H11	H	0.152763	0.281739	0.398579
	H12	H	0.824928	0.397763	0.712228
	H13	H	0.151263	0.597155	0.713172
	H14	H	0.825052	0.596394	0.283910
	H15	H	0.151845	0.396129	0.280100
	H16	H	0.390090	0.712189	0.833665
	H17	H	0.586433	0.712047	0.161451
	H18	H	0.587368	0.281606	0.834012
	H19	H	0.391505	0.285299	0.162634
	H20	H	0.703103	0.833417	0.398113
	H21	H	0.703159	0.161584	0.597823
	H22	H	0.275101	0.833144	0.597734
	H23	H	0.272097	0.161575	0.398259
	H24	H	0.890619	0.332588	0.209808
	H25	H	0.086211	0.662413	0.211217
	H26	H	0.086431	0.332941	0.783326
	H27	H	0.888380	0.662577	0.783013
	H28	H	0.205310	0.895949	0.334381
	H29	H	0.202991	0.097022	0.661221
	H30	H	0.771174	0.098369	0.335178
	H31	H	0.771998	0.896214	0.659810
	H32	H	0.324704	0.212767	0.900720
	H33	H	0.652370	0.212348	0.096877
	H34	H	0.324929	0.784903	0.096499
	H35	H	0.652975	0.784207	0.900760
	H36	H	0.325362	0.899885	0.213557
	H37	H	0.652294	0.096850	0.213080
	H38	H	0.325277	0.098238	0.782939
	H39	H	0.651634	0.898279	0.782478
	H40	H	0.890604	0.210138	0.332976
	H41	H	0.086010	0.211954	0.661262
	H42	H	0.087220	0.782261	0.332834
	H43	H	0.893051	0.784686	0.661458
	H44	H	0.202933	0.333426	0.897920
	H45	H	0.201212	0.663297	0.096112
	H46	H	0.775107	0.333494	0.094871
	H47	H	0.774466	0.663160	0.899678
	H48	H	0.387782	0.116894	0.588307
	H49	H	0.587371	0.878707	0.590737
	H50	H	0.584377	0.113840	0.414147
	H51	H	0.387496	0.876980	0.402618
	H52	H	0.578790	0.404240	0.113185
	H53	H	0.583232	0.589776	0.880030
	H54	H	0.385168	0.587771	0.115754
	H55	H	0.395484	0.403472	0.880777
	H56	H	0.104198	0.589599	0.407976
	H57	H	0.871417	0.590177	0.592650
	H58	H	0.103634	0.405185	0.585874
	H59	H	0.874238	0.415349	0.398223
	H60	H	0.104720	0.407815	0.593500
	H61	H	0.871370	0.593340	0.589851
	H62	H	0.104551	0.584850	0.403045
	H63	H	0.867932	0.395059	0.396182
	H64	H	0.399886	0.584896	0.110597
	H65	H	0.580570	0.590375	0.880735
	H66	H	0.586090	0.404449	0.115539
	H67	H	0.393060	0.407266	0.881093
	H68	H	0.586399	0.119518	0.399540
	H69	H	0.578085	0.879273	0.595279
	H70	H	0.397832	0.116891	0.598398
	H71	H	0.406369	0.881010	0.398077
	H72	H	0.903514	0.609271	0.080004
	H73	H	0.077597	0.382546	0.088896
	H74	H	0.083247	0.616500	0.903662
	H75	H	0.890270	0.380206	0.907893
	H76	H	0.088088	0.906288	0.614822
	H77	H	0.083888	0.083132	0.381201
	H78	H	0.894287	0.092935	0.615556
	H79	H	0.889179	0.908419	0.379319
	H80	H	0.600820	0.085991	0.912172
	H81	H	0.373800	0.084808	0.096195
	H82	H	0.605026	0.907680	0.095899
	H83	H	0.373643	0.907622	0.907167
	H84	H	0.606670	0.899567	0.091478
	H85	H	0.369182	0.097088	0.095882
	H86	H	0.605351	0.085139	0.897536
	H87	H	0.371862	0.908020	0.901103
	H88	H	0.892761	0.088821	0.614900
	H89	H	0.077515	0.088250	0.383256
	H90	H	0.078569	0.906999	0.611461
	H91	H	0.901485	0.908055	0.383052
	H92	H	0.079394	0.615870	0.901732
	H93	H	0.083595	0.380762	0.085527
	H94	H	0.880384	0.619099	0.088347
	H95	H	0.894733	0.378037	0.897642
	H96	H	0.400692	0.112176	0.584713
	H97	H	0.579423	0.881928	0.584846
	H98	H	0.572779	0.113434	0.404333
	H99	H	0.398893	0.884233	0.416346
	H100	H	0.582497	0.410503	0.112350
	H101	H	0.582593	0.591810	0.879249
	H102	H	0.396986	0.599735	0.115826
	H103	H	0.397052	0.406907	0.882834
	H104	H	0.105981	0.591671	0.401665
	H105	H	0.873265	0.589147	0.589196
	H106	H	0.106411	0.399693	0.591931
	H107	H	0.875582	0.401807	0.414512
	H108	H	0.901107	0.618208	0.104923
	H109	H	0.082623	0.378765	0.092164
	H110	H	0.079585	0.615149	0.905897
	H111	H	0.901236	0.382520	0.906101
	H112	H	0.081854	0.898807	0.614755
	H113	H	0.084145	0.091410	0.379086
	H114	H	0.897426	0.089793	0.612729
	H115	H	0.896244	0.898208	0.378477
	H116	H	0.607251	0.098389	0.904884
	H117	H	0.374092	0.091975	0.085040
	H118	H	0.602824	0.906735	0.086289
	H119	H	0.371238	0.901908	0.904633
	C120	C	0.367659	0.006421	0.619255
	C121	C	0.610030	0.988939	0.619630
	C122	C	0.610396	0.006906	0.376722
	C123	C	0.367832	0.989408	0.377067
	C124	C	0.610647	0.376653	0.005492
	C125	C	0.610119	0.619793	0.988786
	C126	C	0.365592	0.619896	0.005745
	C127	C	0.366640	0.376869	0.989437
	C128	C	-0.003064	0.618324	0.376064
	C129	C	0.979851	0.619339	0.619314
	C130	C	-0.003171	0.375996	0.618632
	C131	C	0.980506	0.374850	0.374155
	C132	C	0.866857	0.506359	0.118684
	C133	C	0.109692	0.489574	0.118030
	C134	C	0.109472	0.506863	0.875559
	C135	C	0.866776	0.489275	0.875431
	C136	C	0.111619	0.874566	0.505465
	C137	C	0.110301	0.117723	0.489467
	C138	C	0.866573	0.119103	0.506032
	C139	C	0.867183	0.876113	0.488626
	C140	C	0.496754	0.119613	0.876461
	C141	C	0.480457	0.119796	0.120559
	C142	C	0.496901	0.876132	0.120310
	C143	C	0.480292	0.876653	0.875950
	C144	C	0.370364	0.882429	0.674324
	C145	C	0.607368	0.112940	0.674503
	C146	C	0.609265	0.883209	0.320662
	C147	C	0.369617	0.113675	0.322532
	C148	C	0.665731	0.377348	0.882273
	C149	C	0.665852	0.618124	0.111638
	C150	C	0.310517	0.618093	0.882924
	C151	C	0.310800	0.378490	0.112362
	C152	C	0.873595	0.673655	0.379402
	C153	C	0.103235	0.673777	0.616445
	C154	C	0.873699	0.321515	0.614848
	C155	C	0.103593	0.319228	0.377220
	C156	C	0.873982	0.377639	0.674264
	C157	C	0.102765	0.616843	0.674644
	C158	C	0.873831	0.616766	0.321264
	C159	C	0.103348	0.376383	0.318678
	C160	C	0.369013	0.674916	0.882658
	C161	C	0.607084	0.674580	0.112149
	C162	C	0.607719	0.320235	0.882547
	C163	C	0.370248	0.322492	0.113318
	C164	C	0.665553	0.882771	0.378401
	C165	C	0.665245	0.112584	0.617869
	C166	C	0.312899	0.882322	0.617540
	C167	C	0.310831	0.112818	0.378845
	C168	C	0.870166	0.381981	0.172572
	C169	C	0.106436	0.613532	0.173245
	C170	C	0.106779	0.382044	0.821279
	C171	C	0.868233	0.613399	0.820707
	C172	C	0.166916	0.876180	0.382840
	C173	C	0.165168	0.116905	0.612366
	C174	C	0.810823	0.117221	0.383153
	C175	C	0.811400	0.877316	0.611557
	C176	C	0.373563	0.175060	0.879606
	C177	C	0.603572	0.174532	0.117254
	C178	C	0.373643	0.822397	0.117113
	C179	C	0.603641	0.821499	0.879704
	C180	C	0.374071	0.879388	0.175623
	C181	C	0.603589	0.117110	0.175147
	C182	C	0.373887	0.118296	0.821072
	C183	C	0.603032	0.878194	0.820761
	C184	C	0.869742	0.173217	0.382240
	C185	C	0.106848	0.173890	0.612408
	C186	C	0.108382	0.819407	0.382128
	C187	C	0.871103	0.821713	0.612282
	C188	C	0.165083	0.382717	0.877625
	C189	C	0.163822	0.613830	0.116127
	C190	C	0.812727	0.382351	0.115300
	C191	C	0.811705	0.613701	0.878751
	C192	C	0.389134	0.092756	0.596992
	C193	C	0.588021	0.902354	0.597059
	C194	C	0.587945	0.093209	0.399351
	C195	C	0.390901	0.903133	0.399285
	C196	C	0.589023	0.399754	0.091409
	C197	C	0.588419	0.597263	0.902453
	C198	C	0.387681	0.597287	0.091873
	C199	C	0.388768	0.399379	0.903805
	C200	C	0.082710	0.595365	0.397745
	C201	C	0.894197	0.597294	0.597196
	C202	C	0.082714	0.397900	0.596944
	C203	C	0.894743	0.397611	0.396293
	C204	C	0.888524	0.593162	0.097500
	C205	C	0.087775	0.402962	0.095522
	C206	C	0.087376	0.593500	0.897257
	C207	C	0.888960	0.402699	0.897333
	C208	C	0.089409	0.897336	0.591564
	C209	C	0.088293	0.094407	0.403454
	C210	C	0.888322	0.097001	0.591882
	C211	C	0.888951	0.898506	0.402720
	C212	C	0.582291	0.096703	0.898387
	C213	C	0.394639	0.097873	0.098849
	C214	C	0.582780	0.898166	0.097905
	C215	C	0.394352	0.899211	0.897950
	Zn216	Zn	0.488265	-0.001949	0.746979
	Zn217	Zn	0.489159	-0.001671	0.248990
	Zn218	Zn	0.739095	0.498088	-0.003355
	Zn219	Zn	0.237201	0.498379	-0.002735
	Zn220	Zn	-0.011211	0.747388	0.497034
	Zn221	Zn	-0.011224	0.246733	0.496735
	Zn222	Zn	-0.011837	0.498053	0.747705
	Zn223	Zn	-0.011324	0.497720	0.246345
	Zn224	Zn	0.488071	0.747979	-0.002138
	Zn225	Zn	0.488576	0.248144	-0.001827
	Zn226	Zn	0.737956	-0.002487	0.497690
	Zn227	Zn	0.239748	-0.002914	0.498300
	N228	N	0.403461	0.960562	0.675637
	N229	N	0.574035	0.034855	0.675921
	N230	N	0.575479	0.961263	0.319615
	N231	N	0.404255	0.035841	0.321267
	N232	N	0.667615	0.411778	0.959652
	N233	N	0.667627	0.584665	0.033802
	N234	N	0.308426	0.584874	0.960664
	N235	N	0.308572	0.411879	0.034633
	N236	N	0.951104	0.674748	0.412662
	N237	N	0.025962	0.675502	0.582682
	N238	N	0.950979	0.320191	0.581263
	N239	N	0.026339	0.318508	0.411104
	N240	N	0.951521	0.411139	0.676558
	N241	N	0.025118	0.583806	0.676523
	N242	N	0.951489	0.583069	0.318962
	N243	N	0.025753	0.410187	0.316600
	N244	N	0.402632	0.676158	0.960211
	N245	N	0.573094	0.675683	0.034758
	N246	N	0.574040	0.319762	0.960130
	N247	N	0.404359	0.321329	0.035911
	N248	N	0.666403	0.960677	0.412585
	N249	N	0.666995	0.034470	0.584273
	N250	N	0.311146	0.960329	0.583925
	N251	N	0.310017	0.034655	0.412148
	N252	N	0.903294	0.460176	0.174720
	N253	N	0.073586	0.535279	0.174737
	N254	N	0.072938	0.460203	0.819737
	N255	N	0.901623	0.535168	0.818499
	N256	N	0.169301	0.909322	0.460698
	N257	N	0.167281	0.082848	0.534943
	N258	N	0.808520	0.084356	0.461053
	N259	N	0.808798	0.910355	0.533753
	N260	N	0.450664	0.175768	0.913501
	N261	N	0.526027	0.176300	0.083848
	N262	N	0.451024	0.820212	0.083629
	N263	N	0.526176	0.820637	0.913647
	N264	N	0.451962	0.911761	0.177933
	N265	N	0.526015	0.083971	0.177342
	N266	N	0.451421	0.084465	0.818952
	N267	N	0.525487	0.911567	0.818362
	N268	N	0.903959	0.174143	0.459424
	N269	N	0.073633	0.174576	0.534671
	N270	N	0.074537	0.818481	0.459608
	N271	N	0.905076	0.820950	0.534904
	N272	N	0.166725	0.460977	0.910841
	N273	N	0.165641	0.535723	0.082471
	N274	N	0.810511	0.460700	0.082690
	N275	N	0.810857	0.535546	0.912106
	O276	O	0.555144	0.508367	0.524751
	H277	H	0.561670	0.512368	0.526742
	H278	H	0.552321	0.507950	0.525580
	O279	O	0.507310	0.511950	0.483387
	H280	H	0.501698	0.510104	0.478851
	H281	H	0.507540	0.515007	0.485914
	O282	O	0.465483	0.511295	0.459020
	H283	H	0.465490	0.517025	0.466597
	H284	H	0.466185	0.505775	0.463109
	O285	O	0.492093	1.482338	0.502093
	H286	H	0.484512	1.492734	0.500595
	H287	H	0.502743	1.487625	0.501052
	O288	O	0.383321	0.471368	0.428517
	H289	H	0.388166	0.461028	0.424528
	H290	H	0.376254	0.464584	0.430532
	O291	O	-0.022930	0.042401	1.012244
	H292	H	-0.023148	0.047147	1.013417
	H293	H	-0.025867	0.042361	1.006513
	O294	O	1.020602	-0.019800	0.950194
	H295	H	1.025793	-0.021283	0.940997
	H296	H	1.015222	-0.026971	0.954980
	O297	O	0.521060	0.523243	0.495922
	H298	H	0.514710	0.528045	0.499916
	H299	H	0.521464	0.523537	0.492112
	O300	O	0.417897	0.496069	0.496215
	H301	H	0.413660	0.494408	0.492214
	H302	H	0.416849	0.493086	0.499015
	O303	O	0.470978	0.484364	0.470044
	H304	H	0.463751	0.472014	0.468667
	H305	H	0.475928	0.489302	0.480701
	O306	O	0.965206	-0.042131	0.986515
	H307	H	0.963904	-0.048949	0.972216
	H308	H	0.960424	-0.028843	0.984520
	O309	O	0.477796	0.544095	0.534504
	H310	H	0.478734	0.541172	0.535836
	H311	H	0.470313	0.551800	0.525737
	O312	O	0.489410	0.528688	0.376400
	H313	H	0.497970	0.523491	0.376166
	H314	H	0.489660	0.524833	0.369004
	O315	O	0.974412	0.113887	1.008084
	H316	H	0.979319	0.116582	1.006858
	H317	H	0.978541	0.122385	1.010842
	O318	O	-0.008339	-0.047744	-0.014046
	H319	H	-0.009062	-0.047895	-0.011767
	H320	H	-0.026055	-0.044199	-0.022558
	O321	O	1.001439	1.006192	1.001812
	H322	H	1.004666	1.009452	0.999840
	H323	H	1.001160	1.004210	1.003672
	O324	O	1.053067	0.033074	0.009694
	H325	H	1.054568	0.023682	0.025906
	H326	H	1.056527	0.037471	0.013418
	O327	O	0.987305	1.036479	-0.058768
	H328	H	0.993070	1.026894	-0.057364
	H329	H	0.990268	1.040006	-0.058022
	O330	O	0.580809	0.467424	0.488649
	H331	H	0.588162	0.475583	0.484704
	H332	H	0.569278	0.482016	0.483874
	O333	O	0.464223	0.566076	0.473632
	H334	H	0.472222	0.567002	0.473393
	H335	H	0.459903	0.565559	0.479588
