data_Molecule from HDF5

_cell_length_a		16.226957
_cell_length_b		16.297218
_cell_length_c		16.265517
_cell_angle_alpha	89.893104
_cell_angle_beta	89.874319
_cell_angle_gamma	89.974692
_symmetry_space_group_name_H-M	'P 1'
_symmetry_Int_Tables_number		1

loop_
	_symmetry_equiv_pos_as_xyz
	x,y,z

loop_
	_atom_site_label
	_atom_site_type_symbol
	_atom_site_fract_x
	_atom_site_fract_y
	_atom_site_fract_z
	H0	H	0.405747	0.833331	0.715263
	H1	H	0.602689	0.160331	0.712594
	H2	H	0.605115	0.832429	0.283587
	H3	H	0.406256	0.158727	0.283901
	H4	H	0.718453	0.399948	0.833442
	H5	H	0.720897	0.595017	0.161646
	H6	H	0.292497	0.594694	0.833732
	H7	H	0.290316	0.398520	0.161693
	H8	H	0.841976	0.711621	0.399373
	H9	H	0.170402	0.708834	0.594625
	H10	H	0.842230	0.281463	0.598660
	H11	H	0.169504	0.281222	0.399502
	H12	H	0.841970	0.397911	0.712710
	H13	H	0.169914	0.594007	0.711293
	H14	H	0.841572	0.594903	0.284322
	H15	H	0.170037	0.397797	0.283893
	H16	H	0.406438	0.712391	0.835300
	H17	H	0.603505	0.709890	0.162670
	H18	H	0.604429	0.281743	0.834960
	H19	H	0.403901	0.280636	0.161826
	H20	H	0.719493	0.832379	0.401552
	H21	H	0.720041	0.160016	0.597984
	H22	H	0.291151	0.832535	0.597484
	H23	H	0.292080	0.160137	0.402111
	H24	H	0.905659	0.333010	0.213409
	H25	H	0.105629	0.659435	0.211767
	H26	H	0.105415	0.332600	0.783357
	H27	H	0.906852	0.659027	0.781939
	H28	H	0.220362	0.899428	0.335359
	H29	H	0.217113	0.092632	0.663953
	H30	H	0.790657	0.095012	0.335151
	H31	H	0.792488	0.898162	0.662799
	H32	H	0.340384	0.209947	0.902349
	H33	H	0.668949	0.212062	0.097990
	H34	H	0.341834	0.781145	0.099812
	H35	H	0.668992	0.783094	0.900316
	H36	H	0.340513	0.898452	0.212707
	H37	H	0.669129	0.095760	0.213116
	H38	H	0.340829	0.096031	0.785472
	H39	H	0.669384	0.899815	0.786292
	H40	H	0.905027	0.212115	0.334361
	H41	H	0.101939	0.209776	0.662813
	H42	H	0.107743	0.782035	0.334938
	H43	H	0.907361	0.780875	0.661518
	H44	H	0.219999	0.332831	0.900330
	H45	H	0.219553	0.659655	0.095033
	H46	H	0.790608	0.332536	0.097177
	H47	H	0.792010	0.659042	0.898483
	H48	H	0.412909	0.112950	0.594053
	H49	H	0.603916	0.878502	0.592504
	H50	H	0.592930	0.111357	0.404288
	H51	H	0.413900	0.879269	0.404751
	H52	H	0.594107	0.393105	0.116859
	H53	H	0.611455	0.585668	0.879716
	H54	H	0.417809	0.598237	0.115978
	H55	H	0.416962	0.405583	0.883119
	H56	H	0.124347	0.592438	0.403120
	H57	H	0.891626	0.582922	0.586110
	H58	H	0.124264	0.406441	0.597984
	H59	H	0.888979	0.406036	0.401926
	H60	H	0.125065	0.394811	0.589944
	H61	H	0.887356	0.587703	0.595678
	H62	H	0.122217	0.589692	0.405105
	H63	H	0.888116	0.400629	0.407944
	H64	H	0.401646	0.589355	0.118492
	H65	H	0.588625	0.583228	0.886860
	H66	H	0.608337	0.407129	0.116856
	H67	H	0.413505	0.396801	0.880100
	H68	H	0.599929	0.111883	0.410069
	H69	H	0.595341	0.878807	0.597614
	H70	H	0.410725	0.112649	0.590969
	H71	H	0.412346	0.880017	0.408331
	H72	H	0.912874	0.612224	0.089681
	H73	H	0.093605	0.379062	0.097129
	H74	H	0.090821	0.610297	0.900181
	H75	H	0.923020	0.380856	0.902094
	H76	H	0.107029	0.889073	0.622167
	H77	H	0.090021	0.085333	0.385335
	H78	H	0.912407	0.089488	0.615301
	H79	H	0.905539	0.910205	0.381570
	H80	H	0.624706	0.091661	0.898385
	H81	H	0.390171	0.079062	0.093915
	H82	H	0.623277	0.904280	0.095729
	H83	H	0.387411	0.905075	0.905526
	H84	H	0.622906	0.898863	0.089622
	H85	H	0.384667	0.095620	0.098400
	H86	H	0.622615	0.095210	0.910729
	H87	H	0.387869	0.901599	0.907890
	H88	H	0.912432	0.091324	0.615856
	H89	H	0.098357	0.099341	0.379071
	H90	H	0.104979	0.916977	0.614099
	H91	H	0.921136	0.907536	0.384595
	H92	H	0.102215	0.610747	0.911620
	H93	H	0.094523	0.383154	0.084704
	H94	H	0.912017	0.613041	0.091320
	H95	H	0.909064	0.380600	0.914219
	H96	H	0.408771	0.113384	0.594536
	H97	H	0.595334	0.882591	0.587593
	H98	H	0.600644	0.113997	0.401284
	H99	H	0.410393	0.877830	0.404780
	H100	H	0.590302	0.411414	0.110057
	H101	H	0.596243	0.603942	0.878385
	H102	H	0.416384	0.580003	0.110090
	H103	H	0.407372	0.404134	0.880196
	H104	H	0.124104	0.588774	0.401345
	H105	H	0.888446	0.594644	0.586634
	H106	H	0.120571	0.406682	0.583965
	H107	H	0.891238	0.408313	0.409003
	H108	H	0.913896	0.612476	0.091119
	H109	H	0.104592	0.377390	0.090688
	H110	H	0.105652	0.617351	0.896827
	H111	H	0.907389	0.375357	0.897180
	H112	H	0.081579	0.898721	0.611490
	H113	H	0.107109	0.084500	0.380531
	H114	H	0.910293	0.090330	0.615405
	H115	H	0.912175	0.895659	0.378936
	H116	H	0.619974	0.083042	0.906788
	H117	H	0.390435	0.092106	0.082306
	H118	H	0.620467	0.906408	0.088719
	H119	H	0.388653	0.905387	0.908796
	C120	C	0.382574	0.004846	0.621579
	C121	C	0.626515	0.988407	0.620737
	C122	C	0.627012	0.004391	0.376883
	C123	C	0.383364	0.987257	0.377728
	C124	C	0.626475	0.375437	0.006617
	C125	C	0.627480	0.618946	0.989861
	C126	C	0.383533	0.618049	0.006768
	C127	C	0.383256	0.374070	0.989408
	C128	C	0.014959	0.618990	0.375123
	C129	C	0.997728	0.616927	0.618235
	C130	C	0.014581	0.374502	0.619513
	C131	C	0.997366	0.375416	0.377088
	C132	C	0.883722	0.504596	0.119505
	C133	C	0.126965	0.487793	0.119301
	C134	C	0.127883	0.504599	0.875348
	C135	C	0.884459	0.487284	0.875753
	C136	C	0.127210	0.874410	0.507194
	C137	C	0.126264	0.117374	0.490591
	C138	C	0.882986	0.118843	0.507175
	C139	C	0.884436	0.875246	0.489815
	C140	C	0.513674	0.118455	0.877582
	C141	C	0.496737	0.118133	0.120291
	C142	C	0.513770	0.874768	0.120708
	C143	C	0.496112	0.875386	0.878169
	C144	C	0.385438	0.881715	0.676661
	C145	C	0.623338	0.111599	0.674956
	C146	C	0.625258	0.881302	0.321703
	C147	C	0.386032	0.110444	0.322434
	C148	C	0.681512	0.378296	0.882904
	C149	C	0.682774	0.615622	0.112890
	C150	C	0.329629	0.615296	0.882960
	C151	C	0.328006	0.377525	0.112749
	C152	C	0.891125	0.673971	0.378277
	C153	C	0.121335	0.671428	0.615502
	C154	C	0.890870	0.319950	0.617634
	C155	C	0.120606	0.319505	0.378924
	C156	C	0.890910	0.377344	0.674765
	C157	C	0.120914	0.614621	0.673509
	C158	C	0.890917	0.615995	0.321116
	C159	C	0.120911	0.377513	0.321535
	C160	C	0.385979	0.674083	0.883808
	C161	C	0.624384	0.672666	0.113494
	C162	C	0.624817	0.319649	0.883620
	C163	C	0.384379	0.318971	0.112942
	C164	C	0.682299	0.881233	0.380001
	C165	C	0.681497	0.111390	0.617886
	C166	C	0.328697	0.881188	0.618428
	C167	C	0.329090	0.110967	0.380948
	C168	C	0.885377	0.381785	0.175515
	C169	C	0.125207	0.610587	0.174122
	C170	C	0.125631	0.381650	0.820998
	C171	C	0.887221	0.610316	0.820438
	C172	C	0.182896	0.878117	0.384146
	C173	C	0.179705	0.113485	0.614594
	C174	C	0.827875	0.116359	0.383864
	C175	C	0.829829	0.877780	0.613509
	C176	C	0.389680	0.172805	0.881059
	C177	C	0.619975	0.173757	0.118101
	C178	C	0.390367	0.819463	0.119314
	C179	C	0.620224	0.821217	0.880520
	C180	C	0.389950	0.877848	0.175455
	C181	C	0.620098	0.116077	0.175625
	C182	C	0.389781	0.115869	0.823343
	C183	C	0.620142	0.878691	0.823261
	C184	C	0.884971	0.174359	0.383775
	C185	C	0.122381	0.171504	0.614063
	C186	C	0.126291	0.820112	0.383759
	C187	C	0.886726	0.819228	0.612832
	C188	C	0.182553	0.381672	0.879150
	C189	C	0.182235	0.610764	0.116226
	C190	C	0.828410	0.381396	0.117333
	C191	C	0.829680	0.610297	0.877895
	C192	C	0.404397	0.090827	0.599735
	C193	C	0.604629	0.902160	0.599012
	C194	C	0.604515	0.090148	0.398741
	C195	C	0.405480	0.901294	0.399582
	C196	C	0.604215	0.397528	0.092446
	C197	C	0.605254	0.597415	0.903978
	C198	C	0.405601	0.595719	0.092732
	C199	C	0.405963	0.395884	0.903322
	C200	C	0.101151	0.597010	0.396816
	C201	C	0.911338	0.594947	0.595921
	C202	C	0.101021	0.396354	0.597220
	C203	C	0.911509	0.398226	0.399665
	C204	C	0.906249	0.590239	0.097022
	C205	C	0.104278	0.402157	0.097384
	C206	C	0.106071	0.590873	0.896648
	C207	C	0.906625	0.401325	0.898023
	C208	C	0.104458	0.895463	0.593618
	C209	C	0.104933	0.095950	0.404095
	C210	C	0.904865	0.096875	0.593191
	C211	C	0.906469	0.897694	0.403982
	C212	C	0.600124	0.096507	0.899164
	C213	C	0.410581	0.095495	0.098057
	C214	C	0.599953	0.896791	0.097994
	C215	C	0.410156	0.897392	0.900820
	Zn216	Zn	0.504774	-0.003135	0.749798
	Zn217	Zn	0.505389	-0.003932	0.248428
	Zn218	Zn	0.756033	0.496258	-0.002294
	Zn219	Zn	0.255522	0.496172	-0.002364
	Zn220	Zn	0.006402	0.745978	0.497584
	Zn221	Zn	0.005375	0.246678	0.498424
	Zn222	Zn	0.005972	0.495984	0.747310
	Zn223	Zn	0.005414	0.496470	0.247871
	Zn224	Zn	0.504828	0.746938	-0.001052
	Zn225	Zn	0.505062	0.246508	-0.001267
	Zn226	Zn	0.755312	-0.003567	0.499093
	Zn227	Zn	0.254933	-0.004178	0.499369
	N228	N	0.418477	0.959541	0.678752
	N229	N	0.589808	0.034038	0.676652
	N230	N	0.591608	0.958816	0.319674
	N231	N	0.419255	0.032704	0.320425
	N232	N	0.682405	0.412501	0.960271
	N233	N	0.684777	0.582836	0.035113
	N234	N	0.328119	0.581131	0.960338
	N235	N	0.326973	0.410754	0.034924
	N236	N	0.969151	0.675909	0.410911
	N237	N	0.043556	0.672926	0.582016
	N238	N	0.968867	0.318057	0.584129
	N239	N	0.042879	0.318319	0.412929
	N240	N	0.968804	0.410467	0.676024
	N241	N	0.043106	0.581068	0.675096
	N242	N	0.968813	0.582613	0.319049
	N243	N	0.043316	0.411654	0.320470
	N244	N	0.418713	0.675919	0.961776
	N245	N	0.590634	0.674722	0.036036
	N246	N	0.591238	0.317841	0.961381
	N247	N	0.418277	0.317076	0.035385
	N248	N	0.683590	0.958824	0.413482
	N249	N	0.683435	0.033787	0.584717
	N250	N	0.326786	0.958713	0.584964
	N251	N	0.327524	0.033477	0.414625
	N252	N	0.918913	0.459301	0.177032
	N253	N	0.091199	0.533176	0.175838
	N254	N	0.092093	0.459176	0.818836
	N255	N	0.920342	0.532602	0.818912
	N256	N	0.183133	0.911355	0.461716
	N257	N	0.182276	0.080786	0.536711
	N258	N	0.826557	0.082511	0.461363
	N259	N	0.828399	0.911955	0.536104
	N260	N	0.467641	0.174313	0.914162
	N261	N	0.542120	0.175305	0.084831
	N262	N	0.468454	0.817353	0.086051
	N263	N	0.542170	0.819061	0.913958
	N264	N	0.467638	0.911524	0.176376
	N265	N	0.542456	0.082007	0.176899
	N266	N	0.467798	0.082694	0.821034
	N267	N	0.542156	0.911861	0.821754
	N268	N	0.918457	0.176211	0.461517
	N269	N	0.089894	0.174034	0.535928
	N270	N	0.092412	0.817438	0.461525
	N271	N	0.920058	0.817442	0.534999
	N272	N	0.184094	0.459286	0.912084
	N273	N	0.183395	0.533462	0.082740
	N274	N	0.827291	0.458787	0.083157
	N275	N	0.827949	0.532918	0.911705
	O276	O	1.022347	0.894325	0.066524
	H277	H	1.013977	0.896375	0.062400
	H278	H	1.014186	0.893469	0.071941
	O279	O	0.016551	-0.089816	0.030664
	H280	H	0.008330	-0.092750	0.030978
	H281	H	0.021433	-0.093989	0.029978
	O282	O	-0.038322	-0.005055	1.017338
	H283	H	-0.036964	-0.003287	1.015513
	H284	H	-0.033468	-0.006824	1.024238
	O285	O	0.017404	0.991213	0.058635
	H286	H	0.013696	0.984031	0.069716
	H287	H	0.019419	0.987167	0.071095
	O288	O	0.560132	0.397796	0.464503
	H289	H	0.564214	0.396999	0.465414
	H290	H	0.563093	0.402132	0.466262
	O291	O	0.562359	0.433524	0.469305
	H292	H	0.564105	0.432882	0.472725
	H293	H	0.559986	0.424261	0.474767
	O294	O	-0.498065	0.394174	0.473616
	H295	H	-0.501265	0.390698	0.457316
	H296	H	-0.491994	0.400253	0.478667
	O297	O	0.572830	0.413581	0.475189
	H298	H	0.572734	0.422617	0.477354
	H299	H	0.566735	0.416894	0.486706
	O300	O	0.020349	1.058618	1.042876
	H301	H	0.027021	1.057433	1.041236
	H302	H	0.020928	1.063332	1.057369
	O303	O	0.538783	0.459421	0.487928
	H304	H	0.537800	0.455034	0.490403
	H305	H	0.533336	0.450588	0.478706
	O306	O	0.547745	-0.529207	1.463951
	H307	H	0.546106	-0.533852	1.463097
	H308	H	0.552708	-0.527701	1.455559
	O309	O	0.984092	1.004661	1.014779
	H310	H	0.990054	1.008775	1.006212
	H311	H	0.987470	1.004204	1.005705
	O312	O	-0.015500	0.939618	0.097632
	H313	H	-0.016993	0.947643	0.104419
	H314	H	-0.005711	0.936448	0.097070
	O315	O	0.522578	0.466241	0.443904
	H316	H	0.519507	0.464397	0.442239
	H317	H	0.527541	0.464629	0.443441
	O318	O	-0.023109	0.955196	0.031435
	H319	H	-0.032669	0.951138	0.035223
	H320	H	-0.022511	0.951174	0.029113
	O321	O	1.054011	0.908518	0.050152
	H322	H	1.053687	0.904215	0.057189
	H323	H	1.064346	0.904705	0.046475
