data_Molecule from HDF5

_cell_length_a		16.348761
_cell_length_b		16.367409
_cell_length_c		16.243418
_cell_angle_alpha	90.250356
_cell_angle_beta	90.313352
_cell_angle_gamma	90.113151
_symmetry_space_group_name_H-M	'P 1'
_symmetry_Int_Tables_number		1

loop_
	_symmetry_equiv_pos_as_xyz
	x,y,z

loop_
	_atom_site_label
	_atom_site_type_symbol
	_atom_site_fract_x
	_atom_site_fract_y
	_atom_site_fract_z
	H0	H	0.403894	0.813326	0.720532
	H1	H	0.608431	0.134857	0.730906
	H2	H	0.604420	0.814723	0.291475
	H3	H	0.399676	0.136012	0.288657
	H4	H	0.719164	0.370409	0.845760
	H5	H	0.724301	0.580784	0.168461
	H6	H	0.284046	0.576816	0.846215
	H7	H	0.284115	0.374078	0.170062
	H8	H	0.842112	0.696259	0.405196
	H9	H	0.164854	0.696851	0.614182
	H10	H	0.847104	0.253158	0.616003
	H11	H	0.165047	0.257422	0.403865
	H12	H	0.841371	0.376487	0.722761
	H13	H	0.164011	0.580725	0.729233
	H14	H	0.841834	0.578693	0.290328
	H15	H	0.164767	0.375172	0.290141
	H16	H	0.398064	0.692339	0.846664
	H17	H	0.605858	0.695090	0.169056
	H18	H	0.602954	0.256101	0.846694
	H19	H	0.396918	0.255962	0.169158
	H20	H	0.722569	0.816180	0.406544
	H21	H	0.723808	0.137587	0.614741
	H22	H	0.284597	0.817077	0.612048
	H23	H	0.283686	0.136190	0.402603
	H24	H	0.900245	0.315031	0.227137
	H25	H	0.104898	0.637349	0.227103
	H26	H	0.103162	0.315974	0.790087
	H27	H	0.901995	0.637700	0.793583
	H28	H	0.220098	0.874582	0.346837
	H29	H	0.226931	0.081693	0.670693
	H30	H	0.783343	0.083403	0.348342
	H31	H	0.789012	0.878817	0.671766
	H32	H	0.340632	0.192363	0.904862
	H33	H	0.662738	0.196527	0.113171
	H34	H	0.341414	0.755732	0.111146
	H35	H	0.662267	0.754970	0.905557
	H36	H	0.341117	0.873927	0.225468
	H37	H	0.665222	0.077157	0.225908
	H38	H	0.341078	0.075022	0.788735
	H39	H	0.664184	0.873177	0.792570
	H40	H	0.903073	0.194740	0.347161
	H41	H	0.111901	0.197825	0.670514
	H42	H	0.104301	0.758375	0.347737
	H43	H	0.901287	0.760752	0.671068
	H44	H	0.219911	0.315093	0.905113
	H45	H	0.222976	0.636134	0.113516
	H46	H	0.784144	0.314625	0.110823
	H47	H	0.781801	0.634772	0.903634
	H48	H	0.412258	0.088839	0.590485
	H49	H	0.606378	0.857384	0.602902
	H50	H	0.601469	0.093592	0.418642
	H51	H	0.414678	0.861432	0.413364
	H52	H	0.599177	0.380476	0.127524
	H53	H	0.593431	0.562731	0.891998
	H54	H	0.421187	0.557459	0.118776
	H55	H	0.417565	0.379406	0.893590
	H56	H	0.116983	0.570937	0.423135
	H57	H	0.888770	0.572080	0.597562
	H58	H	0.120571	0.389014	0.606360
	H59	H	0.892303	0.387776	0.424794
	H60	H	0.119492	0.382654	0.594956
	H61	H	0.889110	0.568006	0.599400
	H62	H	0.117064	0.564667	0.418143
	H63	H	0.890578	0.390300	0.415892
	H64	H	0.417635	0.578226	0.126323
	H65	H	0.589158	0.565426	0.893945
	H66	H	0.595939	0.395307	0.120835
	H67	H	0.403780	0.379345	0.889454
	H68	H	0.591123	0.091515	0.411801
	H69	H	0.590257	0.861145	0.604565
	H70	H	0.412262	0.094019	0.604932
	H71	H	0.415781	0.864202	0.421664
	H72	H	0.904971	0.590062	0.091879
	H73	H	0.084816	0.363798	0.099719
	H74	H	0.088109	0.589044	0.917956
	H75	H	0.905566	0.359039	0.916083
	H76	H	0.096410	0.889452	0.624530
	H77	H	0.096069	0.062074	0.395419
	H78	H	0.917152	0.072560	0.625877
	H79	H	0.906947	0.889685	0.392277
	H80	H	0.613936	0.061347	0.921963
	H81	H	0.388510	0.067202	0.095666
	H82	H	0.613822	0.888960	0.092968
	H83	H	0.384991	0.883540	0.906584
	H84	H	0.618055	0.887431	0.104283
	H85	H	0.388904	0.064028	0.098130
	H86	H	0.617684	0.065858	0.916346
	H87	H	0.386045	0.875175	0.918543
	H88	H	0.909881	0.065021	0.625326
	H89	H	0.089672	0.068473	0.395324
	H90	H	0.094317	0.887926	0.624036
	H91	H	0.918800	0.890171	0.396455
	H92	H	0.094949	0.589471	0.926202
	H93	H	0.096318	0.363169	0.089445
	H94	H	0.911784	0.592600	0.106691
	H95	H	0.912349	0.359088	0.910141
	H96	H	0.425083	0.087872	0.599137
	H97	H	0.597785	0.863656	0.589497
	H98	H	0.591761	0.088630	0.424292
	H99	H	0.407826	0.860414	0.419298
	H100	H	0.583816	0.383925	0.120835
	H101	H	0.593003	0.567784	0.891174
	H102	H	0.400464	0.563716	0.127533
	H103	H	0.409813	0.390807	0.894935
	H104	H	0.119692	0.571356	0.415409
	H105	H	0.887038	0.571447	0.602194
	H106	H	0.115805	0.395087	0.596729
	H107	H	0.889092	0.380787	0.418654
	H108	H	0.920666	0.586011	0.095595
	H109	H	0.098114	0.358093	0.103899
	H110	H	0.097820	0.593380	0.916748
	H111	H	0.913088	0.361784	0.919775
	H112	H	0.095986	0.887444	0.625426
	H113	H	0.097867	0.070721	0.392210
	H114	H	0.919648	0.063397	0.621556
	H115	H	0.914020	0.880192	0.391554
	H116	H	0.616147	0.069075	0.923707
	H117	H	0.386997	0.067807	0.100045
	H118	H	0.618163	0.878550	0.096638
	H119	H	0.390148	0.889091	0.919380
	C120	C	0.384432	-0.015643	0.628668
	C121	C	0.627863	0.967234	0.631573
	C122	C	0.625669	-0.014777	0.387147
	C123	C	0.381850	0.967797	0.386821
	C124	C	0.623003	0.354387	0.016567
	C125	C	0.624089	0.596894	0.999035
	C126	C	0.381289	0.596624	0.017097
	C127	C	0.379699	0.353550	0.999461
	C128	C	0.011441	0.599006	0.387523
	C129	C	0.994974	0.600386	0.631620
	C130	C	0.012756	0.356739	0.630411
	C131	C	0.996405	0.355747	0.388093
	C132	C	0.881322	0.483603	0.129493
	C133	C	0.124706	0.467628	0.129968
	C134	C	0.124079	0.484935	0.887668
	C135	C	0.880290	0.466642	0.885794
	C136	C	0.124903	0.856835	0.517535
	C137	C	0.127382	0.099022	0.500761
	C138	C	0.883681	0.098501	0.517656
	C139	C	0.883164	0.856863	0.500606
	C140	C	0.510104	0.095847	0.887549
	C141	C	0.494305	0.097744	0.130111
	C142	C	0.510228	0.854000	0.129089
	C143	C	0.493355	0.852162	0.885554
	C144	C	0.383929	0.862523	0.684136
	C145	C	0.627538	0.087320	0.691215
	C146	C	0.624548	0.863315	0.330040
	C147	C	0.380934	0.088130	0.327870
	C148	C	0.680246	0.352266	0.894627
	C149	C	0.684162	0.598766	0.120202
	C150	C	0.322639	0.596216	0.895001
	C151	C	0.322591	0.354234	0.121599
	C152	C	0.890463	0.657083	0.386467
	C153	C	0.116295	0.658034	0.632864
	C154	C	0.893576	0.295273	0.632442
	C155	C	0.116964	0.297068	0.386015
	C156	C	0.890822	0.356750	0.685812
	C157	C	0.115830	0.600046	0.690183
	C158	C	0.890372	0.598546	0.328950
	C159	C	0.116916	0.355531	0.329029
	C160	C	0.379688	0.653367	0.894895
	C161	C	0.625263	0.655772	0.120705
	C162	C	0.622594	0.294978	0.894941
	C163	C	0.378817	0.295577	0.120940
	C164	C	0.683316	0.864094	0.387181
	C165	C	0.685123	0.088693	0.633460
	C166	C	0.324913	0.864186	0.629733
	C167	C	0.323193	0.088239	0.384966
	C168	C	0.881078	0.363010	0.187734
	C169	C	0.124636	0.588797	0.188579
	C170	C	0.123223	0.363944	0.828861
	C171	C	0.881384	0.588711	0.830533
	C172	C	0.181431	0.855901	0.395464
	C173	C	0.187352	0.100637	0.622100
	C174	C	0.823805	0.100917	0.396333
	C175	C	0.827063	0.858708	0.623049
	C176	C	0.388846	0.153312	0.885942
	C177	C	0.615006	0.156697	0.131691
	C178	C	0.389617	0.795329	0.129749
	C179	C	0.614285	0.794305	0.886204
	C180	C	0.389384	0.854261	0.186836
	C181	C	0.615974	0.097477	0.188086
	C182	C	0.389069	0.094437	0.828455
	C183	C	0.615260	0.853232	0.829917
	C184	C	0.883366	0.156383	0.395845
	C185	C	0.130052	0.158514	0.622117
	C186	C	0.124071	0.797848	0.396001
	C187	C	0.882932	0.799804	0.622576
	C188	C	0.181229	0.363637	0.886202
	C189	C	0.183035	0.588444	0.131686
	C190	C	0.822879	0.362960	0.130317
	C191	C	0.822000	0.587426	0.885671
	C192	C	0.409387	0.068531	0.605042
	C193	C	0.604839	0.882663	0.606273
	C194	C	0.601731	0.069401	0.411204
	C195	C	0.405913	0.883798	0.411083
	C196	C	0.599865	0.379279	0.100977
	C197	C	0.599195	0.572480	0.914480
	C198	C	0.405990	0.573307	0.102021
	C199	C	0.403267	0.376846	0.914701
	C200	C	0.095883	0.575892	0.411800
	C201	C	0.910144	0.577142	0.606981
	C202	C	0.096932	0.381812	0.606389
	C203	C	0.912418	0.379449	0.412782
	C204	C	0.905432	0.567961	0.105090
	C205	C	0.100290	0.383441	0.105051
	C206	C	0.100471	0.568920	0.912922
	C207	C	0.903499	0.381985	0.908549
	C208	C	0.102178	0.881262	0.602545
	C209	C	0.101810	0.074405	0.416358
	C210	C	0.908481	0.074102	0.602176
	C211	C	0.906516	0.879898	0.415499
	C212	C	0.594072	0.072353	0.913218
	C213	C	0.409781	0.073365	0.105197
	C214	C	0.594752	0.878042	0.104921
	C215	C	0.408821	0.875643	0.908262
	Zn216	Zn	0.503429	-0.025632	0.757612
	Zn217	Zn	0.503059	-0.024202	0.258569
	Zn218	Zn	0.752571	0.474519	0.007128
	Zn219	Zn	0.253254	0.476178	0.008672
	Zn220	Zn	0.003365	0.728342	0.509650
	Zn221	Zn	0.005392	0.227023	0.509664
	Zn222	Zn	0.002911	0.477341	0.759040
	Zn223	Zn	0.003137	0.475895	0.258587
	Zn224	Zn	0.501324	0.724331	0.007900
	Zn225	Zn	0.501502	0.226222	0.008733
	Zn226	Zn	0.754812	-0.021992	0.508804
	Zn227	Zn	0.254900	-0.022950	0.509196
	N228	N	0.420688	0.938154	0.683335
	N229	N	0.592716	0.010806	0.690215
	N230	N	0.589476	0.939523	0.330006
	N231	N	0.416751	0.012350	0.328903
	N232	N	0.680710	0.388663	0.971026
	N233	N	0.683620	0.562894	0.043464
	N234	N	0.323634	0.561663	0.972044
	N235	N	0.322846	0.389466	0.044959
	N236	N	0.966803	0.657409	0.422506
	N237	N	0.039901	0.658406	0.597098
	N238	N	0.970496	0.295066	0.598838
	N239	N	0.040948	0.297024	0.422060
	N240	N	0.966114	0.394373	0.684525
	N241	N	0.039198	0.565078	0.689521
	N242	N	0.966369	0.563076	0.329676
	N243	N	0.040953	0.391310	0.330260
	N244	N	0.415101	0.653988	0.971802
	N245	N	0.588554	0.654666	0.044437
	N246	N	0.587618	0.296191	0.971712
	N247	N	0.413656	0.295066	0.044145
	N248	N	0.684247	0.940965	0.421835
	N249	N	0.685192	0.012902	0.596816
	N250	N	0.325006	0.940934	0.595908
	N251	N	0.323580	0.012296	0.420929
	N252	N	0.916285	0.439204	0.187494
	N253	N	0.088856	0.512676	0.187367
	N254	N	0.088543	0.440435	0.829633
	N255	N	0.916580	0.512650	0.830303
	N256	N	0.182221	0.891722	0.472240
	N257	N	0.185725	0.064386	0.545704
	N258	N	0.823747	0.066032	0.473111
	N259	N	0.827096	0.893472	0.546090
	N260	N	0.465003	0.154050	0.922037
	N261	N	0.538120	0.157304	0.096844
	N262	N	0.465903	0.795373	0.094414
	N263	N	0.537530	0.793516	0.920076
	N264	N	0.465463	0.890140	0.186430
	N265	N	0.539692	0.061731	0.187270
	N266	N	0.465439	0.059252	0.829426
	N267	N	0.538972	0.888277	0.829233
	N268	N	0.920088	0.155022	0.472349
	N269	N	0.093570	0.157777	0.545623
	N270	N	0.089819	0.798250	0.472819
	N271	N	0.916972	0.798568	0.545359
	N272	N	0.181992	0.439867	0.921967
	N273	N	0.183114	0.512114	0.096014
	N274	N	0.823024	0.439169	0.094791
	N275	N	0.821176	0.510408	0.919265
	O276	O	0.528222	0.328842	0.324536
	H277	H	0.536835	0.326904	0.335835
	H278	H	0.534105	0.335498	0.308467
	O279	O	0.394866	0.425740	0.381554
	H280	H	0.378388	0.414656	0.378669
	H281	H	0.405067	0.434976	0.398091
	O282	O	0.430361	0.424530	0.643941
	H283	H	0.440110	0.421567	0.646202
	H284	H	0.433831	0.436261	0.631930
	O285	O	0.493081	0.592065	0.425900
	H286	H	0.489029	0.588094	0.413998
	H287	H	0.473443	0.609554	0.411693
	O288	O	1.073978	1.108985	1.169409
	H289	H	1.057759	1.100864	1.173881
	H290	H	1.079798	1.104318	1.186880
	O291	O	-0.102654	0.956670	-0.079672
	H292	H	-0.094204	0.959967	-0.084123
	H293	H	-0.101605	0.964505	-0.074671
	O294	O	0.655905	0.571135	0.661424
	H295	H	0.666192	0.593168	0.652649
	H296	H	0.672333	0.580222	0.677610
	O297	O	0.574602	0.656028	0.371848
	H298	H	0.570449	0.641952	0.373037
	H299	H	0.568972	0.658046	0.364132
	O300	O	0.583097	0.522381	0.499732
	H301	H	0.586605	0.520277	0.492993
	H302	H	0.579632	0.527424	0.491830
	O303	O	0.581894	0.564591	0.684604
	H304	H	0.581534	0.559773	0.670859
	H305	H	0.596091	0.589985	0.689961
	O306	O	0.153530	0.824067	0.987343
	H307	H	0.160385	0.829514	0.984380
	H308	H	0.171926	0.816804	0.983321
	O309	O	0.448251	0.475603	0.516310
	H310	H	0.446620	0.478518	0.518627
	H311	H	0.454385	0.472671	0.518159
	O312	O	0.015144	0.103017	0.028697
	H313	H	0.001482	0.096479	0.034891
	H314	H	0.008342	0.096062	0.028844
	O315	O	0.538524	0.654337	0.471424
	H316	H	0.530654	0.640059	0.475696
	H317	H	0.560424	0.650450	0.466305
	O318	O	0.476019	1.363954	1.557072
	H319	H	0.476041	1.337320	1.562031
	H320	H	0.475126	1.395363	1.575337
	O321	O	0.541297	0.394251	0.556304
	H322	H	0.552365	0.396333	0.551736
	H323	H	0.535745	0.381093	0.547533
	O324	O	-0.038093	0.824447	0.106663
	H325	H	-0.042165	0.820933	0.107751
	H326	H	-0.024903	0.816460	0.092346
	O327	O	0.674087	0.567550	0.498156
	H328	H	0.673332	0.555518	0.510642
	H329	H	0.680383	0.564595	0.498125
	O330	O	0.026282	-0.037184	0.938165
	H331	H	0.032727	-0.036812	0.920150
	H332	H	0.018334	-0.019026	0.943132
	O333	O	-0.486713	0.560288	0.586420
	H334	H	-0.488836	0.550515	0.586767
	H335	H	-0.502000	0.562908	0.599544
	O336	O	0.508830	0.283785	0.511693
	H337	H	0.500825	0.274498	0.503607
	H338	H	0.505325	0.279405	0.502508
	O339	O	0.925607	-0.002314	0.166896
	H340	H	0.922138	-0.012016	0.151520
	H341	H	0.914464	0.003214	0.176772
	O342	O	0.141817	-0.029156	0.022475
	H343	H	0.136141	-0.022725	0.024639
	H344	H	0.139264	-0.012296	0.018325
	O345	O	0.976625	-0.027930	1.173866
	H346	H	0.991080	-0.038474	1.168309
	H347	H	0.976353	-0.033577	1.176194
	O348	O	1.126555	0.910288	0.150648
	H349	H	1.127651	0.914245	0.132689
	H350	H	1.124042	0.915351	0.172706
	O351	O	0.395110	0.532991	0.356418
	H352	H	0.395873	0.533087	0.356236
	H353	H	0.394882	0.508729	0.369311
	O354	O	0.927374	-0.111709	1.113594
	H355	H	0.925151	-0.112597	1.119941
	H356	H	0.930869	-0.122931	1.106163
	O357	O	0.364438	0.544855	0.487451
	H358	H	0.371209	0.543720	0.491083
	H359	H	0.372217	0.537825	0.484256
	O360	O	0.563327	0.567781	0.629357
	H361	H	0.554739	0.579921	0.638865
	H362	H	0.568100	0.577617	0.641018
	O363	O	0.369040	1.277478	0.516068
	H364	H	0.364815	1.277577	0.523706
	H365	H	0.347285	1.262808	0.515331
	O366	O	1.113596	0.878628	-0.177639
	H367	H	1.127045	0.874489	-0.166914
	H368	H	1.104682	0.898835	-0.182300
	O369	O	-0.170141	1.087845	-0.072982
	H370	H	-0.171645	1.071098	-0.071630
	H371	H	-0.167615	1.081641	-0.076531
	O372	O	0.506351	0.417298	0.324703
	H373	H	0.508645	0.413208	0.333294
	H374	H	0.494960	0.393508	0.319654
	O375	O	0.368978	0.564955	0.493174
	H376	H	0.371692	0.563042	0.492614
	H377	H	0.366204	0.559437	0.484899
	O378	O	0.573246	0.353478	-0.463650
	H379	H	0.586417	0.342556	-0.466806
	H380	H	0.579421	0.354820	-0.462169
	O381	O	1.060097	0.102620	-0.074445
	H382	H	1.048073	0.104259	-0.071275
	H383	H	1.055385	0.106919	-0.057236
	O384	O	0.934350	0.939324	-0.078904
	H385	H	0.923717	0.936268	-0.071842
	H386	H	0.940475	0.945430	-0.081084
	O387	O	0.148945	0.006301	0.062870
	H388	H	0.158485	-0.002053	0.073158
	H389	H	0.152129	0.002061	0.074219
	O390	O	-0.142022	0.847717	-0.001494
	H391	H	-0.137237	0.849115	0.001695
	H392	H	-0.136146	0.836023	-0.013974
	O393	O	1.032463	1.016989	0.997837
	H394	H	1.033508	1.030758	1.000290
	H395	H	1.025179	1.023836	0.994678
	O396	O	0.639738	0.375098	0.408641
	H397	H	0.640940	0.388347	0.403540
	H398	H	0.628438	0.370866	0.409173
	O399	O	-0.158186	0.841378	0.935806
	H400	H	-0.162617	0.824552	0.932300
	H401	H	-0.149435	0.850708	0.931974
	O402	O	0.046807	0.875765	0.851468
	H403	H	0.068771	0.892137	0.844970
	H404	H	0.064142	0.862775	0.845128
	O405	O	0.995264	1.069837	-0.058385
	H406	H	0.987341	1.070392	-0.057912
	H407	H	0.991478	1.062158	-0.063391
	O408	O	0.935215	0.976355	0.059552
	H409	H	0.920961	0.977831	0.066330
	H410	H	0.937908	0.970111	0.063534
	O411	O	0.922989	0.153742	0.920315
	H412	H	0.908885	0.157768	0.920688
	H413	H	0.940231	0.151113	0.922178
	O414	O	0.627477	0.428415	0.549279
	H415	H	0.632306	0.423777	0.543978
	H416	H	0.632648	0.429839	0.550357
	O417	O	0.359288	0.382733	0.691286
	H418	H	0.368510	0.406768	0.701879
	H419	H	0.370669	0.390044	0.700817
