data_Molecule from HDF5

_cell_length_a		16.250030
_cell_length_b		16.350085
_cell_length_c		16.263263
_cell_angle_alpha	90.047958
_cell_angle_beta	89.846462
_cell_angle_gamma	90.141005
_symmetry_space_group_name_H-M	'P 1'
_symmetry_Int_Tables_number		1

loop_
	_symmetry_equiv_pos_as_xyz
	x,y,z

loop_
	_atom_site_label
	_atom_site_type_symbol
	_atom_site_fract_x
	_atom_site_fract_y
	_atom_site_fract_z
	H0	H	0.399206	0.835087	0.712439
	H1	H	0.601845	0.158502	0.711107
	H2	H	0.601927	0.835290	0.277677
	H3	H	0.398379	0.158287	0.277941
	H4	H	0.716599	0.397107	0.832058
	H5	H	0.716918	0.598197	0.157646
	H6	H	0.285188	0.596294	0.831820
	H7	H	0.283422	0.395228	0.157843
	H8	H	0.837344	0.713140	0.393291
	H9	H	0.162903	0.713199	0.595314
	H10	H	0.838438	0.278461	0.598103
	H11	H	0.162475	0.278506	0.390278
	H12	H	0.837808	0.394424	0.712851
	H13	H	0.163367	0.597560	0.711218
	H14	H	0.837495	0.596562	0.278357
	H15	H	0.164050	0.398352	0.278973
	H16	H	0.398948	0.714978	0.833602
	H17	H	0.603263	0.714939	0.157558
	H18	H	0.604297	0.278750	0.833404
	H19	H	0.396865	0.278046	0.156722
	H20	H	0.717575	0.835300	0.394395
	H21	H	0.716966	0.158781	0.596087
	H22	H	0.282577	0.835336	0.595993
	H23	H	0.283119	0.157877	0.393060
	H24	H	0.899762	0.335346	0.211223
	H25	H	0.101930	0.659528	0.210358
	H26	H	0.102038	0.334901	0.775583
	H27	H	0.899988	0.658393	0.778988
	H28	H	0.218369	0.894897	0.333224
	H29	H	0.215282	0.098005	0.658015
	H30	H	0.785273	0.096902	0.333069
	H31	H	0.784918	0.897382	0.658453
	H32	H	0.338708	0.213423	0.894259
	H33	H	0.663366	0.213738	0.095728
	H34	H	0.338498	0.779284	0.097119
	H35	H	0.663669	0.779970	0.891938
	H36	H	0.337967	0.895798	0.212287
	H37	H	0.663417	0.097585	0.210757
	H38	H	0.337518	0.095830	0.780600
	H39	H	0.664729	0.897703	0.778372
	H40	H	0.898245	0.214889	0.333566
	H41	H	0.103012	0.216381	0.656132
	H42	H	0.101724	0.780156	0.332086
	H43	H	0.897376	0.779712	0.657949
	H44	H	0.218776	0.334534	0.891096
	H45	H	0.218072	0.658247	0.095194
	H46	H	0.783022	0.334993	0.096584
	H47	H	0.784548	0.658355	0.894270
	H48	H	0.410559	0.111151	0.588233
	H49	H	0.597804	0.877249	0.592946
	H50	H	0.598538	0.114813	0.402259
	H51	H	0.411355	0.882945	0.404329
	H52	H	0.592497	0.401785	0.111860
	H53	H	0.582806	0.596299	0.880351
	H54	H	0.410895	0.586635	0.110195
	H55	H	0.413970	0.404462	0.880770
	H56	H	0.119917	0.594637	0.396993
	H57	H	0.880458	0.590904	0.597243
	H58	H	0.118208	0.406624	0.592399
	H59	H	0.882879	0.404423	0.400303
	H60	H	0.115223	0.400120	0.577614
	H61	H	0.883514	0.595894	0.580163
	H62	H	0.114722	0.592282	0.411148
	H63	H	0.884527	0.402889	0.406777
	H64	H	0.409952	0.588181	0.110503
	H65	H	0.603032	0.593910	0.874222
	H66	H	0.593748	0.406881	0.111126
	H67	H	0.408881	0.402034	0.878540
	H68	H	0.589168	0.112573	0.398829
	H69	H	0.584193	0.881797	0.589044
	H70	H	0.407653	0.111741	0.584482
	H71	H	0.408874	0.882216	0.405869
	H72	H	0.899944	0.613276	0.079339
	H73	H	0.090608	0.381497	0.089337
	H74	H	0.092654	0.611652	0.902151
	H75	H	0.903439	0.378865	0.900938
	H76	H	0.082534	0.905085	0.608388
	H77	H	0.081473	0.088121	0.382425
	H78	H	0.906143	0.087989	0.612518
	H79	H	0.909640	0.905842	0.380797
	H80	H	0.621290	0.094883	0.896129
	H81	H	0.388998	0.083010	0.076361
	H82	H	0.616637	0.901413	0.079691
	H83	H	0.387539	0.906565	0.910295
	H84	H	0.614515	0.912931	0.085881
	H85	H	0.383571	0.081193	0.097494
	H86	H	0.615563	0.091959	0.912932
	H87	H	0.385256	0.908918	0.899388
	H88	H	0.912033	0.087783	0.610288
	H89	H	0.096190	0.095812	0.375046
	H90	H	0.093396	0.898699	0.613818
	H91	H	0.909916	0.903319	0.379289
	H92	H	0.090963	0.609951	0.904598
	H93	H	0.090821	0.382595	0.084227
	H94	H	0.908700	0.615649	0.097200
	H95	H	0.914054	0.382759	0.900594
	H96	H	0.406588	0.114181	0.588673
	H97	H	0.595623	0.882985	0.578821
	H98	H	0.592287	0.110013	0.408431
	H99	H	0.409247	0.881165	0.403271
	H100	H	0.588628	0.405162	0.110872
	H101	H	0.592140	0.577338	0.882842
	H102	H	0.408338	0.586749	0.110448
	H103	H	0.409296	0.408077	0.879551
	H104	H	0.114624	0.581028	0.400877
	H105	H	0.887130	0.579207	0.585315
	H106	H	0.111922	0.415520	0.580789
	H107	H	0.886507	0.408487	0.404132
	H108	H	0.919181	0.606561	0.081989
	H109	H	0.094494	0.380386	0.086758
	H110	H	0.093782	0.610753	0.904890
	H111	H	0.908003	0.382200	0.909892
	H112	H	0.094673	0.911907	0.609807
	H113	H	0.096112	0.078689	0.379675
	H114	H	0.909626	0.092738	0.613064
	H115	H	0.907878	0.904623	0.379261
	H116	H	0.614358	0.078793	0.900733
	H117	H	0.381007	0.099888	0.086975
	H118	H	0.619256	0.902058	0.092898
	H119	H	0.383533	0.899182	0.903657
	C120	C	0.377998	0.005408	0.617217
	C121	C	0.622202	0.987993	0.616313
	C122	C	0.622818	0.005552	0.373384
	C123	C	0.379222	0.988479	0.374089
	C124	C	0.622111	0.375298	0.003659
	C125	C	0.622404	0.618567	0.986748
	C126	C	0.379482	0.617573	0.003454
	C127	C	0.379222	0.374809	0.986683
	C128	C	0.008875	0.618732	0.373038
	C129	C	0.991687	0.618434	0.617106
	C130	C	0.008271	0.376321	0.615328
	C131	C	0.992098	0.375361	0.372868
	C132	C	0.879019	0.505355	0.116372
	C133	C	0.122276	0.488425	0.116316
	C134	C	0.122500	0.504443	0.872760
	C135	C	0.878651	0.487930	0.873740
	C136	C	0.121206	0.874959	0.503533
	C137	C	0.121525	0.118467	0.486236
	C138	C	0.879255	0.118751	0.504247
	C139	C	0.878404	0.874645	0.486768
	C140	C	0.509512	0.118140	0.873998
	C141	C	0.491806	0.118392	0.116802
	C142	C	0.509385	0.875202	0.116662
	C143	C	0.492935	0.875069	0.873264
	C144	C	0.379409	0.883655	0.673931
	C145	C	0.621310	0.110280	0.672656
	C146	C	0.621643	0.883696	0.316231
	C147	C	0.379092	0.109775	0.316363
	C148	C	0.678587	0.377030	0.881087
	C149	C	0.679152	0.618019	0.108871
	C150	C	0.323005	0.616625	0.880773
	C151	C	0.321889	0.375717	0.109016
	C152	C	0.886200	0.674863	0.373872
	C153	C	0.114200	0.674803	0.615457
	C154	C	0.886662	0.317995	0.616553
	C155	C	0.114003	0.317755	0.371860
	C156	C	0.886462	0.375662	0.673766
	C157	C	0.114285	0.617228	0.673217
	C158	C	0.886281	0.617212	0.316239
	C159	C	0.114759	0.377254	0.316398
	C160	C	0.379471	0.675813	0.881688
	C161	C	0.622387	0.675900	0.108894
	C162	C	0.622691	0.318014	0.881679
	C163	C	0.378566	0.317512	0.108556
	C164	C	0.679582	0.883866	0.373985
	C165	C	0.678635	0.110338	0.615310
	C166	C	0.321277	0.883608	0.616165
	C167	C	0.321553	0.109604	0.373778
	C168	C	0.879753	0.383715	0.173326
	C169	C	0.121870	0.610467	0.172639
	C170	C	0.121866	0.383024	0.814643
	C171	C	0.879854	0.609754	0.817302
	C172	C	0.179092	0.875540	0.381575
	C173	C	0.177928	0.117933	0.608651
	C174	C	0.823046	0.117155	0.381878
	C175	C	0.822191	0.876598	0.609424
	C176	C	0.387186	0.174823	0.874767
	C177	C	0.614517	0.175318	0.115685
	C178	C	0.387158	0.817671	0.116845
	C179	C	0.615166	0.818627	0.873281
	C180	C	0.386991	0.875844	0.173929
	C181	C	0.614561	0.117475	0.172911
	C182	C	0.386739	0.116281	0.818131
	C183	C	0.615563	0.877182	0.816536
	C184	C	0.879424	0.175717	0.381889
	C185	C	0.121909	0.176809	0.607934
	C186	C	0.121317	0.818038	0.381198
	C187	C	0.878189	0.817817	0.609128
	C188	C	0.179925	0.382888	0.872247
	C189	C	0.179490	0.610118	0.115129
	C190	C	0.821855	0.383525	0.115959
	C191	C	0.822546	0.610000	0.874729
	C192	C	0.401428	0.090402	0.593938
	C193	C	0.599193	0.902843	0.593555
	C194	C	0.599977	0.090348	0.396473
	C195	C	0.402943	0.903974	0.397634
	C196	C	0.598391	0.397932	0.089049
	C197	C	0.599328	0.595851	0.901234
	C198	C	0.402870	0.594126	0.088380
	C199	C	0.403617	0.398114	0.901790
	C200	C	0.094210	0.596018	0.396157
	C201	C	0.905891	0.595384	0.594225
	C202	C	0.093149	0.400446	0.590722
	C203	C	0.906798	0.398582	0.396809
	C204	C	0.902365	0.589851	0.092823
	C205	C	0.098846	0.403455	0.093443
	C206	C	0.099243	0.588955	0.896667
	C207	C	0.901758	0.403128	0.897153
	C208	C	0.097069	0.898401	0.588641
	C209	C	0.098094	0.094573	0.401212
	C210	C	0.902676	0.096223	0.589675
	C211	C	0.902196	0.897806	0.401645
	C212	C	0.594994	0.095474	0.896804
	C213	C	0.406535	0.094883	0.093663
	C214	C	0.594798	0.898636	0.093020
	C215	C	0.407588	0.897941	0.897313
	Zn216	Zn	0.501492	-0.002948	0.744939
	Zn217	Zn	0.500389	-0.002888	0.245130
	Zn218	Zn	0.750352	0.497179	-0.004940
	Zn219	Zn	0.251054	0.495859	-0.005336
	Zn220	Zn	-0.000608	0.746328	0.495239
	Zn221	Zn	0.000560	0.247400	0.494531
	Zn222	Zn	-0.000220	0.496278	0.744894
	Zn223	Zn	0.000654	0.496980	0.244932
	Zn224	Zn	0.501086	0.746661	-0.004596
	Zn225	Zn	0.500973	0.246606	-0.004883
	Zn226	Zn	0.751121	-0.002892	0.495707
	Zn227	Zn	0.249566	-0.002979	0.494927
	N228	N	0.413836	0.960639	0.674798
	N229	N	0.587129	0.033185	0.673558
	N230	N	0.587237	0.960373	0.315592
	N231	N	0.414355	0.033525	0.316592
	N232	N	0.678335	0.411985	0.957910
	N233	N	0.679168	0.583102	0.031952
	N234	N	0.322732	0.581506	0.957529
	N235	N	0.322269	0.410753	0.032157
	N236	N	0.963436	0.675976	0.408384
	N237	N	0.036821	0.675537	0.581234
	N238	N	0.963494	0.318306	0.580804
	N239	N	0.036512	0.316598	0.406339
	N240	N	0.963108	0.411436	0.672890
	N241	N	0.036856	0.583049	0.674331
	N242	N	0.963542	0.583137	0.315601
	N243	N	0.037885	0.412185	0.316817
	N244	N	0.414065	0.676420	0.958753
	N245	N	0.587783	0.676489	0.031863
	N246	N	0.588087	0.316872	0.958943
	N247	N	0.413537	0.316857	0.031509
	N248	N	0.680445	0.960494	0.408733
	N249	N	0.679335	0.033504	0.580923
	N250	N	0.320394	0.960362	0.581766
	N251	N	0.321440	0.033110	0.409011
	N252	N	0.914702	0.460343	0.173706
	N253	N	0.086996	0.533780	0.173432
	N254	N	0.086657	0.459436	0.815047
	N255	N	0.913936	0.533029	0.816576
	N256	N	0.179162	0.910013	0.458660
	N257	N	0.177734	0.082379	0.531969
	N258	N	0.822912	0.082451	0.458834
	N259	N	0.822033	0.910999	0.532277
	N260	N	0.464557	0.176078	0.908808
	N261	N	0.537083	0.176062	0.081643
	N262	N	0.464376	0.817143	0.082122
	N263	N	0.537804	0.817144	0.907775
	N264	N	0.464144	0.910770	0.174070
	N265	N	0.537403	0.082753	0.173662
	N266	N	0.463763	0.081807	0.817494
	N267	N	0.538387	0.911395	0.816240
	N268	N	0.913494	0.176784	0.459106
	N269	N	0.087414	0.177327	0.530760
	N270	N	0.085698	0.817783	0.457978
	N271	N	0.912731	0.816545	0.531790
	N272	N	0.180424	0.459328	0.907620
	N273	N	0.180074	0.533139	0.080969
	N274	N	0.821068	0.460215	0.081443
	N275	N	0.821601	0.533099	0.909008
	O276	O	-0.074858	0.125288	-0.004800
	H277	H	-0.079374	0.110745	-0.013121
	H278	H	-0.057140	0.137588	-0.004575
	O279	O	0.382672	0.492382	0.565456
	H280	H	0.388638	0.519810	0.564484
	H281	H	0.367763	0.495623	0.576394
	O282	O	1.119433	0.063811	0.075646
	H283	H	1.107547	0.071052	0.054557
	H284	H	1.126641	0.070873	0.078640
	O285	O	-0.009813	0.957687	-0.127332
	H286	H	-0.013359	0.957093	-0.123134
	H287	H	-0.013269	0.952655	-0.125059
	O288	O	0.522329	0.496485	0.499569
	H289	H	0.518259	0.494224	0.499523
	H290	H	0.527128	0.498307	0.500860
	O291	O	0.645136	0.577006	0.514166
	H292	H	0.641229	0.580180	0.511008
	H293	H	0.649532	0.580671	0.503110
	O294	O	1.026917	0.998747	0.889461
	H295	H	1.021604	0.996278	0.900998
	H296	H	1.022619	1.004691	0.897018
	O297	O	0.016620	0.119526	-0.131668
	H298	H	0.000103	0.125534	-0.130243
	H299	H	0.005459	0.110071	-0.130131
	O300	O	0.505578	0.523913	0.603156
	H301	H	0.501295	0.533067	0.597383
	H302	H	0.512237	0.517003	0.610538
	O303	O	-0.038155	0.934550	1.055902
	H304	H	-0.050133	0.935130	1.053680
	H305	H	-0.042818	0.936831	1.066420
	O306	O	0.358864	0.544560	0.470755
	H307	H	0.357454	0.540353	0.468887
	H308	H	0.361161	0.544906	0.456268
	O309	O	0.931771	-0.095529	-0.060386
	H310	H	0.942861	-0.099827	-0.056897
	H311	H	0.930465	-0.112128	-0.058930
	O312	O	0.014172	0.083831	1.015931
	H313	H	0.010803	0.082253	1.001750
	H314	H	0.021066	0.079703	1.003736
	O315	O	0.491912	0.509320	0.484699
	H316	H	0.491889	0.504910	0.491985
	H317	H	0.499280	0.515456	0.476449
	O318	O	0.588799	0.353379	0.541480
	H319	H	0.578438	0.366513	0.530261
	H320	H	0.578891	0.338927	0.560204
	O321	O	0.590853	0.427045	0.527680
	H322	H	0.599760	0.434998	0.532004
	H323	H	0.587925	0.433129	0.538552
	O324	O	0.578019	0.393266	0.404187
	H325	H	0.583471	0.390840	0.395704
	H326	H	0.593725	0.385217	0.406212
	O327	O	0.053207	0.982273	0.931990
	H328	H	0.053187	0.976408	0.928345
	H329	H	0.054389	0.973242	0.929482
	O330	O	0.397624	0.401171	0.576709
	H331	H	0.386916	0.405094	0.579538
	H332	H	0.407089	0.402134	0.575108
	O333	O	0.010969	0.978083	0.939006
	H334	H	0.016621	0.979648	0.942851
	H335	H	0.009954	0.987850	0.938071
	O336	O	0.921025	0.976956	1.133625
	H337	H	0.933258	0.975787	1.134849
	H338	H	0.918738	0.966595	1.135682
	O339	O	0.621472	0.395482	0.366916
	H340	H	0.629826	0.392620	0.362073
	H341	H	0.621626	0.388131	0.369518
	O342	O	1.097784	0.039855	0.047139
	H343	H	1.092532	0.048810	0.041790
	H344	H	1.090392	0.044180	0.039819
	O345	O	0.646136	0.407493	0.544384
	H346	H	0.637182	0.403702	0.551127
	H347	H	0.651821	0.403232	0.549623
	O348	O	0.929376	1.079442	1.028669
	H349	H	0.926146	1.086016	1.036362
	H350	H	0.920344	1.067384	1.025648
	O351	O	0.883412	0.847640	0.090120
	H352	H	0.889694	0.836553	0.080517
	H353	H	0.887586	0.854753	0.095913
	O354	O	0.426371	0.521070	0.645004
	H355	H	0.431458	0.514250	0.636327
	H356	H	0.428965	0.533121	0.651039
	O357	O	0.563304	0.617470	0.542253
	H358	H	0.561013	0.618594	0.544420
	H359	H	0.573905	0.623937	0.538530
	O360	O	0.034891	0.179707	0.045812
	H361	H	0.040936	0.178391	0.033143
	H362	H	0.039343	0.183504	0.054576
	O363	O	0.543168	0.583035	0.440620
	H364	H	0.550651	0.566182	0.434466
	H365	H	0.541873	0.592622	0.431751
	O366	O	0.473582	0.511329	0.460790
	H367	H	0.482610	0.501700	0.447394
	H368	H	0.473686	0.510008	0.461407
	O369	O	0.351652	0.450115	0.456472
	H370	H	0.351246	0.440610	0.452208
	H371	H	0.352831	0.444294	0.461632
	O372	O	0.205470	0.768059	0.815822
	H373	H	0.218656	0.757398	0.799553
	H374	H	0.215442	0.780849	0.831889
	O375	O	0.383462	0.629152	0.342485
	H376	H	0.391948	0.639549	0.330539
	H377	H	0.362673	0.619115	0.343629
	O378	O	0.426962	0.428011	0.566770
	H379	H	0.432527	0.433207	0.565289
	H380	H	0.429984	0.427297	0.564183
	O381	O	0.542996	0.638389	0.633752
	H382	H	0.539128	0.649337	0.624865
	H383	H	0.553751	0.640577	0.633477
	O384	O	-0.067663	0.947847	0.032399
	H385	H	-0.063382	0.946832	0.026721
	H386	H	-0.076754	0.949999	0.035827
	O387	O	0.908890	-0.035128	1.108875
	H388	H	0.918814	-0.032443	1.113911
	H389	H	0.902000	-0.031595	1.108130
	O390	O	0.046653	0.913969	0.010221
	H391	H	0.035724	0.917353	0.012989
	H392	H	0.056805	0.919442	0.015391
	O393	O	1.126688	0.989046	0.152829
	H394	H	1.132417	0.994971	0.155219
	H395	H	1.125418	0.997710	0.159441
	O396	O	0.459085	0.351834	0.403992
	H397	H	0.456594	0.351786	0.401056
	H398	H	0.460415	0.346639	0.413535
	O399	O	0.045514	0.803815	0.810315
	H400	H	0.065487	0.800715	0.792965
	H401	H	0.065465	0.799447	0.804679
	O402	O	1.020212	1.055182	1.035299
	H403	H	1.020771	1.051387	1.044302
	H404	H	1.021301	1.041139	1.033216
	O405	O	0.461837	0.589484	0.370256
	H406	H	0.456484	0.582315	0.381113
	H407	H	0.458012	0.581555	0.373389
