data_Molecule from HDF5

_cell_length_a		16.411181
_cell_length_b		16.235658
_cell_length_c		16.058196
_cell_angle_alpha	89.813259
_cell_angle_beta	90.185767
_cell_angle_gamma	90.763042
_symmetry_space_group_name_H-M	'P 1'
_symmetry_Int_Tables_number		1

loop_
	_symmetry_equiv_pos_as_xyz
	x,y,z

loop_
	_atom_site_label
	_atom_site_type_symbol
	_atom_site_fract_x
	_atom_site_fract_y
	_atom_site_fract_z
	H0	H	0.405727	0.842199	0.701158
	H1	H	0.603589	0.172153	0.699088
	H2	H	0.597701	0.841965	0.277796
	H3	H	0.411912	0.172250	0.276519
	H4	H	0.718471	0.408753	0.824279
	H5	H	0.726455	0.609774	0.153748
	H6	H	0.291942	0.606111	0.825033
	H7	H	0.289633	0.400879	0.153905
	H8	H	0.842678	0.720247	0.388110
	H9	H	0.168107	0.725097	0.589574
	H10	H	0.844597	0.286275	0.591699
	H11	H	0.168719	0.293366	0.391145
	H12	H	0.842568	0.406677	0.702597
	H13	H	0.169524	0.606050	0.703573
	H14	H	0.843364	0.601205	0.272841
	H15	H	0.169373	0.410762	0.276929
	H16	H	0.410972	0.718232	0.823995
	H17	H	0.606643	0.720331	0.156596
	H18	H	0.603235	0.296473	0.824198
	H19	H	0.408515	0.292041	0.155170
	H20	H	0.720562	0.843960	0.386035
	H21	H	0.726859	0.168638	0.592047
	H22	H	0.286025	0.845309	0.590741
	H23	H	0.291879	0.170998	0.386065
	H24	H	0.908308	0.340605	0.201905
	H25	H	0.106437	0.669937	0.201986
	H26	H	0.098046	0.340221	0.779180
	H27	H	0.912798	0.670878	0.776490
	H28	H	0.217537	0.909452	0.323215
	H29	H	0.224313	0.110000	0.653334
	H30	H	0.792329	0.106277	0.324542
	H31	H	0.790459	0.903896	0.654429
	H32	H	0.343838	0.221602	0.887968
	H33	H	0.668200	0.225227	0.089811
	H34	H	0.345072	0.786953	0.091260
	H35	H	0.669915	0.795285	0.891314
	H36	H	0.342986	0.906993	0.202137
	H37	H	0.668473	0.107824	0.205370
	H38	H	0.342652	0.102173	0.774013
	H39	H	0.669615	0.912802	0.775576
	H40	H	0.909001	0.219835	0.324344
	H41	H	0.105331	0.219802	0.655415
	H42	H	0.101781	0.796075	0.323223
	H43	H	0.908721	0.793271	0.655651
	H44	H	0.219781	0.342436	0.888019
	H45	H	0.226406	0.667616	0.092333
	H46	H	0.784814	0.344108	0.093610
	H47	H	0.793077	0.670329	0.887242
	H48	H	0.412094	0.125127	0.579175
	H49	H	0.594946	0.890429	0.580879
	H50	H	0.602750	0.124284	0.398758
	H51	H	0.409741	0.892464	0.403563
	H52	H	0.601659	0.414015	0.109534
	H53	H	0.598731	0.602076	0.872618
	H54	H	0.413640	0.600826	0.109976
	H55	H	0.420449	0.409835	0.871995
	H56	H	0.123966	0.612856	0.397336
	H57	H	0.892737	0.593758	0.579743
	H58	H	0.123090	0.409365	0.584546
	H59	H	0.890954	0.411560	0.395590
	H60	H	0.120128	0.415043	0.578514
	H61	H	0.888824	0.598547	0.589009
	H62	H	0.117510	0.598476	0.404328
	H63	H	0.890705	0.410042	0.397829
	H64	H	0.412341	0.591982	0.106947
	H65	H	0.602734	0.602111	0.871012
	H66	H	0.598463	0.423006	0.107057
	H67	H	0.402843	0.410285	0.867511
	H68	H	0.601547	0.124558	0.396994
	H69	H	0.599209	0.889677	0.577916
	H70	H	0.414045	0.125147	0.581298
	H71	H	0.402904	0.887700	0.394819
	H72	H	0.907183	0.623763	0.074573
	H73	H	0.095406	0.388737	0.082754
	H74	H	0.108650	0.623952	0.899000
	H75	H	0.906486	0.386454	0.894143
	H76	H	0.101281	0.908345	0.610310
	H77	H	0.092016	0.098895	0.374208
	H78	H	0.921473	0.089358	0.604005
	H79	H	0.909567	0.907448	0.368415
	H80	H	0.620943	0.102776	0.895760
	H81	H	0.390138	0.098855	0.082773
	H82	H	0.624425	0.908315	0.086620
	H83	H	0.391228	0.915731	0.892048
	H84	H	0.619814	0.915166	0.075082
	H85	H	0.390801	0.100927	0.080969
	H86	H	0.622122	0.104018	0.894203
	H87	H	0.388318	0.904890	0.893145
	H88	H	0.917740	0.105205	0.610067
	H89	H	0.102071	0.108614	0.367269
	H90	H	0.103921	0.923277	0.607109
	H91	H	0.906087	0.919028	0.370798
	H92	H	0.099825	0.624758	0.891251
	H93	H	0.101245	0.389246	0.078650
	H94	H	0.917581	0.625181	0.090183
	H95	H	0.913529	0.389590	0.896784
	H96	H	0.415187	0.123722	0.578343
	H97	H	0.598844	0.888957	0.582839
	H98	H	0.600475	0.122827	0.398833
	H99	H	0.413662	0.889989	0.392920
	H100	H	0.592633	0.415233	0.106486
	H101	H	0.600645	0.598928	0.872011
	H102	H	0.420390	0.595838	0.106821
	H103	H	0.411257	0.425145	0.874466
	H104	H	0.122897	0.598866	0.387506
	H105	H	0.889454	0.604388	0.579718
	H106	H	0.122295	0.418053	0.587686
	H107	H	0.891522	0.412713	0.398311
	H108	H	0.924500	0.618106	0.074077
	H109	H	0.101962	0.385468	0.086042
	H110	H	0.098461	0.620470	0.902480
	H111	H	0.906898	0.390574	0.901527
	H112	H	0.089182	0.916610	0.604406
	H113	H	0.105803	0.094076	0.370697
	H114	H	0.906959	0.092510	0.609846
	H115	H	0.917487	0.915638	0.373159
	H116	H	0.622080	0.105033	0.896951
	H117	H	0.391255	0.098475	0.080151
	H118	H	0.621703	0.922450	0.087842
	H119	H	0.392570	0.910880	0.902706
	C120	C	0.383631	0.016234	0.609494
	C121	C	0.627684	0.997822	0.609999
	C122	C	0.627802	0.015467	0.368002
	C123	C	0.382780	0.998817	0.367550
	C124	C	0.625878	0.388466	-0.001611
	C125	C	0.629924	0.629948	0.981080
	C126	C	0.386884	0.625734	-0.001469
	C127	C	0.383737	0.384758	0.980684
	C128	C	0.014198	0.629936	0.366735
	C129	C	0.997633	0.628624	0.611366
	C130	C	0.014287	0.384220	0.612231
	C131	C	0.998146	0.384416	0.368445
	C132	C	0.885513	0.514252	0.109799
	C133	C	0.129539	0.496133	0.111808
	C134	C	0.128298	0.514393	0.868687
	C135	C	0.883327	0.497529	0.867706
	C136	C	0.125753	0.887758	0.497627
	C137	C	0.128759	0.129409	0.480228
	C138	C	0.886655	0.126017	0.498461
	C139	C	0.882959	0.884286	0.480594
	C140	C	0.514181	0.130373	0.866256
	C141	C	0.497800	0.129418	0.111055
	C142	C	0.514751	0.884876	0.111975
	C143	C	0.498417	0.884413	0.867342
	C144	C	0.385255	0.892403	0.664811
	C145	C	0.625587	0.122207	0.663619
	C146	C	0.620984	0.891428	0.313669
	C147	C	0.389398	0.122766	0.313018
	C148	C	0.680588	0.389574	0.873802
	C149	C	0.686984	0.628828	0.105084
	C150	C	0.330594	0.625243	0.874337
	C151	C	0.328139	0.383451	0.104826
	C152	C	0.891531	0.683251	0.367694
	C153	C	0.119588	0.686320	0.609746
	C154	C	0.892582	0.326046	0.610787
	C155	C	0.120229	0.330474	0.370752
	C156	C	0.891518	0.386144	0.666015
	C157	C	0.120496	0.626790	0.666194
	C158	C	0.891990	0.624364	0.310127
	C159	C	0.120738	0.389175	0.313987
	C160	C	0.389721	0.681155	0.873696
	C161	C	0.627524	0.683717	0.106440
	C162	C	0.623124	0.333814	0.873599
	C163	C	0.387250	0.329029	0.105419
	C164	C	0.681983	0.892429	0.367725
	C165	C	0.686727	0.120339	0.610004
	C166	C	0.325827	0.893505	0.609451
	C167	C	0.329584	0.122176	0.367490
	C168	C	0.887042	0.390288	0.165091
	C169	C	0.127569	0.620261	0.165827
	C170	C	0.121391	0.389877	0.815045
	C171	C	0.890046	0.621603	0.812899
	C172	C	0.180074	0.889678	0.372852
	C173	C	0.185431	0.128792	0.604330
	C174	C	0.830884	0.125454	0.373806
	C175	C	0.827848	0.884460	0.604792
	C176	C	0.392207	0.183814	0.868159
	C177	C	0.619830	0.186516	0.110051
	C178	C	0.393248	0.826611	0.110248
	C179	C	0.621094	0.831992	0.870314
	C180	C	0.392063	0.886481	0.165349
	C181	C	0.619948	0.127759	0.167115
	C182	C	0.391390	0.124467	0.811652
	C183	C	0.620848	0.890468	0.812629
	C184	C	0.889052	0.181654	0.373715
	C185	C	0.126277	0.183331	0.605494
	C186	C	0.122336	0.833334	0.372596
	C187	C	0.886870	0.829583	0.605572
	C188	C	0.181587	0.390962	0.869644
	C189	C	0.187014	0.619148	0.111130
	C190	C	0.825950	0.392040	0.110998
	C191	C	0.830762	0.621152	0.868262
	C192	C	0.406856	0.102385	0.586316
	C193	C	0.604181	0.911995	0.587430
	C194	C	0.607491	0.101528	0.391409
	C195	C	0.402695	0.912432	0.390359
	C196	C	0.604083	0.410911	0.085285
	C197	C	0.607446	0.607715	0.894432
	C198	C	0.408874	0.602848	0.085367
	C199	C	0.405209	0.408204	0.893726
	C200	C	0.099228	0.609630	0.389820
	C201	C	0.912568	0.605575	0.589279
	C202	C	0.099664	0.407273	0.590082
	C203	C	0.913011	0.405177	0.390641
	C204	C	0.909385	0.600157	0.086468
	C205	C	0.106279	0.410097	0.089303
	C206	C	0.108395	0.600762	0.891043
	C207	C	0.903153	0.411081	0.890759
	C208	C	0.104468	0.909599	0.584722
	C209	C	0.106551	0.107163	0.393255
	C210	C	0.908724	0.102577	0.585485
	C211	C	0.904653	0.907345	0.393336
	C212	C	0.599467	0.109991	0.888743
	C213	C	0.412628	0.106302	0.087949
	C214	C	0.600012	0.908363	0.089675
	C215	C	0.412779	0.904486	0.889447
	Zn216	Zn	0.505639	0.007085	0.737627
	Zn217	Zn	0.505245	0.007231	0.240277
	Zn218	Zn	0.755428	0.506986	-0.010829
	Zn219	Zn	0.256638	0.504995	-0.009928
	Zn220	Zn	0.005272	0.758843	0.489435
	Zn221	Zn	0.006709	0.254837	0.490223
	Zn222	Zn	0.006361	0.505737	0.740896
	Zn223	Zn	0.006939	0.505414	0.238019
	Zn224	Zn	0.507577	0.755564	-0.009570
	Zn225	Zn	0.506090	0.259285	-0.010913
	Zn226	Zn	0.757006	0.005927	0.489310
	Zn227	Zn	0.255101	0.008188	0.488368
	N228	N	0.420855	0.969868	0.664785
	N229	N	0.589372	0.045319	0.663668
	N230	N	0.588071	0.969082	0.313759
	N231	N	0.421821	0.045134	0.312913
	N232	N	0.682309	0.423013	0.952530
	N233	N	0.688829	0.596145	0.026147
	N234	N	0.328250	0.591645	0.953211
	N235	N	0.325792	0.417494	0.026353
	N236	N	0.968465	0.686989	0.401956
	N237	N	0.042370	0.687410	0.576182
	N238	N	0.969993	0.324641	0.578190
	N239	N	0.043079	0.327514	0.403959
	N240	N	0.968238	0.421649	0.666980
	N241	N	0.043730	0.591710	0.667721
	N242	N	0.968988	0.591903	0.309314
	N243	N	0.043856	0.421859	0.312251
	N244	N	0.424135	0.681434	0.951668
	N245	N	0.592822	0.684503	0.028366
	N246	N	0.589618	0.332987	0.951933
	N247	N	0.421176	0.329594	0.027093
	N248	N	0.686332	0.970462	0.400630
	N249	N	0.688356	0.041984	0.577472
	N250	N	0.324546	0.971568	0.576140
	N251	N	0.325513	0.044026	0.400805
	N252	N	0.923374	0.467266	0.164352
	N253	N	0.092500	0.542751	0.166456
	N254	N	0.088777	0.467636	0.814470
	N255	N	0.922160	0.543729	0.812578
	N256	N	0.182040	0.923154	0.451447
	N257	N	0.187176	0.096201	0.525352
	N258	N	0.829260	0.091503	0.452487
	N259	N	0.825327	0.917601	0.525844
	N260	N	0.469476	0.187540	0.901551
	N261	N	0.542946	0.187290	0.075551
	N262	N	0.470688	0.825479	0.077745
	N263	N	0.543814	0.828010	0.903499
	N264	N	0.468619	0.921854	0.166729
	N265	N	0.543078	0.092919	0.167868
	N266	N	0.468346	0.092099	0.810113
	N267	N	0.543604	0.922410	0.810886
	N268	N	0.923017	0.181716	0.452115
	N269	N	0.091816	0.183956	0.527358
	N270	N	0.089193	0.831956	0.451254
	N271	N	0.920013	0.829050	0.526970
	N272	N	0.186047	0.469401	0.902025
	N273	N	0.188526	0.540984	0.078498
	N274	N	0.824844	0.470149	0.077281
	N275	N	0.826298	0.543025	0.901366
	O276	O	-0.022865	-0.067241	-0.018381
	H277	H	-0.016703	-0.066120	-0.019642
	H278	H	-0.028765	-0.058904	-0.019850
	O279	O	0.445685	0.506175	0.486327
	H280	H	0.438415	0.504494	0.490514
	H281	H	0.443162	0.495968	0.490900
	O282	O	0.461462	0.503636	0.467428
	H283	H	0.465445	0.494645	0.481347
	H284	H	0.459480	0.501065	0.463113
	O285	O	1.007980	0.028455	1.069379
	H286	H	1.007311	0.023581	1.070299
	H287	H	1.010434	0.033375	1.060735
	O288	O	0.979917	-0.023069	-0.007242
	H289	H	0.985300	-0.019627	-0.001514
	H290	H	0.982817	-0.032463	-0.006355
	O291	O	0.450821	0.514958	0.426335
	H292	H	0.452232	0.505948	0.420589
	H293	H	0.440380	0.515273	0.428466
	O294	O	0.962545	-0.028907	1.016204
	H295	H	0.956825	-0.032531	1.012017
	H296	H	0.960676	-0.035553	1.013169
	O297	O	0.045504	-0.011011	-0.065555
	H298	H	0.050450	-0.017547	-0.068361
	H299	H	0.038831	-0.012270	-0.068666
	O300	O	0.375518	0.485212	0.432889
	H301	H	0.366475	0.484197	0.422311
	H302	H	0.385788	0.492997	0.424872
	O303	O	0.532597	0.540399	0.482874
	H304	H	0.532645	0.536764	0.474639
	H305	H	0.538543	0.545891	0.477177
	O306	O	0.992783	-0.046672	0.051541
	H307	H	0.988156	-0.045469	0.050733
	H308	H	0.995012	-0.056453	0.060904
	O309	O	0.027028	-0.073740	1.062208
	H310	H	0.018910	-0.077240	1.058961
	H311	H	0.030741	-0.074220	1.069853
	O312	O	1.503829	0.602266	1.442542
	H313	H	1.515551	0.598028	1.441240
	H314	H	1.498903	0.607367	1.449515
	O315	O	0.504967	0.421793	0.511408
	H316	H	0.482567	0.417105	0.521878
	H317	H	0.514377	0.413446	0.496704
	O318	O	0.524805	0.528938	0.536678
	H319	H	0.526208	0.542405	0.533510
	H320	H	0.528629	0.530805	0.534586
	O321	O	-0.030476	0.949798	0.989162
	H322	H	-0.022192	0.960560	0.994314
	H323	H	-0.028576	0.947881	0.997512
	O324	O	0.517195	0.629446	0.470373
	H325	H	0.526333	0.638094	0.471448
	H326	H	0.518234	0.629258	0.470446
	O327	O	0.555820	0.567366	0.455892
	H328	H	0.558589	0.580870	0.455806
	H329	H	0.557855	0.566263	0.458446
	O330	O	0.608377	0.569580	0.468947
	H331	H	0.618250	0.573668	0.476466
	H332	H	0.601747	0.571922	0.475804
	O333	O	0.487306	0.541650	0.485788
	H334	H	0.485444	0.551999	0.498542
	H335	H	0.484312	0.542156	0.490315
	O336	O	0.521504	0.531806	0.568175
	H337	H	0.520921	0.524245	0.575403
	H338	H	0.525516	0.533469	0.558009
	O339	O	1.019688	0.936692	0.003130
	H340	H	1.014894	0.937692	0.003158
	H341	H	1.023798	0.934444	0.010397
	O342	O	0.419874	0.461314	0.483331
	H343	H	0.427698	0.469193	0.489248
	H344	H	0.414416	0.458543	0.482065
	O345	O	0.439724	0.399131	0.628046
	H346	H	0.432762	0.392476	0.633841
	H347	H	0.432215	0.389000	0.625465
	O348	O	-0.440144	0.435944	0.502992
	H349	H	-0.440785	0.427799	0.503470
	H350	H	-0.434506	0.444794	0.505412
	O351	O	-0.030931	0.976540	1.065466
	H352	H	-0.023888	0.979139	1.069386
	H353	H	-0.040180	0.974313	1.076126
	O354	O	0.483620	0.459729	0.568468
	H355	H	0.485921	0.468791	0.571085
	H356	H	0.486884	0.450385	0.572709
	O357	O	0.074322	0.958194	0.977652
	H358	H	0.071819	0.951961	0.987178
	H359	H	0.064707	0.953757	0.975242
