data_Molecule from HDF5

_cell_length_a		16.418724
_cell_length_b		16.426357
_cell_length_c		16.502706
_cell_angle_alpha	89.967232
_cell_angle_beta	89.944460
_cell_angle_gamma	89.855634
_symmetry_space_group_name_H-M	'P 1'
_symmetry_Int_Tables_number		1

loop_
	_symmetry_equiv_pos_as_xyz
	x,y,z

loop_
	_atom_site_label
	_atom_site_type_symbol
	_atom_site_fract_x
	_atom_site_fract_y
	_atom_site_fract_z
	H0	H	0.398171	0.826178	0.715796
	H1	H	0.610287	0.142436	0.718351
	H2	H	0.605022	0.824554	0.275773
	H3	H	0.395649	0.142924	0.273297
	H4	H	0.721130	0.378255	0.834512
	H5	H	0.720348	0.585200	0.151421
	H6	H	0.280259	0.589737	0.834930
	H7	H	0.280240	0.379884	0.152235
	H8	H	0.841715	0.701588	0.393254
	H9	H	0.162532	0.701368	0.596678
	H10	H	0.844449	0.262370	0.598938
	H11	H	0.160713	0.261637	0.387162
	H12	H	0.843855	0.377715	0.714290
	H13	H	0.161784	0.586250	0.714025
	H14	H	0.843222	0.588079	0.273731
	H15	H	0.159532	0.376667	0.269095
	H16	H	0.395550	0.706607	0.836297
	H17	H	0.603647	0.701696	0.152354
	H18	H	0.604516	0.263127	0.834911
	H19	H	0.397804	0.264961	0.153187
	H20	H	0.719205	0.823837	0.394192
	H21	H	0.723850	0.142898	0.599803
	H22	H	0.283138	0.824514	0.598669
	H23	H	0.278791	0.141587	0.388395
	H24	H	0.893792	0.326944	0.218870
	H25	H	0.105863	0.641291	0.214327
	H26	H	0.110442	0.325199	0.770437
	H27	H	0.898211	0.640793	0.773234
	H28	H	0.223998	0.878709	0.336684
	H29	H	0.224808	0.088393	0.651152
	H30	H	0.780415	0.089689	0.337390
	H31	H	0.781577	0.880004	0.652116
	H32	H	0.341381	0.204972	0.890612
	H33	H	0.659863	0.203872	0.097364
	H34	H	0.341927	0.762842	0.099760
	H35	H	0.659165	0.763845	0.891582
	H36	H	0.342895	0.879052	0.216050
	H37	H	0.660812	0.086826	0.212913
	H38	H	0.343583	0.092623	0.771247
	H39	H	0.658429	0.879021	0.773592
	H40	H	0.894525	0.207969	0.338415
	H41	H	0.110910	0.206080	0.650686
	H42	H	0.106011	0.764196	0.335454
	H43	H	0.899119	0.763972	0.652888
	H44	H	0.225290	0.324795	0.887042
	H45	H	0.220363	0.642290	0.096193
	H46	H	0.778970	0.325882	0.101004
	H47	H	0.780838	0.641038	0.889691
	H48	H	0.409466	0.096759	0.578513
	H49	H	0.594356	0.870934	0.583372
	H50	H	0.589416	0.096326	0.406698
	H51	H	0.409943	0.868194	0.399240
	H52	H	0.597136	0.397172	0.106851
	H53	H	0.595790	0.574790	0.878201
	H54	H	0.405802	0.569832	0.106595
	H55	H	0.415971	0.386533	0.879820
	H56	H	0.118429	0.574578	0.395936
	H57	H	0.886766	0.574763	0.589500
	H58	H	0.115527	0.399131	0.585740
	H59	H	0.893017	0.398006	0.411404
	H60	H	0.117765	0.390244	0.584066
	H61	H	0.888971	0.578043	0.580519
	H62	H	0.116497	0.579090	0.407364
	H63	H	0.890815	0.400264	0.402950
	H64	H	0.415466	0.570142	0.103774
	H65	H	0.588749	0.569312	0.881428
	H66	H	0.586006	0.397155	0.103045
	H67	H	0.403416	0.397455	0.879283
	H68	H	0.597034	0.099474	0.403246
	H69	H	0.589986	0.870588	0.588117
	H70	H	0.414236	0.098635	0.586172
	H71	H	0.419878	0.872469	0.403364
	H72	H	0.916766	0.595651	0.087249
	H73	H	0.096733	0.367753	0.081022
	H74	H	0.090090	0.595715	0.901847
	H75	H	0.908744	0.367355	0.904066
	H76	H	0.086961	0.895515	0.605535
	H77	H	0.091422	0.068710	0.381984
	H78	H	0.918602	0.071216	0.604051
	H79	H	0.904166	0.901021	0.380417
	H80	H	0.617192	0.081366	0.904116
	H81	H	0.387303	0.073025	0.085312
	H82	H	0.617523	0.885457	0.087777
	H83	H	0.387805	0.897651	0.905666
	H84	H	0.612238	0.892993	0.077527
	H85	H	0.386999	0.074002	0.085437
	H86	H	0.609598	0.070180	0.915174
	H87	H	0.387466	0.896677	0.904846
	H88	H	0.912758	0.075435	0.608606
	H89	H	0.087772	0.070468	0.383232
	H90	H	0.094061	0.884553	0.609933
	H91	H	0.922049	0.894051	0.383881
	H92	H	0.089821	0.596123	0.903795
	H93	H	0.084777	0.370676	0.088428
	H94	H	0.913765	0.593351	0.075936
	H95	H	0.917068	0.369077	0.900577
	H96	H	0.417806	0.093858	0.579736
	H97	H	0.588371	0.873614	0.582621
	H98	H	0.589168	0.099094	0.398425
	H99	H	0.410741	0.871760	0.410878
	H100	H	0.589724	0.387095	0.108615
	H101	H	0.587756	0.578096	0.879189
	H102	H	0.410496	0.578497	0.108097
	H103	H	0.418447	0.401222	0.885839
	H104	H	0.113507	0.567325	0.404509
	H105	H	0.890775	0.568699	0.583214
	H106	H	0.113966	0.395170	0.577272
	H107	H	0.888723	0.391890	0.405938
	H108	H	0.905733	0.599336	0.083501
	H109	H	0.085902	0.373962	0.074358
	H110	H	0.092321	0.596847	0.903004
	H111	H	0.914956	0.372036	0.909584
	H112	H	0.100556	0.896241	0.608775
	H113	H	0.090490	0.072295	0.381585
	H114	H	0.911515	0.067725	0.606057
	H115	H	0.908128	0.882762	0.376103
	H116	H	0.613296	0.064719	0.899556
	H117	H	0.387149	0.074129	0.084402
	H118	H	0.614496	0.898373	0.089704
	H119	H	0.387372	0.895988	0.906429
	C120	C	0.381325	-0.007949	0.614474
	C121	C	0.623549	0.976184	0.616806
	C122	C	0.623247	-0.007201	0.372618
	C123	C	0.380507	0.975696	0.372675
	C124	C	0.622894	0.361586	0.002017
	C125	C	0.621994	0.604671	0.984651
	C126	C	0.378654	0.605524	0.001977
	C127	C	0.379852	0.362807	0.985769
	C128	C	0.010600	0.605204	0.372156
	C129	C	0.994178	0.604480	0.615614
	C130	C	0.011502	0.361661	0.615244
	C131	C	0.994389	0.362631	0.372325
	C132	C	0.879258	0.492034	0.115396
	C133	C	0.121231	0.475169	0.113369
	C134	C	0.124130	0.491587	0.870685
	C135	C	0.881279	0.474355	0.872836
	C136	C	0.124814	0.861119	0.503287
	C137	C	0.123416	0.103554	0.485716
	C138	C	0.881208	0.105277	0.502733
	C139	C	0.880511	0.861850	0.485404
	C140	C	0.509034	0.105539	0.873319
	C141	C	0.492569	0.105175	0.115771
	C142	C	0.509621	0.861290	0.116782
	C143	C	0.492166	0.863888	0.873774
	C144	C	0.379709	0.873289	0.675284
	C145	C	0.626997	0.095152	0.677258
	C146	C	0.623885	0.872398	0.315235
	C147	C	0.377734	0.095064	0.313177
	C148	C	0.681892	0.359795	0.882393
	C149	C	0.680729	0.604740	0.103992
	C150	C	0.319681	0.608036	0.882687
	C151	C	0.319729	0.360957	0.104725
	C152	C	0.890024	0.663063	0.373158
	C153	C	0.114488	0.662334	0.615978
	C154	C	0.892295	0.301778	0.617495
	C155	C	0.113096	0.301670	0.368715
	C156	C	0.891981	0.359334	0.675077
	C157	C	0.114189	0.604978	0.674298
	C158	C	0.890595	0.606635	0.313826
	C159	C	0.112451	0.359346	0.310375
	C160	C	0.376982	0.666298	0.883425
	C161	C	0.622647	0.662734	0.104448
	C162	C	0.623617	0.302503	0.882486
	C163	C	0.378629	0.303996	0.105372
	C164	C	0.680710	0.872191	0.374151
	C165	C	0.683739	0.095491	0.618305
	C166	C	0.322797	0.872346	0.616594
	C167	C	0.319528	0.094460	0.370620
	C168	C	0.875883	0.373932	0.177545
	C169	C	0.123996	0.594190	0.173915
	C170	C	0.127942	0.372543	0.810549
	C171	C	0.879425	0.593587	0.813136
	C172	C	0.184092	0.859946	0.383969
	C173	C	0.184704	0.106662	0.603847
	C174	C	0.820308	0.108346	0.384725
	C175	C	0.821471	0.861041	0.604693
	C176	C	0.389573	0.165625	0.871534
	C177	C	0.612328	0.164239	0.116620
	C178	C	0.389964	0.802517	0.118430
	C179	C	0.611702	0.804107	0.872758
	C180	C	0.390386	0.860195	0.176417
	C181	C	0.612907	0.106011	0.173746
	C182	C	0.390504	0.109478	0.812265
	C183	C	0.611435	0.861149	0.814050
	C184	C	0.877415	0.166849	0.385278
	C185	C	0.128021	0.165402	0.603587
	C186	C	0.125340	0.803149	0.383509
	C187	C	0.879851	0.803279	0.604946
	C188	C	0.185184	0.372556	0.868655
	C189	C	0.180605	0.594741	0.115017
	C190	C	0.818774	0.373335	0.118809
	C191	C	0.820947	0.593459	0.870719
	C192	C	0.406547	0.074873	0.588868
	C193	C	0.598338	0.893315	0.591988
	C194	C	0.598923	0.076626	0.395943
	C195	C	0.406072	0.892283	0.397407
	C196	C	0.598229	0.386481	0.084727
	C197	C	0.597787	0.581062	0.901466
	C198	C	0.403389	0.580127	0.084567
	C199	C	0.405187	0.387657	0.903210
	C200	C	0.094478	0.580798	0.395864
	C201	C	0.910658	0.580546	0.591432
	C202	C	0.094366	0.387263	0.589829
	C203	C	0.912142	0.389119	0.399157
	C204	C	0.904769	0.574661	0.089519
	C205	C	0.096434	0.392317	0.088424
	C206	C	0.098106	0.574564	0.895525
	C207	C	0.906314	0.391347	0.897718
	C208	C	0.100824	0.885345	0.586506
	C209	C	0.097285	0.077856	0.403795
	C210	C	0.907095	0.078978	0.584901
	C211	C	0.904566	0.885776	0.401864
	C212	C	0.591888	0.079509	0.898964
	C213	C	0.409196	0.080847	0.091947
	C214	C	0.593076	0.885331	0.092197
	C215	C	0.409133	0.889460	0.898572
	Zn216	Zn	0.501249	-0.014634	0.744480
	Zn217	Zn	0.501723	-0.015999	0.244346
	Zn218	Zn	0.751184	0.482672	-0.006994
	Zn219	Zn	0.250592	0.483870	-0.006901
	Zn220	Zn	0.002385	0.733488	0.494164
	Zn221	Zn	0.003538	0.233601	0.494298
	Zn222	Zn	0.002735	0.482292	0.743375
	Zn223	Zn	0.001607	0.483890	0.243423
	Zn224	Zn	0.499912	0.734228	-0.005807
	Zn225	Zn	0.500978	0.233475	-0.005803
	Zn226	Zn	0.751647	-0.015552	0.494628
	Zn227	Zn	0.252667	-0.016639	0.494132
	N228	N	0.415475	0.948758	0.674123
	N229	N	0.590346	0.019997	0.676467
	N230	N	0.589335	0.948565	0.313800
	N231	N	0.415168	0.020098	0.314522
	N232	N	0.681722	0.395549	0.957736
	N233	N	0.680517	0.569578	0.028472
	N234	N	0.320690	0.570801	0.957311
	N235	N	0.320104	0.396639	0.029331
	N236	N	0.965993	0.662659	0.408203
	N237	N	0.038944	0.662234	0.580205
	N238	N	0.967713	0.302961	0.581392
	N239	N	0.038689	0.303781	0.406737
	N240	N	0.967231	0.395895	0.673802
	N241	N	0.038372	0.569719	0.674346
	N242	N	0.966616	0.571551	0.313064
	N243	N	0.037376	0.396411	0.312531
	N244	N	0.412804	0.664910	0.958583
	N245	N	0.586916	0.663077	0.029134
	N246	N	0.588091	0.303021	0.957876
	N247	N	0.415127	0.304871	0.030432
	N248	N	0.680515	0.948311	0.408929
	N249	N	0.681838	0.020456	0.581541
	N250	N	0.323715	0.947323	0.579678
	N251	N	0.321119	0.019040	0.406568
	N252	N	0.912916	0.448734	0.175483
	N253	N	0.087594	0.518925	0.172923
	N254	N	0.090663	0.447593	0.811850
	N255	N	0.916189	0.518325	0.814083
	N256	N	0.184053	0.895036	0.459498
	N257	N	0.181836	0.068869	0.529722
	N258	N	0.822253	0.070899	0.459170
	N259	N	0.821510	0.896538	0.529201
	N260	N	0.464419	0.163176	0.908635
	N261	N	0.536673	0.163796	0.081355
	N262	N	0.465373	0.802743	0.082304
	N263	N	0.536490	0.805611	0.909094
	N264	N	0.465837	0.895947	0.175477
	N265	N	0.537379	0.070105	0.173729
	N266	N	0.466002	0.073047	0.813085
	N267	N	0.536050	0.897573	0.814401
	N268	N	0.914398	0.165219	0.459744
	N269	N	0.090614	0.163693	0.529072
	N270	N	0.089385	0.803572	0.458732
	N271	N	0.915578	0.803574	0.529733
	N272	N	0.182878	0.447679	0.905206
	N273	N	0.178838	0.519934	0.077984
	N274	N	0.820785	0.447862	0.080928
	N275	N	0.822090	0.518430	0.907010
	O276	O	0.374841	0.683529	0.290629
	H277	H	0.360055	0.704975	0.267922
	H278	H	0.390397	0.664086	0.286998
	O279	O	0.973280	0.182894	1.181014
	H280	H	0.988384	0.196683	1.191290
	H281	H	0.963219	0.183512	1.163495
	O282	O	0.586075	0.343705	0.506928
	H283	H	0.581727	0.340510	0.521943
	H284	H	0.597707	0.349183	0.513392
	O285	O	0.554739	0.639494	0.366268
	H286	H	0.563283	0.638593	0.361073
	H287	H	0.539103	0.631144	0.358987
	O288	O	0.961905	0.982691	0.196540
	H289	H	0.967632	1.013894	0.195023
	H290	H	0.947022	0.969552	0.205328
	O291	O	0.402505	0.612205	0.390095
	H292	H	0.411318	0.608408	0.384084
	H293	H	0.415363	0.611598	0.381524
	O294	O	0.207931	0.000085	1.197452
	H295	H	0.217779	0.013245	1.201710
	H296	H	0.199959	0.001697	1.208906
	O297	O	1.142687	1.000754	0.947502
	H298	H	1.148953	1.009744	0.971399
	H299	H	1.144355	0.996279	0.950829
	O300	O	0.431823	0.634164	0.565127
	H301	H	0.397326	0.642973	0.553269
	H302	H	0.449797	0.620669	0.561741
	O303	O	0.562009	0.572796	0.381150
	H304	H	0.556006	0.561508	0.367084
	H305	H	0.567996	0.569190	0.366338
	O306	O	0.708155	0.286895	0.474592
	H307	H	0.709510	0.284029	0.464065
	H308	H	0.725752	0.282845	0.474957
	O309	O	0.434260	0.440741	0.526902
	H310	H	0.408171	0.438601	0.524822
	H311	H	0.446202	0.437027	0.549683
	O312	O	0.031774	1.194200	0.955845
	H313	H	0.025314	1.185267	0.953947
	H314	H	0.017937	1.188925	0.954293
	O315	O	0.609080	0.455062	0.579773
	H316	H	0.621352	0.473198	0.568808
	H317	H	0.605260	0.444033	0.588719
	O318	O	0.792237	-0.055182	0.206289
	H319	H	0.780342	-0.047710	0.221339
	H320	H	0.789753	-0.069066	0.215326
	O321	O	0.191849	-0.161712	0.136160
	H322	H	0.177028	-0.142185	0.133898
	H323	H	0.177327	-0.156611	0.120595
	O324	O	0.703446	0.655468	0.649392
	H325	H	0.708353	0.634268	0.640524
	H326	H	0.687637	0.650990	0.651796
	O327	O	0.524242	0.646953	0.695484
	H328	H	0.517335	0.648936	0.688198
	H329	H	0.519317	0.649618	0.703445
	O330	O	0.138095	1.168743	0.183448
	H331	H	0.146097	1.169858	0.164319
	H332	H	0.131786	1.165814	0.189055
	O333	O	0.482535	0.279463	0.657276
	H334	H	0.479596	0.258415	0.669890
	H335	H	0.454031	0.285626	0.662219
	O336	O	0.126523	-0.108071	-0.019737
	H337	H	0.126793	-0.118773	-0.004287
	H338	H	0.106504	-0.106727	-0.015434
	O339	O	-0.040389	1.129891	1.111570
	H340	H	-0.035678	1.115461	1.098286
	H341	H	-0.027223	1.134797	1.117710
	O342	O	0.210384	0.974382	0.913997
	H343	H	0.197837	0.979322	0.924254
	H344	H	0.225204	0.978832	0.928925
	O345	O	1.206134	1.189827	0.056205
	H346	H	1.202825	1.204215	0.053667
	H347	H	1.208996	1.207592	0.050563
	O348	O	0.517748	0.317801	0.361849
	H349	H	0.503218	0.304236	0.354367
	H350	H	0.499351	0.323785	0.375592
	O351	O	0.346298	1.514950	1.509694
	H352	H	0.340997	1.519182	1.511739
	H353	H	0.347204	1.538592	1.504037
	O354	O	-0.036598	0.785981	-0.105233
	H355	H	-0.028110	0.795028	-0.109948
	H356	H	-0.047561	0.779855	-0.094466
	O357	O	-0.022008	0.192982	0.778112
	H358	H	-0.013322	0.215053	0.754421
	H359	H	0.001756	0.176929	0.782059
	O360	O	0.509750	0.393033	0.283112
	H361	H	0.489692	0.391161	0.297139
	H362	H	0.520951	0.381173	0.275894
	O363	O	0.029098	-0.191859	1.033947
	H364	H	0.015922	-0.178690	1.042263
	H365	H	0.019858	-0.203027	1.044199
	O366	O	0.646374	0.422479	0.613861
	H367	H	0.641160	0.425306	0.608674
	H368	H	0.631869	0.408795	0.610651
	O369	O	0.810509	0.784913	0.104567
	H370	H	0.796492	0.771679	0.097216
	H371	H	0.811996	0.803968	0.091328
	O372	O	0.787909	-0.043800	0.996616
	H373	H	0.787895	-0.040149	1.004741
	H374	H	0.787801	-0.035984	0.995631
	O375	O	0.134891	0.793529	0.800200
	H376	H	0.133836	0.791817	0.826311
	H377	H	0.119199	0.789362	0.795463
	O378	O	0.998500	0.795161	0.962874
	H379	H	1.010378	0.778516	0.952936
	H380	H	0.995978	0.822250	0.956118
	O381	O	0.495741	0.504861	0.312732
	H382	H	0.510688	0.504471	0.327550
	H383	H	0.488774	0.508452	0.322850
	O384	O	-0.021181	0.993607	0.961861
	H385	H	-0.030841	0.986197	0.934717
	H386	H	-0.016412	0.983425	0.985529
	O387	O	0.088347	0.059843	0.797065
	H388	H	0.104794	0.040859	0.804314
	H389	H	0.073854	0.035593	0.789643
	O390	O	-0.109322	0.178188	0.024210
	H391	H	-0.131425	0.191582	0.013244
	H392	H	-0.107469	0.171848	0.028527
	O393	O	0.805782	1.124992	0.796643
	H394	H	0.800987	1.109149	0.782884
	H395	H	0.835549	1.135684	0.785764
	O396	O	0.687087	0.309438	0.309449
	H397	H	0.649610	0.301301	0.306395
	H398	H	0.700488	0.301852	0.316595
	O399	O	0.371448	0.304966	0.531860
	H400	H	0.369276	0.298112	0.529915
	H401	H	0.384481	0.311611	0.540237
	O402	O	0.984415	0.793877	1.197913
	H403	H	0.955149	0.792172	1.192251
	H404	H	0.971883	0.772226	1.221557
	O405	O	0.809162	0.793484	-0.140421
	H406	H	0.806091	0.788107	-0.143062
	H407	H	0.795524	0.784219	-0.142055
	O408	O	0.978460	-0.067946	-0.219579
	H409	H	0.976883	-0.071788	-0.215365
	H410	H	0.971469	-0.078298	-0.225503
	O411	O	0.791050	1.198298	-0.079540
	H412	H	0.806240	1.189356	-0.113150
	H413	H	0.768366	1.227158	-0.074947
	O414	O	0.338602	0.354778	0.571418
	H415	H	0.326210	0.363281	0.576776
	H416	H	0.338580	0.366074	0.545141
	O417	O	0.713142	0.696487	0.245738
	H418	H	0.702714	0.685365	0.253393
	H419	H	0.700040	0.701390	0.238165
	O420	O	0.051232	-0.009322	0.114117
	H421	H	0.038922	-0.028931	0.119551
	H422	H	0.047156	-0.006053	0.115752
	O423	O	0.320038	0.401705	0.696389
	H424	H	0.302025	0.421713	0.714224
	H425	H	0.327101	0.409211	0.694382
	O426	O	0.397705	0.491978	0.640991
	H427	H	0.417162	0.506483	0.644520
	H428	H	0.404332	0.496790	0.630973
	O429	O	0.660995	0.679639	0.502280
	H430	H	0.656639	0.679068	0.514315
	H431	H	0.666768	0.679377	0.504305
	O432	O	0.698653	0.583995	0.685903
	H433	H	0.698617	0.574428	0.676921
	H434	H	0.684673	0.564478	0.688249
	O435	O	0.393907	0.514438	0.495882
	H436	H	0.382927	0.521500	0.507846
	H437	H	0.384968	0.514290	0.504103
	O438	O	-0.131681	-0.059306	-0.212143
	H439	H	-0.147101	-0.074657	-0.225278
	H440	H	-0.140901	-0.066694	-0.214929
	O441	O	0.842975	0.026443	0.063457
	H442	H	0.836439	0.045940	0.053261
	H443	H	0.843622	0.026922	0.062576
	O444	O	0.223358	0.865982	0.774573
	H445	H	0.223125	0.861443	0.772684
	H446	H	0.233681	0.860729	0.776319
	O447	O	0.398560	0.378928	0.360660
	H448	H	0.383639	0.392280	0.358316
	H449	H	0.413568	0.365061	0.370423
	O450	O	0.664359	0.474456	0.421758
	H451	H	0.664980	0.470561	0.415683
	H452	H	0.662504	0.470757	0.420254
	O453	O	0.291734	0.645275	0.508341
	H454	H	0.284746	0.656826	0.485632
	H455	H	0.278666	0.658168	0.493259
