data_Molecule from HDF5

_cell_length_a		16.333408
_cell_length_b		16.229987
_cell_length_c		16.273086
_cell_angle_alpha	89.840728
_cell_angle_beta	89.958735
_cell_angle_gamma	89.878945
_symmetry_space_group_name_H-M	'P 1'
_symmetry_Int_Tables_number		1

loop_
	_symmetry_equiv_pos_as_xyz
	x,y,z

loop_
	_atom_site_label
	_atom_site_type_symbol
	_atom_site_fract_x
	_atom_site_fract_y
	_atom_site_fract_z
	H0	H	0.399890	0.849047	0.690777
	H1	H	0.599654	0.175043	0.688831
	H2	H	0.600306	0.848156	0.259085
	H3	H	0.400934	0.175717	0.258990
	H4	H	0.719299	0.408881	0.812017
	H5	H	0.716850	0.610448	0.137562
	H6	H	0.283973	0.611425	0.811661
	H7	H	0.284455	0.408105	0.136966
	H8	H	0.838314	0.728216	0.376158
	H9	H	0.163931	0.726616	0.575194
	H10	H	0.838683	0.295700	0.576731
	H11	H	0.164084	0.295370	0.376508
	H12	H	0.839087	0.410311	0.692351
	H13	H	0.164170	0.610268	0.690657
	H14	H	0.837813	0.612082	0.259225
	H15	H	0.164163	0.410812	0.259910
	H16	H	0.400909	0.725992	0.810711
	H17	H	0.600323	0.726708	0.137042
	H18	H	0.598819	0.297404	0.809418
	H19	H	0.402790	0.295813	0.137557
	H20	H	0.718572	0.849132	0.371797
	H21	H	0.715835	0.175039	0.573606
	H22	H	0.284632	0.849534	0.576692
	H23	H	0.283783	0.175002	0.372605
	H24	H	0.902155	0.346897	0.191208
	H25	H	0.099493	0.674981	0.187799
	H26	H	0.099641	0.346309	0.761211
	H27	H	0.901584	0.674416	0.760512
	H28	H	0.216285	0.912687	0.312014
	H29	H	0.216524	0.110663	0.638704
	H30	H	0.786042	0.113326	0.311695
	H31	H	0.784188	0.911538	0.637783
	H32	H	0.337462	0.226243	0.874746
	H33	H	0.663828	0.224245	0.070705
	H34	H	0.337140	0.795289	0.073719
	H35	H	0.663096	0.795094	0.874376
	H36	H	0.337707	0.911403	0.190517
	H37	H	0.663208	0.111214	0.188794
	H38	H	0.337548	0.111015	0.758872
	H39	H	0.663132	0.912695	0.759513
	H40	H	0.903061	0.227891	0.312529
	H41	H	0.098188	0.224947	0.640149
	H42	H	0.101421	0.795684	0.312910
	H43	H	0.902648	0.798339	0.639641
	H44	H	0.215666	0.346826	0.877004
	H45	H	0.217089	0.673295	0.074836
	H46	H	0.786738	0.346135	0.075017
	H47	H	0.785383	0.673479	0.875138
	H48	H	0.412085	0.128700	0.568603
	H49	H	0.594912	0.892672	0.571973
	H50	H	0.598129	0.130492	0.381159
	H51	H	0.412738	0.897872	0.386330
	H52	H	0.589886	0.421264	0.088182
	H53	H	0.591942	0.598265	0.860258
	H54	H	0.404787	0.596777	0.090057
	H55	H	0.411308	0.420292	0.859573
	H56	H	0.116063	0.603343	0.384518
	H57	H	0.887147	0.599289	0.567241
	H58	H	0.119588	0.416443	0.573880
	H59	H	0.887068	0.419860	0.386216
	H60	H	0.117079	0.415064	0.563616
	H61	H	0.883376	0.606087	0.573329
	H62	H	0.116152	0.600741	0.380033
	H63	H	0.886451	0.422556	0.382322
	H64	H	0.414913	0.600300	0.087657
	H65	H	0.590635	0.606416	0.858213
	H66	H	0.591475	0.412456	0.090654
	H67	H	0.406522	0.413793	0.854722
	H68	H	0.590360	0.127899	0.376611
	H69	H	0.585599	0.897759	0.564755
	H70	H	0.408984	0.127386	0.562351
	H71	H	0.405067	0.895500	0.385307
	H72	H	0.913970	0.625092	0.067644
	H73	H	0.094186	0.391790	0.072389
	H74	H	0.095317	0.627371	0.883054
	H75	H	0.904437	0.393095	0.888411
	H76	H	0.102568	0.926670	0.591832
	H77	H	0.091380	0.109414	0.358378
	H78	H	0.906480	0.107305	0.592580
	H79	H	0.908866	0.923146	0.359909
	H80	H	0.617456	0.108989	0.881206
	H81	H	0.386049	0.093069	0.071180
	H82	H	0.616448	0.920445	0.072250
	H83	H	0.380908	0.915315	0.872291
	H84	H	0.616641	0.912878	0.062126
	H85	H	0.380175	0.112139	0.073254
	H86	H	0.614994	0.101802	0.883133
	H87	H	0.384305	0.911494	0.889493
	H88	H	0.904243	0.101150	0.591577
	H89	H	0.099477	0.101999	0.359277
	H90	H	0.084597	0.920947	0.588814
	H91	H	0.911031	0.918044	0.359218
	H92	H	0.093125	0.627747	0.879243
	H93	H	0.089717	0.395378	0.065719
	H94	H	0.905273	0.626044	0.060547
	H95	H	0.908157	0.390713	0.876732
	H96	H	0.405248	0.130667	0.567623
	H97	H	0.596758	0.896079	0.559800
	H98	H	0.591162	0.126079	0.385978
	H99	H	0.409834	0.895501	0.378659
	H100	H	0.598763	0.418878	0.091297
	H101	H	0.598634	0.603018	0.856879
	H102	H	0.407465	0.606976	0.092322
	H103	H	0.403204	0.422529	0.857203
	H104	H	0.117378	0.605759	0.380464
	H105	H	0.884903	0.608643	0.563976
	H106	H	0.114916	0.424399	0.568492
	H107	H	0.884373	0.417843	0.381720
	H108	H	0.904014	0.629368	0.070893
	H109	H	0.098101	0.393299	0.065097
	H110	H	0.091510	0.626882	0.883315
	H111	H	0.916117	0.396685	0.884955
	H112	H	0.097112	0.908699	0.596495
	H113	H	0.089159	0.098931	0.361598
	H114	H	0.910527	0.101873	0.590632
	H115	H	0.905746	0.918972	0.357568
	H116	H	0.617762	0.103043	0.874898
	H117	H	0.387429	0.105972	0.055772
	H118	H	0.612439	0.924270	0.061302
	H119	H	0.387422	0.927954	0.883362
	C120	C	0.379377	0.020827	0.595985
	C121	C	0.621398	1.003183	0.594950
	C122	C	0.623002	0.020561	0.351603
	C123	C	0.379365	1.003953	0.352925
	C124	C	0.622231	0.388868	-0.017854
	C125	C	0.622699	0.632120	0.966070
	C126	C	0.379359	0.631560	-0.017639
	C127	C	0.378692	0.388939	0.965273
	C128	C	0.009154	0.633680	0.352682
	C129	C	0.992961	0.632965	0.597108
	C130	C	0.009579	0.389624	0.597861
	C131	C	0.993195	0.389999	0.354221
	C132	C	0.879068	0.518753	0.096622
	C133	C	0.122697	0.501980	0.096230
	C134	C	0.122185	0.519164	0.853335
	C135	C	0.880027	0.501748	0.854077
	C136	C	0.123702	0.889905	0.484389
	C137	C	0.122357	0.132608	0.467517
	C138	C	0.878514	0.133892	0.483805
	C139	C	0.879276	0.890791	0.467013
	C140	C	0.508987	0.133303	0.851371
	C141	C	0.492094	0.132565	0.095130
	C142	C	0.508371	0.889253	0.095638
	C143	C	0.491812	0.889298	0.852430
	C144	C	0.380403	0.897909	0.652425
	C145	C	0.619759	0.126428	0.650660
	C146	C	0.621108	0.897539	0.296190
	C147	C	0.380910	0.126765	0.296986
	C148	C	0.679277	0.389879	0.859949
	C149	C	0.678654	0.630746	0.088663
	C150	C	0.322517	0.631198	0.860047
	C151	C	0.322938	0.389299	0.088120
	C152	C	0.886889	0.689886	0.355674
	C153	C	0.115408	0.688493	0.595327
	C154	C	0.887521	0.333398	0.596662
	C155	C	0.115525	0.333789	0.356331
	C156	C	0.887496	0.390448	0.654164
	C157	C	0.115358	0.630755	0.652861
	C158	C	0.886762	0.632411	0.297132
	C159	C	0.115408	0.390915	0.297998
	C160	C	0.380976	0.687834	0.859614
	C161	C	0.620568	0.688399	0.088411
	C162	C	0.619699	0.334249	0.858780
	C163	C	0.381884	0.333204	0.088385
	C164	C	0.679898	0.897941	0.352441
	C165	C	0.677655	0.126268	0.593653
	C166	C	0.323247	0.898122	0.595402
	C167	C	0.322378	0.126263	0.353565
	C168	C	0.881952	0.395479	0.152769
	C169	C	0.120017	0.625598	0.150575
	C170	C	0.120010	0.395577	0.798763
	C171	C	0.881366	0.625172	0.798378
	C172	C	0.178751	0.891984	0.361218
	C173	C	0.178000	0.130765	0.590384
	C174	C	0.823721	0.132866	0.360800
	C175	C	0.823003	0.891786	0.589407
	C176	C	0.386048	0.188266	0.854284
	C177	C	0.614828	0.187434	0.092061
	C178	C	0.385996	0.832880	0.094393
	C179	C	0.614383	0.833465	0.854219
	C180	C	0.386165	0.890787	0.152176
	C181	C	0.614523	0.130810	0.150419
	C182	C	0.386176	0.131028	0.796767
	C183	C	0.614594	0.891991	0.797298
	C184	C	0.881881	0.189917	0.361238
	C185	C	0.119100	0.187344	0.591022
	C186	C	0.121498	0.833999	0.361560
	C187	C	0.882246	0.835693	0.590189
	C188	C	0.177769	0.395626	0.856077
	C189	C	0.178493	0.624869	0.094394
	C190	C	0.823924	0.395300	0.095498
	C191	C	0.824052	0.624848	0.855674
	C192	C	0.402102	0.106575	0.572894
	C193	C	0.598883	0.917900	0.572260
	C194	C	0.599958	0.106118	0.374550
	C195	C	0.402601	0.918287	0.376356
	C196	C	0.599963	0.411090	0.067941
	C197	C	0.600352	0.609361	0.880502
	C198	C	0.402261	0.608118	0.067894
	C199	C	0.400629	0.412181	0.879378
	C200	C	0.094381	0.610216	0.374972
	C201	C	0.907509	0.611043	0.574723
	C202	C	0.094881	0.412003	0.575302
	C203	C	0.908062	0.413241	0.376763
	C204	C	0.901189	0.604592	0.073188
	C205	C	0.100582	0.415801	0.074353
	C206	C	0.099923	0.605043	0.875428
	C207	C	0.902833	0.415826	0.876736
	C208	C	0.101526	0.912212	0.570091
	C209	C	0.099824	0.110175	0.381838
	C210	C	0.900436	0.110237	0.569647
	C211	C	0.901909	0.913428	0.381089
	C212	C	0.594604	0.111086	0.873206
	C213	C	0.406627	0.110242	0.073290
	C214	C	0.593221	0.912364	0.072088
	C215	C	0.406321	0.911757	0.874846
	Zn216	Zn	0.500001	0.011398	0.723644
	Zn217	Zn	0.500172	0.011712	0.223992
	Zn218	Zn	0.750955	0.509823	-0.025294
	Zn219	Zn	0.250760	0.510771	-0.025535
	Zn220	Zn	0.001368	0.762273	0.475523
	Zn221	Zn	0.001101	0.261592	0.476086
	Zn222	Zn	0.000604	0.511179	0.725535
	Zn223	Zn	0.001215	0.511141	0.224173
	Zn224	Zn	0.500035	0.760417	-0.026261
	Zn225	Zn	0.500276	0.261173	-0.026938
	Zn226	Zn	0.750206	0.011556	0.474682
	Zn227	Zn	0.251933	0.012401	0.475167
	N228	N	0.414863	0.975007	0.652716
	N229	N	0.585428	0.049186	0.651681
	N230	N	0.586537	0.974864	0.295390
	N231	N	0.415571	0.049579	0.296388
	N232	N	0.681040	0.422946	0.937643
	N233	N	0.679774	0.596169	0.011642
	N234	N	0.321462	0.596836	0.937381
	N235	N	0.320987	0.423303	0.010558
	N236	N	0.964130	0.690913	0.389208
	N237	N	0.038450	0.689996	0.561255
	N238	N	0.964425	0.332875	0.561985
	N239	N	0.038349	0.332849	0.390318
	N240	N	0.964270	0.424758	0.655045
	N241	N	0.038133	0.596819	0.654033
	N242	N	0.963847	0.598149	0.295138
	N243	N	0.038313	0.425295	0.296555
	N244	N	0.415508	0.688158	0.936697
	N245	N	0.586586	0.689348	0.011217
	N246	N	0.584843	0.333619	0.935708
	N247	N	0.415805	0.332951	0.011053
	N248	N	0.681309	0.975426	0.386215
	N249	N	0.678910	0.048835	0.559653
	N250	N	0.322734	0.975533	0.560816
	N251	N	0.321547	0.048640	0.387940
	N252	N	0.915183	0.473305	0.153699
	N253	N	0.085888	0.548234	0.151643
	N254	N	0.086399	0.473363	0.796796
	N255	N	0.915731	0.547783	0.797557
	N256	N	0.180383	0.925920	0.438612
	N257	N	0.180083	0.097550	0.512700
	N258	N	0.821472	0.098651	0.438338
	N259	N	0.821178	0.925204	0.511756
	N260	N	0.463346	0.189705	0.887658
	N261	N	0.537692	0.188800	0.058351
	N262	N	0.463040	0.831775	0.059973
	N263	N	0.537133	0.831813	0.887864
	N264	N	0.463168	0.924890	0.153142
	N265	N	0.537212	0.097418	0.152479
	N266	N	0.463547	0.097479	0.794910
	N267	N	0.537439	0.925882	0.796000
	N268	N	0.914972	0.190776	0.438642
	N269	N	0.085207	0.188498	0.513665
	N270	N	0.088082	0.832530	0.438967
	N271	N	0.916455	0.834950	0.512695
	N272	N	0.179047	0.473332	0.889446
	N273	N	0.180229	0.547026	0.061367
	N274	N	0.821888	0.472981	0.061485
	N275	N	0.822817	0.546996	0.889405
	O276	O	-0.445655	-0.492898	0.532012
	H277	H	-0.436164	-0.491576	0.537547
	H278	H	-0.447181	-0.505930	0.536837
	O279	O	0.537258	0.532969	0.426953
	H280	H	0.526791	0.535145	0.430651
	H281	H	0.529419	0.536219	0.424114
	O282	O	0.455595	0.474815	0.338990
	H283	H	0.460658	0.474180	0.324343
	H284	H	0.452930	0.468396	0.341276
	O285	O	-0.007790	1.015973	1.076056
	H286	H	-0.007790	1.015460	1.076932
	H287	H	-0.011511	1.021126	1.080415
	O288	O	0.580443	0.524652	0.524390
	H289	H	0.572857	0.528309	0.520263
	H290	H	0.579442	0.523444	0.518418
	O291	O	0.499646	1.593445	1.440404
	H292	H	0.506218	1.594226	1.433069
	H293	H	0.504336	1.602515	1.449183
	O294	O	0.975698	0.945979	1.074665
	H295	H	0.980570	0.955796	1.076327
	H296	H	0.970154	0.942012	1.070002
	O297	O	0.896554	-0.097767	1.036978
	H298	H	0.903378	-0.094369	1.037528
	H299	H	0.901645	-0.102951	1.042782
	O300	O	0.561029	0.605383	0.430066
	H301	H	0.566983	0.605458	0.431377
	H302	H	0.566711	0.607084	0.429473
	O303	O	0.979130	0.017518	0.039023
	H304	H	0.973210	0.010236	0.041559
	H305	H	0.972665	0.017670	0.051576
	O306	O	-0.038138	0.975198	0.975857
	H307	H	-0.047622	0.980038	0.987691
	H308	H	-0.031102	0.970455	0.968163
	O309	O	0.406040	0.550598	0.489558
	H310	H	0.402380	0.555535	0.503957
	H311	H	0.398792	0.552770	0.483407
	O312	O	1.023275	0.021921	1.021503
	H313	H	1.015412	0.019218	1.022232
	H314	H	1.018785	0.027866	1.025825
	O315	O	0.383389	0.598310	0.374160
	H316	H	0.388043	0.595293	0.357569
	H317	H	0.375696	0.608268	0.377347
	O318	O	0.025146	0.013430	1.002982
	H319	H	0.021550	0.016255	1.000499
	H320	H	0.029310	0.007623	0.998854
	O321	O	1.976239	-0.066811	2.058983
	H322	H	1.982654	-0.068963	2.060612
	H323	H	1.978143	-0.069320	2.057105
	O324	O	0.426099	0.555546	0.415307
	H325	H	0.433153	0.553185	0.417227
	H326	H	0.437506	0.545221	0.413967
	O327	O	0.335885	0.437251	0.541610
	H328	H	0.344388	0.436813	0.546653
	H329	H	0.330645	0.444089	0.550683
	O330	O	0.486253	-0.435149	0.619309
	H331	H	0.501050	-0.428828	0.631583
	H332	H	0.493629	-0.436742	0.603785
	O333	O	0.987073	0.931196	0.099562
	H334	H	0.983016	0.918949	0.101804
	H335	H	0.978323	0.924443	0.108333
	O336	O	0.423437	0.435459	0.628107
	H337	H	0.418024	0.432736	0.642453
	H338	H	0.410609	0.438423	0.625708
	O339	O	0.624825	0.446178	0.458530
	H340	H	0.624527	0.438929	0.454824
	H341	H	0.618110	0.448184	0.459860
	O342	O	0.670511	1.638279	0.568405
	H343	H	0.668482	1.634661	0.561696
	H344	H	0.675958	1.633300	0.569125
	O345	O	0.551004	0.476704	0.335241
	H346	H	0.546473	0.470908	0.338189
	H347	H	0.550041	0.474044	0.335707
	O348	O	0.450369	0.460867	0.423986
	H349	H	0.459094	0.458558	0.417755
	H350	H	0.439455	0.469302	0.418548
	O351	O	-0.364640	0.500518	0.375015
	H352	H	-0.365337	0.484672	0.355206
	H353	H	-0.372692	0.504129	0.371198
	O354	O	0.599667	0.470691	0.444037
	H355	H	0.592564	0.461592	0.442460
	H356	H	0.606155	0.480182	0.445885
	O357	O	0.425121	0.553949	0.431513
	H358	H	0.439085	0.551055	0.429703
	H359	H	0.432844	0.558017	0.438680
	O360	O	-0.046243	-0.017512	0.002598
	H361	H	-0.036407	-0.018741	0.010970
	H362	H	-0.050545	-0.021287	0.013306
	O363	O	0.536897	0.455943	0.546286
	H364	H	0.538588	0.450922	0.544176
	H365	H	0.527946	0.447140	0.552563
	O366	O	0.552175	-0.554912	1.452611
	H367	H	0.554169	-0.550932	1.458233
	H368	H	0.548434	-0.549820	1.454711
	O369	O	0.387637	0.567143	0.529474
	H370	H	0.391701	0.567916	0.546948
	H371	H	0.377200	0.574929	0.529810
