data_Molecule from HDF5

_cell_length_a		16.186041
_cell_length_b		16.151899
_cell_length_c		16.348432
_cell_angle_alpha	90.635573
_cell_angle_beta	90.307452
_cell_angle_gamma	90.572648
_symmetry_space_group_name_H-M	'P 1'
_symmetry_Int_Tables_number		1

loop_
	_symmetry_equiv_pos_as_xyz
	x,y,z

loop_
	_atom_site_label
	_atom_site_type_symbol
	_atom_site_fract_x
	_atom_site_fract_y
	_atom_site_fract_z
	H0	H	0.397059	0.830692	0.712916
	H1	H	0.602945	0.158826	0.720488
	H2	H	0.594762	0.831736	0.284371
	H3	H	0.397288	0.159677	0.285651
	H4	H	0.711710	0.395124	0.835076
	H5	H	0.720314	0.598743	0.161211
	H6	H	0.285745	0.590020	0.835526
	H7	H	0.282724	0.396083	0.161945
	H8	H	0.833122	0.703886	0.402066
	H9	H	0.163409	0.712886	0.597629
	H10	H	0.834319	0.283137	0.592424
	H11	H	0.163838	0.282069	0.398291
	H12	H	0.835891	0.393591	0.712025
	H13	H	0.162228	0.602615	0.717301
	H14	H	0.836418	0.593080	0.280002
	H15	H	0.164041	0.395305	0.281731
	H16	H	0.401427	0.707486	0.835670
	H17	H	0.603729	0.714400	0.161828
	H18	H	0.596327	0.278765	0.836332
	H19	H	0.401681	0.283443	0.163864
	H20	H	0.708055	0.829804	0.401932
	H21	H	0.715888	0.160175	0.603165
	H22	H	0.281958	0.831484	0.596984
	H23	H	0.287938	0.161946	0.406011
	H24	H	0.898675	0.331288	0.209502
	H25	H	0.106123	0.657435	0.216776
	H26	H	0.098703	0.332624	0.777904
	H27	H	0.899386	0.660374	0.783131
	H28	H	0.211997	0.896486	0.336748
	H29	H	0.215642	0.100878	0.662568
	H30	H	0.780845	0.092749	0.337110
	H31	H	0.783394	0.897272	0.663215
	H32	H	0.333853	0.204585	0.904597
	H33	H	0.664777	0.211138	0.100744
	H34	H	0.335642	0.779194	0.096299
	H35	H	0.664489	0.782760	0.902086
	H36	H	0.334610	0.894051	0.212702
	H37	H	0.662339	0.100074	0.220610
	H38	H	0.335655	0.093792	0.784719
	H39	H	0.662083	0.891844	0.781695
	H40	H	0.898689	0.207252	0.334704
	H41	H	0.100781	0.217772	0.661067
	H42	H	0.095082	0.781313	0.336313
	H43	H	0.898738	0.780732	0.662517
	H44	H	0.210679	0.330134	0.897439
	H45	H	0.216320	0.658978	0.099393
	H46	H	0.786016	0.330993	0.092628
	H47	H	0.786556	0.660303	0.900592
	H48	H	0.400848	0.114352	0.590915
	H49	H	0.577298	0.880666	0.594113
	H50	H	0.594768	0.114892	0.410629
	H51	H	0.402242	0.876872	0.400867
	H52	H	0.586411	0.409626	0.112715
	H53	H	0.603875	0.589216	0.880185
	H54	H	0.402478	0.594045	0.118113
	H55	H	0.407278	0.397672	0.883709
	H56	H	0.115607	0.587036	0.409668
	H57	H	0.878662	0.595540	0.591880
	H58	H	0.119541	0.403697	0.596273
	H59	H	0.882721	0.400466	0.405794
	H60	H	0.115397	0.404040	0.582503
	H61	H	0.884947	0.584094	0.584264
	H62	H	0.118145	0.587589	0.401682
	H63	H	0.883836	0.406376	0.400498
	H64	H	0.405516	0.579495	0.112926
	H65	H	0.589063	0.578074	0.887459
	H66	H	0.594477	0.393598	0.118547
	H67	H	0.403188	0.396093	0.882059
	H68	H	0.588028	0.113729	0.406909
	H69	H	0.593930	0.880745	0.580791
	H70	H	0.409867	0.116059	0.604819
	H71	H	0.408343	0.879289	0.405393
	H72	H	0.916757	0.614840	0.098988
	H73	H	0.089129	0.378706	0.083618
	H74	H	0.082033	0.606170	0.919501
	H75	H	0.901789	0.376960	0.901386
	H76	H	0.084120	0.899884	0.615814
	H77	H	0.106483	0.076204	0.382852
	H78	H	0.906644	0.088912	0.614728
	H79	H	0.901514	0.902367	0.384065
	H80	H	0.619949	0.096296	0.909899
	H81	H	0.379316	0.087702	0.101535
	H82	H	0.618279	0.907248	0.099542
	H83	H	0.381203	0.900978	0.904724
	H84	H	0.617525	0.902086	0.091760
	H85	H	0.380748	0.094510	0.091767
	H86	H	0.612385	0.083439	0.918019
	H87	H	0.383194	0.898922	0.907016
	H88	H	0.909829	0.091199	0.614193
	H89	H	0.076306	0.083241	0.390348
	H90	H	0.099833	0.903000	0.619198
	H91	H	0.903848	0.899488	0.383400
	H92	H	0.108126	0.615777	0.911464
	H93	H	0.096927	0.374171	0.090792
	H94	H	0.915829	0.609516	0.084430
	H95	H	0.909282	0.377369	0.898112
	H96	H	0.416815	0.109031	0.591809
	H97	H	0.596931	0.873647	0.600422
	H98	H	0.588889	0.111325	0.414616
	H99	H	0.400523	0.878443	0.408111
	H100	H	0.605992	0.409815	0.116969
	H101	H	0.586242	0.597147	0.882151
	H102	H	0.417420	0.590016	0.113499
	H103	H	0.404147	0.400945	0.883434
	H104	H	0.118370	0.594058	0.406856
	H105	H	0.880809	0.582038	0.598263
	H106	H	0.114631	0.416274	0.590778
	H107	H	0.879779	0.399142	0.398195
	H108	H	0.902984	0.615915	0.090921
	H109	H	0.086362	0.375936	0.094889
	H110	H	0.086413	0.615524	0.892998
	H111	H	0.908305	0.380861	0.906905
	H112	H	0.090331	0.914194	0.612843
	H113	H	0.095368	0.106051	0.377137
	H114	H	0.906823	0.093203	0.616086
	H115	H	0.902088	0.899187	0.382615
	H116	H	0.617540	0.081290	0.902120
	H117	H	0.384688	0.082614	0.091038
	H118	H	0.614114	0.910612	0.091705
	H119	H	0.383212	0.902711	0.906873
	C120	C	0.378109	0.004213	0.622610
	C121	C	0.620154	0.986837	0.622627
	C122	C	0.618514	0.004343	0.380627
	C123	C	0.375853	0.987298	0.378139
	C124	C	0.622081	0.374239	0.007753
	C125	C	0.623560	0.618599	0.990753
	C126	C	0.379443	0.615677	0.007305
	C127	C	0.376544	0.371443	0.990893
	C128	C	0.008544	0.616580	0.376793
	C129	C	0.990064	0.618692	0.620823
	C130	C	0.007988	0.376979	0.617925
	C131	C	0.990782	0.373652	0.374095
	C132	C	0.881122	0.504470	0.118484
	C133	C	0.122338	0.485176	0.120116
	C134	C	0.120614	0.504242	0.876716
	C135	C	0.877838	0.487101	0.874584
	C136	C	0.119456	0.875663	0.508153
	C137	C	0.122208	0.120045	0.490908
	C138	C	0.877695	0.117967	0.507043
	C139	C	0.874531	0.872728	0.491352
	C140	C	0.507865	0.115183	0.880615
	C141	C	0.490581	0.118196	0.124247
	C142	C	0.508125	0.875161	0.121447
	C143	C	0.490960	0.872697	0.877594
	C144	C	0.377966	0.880060	0.675696
	C145	C	0.621126	0.110088	0.680748
	C146	C	0.615114	0.880496	0.323525
	C147	C	0.378096	0.110744	0.323797
	C148	C	0.674966	0.375099	0.884375
	C149	C	0.681386	0.618158	0.112636
	C150	C	0.323550	0.611745	0.884269
	C151	C	0.321359	0.375683	0.113591
	C152	C	0.883373	0.668771	0.379813
	C153	C	0.113862	0.675727	0.618715
	C154	C	0.883864	0.320684	0.613931
	C155	C	0.114694	0.319131	0.377743
	C156	C	0.884659	0.375655	0.673347
	C157	C	0.113316	0.620535	0.678045
	C158	C	0.884984	0.613644	0.319273
	C159	C	0.114880	0.375378	0.319523
	C160	C	0.381423	0.669869	0.884511
	C161	C	0.622921	0.675387	0.113162
	C162	C	0.617437	0.317230	0.885020
	C163	C	0.380098	0.319316	0.114582
	C164	C	0.671750	0.879670	0.381812
	C165	C	0.677569	0.110919	0.622659
	C166	C	0.320522	0.880539	0.618158
	C167	C	0.323585	0.111884	0.383688
	C168	C	0.879863	0.380641	0.172322
	C169	C	0.124316	0.608381	0.177846
	C170	C	0.118618	0.381088	0.817888
	C171	C	0.879448	0.611074	0.820641
	C172	C	0.174091	0.876623	0.385495
	C173	C	0.177615	0.120105	0.613623
	C174	C	0.819947	0.113711	0.385269
	C175	C	0.820448	0.876247	0.614148
	C176	C	0.383445	0.168219	0.883450
	C177	C	0.614804	0.174249	0.122118
	C178	C	0.384576	0.817562	0.117258
	C179	C	0.614894	0.818782	0.880455
	C180	C	0.384180	0.874581	0.175398
	C181	C	0.613784	0.118450	0.181402
	C182	C	0.384385	0.112712	0.824108
	C183	C	0.613481	0.873371	0.820794
	C184	C	0.878810	0.170815	0.384100
	C185	C	0.120339	0.178310	0.612726
	C186	C	0.115779	0.819446	0.385136
	C187	C	0.877588	0.817990	0.613709
	C188	C	0.173981	0.379717	0.877512
	C189	C	0.179190	0.609116	0.119408
	C190	C	0.824165	0.380319	0.113907
	C191	C	0.823496	0.611225	0.878991
	C192	C	0.401937	0.090729	0.601830
	C193	C	0.596299	0.900665	0.598820
	C194	C	0.597161	0.090929	0.403990
	C195	C	0.397264	0.900466	0.398759
	C196	C	0.601724	0.397645	0.093760
	C197	C	0.599932	0.594983	0.905285
	C198	C	0.401904	0.594180	0.092736
	C199	C	0.398173	0.392190	0.905501
	C200	C	0.094843	0.595736	0.399372
	C201	C	0.903927	0.594375	0.598360
	C202	C	0.094143	0.401069	0.596223
	C203	C	0.904587	0.395543	0.395277
	C204	C	0.904954	0.591017	0.097509
	C205	C	0.097820	0.398628	0.096618
	C206	C	0.098652	0.590204	0.900979
	C207	C	0.899843	0.400784	0.895803
	C208	C	0.097710	0.898847	0.593771
	C209	C	0.099655	0.095565	0.405345
	C210	C	0.900946	0.097163	0.592828
	C211	C	0.896052	0.894032	0.405538
	C212	C	0.594363	0.093360	0.903320
	C213	C	0.404051	0.095064	0.101406
	C214	C	0.594274	0.899438	0.100384
	C215	C	0.404711	0.894614	0.899746
	Zn216	Zn	0.499353	-0.005352	0.751064
	Zn217	Zn	0.498097	-0.004001	0.251136
	Zn218	Zn	0.751972	0.495828	-0.002132
	Zn219	Zn	0.248588	0.494248	-0.001476
	Zn220	Zn	-0.001794	0.745308	0.499200
	Zn221	Zn	-0.000488	0.247845	0.497332
	Zn222	Zn	-0.000562	0.496731	0.747592
	Zn223	Zn	0.001125	0.495361	0.246851
	Zn224	Zn	0.500932	0.746514	-0.000484
	Zn225	Zn	0.499788	0.244799	0.000693
	Zn226	Zn	0.747623	-0.003902	0.500800
	Zn227	Zn	0.249659	-0.003055	0.500584
	N228	N	0.412913	0.957954	0.678744
	N229	N	0.586271	0.031966	0.680938
	N230	N	0.582868	0.959028	0.322712
	N231	N	0.409916	0.032062	0.320137
	N232	N	0.678011	0.409957	0.961644
	N233	N	0.681978	0.583345	0.035433
	N234	N	0.322203	0.578832	0.961456
	N235	N	0.318898	0.407345	0.035700
	N236	N	0.961036	0.670872	0.414856
	N237	N	0.036265	0.674730	0.583986
	N238	N	0.961729	0.321098	0.580530
	N239	N	0.036705	0.317707	0.410848
	N240	N	0.962845	0.410001	0.675884
	N241	N	0.035201	0.585872	0.679500
	N242	N	0.963741	0.582210	0.317070
	N243	N	0.036799	0.408360	0.316906
	N244	N	0.415290	0.672552	0.961958
	N245	N	0.587798	0.675529	0.036277
	N246	N	0.585535	0.316386	0.962921
	N247	N	0.413832	0.316405	0.037570
	N248	N	0.673776	0.957676	0.416703
	N249	N	0.677155	0.033350	0.586975
	N250	N	0.320329	0.958841	0.585999
	N251	N	0.321938	0.033938	0.416671
	N252	N	0.914640	0.458794	0.175103
	N253	N	0.089591	0.530267	0.178415
	N254	N	0.086189	0.459544	0.817207
	N255	N	0.912255	0.532952	0.817848
	N256	N	0.176523	0.911001	0.462884
	N257	N	0.178978	0.084549	0.536622
	N258	N	0.819159	0.081593	0.463069
	N259	N	0.818383	0.909349	0.536975
	N260	N	0.461304	0.169837	0.917985
	N261	N	0.537097	0.174405	0.087413
	N262	N	0.462755	0.817770	0.084373
	N263	N	0.537676	0.818341	0.915176
	N264	N	0.461833	0.909860	0.177887
	N265	N	0.535379	0.084440	0.182935
	N266	N	0.462847	0.080494	0.822115
	N267	N	0.535215	0.905855	0.818697
	N268	N	0.913896	0.173382	0.460815
	N269	N	0.086544	0.178117	0.535421
	N270	N	0.082587	0.818756	0.462598
	N271	N	0.910582	0.815664	0.536249
	N272	N	0.175410	0.457285	0.913342
	N273	N	0.177917	0.531313	0.084041
	N274	N	0.824780	0.458353	0.080957
	N275	N	0.822174	0.533003	0.911887
	O276	O	0.515538	0.531378	0.416121
	H277	H	0.508120	0.535676	0.412653
	H278	H	0.512295	0.532447	0.427166
	O279	O	0.456952	0.390231	0.530726
	H280	H	0.459154	0.397786	0.530519
	H281	H	0.445773	0.369477	0.527885
	O282	O	1.064205	0.917199	0.018924
	H283	H	1.065416	0.911266	0.013491
	H284	H	1.068508	0.903676	0.013016
	O285	O	0.911273	0.064487	0.863893
	H286	H	0.917506	0.064764	0.857219
	H287	H	0.915501	0.061022	0.868341
	O288	O	0.443942	0.552625	0.515564
	H289	H	0.456549	0.549475	0.508000
	H290	H	0.426223	0.556190	0.499910
	O291	O	0.532258	0.567599	0.460799
	H292	H	0.536255	0.573289	0.458656
	H293	H	0.530417	0.555346	0.464318
	O294	O	0.460055	0.461049	0.523557
	H295	H	0.449730	0.469689	0.524767
	H296	H	0.449763	0.455846	0.519067
	O297	O	0.098905	0.041877	1.084580
	H298	H	0.095116	0.043189	1.088816
	H299	H	0.103034	0.043967	1.080753
	O300	O	0.464648	0.460998	0.419527
	H301	H	0.461464	0.448335	0.418771
	H302	H	0.467189	0.457819	0.419624
	O303	O	1.027347	0.966171	0.087967
	H304	H	1.028978	0.962935	0.092130
	H305	H	1.030223	0.961955	0.065611
	O306	O	0.009758	1.017095	1.091070
	H307	H	0.015781	1.023932	1.091371
	H308	H	0.001251	1.005825	1.088318
	O309	O	0.477900	0.540806	0.495162
	H310	H	0.485748	0.555264	0.507427
	H311	H	0.500066	0.542013	0.497891
	O312	O	-0.105848	0.053095	-0.049207
	H313	H	-0.114291	0.065043	-0.046093
	H314	H	-0.088775	0.057831	-0.027287
	O315	O	0.512981	-0.614555	0.376722
	H316	H	0.521077	-0.615509	0.393516
	H317	H	0.520441	-0.629843	0.368756
	O318	O	0.944398	0.991809	1.039423
	H319	H	0.960473	1.007352	1.037452
	H320	H	0.959465	0.986597	1.038455
	O321	O	0.028280	0.031057	1.025865
	H322	H	0.027752	0.039091	1.033413
	H323	H	0.035757	0.037289	1.022952
	O324	O	0.550653	0.642468	0.602616
	H325	H	0.561656	0.650721	0.601978
	H326	H	0.556228	0.645231	0.593472
	O327	O	-0.044781	-0.115000	-0.007110
	H328	H	-0.052988	-0.118472	0.007354
	H329	H	-0.057495	-0.115667	-0.023915
	O330	O	0.636598	0.594429	0.518450
	H331	H	0.647544	0.601832	0.515414
	H332	H	0.638508	0.595349	0.542194
	O333	O	0.123347	0.924074	0.957793
	H334	H	0.124348	0.928928	0.972116
	H335	H	0.121300	0.920291	0.975182
	O336	O	0.117164	-0.094962	-0.117003
	H337	H	0.126946	-0.105411	-0.134311
	H338	H	0.117877	-0.101392	-0.103922
	O339	O	0.515396	0.558356	0.464165
	H340	H	0.519527	0.572105	0.472131
	H341	H	0.513363	0.555584	0.464093
	O342	O	0.988881	1.007581	0.980794
	H343	H	1.002668	1.013932	0.973503
	H344	H	0.990618	0.999760	0.975895
	O345	O	1.012439	2.061935	-0.002064
	H346	H	1.013035	2.078574	0.001475
	H347	H	1.014629	2.058880	-0.009938
	O348	O	0.489969	0.512515	0.580254
	H349	H	0.489553	0.508944	0.571671
	H350	H	0.487776	0.524040	0.580761
	O351	O	0.498848	0.499451	0.567554
	H352	H	0.503896	0.507309	0.577696
	H353	H	0.504346	0.510844	0.574341
	O354	O	0.480053	0.454423	0.487969
	H355	H	0.476600	0.465409	0.492135
	H356	H	0.467799	0.453965	0.485793
	O357	O	0.974968	0.022844	1.010463
	H358	H	0.956684	0.023802	1.023198
	H359	H	0.971449	0.017377	1.010862
	O360	O	0.554060	0.426087	0.545520
	H361	H	0.551748	0.423206	0.541005
	H362	H	0.560570	0.419159	0.544485
	O363	O	0.489076	0.403302	0.484105
	H364	H	0.481547	0.404063	0.476439
	H365	H	0.494916	0.403287	0.477607
	O366	O	1.140490	1.099081	0.985252
	H367	H	1.152490	1.113949	0.992379
	H368	H	1.128671	1.079071	0.983265
	O369	O	0.913413	-0.119951	0.917246
	H370	H	0.900947	-0.099878	0.920622
	H371	H	0.930786	-0.118022	0.915762
	O372	O	-0.075426	-0.087529	0.046257
	H373	H	-0.078728	-0.083198	0.034694
	H374	H	-0.074211	-0.097398	0.043994
	O375	O	1.004230	0.028524	0.049903
	H376	H	1.000738	0.032362	0.053435
	H377	H	0.996982	0.030160	0.040518
	O378	O	0.556782	0.470504	0.544165
	H379	H	0.559257	0.466208	0.546301
	H380	H	0.553836	0.468091	0.540101
	O381	O	0.926097	1.009686	0.016123
	H382	H	0.909576	1.017489	0.014965
	H383	H	0.936944	1.009069	0.013000
