data_Molecule from HDF5

_cell_length_a		16.475964
_cell_length_b		16.629961
_cell_length_c		16.517279
_cell_angle_alpha	89.962779
_cell_angle_beta	90.049698
_cell_angle_gamma	89.963159
_symmetry_space_group_name_H-M	'P 1'
_symmetry_Int_Tables_number		1

loop_
	_symmetry_equiv_pos_as_xyz
	x,y,z

loop_
	_atom_site_label
	_atom_site_type_symbol
	_atom_site_fract_x
	_atom_site_fract_y
	_atom_site_fract_z
	H0	H	0.378629	0.849799	0.731004
	H1	H	0.589101	0.162035	0.727318
	H2	H	0.592149	0.850354	0.284689
	H3	H	0.377328	0.160085	0.282660
	H4	H	0.705447	0.402115	0.851480
	H5	H	0.707432	0.611638	0.163600
	H6	H	0.265295	0.609846	0.849231
	H7	H	0.263687	0.400638	0.163981
	H8	H	0.828740	0.726000	0.402411
	H9	H	0.142164	0.728241	0.615984
	H10	H	0.828378	0.284582	0.611852
	H11	H	0.142672	0.282596	0.400052
	H12	H	0.827580	0.401735	0.726236
	H13	H	0.143423	0.610544	0.730126
	H14	H	0.829009	0.611022	0.285206
	H15	H	0.143549	0.399947	0.285707
	H16	H	0.377348	0.729159	0.850199
	H17	H	0.593838	0.730367	0.161618
	H18	H	0.589956	0.285063	0.852251
	H19	H	0.376076	0.280732	0.162192
	H20	H	0.708106	0.849495	0.401671
	H21	H	0.705811	0.161849	0.610632
	H22	H	0.262394	0.850270	0.615413
	H23	H	0.262591	0.160160	0.401133
	H24	H	0.878434	0.349683	0.230462
	H25	H	0.092071	0.660062	0.230397
	H26	H	0.089171	0.348311	0.787045
	H27	H	0.876246	0.659902	0.782115
	H28	H	0.209308	0.898907	0.352655
	H29	H	0.205462	0.108594	0.664740
	H30	H	0.766787	0.107931	0.349402
	H31	H	0.766784	0.903348	0.666132
	H32	H	0.328898	0.227619	0.901360
	H33	H	0.643352	0.228830	0.114493
	H34	H	0.330000	0.784724	0.112784
	H35	H	0.642804	0.784597	0.900866
	H36	H	0.330279	0.900512	0.228626
	H37	H	0.643598	0.111234	0.229217
	H38	H	0.328320	0.109415	0.786742
	H39	H	0.644069	0.903835	0.788462
	H40	H	0.880171	0.226188	0.350288
	H41	H	0.092023	0.226805	0.663114
	H42	H	0.093647	0.781931	0.352627
	H43	H	0.878658	0.783148	0.664825
	H44	H	0.206981	0.349114	0.903059
	H45	H	0.208368	0.660855	0.113405
	H46	H	0.763905	0.349471	0.112425
	H47	H	0.761677	0.660867	0.899771
	H48	H	0.394397	0.117505	0.596922
	H49	H	0.576512	0.894756	0.592196
	H50	H	0.581917	0.117431	0.421483
	H51	H	0.397688	0.896321	0.424800
	H52	H	0.575586	0.413654	0.123369
	H53	H	0.571036	0.593277	0.895968
	H54	H	0.401077	0.602216	0.119618
	H55	H	0.396903	0.414283	0.894296
	H56	H	0.098833	0.593055	0.416970
	H57	H	0.874855	0.593065	0.593049
	H58	H	0.098660	0.413998	0.592963
	H59	H	0.872026	0.418626	0.411065
	H60	H	0.097874	0.418801	0.595385
	H61	H	0.873684	0.592820	0.597052
	H62	H	0.098555	0.595765	0.422732
	H63	H	0.871604	0.408366	0.419761
	H64	H	0.390807	0.594494	0.120980
	H65	H	0.572249	0.596512	0.894690
	H66	H	0.575910	0.420977	0.120323
	H67	H	0.395491	0.416480	0.894736
	H68	H	0.574305	0.119460	0.412017
	H69	H	0.581217	0.890860	0.600897
	H70	H	0.398932	0.116244	0.597687
	H71	H	0.394713	0.892417	0.415911
	H72	H	0.903453	0.614004	0.094994
	H73	H	0.069475	0.394688	0.100413
	H74	H	0.075911	0.618018	0.916161
	H75	H	0.895089	0.393376	0.916644
	H76	H	0.072169	0.921538	0.617365
	H77	H	0.071325	0.096274	0.394355
	H78	H	0.890837	0.105918	0.625764
	H79	H	0.901514	0.917923	0.398185
	H80	H	0.597808	0.095244	0.920792
	H81	H	0.373667	0.095124	0.095425
	H82	H	0.596300	0.920309	0.091795
	H83	H	0.368871	0.908204	0.915796
	H84	H	0.600073	0.920087	0.098188
	H85	H	0.375477	0.094419	0.093741
	H86	H	0.598710	0.093538	0.916448
	H87	H	0.375287	0.917021	0.927186
	H88	H	0.889994	0.086251	0.619392
	H89	H	0.076300	0.094787	0.393359
	H90	H	0.069641	0.913606	0.619500
	H91	H	0.897857	0.909836	0.393613
	H92	H	0.070926	0.616858	0.917257
	H93	H	0.073335	0.395478	0.089975
	H94	H	0.892178	0.616408	0.090782
	H95	H	0.898199	0.395010	0.917569
	H96	H	0.397157	0.115858	0.593683
	H97	H	0.571189	0.893489	0.600820
	H98	H	0.570406	0.113859	0.422193
	H99	H	0.404788	0.896037	0.416817
	H100	H	0.568753	0.416800	0.119435
	H101	H	0.574632	0.594020	0.895186
	H102	H	0.401778	0.589624	0.115363
	H103	H	0.398210	0.416629	0.895835
	H104	H	0.095454	0.590471	0.421339
	H105	H	0.873327	0.596375	0.594748
	H106	H	0.098775	0.414454	0.598258
	H107	H	0.877443	0.420212	0.423438
	H108	H	0.895158	0.619370	0.101793
	H109	H	0.079929	0.391133	0.097998
	H110	H	0.074755	0.615973	0.920661
	H111	H	0.895989	0.394859	0.920164
	H112	H	0.077264	0.915928	0.622233
	H113	H	0.072637	0.091355	0.395378
	H114	H	0.907795	0.096717	0.617331
	H115	H	0.892176	0.917957	0.393988
	H116	H	0.599715	0.097797	0.917353
	H117	H	0.374950	0.092769	0.095125
	H118	H	0.599711	0.914572	0.093976
	H119	H	0.372032	0.923738	0.912948
	C120	C	0.364242	0.013808	0.629075
	C121	C	0.607347	0.996687	0.629179
	C122	C	0.608134	0.014015	0.385928
	C123	C	0.365126	0.997013	0.385830
	C124	C	0.605549	0.385410	0.016890
	C125	C	0.606743	0.627561	0.998293
	C126	C	0.364455	0.627678	0.014986
	C127	C	0.363805	0.383471	0.998570
	C128	C	-0.005770	0.626046	0.387059
	C129	C	0.977523	0.626434	0.628799
	C130	C	-0.005780	0.383863	0.627794
	C131	C	0.977510	0.383635	0.385534
	C132	C	0.863984	0.513707	0.128849
	C133	C	0.107154	0.496761	0.128741
	C134	C	0.106285	0.513473	0.885733
	C135	C	0.863037	0.496995	0.885004
	C136	C	0.106720	0.883958	0.516689
	C137	C	0.106233	0.125986	0.498209
	C138	C	0.864379	0.126889	0.516048
	C139	C	0.864790	0.883842	0.499453
	C140	C	0.494410	0.127262	0.885956
	C141	C	0.478350	0.126981	0.127969
	C142	C	0.494997	0.885386	0.127165
	C143	C	0.476709	0.884939	0.886248
	C144	C	0.360999	0.896880	0.690559
	C145	C	0.608048	0.115008	0.687530
	C146	C	0.610360	0.896853	0.325207
	C147	C	0.360689	0.113865	0.324314
	C148	C	0.665483	0.383628	0.898614
	C149	C	0.667655	0.630379	0.116208
	C150	C	0.304269	0.629160	0.896823
	C151	C	0.303141	0.381566	0.116599
	C152	C	0.876000	0.686133	0.384062
	C153	C	0.095336	0.687523	0.633214
	C154	C	0.875468	0.324540	0.629963
	C155	C	0.095494	0.323080	0.382486
	C156	C	0.875162	0.382933	0.686818
	C157	C	0.095640	0.629074	0.690331
	C158	C	0.876172	0.628666	0.326005
	C159	C	0.095975	0.381444	0.325371
	C160	C	0.360339	0.688516	0.897312
	C161	C	0.611138	0.689244	0.115473
	C162	C	0.608180	0.325596	0.898877
	C163	C	0.359509	0.322397	0.115915
	C164	C	0.668118	0.896368	0.383250
	C165	C	0.666176	0.114845	0.629755
	C166	C	0.302953	0.896973	0.632911
	C167	C	0.303243	0.113797	0.382891
	C168	C	0.860571	0.396613	0.190074
	C169	C	0.110221	0.613674	0.189685
	C170	C	0.107911	0.395413	0.826662
	C171	C	0.859321	0.613454	0.823262
	C172	C	0.168414	0.880726	0.399258
	C173	C	0.165821	0.127265	0.617064
	C174	C	0.805512	0.127431	0.397197
	C175	C	0.805870	0.883465	0.618426
	C176	C	0.375869	0.186868	0.883431
	C177	C	0.596127	0.188133	0.131845
	C178	C	0.377178	0.824797	0.130481
	C179	C	0.595640	0.825064	0.883295
	C180	C	0.377084	0.882732	0.187913
	C181	C	0.596536	0.129796	0.189074
	C182	C	0.375561	0.128446	0.826231
	C183	C	0.596261	0.884245	0.827321
	C184	C	0.861815	0.186284	0.397679
	C185	C	0.109365	0.186060	0.616332
	C186	C	0.111046	0.822648	0.399325
	C187	C	0.861685	0.823853	0.617741
	C188	C	0.166303	0.395766	0.884326
	C189	C	0.167937	0.614115	0.131531
	C190	C	0.803395	0.396395	0.131149
	C191	C	0.801877	0.613780	0.881811
	C192	C	0.389699	0.095527	0.603335
	C193	C	0.583277	0.914336	0.604864
	C194	C	0.582864	0.095714	0.411402
	C195	C	0.391713	0.916137	0.411787
	C196	C	0.580529	0.410092	0.099447
	C197	C	0.580090	0.601911	0.916641
	C198	C	0.390488	0.602536	0.097091
	C199	C	0.389631	0.408738	0.916255
	C200	C	0.076053	0.600370	0.412805
	C201	C	0.895210	0.601211	0.602265
	C202	C	0.076923	0.408708	0.602609
	C203	C	0.895170	0.408630	0.410702
	C204	C	0.889715	0.595168	0.103235
	C205	C	0.081720	0.415003	0.103239
	C206	C	0.081174	0.595446	0.910822
	C207	C	0.888898	0.415515	0.910813
	C208	C	0.080457	0.909671	0.598452
	C209	C	0.080872	0.101202	0.415921
	C210	C	0.889180	0.103103	0.599149
	C211	C	0.889845	0.908311	0.416656
	C212	C	0.577197	0.102726	0.911139
	C213	C	0.396203	0.101463	0.102239
	C214	C	0.577380	0.910897	0.101756
	C215	C	0.393812	0.909271	0.911329
	Zn216	Zn	0.485287	0.005564	0.758137
	Zn217	Zn	0.486695	0.005903	0.256570
	Zn218	Zn	0.734512	0.505985	0.007962
	Zn219	Zn	0.236110	0.505712	0.006952
	Zn220	Zn	-0.014372	0.755492	0.508078
	Zn221	Zn	-0.014293	0.255049	0.506988
	Zn222	Zn	-0.014745	0.504815	0.756334
	Zn223	Zn	-0.013997	0.504970	0.257529
	Zn224	Zn	0.485919	0.756398	0.006336
	Zn225	Zn	0.485695	0.255747	0.007631
	Zn226	Zn	0.736673	0.004921	0.507374
	Zn227	Zn	0.235298	0.005117	0.507755
	N228	N	0.398290	0.970670	0.688323
	N229	N	0.572405	0.040388	0.687536
	N230	N	0.573612	0.971089	0.326775
	N231	N	0.398506	0.040264	0.325943
	N232	N	0.663860	0.420089	0.973117
	N233	N	0.665209	0.593028	0.042250
	N234	N	0.306503	0.592252	0.971085
	N235	N	0.305907	0.419114	0.042572
	N236	N	0.950443	0.684772	0.421432
	N237	N	0.020768	0.686137	0.595837
	N238	N	0.950608	0.324850	0.593874
	N239	N	0.020759	0.324333	0.419169
	N240	N	0.950127	0.418734	0.685850
	N241	N	0.021223	0.591976	0.687854
	N242	N	0.950821	0.592115	0.327454
	N243	N	0.021500	0.418538	0.327139
	N244	N	0.396813	0.688137	0.972122
	N245	N	0.574024	0.687786	0.040969
	N246	N	0.571992	0.326195	0.973572
	N247	N	0.396230	0.323358	0.041333
	N248	N	0.666618	0.970129	0.420475
	N249	N	0.665937	0.040276	0.594143
	N250	N	0.305059	0.970524	0.594981
	N251	N	0.305767	0.040258	0.420517
	N252	N	0.897353	0.470659	0.188950
	N253	N	0.073373	0.539706	0.188036
	N254	N	0.071613	0.469713	0.827306
	N255	N	0.896739	0.539754	0.825137
	N256	N	0.165942	0.917930	0.473296
	N257	N	0.164169	0.090757	0.542513
	N258	N	0.806662	0.091546	0.472064
	N259	N	0.807603	0.919892	0.543772
	N260	N	0.450940	0.186572	0.919645
	N261	N	0.521400	0.186741	0.094909
	N262	N	0.451590	0.826293	0.093356
	N263	N	0.520189	0.824990	0.918857
	N264	N	0.451422	0.919891	0.185956
	N265	N	0.522297	0.092532	0.186849
	N266	N	0.450342	0.092258	0.827784
	N267	N	0.521145	0.920470	0.828927
	N268	N	0.897358	0.186419	0.472930
	N269	N	0.073136	0.185713	0.541435
	N270	N	0.073584	0.824288	0.473411
	N271	N	0.897613	0.824021	0.542586
	N272	N	0.165906	0.470471	0.919922
	N273	N	0.166313	0.540276	0.094480
	N274	N	0.805260	0.470235	0.093978
	N275	N	0.804310	0.540336	0.919862
	O276	O	0.778238	1.202155	-0.018371
	H277	H	0.762786	1.206588	-0.009939
	H278	H	0.772070	1.196141	-0.042813
	O279	O	0.102107	-0.139276	1.152067
	H280	H	0.118055	-0.152166	1.153841
	H281	H	0.110649	-0.139290	1.144083
	O282	O	0.964144	0.978504	0.995463
	H283	H	0.960772	0.975926	0.992871
	H284	H	0.961799	0.986596	1.009454
	O285	O	0.273629	0.716170	0.488416
	H286	H	0.264863	0.725414	0.483054
	H287	H	0.273350	0.722117	0.485124
	O288	O	1.617169	-0.541793	1.520565
	H289	H	1.614689	-0.548167	1.502515
	H290	H	1.600818	-0.524490	1.523383
	O291	O	0.665704	0.516104	0.715407
	H292	H	0.650538	0.540684	0.715263
	H293	H	0.681250	0.531111	0.736404
	O294	O	0.561907	-0.528488	-0.584261
	H295	H	0.546409	-0.523388	-0.586562
	H296	H	0.571176	-0.531703	-0.582306
	O297	O	1.540385	0.605895	-0.435738
	H298	H	1.548052	0.610402	-0.426455
	H299	H	1.547395	0.607479	-0.437352
	O300	O	0.066342	0.144898	-0.152765
	H301	H	0.053504	0.158642	-0.166432
	H302	H	0.055847	0.145099	-0.135913
	O303	O	0.205487	-0.214383	-0.021730
	H304	H	0.238322	-0.239904	-0.029957
	H305	H	0.205755	-0.199337	-0.041030
	O306	O	0.823533	0.081607	-0.202406
	H307	H	0.814119	0.086500	-0.218031
	H308	H	0.821925	0.075548	-0.198416
	O309	O	0.501326	0.674581	0.547819
	H310	H	0.487355	0.671489	0.549320
	H311	H	0.504376	0.671759	0.542920
	O312	O	0.279532	0.304519	0.710885
	H313	H	0.277576	0.310254	0.697316
	H314	H	0.298207	0.291982	0.698426
	O315	O	0.833355	1.018807	0.101517
	H316	H	0.840389	1.018168	0.092667
	H317	H	0.855897	1.017777	0.102378
	O318	O	0.807777	0.868633	-0.061279
	H319	H	0.813957	0.878809	-0.042078
	H320	H	0.815655	0.880041	-0.050871
	O321	O	0.206844	0.995484	1.020186
	H322	H	0.207754	1.014833	1.010493
	H323	H	0.202889	0.992272	1.006892
	O324	O	0.914259	-0.107226	0.835207
	H325	H	0.920167	-0.112968	0.840843
	H326	H	0.925754	-0.123028	0.840188
	O327	O	1.321392	0.499126	0.337372
	H328	H	1.317120	0.499352	0.336003
	H329	H	1.325611	0.500564	0.328277
	O330	O	0.507359	0.285962	0.291687
	H331	H	0.508885	0.253831	0.263800
	H332	H	0.527644	0.302790	0.300131
	O333	O	0.457371	0.296744	0.709242
	H334	H	0.458537	0.299809	0.706693
	H335	H	0.451800	0.288859	0.715403
	O336	O	0.258951	0.736694	0.275440
	H337	H	0.279371	0.718891	0.289656
	H338	H	0.276811	0.726616	0.280926
	O339	O	0.519743	0.430746	0.687643
	H340	H	0.516348	0.440827	0.685563
	H341	H	0.505244	0.438042	0.675686
	O342	O	0.105703	1.028234	0.109693
	H343	H	0.105673	1.024309	0.112267
	H344	H	0.107120	1.016938	0.107952
	O345	O	-0.369270	0.460460	0.296527
	H346	H	-0.362063	0.467141	0.296650
	H347	H	-0.360527	0.453031	0.290387
	O348	O	0.322923	0.648802	0.657785
	H349	H	0.306070	0.643950	0.668448
	H350	H	0.331136	0.644484	0.629404
	O351	O	-0.153981	0.108388	0.991828
	H352	H	-0.148294	0.084412	0.989637
	H353	H	-0.170147	0.110346	0.987901
	O354	O	0.673465	0.572462	1.315728
	H355	H	0.692521	0.564155	1.298451
	H356	H	0.672715	0.581038	1.330413
	O357	O	0.560713	0.704826	0.318114
	H358	H	0.575464	0.700192	0.323630
	H359	H	0.575772	0.710975	0.304068
	O360	O	0.598100	0.425443	0.529918
	H361	H	0.603312	0.429569	0.531250
	H362	H	0.596705	0.436896	0.526306
	O363	O	1.135973	1.116002	0.857511
	H364	H	1.129696	1.133674	0.840500
	H365	H	1.120950	1.128048	0.884548
	O366	O	1.100906	-0.115648	0.796585
	H367	H	1.129184	-0.098322	0.807587
	H368	H	1.102762	-0.117674	0.771428
	O369	O	-0.123499	0.149205	1.113819
	H370	H	-0.112966	0.147886	1.112407
	H371	H	-0.116530	0.134659	1.113714
	O372	O	0.205274	0.224206	0.224013
	H373	H	0.198904	0.187751	0.217503
	H374	H	0.178915	0.223360	0.233215
	O375	O	1.024003	-0.219194	0.034815
	H376	H	1.027206	-0.206541	0.035808
	H377	H	1.046351	-0.220760	0.025649
	O378	O	-0.008554	-0.128096	1.224113
	H379	H	-0.000315	-0.143990	1.242797
	H380	H	-0.001251	-0.133452	1.212308
	O381	O	0.100710	0.889825	-0.204180
	H382	H	0.106296	0.878457	-0.226142
	H383	H	0.083716	0.899030	-0.174879
	O384	O	0.702171	0.662929	0.509464
	H385	H	0.704625	0.659667	0.525898
	H386	H	0.712610	0.676732	0.514782
	O387	O	0.260346	0.468525	1.660777
	H388	H	0.247618	0.456658	1.673136
	H389	H	0.256591	0.443935	1.666520
	O390	O	0.175718	0.818153	0.816344
	H391	H	0.183816	0.848926	0.831603
	H392	H	0.156968	0.829392	0.802443
	O393	O	0.471875	-0.410455	-0.323774
	H394	H	0.461032	-0.418390	-0.323519
	H395	H	0.476340	-0.419655	-0.321146
	O396	O	0.364739	0.443262	0.442987
	H397	H	0.368165	0.444063	0.431110
	H398	H	0.367673	0.446169	0.452921
	O399	O	0.812947	1.019538	0.216562
	H400	H	0.827233	1.012337	0.207599
	H401	H	0.801292	1.020129	0.237047
	O402	O	1.485317	-0.705057	1.483801
	H403	H	1.482946	-0.706735	1.460339
	H404	H	1.480716	-0.708604	1.479468
	O405	O	0.185472	-0.067966	0.206020
	H406	H	0.191090	-0.077977	0.200161
	H407	H	0.213141	-0.078312	0.222907
	O408	O	1.193973	1.217075	1.031646
	H409	H	1.210855	1.235649	1.036699
	H410	H	1.178705	1.222263	1.053148
	O411	O	1.377636	1.457837	0.572214
	H412	H	1.369560	1.461642	0.564206
	H413	H	1.390810	1.463662	0.564225
	O414	O	-0.009391	0.075991	0.180235
	H415	H	-0.018731	0.072306	0.181223
	H416	H	-0.015423	0.068522	0.172689
	O417	O	1.068084	0.168326	-0.030478
	H418	H	1.059998	0.176924	-0.028105
	H419	H	1.060672	0.166610	-0.024462
	O420	O	0.784909	-0.194574	1.207276
	H421	H	0.828447	-0.197595	1.208661
	H422	H	0.781039	-0.165556	1.193818
	O423	O	0.621324	1.333705	-0.483049
	H424	H	0.628076	1.319599	-0.469508
	H425	H	0.611545	1.327970	-0.482180
	O426	O	-0.014512	1.169016	-0.155776
	H427	H	-0.038598	1.179030	-0.150802
	H428	H	-0.033453	1.174919	-0.170375
	O429	O	0.599939	0.383550	0.584264
	H430	H	0.604701	0.383032	0.590570
	H431	H	0.579063	0.398314	0.592282
	O432	O	0.885285	0.074307	1.056132
	H433	H	0.868319	0.088048	1.050944
	H434	H	0.886965	0.078932	1.061883
	O435	O	0.455498	0.625671	0.374934
	H436	H	0.458890	0.625031	0.365982
	H437	H	0.485014	0.625534	0.393411
	O438	O	0.543620	0.686348	0.457408
	H439	H	0.561318	0.693723	0.465587
	H440	H	0.556606	0.673251	0.455252
	O441	O	0.818328	1.160443	-0.147278
	H442	H	0.798400	1.176113	-0.179907
	H443	H	0.808107	1.129902	-0.147388
	O444	O	0.523693	0.725022	0.723595
	H445	H	0.497074	0.717091	0.720806
	H446	H	0.510814	0.744717	0.744113
	O447	O	0.479745	0.513487	0.317098
	H448	H	0.498139	0.507533	0.320126
	H449	H	0.471077	0.496336	0.321158
	O450	O	0.774003	-0.212871	0.029585
	H451	H	0.764434	-0.216996	0.049834
	H452	H	0.766203	-0.221355	0.028941
	O453	O	0.678922	0.307428	0.328899
	H454	H	0.670684	0.313312	0.338974
	H455	H	0.691712	0.319570	0.347680
	O456	O	-0.064338	0.903066	0.910423
	H457	H	-0.052769	0.907792	0.904881
	H458	H	-0.060714	0.894796	0.898215
	O459	O	0.722070	0.268979	0.743935
	H460	H	0.699510	0.288827	0.727761
	H461	H	0.702592	0.282578	0.747205
	O462	O	0.278494	0.294161	0.538039
	H463	H	0.285221	0.309891	0.526458
	H464	H	0.259962	0.275197	0.534173
	O465	O	0.303519	0.479344	0.302730
	H466	H	0.314467	0.482190	0.306074
	H467	H	0.287230	0.465617	0.282252
	O468	O	0.025030	1.211495	0.168902
	H469	H	0.010758	1.203691	0.142263
	H470	H	0.016655	1.223167	0.186841
	O471	O	0.683729	0.695692	0.694866
	H472	H	0.683388	0.710845	0.702026
	H473	H	0.647657	0.692373	0.703737
	O474	O	0.965720	0.868919	0.113836
	H475	H	0.975688	0.856112	0.109362
	H476	H	0.960796	0.868139	0.102750
	O477	O	0.308841	0.542136	0.521661
	H478	H	0.304025	0.562238	0.519862
	H479	H	0.309361	0.538158	0.526698
