data_Molecule from HDF5

_cell_length_a		16.453503
_cell_length_b		16.357263
_cell_length_c		16.151157
_cell_angle_alpha	90.143382
_cell_angle_beta	89.927634
_cell_angle_gamma	89.745533
_symmetry_space_group_name_H-M	'P 1'
_symmetry_Int_Tables_number		1

loop_
	_symmetry_equiv_pos_as_xyz
	x,y,z

loop_
	_atom_site_label
	_atom_site_type_symbol
	_atom_site_fract_x
	_atom_site_fract_y
	_atom_site_fract_z
	H0	H	0.397994	0.818722	0.719230
	H1	H	0.595176	0.143033	0.720554
	H2	H	0.598293	0.819380	0.287152
	H3	H	0.398437	0.143774	0.288090
	H4	H	0.716941	0.374022	0.838893
	H5	H	0.714322	0.581064	0.164943
	H6	H	0.279641	0.582119	0.839268
	H7	H	0.279324	0.378777	0.165192
	H8	H	0.837374	0.701410	0.401322
	H9	H	0.159352	0.700318	0.605726
	H10	H	0.837661	0.263686	0.606805
	H11	H	0.157080	0.260190	0.397238
	H12	H	0.835860	0.385253	0.717008
	H13	H	0.159739	0.580553	0.718831
	H14	H	0.836064	0.581024	0.287384
	H15	H	0.159361	0.381766	0.285900
	H16	H	0.395898	0.697393	0.838956
	H17	H	0.598977	0.696310	0.165288
	H18	H	0.597254	0.262931	0.838498
	H19	H	0.396421	0.266538	0.166165
	H20	H	0.718376	0.821865	0.399235
	H21	H	0.715254	0.142002	0.610199
	H22	H	0.278578	0.820577	0.606994
	H23	H	0.276010	0.141103	0.397309
	H24	H	0.898826	0.319701	0.218678
	H25	H	0.100285	0.642642	0.220852
	H26	H	0.097930	0.318984	0.784948
	H27	H	0.899379	0.644252	0.789982
	H28	H	0.217388	0.876756	0.340997
	H29	H	0.217229	0.087412	0.664670
	H30	H	0.778012	0.085542	0.340873
	H31	H	0.780161	0.881616	0.666648
	H32	H	0.337823	0.202377	0.898628
	H33	H	0.657813	0.199523	0.105769
	H34	H	0.337783	0.760831	0.106824
	H35	H	0.656897	0.758550	0.897258
	H36	H	0.336133	0.881766	0.219853
	H37	H	0.659160	0.080868	0.219027
	H38	H	0.336158	0.082289	0.785806
	H39	H	0.658205	0.879681	0.786571
	H40	H	0.895259	0.198383	0.339850
	H41	H	0.097113	0.198858	0.666167
	H42	H	0.100292	0.764191	0.340665
	H43	H	0.897849	0.767706	0.667120
	H44	H	0.217735	0.319946	0.896469
	H45	H	0.218124	0.640816	0.106424
	H46	H	0.780072	0.320344	0.105833
	H47	H	0.775812	0.639861	0.896334
	H48	H	0.406059	0.095500	0.594426
	H49	H	0.583163	0.868337	0.593040
	H50	H	0.589475	0.097002	0.413529
	H51	H	0.407788	0.865767	0.411254
	H52	H	0.582117	0.385218	0.117409
	H53	H	0.591269	0.571140	0.883572
	H54	H	0.406548	0.571512	0.118398
	H55	H	0.404795	0.388948	0.884650
	H56	H	0.115613	0.578042	0.404996
	H57	H	0.882700	0.576880	0.597626
	H58	H	0.112299	0.394876	0.598251
	H59	H	0.882405	0.388661	0.408567
	H60	H	0.114633	0.383340	0.593363
	H61	H	0.883436	0.578686	0.594386
	H62	H	0.110948	0.578662	0.419974
	H63	H	0.884090	0.388678	0.414788
	H64	H	0.405552	0.569898	0.118081
	H65	H	0.588371	0.564538	0.887585
	H66	H	0.598384	0.386526	0.122225
	H67	H	0.406612	0.393775	0.886432
	H68	H	0.587821	0.096665	0.412788
	H69	H	0.595310	0.867297	0.586670
	H70	H	0.407670	0.094459	0.591688
	H71	H	0.407751	0.867711	0.415510
	H72	H	0.903444	0.596300	0.092494
	H73	H	0.081825	0.369804	0.090628
	H74	H	0.089253	0.597592	0.904512
	H75	H	0.909423	0.364586	0.905490
	H76	H	0.089002	0.893977	0.619596
	H77	H	0.092924	0.062619	0.388878
	H78	H	0.906244	0.069761	0.618422
	H79	H	0.912428	0.882633	0.385930
	H80	H	0.611675	0.074351	0.912453
	H81	H	0.383112	0.076683	0.094564
	H82	H	0.610885	0.887250	0.091373
	H83	H	0.384296	0.889220	0.916406
	H84	H	0.611529	0.888514	0.094284
	H85	H	0.384217	0.073100	0.093495
	H86	H	0.610300	0.071198	0.916613
	H87	H	0.382944	0.890867	0.910184
	H88	H	0.908068	0.076513	0.620073
	H89	H	0.078541	0.069329	0.390288
	H90	H	0.087047	0.891630	0.619738
	H91	H	0.896025	0.893065	0.384410
	H92	H	0.084073	0.591601	0.917155
	H93	H	0.094414	0.368115	0.085275
	H94	H	0.905018	0.596208	0.093432
	H95	H	0.909540	0.367569	0.915030
	H96	H	0.404247	0.095515	0.591987
	H97	H	0.594023	0.862725	0.599939
	H98	H	0.588272	0.096058	0.414399
	H99	H	0.403750	0.866531	0.413458
	H100	H	0.590627	0.399859	0.114744
	H101	H	0.583615	0.571135	0.886235
	H102	H	0.407494	0.569448	0.117473
	H103	H	0.409572	0.388900	0.886844
	H104	H	0.109563	0.565608	0.411334
	H105	H	0.885022	0.574911	0.594540
	H106	H	0.109272	0.392332	0.585848
	H107	H	0.884792	0.394085	0.411063
	H108	H	0.904730	0.595406	0.091436
	H109	H	0.091604	0.364008	0.098440
	H110	H	0.096700	0.597355	0.915898
	H111	H	0.901185	0.363450	0.911397
	H112	H	0.090268	0.890896	0.620339
	H113	H	0.090072	0.077303	0.383926
	H114	H	0.901418	0.073836	0.621400
	H115	H	0.911977	0.901151	0.391788
	H116	H	0.610487	0.069325	0.911514
	H117	H	0.382308	0.073882	0.096553
	H118	H	0.612029	0.885836	0.093449
	H119	H	0.381525	0.884354	0.912600
	C120	C	0.375693	-0.010785	0.624244
	C121	C	0.619217	0.973003	0.624946
	C122	C	0.619203	-0.009794	0.382176
	C123	C	0.375587	0.972701	0.381951
	C124	C	0.619890	0.358834	0.010249
	C125	C	0.618450	0.599864	0.993478
	C126	C	0.376557	0.600821	0.010372
	C127	C	0.376434	0.360446	0.993636
	C128	C	0.006195	0.604517	0.381498
	C129	C	0.989942	0.605572	0.625587
	C130	C	0.005787	0.360809	0.623469
	C131	C	0.989467	0.359395	0.380313
	C132	C	0.875642	0.489630	0.123567
	C133	C	0.119666	0.473135	0.123155
	C134	C	0.120009	0.489199	0.880504
	C135	C	0.876183	0.471929	0.880443
	C136	C	0.119127	0.860977	0.512077
	C137	C	0.117727	0.101551	0.494812
	C138	C	0.874582	0.104216	0.512342
	C139	C	0.876679	0.862279	0.495037
	C140	C	0.504728	0.102105	0.882376
	C141	C	0.489239	0.103927	0.125307
	C142	C	0.505583	0.858347	0.124292
	C143	C	0.488872	0.857664	0.881404
	C144	C	0.377412	0.867429	0.681280
	C145	C	0.616047	0.094528	0.682453
	C146	C	0.618609	0.868434	0.324887
	C147	C	0.377130	0.094611	0.325243
	C148	C	0.677490	0.356422	0.887703
	C149	C	0.675858	0.600304	0.115894
	C150	C	0.318631	0.601289	0.887705
	C151	C	0.318194	0.359835	0.116418
	C152	C	0.885352	0.662112	0.381721
	C153	C	0.111142	0.661421	0.624618
	C154	C	0.885297	0.303587	0.624663
	C155	C	0.109836	0.300773	0.379367
	C156	C	0.884326	0.363878	0.679656
	C157	C	0.111460	0.601966	0.681153
	C158	C	0.884722	0.602347	0.325078
	C159	C	0.110716	0.360992	0.323762
	C160	C	0.376156	0.658988	0.887891
	C161	C	0.618015	0.657500	0.116326
	C162	C	0.618240	0.300727	0.887609
	C163	C	0.376718	0.304171	0.117057
	C164	C	0.678196	0.869588	0.380797
	C165	C	0.675747	0.094125	0.627375
	C166	C	0.317959	0.868269	0.625416
	C167	C	0.316369	0.093417	0.379682
	C168	C	0.878176	0.368323	0.180784
	C169	C	0.119279	0.594347	0.181607
	C170	C	0.118379	0.367483	0.823066
	C171	C	0.877879	0.594565	0.825793
	C172	C	0.177939	0.858824	0.389776
	C173	C	0.176811	0.104833	0.616524
	C174	C	0.816834	0.104517	0.389910
	C175	C	0.818961	0.862251	0.617793
	C176	C	0.384993	0.161628	0.880766
	C177	C	0.609707	0.160803	0.124962
	C178	C	0.385373	0.800496	0.125549
	C179	C	0.609200	0.798808	0.879444
	C180	C	0.384481	0.860811	0.181575
	C181	C	0.610562	0.101473	0.181279
	C182	C	0.384415	0.101647	0.824527
	C183	C	0.609763	0.858914	0.824253
	C184	C	0.875391	0.160589	0.389215
	C185	C	0.117324	0.160594	0.617210
	C186	C	0.119658	0.802740	0.389445
	C187	C	0.877401	0.805541	0.617989
	C188	C	0.178071	0.368053	0.878579
	C189	C	0.178216	0.593447	0.124977
	C190	C	0.819544	0.368304	0.124124
	C191	C	0.816697	0.592317	0.879035
	C192	C	0.399052	0.073233	0.599830
	C193	C	0.597293	0.888103	0.600134
	C194	C	0.595304	0.074873	0.406527
	C195	C	0.399457	0.888566	0.406310
	C196	C	0.597098	0.383481	0.095939
	C197	C	0.594834	0.575982	0.907908
	C198	C	0.399697	0.577020	0.095745
	C199	C	0.400001	0.383775	0.908226
	C200	C	0.090257	0.581044	0.405124
	C201	C	0.905631	0.583314	0.602320
	C202	C	0.090100	0.383460	0.599418
	C203	C	0.905406	0.383303	0.404568
	C204	C	0.897879	0.574178	0.099437
	C205	C	0.096217	0.389119	0.098463
	C206	C	0.096673	0.573670	0.905208
	C207	C	0.899838	0.387142	0.903666
	C208	C	0.095607	0.885139	0.597517
	C209	C	0.094053	0.076730	0.409850
	C210	C	0.898418	0.080317	0.597981
	C211	C	0.900040	0.885533	0.409626
	C212	C	0.588897	0.078578	0.906556
	C213	C	0.405023	0.081313	0.101739
	C214	C	0.589566	0.880650	0.100126
	C215	C	0.404855	0.881408	0.905909
	Zn216	Zn	0.497629	-0.019712	0.752899
	Zn217	Zn	0.497696	-0.019064	0.253348
	Zn218	Zn	0.747689	0.479637	0.000989
	Zn219	Zn	0.248264	0.480161	0.002293
	Zn220	Zn	-0.002106	0.734035	0.503533
	Zn221	Zn	-0.002748	0.230763	0.502820
	Zn222	Zn	-0.002222	0.481813	0.752882
	Zn223	Zn	-0.002200	0.481916	0.251662
	Zn224	Zn	0.497667	0.728617	0.002083
	Zn225	Zn	0.497042	0.232613	0.003288
	Zn226	Zn	0.747663	-0.017400	0.503986
	Zn227	Zn	0.247240	-0.018617	0.502906
	N228	N	0.412491	0.943459	0.680904
	N229	N	0.581729	0.018095	0.681016
	N230	N	0.583099	0.944671	0.325325
	N231	N	0.413113	0.018653	0.326353
	N232	N	0.678711	0.391603	0.965031
	N233	N	0.676028	0.565191	0.038459
	N234	N	0.318646	0.565981	0.964949
	N235	N	0.317667	0.393801	0.038549
	N236	N	0.961837	0.663791	0.415655
	N237	N	0.034479	0.663767	0.590709
	N238	N	0.961705	0.301738	0.590151
	N239	N	0.033411	0.299641	0.413966
	N240	N	0.960286	0.398725	0.679010
	N241	N	0.035273	0.567952	0.681850
	N242	N	0.960955	0.567493	0.324635
	N243	N	0.034905	0.396585	0.324233
	N244	N	0.411356	0.658734	0.964932
	N245	N	0.583102	0.657539	0.038961
	N246	N	0.583281	0.301903	0.964990
	N247	N	0.411943	0.304203	0.039833
	N248	N	0.678941	0.946490	0.415412
	N249	N	0.677718	0.017462	0.592263
	N250	N	0.316581	0.945054	0.590819
	N251	N	0.315317	0.016591	0.414105
	N252	N	0.912420	0.444894	0.180503
	N253	N	0.083367	0.518716	0.180347
	N254	N	0.082971	0.443731	0.824236
	N255	N	0.914269	0.518676	0.826446
	N256	N	0.177710	0.894425	0.467121
	N257	N	0.177126	0.068868	0.539580
	N258	N	0.816184	0.070238	0.467596
	N259	N	0.818372	0.896792	0.540289
	N260	N	0.460895	0.161950	0.916028
	N261	N	0.533068	0.162725	0.090986
	N262	N	0.461571	0.798883	0.090529
	N263	N	0.532835	0.797817	0.914099
	N264	N	0.460272	0.895918	0.180989
	N265	N	0.534667	0.067023	0.181643
	N266	N	0.459862	0.065300	0.825516
	N267	N	0.534027	0.894782	0.825159
	N268	N	0.910516	0.160628	0.466522
	N269	N	0.081208	0.158905	0.540427
	N270	N	0.083824	0.803898	0.466392
	N271	N	0.912499	0.805216	0.540757
	N272	N	0.179294	0.444750	0.913694
	N273	N	0.178464	0.517250	0.089167
	N274	N	0.817716	0.444792	0.089268
	N275	N	0.815414	0.514919	0.912110
	O276	O	0.415898	0.448029	0.311275
	H277	H	0.412187	0.436226	0.313902
	H278	H	0.412636	0.436208	0.309119
	O279	O	0.410467	0.351779	0.498142
	H280	H	0.402095	0.347989	0.503076
	H281	H	0.427118	0.346492	0.505016
	O282	O	0.516771	0.592967	0.561465
	H283	H	0.510267	0.569354	0.565461
	H284	H	0.518541	0.598711	0.559752
	O285	O	0.469785	0.333959	0.490998
	H286	H	0.466405	0.334104	0.494905
	H287	H	0.482755	0.342498	0.489731
	O288	O	1.096763	0.949033	0.936930
	H289	H	1.103560	0.950261	0.928965
	H290	H	1.094799	0.965462	0.943259
	O291	O	-0.013500	1.112052	-0.134909
	H292	H	-0.011993	1.123904	-0.143746
	H293	H	-0.006894	1.117701	-0.121708
	O294	O	0.511146	0.486541	0.499414
	H295	H	0.514528	0.489646	0.492313
	H296	H	0.519634	0.466367	0.501668
	O297	O	0.325355	0.492198	0.568110
	H298	H	0.321976	0.498864	0.559507
	H299	H	0.334265	0.483658	0.571258
	O300	O	0.532537	0.568701	0.486755
	H301	H	0.530075	0.547624	0.490772
	H302	H	0.528706	0.577473	0.488130
	O303	O	0.534666	0.437396	0.521216
	H304	H	0.534080	0.433054	0.522145
	H305	H	0.539333	0.441547	0.520999
	O306	O	0.102029	0.874275	0.847739
	H307	H	0.100328	0.872748	0.829604
	H308	H	0.091035	0.886210	0.848970
	O309	O	0.686042	0.408565	0.387770
	H310	H	0.681506	0.401422	0.377207
	H311	H	0.677492	0.415587	0.386436
	O312	O	-0.052185	-0.184424	-0.062671
	H313	H	-0.041993	-0.187219	-0.045413
	H314	H	-0.055051	-0.175729	-0.048574
	O315	O	0.527712	0.382417	0.404323
	H316	H	0.525503	0.390078	0.408925
	H317	H	0.527943	0.384999	0.412608
	O318	O	0.460532	1.356193	1.550148
	H319	H	0.470277	1.372008	1.543943
	H320	H	0.466609	1.355646	1.543307
	O321	O	0.368759	0.478131	0.627173
	H322	H	0.375219	0.488872	0.626269
	H323	H	0.362220	0.489419	0.629619
	O324	O	-0.149880	1.021604	0.012197
	H325	H	-0.133214	1.025547	0.008852
	H326	H	-0.153427	1.038005	0.001249
	O327	O	0.554768	0.546347	0.521470
	H328	H	0.556466	0.546620	0.527168
	H329	H	0.559091	0.531489	0.522210
	O330	O	-0.062825	-0.072661	0.984373
	H331	H	-0.053879	-0.076000	0.993097
	H332	H	-0.075390	-0.088507	0.987099
	O333	O	-0.017326	-0.073522	1.094280
	H334	H	-0.038779	-0.088794	1.105044
	H335	H	-0.011145	-0.090611	1.099944
	O336	O	0.595068	0.600563	0.518436
	H337	H	0.606931	0.597939	0.524155
	H338	H	0.575308	0.603425	0.525720
	O339	O	0.936305	-0.088918	-0.077931
	H340	H	0.927756	-0.104583	-0.067655
	H341	H	0.949613	-0.092300	-0.068029
	O342	O	0.060946	0.164409	-0.019543
	H343	H	0.062483	0.159946	-0.006264
	H344	H	0.074848	0.162942	-0.014015
	O345	O	1.154566	-0.076979	1.161138
	H346	H	1.159803	-0.081291	1.162478
	H347	H	1.145320	-0.088247	1.158810
	O348	O	0.983287	0.926365	-0.097466
	H349	H	0.987318	0.920530	-0.103732
	H350	H	1.005544	0.919653	-0.093735
	O351	O	0.666070	0.301907	0.434187
	H352	H	0.663828	0.307989	0.425153
	H353	H	0.677451	0.284000	0.420659
	O354	O	1.089716	-0.151405	0.909884
	H355	H	1.107838	-0.148710	0.928005
	H356	H	1.095992	-0.158188	0.909559
	O357	O	0.479913	0.501812	0.468340
	H358	H	0.476374	0.499298	0.473043
	H359	H	0.485048	0.500219	0.460117
	O360	O	0.546591	0.502545	0.608457
	H361	H	0.550714	0.496268	0.602673
	H362	H	0.540079	0.499704	0.615880
	O363	O	0.176057	1.018732	1.096795
	H364	H	0.155674	1.033506	1.088108
	H365	H	0.196314	0.988275	1.094546
	O366	O	0.854099	1.032149	-0.100192
	H367	H	0.868141	1.029244	-0.116540
	H368	H	0.857536	1.016173	-0.098854
	O369	O	-0.188633	1.044261	0.126709
	H370	H	-0.197254	1.050455	0.118359
	H371	H	-0.189444	1.048762	0.113176
	O372	O	0.543492	0.531715	0.475192
	H373	H	0.555227	0.530531	0.468557
	H374	H	0.527885	0.540451	0.470031
	O375	O	0.559961	0.544821	0.609000
	H376	H	0.576158	0.544435	0.604315
	H377	H	0.560126	0.540137	0.616984
	O378	O	1.009002	1.078710	0.170069
	H379	H	1.011997	1.078182	0.152024
	H380	H	0.995365	1.050761	0.172314
	O381	O	1.153406	-0.056701	0.031594
	H382	H	1.139493	-0.057214	0.046002
	H383	H	1.155097	-0.050803	0.029187
	O384	O	0.979233	0.774452	0.147958
	H385	H	0.952464	0.793072	0.139316
	H386	H	0.972129	0.752409	0.167732
	O387	O	-0.060701	0.070283	0.176527
	H388	H	-0.057642	0.068691	0.182963
	H389	H	-0.062418	0.085512	0.163491
	O390	O	-0.153823	0.810375	0.163050
	H391	H	-0.156809	0.823900	0.136410
	H392	H	-0.167286	0.818107	0.173285
	O393	O	0.812937	0.915196	0.953826
	H394	H	0.804916	0.914685	0.942702
	H395	H	0.815562	0.900826	0.969540
	O396	O	0.384553	0.598531	0.410538
	H397	H	0.385733	0.595115	0.421135
	H398	H	0.370128	0.614423	0.419786
	O399	O	-0.074222	1.111679	0.943447
	H400	H	-0.070925	1.108741	0.943016
	H401	H	-0.080106	1.115720	0.942752
	O402	O	0.502832	0.562223	0.480295
	H403	H	0.511194	0.559078	0.484240
	H404	H	0.500719	0.566376	0.479356
	O405	O	1.170249	1.021791	0.037639
	H406	H	1.177071	1.019700	0.030420
	H407	H	1.165681	1.040521	0.049524
	O408	O	1.043517	1.036908	-0.085388
	H409	H	1.047413	1.035856	-0.087739
	H410	H	1.045565	1.029249	-0.100669
	O411	O	1.035026	0.157699	1.058062
	H412	H	1.060189	0.176176	1.065559
	H413	H	1.034794	0.161581	1.068527
	O414	O	0.474286	0.415982	0.563087
	H415	H	0.470659	0.425233	0.565139
	H416	H	0.467042	0.411973	0.568875
	O417	O	0.576981	0.539577	0.438846
	H418	H	0.558698	0.538283	0.439945
	H419	H	0.570200	0.530099	0.437006
