data_Molecule from HDF5

_cell_length_a		16.186998
_cell_length_b		16.322546
_cell_length_c		16.233924
_cell_angle_alpha	89.768899
_cell_angle_beta	89.473768
_cell_angle_gamma	90.017260
_symmetry_space_group_name_H-M	'P 1'
_symmetry_Int_Tables_number		1

loop_
	_symmetry_equiv_pos_as_xyz
	x,y,z

loop_
	_atom_site_label
	_atom_site_type_symbol
	_atom_site_fract_x
	_atom_site_fract_y
	_atom_site_fract_z
	H0	H	0.388693	0.839450	0.719442
	H1	H	0.587325	0.165537	0.716863
	H2	H	0.593265	0.840671	0.283893
	H3	H	0.389365	0.164192	0.285731
	H4	H	0.707082	0.403167	0.835634
	H5	H	0.705639	0.600051	0.163241
	H6	H	0.280804	0.601346	0.835169
	H7	H	0.273078	0.401150	0.162208
	H8	H	0.828755	0.719994	0.397600
	H9	H	0.153907	0.719102	0.599190
	H10	H	0.826651	0.287235	0.603447
	H11	H	0.153891	0.285732	0.397189
	H12	H	0.827951	0.402875	0.716734
	H13	H	0.155129	0.601618	0.711162
	H14	H	0.827436	0.601945	0.284180
	H15	H	0.154923	0.401449	0.282799
	H16	H	0.392722	0.720342	0.837720
	H17	H	0.594064	0.718547	0.162288
	H18	H	0.592941	0.286703	0.836397
	H19	H	0.386384	0.284953	0.162844
	H20	H	0.707187	0.840240	0.401799
	H21	H	0.703656	0.166966	0.600003
	H22	H	0.270798	0.840840	0.606775
	H23	H	0.277713	0.165529	0.404801
	H24	H	0.890751	0.340060	0.217595
	H25	H	0.093293	0.664243	0.214154
	H26	H	0.092064	0.339167	0.782833
	H27	H	0.892868	0.665247	0.783509
	H28	H	0.209622	0.903777	0.338672
	H29	H	0.202253	0.101489	0.666058
	H30	H	0.777908	0.103105	0.337889
	H31	H	0.774709	0.902910	0.664838
	H32	H	0.326345	0.218655	0.901313
	H33	H	0.654585	0.217396	0.097691
	H34	H	0.328424	0.782961	0.106858
	H35	H	0.655633	0.789447	0.901435
	H36	H	0.326275	0.903371	0.217994
	H37	H	0.654617	0.101756	0.214206
	H38	H	0.324258	0.099563	0.789758
	H39	H	0.653286	0.903096	0.784616
	H40	H	0.890289	0.219445	0.337962
	H41	H	0.090080	0.219376	0.663749
	H42	H	0.095353	0.787844	0.337743
	H43	H	0.884516	0.781927	0.662127
	H44	H	0.209933	0.339873	0.896493
	H45	H	0.205368	0.665292	0.095512
	H46	H	0.776350	0.338386	0.099242
	H47	H	0.776667	0.664532	0.899855
	H48	H	0.389459	0.121562	0.598841
	H49	H	0.588739	0.886135	0.589498
	H50	H	0.585712	0.118977	0.408382
	H51	H	0.402787	0.890366	0.421887
	H52	H	0.579130	0.404605	0.116586
	H53	H	0.587552	0.593797	0.882129
	H54	H	0.397482	0.592068	0.117304
	H55	H	0.401099	0.404358	0.880640
	H56	H	0.108905	0.593172	0.404529
	H57	H	0.877676	0.587602	0.584943
	H58	H	0.106847	0.418130	0.592696
	H59	H	0.872044	0.404369	0.407342
	H60	H	0.112296	0.403133	0.595611
	H61	H	0.872630	0.590611	0.599381
	H62	H	0.109349	0.597701	0.404401
	H63	H	0.877355	0.412941	0.416478
	H64	H	0.399571	0.592131	0.115477
	H65	H	0.581123	0.593213	0.885199
	H66	H	0.586934	0.408674	0.117580
	H67	H	0.397027	0.413874	0.882794
	H68	H	0.582836	0.119326	0.405778
	H69	H	0.582270	0.884654	0.601365
	H70	H	0.402339	0.118861	0.601490
	H71	H	0.389514	0.882751	0.409638
	H72	H	0.904776	0.617370	0.094966
	H73	H	0.090099	0.385560	0.084543
	H74	H	0.088068	0.619644	0.901679
	H75	H	0.909810	0.390872	0.913842
	H76	H	0.079853	0.912522	0.616613
	H77	H	0.077088	0.093651	0.387604
	H78	H	0.900289	0.095733	0.617814
	H79	H	0.895561	0.898501	0.378916
	H80	H	0.609044	0.096931	0.902983
	H81	H	0.368850	0.109199	0.093789
	H82	H	0.604692	0.914544	0.088131
	H83	H	0.372277	0.904972	0.913937
	H84	H	0.608614	0.912211	0.099470
	H85	H	0.378882	0.087089	0.082130
	H86	H	0.606408	0.098702	0.912955
	H87	H	0.375513	0.912407	0.914697
	H88	H	0.895608	0.100038	0.620154
	H89	H	0.085872	0.101968	0.382160
	H90	H	0.076938	0.910010	0.616654
	H91	H	0.889734	0.924140	0.384632
	H92	H	0.082928	0.618403	0.903474
	H93	H	0.082566	0.383638	0.100423
	H94	H	0.898875	0.616351	0.084762
	H95	H	0.886627	0.384090	0.913285
	H96	H	0.397063	0.116262	0.589960
	H97	H	0.576370	0.890391	0.590414
	H98	H	0.581641	0.117627	0.409239
	H99	H	0.408009	0.885477	0.403416
	H100	H	0.580691	0.413919	0.114030
	H101	H	0.583260	0.599317	0.882420
	H102	H	0.398052	0.594101	0.116753
	H103	H	0.406685	0.412522	0.885879
	H104	H	0.107346	0.596659	0.408399
	H105	H	0.871820	0.601989	0.588665
	H106	H	0.106112	0.406332	0.581173
	H107	H	0.874249	0.416899	0.404235
	H108	H	0.892344	0.620157	0.093196
	H109	H	0.073160	0.390134	0.086669
	H110	H	0.086955	0.617534	0.906493
	H111	H	0.900466	0.381968	0.893555
	H112	H	0.079731	0.907930	0.617191
	H113	H	0.089133	0.090023	0.385158
	H114	H	0.894329	0.094197	0.618847
	H115	H	0.914266	0.914036	0.390149
	H116	H	0.604891	0.089093	0.908736
	H117	H	0.371226	0.087557	0.107977
	H118	H	0.608544	0.903382	0.090377
	H119	H	0.372431	0.909163	0.908408
	C120	C	0.366606	0.011118	0.626026
	C121	C	0.611414	0.994634	0.623038
	C122	C	0.613292	0.011391	0.378488
	C123	C	0.370541	0.993863	0.382335
	C124	C	0.612568	0.380066	0.008064
	C125	C	0.613344	0.623894	0.991199
	C126	C	0.370624	0.622946	0.008493
	C127	C	0.369781	0.380339	0.990863
	C128	C	0.000524	0.625060	0.376667
	C129	C	0.982198	0.623237	0.619759
	C130	C	-0.000003	0.380071	0.621184
	C131	C	0.982643	0.381309	0.378781
	C132	C	0.868954	0.510666	0.121564
	C133	C	0.112221	0.493713	0.119589
	C134	C	0.114875	0.510646	0.875310
	C135	C	0.870393	0.493592	0.877760
	C136	C	0.111742	0.881278	0.509512
	C137	C	0.112251	0.124524	0.492682
	C138	C	0.868529	0.125458	0.510485
	C139	C	0.868966	0.881248	0.492246
	C140	C	0.498231	0.123645	0.879792
	C141	C	0.481839	0.123995	0.122467
	C142	C	0.499421	0.879919	0.123937
	C143	C	0.481617	0.880672	0.881516
	C144	C	0.368214	0.888442	0.681903
	C145	C	0.608396	0.117173	0.678819
	C146	C	0.612767	0.889269	0.322480
	C147	C	0.370904	0.115967	0.325218
	C148	C	0.668731	0.382741	0.884775
	C149	C	0.668500	0.620881	0.114183
	C150	C	0.317176	0.621731	0.884700
	C151	C	0.311585	0.381195	0.113414
	C152	C	0.877399	0.681556	0.377777
	C153	C	0.105305	0.680035	0.618124
	C154	C	0.876277	0.324837	0.621937
	C155	C	0.105136	0.324276	0.378250
	C156	C	0.876710	0.382661	0.678292
	C157	C	0.105958	0.621746	0.674217
	C158	C	0.876842	0.622650	0.321713
	C159	C	0.105662	0.381915	0.321175
	C160	C	0.372761	0.681067	0.886197
	C161	C	0.612796	0.679753	0.113927
	C162	C	0.611977	0.324691	0.885218
	C163	C	0.368098	0.323344	0.113684
	C164	C	0.669425	0.889088	0.381219
	C165	C	0.666520	0.117631	0.620842
	C166	C	0.309537	0.889137	0.625832
	C167	C	0.315145	0.116605	0.384442
	C168	C	0.870349	0.388325	0.178787
	C169	C	0.112208	0.615729	0.175812
	C170	C	0.112944	0.388230	0.819869
	C171	C	0.872594	0.616350	0.821483
	C172	C	0.170685	0.883529	0.387325
	C173	C	0.166185	0.122286	0.616398
	C174	C	0.814781	0.123267	0.386826
	C175	C	0.811912	0.882121	0.615417
	C176	C	0.375166	0.180114	0.881648
	C177	C	0.605319	0.179755	0.119146
	C178	C	0.376803	0.822499	0.124963
	C179	C	0.605836	0.826376	0.881711
	C180	C	0.375790	0.882120	0.180602
	C181	C	0.605475	0.122108	0.176930
	C182	C	0.373994	0.120678	0.826142
	C183	C	0.604754	0.882668	0.823511
	C184	C	0.870721	0.181200	0.386978
	C185	C	0.109817	0.180798	0.615246
	C186	C	0.113543	0.825942	0.386728
	C187	C	0.867025	0.822201	0.613947
	C188	C	0.171278	0.388358	0.876935
	C189	C	0.168028	0.616343	0.116543
	C190	C	0.813476	0.387687	0.120088
	C191	C	0.814631	0.616098	0.879281
	C192	C	0.389562	0.096721	0.603456
	C193	C	0.589031	0.909265	0.600536
	C194	C	0.590124	0.096534	0.401064
	C195	C	0.393269	0.908540	0.405251
	C196	C	0.588953	0.402586	0.093788
	C197	C	0.590659	0.601892	0.905402
	C198	C	0.392028	0.599483	0.094235
	C199	C	0.394435	0.403382	0.905315
	C200	C	0.086185	0.602643	0.399241
	C201	C	0.896367	0.600275	0.597505
	C202	C	0.086172	0.402630	0.596932
	C203	C	0.896740	0.404611	0.402440
	C204	C	0.891828	0.595855	0.098035
	C205	C	0.088753	0.408645	0.097153
	C206	C	0.092680	0.596248	0.897402
	C207	C	0.892496	0.408005	0.900190
	C208	C	0.086316	0.903613	0.594799
	C209	C	0.090468	0.101888	0.407048
	C210	C	0.890224	0.103075	0.596532
	C211	C	0.892955	0.905127	0.406727
	C212	C	0.584484	0.101353	0.901707
	C213	C	0.395423	0.101304	0.101102
	C214	C	0.585227	0.903190	0.099800
	C215	C	0.395801	0.902538	0.905346
	Zn216	Zn	0.489154	0.001873	0.752376
	Zn217	Zn	0.490357	0.002478	0.251444
	Zn218	Zn	0.740647	0.501742	-0.000912
	Zn219	Zn	0.241751	0.501925	-0.001685
	Zn220	Zn	-0.009440	0.752363	0.499945
	Zn221	Zn	-0.009673	0.252541	0.500136
	Zn222	Zn	-0.007990	0.502062	0.747948
	Zn223	Zn	-0.008306	0.502331	0.249830
	Zn224	Zn	0.491753	0.751982	0.001484
	Zn225	Zn	0.490325	0.252175	0.000032
	Zn226	Zn	0.741547	0.003839	0.501136
	Zn227	Zn	0.240400	0.002084	0.502751
	N228	N	0.403116	0.965330	0.681885
	N229	N	0.575145	0.039747	0.680522
	N230	N	0.578810	0.966330	0.320584
	N231	N	0.404666	0.038738	0.323920
	N232	N	0.669383	0.416253	0.962206
	N233	N	0.668888	0.586768	0.036915
	N234	N	0.315669	0.586375	0.961808
	N235	N	0.312449	0.415963	0.035992
	N236	N	0.955289	0.683478	0.410991
	N237	N	0.027389	0.680923	0.584962
	N238	N	0.953991	0.323284	0.586982
	N239	N	0.027606	0.323765	0.413585
	N240	N	0.954766	0.416272	0.677989
	N241	N	0.028655	0.586771	0.675313
	N242	N	0.954371	0.588380	0.320747
	N243	N	0.028331	0.416803	0.321611
	N244	N	0.405163	0.682019	0.964180
	N245	N	0.579331	0.681814	0.036421
	N246	N	0.577744	0.322881	0.963085
	N247	N	0.403628	0.322832	0.036396
	N248	N	0.670045	0.966161	0.415390
	N249	N	0.668294	0.040587	0.586685
	N250	N	0.308424	0.966443	0.591857
	N251	N	0.314765	0.039700	0.419501
	N252	N	0.903827	0.465711	0.180068
	N253	N	0.078296	0.538421	0.177994
	N254	N	0.078691	0.465232	0.818666
	N255	N	0.906419	0.539095	0.820451
	N256	N	0.169666	0.917098	0.464786
	N257	N	0.167752	0.087772	0.539210
	N258	N	0.813298	0.089445	0.464479
	N259	N	0.813028	0.918231	0.538594
	N260	N	0.453388	0.181893	0.914180
	N261	N	0.527409	0.181013	0.086069
	N262	N	0.454795	0.820874	0.090598
	N263	N	0.528356	0.825030	0.917201
	N264	N	0.453288	0.916844	0.180185
	N265	N	0.527529	0.088248	0.179174
	N266	N	0.451566	0.086213	0.824925
	N267	N	0.526649	0.915623	0.823084
	N268	N	0.903234	0.182880	0.464869
	N269	N	0.077072	0.182355	0.537427
	N270	N	0.077288	0.824591	0.463702
	N271	N	0.901886	0.821755	0.536405
	N272	N	0.172851	0.465648	0.910402
	N273	N	0.168073	0.539472	0.082109
	N274	N	0.812243	0.464808	0.085338
	N275	N	0.813042	0.538902	0.913360
	O276	O	1.029818	-0.024295	0.912259
	H277	H	1.037677	-0.023730	0.908625
	H278	H	1.018076	-0.022877	0.902956
	O279	O	0.545077	0.507177	0.584584
	H280	H	0.541127	0.512766	0.585210
	H281	H	0.550014	0.516097	0.582920
	O282	O	0.419261	0.447659	0.368711
	H283	H	0.412537	0.435578	0.364878
	H284	H	0.431560	0.436633	0.370285
	O285	O	0.616833	0.497725	0.406192
	H286	H	0.603100	0.510612	0.400538
	H287	H	0.624338	0.477604	0.414543
	O288	O	0.377579	0.426370	0.451816
	H289	H	0.383201	0.419449	0.454155
	H290	H	0.396977	0.409354	0.449405
	O291	O	-0.078643	-0.046318	1.052156
	H292	H	-0.077305	-0.029780	1.056740
	H293	H	-0.098589	-0.054550	1.056567
	O294	O	1.033885	0.919698	0.040144
	H295	H	1.031812	0.920672	0.037070
	H296	H	1.035885	0.913811	0.039790
	O297	O	1.055608	0.979559	-0.030268
	H298	H	1.060525	0.979696	-0.046761
	H299	H	1.060203	0.980818	-0.026151
	O300	O	0.514856	0.440901	0.490236
	H301	H	0.528862	0.428831	0.482902
	H302	H	0.508426	0.440935	0.498663
	O303	O	1.031488	0.084483	0.934322
	H304	H	1.024996	0.087229	0.934709
	H305	H	1.027163	0.091984	0.936314
	O306	O	0.551814	0.613117	0.532614
	H307	H	0.555343	0.627531	0.521093
	H308	H	0.538065	0.604443	0.526321
	O309	O	0.483089	0.621779	0.409398
	H310	H	0.463278	0.609156	0.412777
	H311	H	0.480819	0.626415	0.409741
	O312	O	0.526323	1.453545	0.520966
	H313	H	0.533964	1.462439	0.516449
	H314	H	0.528563	1.453263	0.532250
	O315	O	1.557429	0.501883	0.480031
	H316	H	1.547130	0.492356	0.474307
	H317	H	1.551126	0.510653	0.492466
	O318	O	0.363350	0.474144	0.481225
	H319	H	0.371992	0.461571	0.496180
	H320	H	0.366215	0.468119	0.479991
	O321	O	0.610150	0.404804	0.427984
	H322	H	0.616998	0.417283	0.425747
	H323	H	0.625068	0.401526	0.421880
	O324	O	-0.056826	0.913129	1.054905
	H325	H	-0.050653	0.901945	1.052311
	H326	H	-0.050418	0.915674	1.045901
	O327	O	0.019684	1.016730	1.002831
	H328	H	0.020509	1.012827	0.997345
	H329	H	0.023475	0.998894	1.005242
	O330	O	-0.035554	0.028160	0.072774
	H331	H	-0.029737	0.028187	0.085141
	H332	H	-0.014736	0.031052	0.072108
	O333	O	0.577336	0.558391	0.542745
	H334	H	0.571026	0.565492	0.551938
	H335	H	0.583032	0.571105	0.532042
	O336	O	-0.042389	0.123695	0.153989
	H337	H	-0.035090	0.119426	0.163241
	H338	H	-0.032187	0.111722	0.160133
	O339	O	-0.089494	0.088586	0.015213
	H340	H	-0.088646	0.085253	0.020580
	H341	H	-0.086359	0.094291	0.014162
	O342	O	0.471360	0.615006	0.459697
	H343	H	0.460934	0.609295	0.444892
	H344	H	0.474004	0.607126	0.465957
	O345	O	-0.012641	0.928666	0.973633
	H346	H	-0.019743	0.924795	0.978882
	H347	H	-0.019612	0.944521	0.968631
	O348	O	0.387653	0.481283	0.587682
	H349	H	0.374988	0.484667	0.580085
	H350	H	0.381178	0.478030	0.600461
	O351	O	0.579997	0.351499	0.358563
	H352	H	0.584173	0.359050	0.355709
	H353	H	0.597715	0.352169	0.353092
	O354	O	-0.037935	1.085830	-0.098331
	H355	H	-0.041163	1.099701	-0.096256
	H356	H	-0.040586	1.079341	-0.101090
	O357	O	0.444748	0.511159	0.611071
	H358	H	0.447511	0.498267	0.598879
	H359	H	0.440925	0.507675	0.621159
	O360	O	0.979493	0.109303	1.013182
	H361	H	0.977536	0.100260	1.016535
	H362	H	0.973173	0.111143	0.997898
	O363	O	0.608813	0.428197	0.579210
	H364	H	0.610306	0.425312	0.576934
	H365	H	0.606927	0.443938	0.575370
	O366	O	1.016471	1.003782	-0.141948
	H367	H	1.018936	1.008701	-0.148090
	H368	H	1.005979	0.996470	-0.148770
	O369	O	0.953018	-0.087403	-0.048293
	H370	H	0.956398	-0.085933	-0.066902
	H371	H	0.947753	-0.092693	-0.052092
	O372	O	0.412354	0.669107	0.460123
	H373	H	0.404378	0.669565	0.448533
	H374	H	0.402898	0.657905	0.458365
	O375	O	0.924259	-0.090428	1.102142
	H376	H	0.922135	-0.101594	1.109160
	H377	H	0.900149	-0.090464	1.104456
	O378	O	0.021616	1.003411	-0.014822
	H379	H	0.014828	0.993275	-0.009882
	H380	H	0.026505	1.003446	-0.011188
	O381	O	0.395158	0.533520	0.505420
	H382	H	0.389991	0.540186	0.508294
	H383	H	0.397046	0.535742	0.518374
	O384	O	1.109160	1.001699	0.015525
	H385	H	1.107721	0.995709	0.029339
	H386	H	1.107835	1.000381	0.036260
	O387	O	0.866317	0.005860	1.092801
	H388	H	0.865753	-0.011097	1.086635
	H389	H	0.863760	0.009485	1.103664
	O390	O	0.979864	0.918002	0.061579
	H391	H	0.971809	0.898915	0.059477
	H392	H	0.977725	0.931831	0.052844
	O393	O	0.432808	0.542551	0.557734
	H394	H	0.413068	0.536217	0.557222
	H395	H	0.439258	0.546002	0.560882
