data_Molecule from HDF5

_cell_length_a		16.338725
_cell_length_b		16.418642
_cell_length_c		16.220160
_cell_angle_alpha	89.794280
_cell_angle_beta	89.921551
_cell_angle_gamma	90.049821
_symmetry_space_group_name_H-M	'P 1'
_symmetry_Int_Tables_number		1

loop_
	_symmetry_equiv_pos_as_xyz
	x,y,z

loop_
	_atom_site_label
	_atom_site_type_symbol
	_atom_site_fract_x
	_atom_site_fract_y
	_atom_site_fract_z
	H0	H	0.401038	0.816512	0.728573
	H1	H	0.601189	0.138574	0.726721
	H2	H	0.603832	0.816314	0.293044
	H3	H	0.401138	0.138497	0.292330
	H4	H	0.718566	0.377067	0.848888
	H5	H	0.719087	0.579611	0.174274
	H6	H	0.286234	0.576048	0.849503
	H7	H	0.285269	0.373994	0.175633
	H8	H	0.841047	0.697040	0.407692
	H9	H	0.162154	0.696946	0.616443
	H10	H	0.842121	0.256833	0.618147
	H11	H	0.163079	0.259045	0.408327
	H12	H	0.840912	0.376598	0.730415
	H13	H	0.163792	0.577394	0.728752
	H14	H	0.840532	0.580093	0.293299
	H15	H	0.164070	0.377139	0.295655
	H16	H	0.399244	0.694181	0.849511
	H17	H	0.607257	0.698062	0.171990
	H18	H	0.600756	0.261789	0.848403
	H19	H	0.398621	0.257715	0.173924
	H20	H	0.722189	0.817325	0.406595
	H21	H	0.722486	0.136589	0.615318
	H22	H	0.282446	0.816881	0.614024
	H23	H	0.281336	0.137686	0.405572
	H24	H	0.901870	0.315189	0.230178
	H25	H	0.101453	0.638859	0.227718
	H26	H	0.102702	0.315276	0.795935
	H27	H	0.901937	0.638054	0.794581
	H28	H	0.216834	0.878410	0.348041
	H29	H	0.217976	0.078461	0.673390
	H30	H	0.786447	0.078443	0.346740
	H31	H	0.785476	0.876987	0.674097
	H32	H	0.339020	0.194116	0.909690
	H33	H	0.662488	0.195769	0.114123
	H34	H	0.339906	0.758247	0.113597
	H35	H	0.661063	0.756303	0.903541
	H36	H	0.339709	0.875799	0.228559
	H37	H	0.664285	0.075994	0.226108
	H38	H	0.337721	0.075187	0.796594
	H39	H	0.663433	0.878378	0.794123
	H40	H	0.898839	0.198264	0.349092
	H41	H	0.103829	0.193763	0.673971
	H42	H	0.103963	0.759613	0.349212
	H43	H	0.898711	0.760101	0.673952
	H44	H	0.218950	0.315280	0.912595
	H45	H	0.221915	0.637094	0.115147
	H46	H	0.782744	0.315968	0.115996
	H47	H	0.783015	0.637072	0.907795
	H48	H	0.411330	0.088528	0.595277
	H49	H	0.590100	0.865007	0.597735
	H50	H	0.592050	0.091912	0.415410
	H51	H	0.405888	0.861541	0.416511
	H52	H	0.590251	0.381548	0.127928
	H53	H	0.591529	0.565420	0.897421
	H54	H	0.408838	0.579720	0.132468
	H55	H	0.410753	0.377563	0.894279
	H56	H	0.117185	0.564701	0.416850
	H57	H	0.885411	0.574840	0.602296
	H58	H	0.116140	0.384190	0.598433
	H59	H	0.886612	0.390077	0.416826
	H60	H	0.117234	0.389635	0.605890
	H61	H	0.889506	0.565690	0.598316
	H62	H	0.118065	0.574959	0.421312
	H63	H	0.885729	0.380139	0.423897
	H64	H	0.402175	0.557044	0.127677
	H65	H	0.590501	0.567381	0.896685
	H66	H	0.595347	0.388989	0.128235
	H67	H	0.403900	0.389138	0.895098
	H68	H	0.590990	0.089409	0.423374
	H69	H	0.599132	0.861379	0.601210
	H70	H	0.400967	0.094332	0.602767
	H71	H	0.414629	0.865236	0.420901
	H72	H	0.908841	0.591544	0.104029
	H73	H	0.097661	0.361329	0.105248
	H74	H	0.093741	0.588123	0.927926
	H75	H	0.902127	0.361493	0.925176
	H76	H	0.095952	0.882446	0.629707
	H77	H	0.092899	0.065226	0.396368
	H78	H	0.904761	0.070412	0.629982
	H79	H	0.909441	0.879747	0.392199
	H80	H	0.615419	0.066374	0.917660
	H81	H	0.387493	0.060575	0.106102
	H82	H	0.614033	0.889246	0.098680
	H83	H	0.388328	0.887133	0.924665
	H84	H	0.616662	0.886027	0.103951
	H85	H	0.383014	0.075634	0.104871
	H86	H	0.618607	0.073713	0.915699
	H87	H	0.385277	0.886855	0.916252
	H88	H	0.911618	0.059072	0.622584
	H89	H	0.087170	0.069873	0.396431
	H90	H	0.093089	0.891783	0.625843
	H91	H	0.908083	0.892662	0.395961
	H92	H	0.101853	0.593730	0.919646
	H93	H	0.090956	0.362248	0.106898
	H94	H	0.911200	0.590778	0.102619
	H95	H	0.912721	0.361160	0.915087
	H96	H	0.413464	0.093269	0.608765
	H97	H	0.590978	0.861533	0.607577
	H98	H	0.598669	0.091941	0.420799
	H99	H	0.405937	0.864128	0.426016
	H100	H	0.587208	0.388604	0.124635
	H101	H	0.592907	0.567587	0.896288
	H102	H	0.425125	0.564710	0.122620
	H103	H	0.417159	0.388017	0.898960
	H104	H	0.112865	0.566618	0.427190
	H105	H	0.885540	0.566142	0.608814
	H106	H	0.119947	0.380886	0.605962
	H107	H	0.891029	0.390242	0.428424
	H108	H	0.908783	0.590289	0.100776
	H109	H	0.093534	0.363868	0.100859
	H110	H	0.090148	0.590844	0.915445
	H111	H	0.915984	0.365828	0.928260
	H112	H	0.086186	0.883629	0.625689
	H113	H	0.093752	0.072152	0.393468
	H114	H	0.919079	0.072207	0.624800
	H115	H	0.919447	0.886359	0.398331
	H116	H	0.615784	0.071803	0.923335
	H117	H	0.389558	0.067869	0.092499
	H118	H	0.616050	0.882759	0.098214
	H119	H	0.385164	0.880104	0.920790
	C120	C	0.378935	-0.014081	0.632915
	C121	C	0.623497	0.968884	0.632561
	C122	C	0.624443	-0.014468	0.388910
	C123	C	0.378989	0.969408	0.389290
	C124	C	0.621799	0.356211	0.019574
	C125	C	0.623111	0.598471	1.003283
	C126	C	0.381528	0.597390	0.020210
	C127	C	0.379914	0.354421	1.003571
	C128	C	0.009852	0.599264	0.390946
	C129	C	0.993338	0.598909	0.633822
	C130	C	0.011044	0.354732	0.634567
	C131	C	0.994023	0.356535	0.391522
	C132	C	0.879589	0.484773	0.133973
	C133	C	0.124198	0.468877	0.134570
	C134	C	0.124593	0.484645	0.890747
	C135	C	0.880160	0.468542	0.891160
	C136	C	0.122521	0.855774	0.519885
	C137	C	0.122301	0.099047	0.502487
	C138	C	0.880490	0.098990	0.518817
	C139	C	0.880641	0.855798	0.502661
	C140	C	0.509359	0.099245	0.889044
	C141	C	0.493285	0.098014	0.131914
	C142	C	0.509368	0.854954	0.132098
	C143	C	0.492870	0.855179	0.889097
	C144	C	0.380585	0.864472	0.689770
	C145	C	0.621824	0.090027	0.688931
	C146	C	0.623791	0.864717	0.331383
	C147	C	0.380568	0.090149	0.330811
	C148	C	0.679411	0.357247	0.897468
	C149	C	0.680718	0.598824	0.125237
	C150	C	0.324333	0.596390	0.898027
	C151	C	0.323340	0.355051	0.126467
	C152	C	0.889016	0.657551	0.389530
	C153	C	0.114086	0.657223	0.634769
	C154	C	0.889886	0.296772	0.635920
	C155	C	0.115078	0.298424	0.390153
	C156	C	0.889338	0.355961	0.692169
	C157	C	0.115095	0.597669	0.690835
	C158	C	0.888848	0.599431	0.332311
	C159	C	0.115405	0.357172	0.333878
	C160	C	0.380614	0.654773	0.897962
	C161	C	0.624911	0.657819	0.124096
	C162	C	0.621142	0.299820	0.897352
	C163	C	0.379242	0.296597	0.125675
	C164	C	0.682651	0.865057	0.388029
	C165	C	0.682191	0.088935	0.633297
	C166	C	0.321743	0.864870	0.632707
	C167	C	0.320979	0.089931	0.387310
	C168	C	0.881027	0.363617	0.191793
	C169	C	0.122258	0.590093	0.190329
	C170	C	0.122629	0.363556	0.834165
	C171	C	0.881468	0.589637	0.833306
	C172	C	0.178799	0.857733	0.396904
	C173	C	0.179337	0.097964	0.624827
	C174	C	0.824008	0.098749	0.396082
	C175	C	0.823431	0.856834	0.625294
	C176	C	0.387370	0.155576	0.890033
	C177	C	0.614402	0.156186	0.132526
	C178	C	0.388252	0.797175	0.132782
	C179	C	0.613561	0.796792	0.886758
	C180	C	0.387968	0.855990	0.189803
	C181	C	0.615400	0.096435	0.188215
	C182	C	0.386588	0.096335	0.833950
	C183	C	0.614667	0.857242	0.831999
	C184	C	0.880466	0.157911	0.396997
	C185	C	0.122737	0.155664	0.624963
	C186	C	0.122618	0.798698	0.397664
	C187	C	0.880076	0.798877	0.625214
	C188	C	0.180519	0.363452	0.892269
	C189	C	0.182066	0.589426	0.134198
	C190	C	0.821760	0.364068	0.134991
	C191	C	0.822402	0.589393	0.889668
	C192	C	0.401864	0.070181	0.609060
	C193	C	0.600207	0.884562	0.609012
	C194	C	0.600656	0.069355	0.413054
	C195	C	0.402079	0.885327	0.413996
	C196	C	0.597843	0.379615	0.104973
	C197	C	0.598768	0.573968	0.918795
	C198	C	0.405224	0.573924	0.105416
	C199	C	0.403504	0.378156	0.918181
	C200	C	0.094208	0.575650	0.414909
	C201	C	0.908673	0.575605	0.610153
	C202	C	0.095692	0.378075	0.610408
	C203	C	0.909555	0.379907	0.415870
	C204	C	0.902970	0.569055	0.109685
	C205	C	0.100754	0.384292	0.111189
	C206	C	0.101808	0.569235	0.914076
	C207	C	0.903472	0.384556	0.915787
	C208	C	0.098628	0.879177	0.604924
	C209	C	0.098115	0.075975	0.417496
	C210	C	0.904632	0.074434	0.603489
	C211	C	0.905141	0.879408	0.417512
	C212	C	0.594350	0.077156	0.912069
	C213	C	0.408797	0.074651	0.108083
	C214	C	0.593890	0.878915	0.107468
	C215	C	0.408222	0.878161	0.913361
	Zn216	Zn	0.501380	-0.022564	0.761221
	Zn217	Zn	0.501742	-0.023159	0.260834
	Zn218	Zn	0.750999	0.477010	0.012037
	Zn219	Zn	0.253640	0.476158	0.012722
	Zn220	Zn	0.001383	0.727676	0.512012
	Zn221	Zn	0.002172	0.227875	0.512046
	Zn222	Zn	0.002211	0.476993	0.762215
	Zn223	Zn	0.001655	0.477304	0.262888
	Zn224	Zn	0.501428	0.726212	0.010369
	Zn225	Zn	0.500655	0.227177	0.011532
	Zn226	Zn	0.752944	-0.023210	0.510574
	Zn227	Zn	0.250089	-0.022149	0.510983
	N228	N	0.415536	0.940514	0.689840
	N229	N	0.585943	0.014365	0.688451
	N230	N	0.588176	0.940616	0.331821
	N231	N	0.415984	0.014240	0.331937
	N232	N	0.680002	0.391288	0.974719
	N233	N	0.679865	0.562574	0.048954
	N234	N	0.324371	0.561695	0.975184
	N235	N	0.323631	0.390174	0.049332
	N236	N	0.965395	0.657716	0.425143
	N237	N	0.037402	0.658179	0.600240
	N238	N	0.966669	0.295903	0.601010
	N239	N	0.038408	0.297900	0.425301
	N240	N	0.965751	0.391071	0.691556
	N241	N	0.038834	0.562312	0.690460
	N242	N	0.964780	0.563741	0.333313
	N243	N	0.039306	0.392764	0.334881
	N244	N	0.415297	0.655653	0.975127
	N245	N	0.589866	0.657769	0.047252
	N246	N	0.585926	0.299338	0.974490
	N247	N	0.413526	0.295927	0.048278
	N248	N	0.683143	0.941142	0.423236
	N249	N	0.683220	0.012596	0.598875
	N250	N	0.320510	0.941423	0.598130
	N251	N	0.320031	0.013972	0.422933
	N252	N	0.915908	0.439911	0.191573
	N253	N	0.087019	0.514095	0.190421
	N254	N	0.088384	0.440027	0.833380
	N255	N	0.916867	0.513726	0.834151
	N256	N	0.178925	0.892487	0.473955
	N257	N	0.179344	0.063441	0.547713
	N258	N	0.824061	0.062739	0.472741
	N259	N	0.823662	0.891389	0.548021
	N260	N	0.464623	0.157424	0.923719
	N261	N	0.537361	0.157186	0.098222
	N262	N	0.464885	0.796483	0.097787
	N263	N	0.536876	0.795430	0.921658
	N264	N	0.464515	0.890971	0.189630
	N265	N	0.539207	0.061310	0.188193
	N266	N	0.463365	0.062319	0.832902
	N267	N	0.538540	0.892792	0.833389
	N268	N	0.914652	0.158476	0.474500
	N269	N	0.087949	0.156598	0.547930
	N270	N	0.088614	0.797279	0.475204
	N271	N	0.914633	0.797907	0.547861
	N272	N	0.181952	0.439765	0.926593
	N273	N	0.183272	0.512839	0.100148
	N274	N	0.820427	0.440546	0.100249
	N275	N	0.821689	0.513273	0.925153
	O276	O	0.675262	0.512540	0.442013
	H277	H	0.672266	0.508344	0.445372
	H278	H	0.680377	0.499510	0.444463
	O279	O	0.653081	0.509096	0.440567
	H280	H	0.669722	0.511101	0.437566
	H281	H	0.656095	0.532036	0.441536
	O282	O	0.670999	0.565586	0.547003
	H283	H	0.676790	0.571747	0.544460
	H284	H	0.669897	0.568107	0.562133
	O285	O	0.465659	0.313975	0.517411
	H286	H	0.478966	0.320651	0.507494
	H287	H	0.469053	0.318708	0.514821
	O288	O	0.914508	1.066083	0.981265
	H289	H	0.906936	1.073848	0.972408
	H290	H	0.909547	1.060617	0.968694
	O291	O	0.071802	0.933510	-0.116754
	H292	H	0.065174	0.933574	-0.122694
	H293	H	0.066783	0.932447	-0.103032
	O294	O	0.679545	0.301087	0.464025
	H295	H	0.675183	0.300057	0.479537
	H296	H	0.686050	0.288156	0.468306
	O297	O	0.501045	0.629418	0.393593
	H298	H	0.493136	0.632440	0.393195
	H299	H	0.487059	0.617008	0.398344
	O300	O	0.325868	0.632206	0.390908
	H301	H	0.327516	0.618614	0.381615
	H302	H	0.317887	0.620346	0.403956
	O303	O	0.304767	0.549924	0.486505
	H304	H	0.297049	0.559013	0.488996
	H305	H	0.298667	0.526590	0.494561
	O306	O	0.064748	0.994619	0.895628
	H307	H	0.058803	0.990436	0.892684
	H308	H	0.063456	0.987836	0.889250
	O309	O	0.481556	0.355337	0.371120
	H310	H	0.495530	0.341104	0.368031
	H311	H	0.480407	0.345139	0.377278
	O312	O	0.030554	-0.015197	0.166089
	H313	H	0.033089	-0.003900	0.170559
	H314	H	0.040792	-0.011605	0.171670
	O315	O	0.446000	0.546046	0.586010
	H316	H	0.436166	0.543785	0.587481
	H317	H	0.445302	0.544090	0.571961
	O318	O	0.390689	1.506823	1.368768
	H319	H	0.406190	1.503218	1.347551
	H320	H	0.390570	1.493197	1.372792
	O321	O	0.469754	0.370932	0.642969
	H322	H	0.457732	0.374072	0.635677
	H323	H	0.470667	0.386659	0.652631
	O324	O	0.060528	1.135015	0.069423
	H325	H	0.057874	1.135145	0.075884
	H326	H	0.049080	1.139094	0.073535
	O327	O	0.537077	0.352141	0.365237
	H328	H	0.535022	0.350553	0.347624
	H329	H	0.552495	0.360961	0.367522
	O330	O	0.004807	0.010587	0.878157
	H331	H	-0.003572	-0.005488	0.876992
	H332	H	0.009397	0.007283	0.857659
	O333	O	-0.690957	0.428564	0.527912
	H334	H	-0.703766	0.408177	0.536173
	H335	H	-0.685362	0.420864	0.538018
	O336	O	0.503229	0.623549	0.679159
	H337	H	0.510327	0.628947	0.674716
	H338	H	0.486047	0.617710	0.669204
	O339	O	0.963592	0.069074	-0.128072
	H340	H	0.967673	0.050991	-0.146295
	H341	H	0.959102	0.070833	-0.131952
	O342	O	-0.047378	0.114551	-0.051417
	H343	H	-0.051141	0.108056	-0.052509
	H344	H	-0.055781	0.112605	-0.052921
	O345	O	0.806795	-0.021959	0.975717
	H346	H	0.805006	-0.023645	0.964131
	H347	H	0.793665	-0.014436	0.978062
	O348	O	0.996109	0.946125	0.084930
	H349	H	0.983804	0.954535	0.081230
	H350	H	0.986851	0.936408	0.073965
	O351	O	0.622073	0.337052	0.365800
	H352	H	0.633286	0.328753	0.366379
	H353	H	0.623727	0.325472	0.381274
	O354	O	0.950031	-0.004934	0.916973
	H355	H	0.958087	-0.007349	0.928741
	H356	H	0.962124	-0.011321	0.918803
	O357	O	0.620908	0.527468	0.621375
	H358	H	0.627528	0.530684	0.616247
	H359	H	0.621799	0.535659	0.616492
	O360	O	0.471953	0.331282	0.623570
	H361	H	0.467965	0.328444	0.628350
	H362	H	0.478030	0.333871	0.608900
	O363	O	0.449926	1.621621	0.333755
	H364	H	0.435363	1.619749	0.343409
	H365	H	0.446627	1.631848	0.316832
	O366	O	1.025699	0.899396	-0.086838
	H367	H	1.024533	0.892901	-0.083855
	H368	H	1.027313	0.900177	-0.073781
	O369	O	0.298628	0.478612	-0.330042
	H370	H	0.287200	0.471910	-0.307361
	H371	H	0.311497	0.483116	-0.331032
	O372	O	0.519878	0.507780	0.553005
	H373	H	0.501649	0.515127	0.554715
	H374	H	0.525734	0.515210	0.551334
	O375	O	0.476003	0.380108	0.600709
	H376	H	0.473650	0.379790	0.602634
	H377	H	0.478652	0.390802	0.597829
	O378	O	0.441272	0.617005	-0.568552
	H379	H	0.437713	0.623847	-0.573412
	H380	H	0.430072	0.618888	-0.587394
	O381	O	1.059207	-0.186809	0.022414
	H382	H	1.071520	-0.184762	0.031607
	H383	H	1.060262	-0.178602	0.034816
	O384	O	0.949511	1.088795	0.035235
	H385	H	0.950954	1.076972	0.031244
	H386	H	0.952849	1.094000	0.023466
	O387	O	-0.035368	-0.047082	-0.004453
	H388	H	-0.032673	-0.060326	-0.005432
	H389	H	-0.030065	-0.032430	0.006145
	O390	O	0.169944	0.855155	0.009408
	H391	H	0.166891	0.849298	0.007039
	H392	H	0.188943	0.868119	0.014951
	O393	O	0.987725	0.979431	1.124221
	H394	H	0.993462	0.978992	1.120543
	H395	H	0.985291	0.982827	1.121867
	O396	O	0.615177	0.611666	0.692067
	H397	H	0.621056	0.626464	0.702572
	H398	H	0.602728	0.631646	0.679048
	O399	O	-0.036118	0.991450	1.154799
	H400	H	-0.029891	0.996462	1.150424
	H401	H	-0.044191	1.009035	1.157973
	O402	O	0.049569	0.985419	0.995819
	H403	H	0.044746	0.992688	0.999852
	H404	H	0.042937	0.978152	1.006889
	O405	O	0.995893	0.863261	0.079304
	H406	H	0.987696	0.863645	0.082361
	H407	H	1.001803	0.865850	0.071854
	O408	O	1.063858	1.036212	-0.017621
	H409	H	1.063124	1.033752	-0.020977
	H410	H	1.065188	1.028696	-0.022470
	O411	O	0.864123	-0.198446	1.090499
	H412	H	0.867160	-0.203686	1.105582
	H413	H	0.857107	-0.206485	1.096168
	O414	O	0.427848	0.532249	0.636021
	H415	H	0.436180	0.526068	0.623461
	H416	H	0.414887	0.521887	0.627927
	O417	O	0.647946	0.385538	0.552980
	H418	H	0.642984	0.392929	0.550306
	H419	H	0.654017	0.401671	0.561998
