data_Molecule from HDF5

_cell_length_a		16.237766
_cell_length_b		16.154048
_cell_length_c		16.383376
_cell_angle_alpha	89.932543
_cell_angle_beta	90.071783
_cell_angle_gamma	90.163086
_symmetry_space_group_name_H-M	'P 1'
_symmetry_Int_Tables_number		1

loop_
	_symmetry_equiv_pos_as_xyz
	x,y,z

loop_
	_atom_site_label
	_atom_site_type_symbol
	_atom_site_fract_x
	_atom_site_fract_y
	_atom_site_fract_z
	H0	H	0.406685	0.824708	0.714936
	H1	H	0.606790	0.153723	0.714031
	H2	H	0.604934	0.824807	0.286340
	H3	H	0.406042	0.152694	0.283640
	H4	H	0.722374	0.391327	0.836396
	H5	H	0.723488	0.587614	0.162909
	H6	H	0.292980	0.588669	0.837667
	H7	H	0.291074	0.388458	0.162074
	H8	H	0.842632	0.699797	0.402865
	H9	H	0.172826	0.700805	0.594977
	H10	H	0.842183	0.275665	0.594539
	H11	H	0.172672	0.275988	0.403068
	H12	H	0.843738	0.387313	0.715389
	H13	H	0.172069	0.588650	0.713894
	H14	H	0.844432	0.588497	0.283767
	H15	H	0.171707	0.389828	0.285205
	H16	H	0.410036	0.703520	0.837345
	H17	H	0.606665	0.703065	0.163526
	H18	H	0.603831	0.276229	0.836204
	H19	H	0.409394	0.273812	0.163481
	H20	H	0.718254	0.824170	0.402942
	H21	H	0.722480	0.153256	0.598523
	H22	H	0.294327	0.823100	0.596249
	H23	H	0.293558	0.153347	0.400654
	H24	H	0.908068	0.324415	0.214324
	H25	H	0.108962	0.653274	0.214833
	H26	H	0.108775	0.324463	0.783676
	H27	H	0.908127	0.652632	0.783268
	H28	H	0.221624	0.889723	0.336363
	H29	H	0.222769	0.087999	0.661437
	H30	H	0.791958	0.086560	0.336161
	H31	H	0.791957	0.889352	0.662285
	H32	H	0.343236	0.202427	0.902168
	H33	H	0.672303	0.200864	0.097313
	H34	H	0.343142	0.776119	0.095440
	H35	H	0.672944	0.778450	0.904043
	H36	H	0.343698	0.887939	0.215125
	H37	H	0.670005	0.089534	0.216660
	H38	H	0.343345	0.089988	0.783149
	H39	H	0.669812	0.887850	0.783362
	H40	H	0.908267	0.202464	0.335482
	H41	H	0.105442	0.202556	0.662015
	H42	H	0.102270	0.775939	0.335984
	H43	H	0.909383	0.773867	0.662945
	H44	H	0.221336	0.323750	0.901860
	H45	H	0.220821	0.654410	0.096200
	H46	H	0.794149	0.324662	0.097559
	H47	H	0.796656	0.654950	0.902602
	H48	H	0.419566	0.102808	0.585772
	H49	H	0.597071	0.871742	0.594501
	H50	H	0.598069	0.105361	0.409820
	H51	H	0.415492	0.869764	0.401914
	H52	H	0.608621	0.389389	0.119148
	H53	H	0.605447	0.593295	0.880004
	H54	H	0.410666	0.576582	0.115948
	H55	H	0.412018	0.395449	0.883134
	H56	H	0.126491	0.583691	0.402602
	H57	H	0.888850	0.587979	0.592467
	H58	H	0.124001	0.396696	0.593919
	H59	H	0.893570	0.408148	0.400988
	H60	H	0.124156	0.395193	0.593284
	H61	H	0.893296	0.576551	0.587904
	H62	H	0.124401	0.584174	0.409982
	H63	H	0.885420	0.387628	0.396152
	H64	H	0.420715	0.581323	0.113598
	H65	H	0.609374	0.574131	0.884798
	H66	H	0.604513	0.403468	0.113959
	H67	H	0.414398	0.398031	0.885178
	H68	H	0.603096	0.108689	0.406140
	H69	H	0.598170	0.872043	0.591679
	H70	H	0.407440	0.108796	0.591915
	H71	H	0.417031	0.872565	0.409764
	H72	H	0.917352	0.607285	0.096696
	H73	H	0.093302	0.373832	0.091782
	H74	H	0.102191	0.606779	0.904782
	H75	H	0.912974	0.372888	0.913893
	H76	H	0.100344	0.889022	0.616895
	H77	H	0.096525	0.083250	0.383296
	H78	H	0.921694	0.085780	0.613433
	H79	H	0.903522	0.894533	0.381525
	H80	H	0.625075	0.086859	0.908125
	H81	H	0.390759	0.081133	0.090953
	H82	H	0.621332	0.907094	0.095090
	H83	H	0.392986	0.898916	0.909805
	H84	H	0.628676	0.892593	0.103808
	H85	H	0.390781	0.078893	0.093125
	H86	H	0.621061	0.075353	0.909189
	H87	H	0.389396	0.898491	0.902228
	H88	H	0.906849	0.085138	0.617483
	H89	H	0.103680	0.085442	0.381632
	H90	H	0.107328	0.898064	0.615914
	H91	H	0.915866	0.901538	0.386150
	H92	H	0.100193	0.606619	0.904114
	H93	H	0.103569	0.371533	0.088339
	H94	H	0.918863	0.606010	0.090386
	H95	H	0.911148	0.369291	0.902060
	H96	H	0.419536	0.106930	0.599502
	H97	H	0.599934	0.870802	0.593478
	H98	H	0.597252	0.107753	0.404118
	H99	H	0.409212	0.870127	0.407576
	H100	H	0.594042	0.392348	0.114075
	H101	H	0.591335	0.581416	0.887805
	H102	H	0.412579	0.587723	0.118882
	H103	H	0.415552	0.394321	0.884412
	H104	H	0.123513	0.576664	0.406161
	H105	H	0.889864	0.577761	0.600856
	H106	H	0.123846	0.396382	0.592754
	H107	H	0.892723	0.392097	0.416813
	H108	H	0.912554	0.607800	0.091700
	H109	H	0.100588	0.369678	0.098513
	H110	H	0.100144	0.605829	0.906542
	H111	H	0.922808	0.373942	0.905863
	H112	H	0.096838	0.899030	0.613284
	H113	H	0.102754	0.077701	0.384195
	H114	H	0.914013	0.072317	0.612135
	H115	H	0.916747	0.886653	0.382381
	H116	H	0.624998	0.079453	0.898563
	H117	H	0.389497	0.081164	0.093651
	H118	H	0.624016	0.891151	0.086208
	H119	H	0.389093	0.891716	0.907225
	C120	C	0.385915	-0.002799	0.620844
	C121	C	0.628122	0.980288	0.621503
	C122	C	0.627540	-0.001928	0.378711
	C123	C	0.385448	0.979987	0.377822
	C124	C	0.630192	0.367084	0.007845
	C125	C	0.630402	0.611299	0.991792
	C126	C	0.386395	0.610653	0.008620
	C127	C	0.385419	0.366654	0.991768
	C128	C	0.016156	0.609735	0.377974
	C129	C	0.999196	0.609785	0.621275
	C130	C	0.015585	0.366776	0.621438
	C131	C	0.999224	0.367361	0.377405
	C132	C	0.887299	0.498069	0.121083
	C133	C	0.128587	0.480639	0.120719
	C134	C	0.129534	0.497144	0.877530
	C135	C	0.886950	0.480658	0.878565
	C136	C	0.128915	0.867296	0.507492
	C137	C	0.129568	0.110485	0.490729
	C138	C	0.885420	0.109751	0.507035
	C139	C	0.884025	0.865603	0.490988
	C140	C	0.515427	0.109982	0.877303
	C141	C	0.498789	0.109629	0.121238
	C142	C	0.516341	0.867630	0.122401
	C143	C	0.498739	0.867466	0.878350
	C144	C	0.386704	0.873617	0.676621
	C145	C	0.626899	0.104244	0.676721
	C146	C	0.625320	0.873924	0.323776
	C147	C	0.386818	0.103679	0.321774
	C148	C	0.684255	0.370796	0.885062
	C149	C	0.685347	0.608181	0.114355
	C150	C	0.331041	0.608667	0.886101
	C151	C	0.329570	0.368473	0.113906
	C152	C	0.892041	0.663372	0.381502
	C153	C	0.123558	0.664038	0.616717
	C154	C	0.891620	0.312359	0.617033
	C155	C	0.123258	0.312929	0.381702
	C156	C	0.892518	0.367784	0.677108
	C157	C	0.122977	0.608146	0.675757
	C158	C	0.893138	0.608064	0.322096
	C159	C	0.122907	0.369577	0.323148
	C160	C	0.389206	0.665683	0.885904
	C161	C	0.627443	0.665721	0.114571
	C162	C	0.625657	0.313390	0.884834
	C163	C	0.388385	0.311327	0.114505
	C164	C	0.681287	0.873588	0.382176
	C165	C	0.683838	0.104446	0.618668
	C166	C	0.331151	0.872704	0.617470
	C167	C	0.331113	0.104130	0.380262
	C168	C	0.888726	0.373513	0.175913
	C169	C	0.128197	0.604307	0.176443
	C170	C	0.127883	0.373441	0.822296
	C171	C	0.888867	0.604303	0.822608
	C172	C	0.183078	0.869944	0.384705
	C173	C	0.184950	0.108450	0.612805
	C174	C	0.830004	0.106943	0.384677
	C175	C	0.829314	0.868345	0.613464
	C176	C	0.392278	0.165324	0.880726
	C177	C	0.622803	0.163953	0.118140
	C178	C	0.392270	0.812840	0.117435
	C179	C	0.623074	0.814481	0.882518
	C180	C	0.392541	0.868463	0.176813
	C181	C	0.621499	0.108895	0.177802
	C182	C	0.392445	0.109498	0.821443
	C183	C	0.621423	0.868972	0.822437
	C184	C	0.887846	0.164690	0.384252
	C185	C	0.126573	0.165327	0.613240
	C186	C	0.124056	0.813233	0.384583
	C187	C	0.887724	0.810864	0.613798
	C188	C	0.183874	0.373089	0.881105
	C189	C	0.183757	0.604758	0.117518
	C190	C	0.831813	0.373806	0.118022
	C191	C	0.832977	0.605245	0.881315
	C192	C	0.408698	0.083872	0.598739
	C193	C	0.605046	0.893798	0.599623
	C194	C	0.605830	0.084894	0.400414
	C195	C	0.407517	0.893132	0.399892
	C196	C	0.608869	0.388528	0.093579
	C197	C	0.608395	0.589487	0.906297
	C198	C	0.408196	0.588455	0.094026
	C199	C	0.407552	0.389272	0.906326
	C200	C	0.102460	0.587891	0.399902
	C201	C	0.912972	0.587220	0.599980
	C202	C	0.101778	0.389431	0.599758
	C203	C	0.912921	0.389283	0.398462
	C204	C	0.909727	0.584644	0.099425
	C205	C	0.105859	0.393921	0.099291
	C206	C	0.107466	0.584168	0.898834
	C207	C	0.909027	0.394411	0.900909
	C208	C	0.107809	0.889079	0.593121
	C209	C	0.107640	0.088572	0.405108
	C210	C	0.907654	0.087611	0.592459
	C211	C	0.905688	0.887576	0.405315
	C212	C	0.601632	0.087199	0.898932
	C213	C	0.412581	0.086920	0.099146
	C214	C	0.602406	0.890400	0.101245
	C215	C	0.412609	0.889765	0.900097
	Zn216	Zn	0.506651	-0.011081	0.749320
	Zn217	Zn	0.506787	-0.010722	0.250701
	Zn218	Zn	0.759269	0.489479	-0.000164
	Zn219	Zn	0.256768	0.489032	-0.000520
	Zn220	Zn	0.007128	0.737631	0.499684
	Zn221	Zn	0.007109	0.238914	0.498653
	Zn222	Zn	0.007986	0.488661	0.749914
	Zn223	Zn	0.008517	0.489211	0.248980
	Zn224	Zn	0.508117	0.739810	0.000340
	Zn225	Zn	0.508007	0.237844	-0.000112
	Zn226	Zn	0.755586	-0.011445	0.499558
	Zn227	Zn	0.258291	-0.011271	0.498941
	N228	N	0.420171	0.951876	0.678624
	N229	N	0.592928	0.026178	0.678444
	N230	N	0.592504	0.952332	0.321563
	N231	N	0.420003	0.025268	0.320412
	N232	N	0.687178	0.403362	0.962631
	N233	N	0.687480	0.575318	0.036821
	N234	N	0.329093	0.575084	0.963262
	N235	N	0.327711	0.402126	0.036582
	N236	N	0.969616	0.664730	0.415470
	N237	N	0.045577	0.665274	0.583527
	N238	N	0.969118	0.311621	0.583205
	N239	N	0.045282	0.311482	0.414702
	N240	N	0.970798	0.400783	0.679985
	N241	N	0.044789	0.575105	0.678616
	N242	N	0.971238	0.575287	0.319960
	N243	N	0.044889	0.402461	0.320196
	N244	N	0.423004	0.667147	0.962855
	N245	N	0.593844	0.667686	0.037390
	N246	N	0.592839	0.310857	0.962132
	N247	N	0.422358	0.310119	0.037574
	N248	N	0.682432	0.951661	0.415704
	N249	N	0.684924	0.026202	0.585336
	N250	N	0.330624	0.950701	0.583430
	N251	N	0.330165	0.026287	0.414383
	N252	N	0.922335	0.451811	0.178088
	N253	N	0.094641	0.526088	0.178500
	N254	N	0.094766	0.451709	0.820180
	N255	N	0.921716	0.525911	0.820660
	N256	N	0.186305	0.902599	0.462228
	N257	N	0.186778	0.075050	0.535635
	N258	N	0.828314	0.073651	0.462131
	N259	N	0.827109	0.901729	0.536137
	N260	N	0.469747	0.165578	0.914830
	N261	N	0.545493	0.164596	0.083760
	N262	N	0.470120	0.812158	0.084368
	N263	N	0.545695	0.813417	0.916454
	N264	N	0.470563	0.901852	0.180058
	N265	N	0.543356	0.075535	0.179702
	N266	N	0.470134	0.075844	0.819421
	N267	N	0.543103	0.901354	0.819667
	N268	N	0.921841	0.166337	0.461164
	N269	N	0.092550	0.166604	0.536247
	N270	N	0.090998	0.811572	0.461797
	N271	N	0.920900	0.808974	0.536541
	N272	N	0.184935	0.451269	0.914550
	N273	N	0.183813	0.526981	0.083216
	N274	N	0.831093	0.451871	0.084438
	N275	N	0.831937	0.527508	0.915575
	O276	O	1.031422	1.044696	-0.068187
	H277	H	1.038074	1.047895	-0.073650
	H278	H	1.023503	1.037613	-0.065429
	O279	O	0.006120	0.023403	-0.013009
	H280	H	0.015153	0.024207	-0.013860
	H281	H	0.003651	0.021563	-0.008386
	O282	O	-0.049255	0.056561	0.958169
	H283	H	-0.041863	0.062047	0.953910
	H284	H	-0.059393	0.064024	0.962616
	O285	O	0.006142	1.032802	0.038331
	H286	H	0.004854	1.043518	0.044491
	H287	H	-0.001350	1.046053	0.038995
	O288	O	0.517955	0.492891	0.546134
	H289	H	0.518762	0.507549	0.551653
	H290	H	0.513083	0.491362	0.544072
	O291	O	0.507809	0.491222	0.497340
	H292	H	0.500096	0.485120	0.507677
	H293	H	0.508864	0.488065	0.496364
	O294	O	-0.499413	0.511769	0.576934
	H295	H	-0.489326	0.511881	0.567410
	H296	H	-0.506158	0.515294	0.587074
	O297	O	0.467279	0.484653	0.544854
	H298	H	0.461961	0.488638	0.542599
	H299	H	0.467707	0.479823	0.544465
	O300	O	-0.014781	1.018930	0.969224
	H301	H	-0.016687	1.013216	0.966488
	H302	H	-0.015079	1.020020	0.961151
	O303	O	0.493036	0.518092	0.535353
	H304	H	0.489618	0.520897	0.538523
	H305	H	0.490230	0.526040	0.538843
	O306	O	0.522018	-0.491174	1.522148
	H307	H	0.534078	-0.496091	1.517798
	H308	H	0.524064	-0.487830	1.516890
	O309	O	0.993967	1.029336	0.949848
	H310	H	0.993995	1.026701	0.952181
	H311	H	0.992078	1.030650	0.941077
	O312	O	-0.013789	1.016447	0.016064
	H313	H	-0.007202	1.010248	0.013690
	H314	H	-0.023237	1.025549	0.020828
	O315	O	0.549021	0.537760	0.517906
	H316	H	0.553234	0.530868	0.516876
	H317	H	0.554609	0.535258	0.514515
	O318	O	0.041033	1.048676	0.009006
	H319	H	0.043518	1.039882	0.008146
	H320	H	0.047453	1.053080	0.011736
	O321	O	0.972580	1.028880	-0.083600
	H322	H	0.970820	1.028100	-0.089324
	H323	H	0.970593	1.029099	-0.084013
