data_Molecule from HDF5

_cell_length_a		16.507973
_cell_length_b		16.472280
_cell_length_c		16.493928
_cell_angle_alpha	90.009471
_cell_angle_beta	90.065509
_cell_angle_gamma	89.888595
_symmetry_space_group_name_H-M	'P 1'
_symmetry_Int_Tables_number		1

loop_
	_symmetry_equiv_pos_as_xyz
	x,y,z

loop_
	_atom_site_label
	_atom_site_type_symbol
	_atom_site_fract_x
	_atom_site_fract_y
	_atom_site_fract_z
	H0	H	0.387730	0.845721	0.726883
	H1	H	0.596490	0.159424	0.721519
	H2	H	0.603957	0.846143	0.276816
	H3	H	0.384911	0.158935	0.279430
	H4	H	0.712486	0.400141	0.847023
	H5	H	0.719383	0.612983	0.160687
	H6	H	0.273781	0.606224	0.846734
	H7	H	0.269014	0.394352	0.161597
	H8	H	0.837863	0.727706	0.393826
	H9	H	0.151636	0.722804	0.609404
	H10	H	0.836724	0.282715	0.604527
	H11	H	0.150330	0.278034	0.394332
	H12	H	0.837119	0.398052	0.723595
	H13	H	0.150649	0.608094	0.725724
	H14	H	0.837887	0.612368	0.277276
	H15	H	0.150467	0.394333	0.279485
	H16	H	0.389115	0.722882	0.846851
	H17	H	0.603066	0.729499	0.160284
	H18	H	0.594274	0.285308	0.846271
	H19	H	0.386596	0.279366	0.162762
	H20	H	0.719947	0.845516	0.393214
	H21	H	0.712819	0.158794	0.605331
	H22	H	0.272447	0.844569	0.610026
	H23	H	0.268180	0.157166	0.393273
	H24	H	0.887004	0.345158	0.226212
	H25	H	0.104506	0.657868	0.230798
	H26	H	0.094438	0.345460	0.785561
	H27	H	0.886808	0.661065	0.781230
	H28	H	0.221898	0.888431	0.347608
	H29	H	0.213004	0.102906	0.659530
	H30	H	0.766848	0.111746	0.348226
	H31	H	0.771964	0.893390	0.659921
	H32	H	0.334760	0.219249	0.903607
	H33	H	0.651207	0.224623	0.110893
	H34	H	0.338710	0.776817	0.114235
	H35	H	0.649026	0.775887	0.894302
	H36	H	0.338502	0.892887	0.229603
	H37	H	0.649324	0.113746	0.231213
	H38	H	0.334950	0.101198	0.787571
	H39	H	0.650768	0.893736	0.780917
	H40	H	0.882935	0.227330	0.346461
	H41	H	0.094726	0.220072	0.659697
	H42	H	0.105336	0.773607	0.347473
	H43	H	0.889227	0.779209	0.659608
	H44	H	0.213189	0.345742	0.900475
	H45	H	0.218563	0.658681	0.113866
	H46	H	0.772149	0.344871	0.109370
	H47	H	0.771143	0.661473	0.898103
	H48	H	0.404103	0.114597	0.592690
	H49	H	0.588771	0.886596	0.587470
	H50	H	0.581205	0.109999	0.422196
	H51	H	0.409756	0.891384	0.418201
	H52	H	0.578285	0.413476	0.116427
	H53	H	0.586667	0.587738	0.892545
	H54	H	0.412757	0.593958	0.115986
	H55	H	0.401956	0.410990	0.891727
	H56	H	0.103581	0.585771	0.414933
	H57	H	0.881113	0.596644	0.585891
	H58	H	0.107863	0.412211	0.593866
	H59	H	0.879646	0.412178	0.411914
	H60	H	0.109331	0.410685	0.595726
	H61	H	0.884676	0.585232	0.588351
	H62	H	0.104399	0.588932	0.417824
	H63	H	0.882906	0.413186	0.419230
	H64	H	0.400764	0.592329	0.119272
	H65	H	0.576663	0.586500	0.896345
	H66	H	0.585126	0.408695	0.120866
	H67	H	0.401847	0.413642	0.892826
	H68	H	0.582977	0.114696	0.415721
	H69	H	0.587424	0.883483	0.600091
	H70	H	0.403477	0.114954	0.592875
	H71	H	0.406340	0.890385	0.416815
	H72	H	0.901496	0.615390	0.088000
	H73	H	0.081078	0.391806	0.089939
	H74	H	0.080737	0.618492	0.909018
	H75	H	0.899636	0.388171	0.912489
	H76	H	0.084066	0.914763	0.613192
	H77	H	0.081804	0.086004	0.389863
	H78	H	0.903311	0.094430	0.616567
	H79	H	0.908731	0.909495	0.389868
	H80	H	0.609768	0.096557	0.909806
	H81	H	0.381714	0.092781	0.093112
	H82	H	0.604559	0.920581	0.093049
	H83	H	0.383807	0.911667	0.924516
	H84	H	0.604421	0.913301	0.086081
	H85	H	0.383265	0.090708	0.089926
	H86	H	0.608798	0.095664	0.913398
	H87	H	0.384484	0.922095	0.913423
	H88	H	0.903825	0.087620	0.613795
	H89	H	0.079514	0.090901	0.389036
	H90	H	0.082025	0.911346	0.614623
	H91	H	0.902413	0.922124	0.391998
	H92	H	0.079527	0.615181	0.919045
	H93	H	0.080062	0.391540	0.090070
	H94	H	0.908865	0.614848	0.095641
	H95	H	0.903717	0.389836	0.910262
	H96	H	0.403817	0.115271	0.593009
	H97	H	0.577579	0.888689	0.593612
	H98	H	0.576313	0.111253	0.416232
	H99	H	0.409540	0.891095	0.414148
	H100	H	0.585983	0.417701	0.118717
	H101	H	0.579716	0.595333	0.891744
	H102	H	0.406979	0.583121	0.113906
	H103	H	0.404451	0.412075	0.892659
	H104	H	0.102218	0.585206	0.419088
	H105	H	0.879050	0.592027	0.597062
	H106	H	0.107764	0.409118	0.593206
	H107	H	0.883267	0.418891	0.414166
	H108	H	0.910474	0.610481	0.085954
	H109	H	0.080798	0.392245	0.089651
	H110	H	0.088887	0.618454	0.915537
	H111	H	0.902807	0.391135	0.915143
	H112	H	0.086190	0.911641	0.615434
	H113	H	0.084601	0.090097	0.387531
	H114	H	0.909392	0.091812	0.613568
	H115	H	0.915869	0.919847	0.395734
	H116	H	0.609266	0.093403	0.910812
	H117	H	0.382603	0.088905	0.093226
	H118	H	0.600055	0.922220	0.084044
	H119	H	0.378521	0.908831	0.910201
	C120	C	0.372602	0.010582	0.624512
	C121	C	0.615992	0.991231	0.625052
	C122	C	0.615542	0.009506	0.382251
	C123	C	0.372889	0.993807	0.381524
	C124	C	0.614112	0.382200	0.013818
	C125	C	0.615690	0.624990	0.996320
	C126	C	0.373308	0.622933	0.012909
	C127	C	0.370614	0.380046	0.996880
	C128	C	0.001595	0.623185	0.381491
	C129	C	0.985774	0.623161	0.623581
	C130	C	0.003248	0.380621	0.624440
	C131	C	0.985272	0.380620	0.381453
	C132	C	0.873158	0.510498	0.124075
	C133	C	0.114995	0.494470	0.124939
	C134	C	0.114558	0.512735	0.882942
	C135	C	0.870742	0.494603	0.881014
	C136	C	0.117924	0.877988	0.511289
	C137	C	0.113877	0.121234	0.493172
	C138	C	0.871514	0.124576	0.511450
	C139	C	0.874783	0.881979	0.495258
	C140	C	0.503403	0.124365	0.881987
	C141	C	0.485513	0.124501	0.126382
	C142	C	0.501255	0.882886	0.123800
	C143	C	0.485494	0.880375	0.882440
	C144	C	0.369929	0.892441	0.685761
	C145	C	0.616125	0.111504	0.682720
	C146	C	0.620803	0.892756	0.318554
	C147	C	0.367992	0.111290	0.319596
	C148	C	0.672638	0.381315	0.894311
	C149	C	0.678825	0.630507	0.113603
	C150	C	0.313434	0.625133	0.894124
	C151	C	0.309729	0.377120	0.114784
	C152	C	0.884953	0.686960	0.376471
	C153	C	0.104327	0.682868	0.626805
	C154	C	0.884194	0.321995	0.624598
	C155	C	0.103007	0.318606	0.377039
	C156	C	0.884267	0.379437	0.683286
	C157	C	0.103596	0.625852	0.684972
	C158	C	0.884835	0.629210	0.318472
	C159	C	0.103224	0.376855	0.319973
	C160	C	0.370917	0.683069	0.894117
	C161	C	0.620808	0.688445	0.113414
	C162	C	0.614041	0.324361	0.893918
	C163	C	0.368178	0.319509	0.115267
	C164	C	0.678703	0.892399	0.376433
	C165	C	0.673821	0.111110	0.624967
	C166	C	0.312454	0.891936	0.627556
	C167	C	0.309102	0.110469	0.375991
	C168	C	0.869490	0.392400	0.185634
	C169	C	0.120349	0.611433	0.188747
	C170	C	0.114504	0.393049	0.824718
	C171	C	0.868727	0.613478	0.821210
	C172	C	0.180651	0.872016	0.394274
	C173	C	0.172811	0.122311	0.612530
	C174	C	0.808486	0.128709	0.394433
	C175	C	0.813002	0.876932	0.612855
	C176	C	0.382865	0.180871	0.883404
	C177	C	0.603814	0.185195	0.129582
	C178	C	0.385151	0.818532	0.130649
	C179	C	0.602468	0.817426	0.877876
	C180	C	0.385147	0.876655	0.188057
	C181	C	0.602616	0.129841	0.189397
	C182	C	0.382884	0.122256	0.825704
	C183	C	0.603204	0.876147	0.821042
	C184	C	0.866714	0.186160	0.393620
	C185	C	0.114472	0.180294	0.612457
	C186	C	0.122617	0.814627	0.394376
	C187	C	0.871550	0.819859	0.612807
	C188	C	0.173187	0.393318	0.881939
	C189	C	0.177664	0.611957	0.130721
	C190	C	0.811878	0.392257	0.127725
	C191	C	0.810881	0.613707	0.879258
	C192	C	0.396790	0.093311	0.599680
	C193	C	0.591543	0.907950	0.600659
	C194	C	0.588076	0.091032	0.410225
	C195	C	0.400452	0.911978	0.408813
	C196	C	0.589969	0.406255	0.096955
	C197	C	0.588768	0.597830	0.914966
	C198	C	0.399339	0.597123	0.094987
	C199	C	0.395873	0.404978	0.914106
	C200	C	0.082566	0.594900	0.409177
	C201	C	0.903231	0.598350	0.597836
	C202	C	0.086454	0.403957	0.600978
	C203	C	0.903412	0.407041	0.407683
	C204	C	0.899253	0.592339	0.097551
	C205	C	0.088376	0.413178	0.097551
	C206	C	0.090072	0.595969	0.907453
	C207	C	0.894932	0.411524	0.905775
	C208	C	0.091636	0.904885	0.592998
	C209	C	0.089006	0.096226	0.410374
	C210	C	0.898027	0.098621	0.593319
	C211	C	0.901303	0.909350	0.413806
	C212	C	0.587358	0.101717	0.904726
	C213	C	0.403799	0.098330	0.099636
	C214	C	0.582051	0.910617	0.095780
	C215	C	0.403344	0.906711	0.908431
	Zn216	Zn	0.494443	0.001515	0.753243
	Zn217	Zn	0.494563	0.002500	0.253559
	Zn218	Zn	0.743395	0.503034	0.004767
	Zn219	Zn	0.243527	0.503157	0.004845
	Zn220	Zn	-0.005487	0.751752	0.502763
	Zn221	Zn	-0.006001	0.252019	0.501587
	Zn222	Zn	-0.006640	0.503526	0.753266
	Zn223	Zn	-0.006317	0.501896	0.253049
	Zn224	Zn	0.493090	0.752670	0.004455
	Zn225	Zn	0.493764	0.252585	0.005325
	Zn226	Zn	0.744316	0.001049	0.503280
	Zn227	Zn	0.244491	0.000771	0.502156
	N228	N	0.406762	0.966974	0.684056
	N229	N	0.581290	0.035684	0.683348
	N230	N	0.582494	0.966765	0.321940
	N231	N	0.406719	0.037343	0.322828
	N232	N	0.672943	0.416309	0.969894
	N233	N	0.675928	0.591878	0.039716
	N234	N	0.314598	0.588685	0.968976
	N235	N	0.311229	0.413901	0.040050
	N236	N	0.958921	0.683414	0.414829
	N237	N	0.029933	0.681416	0.589284
	N238	N	0.959255	0.322476	0.588892
	N239	N	0.028619	0.320714	0.414307
	N240	N	0.959412	0.415033	0.683638
	N241	N	0.028741	0.589589	0.683115
	N242	N	0.958452	0.590545	0.321298
	N243	N	0.028906	0.414653	0.322541
	N244	N	0.407145	0.681976	0.969187
	N245	N	0.582694	0.685345	0.039515
	N246	N	0.578410	0.324665	0.969157
	N247	N	0.405253	0.321089	0.040735
	N248	N	0.675527	0.966151	0.415280
	N249	N	0.674058	0.035260	0.590377
	N250	N	0.314248	0.966226	0.589700
	N251	N	0.312033	0.036151	0.413736
	N252	N	0.906659	0.466983	0.183528
	N253	N	0.082156	0.537423	0.185379
	N254	N	0.078737	0.468466	0.825186
	N255	N	0.904850	0.538272	0.821954
	N256	N	0.178021	0.910452	0.468178
	N257	N	0.172818	0.086714	0.537189
	N258	N	0.811581	0.090689	0.468498
	N259	N	0.815030	0.915106	0.538806
	N260	N	0.458974	0.182689	0.917321
	N261	N	0.530014	0.182057	0.090932
	N262	N	0.458353	0.822346	0.091205
	N263	N	0.528283	0.820082	0.915576
	N264	N	0.458346	0.916044	0.183695
	N265	N	0.528103	0.092756	0.187441
	N266	N	0.459043	0.088468	0.824176
	N267	N	0.529438	0.914689	0.823880
	N268	N	0.905351	0.183659	0.467438
	N269	N	0.078909	0.179822	0.537161
	N270	N	0.084090	0.818479	0.468121
	N271	N	0.909377	0.822999	0.538780
	N272	N	0.173580	0.468907	0.916943
	N273	N	0.174382	0.538318	0.091711
	N274	N	0.813896	0.466773	0.090364
	N275	N	0.811899	0.538826	0.915955
	O276	O	0.534139	0.303863	0.577349
	H277	H	0.509736	0.300384	0.606916
	H278	H	0.538222	0.329388	0.582646
	O279	O	0.444047	0.555475	0.540477
	H280	H	0.433390	0.553830	0.539404
	H281	H	0.456902	0.557528	0.519384
	O282	O	0.967595	0.997340	0.090653
	H283	H	0.943588	1.001921	0.091630
	H284	H	0.966071	0.995655	0.085488
	O285	O	0.433545	0.290987	0.444511
	H286	H	0.414084	0.296090	0.464279
	H287	H	0.433814	0.291345	0.474799
	O288	O	0.020019	0.215591	0.218192
	H289	H	-0.003827	0.195229	0.231709
	H290	H	0.008652	0.232820	0.241422
	O291	O	0.781919	0.788306	0.037835
	H292	H	0.758694	0.780902	0.025830
	H293	H	0.769701	0.798531	0.034545
	O294	O	-0.223919	0.988393	0.221252
	H295	H	-0.216640	0.949633	0.211031
	H296	H	-0.254922	0.977888	0.242726
	O297	O	0.435165	0.449454	0.281768
	H298	H	0.432326	0.430836	0.281780
	H299	H	0.445669	0.450540	0.284575
	O300	O	0.682354	0.671996	0.631973
	H301	H	0.642716	0.677635	0.634232
	H302	H	0.684454	0.676408	0.588888
	O303	O	0.339420	0.480881	0.692687
	H304	H	0.332221	0.472867	0.709352
	H305	H	0.330811	0.488341	0.676366
	O306	O	0.212735	0.782544	0.979567
	H307	H	0.235583	0.762093	0.982533
	H308	H	0.213074	0.788936	0.953864
	O309	O	0.680584	0.702099	0.479959
	H310	H	0.660484	0.697493	0.459911
	H311	H	0.697129	0.696185	0.472634
	O312	O	0.478844	0.715447	0.293590
	H313	H	0.479171	0.714599	0.269295
	H314	H	0.446460	0.711496	0.292143
	O315	O	0.209848	0.023584	1.223240
	H316	H	0.215112	0.004559	1.223373
	H317	H	0.224916	0.014074	1.243003
	O318	O	0.006279	0.985456	-0.060107
	H319	H	-0.007464	0.982342	-0.058668
	H320	H	0.000874	0.976700	-0.061013
	O321	O	0.282586	0.712815	0.479583
	H322	H	0.291377	0.726847	0.502245
	H323	H	0.279189	0.738659	0.488150
	O324	O	0.910582	0.070992	0.889528
	H325	H	0.913023	0.075234	0.896183
	H326	H	0.891215	0.075329	0.891688
	O327	O	0.910583	0.204092	1.055432
	H328	H	0.911774	0.202312	1.050818
	H329	H	0.899572	0.201774	1.067673
	O330	O	0.905429	0.097169	0.211487
	H331	H	0.885015	0.083286	0.212221
	H332	H	0.898835	0.069669	0.208445
	O333	O	0.949271	0.792439	0.962628
	H334	H	0.949258	0.785358	0.984046
	H335	H	0.938758	0.802466	0.973284
	O336	O	1.186850	-0.020700	1.037510
	H337	H	1.178919	-0.013757	1.020193
	H338	H	1.195986	-0.034619	1.017040
	O339	O	0.715466	0.478871	0.283674
	H340	H	0.710644	0.440983	0.293666
	H341	H	0.740651	0.466365	0.252942
	O342	O	0.375464	0.521843	0.704522
	H343	H	0.368445	0.503964	0.698945
	H344	H	0.373689	0.509593	0.712728
	O345	O	0.179443	0.183995	0.181818
	H346	H	0.125891	0.195058	0.194397
	H347	H	0.188828	0.130421	0.196242
	O348	O	1.054482	0.038953	0.805071
	H349	H	1.053907	0.022727	0.809096
	H350	H	1.038930	0.029762	0.809533
	O351	O	0.778841	1.048837	0.038512
	H352	H	0.781587	1.077047	0.040303
	H353	H	0.771102	1.045238	0.051160
	O354	O	0.554472	0.553821	0.281802
	H355	H	0.538150	0.545466	0.277754
	H356	H	0.591892	0.545423	0.273237
	O357	O	0.820140	0.850888	1.152741
	H358	H	0.806410	0.838787	1.115438
	H359	H	0.865175	0.851545	1.154667
	O360	O	0.268528	0.534431	0.548143
	H361	H	0.264817	0.552031	0.538250
	H362	H	0.274704	0.538734	0.545963
	O363	O	0.713114	0.541201	0.456812
	H364	H	0.709397	0.523329	0.456900
	H365	H	0.704769	0.527839	0.429659
	O366	O	0.791771	0.200120	0.969187
	H367	H	0.772853	0.224373	0.957806
	H368	H	0.802252	0.201773	0.941993
	O369	O	0.305450	0.521596	0.309722
	H370	H	0.301668	0.509675	0.307384
	H371	H	0.297595	0.528607	0.299230
	O372	O	0.291851	0.416753	0.434395
	H373	H	0.281447	0.413977	0.435695
	H374	H	0.292399	0.426870	0.452167
	O375	O	0.207006	1.217345	1.023135
	H376	H	0.183432	1.210663	1.059736
	H377	H	0.237814	1.247182	1.041547
	O378	O	1.052611	-0.051019	0.227936
	H379	H	1.037113	-0.051353	0.221396
	H380	H	1.063900	-0.067916	0.232492
	O381	O	0.976915	-0.210045	0.222356
	H382	H	0.984106	-0.230468	0.232343
	H383	H	0.972820	-0.219435	0.213295
	O384	O	0.184364	-0.039663	0.817825
	H385	H	0.182722	-0.031478	0.847432
	H386	H	0.177814	-0.047547	0.812240
	O387	O	0.017578	0.802810	0.799394
	H388	H	-0.008547	0.812952	0.810514
	H389	H	0.001679	0.786709	0.794111
	O390	O	0.284719	0.294864	0.707742
	H391	H	0.251958	0.262718	0.741040
	H392	H	0.301890	0.312487	0.703203
	O393	O	1.061607	0.786834	0.075138
	H394	H	1.082706	0.788011	0.067355
	H395	H	1.069218	0.798146	0.072084
	O396	O	0.540957	0.700270	0.568007
	H397	H	0.541618	0.717277	0.553574
	H398	H	0.553576	0.695944	0.562642
	O399	O	0.538678	0.639853	0.483236
	H400	H	0.525084	0.660190	0.477615
	H401	H	0.529521	0.636274	0.474424
	O402	O	-0.062206	-0.078647	0.870847
	H403	H	-0.076483	-0.073230	0.862163
	H404	H	-0.069801	-0.070799	0.893702
	O405	O	0.208797	0.005631	0.005432
	H406	H	0.202061	0.020229	0.017669
	H407	H	0.208325	0.025979	0.018966
	O408	O	0.382192	0.686750	0.621284
	H409	H	0.396157	0.675072	0.607464
	H410	H	0.370097	0.676715	0.633808
	O411	O	0.683277	0.313275	0.691065
	H412	H	0.673842	0.322210	0.665425
	H413	H	0.668285	0.338004	0.682828
	O414	O	0.519043	0.290876	0.292831
	H415	H	0.497003	0.281701	0.329535
	H416	H	0.513161	0.264582	0.270029
	O417	O	0.463323	0.422438	0.444203
	H418	H	0.447243	0.421074	0.443247
	H419	H	0.462236	0.425181	0.426126
	O420	O	0.710458	0.473896	0.603391
	H421	H	0.699316	0.492992	0.598942
	H422	H	0.724507	0.498870	0.620820
	O423	O	0.182455	1.193437	-0.189526
	H424	H	0.164697	1.164514	-0.177952
	H425	H	0.162538	1.184351	-0.161490
	O426	O	0.784735	1.209733	0.797775
	H427	H	0.825154	1.216456	0.788630
	H428	H	0.771940	1.231463	0.771359
	O429	O	0.317083	0.680681	0.319875
	H430	H	0.306008	0.659517	0.340992
	H431	H	0.317495	0.674613	0.342347
	O432	O	0.274106	0.278607	0.535645
	H433	H	0.274232	0.279924	0.573525
	H434	H	0.243542	0.262048	0.530364
	O435	O	-0.046759	0.206486	-0.195806
	H436	H	-0.029750	0.219978	-0.206858
	H437	H	-0.024778	0.191029	-0.188066
	O438	O	1.057411	0.218523	-0.056179
	H439	H	1.058439	0.225270	-0.024766
	H440	H	1.053520	0.212884	-0.048709
	O441	O	0.690450	0.306294	0.487696
	H442	H	0.690910	0.322717	0.507169
	H443	H	0.683583	0.305134	0.498905
	O444	O	0.193742	0.805750	0.807085
	H445	H	0.164515	0.811352	0.814652
	H446	H	0.178967	0.835021	0.799271
	O447	O	0.500370	0.707908	0.680377
	H448	H	0.488980	0.701762	0.693763
	H449	H	0.484084	0.709274	0.678851
	O450	O	0.681516	0.322319	0.322499
	H451	H	0.688553	0.316336	0.371854
	H452	H	0.629603	0.310933	0.312845
	O453	O	0.523812	0.451369	0.709048
	H454	H	0.521137	0.465023	0.716977
	H455	H	0.541756	0.460925	0.708229
	O456	O	0.797584	0.035619	-0.202516
	H457	H	0.779139	0.050006	-0.215926
	H458	H	0.786735	0.058926	-0.203420
	O459	O	0.453592	0.279037	0.724939
	H460	H	0.452227	0.251318	0.757759
	H461	H	0.434455	0.297633	0.725991
	O462	O	0.713392	0.576788	0.695810
	H463	H	0.707657	0.612860	0.681597
	H464	H	0.732068	0.587295	0.721301
	O465	O	0.792962	-0.073839	-0.063762
	H466	H	0.791416	-0.046030	-0.056946
	H467	H	0.789520	-0.054629	-0.084632
