data_Molecule from HDF5

_cell_length_a		16.117816
_cell_length_b		16.384671
_cell_length_c		16.246484
_cell_angle_alpha	90.376030
_cell_angle_beta	89.735914
_cell_angle_gamma	90.122047
_symmetry_space_group_name_H-M	'P 1'
_symmetry_Int_Tables_number		1

loop_
	_symmetry_equiv_pos_as_xyz
	x,y,z

loop_
	_atom_site_label
	_atom_site_type_symbol
	_atom_site_fract_x
	_atom_site_fract_y
	_atom_site_fract_z
	H0	H	0.395779	0.840461	0.712467
	H1	H	0.598264	0.164315	0.715497
	H2	H	0.597092	0.840981	0.279345
	H3	H	0.398947	0.166357	0.284370
	H4	H	0.710445	0.404323	0.832889
	H5	H	0.708908	0.600016	0.162077
	H6	H	0.285450	0.598421	0.832792
	H7	H	0.281963	0.407807	0.161284
	H8	H	0.832491	0.717670	0.397745
	H9	H	0.160389	0.719768	0.598589
	H10	H	0.832827	0.287528	0.597393
	H11	H	0.161375	0.287245	0.393846
	H12	H	0.831574	0.405770	0.709832
	H13	H	0.161030	0.603200	0.710769
	H14	H	0.830839	0.598733	0.286617
	H15	H	0.161762	0.403576	0.281139
	H16	H	0.396857	0.717850	0.834089
	H17	H	0.599469	0.721336	0.159767
	H18	H	0.598660	0.284186	0.834950
	H19	H	0.394148	0.288761	0.161377
	H20	H	0.711388	0.839351	0.397830
	H21	H	0.711936	0.165745	0.596348
	H22	H	0.281140	0.840243	0.594955
	H23	H	0.283714	0.166194	0.401469
	H24	H	0.895811	0.340249	0.212458
	H25	H	0.096352	0.664626	0.214019
	H26	H	0.097134	0.340859	0.778313
	H27	H	0.897343	0.665319	0.782307
	H28	H	0.210235	0.905228	0.333294
	H29	H	0.208597	0.101193	0.661711
	H30	H	0.785404	0.096602	0.332130
	H31	H	0.782859	0.906863	0.661672
	H32	H	0.331275	0.215162	0.900011
	H33	H	0.660836	0.219628	0.098707
	H34	H	0.332540	0.789628	0.096757
	H35	H	0.661045	0.787387	0.895315
	H36	H	0.331475	0.906754	0.210225
	H37	H	0.662729	0.101548	0.210334
	H38	H	0.331743	0.100490	0.785226
	H39	H	0.661632	0.904185	0.782635
	H40	H	0.896901	0.216776	0.333138
	H41	H	0.098224	0.221416	0.659036
	H42	H	0.098601	0.785684	0.334693
	H43	H	0.893618	0.787160	0.660237
	H44	H	0.212201	0.340014	0.896583
	H45	H	0.210529	0.666223	0.095108
	H46	H	0.781452	0.340041	0.093594
	H47	H	0.783489	0.665879	0.901251
	H48	H	0.404308	0.117504	0.589748
	H49	H	0.577649	0.889480	0.592324
	H50	H	0.601846	0.118259	0.417002
	H51	H	0.405312	0.884837	0.394745
	H52	H	0.592927	0.403015	0.117367
	H53	H	0.592744	0.596383	0.878856
	H54	H	0.405800	0.594369	0.112947
	H55	H	0.407381	0.404860	0.880643
	H56	H	0.114473	0.601695	0.413026
	H57	H	0.875300	0.602956	0.595333
	H58	H	0.115401	0.415757	0.594148
	H59	H	0.881429	0.416342	0.403908
	H60	H	0.117438	0.403422	0.586707
	H61	H	0.881363	0.597197	0.579611
	H62	H	0.111178	0.586099	0.407128
	H63	H	0.875922	0.404052	0.399618
	H64	H	0.407093	0.600752	0.114652
	H65	H	0.587914	0.592369	0.882427
	H66	H	0.590719	0.419855	0.112010
	H67	H	0.403270	0.407258	0.879978
	H68	H	0.595317	0.123935	0.390225
	H69	H	0.593158	0.888515	0.579832
	H70	H	0.402241	0.119465	0.593231
	H71	H	0.410667	0.890135	0.406740
	H72	H	0.907512	0.616215	0.087013
	H73	H	0.094051	0.383311	0.096744
	H74	H	0.086939	0.616551	0.907269
	H75	H	0.902678	0.384809	0.895525
	H76	H	0.088517	0.906957	0.615928
	H77	H	0.090804	0.098628	0.378496
	H78	H	0.911670	0.102303	0.612539
	H79	H	0.897256	0.904584	0.377612
	H80	H	0.612880	0.085408	0.901109
	H81	H	0.379167	0.103306	0.082709
	H82	H	0.618754	0.903943	0.095069
	H83	H	0.375877	0.903956	0.900484
	H84	H	0.612769	0.907527	0.078730
	H85	H	0.383620	0.085907	0.090719
	H86	H	0.618580	0.103836	0.900923
	H87	H	0.379838	0.906043	0.912470
	H88	H	0.898151	0.100653	0.616618
	H89	H	0.092553	0.093057	0.379049
	H90	H	0.090328	0.913365	0.613542
	H91	H	0.905706	0.915623	0.383242
	H92	H	0.096014	0.620206	0.904726
	H93	H	0.079103	0.389354	0.089799
	H94	H	0.895406	0.621354	0.092465
	H95	H	0.910307	0.388621	0.904763
	H96	H	0.406697	0.118913	0.593738
	H97	H	0.595429	0.882294	0.597887
	H98	H	0.575812	0.114056	0.407483
	H99	H	0.396953	0.886033	0.406848
	H100	H	0.576733	0.408535	0.111674
	H101	H	0.586036	0.599663	0.880126
	H102	H	0.400892	0.599106	0.115302
	H103	H	0.407553	0.409817	0.881823
	H104	H	0.118296	0.598424	0.396653
	H105	H	0.880104	0.586255	0.593467
	H106	H	0.110755	0.414961	0.579639
	H107	H	0.880533	0.405888	0.412812
	H108	H	0.906360	0.620396	0.100979
	H109	H	0.094344	0.388332	0.080504
	H110	H	0.088779	0.620178	0.898053
	H111	H	0.898374	0.386628	0.906682
	H112	H	0.083441	0.911051	0.612612
	H113	H	0.086694	0.094604	0.381204
	H114	H	0.905867	0.090404	0.611983
	H115	H	0.912622	0.902423	0.380403
	H116	H	0.611151	0.095300	0.917665
	H117	H	0.374105	0.100831	0.102258
	H118	H	0.613985	0.920349	0.091631
	H119	H	0.380316	0.915801	0.904050
	C120	C	0.374709	0.011347	0.620027
	C121	C	0.618109	0.994408	0.618978
	C122	C	0.619369	0.011142	0.375356
	C123	C	0.375758	0.994594	0.375081
	C124	C	0.617311	0.380716	0.005962
	C125	C	0.618275	0.624929	0.988879
	C126	C	0.375808	0.625343	0.005952
	C127	C	0.375526	0.380618	0.988996
	C128	C	0.005484	0.623595	0.376934
	C129	C	0.987587	0.624590	0.618204
	C130	C	0.005514	0.382363	0.616576
	C131	C	0.988298	0.380536	0.375213
	C132	C	0.874300	0.511348	0.120290
	C133	C	0.117919	0.494492	0.118358
	C134	C	0.119731	0.511509	0.873598
	C135	C	0.875049	0.494361	0.874868
	C136	C	0.117903	0.881071	0.506154
	C137	C	0.118764	0.125058	0.487984
	C138	C	0.876167	0.124747	0.505269
	C139	C	0.875306	0.880417	0.488466
	C140	C	0.504985	0.123135	0.877912
	C141	C	0.488229	0.125239	0.120236
	C142	C	0.505974	0.882591	0.117487
	C143	C	0.487615	0.880345	0.875800
	C144	C	0.375793	0.888820	0.674481
	C145	C	0.617409	0.116269	0.676069
	C146	C	0.617431	0.889218	0.318210
	C147	C	0.378211	0.117502	0.321470
	C148	C	0.673061	0.383199	0.882246
	C149	C	0.672602	0.621583	0.112533
	C150	C	0.321972	0.620321	0.882126
	C151	C	0.319637	0.385559	0.112362
	C152	C	0.881338	0.678813	0.378678
	C153	C	0.111409	0.681402	0.617423
	C154	C	0.881826	0.325982	0.616197
	C155	C	0.112059	0.324925	0.374698
	C156	C	0.881095	0.384798	0.672056
	C157	C	0.111816	0.623486	0.673417
	C158	C	0.880664	0.619782	0.323102
	C159	C	0.112458	0.383044	0.318901
	C160	C	0.377072	0.679803	0.882841
	C161	C	0.617985	0.681947	0.111369
	C162	C	0.617542	0.323513	0.883195
	C163	C	0.375204	0.326278	0.112119
	C164	C	0.673993	0.888419	0.377231
	C165	C	0.674179	0.116845	0.617042
	C166	C	0.318829	0.888942	0.616030
	C167	C	0.320987	0.117441	0.379751
	C168	C	0.875716	0.388743	0.174572
	C169	C	0.116483	0.616423	0.175281
	C170	C	0.117552	0.389350	0.817003
	C171	C	0.877187	0.616832	0.820191
	C172	C	0.173108	0.884084	0.382518
	C173	C	0.172219	0.122426	0.612004
	C174	C	0.822262	0.118833	0.381351
	C175	C	0.819926	0.885062	0.612481
	C176	C	0.380833	0.177931	0.879664
	C177	C	0.611884	0.181279	0.118576
	C178	C	0.381487	0.827712	0.116750
	C179	C	0.611809	0.825190	0.875940
	C180	C	0.381124	0.886018	0.172733
	C181	C	0.612936	0.122385	0.173692
	C182	C	0.380932	0.120535	0.822814
	C183	C	0.612251	0.883430	0.820137
	C184	C	0.877521	0.178726	0.382037
	C185	C	0.117522	0.182293	0.610685
	C186	C	0.117797	0.824478	0.383257
	C187	C	0.875231	0.825756	0.611758
	C188	C	0.174451	0.388748	0.876045
	C189	C	0.172959	0.617390	0.115950
	C190	C	0.818958	0.388599	0.115628
	C191	C	0.820820	0.617155	0.879394
	C192	C	0.397764	0.096587	0.598697
	C193	C	0.595479	0.908927	0.596481
	C194	C	0.597416	0.096766	0.398233
	C195	C	0.397748	0.908980	0.396408
	C196	C	0.593698	0.403731	0.091584
	C197	C	0.595757	0.602645	0.902614
	C198	C	0.398061	0.604296	0.092000
	C199	C	0.399072	0.401445	0.902979
	C200	C	0.092237	0.601758	0.399014
	C201	C	0.901175	0.601976	0.596064
	C202	C	0.092080	0.404907	0.593441
	C203	C	0.901804	0.402480	0.398426
	C204	C	0.896431	0.596923	0.099552
	C205	C	0.095611	0.409135	0.095816
	C206	C	0.097255	0.596956	0.896519
	C207	C	0.897457	0.408806	0.896042
	C208	C	0.094321	0.903685	0.591884
	C209	C	0.096512	0.102202	0.401688
	C210	C	0.898491	0.103883	0.591458
	C211	C	0.898427	0.901336	0.402565
	C212	C	0.591876	0.101297	0.900025
	C213	C	0.401255	0.103304	0.098381
	C214	C	0.592780	0.904060	0.094946
	C215	C	0.401081	0.902177	0.898854
	Zn216	Zn	0.496668	0.002394	0.749148
	Zn217	Zn	0.497705	0.003491	0.246534
	Zn218	Zn	0.745993	0.502934	-0.002885
	Zn219	Zn	0.248028	0.502978	-0.003127
	Zn220	Zn	-0.003254	0.752235	0.497363
	Zn221	Zn	-0.002376	0.252988	0.495779
	Zn222	Zn	-0.003153	0.503402	0.745328
	Zn223	Zn	-0.003257	0.502177	0.248654
	Zn224	Zn	0.497038	0.753772	-0.002513
	Zn225	Zn	0.496220	0.251855	-0.001854
	Zn226	Zn	0.747851	0.002374	0.497465
	Zn227	Zn	0.246365	0.002842	0.497586
	N228	N	0.410077	0.965726	0.677125
	N229	N	0.583381	0.039092	0.677479
	N230	N	0.584196	0.966484	0.317047
	N231	N	0.411411	0.040182	0.318606
	N232	N	0.673031	0.418260	0.959467
	N233	N	0.672868	0.586851	0.035239
	N234	N	0.321213	0.586828	0.959596
	N235	N	0.319645	0.418598	0.034833
	N236	N	0.960013	0.681410	0.411147
	N237	N	0.033100	0.682309	0.583862
	N238	N	0.960267	0.324346	0.582363
	N239	N	0.033950	0.323245	0.408957
	N240	N	0.959019	0.419078	0.672601
	N241	N	0.034082	0.588819	0.674135
	N242	N	0.958838	0.585955	0.322064
	N243	N	0.034409	0.416820	0.318861
	N244	N	0.410044	0.682942	0.960857
	N245	N	0.584888	0.684139	0.033350
	N246	N	0.583717	0.321850	0.961111
	N247	N	0.409244	0.323051	0.034340
	N248	N	0.675221	0.965280	0.412081
	N249	N	0.674522	0.040106	0.582102
	N250	N	0.318049	0.966129	0.583068
	N251	N	0.319211	0.039993	0.412429
	N252	N	0.909097	0.466049	0.177831
	N253	N	0.083160	0.539107	0.176992
	N254	N	0.084214	0.466642	0.815428
	N255	N	0.910472	0.539450	0.817500
	N256	N	0.173334	0.918522	0.459902
	N257	N	0.173237	0.087543	0.534676
	N258	N	0.821411	0.085867	0.458897
	N259	N	0.819899	0.918429	0.535141
	N260	N	0.459049	0.179532	0.913220
	N261	N	0.533320	0.182988	0.085766
	N262	N	0.459965	0.825508	0.083132
	N263	N	0.533362	0.823011	0.909816
	N264	N	0.459565	0.919463	0.173477
	N265	N	0.534988	0.088185	0.174746
	N266	N	0.459144	0.086934	0.821734
	N267	N	0.534043	0.916847	0.819665
	N268	N	0.910328	0.182309	0.460169
	N269	N	0.084827	0.183745	0.532543
	N270	N	0.083951	0.822786	0.460998
	N271	N	0.909067	0.822571	0.533622
	N272	N	0.176190	0.465843	0.910284
	N273	N	0.173970	0.540489	0.081091
	N274	N	0.817950	0.465755	0.082595
	N275	N	0.819211	0.540034	0.912257
	O276	O	0.477954	0.422380	0.484499
	H277	H	0.485717	0.421002	0.484720
	H278	H	0.482239	0.412765	0.493110
	O279	O	0.506183	0.538633	0.565104
	H280	H	0.507364	0.529326	0.570229
	H281	H	0.505117	0.548736	0.568080
	O282	O	0.522095	0.576359	0.518777
	H283	H	0.526614	0.581117	0.520222
	H284	H	0.523288	0.573880	0.521204
	O285	O	0.020117	1.012555	1.001607
	H286	H	0.020957	1.007568	1.008264
	H287	H	0.012467	1.020596	0.998222
	O288	O	0.416688	0.481239	0.456760
	H289	H	0.421121	0.478651	0.446566
	H290	H	0.411453	0.478696	0.465017
	O291	O	0.012384	0.020147	1.070458
	H292	H	0.015789	0.023159	1.077620
	H293	H	0.013817	0.024570	1.070517
	O294	O	0.565808	0.512804	0.504597
	H295	H	0.572143	0.509658	0.509031
	H296	H	0.564710	0.513096	0.504445
	O297	O	0.435612	0.498362	0.504276
	H298	H	0.426783	0.498619	0.517367
	H299	H	0.432353	0.506561	0.502920
	O300	O	0.400302	0.479975	0.540463
	H301	H	0.393381	0.478184	0.535353
	H302	H	0.398801	0.485801	0.550140
	O303	O	0.487602	0.468196	0.479602
	H304	H	0.489918	0.477662	0.471732
	H305	H	0.494518	0.463279	0.470201
	O306	O	1.049547	0.004927	0.971543
	H307	H	1.052996	0.003554	0.960319
	H308	H	1.051903	0.008450	0.978445
	O309	O	0.547719	0.414979	0.466790
	H310	H	0.528366	0.414885	0.471663
	H311	H	0.558129	0.408958	0.464997
	O312	O	0.509027	0.541782	0.634046
	H313	H	0.507052	0.551160	0.633605
	H314	H	0.506422	0.534450	0.633282
	O315	O	1.025204	0.013620	0.979737
	H316	H	1.033038	0.012458	0.971763
	H317	H	1.029053	0.016629	0.980994
	O318	O	-0.022924	0.026092	0.011365
	H319	H	-0.024773	0.026600	0.005455
	H320	H	-0.030624	0.026368	0.014718
	O321	O	0.510733	0.431424	0.457257
	H322	H	0.505229	0.431948	0.453308
	H323	H	0.506605	0.422857	0.454370
	O324	O	1.012683	0.009599	-0.005960
	H325	H	1.016547	0.001018	-0.003613
	H326	H	1.016843	0.007224	-0.008058
	O327	O	0.999210	1.028201	0.009951
	H328	H	0.996287	1.032083	0.017188
	H329	H	0.994398	1.027416	0.012295
	O330	O	0.535989	0.475836	0.463821
	H331	H	0.542479	0.471873	0.467857
	H332	H	0.533910	0.469649	0.457149
	O333	O	0.522236	0.488131	0.559906
	H334	H	0.526407	0.494945	0.552670
	H335	H	0.535264	0.492725	0.562606
