data_Molecule from HDF5

_cell_length_a		16.535262
_cell_length_b		16.545845
_cell_length_c		16.553983
_cell_angle_alpha	89.983099
_cell_angle_beta	90.014796
_cell_angle_gamma	89.951883
_symmetry_space_group_name_H-M	'P 1'
_symmetry_Int_Tables_number		1

loop_
	_symmetry_equiv_pos_as_xyz
	x,y,z

loop_
	_atom_site_label
	_atom_site_type_symbol
	_atom_site_fract_x
	_atom_site_fract_y
	_atom_site_fract_z
	H0	H	0.381584	0.844478	0.728878
	H1	H	0.595910	0.155582	0.732058
	H2	H	0.594480	0.844944	0.284602
	H3	H	0.380948	0.157562	0.283835
	H4	H	0.708618	0.396070	0.850152
	H5	H	0.710234	0.606019	0.163021
	H6	H	0.262206	0.609059	0.853997
	H7	H	0.264187	0.392802	0.164120
	H8	H	0.831672	0.721657	0.402889
	H9	H	0.145430	0.721063	0.611327
	H10	H	0.833061	0.276169	0.615996
	H11	H	0.145179	0.277600	0.400964
	H12	H	0.831961	0.394212	0.730526
	H13	H	0.145350	0.604906	0.728067
	H14	H	0.831686	0.604707	0.287040
	H15	H	0.144382	0.391481	0.283015
	H16	H	0.379067	0.723356	0.853019
	H17	H	0.593224	0.721825	0.163667
	H18	H	0.592062	0.280302	0.849421
	H19	H	0.379771	0.275627	0.163340
	H20	H	0.710666	0.845433	0.400883
	H21	H	0.711676	0.156232	0.615273
	H22	H	0.267396	0.844008	0.610870
	H23	H	0.262756	0.156547	0.397829
	H24	H	0.879390	0.344742	0.233190
	H25	H	0.093123	0.657232	0.228906
	H26	H	0.098358	0.345216	0.782510
	H27	H	0.885697	0.657233	0.788299
	H28	H	0.209631	0.895899	0.348818
	H29	H	0.212105	0.106811	0.663144
	H30	H	0.764807	0.108730	0.351702
	H31	H	0.766640	0.895617	0.662438
	H32	H	0.331192	0.224043	0.899439
	H33	H	0.643740	0.223069	0.112717
	H34	H	0.330371	0.777223	0.116008
	H35	H	0.641833	0.776694	0.900855
	H36	H	0.331128	0.893781	0.231495
	H37	H	0.644579	0.106680	0.228624
	H38	H	0.330692	0.107441	0.784086
	H39	H	0.642083	0.892894	0.784398
	H40	H	0.880540	0.225523	0.351846
	H41	H	0.098010	0.225349	0.663518
	H42	H	0.094284	0.778964	0.349319
	H43	H	0.885856	0.781460	0.663249
	H44	H	0.214013	0.344943	0.898663
	H45	H	0.210664	0.656256	0.114352
	H46	H	0.762732	0.344694	0.116352
	H47	H	0.768631	0.656869	0.904715
	H48	H	0.402071	0.111520	0.593002
	H49	H	0.576911	0.889461	0.592378
	H50	H	0.581493	0.114259	0.420865
	H51	H	0.402183	0.891923	0.421008
	H52	H	0.572899	0.410527	0.117769
	H53	H	0.574344	0.597755	0.892761
	H54	H	0.402334	0.588151	0.118854
	H55	H	0.401883	0.410676	0.896406
	H56	H	0.102358	0.589768	0.413757
	H57	H	0.876107	0.594800	0.592962
	H58	H	0.100165	0.411340	0.595123
	H59	H	0.877320	0.409347	0.421840
	H60	H	0.098554	0.414378	0.592856
	H61	H	0.877163	0.585017	0.598362
	H62	H	0.101988	0.593961	0.420178
	H63	H	0.880926	0.417128	0.423806
	H64	H	0.398390	0.588118	0.121052
	H65	H	0.585230	0.586748	0.892969
	H66	H	0.577938	0.408712	0.121020
	H67	H	0.397330	0.412246	0.896513
	H68	H	0.574712	0.114783	0.411992
	H69	H	0.577821	0.888017	0.597488
	H70	H	0.397222	0.112422	0.593774
	H71	H	0.397330	0.889453	0.419374
	H72	H	0.902155	0.609086	0.092954
	H73	H	0.078794	0.385551	0.101869
	H74	H	0.075826	0.611244	0.917824
	H75	H	0.893921	0.384710	0.916488
	H76	H	0.085366	0.913870	0.619785
	H77	H	0.075401	0.089812	0.396372
	H78	H	0.898750	0.091282	0.619897
	H79	H	0.897134	0.916907	0.394912
	H80	H	0.596520	0.087232	0.922522
	H81	H	0.376330	0.094018	0.089156
	H82	H	0.596561	0.914640	0.096126
	H83	H	0.373965	0.908168	0.921836
	H84	H	0.600142	0.909096	0.098836
	H85	H	0.380216	0.079884	0.091777
	H86	H	0.598728	0.085743	0.915432
	H87	H	0.376534	0.916604	0.921550
	H88	H	0.899750	0.083255	0.617334
	H89	H	0.075586	0.087126	0.396904
	H90	H	0.073330	0.914389	0.615304
	H91	H	0.904562	0.910644	0.395117
	H92	H	0.073501	0.610367	0.920412
	H93	H	0.066653	0.391674	0.095581
	H94	H	0.894453	0.612660	0.095447
	H95	H	0.903200	0.387168	0.914487
	H96	H	0.400832	0.113293	0.597210
	H97	H	0.573133	0.890060	0.596295
	H98	H	0.571584	0.109929	0.421511
	H99	H	0.401616	0.889016	0.416008
	H100	H	0.577260	0.414601	0.118654
	H101	H	0.571378	0.583663	0.898864
	H102	H	0.399874	0.585023	0.118160
	H103	H	0.401015	0.415007	0.897822
	H104	H	0.099882	0.586158	0.420138
	H105	H	0.872373	0.594005	0.603438
	H106	H	0.099451	0.415083	0.597253
	H107	H	0.876280	0.415708	0.415996
	H108	H	0.901094	0.611588	0.101416
	H109	H	0.079680	0.390470	0.087437
	H110	H	0.076609	0.611362	0.921552
	H111	H	0.899390	0.388617	0.923901
	H112	H	0.077832	0.903643	0.620774
	H113	H	0.073474	0.088413	0.397582
	H114	H	0.906185	0.088931	0.616695
	H115	H	0.895949	0.907612	0.391786
	H116	H	0.600484	0.092557	0.918425
	H117	H	0.373149	0.088157	0.102455
	H118	H	0.597712	0.909067	0.091494
	H119	H	0.373527	0.913188	0.914221
	C120	C	0.366936	0.009286	0.627689
	C121	C	0.609476	0.991973	0.628844
	C122	C	0.609088	0.009890	0.385323
	C123	C	0.366348	0.992880	0.384643
	C124	C	0.608578	0.378960	0.015493
	C125	C	0.608591	0.621278	0.998778
	C126	C	0.366048	0.620889	0.016724
	C127	C	0.366127	0.378586	0.999732
	C128	C	-0.002731	0.622099	0.386025
	C129	C	0.979683	0.622600	0.629222
	C130	C	-0.003452	0.379891	0.628730
	C131	C	0.980726	0.379257	0.386299
	C132	C	0.866070	0.508066	0.129547
	C133	C	0.108301	0.492204	0.128330
	C134	C	0.110036	0.508713	0.886004
	C135	C	0.867418	0.491170	0.886861
	C136	C	0.110811	0.878896	0.514793
	C137	C	0.109378	0.122005	0.499496
	C138	C	0.867378	0.122310	0.515488
	C139	C	0.867106	0.879881	0.497788
	C140	C	0.495419	0.121639	0.885558
	C141	C	0.479902	0.120726	0.127298
	C142	C	0.495275	0.878266	0.129429
	C143	C	0.477801	0.879098	0.886350
	C144	C	0.363912	0.891577	0.688373
	C145	C	0.613442	0.109036	0.690902
	C146	C	0.612662	0.892242	0.324439
	C147	C	0.362813	0.110305	0.323488
	C148	C	0.668685	0.377225	0.897275
	C149	C	0.669431	0.623701	0.116370
	C150	C	0.303497	0.625860	0.900305
	C151	C	0.304368	0.374592	0.116910
	C152	C	0.878786	0.681350	0.384594
	C153	C	0.098047	0.681780	0.630624
	C154	C	0.879409	0.317712	0.633102
	C155	C	0.097908	0.317546	0.382797
	C156	C	0.879013	0.376151	0.690202
	C157	C	0.098102	0.623503	0.688127
	C158	C	0.878849	0.623637	0.326771
	C159	C	0.097750	0.374845	0.324315
	C160	C	0.361669	0.682841	0.899726
	C161	C	0.611354	0.681578	0.116513
	C162	C	0.610591	0.319765	0.896885
	C163	C	0.362104	0.316425	0.116668
	C164	C	0.670634	0.892423	0.382255
	C165	C	0.671007	0.109286	0.632625
	C166	C	0.306971	0.891366	0.629663
	C167	C	0.304149	0.109787	0.380456
	C168	C	0.862238	0.391029	0.191525
	C169	C	0.111738	0.609736	0.189177
	C170	C	0.115077	0.391734	0.823642
	C171	C	0.866255	0.609901	0.827937
	C172	C	0.170337	0.876979	0.396365
	C173	C	0.171417	0.125099	0.616523
	C174	C	0.805451	0.126501	0.398500
	C175	C	0.807088	0.877721	0.615593
	C176	C	0.378003	0.183196	0.881915
	C177	C	0.597085	0.182461	0.130576
	C178	C	0.377554	0.817525	0.133434
	C179	C	0.595208	0.817860	0.883316
	C180	C	0.378101	0.875563	0.191072
	C181	C	0.597588	0.124404	0.188104
	C182	C	0.377583	0.125169	0.824367
	C183	C	0.595300	0.875610	0.825394
	C184	C	0.863143	0.184629	0.398639
	C185	C	0.114456	0.183873	0.616528
	C186	C	0.112698	0.818870	0.396567
	C187	C	0.865912	0.820544	0.616017
	C188	C	0.172664	0.391619	0.881615
	C189	C	0.169789	0.609606	0.131700
	C190	C	0.804029	0.391125	0.133646
	C191	C	0.808406	0.609690	0.885894
	C192	C	0.392879	0.091298	0.602057
	C193	C	0.583445	0.910617	0.602840
	C194	C	0.583348	0.091763	0.411037
	C195	C	0.392903	0.911294	0.411210
	C196	C	0.583335	0.403826	0.097530
	C197	C	0.583931	0.596583	0.916284
	C198	C	0.392555	0.594473	0.098169
	C199	C	0.392381	0.405047	0.917976
	C200	C	0.079777	0.597102	0.410874
	C201	C	0.896795	0.598220	0.605148
	C202	C	0.078084	0.406001	0.602507
	C203	C	0.899429	0.406245	0.412912
	C204	C	0.892021	0.589836	0.103786
	C205	C	0.082570	0.410610	0.102249
	C206	C	0.082983	0.589767	0.912541
	C207	C	0.892068	0.408366	0.911259
	C208	C	0.085961	0.903626	0.597146
	C209	C	0.082537	0.095765	0.418121
	C210	C	0.893988	0.095581	0.596847
	C211	C	0.892216	0.904606	0.415508
	C212	C	0.577171	0.095840	0.911485
	C213	C	0.397927	0.094575	0.101934
	C214	C	0.576811	0.903644	0.103086
	C215	C	0.395978	0.904992	0.911952
	Zn216	Zn	0.487178	0.000495	0.757083
	Zn217	Zn	0.487939	0.001449	0.256947
	Zn218	Zn	0.737425	0.499310	0.007241
	Zn219	Zn	0.237701	0.499749	0.008080
	Zn220	Zn	-0.011289	0.750736	0.506661
	Zn221	Zn	-0.011420	0.250919	0.508034
	Zn222	Zn	-0.011382	0.500184	0.758049
	Zn223	Zn	-0.011989	0.500220	0.257787
	Zn224	Zn	0.486213	0.750104	0.008002
	Zn225	Zn	0.487221	0.250128	0.006953
	Zn226	Zn	0.738076	0.001236	0.507037
	Zn227	Zn	0.238541	0.001096	0.505998
	N228	N	0.400375	0.966084	0.687373
	N229	N	0.575911	0.035090	0.688970
	N230	N	0.575268	0.966202	0.326328
	N231	N	0.400825	0.036374	0.326025
	N232	N	0.667996	0.412812	0.972120
	N233	N	0.668044	0.587160	0.041910
	N234	N	0.306036	0.588155	0.974093
	N235	N	0.306797	0.412469	0.043141
	N236	N	0.953620	0.680646	0.420618
	N237	N	0.023304	0.681275	0.594640
	N238	N	0.953615	0.319753	0.595810
	N239	N	0.024016	0.320157	0.420602
	N240	N	0.952924	0.413899	0.687885
	N241	N	0.023317	0.587541	0.687674
	N242	N	0.953498	0.587445	0.327526
	N243	N	0.023550	0.412156	0.326181
	N244	N	0.399837	0.680009	0.973323
	N245	N	0.574204	0.680343	0.042362
	N246	N	0.573848	0.320473	0.971458
	N247	N	0.399580	0.318670	0.042497
	N248	N	0.668509	0.966526	0.419642
	N249	N	0.668712	0.035472	0.594756
	N250	N	0.308674	0.965657	0.592694
	N251	N	0.306228	0.035626	0.417647
	N252	N	0.900189	0.464768	0.188978
	N253	N	0.074352	0.535611	0.187332
	N254	N	0.076844	0.465452	0.826313
	N255	N	0.902249	0.535068	0.828367
	N256	N	0.169152	0.913639	0.470840
	N257	N	0.168477	0.087407	0.542612
	N258	N	0.808010	0.088361	0.472090
	N259	N	0.807482	0.913530	0.540943
	N260	N	0.452154	0.181123	0.919241
	N261	N	0.522861	0.180275	0.093344
	N262	N	0.451532	0.819011	0.095783
	N263	N	0.521073	0.819870	0.920468
	N264	N	0.452292	0.912522	0.188878
	N265	N	0.523632	0.086906	0.186025
	N266	N	0.451741	0.087620	0.826413
	N267	N	0.521255	0.913173	0.827164
	N268	N	0.900811	0.182171	0.472601
	N269	N	0.076609	0.182053	0.542819
	N270	N	0.076469	0.819593	0.471212
	N271	N	0.902550	0.821772	0.541785
	N272	N	0.169828	0.465373	0.919717
	N273	N	0.167863	0.535390	0.094590
	N274	N	0.806255	0.464905	0.095784
	N275	N	0.809114	0.534878	0.921815
	O276	O	0.760622	0.919514	-0.038875
	H277	H	0.767376	0.912637	-0.019779
	H278	H	0.757005	0.910159	-0.015929
	O279	O	0.055172	0.195039	1.224553
	H280	H	0.064147	0.201244	1.225314
	H281	H	0.056300	0.209867	1.244537
	O282	O	1.131833	0.993427	1.074650
	H283	H	1.129088	0.976457	1.064816
	H284	H	1.141493	1.004528	1.051856
	O285	O	0.272481	0.716627	0.478889
	H286	H	0.259146	0.725607	0.466746
	H287	H	0.260880	0.715778	0.494952
	O288	O	1.545909	-0.354375	1.554040
	H289	H	1.533562	-0.348545	1.542703
	H290	H	1.550134	-0.338883	1.566386
	O291	O	0.694143	0.564937	0.513584
	H292	H	0.707880	0.568925	0.528418
	H293	H	0.692221	0.567090	0.518648
	O294	O	0.258756	-0.241692	-0.263713
	H295	H	0.260021	-0.228069	-0.241988
	H296	H	0.262454	-0.250829	-0.261875
	O297	O	1.277689	0.457405	-0.284253
	H298	H	1.260603	0.461372	-0.260845
	H299	H	1.300989	0.466372	-0.267881
	O300	O	-0.022895	0.064062	-0.128713
	H301	H	-0.014017	0.060160	-0.130303
	H302	H	-0.026965	0.090986	-0.120395
	O303	O	0.080683	-0.213554	0.051338
	H304	H	0.085082	-0.236335	0.054463
	H305	H	0.083840	-0.216386	0.046569
	O306	O	1.047890	0.140281	-0.151177
	H307	H	1.025408	0.145088	-0.161940
	H308	H	1.043067	0.146102	-0.147136
	O309	O	0.459765	0.468393	0.441938
	H310	H	0.481522	0.499830	0.432268
	H311	H	0.455569	0.457667	0.439768
	O312	O	0.468676	0.309933	0.718636
	H313	H	0.484404	0.316623	0.709202
	H314	H	0.478000	0.290834	0.719583
	O315	O	0.925890	1.158890	0.165244
	H316	H	0.925935	1.178227	0.160082
	H317	H	0.914091	1.157801	0.158002
	O318	O	1.104811	0.862127	0.043176
	H319	H	1.095865	0.871013	0.020458
	H320	H	1.115436	0.850549	0.043226
	O321	O	0.195327	0.967018	0.799458
	H322	H	0.183500	0.978507	0.807793
	H323	H	0.211990	0.974188	0.787006
	O324	O	0.800483	-0.187777	0.820359
	H325	H	0.809663	-0.168220	0.844862
	H326	H	0.825526	-0.166856	0.826304
	O327	O	1.461687	0.720147	0.288492
	H328	H	1.429832	0.729282	0.286383
	H329	H	1.466895	0.748248	0.282978
	O330	O	0.363252	0.285361	0.445197
	H331	H	0.345370	0.274585	0.456970
	H332	H	0.348466	0.294268	0.458550
	O333	O	0.376484	0.350085	0.444819
	H334	H	0.374742	0.340317	0.446203
	H335	H	0.384179	0.366478	0.445144
	O336	O	0.081582	0.905623	-0.024808
	H337	H	0.081530	0.897720	-0.020226
	H338	H	0.081552	0.912642	-0.019054
	O339	O	0.674912	0.668279	0.539794
	H340	H	0.691128	0.696718	0.535810
	H341	H	0.668548	0.668090	0.575876
	O342	O	0.059554	1.087084	-0.063092
	H343	H	0.060788	1.079695	-0.077745
	H344	H	0.049957	1.089326	-0.054685
	O345	O	-0.208519	0.093603	0.066028
	H346	H	-0.206900	0.094732	0.061737
	H347	H	-0.208432	0.096315	0.068287
	O348	O	0.420516	0.652635	0.559840
	H349	H	0.441647	0.659207	0.583830
	H350	H	0.390807	0.667895	0.547331
	O351	O	-0.223506	0.014499	0.810897
	H352	H	-0.224611	0.002264	0.827040
	H353	H	-0.244387	0.014931	0.796906
	O354	O	0.693593	0.485824	1.299196
	H355	H	0.695747	0.489952	1.273521
	H356	H	0.689539	0.501325	1.323625
	O357	O	0.298442	0.690153	0.315668
	H358	H	0.288149	0.679773	0.346323
	H359	H	0.299717	0.685317	0.298606
	O360	O	0.313904	0.302358	0.701684
	H361	H	0.324054	0.314714	0.714982
	H362	H	0.343014	0.311568	0.696299
	O363	O	0.933999	0.955419	0.794235
	H364	H	0.929246	0.969391	0.791643
	H365	H	0.941686	0.958412	0.797314
	O366	O	1.040698	-0.075068	1.015156
	H367	H	1.046800	-0.053757	1.018692
	H368	H	1.027665	-0.061757	1.015499
	O369	O	-0.023347	0.167962	0.993757
	H370	H	-0.013010	0.174102	1.000030
	H371	H	-0.014629	0.156276	0.995948
	O372	O	0.443945	0.298368	0.355584
	H373	H	0.419595	0.291504	0.351591
	H374	H	0.435108	0.300416	0.364596
	O375	O	0.882809	0.051819	0.114045
	H376	H	0.888867	0.043709	0.091338
	H377	H	0.870024	0.050883	0.127216
	O378	O	0.019654	-0.034924	1.177308
	H379	H	0.020919	-0.040206	1.172465
	H380	H	0.019241	-0.023331	1.186049
	O381	O	0.014678	0.785765	-0.204953
	H382	H	0.021862	0.798047	-0.198398
	H383	H	0.021163	0.768627	-0.230363
	O384	O	0.641268	0.667063	0.377835
	H385	H	0.627179	0.664044	0.380913
	H386	H	0.644492	0.658110	0.401952
	O387	O	0.375559	0.456294	1.562429
	H388	H	0.364695	0.470543	1.586575
	H389	H	0.383212	0.456219	1.547878
	O390	O	-0.217430	1.186473	0.990521
	H391	H	-0.219364	1.197952	0.994054
	H392	H	-0.219122	1.177964	1.000216
	O393	O	0.513878	-0.282411	-0.275176
	H394	H	0.534198	-0.266479	-0.259362
	H395	H	0.539777	-0.274482	-0.270382
	O396	O	0.379745	0.420349	0.359725
	H397	H	0.379352	0.421440	0.369364
	H398	H	0.372696	0.424370	0.369336
	O399	O	0.774195	0.967074	0.217857
	H400	H	0.788343	0.969504	0.216372
	H401	H	0.763390	0.972566	0.235055
	O402	O	1.704677	-0.714586	1.482786
	H403	H	1.703143	-0.722413	1.466124
	H404	H	1.719938	-0.730689	1.457470
	O405	O	0.195397	0.007658	-0.076283
	H406	H	0.197546	-0.005157	-0.064497
	H407	H	0.177375	0.021795	-0.077194
	O408	O	1.197585	1.211828	1.047326
	H409	H	1.194650	1.213827	1.034918
	H410	H	1.208466	1.233035	1.062619
	O411	O	1.272866	1.529776	0.298863
	H412	H	1.250177	1.520658	0.286441
	H413	H	1.264438	1.535021	0.317035
	O414	O	0.173174	0.146719	0.177851
	H415	H	0.176405	0.142707	0.157979
	H416	H	0.164078	0.122842	0.187665
	O417	O	0.852836	0.212906	0.176678
	H418	H	0.836779	0.215359	0.180495
	H419	H	0.844707	0.228889	0.195903
	O420	O	0.960408	-0.216163	1.221143
	H421	H	0.960681	-0.218310	1.242643
	H422	H	0.956946	-0.216991	1.217897
	O423	O	0.537371	1.557912	-0.714706
	H424	H	0.534489	1.551104	-0.700789
	H425	H	0.523064	1.596949	-0.718791
	O426	O	-0.200134	1.169004	-0.151473
	H427	H	-0.197525	1.153984	-0.134348
	H428	H	-0.203928	1.153421	-0.137868
	O429	O	0.691128	0.496357	0.715214
	H430	H	0.691884	0.475648	0.687281
	H431	H	0.691596	0.482781	0.726205
	O432	O	0.915641	0.191263	0.808438
	H433	H	0.910946	0.204813	0.804848
	H434	H	0.886600	0.201865	0.804640
	O435	O	0.390014	0.530251	0.490242
	H436	H	0.390079	0.540942	0.496371
	H437	H	0.386565	0.523978	0.485026
	O438	O	0.285630	0.636331	0.638567
	H439	H	0.290698	0.622751	0.638748
	H440	H	0.288536	0.638032	0.659022
	O441	O	1.049720	1.021816	0.125491
	H442	H	1.052274	1.021198	0.132915
	H443	H	1.045978	1.020890	0.116454
	O444	O	0.430850	0.521605	0.727660
	H445	H	0.448948	0.513698	0.726082
	H446	H	0.441719	0.540380	0.714200
	O447	O	0.664726	0.362649	0.367841
	H448	H	0.667733	0.395447	0.350920
	H449	H	0.624152	0.352188	0.358503
	O450	O	0.764953	-0.223654	0.229290
	H451	H	0.771536	-0.211871	0.233323
	H452	H	0.747915	-0.223218	0.254324
	O453	O	0.700087	0.443042	0.580161
	H454	H	0.691352	0.419544	0.562392
	H455	H	0.698809	0.440282	0.562108
	O456	O	-0.212958	0.787139	1.039037
	H457	H	-0.210272	0.788024	1.080330
	H458	H	-0.234344	0.764659	1.043016
	O459	O	0.620119	0.355060	0.721446
	H460	H	0.623528	0.357169	0.728564
	H461	H	0.619989	0.352514	0.713265
	O462	O	0.539794	0.366027	0.537241
	H463	H	0.543554	0.367086	0.529089
	H464	H	0.543556	0.368670	0.517123
	O465	O	0.429495	0.282084	0.469636
	H466	H	0.419970	0.287084	0.476089
	H467	H	0.413309	0.276480	0.479435
	O468	O	0.138048	0.936489	0.124180
	H469	H	0.147404	0.933871	0.127811
	H470	H	0.119509	0.932156	0.135731
	O471	O	0.693624	0.712334	0.717090
	H472	H	0.720870	0.725465	0.746464
	H473	H	0.706068	0.677230	0.723308
	O474	O	1.022795	0.782902	0.054206
	H475	H	1.000431	0.786907	0.067774
	H476	H	1.016169	0.784614	0.028840
	O477	O	0.536414	0.679783	0.516609
	H478	H	0.540876	0.682113	0.531830
	H479	H	0.524219	0.686542	0.525290
