data_Molecule from HDF5

_cell_length_a		16.389317
_cell_length_b		16.402020
_cell_length_c		16.187956
_cell_angle_alpha	90.205169
_cell_angle_beta	90.042568
_cell_angle_gamma	89.959838
_symmetry_space_group_name_H-M	'P 1'
_symmetry_Int_Tables_number		1

loop_
	_symmetry_equiv_pos_as_xyz
	x,y,z

loop_
	_atom_site_label
	_atom_site_type_symbol
	_atom_site_fract_x
	_atom_site_fract_y
	_atom_site_fract_z
	H0	H	0.394020	0.822944	0.719681
	H1	H	0.593175	0.146551	0.724081
	H2	H	0.593256	0.824703	0.288078
	H3	H	0.391671	0.147502	0.287773
	H4	H	0.711419	0.379421	0.841007
	H5	H	0.711704	0.585838	0.165422
	H6	H	0.278449	0.585052	0.838294
	H7	H	0.274307	0.383357	0.164019
	H8	H	0.833720	0.704070	0.397903
	H9	H	0.153602	0.706409	0.606758
	H10	H	0.834202	0.266387	0.607908
	H11	H	0.154089	0.265140	0.399235
	H12	H	0.832393	0.386010	0.718995
	H13	H	0.155323	0.586328	0.718943
	H14	H	0.833154	0.584898	0.284660
	H15	H	0.156382	0.384486	0.286546
	H16	H	0.391470	0.703036	0.840046
	H17	H	0.596171	0.701339	0.166155
	H18	H	0.596267	0.263324	0.842704
	H19	H	0.391409	0.270667	0.167496
	H20	H	0.712337	0.826457	0.401176
	H21	H	0.712542	0.146893	0.611176
	H22	H	0.272866	0.824606	0.608140
	H23	H	0.273293	0.146005	0.402410
	H24	H	0.893368	0.322884	0.219495
	H25	H	0.096470	0.646052	0.220905
	H26	H	0.096220	0.324791	0.782253
	H27	H	0.894289	0.647155	0.787917
	H28	H	0.210033	0.884259	0.340991
	H29	H	0.213660	0.090178	0.666105
	H30	H	0.773117	0.092028	0.342703
	H31	H	0.775876	0.885355	0.666133
	H32	H	0.333781	0.204724	0.900706
	H33	H	0.651844	0.207660	0.113780
	H34	H	0.332606	0.764853	0.108699
	H35	H	0.653498	0.764259	0.899230
	H36	H	0.330911	0.887615	0.218860
	H37	H	0.653753	0.087750	0.223512
	H38	H	0.332225	0.086813	0.786805
	H39	H	0.653811	0.882175	0.785640
	H40	H	0.890176	0.203905	0.341828
	H41	H	0.099983	0.207819	0.665378
	H42	H	0.095241	0.768837	0.340178
	H43	H	0.890103	0.767777	0.665128
	H44	H	0.214340	0.325004	0.896113
	H45	H	0.211998	0.645992	0.104038
	H46	H	0.773860	0.325035	0.107114
	H47	H	0.772253	0.643138	0.897105
	H48	H	0.405079	0.099728	0.600979
	H49	H	0.580330	0.874596	0.591278
	H50	H	0.587846	0.102356	0.413667
	H51	H	0.396836	0.868362	0.409491
	H52	H	0.586641	0.399919	0.118075
	H53	H	0.583335	0.576414	0.887059
	H54	H	0.404154	0.576393	0.117743
	H55	H	0.409405	0.389108	0.887699
	H56	H	0.108478	0.575848	0.413860
	H57	H	0.883072	0.575774	0.583095
	H58	H	0.109753	0.387557	0.589369
	H59	H	0.879747	0.395231	0.414478
	H60	H	0.103939	0.400295	0.584883
	H61	H	0.878746	0.570013	0.601220
	H62	H	0.109294	0.578192	0.410213
	H63	H	0.880414	0.396448	0.409700
	H64	H	0.401892	0.575862	0.118754
	H65	H	0.584362	0.572855	0.887467
	H66	H	0.580201	0.395464	0.117993
	H67	H	0.399925	0.391334	0.885411
	H68	H	0.580744	0.101059	0.411508
	H69	H	0.589746	0.872345	0.589512
	H70	H	0.406489	0.095720	0.589076
	H71	H	0.406260	0.872095	0.409705
	H72	H	0.909985	0.595702	0.092281
	H73	H	0.086587	0.368854	0.097996
	H74	H	0.086246	0.600074	0.911345
	H75	H	0.906192	0.369271	0.904077
	H76	H	0.080713	0.888598	0.621200
	H77	H	0.083627	0.080152	0.387589
	H78	H	0.904766	0.080672	0.620876
	H79	H	0.897914	0.899747	0.387948
	H80	H	0.607881	0.079449	0.917573
	H81	H	0.374847	0.089234	0.096145
	H82	H	0.605098	0.892010	0.087205
	H83	H	0.378708	0.887108	0.917575
	H84	H	0.608103	0.898868	0.099679
	H85	H	0.382673	0.074244	0.084618
	H86	H	0.604285	0.070912	0.921385
	H87	H	0.381616	0.898944	0.918037
	H88	H	0.899708	0.074298	0.619656
	H89	H	0.087806	0.071422	0.388908
	H90	H	0.089718	0.897467	0.621107
	H91	H	0.907800	0.895801	0.388875
	H92	H	0.086246	0.599868	0.912117
	H93	H	0.079935	0.373166	0.091207
	H94	H	0.900408	0.596654	0.086026
	H95	H	0.906148	0.372738	0.916951
	H96	H	0.395427	0.100955	0.592830
	H97	H	0.585143	0.870560	0.598394
	H98	H	0.583553	0.099644	0.418219
	H99	H	0.400632	0.873098	0.418041
	H100	H	0.586471	0.392484	0.120679
	H101	H	0.580892	0.573987	0.887897
	H102	H	0.403262	0.574386	0.117011
	H103	H	0.405737	0.398551	0.889421
	H104	H	0.108971	0.579794	0.414410
	H105	H	0.875853	0.588472	0.595776
	H106	H	0.109511	0.398959	0.599273
	H107	H	0.878994	0.391755	0.410523
	H108	H	0.900628	0.601234	0.097171
	H109	H	0.089633	0.371171	0.088168
	H110	H	0.087227	0.599437	0.912348
	H111	H	0.895635	0.367927	0.911696
	H112	H	0.078754	0.899933	0.616507
	H113	H	0.078391	0.073063	0.391275
	H114	H	0.907436	0.073718	0.617632
	H115	H	0.899785	0.889736	0.384925
	H116	H	0.606852	0.071569	0.912064
	H117	H	0.378028	0.070897	0.104725
	H118	H	0.611070	0.884388	0.098244
	H119	H	0.377248	0.893521	0.907059
	C120	C	0.371551	-0.007038	0.625493
	C121	C	0.615698	0.978188	0.626102
	C122	C	0.614586	-0.004912	0.383201
	C123	C	0.370853	0.977427	0.382549
	C124	C	0.615193	0.363264	0.012332
	C125	C	0.614691	0.605419	0.994768
	C126	C	0.372837	0.605783	0.010481
	C127	C	0.373417	0.363888	0.994881
	C128	C	0.002745	0.607173	0.381246
	C129	C	0.985054	0.608702	0.624450
	C130	C	0.002312	0.364177	0.623961
	C131	C	0.985979	0.363520	0.380942
	C132	C	0.873116	0.492103	0.123525
	C133	C	0.116290	0.476884	0.123683
	C134	C	0.116746	0.493746	0.880010
	C135	C	0.872607	0.476113	0.880562
	C136	C	0.114077	0.864945	0.511834
	C137	C	0.115073	0.107178	0.496108
	C138	C	0.872613	0.107295	0.512231
	C139	C	0.871689	0.865031	0.494506
	C140	C	0.501267	0.105914	0.884246
	C141	C	0.484404	0.108100	0.126828
	C142	C	0.501266	0.862667	0.125577
	C143	C	0.484951	0.862095	0.882309
	C144	C	0.372680	0.871565	0.682247
	C145	C	0.613875	0.098532	0.685127
	C146	C	0.613694	0.873461	0.326045
	C147	C	0.371595	0.099037	0.325957
	C148	C	0.673071	0.360741	0.890078
	C149	C	0.672980	0.605530	0.116784
	C150	C	0.316214	0.605425	0.887624
	C151	C	0.313889	0.364248	0.116241
	C152	C	0.881573	0.664587	0.379655
	C153	C	0.105823	0.666995	0.625458
	C154	C	0.881866	0.306057	0.626040
	C155	C	0.106192	0.304982	0.380320
	C156	C	0.881009	0.365822	0.681030
	C157	C	0.106785	0.607025	0.681079
	C158	C	0.881425	0.605533	0.323068
	C159	C	0.107482	0.364352	0.324320
	C160	C	0.372598	0.664046	0.888493
	C161	C	0.615252	0.663036	0.117111
	C162	C	0.615655	0.303106	0.890856
	C163	C	0.372229	0.308173	0.117882
	C164	C	0.672937	0.874457	0.382278
	C165	C	0.673188	0.098695	0.628582
	C166	C	0.312631	0.872585	0.626653
	C167	C	0.312656	0.098231	0.382741
	C168	C	0.874045	0.371359	0.180954
	C169	C	0.116166	0.597788	0.181867
	C170	C	0.116054	0.372827	0.821484
	C171	C	0.873490	0.597715	0.824504
	C172	C	0.171300	0.864950	0.389482
	C173	C	0.174055	0.108627	0.617684
	C174	C	0.813171	0.109522	0.390994
	C175	C	0.814405	0.865671	0.617236
	C176	C	0.381384	0.165094	0.882286
	C177	C	0.604447	0.167234	0.130152
	C178	C	0.380556	0.804832	0.126412
	C179	C	0.605421	0.803638	0.880740
	C180	C	0.379791	0.865484	0.181773
	C181	C	0.605479	0.107560	0.185096
	C182	C	0.380550	0.106107	0.825576
	C183	C	0.605626	0.862307	0.824157
	C184	C	0.871236	0.165737	0.390572
	C185	C	0.116922	0.166873	0.617355
	C186	C	0.113935	0.807709	0.389131
	C187	C	0.871221	0.807052	0.616630
	C188	C	0.174904	0.372888	0.878110
	C189	C	0.173678	0.597693	0.123679
	C190	C	0.814207	0.372431	0.125072
	C191	C	0.812849	0.595986	0.879048
	C192	C	0.395147	0.076899	0.601350
	C193	C	0.591873	0.894039	0.600544
	C194	C	0.590900	0.079231	0.407340
	C195	C	0.394328	0.893360	0.405804
	C196	C	0.591448	0.388652	0.096887
	C197	C	0.590143	0.581257	0.909524
	C198	C	0.396176	0.582286	0.095767
	C199	C	0.397825	0.386546	0.909821
	C200	C	0.086848	0.584458	0.405710
	C201	C	0.900915	0.585043	0.600303
	C202	C	0.086039	0.388473	0.598633
	C203	C	0.901575	0.387459	0.404583
	C204	C	0.896942	0.576306	0.099026
	C205	C	0.092377	0.392879	0.099333
	C206	C	0.093357	0.577784	0.904709
	C207	C	0.895901	0.392044	0.904007
	C208	C	0.090040	0.888634	0.597320
	C209	C	0.090309	0.082056	0.411133
	C210	C	0.896992	0.083079	0.597201
	C211	C	0.895067	0.888490	0.409354
	C212	C	0.584604	0.081005	0.909480
	C213	C	0.400373	0.084771	0.102468
	C214	C	0.585961	0.885375	0.101972
	C215	C	0.400934	0.886376	0.907037
	Zn216	Zn	0.493025	-0.015478	0.754618
	Zn217	Zn	0.493252	-0.014101	0.253804
	Zn218	Zn	0.743295	0.484322	0.002238
	Zn219	Zn	0.245249	0.484667	0.001374
	Zn220	Zn	-0.006482	0.736772	0.502567
	Zn221	Zn	-0.006565	0.235361	0.503478
	Zn222	Zn	-0.005973	0.485585	0.752099
	Zn223	Zn	-0.005412	0.485140	0.252884
	Zn224	Zn	0.493213	0.733818	0.003581
	Zn225	Zn	0.493900	0.235478	0.005295
	Zn226	Zn	0.744203	-0.012180	0.504008
	Zn227	Zn	0.242340	-0.015017	0.503989
	N228	N	0.408754	0.947199	0.681675
	N229	N	0.578863	0.022323	0.683687
	N230	N	0.578182	0.949433	0.326229
	N231	N	0.407103	0.022933	0.325335
	N232	N	0.673008	0.397364	0.966632
	N233	N	0.672783	0.570612	0.039401
	N234	N	0.316424	0.569717	0.964286
	N235	N	0.314365	0.398068	0.038890
	N236	N	0.957752	0.665821	0.415170
	N237	N	0.029134	0.668083	0.591213
	N238	N	0.958319	0.305018	0.591275
	N239	N	0.029482	0.304352	0.414852
	N240	N	0.957114	0.401047	0.680097
	N241	N	0.030786	0.571594	0.680772
	N242	N	0.957769	0.570663	0.323806
	N243	N	0.031489	0.399856	0.324439
	N244	N	0.406932	0.664377	0.966056
	N245	N	0.579786	0.663010	0.040149
	N246	N	0.580443	0.304483	0.967798
	N247	N	0.408564	0.307603	0.041270
	N248	N	0.673927	0.951160	0.416639
	N249	N	0.674281	0.022727	0.592749
	N250	N	0.311840	0.949124	0.592180
	N251	N	0.312169	0.021811	0.417048
	N252	N	0.909977	0.447031	0.180052
	N253	N	0.081272	0.521741	0.182008
	N254	N	0.080812	0.448809	0.822218
	N255	N	0.909935	0.522220	0.825183
	N256	N	0.171429	0.899771	0.466872
	N257	N	0.172757	0.071989	0.541291
	N258	N	0.813716	0.074176	0.467785
	N259	N	0.814482	0.901029	0.540359
	N260	N	0.457248	0.164921	0.918165
	N261	N	0.528118	0.167851	0.094736
	N262	N	0.457295	0.803077	0.092096
	N263	N	0.529381	0.803352	0.916052
	N264	N	0.455952	0.900484	0.181479
	N265	N	0.530001	0.071298	0.183038
	N266	N	0.456216	0.069975	0.826636
	N267	N	0.529700	0.898120	0.825111
	N268	N	0.907609	0.164456	0.466998
	N269	N	0.081043	0.166124	0.540408
	N270	N	0.079303	0.807394	0.466463
	N271	N	0.905933	0.806257	0.539314
	N272	N	0.175630	0.449230	0.913551
	N273	N	0.174230	0.521206	0.088434
	N274	N	0.813973	0.448482	0.089592
	N275	N	0.812074	0.519493	0.913115
	O276	O	0.549492	0.438655	0.528038
	H277	H	0.556331	0.447958	0.539524
	H278	H	0.551451	0.439856	0.517963
	O279	O	0.484514	0.547022	0.531955
	H280	H	0.493175	0.538825	0.533449
	H281	H	0.482547	0.545629	0.538067
	O282	O	0.885080	0.067440	0.956767
	H283	H	0.872602	0.064658	0.971689
	H284	H	0.886985	0.075423	0.946836
	O285	O	0.313455	0.574284	0.412636
	H286	H	0.306637	0.569635	0.426171
	H287	H	0.311561	0.581259	0.422592
	O288	O	1.137361	1.086377	1.139860
	H289	H	1.143870	1.090263	1.144530
	H290	H	1.132881	1.090443	1.125304
	O291	O	-0.112666	0.800681	0.172558
	H292	H	-0.100590	0.793842	0.170077
	H293	H	-0.118984	0.805390	0.164950
	O294	O	0.542296	0.373684	0.651865
	H295	H	0.551780	0.358818	0.653641
	H296	H	0.535859	0.392704	0.649825
	O297	O	0.595820	0.533983	0.647776
	H298	H	0.603698	0.540838	0.652577
	H299	H	0.595369	0.541972	0.648496
	O300	O	0.654173	0.356179	0.391460
	H301	H	0.652386	0.344715	0.385387
	H302	H	0.659426	0.372198	0.374472
	O303	O	0.479597	0.401955	0.525324
	H304	H	0.487915	0.402533	0.524456
	H305	H	0.494417	0.402188	0.511495
	O306	O	0.638781	0.650444	0.606408
	H307	H	0.637597	0.655391	0.587844
	H308	H	0.642741	0.661153	0.594724
	O309	O	0.420153	0.479319	0.517860
	H310	H	0.398300	0.460280	0.525506
	H311	H	0.432729	0.468902	0.520099
	O312	O	-0.064545	-0.142082	-0.161310
	H313	H	-0.063057	-0.154940	-0.153705
	H314	H	-0.063959	-0.136580	-0.168864
	O315	O	0.518026	0.494039	0.581858
	H316	H	0.515960	0.499203	0.573287
	H317	H	0.518503	0.496498	0.603668
	O318	O	0.601466	1.500194	1.416966
	H319	H	0.604278	1.520595	1.423005
	H320	H	0.585830	1.504316	1.423347
	O321	O	0.322050	0.523289	0.480535
	H322	H	0.314128	0.524130	0.476171
	H323	H	0.319135	0.511182	0.478145
	O324	O	-0.089503	0.931910	-0.143641
	H325	H	-0.096038	0.918040	-0.144551
	H326	H	-0.074131	0.944894	-0.145417
	O327	O	0.509090	0.628173	0.528251
	H328	H	0.513206	0.625106	0.533430
	H329	H	0.517513	0.637700	0.527795
	O330	O	-0.103098	0.060098	0.873867
	H331	H	-0.089275	0.047166	0.858612
	H332	H	-0.096957	0.079305	0.868008
	O333	O	-0.129130	0.008694	1.050275
	H334	H	-0.123891	0.012080	1.042642
	H335	H	-0.144946	0.007820	1.067916
	O336	O	0.517787	0.510233	0.395524
	H337	H	0.509219	0.502427	0.399463
	H338	H	0.512117	0.511990	0.398677
	O339	O	1.108995	0.133246	0.080189
	H340	H	1.102587	0.142625	0.095998
	H341	H	1.130524	0.138442	0.083967
	O342	O	0.006918	0.037224	0.050894
	H343	H	0.008345	0.035480	0.041226
	H344	H	-0.005362	0.038905	0.049604
	O345	O	1.181632	-0.086367	0.933274
	H346	H	1.184581	-0.077396	0.920945
	H347	H	1.171103	-0.086293	0.940052
	O348	O	1.070624	1.172606	0.127620
	H349	H	1.054641	1.167100	0.141366
	H350	H	1.073857	1.188065	0.131973
	O351	O	0.602143	0.491713	0.351997
	H352	H	0.605145	0.496740	0.332280
	H353	H	0.585458	0.497649	0.352890
	O354	O	1.044930	0.140026	0.913180
	H355	H	1.042803	0.143854	0.919698
	H356	H	1.050012	0.137574	0.906960
	O357	O	0.432441	0.578030	0.482272
	H358	H	0.426772	0.588844	0.498534
	H359	H	0.427134	0.571668	0.491708
	O360	O	0.490054	0.546036	0.375670
	H361	H	0.491843	0.555164	0.383181
	H362	H	0.484236	0.556303	0.373575
	O363	O	0.145627	0.885293	0.950859
	H364	H	0.147822	0.888012	0.957056
	H365	H	0.152500	0.887035	0.955957
	O366	O	0.995740	0.867220	0.132207
	H367	H	0.990990	0.869546	0.129530
	H368	H	1.000306	0.868379	0.135227
	O369	O	-0.067498	0.849098	0.130782
	H370	H	-0.062330	0.840687	0.118591
	H371	H	-0.076425	0.850841	0.133109
	O372	O	0.408033	0.512897	0.575947
	H373	H	0.411384	0.506525	0.577581
	H374	H	0.404283	0.511947	0.570857
	O375	O	0.483722	0.400979	0.654586
	H376	H	0.494997	0.407377	0.654716
	H377	H	0.482597	0.384427	0.648076
	O378	O	1.115770	0.882528	-0.029797
	H379	H	1.115541	0.888222	-0.030995
	H380	H	1.115892	0.889274	-0.024389
	O381	O	0.885204	0.087623	-0.026392
	H382	H	0.873436	0.087896	-0.033092
	H383	H	0.886264	0.090229	-0.024544
	O384	O	0.911910	0.935458	-0.083320
	H385	H	0.894906	0.944822	-0.093623
	H386	H	0.920707	0.947700	-0.091598
	O387	O	0.036681	-0.011207	-0.151361
	H388	H	0.041473	-0.014700	-0.179183
	H389	H	0.032306	-0.006722	-0.139694
	O390	O	-0.125381	0.998049	0.147056
	H391	H	-0.137340	0.999202	0.149512
	H392	H	-0.124658	0.984518	0.146800
	O393	O	0.820555	0.859693	0.957939
	H394	H	0.831555	0.859920	0.944846
	H395	H	0.809148	0.842235	0.967801
	O396	O	0.495350	0.559308	0.489272
	H397	H	0.491895	0.557558	0.495053
	H398	H	0.478660	0.565089	0.501738
	O399	O	-0.042808	0.894472	0.996441
	H400	H	-0.049107	0.906056	0.992601
	H401	H	-0.052187	0.902825	0.993762
	O402	O	0.365924	0.378635	0.477490
	H403	H	0.366293	0.374012	0.473758
	H404	H	0.367932	0.379906	0.475291
	O405	O	0.977075	0.993533	0.046529
	H406	H	0.976591	0.987972	0.055133
	H407	H	0.966032	1.000619	0.059847
	O408	O	0.960761	1.093029	0.014579
	H409	H	0.974540	1.090595	0.011728
	H410	H	0.959185	1.085936	0.019525
	O411	O	1.164364	-0.002619	0.929739
	H412	H	1.168887	-0.011789	0.927699
	H413	H	1.167435	0.010279	0.941500
	O414	O	0.530873	0.410548	0.362933
	H415	H	0.526339	0.418865	0.362572
	H416	H	0.517509	0.415145	0.352371
	O417	O	0.458487	0.327486	0.622302
	H418	H	0.461317	0.317903	0.612339
	H419	H	0.474750	0.324451	0.629366
