data_Molecule from HDF5

_cell_length_a		16.295504
_cell_length_b		16.287756
_cell_length_c		16.295004
_cell_angle_alpha	89.991662
_cell_angle_beta	90.025346
_cell_angle_gamma	90.010225
_symmetry_space_group_name_H-M	'P 1'
_symmetry_Int_Tables_number		1

loop_
	_symmetry_equiv_pos_as_xyz
	x,y,z

loop_
	_atom_site_label
	_atom_site_type_symbol
	_atom_site_fract_x
	_atom_site_fract_y
	_atom_site_fract_z
	H0	H	0.402212	0.835785	0.713287
	H1	H	0.597729	0.164170	0.713704
	H2	H	0.597888	0.836415	0.285926
	H3	H	0.399962	0.163285	0.284305
	H4	H	0.714017	0.402086	0.836420
	H5	H	0.714100	0.598486	0.163778
	H6	H	0.285558	0.599411	0.837252
	H7	H	0.286212	0.402072	0.163506
	H8	H	0.836082	0.713292	0.402726
	H9	H	0.163149	0.715306	0.598561
	H10	H	0.835885	0.285485	0.597538
	H11	H	0.163609	0.286048	0.402815
	H12	H	0.836534	0.401772	0.714234
	H13	H	0.164361	0.597780	0.713428
	H14	H	0.836009	0.597665	0.285746
	H15	H	0.163643	0.402039	0.285718
	H16	H	0.402367	0.713881	0.836640
	H17	H	0.598736	0.714854	0.163829
	H18	H	0.597716	0.286778	0.836552
	H19	H	0.402079	0.285983	0.162980
	H20	H	0.713665	0.835952	0.402093
	H21	H	0.715033	0.163720	0.598108
	H22	H	0.284833	0.836784	0.598440
	H23	H	0.285791	0.163496	0.401782
	H24	H	0.902510	0.335988	0.213716
	H25	H	0.097904	0.663603	0.213451
	H26	H	0.098147	0.336685	0.785986
	H27	H	0.901167	0.663737	0.785101
	H28	H	0.215366	0.900313	0.336546
	H29	H	0.213808	0.097924	0.663845
	H30	H	0.785168	0.098679	0.336824
	H31	H	0.785970	0.901152	0.663354
	H32	H	0.336232	0.214919	0.901829
	H33	H	0.663071	0.214948	0.099474
	H34	H	0.336096	0.786809	0.097649
	H35	H	0.663805	0.786131	0.902970
	H36	H	0.336750	0.900913	0.214906
	H37	H	0.663135	0.098215	0.214456
	H38	H	0.336441	0.098394	0.785759
	H39	H	0.664444	0.903207	0.786832
	H40	H	0.902826	0.213305	0.336092
	H41	H	0.098402	0.214203	0.663273
	H42	H	0.097909	0.785514	0.335832
	H43	H	0.902614	0.786453	0.663799
	H44	H	0.214566	0.336629	0.902038
	H45	H	0.214148	0.663601	0.097375
	H46	H	0.785444	0.336439	0.098361
	H47	H	0.785954	0.663313	0.902380
	H48	H	0.405846	0.116810	0.594230
	H49	H	0.599424	0.884046	0.584681
	H50	H	0.597820	0.117045	0.408196
	H51	H	0.402752	0.881568	0.404248
	H52	H	0.588626	0.395067	0.118912
	H53	H	0.588438	0.598354	0.883709
	H54	H	0.406303	0.595976	0.117746
	H55	H	0.406598	0.407105	0.883118
	H56	H	0.116376	0.586766	0.399332
	H57	H	0.881862	0.597459	0.594351
	H58	H	0.119330	0.396990	0.595820
	H59	H	0.887214	0.412585	0.411900
	H60	H	0.113024	0.407816	0.583085
	H61	H	0.885036	0.591903	0.588321
	H62	H	0.118963	0.602192	0.404678
	H63	H	0.881194	0.408728	0.396973
	H64	H	0.403934	0.592101	0.117461
	H65	H	0.599435	0.594719	0.881886
	H66	H	0.606058	0.409314	0.119434
	H67	H	0.406589	0.407642	0.883200
	H68	H	0.591157	0.116742	0.402487
	H69	H	0.597980	0.879495	0.602919
	H70	H	0.406702	0.116808	0.594227
	H71	H	0.412430	0.884416	0.403844
	H72	H	0.908700	0.612074	0.080793
	H73	H	0.087457	0.387526	0.086144
	H74	H	0.092280	0.617654	0.903411
	H75	H	0.914045	0.386491	0.911220
	H76	H	0.089372	0.904038	0.615603
	H77	H	0.088098	0.090760	0.385846
	H78	H	0.916145	0.103175	0.617196
	H79	H	0.910123	0.895589	0.381009
	H80	H	0.617298	0.090996	0.900500
	H81	H	0.387383	0.092792	0.082568
	H82	H	0.616185	0.914137	0.098294
	H83	H	0.382373	0.912008	0.897836
	H84	H	0.619566	0.899877	0.098081
	H85	H	0.384527	0.084446	0.098350
	H86	H	0.617923	0.099856	0.907522
	H87	H	0.380650	0.897140	0.904974
	H88	H	0.894037	0.094992	0.621396
	H89	H	0.094021	0.099164	0.381447
	H90	H	0.096566	0.905141	0.617149
	H91	H	0.894505	0.908260	0.380999
	H92	H	0.089869	0.615072	0.908637
	H93	H	0.103065	0.380876	0.090804
	H94	H	0.893607	0.620848	0.097440
	H95	H	0.899869	0.382152	0.909947
	H96	H	0.406572	0.116722	0.593256
	H97	H	0.582779	0.886972	0.593643
	H98	H	0.589732	0.114636	0.411228
	H99	H	0.407175	0.885164	0.413157
	H100	H	0.586199	0.416440	0.111632
	H101	H	0.591888	0.587568	0.886031
	H102	H	0.408774	0.592439	0.115974
	H103	H	0.406918	0.407143	0.883231
	H104	H	0.113159	0.590373	0.414825
	H105	H	0.883636	0.589376	0.596989
	H106	H	0.116557	0.414098	0.599670
	H107	H	0.881299	0.396961	0.409002
	H108	H	0.916723	0.616889	0.102974
	H109	H	0.090125	0.381383	0.102163
	H110	H	0.096182	0.617294	0.908456
	H111	H	0.908460	0.381293	0.897943
	H112	H	0.092561	0.911138	0.614502
	H113	H	0.098467	0.089293	0.382716
	H114	H	0.910340	0.080057	0.611837
	H115	H	0.913014	0.914338	0.386857
	H116	H	0.614450	0.090255	0.911458
	H117	H	0.379422	0.102013	0.096168
	H118	H	0.614240	0.906788	0.085698
	H119	H	0.386504	0.909621	0.914179
	C120	C	0.378142	0.008326	0.622096
	C121	C	0.621896	0.991759	0.621777
	C122	C	0.621303	0.008152	0.378900
	C123	C	0.378332	0.991871	0.378378
	C124	C	0.621993	0.378470	0.008619
	C125	C	0.621634	0.621882	0.992191
	C126	C	0.378532	0.621932	0.008870
	C127	C	0.378827	0.379259	0.991318
	C128	C	0.008211	0.621450	0.377928
	C129	C	0.991745	0.621485	0.621471
	C130	C	0.008131	0.377928	0.621498
	C131	C	0.991575	0.377992	0.377811
	C132	C	0.878533	0.508367	0.121764
	C133	C	0.121732	0.491340	0.121433
	C134	C	0.121721	0.508628	0.878308
	C135	C	0.878792	0.491608	0.878139
	C136	C	0.121504	0.878303	0.507774
	C137	C	0.121647	0.121653	0.491617
	C138	C	0.878596	0.121067	0.508511
	C139	C	0.878459	0.878512	0.491416
	C140	C	0.508036	0.121769	0.878474
	C141	C	0.491497	0.121846	0.121578
	C142	C	0.508526	0.878583	0.121883
	C143	C	0.491443	0.878391	0.878124
	C144	C	0.381153	0.885030	0.676234
	C145	C	0.618422	0.115419	0.675900
	C146	C	0.618313	0.884992	0.323967
	C147	C	0.380329	0.114617	0.322902
	C148	C	0.676710	0.381092	0.885422
	C149	C	0.676654	0.619017	0.114784
	C150	C	0.323791	0.619468	0.885732
	C151	C	0.324053	0.381863	0.114700
	C152	C	0.884749	0.675490	0.381856
	C153	C	0.114675	0.677025	0.618927
	C154	C	0.884909	0.323093	0.618592
	C155	C	0.114755	0.323642	0.381582
	C156	C	0.885064	0.380799	0.676445
	C157	C	0.115074	0.618715	0.676128
	C158	C	0.884919	0.618562	0.323318
	C159	C	0.114700	0.380785	0.323262
	C160	C	0.381826	0.676297	0.885617
	C161	C	0.619208	0.676815	0.115046
	C162	C	0.618876	0.323832	0.885420
	C163	C	0.381400	0.324138	0.114569
	C164	C	0.675732	0.884744	0.381944
	C165	C	0.676716	0.115069	0.618622
	C166	C	0.323092	0.885292	0.618907
	C167	C	0.323663	0.114835	0.381299
	C168	C	0.881831	0.384760	0.175996
	C169	C	0.118358	0.614795	0.175714
	C170	C	0.118649	0.385393	0.823666
	C171	C	0.880800	0.614756	0.822953
	C172	C	0.176919	0.880331	0.384860
	C173	C	0.176048	0.118480	0.614954
	C174	C	0.823132	0.118932	0.385500
	C175	C	0.823719	0.880947	0.614562
	C176	C	0.385171	0.177076	0.881277
	C177	C	0.614319	0.176883	0.119437
	C178	C	0.385208	0.823951	0.118644
	C179	C	0.615143	0.823827	0.881642
	C180	C	0.385066	0.881032	0.176739
	C181	C	0.614374	0.118954	0.176774
	C182	C	0.385148	0.119149	0.823524
	C183	C	0.615440	0.881917	0.824235
	C184	C	0.881352	0.175933	0.385197
	C185	C	0.118593	0.176165	0.614685
	C186	C	0.118594	0.823314	0.384811
	C187	C	0.881426	0.823606	0.614799
	C188	C	0.176647	0.385592	0.881074
	C189	C	0.176279	0.614826	0.118331
	C190	C	0.823828	0.384927	0.118639
	C191	C	0.823606	0.614741	0.881059
	C192	C	0.399904	0.094649	0.600090
	C193	C	0.599943	0.905602	0.600137
	C194	C	0.599363	0.093995	0.400888
	C195	C	0.400598	0.905956	0.400632
	C196	C	0.600099	0.400473	0.094404
	C197	C	0.599725	0.600030	0.906011
	C198	C	0.399952	0.599901	0.094866
	C199	C	0.400483	0.400955	0.905546
	C200	C	0.094133	0.599542	0.399735
	C201	C	0.905545	0.599347	0.599510
	C202	C	0.094259	0.399825	0.599329
	C203	C	0.905362	0.399872	0.399399
	C204	C	0.899885	0.594284	0.100056
	C205	C	0.100016	0.405310	0.099464
	C206	C	0.099403	0.594501	0.900383
	C207	C	0.900785	0.405690	0.900001
	C208	C	0.099537	0.900325	0.593677
	C209	C	0.100042	0.099573	0.405574
	C210	C	0.900427	0.099224	0.594417
	C211	C	0.899676	0.899745	0.405013
	C212	C	0.594280	0.100027	0.900161
	C213	C	0.405560	0.099613	0.099042
	C214	C	0.594463	0.900503	0.100392
	C215	C	0.405546	0.899870	0.899383
	Zn216	Zn	0.500123	-0.000276	0.750136
	Zn217	Zn	0.499508	0.000217	0.250214
	Zn218	Zn	0.750189	0.500042	0.000070
	Zn219	Zn	0.249966	0.500308	-0.000094
	Zn220	Zn	-0.000038	0.750041	0.499853
	Zn221	Zn	-0.000270	0.249604	0.499886
	Zn222	Zn	0.000364	0.499820	0.749856
	Zn223	Zn	0.000230	0.499831	0.249684
	Zn224	Zn	0.499999	0.750294	0.000454
	Zn225	Zn	0.500007	0.250623	0.000309
	Zn226	Zn	0.750122	-0.000476	0.500282
	Zn227	Zn	0.250297	-0.000057	0.499661
	N228	N	0.414799	0.962594	0.678111
	N229	N	0.584817	0.037784	0.677741
	N230	N	0.584985	0.962654	0.322161
	N231	N	0.413705	0.036937	0.321167
	N232	N	0.678591	0.414631	0.962880
	N233	N	0.678124	0.585314	0.037355
	N234	N	0.321552	0.586208	0.963347
	N235	N	0.322083	0.415242	0.036990
	N236	N	0.962341	0.677438	0.415152
	N237	N	0.036956	0.678687	0.585687
	N238	N	0.962340	0.321527	0.585015
	N239	N	0.037161	0.322021	0.414933
	N240	N	0.962781	0.414120	0.678343
	N241	N	0.037653	0.584895	0.677854
	N242	N	0.962584	0.585593	0.320897
	N243	N	0.037006	0.413838	0.320842
	N244	N	0.415208	0.677879	0.963151
	N245	N	0.585568	0.678339	0.037661
	N246	N	0.585785	0.321909	0.963134
	N247	N	0.414702	0.322335	0.037119
	N248	N	0.677774	0.962344	0.415284
	N249	N	0.678933	0.037279	0.585882
	N250	N	0.321240	0.963131	0.585837
	N251	N	0.322551	0.037484	0.415151
	N252	N	0.915123	0.462401	0.177964
	N253	N	0.085184	0.537099	0.177631
	N254	N	0.085099	0.462992	0.822056
	N255	N	0.914094	0.537209	0.820886
	N256	N	0.179024	0.913826	0.462426
	N257	N	0.178150	0.085156	0.537391
	N258	N	0.821171	0.085553	0.463204
	N259	N	0.821924	0.914267	0.536965
	N260	N	0.462749	0.178848	0.914640
	N261	N	0.536939	0.178539	0.085721
	N262	N	0.462702	0.822519	0.085212
	N263	N	0.537421	0.821473	0.914457
	N264	N	0.462728	0.914126	0.179228
	N265	N	0.536789	0.085434	0.178298
	N266	N	0.462584	0.085525	0.821862
	N267	N	0.537649	0.914980	0.821845
	N268	N	0.915325	0.177201	0.462462
	N269	N	0.085508	0.178133	0.537034
	N270	N	0.084714	0.822306	0.462053
	N271	N	0.914748	0.821914	0.537265
	N272	N	0.178588	0.463230	0.914364
	N273	N	0.178329	0.537106	0.085182
	N274	N	0.821568	0.462670	0.085611
	N275	N	0.822191	0.537269	0.914825
