data_Molecule from HDF5

_cell_length_a		16.372504
_cell_length_b		16.286884
_cell_length_c		16.510204
_cell_angle_alpha	89.976908
_cell_angle_beta	89.878220
_cell_angle_gamma	89.888636
_symmetry_space_group_name_H-M	'P 1'
_symmetry_Int_Tables_number		1

loop_
	_symmetry_equiv_pos_as_xyz
	x,y,z

loop_
	_atom_site_label
	_atom_site_type_symbol
	_atom_site_fract_x
	_atom_site_fract_y
	_atom_site_fract_z
	H0	H	0.392081	0.826718	0.719235
	H1	H	0.604641	0.144770	0.721766
	H2	H	0.603649	0.827423	0.278706
	H3	H	0.389881	0.146274	0.275676
	H4	H	0.721773	0.380195	0.843234
	H5	H	0.719618	0.595092	0.156994
	H6	H	0.275193	0.591508	0.841403
	H7	H	0.276549	0.381117	0.158421
	H8	H	0.837166	0.705217	0.401044
	H9	H	0.159072	0.705406	0.602261
	H10	H	0.838327	0.268519	0.603802
	H11	H	0.158055	0.268590	0.396378
	H12	H	0.840141	0.381173	0.723263
	H13	H	0.156818	0.594473	0.722486
	H14	H	0.839367	0.595400	0.278873
	H15	H	0.158043	0.383772	0.280568
	H16	H	0.390976	0.706837	0.840606
	H17	H	0.598685	0.707864	0.158166
	H18	H	0.601795	0.267071	0.840418
	H19	H	0.391776	0.264140	0.158032
	H20	H	0.715035	0.825646	0.399332
	H21	H	0.715762	0.147878	0.602051
	H22	H	0.280035	0.826340	0.602276
	H23	H	0.276325	0.147049	0.392376
	H24	H	0.891485	0.328247	0.223731
	H25	H	0.101898	0.647001	0.217946
	H26	H	0.106411	0.328753	0.777529
	H27	H	0.890111	0.646690	0.778993
	H28	H	0.217539	0.885485	0.340594
	H29	H	0.222946	0.094691	0.655462
	H30	H	0.776768	0.092857	0.340858
	H31	H	0.775447	0.882483	0.657497
	H32	H	0.336861	0.203483	0.898272
	H33	H	0.657724	0.207386	0.102159
	H34	H	0.335070	0.771976	0.098635
	H35	H	0.656946	0.765687	0.897387
	H36	H	0.338421	0.885315	0.218981
	H37	H	0.657438	0.095546	0.220347
	H38	H	0.339323	0.091698	0.777635
	H39	H	0.656995	0.879481	0.778527
	H40	H	0.894261	0.208448	0.340657
	H41	H	0.102014	0.207928	0.657741
	H42	H	0.100197	0.768385	0.341314
	H43	H	0.894511	0.768111	0.659711
	H44	H	0.215430	0.326158	0.897677
	H45	H	0.213611	0.647402	0.099906
	H46	H	0.775429	0.327717	0.108117
	H47	H	0.776986	0.647331	0.897145
	H48	H	0.415280	0.097211	0.582231
	H49	H	0.586290	0.873154	0.586703
	H50	H	0.591302	0.105311	0.405097
	H51	H	0.413019	0.874196	0.407544
	H52	H	0.589883	0.392641	0.115502
	H53	H	0.582716	0.564199	0.893577
	H54	H	0.402719	0.573741	0.111906
	H55	H	0.414744	0.396524	0.889188
	H56	H	0.109004	0.570530	0.414069
	H57	H	0.886524	0.576654	0.584338
	H58	H	0.112501	0.403670	0.594276
	H59	H	0.883502	0.401748	0.406516
	H60	H	0.114163	0.393221	0.590488
	H61	H	0.885420	0.571683	0.594003
	H62	H	0.115448	0.575220	0.397967
	H63	H	0.883628	0.396035	0.412466
	H64	H	0.408338	0.578616	0.111551
	H65	H	0.578326	0.583008	0.887037
	H66	H	0.588975	0.405235	0.110538
	H67	H	0.402467	0.388796	0.883566
	H68	H	0.581882	0.101404	0.406362
	H69	H	0.589782	0.870853	0.589021
	H70	H	0.403484	0.103462	0.586815
	H71	H	0.410074	0.874181	0.411634
	H72	H	0.905800	0.600253	0.084951
	H73	H	0.080553	0.374844	0.084759
	H74	H	0.081656	0.601893	0.905490
	H75	H	0.914619	0.375801	0.914263
	H76	H	0.099273	0.895721	0.617424
	H77	H	0.081894	0.069802	0.390519
	H78	H	0.900544	0.073580	0.613039
	H79	H	0.910253	0.891985	0.386422
	H80	H	0.611860	0.074826	0.908020
	H81	H	0.390824	0.068239	0.080082
	H82	H	0.610697	0.897430	0.087530
	H83	H	0.380536	0.899633	0.898867
	H84	H	0.611263	0.898106	0.089513
	H85	H	0.383488	0.070180	0.099649
	H86	H	0.611211	0.074773	0.910613
	H87	H	0.380420	0.888884	0.909755
	H88	H	0.913020	0.073774	0.608355
	H89	H	0.084847	0.085162	0.385573
	H90	H	0.088262	0.906108	0.610107
	H91	H	0.902373	0.897672	0.386056
	H92	H	0.084015	0.599112	0.917517
	H93	H	0.094932	0.369353	0.089552
	H94	H	0.906021	0.603656	0.094522
	H95	H	0.908159	0.373159	0.913831
	H96	H	0.414216	0.101846	0.595088
	H97	H	0.585951	0.870645	0.591354
	H98	H	0.588908	0.100500	0.413827
	H99	H	0.408751	0.872144	0.406826
	H100	H	0.577967	0.396542	0.109971
	H101	H	0.596525	0.574801	0.884251
	H102	H	0.401644	0.580689	0.114624
	H103	H	0.400985	0.403950	0.887315
	H104	H	0.114852	0.587103	0.411155
	H105	H	0.881858	0.581986	0.593103
	H106	H	0.108912	0.400942	0.583906
	H107	H	0.886532	0.403442	0.414273
	H108	H	0.914570	0.599323	0.090628
	H109	H	0.081864	0.369176	0.100025
	H110	H	0.092686	0.604100	0.910538
	H111	H	0.912217	0.372974	0.908191
	H112	H	0.083481	0.890959	0.614320
	H113	H	0.096539	0.073978	0.384453
	H114	H	0.908479	0.084393	0.614241
	H115	H	0.911419	0.901582	0.388497
	H116	H	0.611496	0.072505	0.909338
	H117	H	0.381056	0.086112	0.086590
	H118	H	0.612328	0.895904	0.088684
	H119	H	0.387613	0.903031	0.912632
	C120	C	0.378090	-0.004871	0.619731
	C121	C	0.619201	0.977528	0.620586
	C122	C	0.619083	-0.004012	0.377771
	C123	C	0.377822	0.979270	0.377094
	C124	C	0.618902	0.365136	0.008142
	C125	C	0.617950	0.607803	0.991784
	C126	C	0.373584	0.608581	0.007819
	C127	C	0.374925	0.364468	0.991503
	C128	C	0.007315	0.609272	0.377865
	C129	C	0.989883	0.608967	0.622292
	C130	C	0.006643	0.366610	0.621950
	C131	C	0.989828	0.367605	0.379055
	C132	C	0.875797	0.496003	0.122888
	C133	C	0.117382	0.477646	0.121076
	C134	C	0.118621	0.495936	0.879063
	C135	C	0.877948	0.479131	0.880233
	C136	C	0.120547	0.866235	0.508510
	C137	C	0.120489	0.109294	0.490872
	C138	C	0.875414	0.109774	0.507396
	C139	C	0.876605	0.865978	0.491924
	C140	C	0.506216	0.106580	0.877867
	C141	C	0.490078	0.108067	0.120659
	C142	C	0.505399	0.866518	0.119522
	C143	C	0.488323	0.864183	0.876325
	C144	C	0.375080	0.874799	0.679353
	C145	C	0.622059	0.097754	0.680974
	C146	C	0.621484	0.875168	0.318868
	C147	C	0.373449	0.098755	0.316363
	C148	C	0.680849	0.362048	0.890157
	C149	C	0.678781	0.612143	0.110060
	C150	C	0.314836	0.609513	0.888704
	C151	C	0.316120	0.362820	0.110890
	C152	C	0.885968	0.667282	0.379728
	C153	C	0.110424	0.667170	0.622351
	C154	C	0.886619	0.307568	0.623007
	C155	C	0.110109	0.308222	0.377689
	C156	C	0.887494	0.363590	0.682635
	C157	C	0.109463	0.611776	0.682093
	C158	C	0.887144	0.612764	0.318939
	C159	C	0.109896	0.365199	0.319606
	C160	C	0.372525	0.667481	0.888555
	C161	C	0.618668	0.668321	0.110595
	C162	C	0.621143	0.305643	0.888824
	C163	C	0.373587	0.304329	0.110593
	C164	C	0.676791	0.874172	0.378770
	C165	C	0.677168	0.099021	0.621305
	C166	C	0.319104	0.874471	0.620925
	C167	C	0.316711	0.099118	0.374779
	C168	C	0.873191	0.376008	0.183418
	C169	C	0.119684	0.598840	0.178776
	C170	C	0.122693	0.376141	0.818597
	C171	C	0.873463	0.598971	0.819637
	C172	C	0.178378	0.865868	0.388348
	C173	C	0.181860	0.112497	0.608836
	C174	C	0.816546	0.111534	0.388380
	C175	C	0.816210	0.864258	0.610656
	C176	C	0.385526	0.165048	0.878021
	C177	C	0.609894	0.168355	0.121760
	C178	C	0.383698	0.810090	0.119086
	C179	C	0.608692	0.804653	0.876928
	C180	C	0.385633	0.865844	0.179090
	C181	C	0.609512	0.112260	0.180641
	C182	C	0.386669	0.109143	0.818280
	C183	C	0.608744	0.861363	0.817907
	C184	C	0.874890	0.169418	0.388390
	C185	C	0.121864	0.168933	0.609886
	C186	C	0.120207	0.807698	0.388792
	C187	C	0.875550	0.807434	0.611766
	C188	C	0.177627	0.374800	0.877946
	C189	C	0.175191	0.598883	0.119885
	C190	C	0.815438	0.375774	0.125914
	C191	C	0.817005	0.599276	0.878541
	C192	C	0.403522	0.078925	0.595073
	C193	C	0.594499	0.893583	0.596062
	C194	C	0.594407	0.080224	0.401411
	C195	C	0.403407	0.895513	0.401843
	C196	C	0.592999	0.390710	0.090522
	C197	C	0.592884	0.581549	0.909770
	C198	C	0.397429	0.584435	0.091057
	C199	C	0.399180	0.389217	0.908310
	C200	C	0.091207	0.584633	0.401037
	C201	C	0.906295	0.583871	0.597861
	C202	C	0.090252	0.391945	0.596914
	C203	C	0.906236	0.393154	0.403970
	C204	C	0.901237	0.579339	0.097323
	C205	C	0.092809	0.392990	0.098220
	C206	C	0.093285	0.579829	0.903913
	C207	C	0.904078	0.395929	0.905068
	C208	C	0.097185	0.890446	0.592057
	C209	C	0.095177	0.083677	0.408268
	C210	C	0.900127	0.084534	0.590441
	C211	C	0.901039	0.890090	0.408755
	C212	C	0.589874	0.081439	0.902190
	C213	C	0.406804	0.082276	0.095878
	C214	C	0.589509	0.890386	0.095471
	C215	C	0.404609	0.889767	0.900133
	Zn216	Zn	0.498347	-0.013865	0.748005
	Zn217	Zn	0.498890	-0.012462	0.248518
	Zn218	Zn	0.748560	0.486447	0.000616
	Zn219	Zn	0.245600	0.485615	0.000355
	Zn220	Zn	-0.001487	0.737130	0.500839
	Zn221	Zn	-0.001887	0.238600	0.499274
	Zn222	Zn	-0.001761	0.488009	0.750946
	Zn223	Zn	-0.001964	0.487741	0.250206
	Zn224	Zn	0.495623	0.736820	-0.000374
	Zn225	Zn	0.497384	0.235837	-0.000610
	Zn226	Zn	0.747087	-0.012538	0.499110
	Zn227	Zn	0.250199	-0.012720	0.499158
	N228	N	0.411223	0.950944	0.678757
	N229	N	0.586888	0.021163	0.680863
	N230	N	0.586620	0.952000	0.317862
	N231	N	0.411094	0.023411	0.317941
	N232	N	0.679693	0.398008	0.965426
	N233	N	0.678387	0.575108	0.035293
	N234	N	0.315402	0.573168	0.963792
	N235	N	0.316892	0.399511	0.035903
	N236	N	0.961626	0.665561	0.415584
	N237	N	0.035071	0.665584	0.586021
	N238	N	0.961916	0.309106	0.586019
	N239	N	0.034456	0.309532	0.413953
	N240	N	0.963473	0.399222	0.682158
	N241	N	0.033322	0.576433	0.682297
	N242	N	0.963686	0.577721	0.317435
	N243	N	0.033945	0.401458	0.320475
	N244	N	0.408562	0.666779	0.963495
	N245	N	0.581615	0.665912	0.036056
	N246	N	0.583416	0.307255	0.963258
	N247	N	0.409614	0.305243	0.035264
	N248	N	0.675649	0.950272	0.414342
	N249	N	0.675613	0.023304	0.584618
	N250	N	0.320540	0.950445	0.584686
	N251	N	0.319510	0.023785	0.412192
	N252	N	0.909925	0.451761	0.181765
	N253	N	0.084343	0.522493	0.179684
	N254	N	0.086915	0.452643	0.818893
	N255	N	0.911008	0.523426	0.820594
	N256	N	0.178961	0.901204	0.463929
	N257	N	0.181328	0.076494	0.533658
	N258	N	0.816667	0.075320	0.463475
	N259	N	0.816926	0.899970	0.535202
	N260	N	0.461012	0.163727	0.914372
	N261	N	0.534596	0.166128	0.085377
	N262	N	0.459362	0.810182	0.083084
	N263	N	0.532638	0.806042	0.912280
	N264	N	0.462440	0.900001	0.179445
	N265	N	0.533824	0.075887	0.180125
	N266	N	0.462826	0.073565	0.818133
	N267	N	0.532860	0.897381	0.817330
	N268	N	0.910698	0.168475	0.463696
	N269	N	0.084423	0.167000	0.535533
	N270	N	0.085146	0.807869	0.464482
	N271	N	0.912781	0.808563	0.537058
	N272	N	0.175301	0.450329	0.914754
	N273	N	0.174082	0.522455	0.084794
	N274	N	0.817048	0.451367	0.088850
	N275	N	0.819695	0.523828	0.915517
	O276	O	0.484377	0.657332	0.694232
	H277	H	0.519456	0.654459	0.697061
	H278	H	0.474546	0.676735	0.708866
	O279	O	0.640156	0.636636	0.518664
	H280	H	0.635852	0.629837	0.515198
	H281	H	0.636256	0.649563	0.529331
	O282	O	0.563414	0.466199	0.702134
	H283	H	0.561166	0.453732	0.707256
	H284	H	0.547875	0.448503	0.705638
	O285	O	0.801842	0.833203	0.193513
	H286	H	0.783850	0.813206	0.185386
	H287	H	0.825753	0.819096	0.185281
	O288	O	0.312057	0.298400	0.686746
	H289	H	0.297915	0.290684	0.663146
	H290	H	0.307131	0.327428	0.675391
	O291	O	0.688998	0.459414	0.655010
	H292	H	0.677120	0.447458	0.671301
	H293	H	0.676012	0.471073	0.652491
	O294	O	1.170105	1.141675	1.147703
	H295	H	1.149430	1.142411	1.164574
	H296	H	1.165128	1.134255	1.154517
	O297	O	0.291399	0.370842	0.522003
	H298	H	0.275744	0.354126	0.528619
	H299	H	0.313107	0.368088	0.515682
	O300	O	0.480950	0.650277	0.417220
	H301	H	0.469693	0.640990	0.424885
	H302	H	0.462766	0.656595	0.407194
	O303	O	0.700286	0.473141	0.317024
	H304	H	0.710502	0.483712	0.302091
	H305	H	0.689025	0.485931	0.312155
	O306	O	0.172686	0.164378	0.980126
	H307	H	0.174298	0.159972	0.995621
	H308	H	0.154490	0.162857	1.001855
	O309	O	0.916518	-0.033814	-0.036645
	H310	H	0.914416	-0.040174	-0.056556
	H311	H	0.919256	-0.024731	-0.034893
	O312	O	0.064132	0.812138	0.971385
	H313	H	0.068589	0.825500	0.980719
	H314	H	0.071191	0.814860	0.967544
	O315	O	0.843171	0.884594	-0.155511
	H316	H	0.849521	0.890339	-0.151898
	H317	H	0.859990	0.875684	-0.150440
	O318	O	-0.119344	0.062557	0.098517
	H319	H	-0.135292	0.042444	0.103827
	H320	H	-0.123113	0.059474	0.092364
	O321	O	0.299076	0.496180	0.342625
	H322	H	0.297982	0.481050	0.352396
	H323	H	0.297308	0.483301	0.350017
	O324	O	1.015478	0.019042	1.118406
	H325	H	1.000535	0.028050	1.112923
	H326	H	0.997548	0.015685	1.132995
	O327	O	0.496447	0.551610	0.598510
	H328	H	0.508493	0.551651	0.597161
	H329	H	0.495321	0.557845	0.598230
	O330	O	0.027932	0.779886	0.905099
	H331	H	0.057662	0.777598	0.926560
	H332	H	0.022973	0.769215	0.892607
	O333	O	-0.013360	0.873747	0.187515
	H334	H	-0.004741	0.868535	0.182813
	H335	H	-0.011047	0.867979	0.189333
	O336	O	1.179966	0.965880	0.154018
	H337	H	1.181270	0.973576	0.160249
	H338	H	1.168268	0.979170	0.153106
	O339	O	-0.189310	1.174116	0.813774
	H340	H	-0.204811	1.144013	0.807240
	H341	H	-0.158099	1.181000	0.806593
	O342	O	0.694383	0.374588	0.451807
	H343	H	0.686970	0.377780	0.465057
	H344	H	0.703016	0.369084	0.474089
	O345	O	-0.162120	0.140149	0.975509
	H346	H	-0.167359	0.140657	0.963209
	H347	H	-0.158940	0.149726	0.965108
	O348	O	0.294628	0.689222	0.365173
	H349	H	0.287641	0.688045	0.378935
	H350	H	0.281643	0.681207	0.348211
	O351	O	0.827047	0.798140	0.015980
	H352	H	0.838733	0.802498	0.011101
	H353	H	0.817784	0.790755	-0.002434
	O354	O	1.082650	0.801092	1.083876
	H355	H	1.105876	0.815630	1.081202
	H356	H	1.088371	0.791257	1.076663
	O357	O	-0.389166	0.672883	-0.337428
	H358	H	-0.369230	0.665049	-0.358393
	H359	H	-0.386668	0.666932	-0.319826
	O360	O	0.544930	0.328044	0.482294
	H361	H	0.553935	0.335199	0.469629
	H362	H	0.546962	0.325190	0.477619
	O363	O	1.016979	-0.060619	-0.053027
	H364	H	1.015415	-0.062477	-0.039469
	H365	H	1.015555	-0.046541	-0.055030
	O366	O	-0.214567	-0.075339	1.183348
	H367	H	-0.233935	-0.088590	1.205398
	H368	H	-0.211842	-0.111398	1.176501
	O369	O	1.181271	-0.070710	0.869600
	H370	H	1.190639	-0.064936	0.897654
	H371	H	1.185924	-0.049569	0.874610
	O372	O	0.515930	0.645105	0.335709
	H373	H	0.494651	0.639160	0.338518
	H374	H	0.503890	0.650809	0.336889
	O375	O	-0.014859	0.013802	0.882346
	H376	H	-0.024617	0.016430	0.877168
	H377	H	-0.018153	0.009230	0.867499
	O378	O	0.473109	0.280454	0.710699
	H379	H	0.470619	0.257330	0.735854
	H380	H	0.430541	0.285171	0.701889
	O381	O	-0.083119	1.045926	-0.013902
	H382	H	-0.084595	1.052428	-0.003745
	H383	H	-0.101957	1.063925	-0.019176
	O384	O	0.297803	0.571032	0.594990
	H385	H	0.290782	0.581649	0.602985
	H386	H	0.303318	0.584298	0.606176
	O387	O	0.479055	0.416166	0.597071
	H388	H	0.462909	0.410595	0.607987
	H389	H	0.477884	0.422984	0.610681
	O390	O	1.046913	1.003958	-0.141548
	H391	H	1.053564	1.001182	-0.124804
	H392	H	1.042745	0.995669	-0.147396
	O393	O	0.912034	-0.004387	0.796037
	H394	H	0.890605	-0.002937	0.792920
	H395	H	0.910787	-0.014308	0.795795
	O396	O	0.503661	0.421320	0.414048
	H397	H	0.515270	0.419511	0.395485
	H398	H	0.517421	0.412866	0.418564
	O399	O	0.523158	0.276558	0.307933
	H400	H	0.533650	0.262961	0.282313
	H401	H	0.557359	0.279044	0.306717
	O402	O	0.992243	1.079744	0.159424
	H403	H	0.966431	1.070728	0.153594
	H404	H	0.985445	1.078328	0.149470
	O405	O	0.666413	0.309859	0.367171
	H406	H	0.679115	0.305225	0.399196
	H407	H	0.676042	0.347000	0.352482
	O408	O	0.556144	0.473136	0.453238
	H409	H	0.535370	0.486693	0.446504
	H410	H	0.542337	0.466192	0.459737
	O411	O	1.147149	0.862401	1.074032
	H412	H	1.146033	0.886845	1.070781
	H413	H	1.119651	0.868129	1.062753
	O414	O	0.644034	0.522822	0.549724
	H415	H	0.637484	0.523399	0.537783
	H416	H	0.651441	0.503354	0.536632
	O417	O	0.047326	1.067006	1.017820
	H418	H	0.043759	1.069785	1.024646
	H419	H	0.038115	1.065088	1.023030
	O420	O	0.021395	1.191413	1.062394
	H421	H	0.013312	1.197432	1.067157
	H422	H	0.009606	1.198325	1.060531
	O423	O	-0.016605	1.167608	-0.210410
	H424	H	-0.008881	1.190111	-0.225618
	H425	H	-0.029042	1.160629	-0.217182
	O426	O	0.431572	0.554972	0.302020
	H427	H	0.414261	0.545133	0.296653
	H428	H	0.431196	0.552852	0.300925
	O429	O	0.367278	0.652260	0.561876
	H430	H	0.382401	0.657276	0.563409
	H431	H	0.365046	0.658863	0.549781
	O432	O	0.619757	0.575495	0.350447
	H433	H	0.613653	0.565245	0.340896
	H434	H	0.616612	0.589914	0.369996
	O435	O	0.353767	0.467335	0.571233
	H436	H	0.350507	0.457979	0.579290
	H437	H	0.350343	0.465634	0.584367
	O438	O	0.154082	0.977577	0.857503
	H439	H	0.160524	0.974527	0.864355
	H440	H	0.153137	0.987835	0.870360
	O441	O	0.388380	0.305963	0.454367
	H442	H	0.402720	0.305941	0.445355
	H443	H	0.384159	0.277999	0.457332
