data_Molecule from HDF5

_cell_length_a		16.290373
_cell_length_b		16.178314
_cell_length_c		16.266268
_cell_angle_alpha	89.834520
_cell_angle_beta	90.131558
_cell_angle_gamma	89.800097
_symmetry_space_group_name_H-M	'P 1'
_symmetry_Int_Tables_number		1

loop_
	_symmetry_equiv_pos_as_xyz
	x,y,z

loop_
	_atom_site_label
	_atom_site_type_symbol
	_atom_site_fract_x
	_atom_site_fract_y
	_atom_site_fract_z
	H0	H	0.394395	0.832473	0.708601
	H1	H	0.591122	0.160829	0.707580
	H2	H	0.591424	0.832052	0.279939
	H3	H	0.394230	0.161683	0.280722
	H4	H	0.707163	0.396316	0.831895
	H5	H	0.706572	0.596686	0.158325
	H6	H	0.273177	0.598079	0.831435
	H7	H	0.278148	0.398221	0.159484
	H8	H	0.827890	0.711806	0.395728
	H9	H	0.156096	0.706919	0.594437
	H10	H	0.827585	0.280519	0.593500
	H11	H	0.155535	0.281936	0.399281
	H12	H	0.827225	0.395535	0.710890
	H13	H	0.153535	0.592686	0.712585
	H14	H	0.827326	0.595586	0.280194
	H15	H	0.153788	0.394930	0.280237
	H16	H	0.391662	0.710965	0.829846
	H17	H	0.588455	0.710863	0.158662
	H18	H	0.588387	0.284394	0.829532
	H19	H	0.394205	0.282163	0.158305
	H20	H	0.706260	0.831565	0.396008
	H21	H	0.705614	0.160515	0.592642
	H22	H	0.280608	0.831911	0.592933
	H23	H	0.275251	0.159857	0.392616
	H24	H	0.892145	0.331070	0.209565
	H25	H	0.088229	0.660451	0.209450
	H26	H	0.088517	0.330767	0.783215
	H27	H	0.890177	0.659069	0.779412
	H28	H	0.207576	0.895813	0.330471
	H29	H	0.208156	0.094779	0.657950
	H30	H	0.776503	0.095874	0.331795
	H31	H	0.776535	0.894598	0.657605
	H32	H	0.327587	0.211539	0.894721
	H33	H	0.655762	0.209201	0.089631
	H34	H	0.327433	0.783661	0.092868
	H35	H	0.654880	0.780807	0.896423
	H36	H	0.329399	0.898098	0.210513
	H37	H	0.655309	0.096373	0.208743
	H38	H	0.329095	0.097650	0.776596
	H39	H	0.656769	0.898283	0.781415
	H40	H	0.893056	0.210100	0.331494
	H41	H	0.088518	0.207222	0.659446
	H42	H	0.088895	0.781099	0.330832
	H43	H	0.896690	0.783091	0.659734
	H44	H	0.204256	0.331211	0.898312
	H45	H	0.204807	0.660765	0.095676
	H46	H	0.775765	0.331630	0.095180
	H47	H	0.776473	0.659950	0.895488
	H48	H	0.400754	0.113051	0.584235
	H49	H	0.579903	0.880306	0.589678
	H50	H	0.583882	0.114449	0.398402
	H51	H	0.397470	0.876346	0.394688
	H52	H	0.582368	0.399602	0.111599
	H53	H	0.591354	0.583576	0.877161
	H54	H	0.403533	0.603468	0.113199
	H55	H	0.396258	0.401925	0.877082
	H56	H	0.109680	0.591673	0.400045
	H57	H	0.875357	0.581580	0.590832
	H58	H	0.106084	0.405694	0.590492
	H59	H	0.876714	0.409065	0.403608
	H60	H	0.109448	0.400116	0.594158
	H61	H	0.871530	0.593989	0.591698
	H62	H	0.105839	0.586919	0.407383
	H63	H	0.872103	0.401174	0.396635
	H64	H	0.383057	0.586582	0.115076
	H65	H	0.576360	0.584491	0.882028
	H66	H	0.587880	0.404470	0.112417
	H67	H	0.392741	0.405484	0.877428
	H68	H	0.583732	0.113086	0.403201
	H69	H	0.587842	0.879361	0.581207
	H70	H	0.399120	0.113903	0.584035
	H71	H	0.407398	0.881738	0.402031
	H72	H	0.896801	0.615314	0.096854
	H73	H	0.078533	0.380966	0.087896
	H74	H	0.080296	0.611944	0.903873
	H75	H	0.896370	0.378078	0.905613
	H76	H	0.099942	0.906496	0.613623
	H77	H	0.085728	0.088660	0.377790
	H78	H	0.881560	0.082274	0.615892
	H79	H	0.902265	0.896919	0.377529
	H80	H	0.607674	0.097713	0.908296
	H81	H	0.374903	0.085782	0.093625
	H82	H	0.609243	0.903789	0.090091
	H83	H	0.378277	0.912820	0.902374
	H84	H	0.608379	0.900220	0.086873
	H85	H	0.372846	0.097849	0.088445
	H86	H	0.604880	0.079936	0.902059
	H87	H	0.373425	0.904627	0.893322
	H88	H	0.909545	0.075557	0.605026
	H89	H	0.084280	0.087227	0.378323
	H90	H	0.078462	0.908798	0.606453
	H91	H	0.892005	0.903867	0.376021
	H92	H	0.084251	0.613671	0.903627
	H93	H	0.088780	0.378845	0.083817
	H94	H	0.905860	0.609763	0.083958
	H95	H	0.897858	0.377028	0.901774
	H96	H	0.399714	0.114540	0.585950
	H97	H	0.589967	0.875479	0.592544
	H98	H	0.587469	0.114516	0.401235
	H99	H	0.395509	0.879330	0.407185
	H100	H	0.581284	0.406301	0.108906
	H101	H	0.583790	0.597122	0.875038
	H102	H	0.405865	0.577995	0.104864
	H103	H	0.396977	0.406828	0.878649
	H104	H	0.107110	0.583588	0.398631
	H105	H	0.877202	0.589638	0.580325
	H106	H	0.107073	0.399421	0.587051
	H107	H	0.874260	0.398602	0.407544
	H108	H	0.889982	0.613128	0.082163
	H109	H	0.086484	0.376322	0.094272
	H110	H	0.081596	0.613843	0.900973
	H111	H	0.899892	0.378784	0.904473
	H112	H	0.086213	0.889038	0.615927
	H113	H	0.083868	0.088774	0.378177
	H114	H	0.902801	0.103943	0.615466
	H115	H	0.902706	0.909310	0.380863
	H116	H	0.612156	0.092971	0.890148
	H117	H	0.377753	0.087779	0.080485
	H118	H	0.607158	0.905021	0.085169
	H119	H	0.375447	0.899729	0.904656
	C120	C	0.371849	0.005219	0.614292
	C121	C	0.613827	0.987476	0.615378
	C122	C	0.613751	0.005058	0.372424
	C123	C	0.370938	0.987793	0.372099
	C124	C	0.612378	0.375331	0.002861
	C125	C	0.612262	0.617496	0.986418
	C126	C	0.368038	0.618746	0.002885
	C127	C	0.368539	0.375296	0.986128
	C128	C	-0.000622	0.616754	0.373509
	C129	C	0.982710	0.616382	0.617157
	C130	C	-0.000614	0.372935	0.618427
	C131	C	0.982423	0.373699	0.374115
	C132	C	0.868981	0.504121	0.116899
	C133	C	0.112610	0.487516	0.117292
	C134	C	0.111031	0.504232	0.874729
	C135	C	0.869093	0.486679	0.874255
	C136	C	0.115494	0.873056	0.503318
	C137	C	0.113691	0.116589	0.486285
	C138	C	0.869612	0.116971	0.503819
	C139	C	0.870960	0.874001	0.486218
	C140	C	0.500345	0.119423	0.871194
	C141	C	0.483350	0.118801	0.115335
	C142	C	0.500199	0.875225	0.115690
	C143	C	0.483389	0.875423	0.872070
	C144	C	0.374472	0.881478	0.670368
	C145	C	0.611182	0.111633	0.669730
	C146	C	0.611624	0.881233	0.317567
	C147	C	0.373353	0.111944	0.317745
	C148	C	0.668262	0.377047	0.879948
	C149	C	0.668435	0.616493	0.109298
	C150	C	0.311440	0.617772	0.880160
	C151	C	0.315291	0.377586	0.110072
	C152	C	0.876611	0.673438	0.375503
	C153	C	0.106632	0.669970	0.614844
	C154	C	0.876432	0.317969	0.614755
	C155	C	0.106061	0.318831	0.377765
	C156	C	0.876160	0.375343	0.672836
	C157	C	0.105525	0.613072	0.673532
	C158	C	0.876223	0.615379	0.318182
	C159	C	0.105218	0.375126	0.318663
	C160	C	0.370644	0.673815	0.879365
	C161	C	0.609492	0.673008	0.109613
	C162	C	0.609375	0.321041	0.879064
	C163	C	0.372859	0.319869	0.109443
	C164	C	0.668549	0.880967	0.375347
	C165	C	0.668250	0.111445	0.612760
	C166	C	0.317819	0.881159	0.612702
	C167	C	0.314343	0.111093	0.373397
	C168	C	0.872111	0.380111	0.171491
	C169	C	0.109400	0.611191	0.172439
	C170	C	0.108953	0.379826	0.820694
	C171	C	0.870299	0.610162	0.817763
	C172	C	0.169708	0.875677	0.379675
	C173	C	0.169711	0.114663	0.609131
	C174	C	0.814488	0.115825	0.380733
	C175	C	0.815303	0.875265	0.609266
	C176	C	0.376923	0.174396	0.873541
	C177	C	0.606609	0.172830	0.111510
	C178	C	0.376519	0.821023	0.113084
	C179	C	0.606393	0.819146	0.875569
	C180	C	0.377505	0.877757	0.171687
	C181	C	0.606405	0.116560	0.170573
	C182	C	0.377527	0.117669	0.815020
	C183	C	0.607207	0.877346	0.818127
	C184	C	0.872527	0.172477	0.380518
	C185	C	0.110087	0.170237	0.610171
	C186	C	0.111171	0.818406	0.379791
	C187	C	0.874635	0.819392	0.610095
	C188	C	0.166586	0.380350	0.877528
	C189	C	0.167114	0.611523	0.115578
	C190	C	0.814117	0.380342	0.114962
	C191	C	0.813638	0.610431	0.875247
	C192	C	0.393556	0.091543	0.591531
	C193	C	0.592237	0.900671	0.593988
	C194	C	0.591483	0.091620	0.394434
	C195	C	0.393636	0.901318	0.394698
	C196	C	0.590379	0.397216	0.088852
	C197	C	0.590107	0.594977	0.900375
	C198	C	0.390761	0.596033	0.088900
	C199	C	0.389211	0.397966	0.899843
	C200	C	0.085254	0.594023	0.395564
	C201	C	0.896929	0.594887	0.594344
	C202	C	0.085310	0.395156	0.597049
	C203	C	0.896509	0.396274	0.396196
	C204	C	0.891010	0.590578	0.094322
	C205	C	0.091176	0.401134	0.095106
	C206	C	0.088643	0.590739	0.896250
	C207	C	0.891514	0.400330	0.897339
	C208	C	0.094496	0.894851	0.589576
	C209	C	0.091153	0.094578	0.400157
	C210	C	0.891642	0.094149	0.589933
	C211	C	0.892639	0.896786	0.400276
	C212	C	0.586061	0.096875	0.893667
	C213	C	0.397311	0.096866	0.093917
	C214	C	0.586009	0.896615	0.093814
	C215	C	0.397883	0.898921	0.893728
	Zn216	Zn	0.492713	-0.002851	0.742939
	Zn217	Zn	0.492675	-0.002831	0.244326
	Zn218	Zn	0.741067	0.495982	-0.005116
	Zn219	Zn	0.239909	0.496895	-0.005013
	Zn220	Zn	-0.008061	0.745619	0.495339
	Zn221	Zn	-0.008707	0.244769	0.495652
	Zn222	Zn	-0.009991	0.494843	0.746726
	Zn223	Zn	-0.009502	0.495212	0.244774
	Zn224	Zn	0.490703	0.746193	-0.005719
	Zn225	Zn	0.491084	0.247081	-0.006450
	Zn226	Zn	0.741553	-0.004490	0.494627
	Zn227	Zn	0.243218	-0.004101	0.493935
	N228	N	0.407693	0.959594	0.671359
	N229	N	0.578014	0.033546	0.671585
	N230	N	0.578499	0.959519	0.315515
	N231	N	0.407638	0.034091	0.316641
	N232	N	0.670168	0.410088	0.957847
	N233	N	0.670174	0.582702	0.031659
	N234	N	0.309885	0.584191	0.957988
	N235	N	0.312458	0.411452	0.032401
	N236	N	0.954163	0.674421	0.409394
	N237	N	0.029231	0.672122	0.580455
	N238	N	0.953944	0.316498	0.581475
	N239	N	0.028715	0.318050	0.411818
	N240	N	0.953644	0.408923	0.675140
	N241	N	0.027688	0.580513	0.675080
	N242	N	0.953553	0.581023	0.316767
	N243	N	0.027353	0.408389	0.316340
	N244	N	0.405049	0.674585	0.956756
	N245	N	0.575175	0.673543	0.032171
	N246	N	0.575256	0.320008	0.956358
	N247	N	0.405194	0.318254	0.031382
	N248	N	0.669968	0.958972	0.408919
	N249	N	0.669830	0.033225	0.579551
	N250	N	0.316132	0.958956	0.578599
	N251	N	0.312764	0.032762	0.406533
	N252	N	0.905469	0.458119	0.172563
	N253	N	0.076350	0.533008	0.173781
	N254	N	0.075100	0.457790	0.818951
	N255	N	0.903762	0.532167	0.816789
	N256	N	0.172402	0.908864	0.457445
	N257	N	0.171880	0.082033	0.531117
	N258	N	0.812603	0.081939	0.458336
	N259	N	0.812823	0.908669	0.531342
	N260	N	0.454127	0.175531	0.907782
	N261	N	0.529094	0.174265	0.077950
	N262	N	0.453846	0.819228	0.079053
	N263	N	0.528591	0.817969	0.908399
	N264	N	0.455062	0.910803	0.173358
	N265	N	0.528757	0.083575	0.172947
	N266	N	0.455260	0.084174	0.813363
	N267	N	0.529737	0.911639	0.815841
	N268	N	0.905970	0.173420	0.458231
	N269	N	0.075959	0.171633	0.532587
	N270	N	0.078355	0.816498	0.457586
	N271	N	0.908500	0.818635	0.532650
	N272	N	0.168192	0.458727	0.910335
	N273	N	0.169223	0.533688	0.081966
	N274	N	0.812042	0.458586	0.081644
	N275	N	0.812970	0.532679	0.909845
	O276	O	0.457743	0.484960	0.443330
	H277	H	0.461804	0.491136	0.438600
	H278	H	0.461714	0.487637	0.444733
	O279	O	0.492118	0.487498	0.515640
	H280	H	0.488118	0.491818	0.520976
	H281	H	0.485125	0.483835	0.522565
	O282	O	0.473853	0.511596	0.475871
	H283	H	0.472557	0.500402	0.481533
	H284	H	0.474513	0.513605	0.472068
	O285	O	0.498028	1.519715	0.408056
	H286	H	0.502519	1.527427	0.412161
	H287	H	0.487129	1.515421	0.404626
	O288	O	0.451050	0.534430	0.505478
	H289	H	0.454007	0.532638	0.500410
	H290	H	0.442506	0.538538	0.509082
	O291	O	0.054112	-0.068306	0.975299
	H292	H	0.056830	-0.074411	0.980802
	H293	H	0.041843	-0.061697	0.966930
	O294	O	1.011354	-0.061895	1.021965
	H295	H	1.006374	-0.067667	1.022342
	H296	H	1.001184	-0.064271	1.030458
	O297	O	0.570849	0.515150	0.510370
	H298	H	0.571981	0.520540	0.515513
	H299	H	0.568411	0.519383	0.505742
	O300	O	0.473613	0.503497	0.450831
	H301	H	0.475352	0.501178	0.448716
	H302	H	0.473993	0.503732	0.445458
	O303	O	0.002589	0.976604	0.015990
	H304	H	0.006885	0.981057	0.007126
	H305	H	-0.010991	0.976950	0.011698
	O306	O	0.555861	0.388498	1.391500
	H307	H	0.542437	0.392397	1.382391
	H308	H	0.554639	0.391622	1.392542
	O309	O	0.440835	0.473792	0.449652
	H310	H	0.444180	0.472265	0.451721
	H311	H	0.444291	0.472187	0.451898
	O312	O	0.502418	0.510595	0.465504
	H313	H	0.499088	0.514381	0.458411
	H314	H	0.501523	0.511183	0.460316
	O315	O	1.046094	0.024333	1.016212
	H316	H	1.054239	0.025372	1.025833
	H317	H	1.048868	0.032275	1.022325
	O318	O	-0.005547	0.029083	0.018762
	H319	H	0.004497	0.039937	0.018461
	H320	H	-0.001405	0.022422	0.017520
	O321	O	1.014064	0.995394	1.007384
	H322	H	1.014364	0.993648	1.004720
	H323	H	1.019937	0.997978	1.000454
	O324	O	1.019398	0.015311	-0.027866
	H325	H	1.027432	0.019780	-0.016808
	H326	H	1.023537	0.014766	-0.027997
	O327	O	1.381257	0.637472	0.396062
	H328	H	1.384687	0.626089	0.399871
	H329	H	1.379599	0.639881	0.392731
	O330	O	0.432297	0.536814	0.500171
	H331	H	0.436951	0.536251	0.516731
	H332	H	0.429883	0.547057	0.506915
	O333	O	0.490854	0.459535	0.515848
	H334	H	0.493210	0.461248	0.516229
	H335	H	0.480035	0.464691	0.503243
