data_Molecule from HDF5

_cell_length_a		16.141348
_cell_length_b		16.342268
_cell_length_c		16.267547
_cell_angle_alpha	89.885752
_cell_angle_beta	90.273080
_cell_angle_gamma	89.993342
_symmetry_space_group_name_H-M	'P 1'
_symmetry_Int_Tables_number		1

loop_
	_symmetry_equiv_pos_as_xyz
	x,y,z

loop_
	_atom_site_label
	_atom_site_type_symbol
	_atom_site_fract_x
	_atom_site_fract_y
	_atom_site_fract_z
	H0	H	0.400885	0.847311	0.703136
	H1	H	0.603561	0.171499	0.701982
	H2	H	0.602586	0.848086	0.269690
	H3	H	0.397295	0.171544	0.268160
	H4	H	0.718384	0.409648	0.822148
	H5	H	0.720056	0.607304	0.150058
	H6	H	0.287829	0.608607	0.822090
	H7	H	0.291152	0.410750	0.149765
	H8	H	0.837525	0.722757	0.383520
	H9	H	0.166445	0.725775	0.587233
	H10	H	0.839409	0.291956	0.587841
	H11	H	0.166503	0.293803	0.385997
	H12	H	0.838925	0.409383	0.701045
	H13	H	0.166473	0.610736	0.702485
	H14	H	0.838391	0.607793	0.268714
	H15	H	0.167412	0.409777	0.272725
	H16	H	0.400905	0.727652	0.823486
	H17	H	0.606800	0.727384	0.148727
	H18	H	0.605427	0.290648	0.823251
	H19	H	0.401648	0.292364	0.148184
	H20	H	0.715263	0.846449	0.387489
	H21	H	0.719744	0.171013	0.586332
	H22	H	0.288072	0.845533	0.584054
	H23	H	0.284895	0.171541	0.385762
	H24	H	0.903097	0.345855	0.200712
	H25	H	0.102936	0.670959	0.201980
	H26	H	0.106162	0.346991	0.769144
	H27	H	0.902121	0.670705	0.769738
	H28	H	0.214302	0.912020	0.320768
	H29	H	0.215822	0.104497	0.649948
	H30	H	0.786145	0.107093	0.321803
	H31	H	0.790379	0.910680	0.650180
	H32	H	0.338806	0.225206	0.884049
	H33	H	0.667673	0.222568	0.084351
	H34	H	0.339247	0.792864	0.087146
	H35	H	0.666940	0.795333	0.887046
	H36	H	0.336476	0.913369	0.197201
	H37	H	0.666114	0.109615	0.201225
	H38	H	0.337663	0.109268	0.770271
	H39	H	0.666120	0.910370	0.771987
	H40	H	0.899343	0.226099	0.322647
	H41	H	0.103926	0.225086	0.648665
	H42	H	0.101768	0.793160	0.321866
	H43	H	0.901219	0.790294	0.647646
	H44	H	0.217827	0.346026	0.888447
	H45	H	0.217855	0.671685	0.084744
	H46	H	0.788120	0.345873	0.084885
	H47	H	0.788067	0.671430	0.885381
	H48	H	0.413507	0.124264	0.581955
	H49	H	0.585786	0.895009	0.581460
	H50	H	0.591028	0.124269	0.396155
	H51	H	0.408233	0.895549	0.400876
	H52	H	0.594526	0.403728	0.104930
	H53	H	0.598782	0.604637	0.868053
	H54	H	0.418829	0.610483	0.102580
	H55	H	0.406495	0.424065	0.869937
	H56	H	0.122978	0.600016	0.383224
	H57	H	0.884814	0.605935	0.573081
	H58	H	0.119323	0.415506	0.574597
	H59	H	0.887011	0.420706	0.393431
	H60	H	0.119461	0.420095	0.578610
	H61	H	0.888464	0.594005	0.574168
	H62	H	0.120886	0.612164	0.400021
	H63	H	0.883097	0.416309	0.390561
	H64	H	0.403002	0.602595	0.105846
	H65	H	0.593272	0.597742	0.871778
	H66	H	0.605640	0.424134	0.102459
	H67	H	0.419875	0.415707	0.871633
	H68	H	0.597125	0.126173	0.394932
	H69	H	0.597731	0.894359	0.571323
	H70	H	0.410554	0.122815	0.572409
	H71	H	0.402530	0.890272	0.386151
	H72	H	0.914330	0.620518	0.068240
	H73	H	0.099847	0.392983	0.074152
	H74	H	0.095512	0.625159	0.892640
	H75	H	0.920099	0.396200	0.896392
	H76	H	0.100923	0.918306	0.602648
	H77	H	0.094069	0.102247	0.369427
	H78	H	0.915773	0.105189	0.601514
	H79	H	0.914409	0.912555	0.369663
	H80	H	0.620289	0.103676	0.894897
	H81	H	0.383802	0.104320	0.080020
	H82	H	0.621246	0.921192	0.089154
	H83	H	0.388596	0.919935	0.903065
	H84	H	0.621526	0.909688	0.076102
	H85	H	0.384871	0.104841	0.073805
	H86	H	0.618009	0.098832	0.896068
	H87	H	0.384424	0.924907	0.888221
	H88	H	0.906088	0.103040	0.603306
	H89	H	0.092078	0.103334	0.369841
	H90	H	0.088537	0.919506	0.598921
	H91	H	0.904010	0.911096	0.366346
	H92	H	0.093960	0.623916	0.893374
	H93	H	0.101244	0.390213	0.084776
	H94	H	0.901492	0.627893	0.079932
	H95	H	0.904326	0.391951	0.898811
	H96	H	0.405243	0.126773	0.579500
	H97	H	0.599616	0.890679	0.586264
	H98	H	0.591717	0.126292	0.390476
	H99	H	0.418829	0.894952	0.387274
	H100	H	0.583613	0.422152	0.095650
	H101	H	0.590476	0.606190	0.870925
	H102	H	0.416862	0.593152	0.098508
	H103	H	0.406961	0.408931	0.865700
	H104	H	0.114992	0.592175	0.400369
	H105	H	0.883491	0.599565	0.583373
	H106	H	0.121567	0.414183	0.579505
	H107	H	0.884988	0.416453	0.395306
	H108	H	0.919479	0.623747	0.085438
	H109	H	0.091045	0.393311	0.081294
	H110	H	0.095156	0.624740	0.894996
	H111	H	0.910778	0.389990	0.884392
	H112	H	0.092935	0.907916	0.603107
	H113	H	0.093651	0.104211	0.367867
	H114	H	0.912940	0.095941	0.599723
	H115	H	0.907153	0.920872	0.370207
	H116	H	0.620318	0.100498	0.891351
	H117	H	0.385241	0.099573	0.076364
	H118	H	0.615723	0.925168	0.073172
	H119	H	0.381817	0.909547	0.892229
	C120	C	0.380584	0.017196	0.607375
	C121	C	0.624330	1.000525	0.608547
	C122	C	0.622795	0.018471	0.364634
	C123	C	0.379498	1.000896	0.362868
	C124	C	0.624503	0.387273	-0.006495
	C125	C	0.625095	0.631442	0.978144
	C126	C	0.382195	0.631417	-0.005425
	C127	C	0.381839	0.387234	0.976918
	C128	C	0.011053	0.630263	0.363861
	C129	C	0.994110	0.629795	0.606572
	C130	C	0.011668	0.387555	0.607287
	C131	C	0.993817	0.388157	0.364394
	C132	C	0.882101	0.516693	0.106974
	C133	C	0.125741	0.499957	0.108574
	C134	C	0.124865	0.517488	0.864436
	C135	C	0.881554	0.500001	0.863582
	C136	C	0.122997	0.886913	0.493536
	C137	C	0.123382	0.131190	0.476971
	C138	C	0.880797	0.130642	0.493889
	C139	C	0.880133	0.886180	0.476850
	C140	C	0.511335	0.130932	0.863911
	C141	C	0.493415	0.131401	0.106555
	C142	C	0.511154	0.888932	0.108258
	C143	C	0.493765	0.889046	0.865561
	C144	C	0.381635	0.895417	0.664214
	C145	C	0.623663	0.122937	0.664104
	C146	C	0.621689	0.896413	0.308190
	C147	C	0.378713	0.123002	0.306830
	C148	C	0.680487	0.389095	0.871014
	C149	C	0.681825	0.628394	0.101094
	C150	C	0.325508	0.629449	0.871373
	C151	C	0.327849	0.390113	0.100367
	C152	C	0.887076	0.685112	0.364189
	C153	C	0.117460	0.687004	0.606187
	C154	C	0.888250	0.331044	0.606850
	C155	C	0.117476	0.332096	0.366394
	C156	C	0.888098	0.389167	0.663485
	C157	C	0.117529	0.629821	0.663749
	C158	C	0.887508	0.628117	0.306841
	C159	C	0.117860	0.389740	0.309854
	C160	C	0.381999	0.688260	0.871951
	C161	C	0.625907	0.688410	0.100264
	C162	C	0.624174	0.330025	0.871578
	C163	C	0.382790	0.330849	0.099455
	C164	C	0.677767	0.895391	0.366898
	C165	C	0.681343	0.122583	0.606760
	C166	C	0.325373	0.894497	0.605060
	C167	C	0.322780	0.123037	0.365459
	C168	C	0.883246	0.394420	0.162580
	C169	C	0.123430	0.622444	0.164132
	C170	C	0.124991	0.395610	0.807901
	C171	C	0.882319	0.622095	0.807375
	C172	C	0.177365	0.890421	0.369905
	C173	C	0.178766	0.126648	0.600740
	C174	C	0.824055	0.128212	0.370922
	C175	C	0.826699	0.889615	0.600671
	C176	C	0.387762	0.187063	0.864693
	C177	C	0.617860	0.185864	0.105063
	C178	C	0.387973	0.831952	0.106554
	C179	C	0.617545	0.833370	0.867230
	C180	C	0.386517	0.891987	0.161269
	C181	C	0.617039	0.129873	0.163445
	C182	C	0.387344	0.129489	0.808033
	C183	C	0.617320	0.890670	0.810032
	C184	C	0.880497	0.187359	0.371349
	C185	C	0.122742	0.186225	0.600170
	C186	C	0.121225	0.831470	0.370611
	C187	C	0.882079	0.829941	0.599499
	C188	C	0.180353	0.394767	0.867339
	C189	C	0.180936	0.622659	0.106107
	C190	C	0.826197	0.394340	0.105021
	C191	C	0.825400	0.622496	0.865097
	C192	C	0.403217	0.102498	0.584566
	C193	C	0.601337	0.915562	0.586219
	C194	C	0.600140	0.103422	0.387303
	C195	C	0.402879	0.915771	0.385095
	C196	C	0.601355	0.410128	0.078801
	C197	C	0.601219	0.609291	0.892461
	C198	C	0.405959	0.608764	0.080188
	C199	C	0.404367	0.409623	0.891223
	C200	C	0.097381	0.607872	0.387676
	C201	C	0.908029	0.606618	0.583507
	C202	C	0.097833	0.410117	0.584377
	C203	C	0.907459	0.411079	0.386586
	C204	C	0.904970	0.602011	0.084276
	C205	C	0.103826	0.414299	0.086599
	C206	C	0.101717	0.602677	0.887114
	C207	C	0.904725	0.414693	0.886496
	C208	C	0.100807	0.908904	0.579273
	C209	C	0.100332	0.109507	0.391375
	C210	C	0.904604	0.108026	0.579513
	C211	C	0.902162	0.908367	0.390876
	C212	C	0.597499	0.107899	0.887071
	C213	C	0.406899	0.109238	0.083479
	C214	C	0.597549	0.911830	0.085896
	C215	C	0.407286	0.911480	0.887931
	Zn216	Zn	0.502241	0.009218	0.736666
	Zn217	Zn	0.501571	0.010861	0.235430
	Zn218	Zn	0.753544	0.508748	-0.014111
	Zn219	Zn	0.254175	0.508747	-0.013819
	Zn220	Zn	0.001996	0.757774	0.484888
	Zn221	Zn	0.002172	0.260274	0.485407
	Zn222	Zn	0.003342	0.508961	0.735755
	Zn223	Zn	0.002807	0.508595	0.236310
	Zn224	Zn	0.503083	0.760946	-0.013572
	Zn225	Zn	0.502861	0.258597	-0.014311
	Zn226	Zn	0.751931	0.008560	0.485860
	Zn227	Zn	0.251844	0.008563	0.485116
	N228	N	0.415232	0.972784	0.665568
	N229	N	0.588772	0.046245	0.665282
	N230	N	0.588155	0.973911	0.306521
	N231	N	0.413147	0.046189	0.304932
	N232	N	0.680839	0.424058	0.947846
	N233	N	0.681654	0.593955	0.023917
	N234	N	0.325501	0.594734	0.948650
	N235	N	0.327131	0.424614	0.023167
	N236	N	0.964913	0.686611	0.398919
	N237	N	0.039585	0.687265	0.571437
	N238	N	0.966009	0.329681	0.572854
	N239	N	0.039181	0.330977	0.399702
	N240	N	0.965779	0.424015	0.663682
	N241	N	0.039984	0.595078	0.664170
	N242	N	0.965815	0.594916	0.306283
	N243	N	0.039926	0.423866	0.308577
	N244	N	0.416401	0.689716	0.949599
	N245	N	0.591421	0.690383	0.022779
	N246	N	0.589979	0.328931	0.948836
	N247	N	0.415878	0.328948	0.021748
	N248	N	0.678694	0.972232	0.401346
	N249	N	0.682119	0.045571	0.572979
	N250	N	0.324498	0.971281	0.570442
	N251	N	0.323071	0.046060	0.399692
	N252	N	0.917236	0.471624	0.163924
	N253	N	0.090160	0.545021	0.165873
	N254	N	0.091025	0.472940	0.806151
	N255	N	0.916387	0.545025	0.806338
	N256	N	0.178862	0.924156	0.447286
	N257	N	0.179382	0.092925	0.523248
	N258	N	0.824080	0.093774	0.448062
	N259	N	0.825131	0.923844	0.523216
	N260	N	0.465949	0.188189	0.898627
	N261	N	0.540032	0.186781	0.070558
	N262	N	0.466515	0.830084	0.074185
	N263	N	0.539664	0.832419	0.901103
	N264	N	0.464313	0.926529	0.162545
	N265	N	0.538553	0.096959	0.164546
	N266	N	0.465145	0.095059	0.807585
	N267	N	0.539304	0.924614	0.808941
	N268	N	0.914871	0.189094	0.449084
	N269	N	0.089313	0.189202	0.522427
	N270	N	0.088392	0.829035	0.448531
	N271	N	0.914135	0.827378	0.521379
	N272	N	0.180625	0.471509	0.901879
	N273	N	0.182553	0.545638	0.072294
	N274	N	0.825481	0.471355	0.070978
	N275	N	0.824580	0.545385	0.899181
	O276	O	-0.535988	-0.537678	0.433207
	H277	H	-0.540561	-0.535642	0.433406
	H278	H	-0.533217	-0.540279	0.429142
	O279	O	0.514573	0.491745	0.474997
	H280	H	0.515725	0.501398	0.493269
	H281	H	0.516225	0.487861	0.482111
	O282	O	0.470469	0.444144	0.513061
	H283	H	0.461525	0.440240	0.490956
	H284	H	0.488765	0.438157	0.514936
	O285	O	-0.047474	1.046182	1.012868
	H286	H	-0.037227	1.048645	1.013206
	H287	H	-0.050806	1.037544	1.008793
	O288	O	0.449837	0.601523	0.505030
	H289	H	0.445013	0.612796	0.494374
	H290	H	0.453758	0.594920	0.499578
	O291	O	0.987697	0.929976	1.008521
	H292	H	0.999750	0.937082	1.013079
	H293	H	0.992674	0.923449	1.006312
	O294	O	0.973484	0.950906	0.916929
	H295	H	0.968330	0.950556	0.907956
	H296	H	0.969719	0.949174	0.915127
	O297	O	1.013096	-0.062437	0.956487
	H298	H	1.004055	-0.056862	0.971422
	H299	H	1.009839	-0.069970	0.967141
	O300	O	0.512502	0.476302	0.427738
	H301	H	0.506499	0.468603	0.434509
	H302	H	0.516946	0.486062	0.429894
	O303	O	1.040034	-0.046412	0.014887
	H304	H	1.038319	-0.045285	0.017220
	H305	H	1.048702	-0.052762	0.008629
	O306	O	0.105051	0.924567	1.018687
	H307	H	0.101944	0.922297	1.022079
	H308	H	0.097832	0.928145	1.010479
	O309	O	0.393319	0.445154	0.608367
	H310	H	0.391233	0.447916	0.605202
	H311	H	0.407238	0.438716	0.604970
	O312	O	1.004717	0.053581	0.973176
	H313	H	1.005894	0.052311	0.977960
	H314	H	0.995156	0.053728	0.972016
	O315	O	0.423564	0.585306	0.479874
	H316	H	0.416431	0.578313	0.477908
	H317	H	0.408145	0.571640	0.479703
	O318	O	0.026959	0.000981	0.949819
	H319	H	0.024790	0.003514	0.948845
	H320	H	0.026694	-0.001785	0.954947
	O321	O	1.468877	0.543982	1.414481
	H322	H	1.461831	0.541988	1.413647
	H323	H	1.470047	0.548205	1.419172
	O324	O	0.465192	0.689764	0.458902
	H325	H	0.474883	0.695380	0.457985
	H326	H	0.473970	0.705968	0.453799
	O327	O	0.568169	0.615530	0.458206
	H328	H	0.573959	0.616184	0.471056
	H329	H	0.558954	0.617962	0.466891
	O330	O	0.575834	-0.537962	0.569698
	H331	H	0.568935	-0.534221	0.572872
	H332	H	0.570620	-0.532114	0.566709
	O333	O	0.999303	1.012226	-0.070307
	H334	H	0.995593	1.011274	-0.071146
	H335	H	0.997614	1.013480	-0.084131
	O336	O	0.641638	0.582900	0.639902
	H337	H	0.640960	0.578515	0.652217
	H338	H	0.632897	0.585354	0.634979
	O339	O	0.489975	0.340716	0.399249
	H340	H	0.493177	0.346349	0.388879
	H341	H	0.494978	0.331236	0.390426
	O342	O	0.466274	1.416812	0.512436
	H343	H	0.482397	1.421691	0.501340
	H344	H	0.467181	1.425886	0.515601
	O345	O	0.605978	0.660836	0.521933
	H346	H	0.599482	0.656705	0.542836
	H347	H	0.606002	0.669055	0.522272
	O348	O	0.514924	0.495240	0.497144
	H349	H	0.520303	0.491239	0.491516
	H350	H	0.519129	0.499490	0.502099
	O351	O	-0.413043	0.510967	0.334530
	H352	H	-0.413631	0.513262	0.315154
	H353	H	-0.406773	0.502143	0.342572
	O354	O	0.494092	0.403256	0.511541
	H355	H	0.502411	0.399945	0.509508
	H356	H	0.492721	0.409567	0.520225
	O357	O	0.389257	0.516913	0.568447
	H358	H	0.386644	0.508738	0.563320
	H359	H	0.379522	0.511357	0.567117
	O360	O	-0.047568	0.015358	0.038513
	H361	H	-0.056966	0.025716	0.043993
	H362	H	-0.047842	0.021354	0.031953
	O363	O	0.435634	0.437929	0.399797
	H364	H	0.426796	0.452336	0.390254
	H365	H	0.439859	0.439718	0.409878
	O366	O	-0.028513	-0.019299	1.029273
	H367	H	-0.016953	-0.017716	1.026758
	H368	H	-0.030044	-0.019525	1.026130
	O369	O	0.622696	0.454839	0.451746
	H370	H	0.617969	0.459327	0.457193
	H371	H	0.612084	0.441469	0.458348
