data_Molecule from HDF5

_cell_length_a		16.147291
_cell_length_b		16.269791
_cell_length_c		16.227457
_cell_angle_alpha	90.087376
_cell_angle_beta	90.497328
_cell_angle_gamma	89.639356
_symmetry_space_group_name_H-M	'P 1'
_symmetry_Int_Tables_number		1

loop_
	_symmetry_equiv_pos_as_xyz
	x,y,z

loop_
	_atom_site_label
	_atom_site_type_symbol
	_atom_site_fract_x
	_atom_site_fract_y
	_atom_site_fract_z
	H0	H	0.404598	0.843682	0.699882
	H1	H	0.602374	0.170262	0.702642
	H2	H	0.603188	0.844061	0.271041
	H3	H	0.400487	0.171198	0.269312
	H4	H	0.714228	0.408775	0.822353
	H5	H	0.716057	0.603900	0.151607
	H6	H	0.283705	0.606226	0.824056
	H7	H	0.293270	0.410955	0.153436
	H8	H	0.838261	0.723743	0.385488
	H9	H	0.167680	0.718031	0.587827
	H10	H	0.836649	0.293751	0.586346
	H11	H	0.166078	0.292506	0.390700
	H12	H	0.834801	0.412463	0.697449
	H13	H	0.166186	0.604740	0.704391
	H14	H	0.837613	0.607816	0.273036
	H15	H	0.166154	0.406468	0.275773
	H16	H	0.398389	0.722233	0.822891
	H17	H	0.603064	0.722321	0.150889
	H18	H	0.600910	0.291658	0.822256
	H19	H	0.404287	0.290307	0.150364
	H20	H	0.717064	0.843273	0.387910
	H21	H	0.717760	0.170513	0.586664
	H22	H	0.292562	0.842244	0.580204
	H23	H	0.285650	0.171008	0.385159
	H24	H	0.902850	0.343920	0.203515
	H25	H	0.100193	0.670899	0.205225
	H26	H	0.100960	0.344433	0.773933
	H27	H	0.898343	0.671048	0.772556
	H28	H	0.212679	0.909288	0.320515
	H29	H	0.218851	0.104571	0.650185
	H30	H	0.785968	0.106395	0.322478
	H31	H	0.791604	0.910195	0.650617
	H32	H	0.337943	0.222755	0.882979
	H33	H	0.666948	0.219216	0.085197
	H34	H	0.337800	0.794703	0.084778
	H35	H	0.665887	0.789825	0.887770
	H36	H	0.337649	0.909992	0.197848
	H37	H	0.666719	0.106557	0.201747
	H38	H	0.338113	0.106176	0.769845
	H39	H	0.667642	0.905979	0.773299
	H40	H	0.900606	0.222688	0.322880
	H41	H	0.104246	0.222014	0.650642
	H42	H	0.101527	0.790355	0.322801
	H43	H	0.906342	0.794384	0.651032
	H44	H	0.214568	0.342755	0.892100
	H45	H	0.216548	0.671052	0.090484
	H46	H	0.789284	0.342432	0.085502
	H47	H	0.784677	0.670560	0.889401
	H48	H	0.411062	0.125030	0.583260
	H49	H	0.596300	0.889470	0.583095
	H50	H	0.592473	0.126226	0.382455
	H51	H	0.419449	0.893201	0.389421
	H52	H	0.594877	0.410826	0.104625
	H53	H	0.596629	0.599112	0.867582
	H54	H	0.407039	0.600483	0.105509
	H55	H	0.410563	0.420150	0.872418
	H56	H	0.123024	0.598445	0.390641
	H57	H	0.887570	0.602315	0.569038
	H58	H	0.119728	0.413197	0.587314
	H59	H	0.886005	0.412609	0.406913
	H60	H	0.119690	0.410275	0.579179
	H61	H	0.884459	0.593890	0.587113
	H62	H	0.120159	0.604475	0.400926
	H63	H	0.886387	0.427265	0.391759
	H64	H	0.413460	0.600402	0.103245
	H65	H	0.590749	0.594842	0.872054
	H66	H	0.598966	0.410589	0.105123
	H67	H	0.411010	0.409094	0.869479
	H68	H	0.584541	0.119771	0.399744
	H69	H	0.596095	0.890778	0.577952
	H70	H	0.413732	0.122010	0.574841
	H71	H	0.403604	0.891598	0.399490
	H72	H	0.915619	0.620882	0.078025
	H73	H	0.094809	0.393216	0.073248
	H74	H	0.092104	0.628001	0.885110
	H75	H	0.906142	0.390119	0.896707
	H76	H	0.099104	0.903672	0.605523
	H77	H	0.088409	0.108934	0.367587
	H78	H	0.910970	0.104512	0.604281
	H79	H	0.912120	0.917575	0.370887
	H80	H	0.620002	0.099392	0.896136
	H81	H	0.381756	0.110801	0.074854
	H82	H	0.622046	0.911440	0.083614
	H83	H	0.382746	0.907579	0.893893
	H84	H	0.619948	0.910392	0.075043
	H85	H	0.388844	0.093496	0.069001
	H86	H	0.620611	0.098175	0.893296
	H87	H	0.387671	0.921212	0.896712
	H88	H	0.908179	0.099358	0.603806
	H89	H	0.101295	0.099131	0.367393
	H90	H	0.106230	0.915925	0.604773
	H91	H	0.911468	0.909574	0.368631
	H92	H	0.082916	0.619939	0.901839
	H93	H	0.105143	0.386949	0.085716
	H94	H	0.901662	0.624949	0.076147
	H95	H	0.907373	0.388815	0.887939
	H96	H	0.404987	0.124980	0.575876
	H97	H	0.600637	0.889476	0.579378
	H98	H	0.603856	0.126825	0.399302
	H99	H	0.404332	0.886495	0.381966
	H100	H	0.597034	0.413582	0.103455
	H101	H	0.588859	0.603614	0.870529
	H102	H	0.410916	0.606760	0.105714
	H103	H	0.401084	0.415346	0.868861
	H104	H	0.117043	0.593075	0.399771
	H105	H	0.879097	0.612889	0.584203
	H106	H	0.117520	0.418557	0.581002
	H107	H	0.878911	0.408278	0.387496
	H108	H	0.908056	0.625543	0.089217
	H109	H	0.088050	0.391102	0.089020
	H110	H	0.102306	0.625130	0.903117
	H111	H	0.913920	0.391672	0.893202
	H112	H	0.093023	0.915760	0.600935
	H113	H	0.087871	0.094225	0.372686
	H114	H	0.914171	0.100055	0.602886
	H115	H	0.905533	0.914175	0.367688
	H116	H	0.621469	0.101458	0.893139
	H117	H	0.382312	0.096170	0.087070
	H118	H	0.619091	0.919068	0.078543
	H119	H	0.382872	0.917472	0.883755
	C120	C	0.381836	0.015737	0.606156
	C121	C	0.625278	0.998642	0.608605
	C122	C	0.623149	0.016125	0.365018
	C123	C	0.379646	0.998796	0.361940
	C124	C	0.624602	0.383568	-0.004437
	C125	C	0.622295	0.628122	0.978344
	C126	C	0.379231	0.630477	-0.003731
	C127	C	0.380812	0.385758	0.978989
	C128	C	0.011184	0.628484	0.366963
	C129	C	0.992978	0.629749	0.609655
	C130	C	0.009823	0.386103	0.609785
	C131	C	0.992689	0.386196	0.367075
	C132	C	0.880354	0.515464	0.109253
	C133	C	0.124438	0.498728	0.112083
	C134	C	0.122052	0.516075	0.867768
	C135	C	0.878936	0.498595	0.864748
	C136	C	0.125671	0.884282	0.494838
	C137	C	0.123262	0.128866	0.477627
	C138	C	0.880414	0.129808	0.495411
	C139	C	0.881902	0.885595	0.477420
	C140	C	0.511556	0.128751	0.864032
	C141	C	0.493194	0.128456	0.106859
	C142	C	0.511118	0.886385	0.106866
	C143	C	0.493387	0.885706	0.864232
	C144	C	0.384506	0.892452	0.661542
	C145	C	0.622547	0.121433	0.664341
	C146	C	0.622505	0.892946	0.309231
	C147	C	0.380643	0.121955	0.306724
	C148	C	0.677773	0.387493	0.871481
	C149	C	0.678564	0.625322	0.102184
	C150	C	0.321898	0.627170	0.873121
	C151	C	0.328798	0.389182	0.103550
	C152	C	0.887377	0.685054	0.366936
	C153	C	0.117893	0.682278	0.608354
	C154	C	0.885731	0.331493	0.606409
	C155	C	0.116687	0.329977	0.370018
	C156	C	0.884908	0.390680	0.661779
	C157	C	0.117010	0.625848	0.666198
	C158	C	0.886950	0.627406	0.310737
	C159	C	0.116707	0.386872	0.312851
	C160	C	0.379152	0.684995	0.872504
	C161	C	0.622304	0.684225	0.101745
	C162	C	0.621187	0.329256	0.871557
	C163	C	0.383882	0.329203	0.101910
	C164	C	0.679005	0.892450	0.367609
	C165	C	0.679812	0.121713	0.606566
	C166	C	0.328823	0.891760	0.602031
	C167	C	0.323569	0.121967	0.364526
	C168	C	0.882775	0.392489	0.164862
	C169	C	0.121046	0.621921	0.167409
	C170	C	0.120424	0.392979	0.812274
	C171	C	0.879253	0.621954	0.810441
	C172	C	0.177095	0.887978	0.370299
	C173	C	0.180483	0.125646	0.601058
	C174	C	0.824339	0.126880	0.371693
	C175	C	0.828502	0.889248	0.601585
	C176	C	0.387252	0.184304	0.864302
	C177	C	0.617538	0.182502	0.105353
	C178	C	0.386951	0.832424	0.104375
	C179	C	0.617151	0.828500	0.867210
	C180	C	0.387093	0.889542	0.160959
	C181	C	0.617187	0.126558	0.163736
	C182	C	0.387227	0.126453	0.807776
	C183	C	0.617957	0.886335	0.810606
	C184	C	0.880929	0.185184	0.371942
	C185	C	0.123517	0.183953	0.601433
	C186	C	0.121992	0.828353	0.371702
	C187	C	0.885554	0.831631	0.601696
	C188	C	0.177276	0.392232	0.870932
	C189	C	0.178859	0.621882	0.110168
	C190	C	0.826557	0.391646	0.105814
	C191	C	0.822702	0.621998	0.868404
	C192	C	0.403616	0.101709	0.584263
	C193	C	0.603901	0.912308	0.586508
	C194	C	0.600154	0.102052	0.387327
	C195	C	0.402417	0.912750	0.383846
	C196	C	0.603172	0.405274	0.081996
	C197	C	0.598986	0.605792	0.892403
	C198	C	0.403489	0.608843	0.082464
	C199	C	0.401589	0.408177	0.892738
	C200	C	0.097749	0.605372	0.390251
	C201	C	0.906173	0.609169	0.586871
	C202	C	0.096671	0.407552	0.588679
	C203	C	0.905995	0.409286	0.388973
	C204	C	0.902101	0.601578	0.087540
	C205	C	0.102469	0.412580	0.089384
	C206	C	0.099184	0.602084	0.890162
	C207	C	0.902127	0.412685	0.886397
	C208	C	0.105591	0.905669	0.581612
	C209	C	0.099174	0.107203	0.391632
	C210	C	0.904011	0.107688	0.581436
	C211	C	0.903323	0.907288	0.391401
	C212	C	0.598155	0.106274	0.887262
	C213	C	0.406526	0.106499	0.083763
	C214	C	0.598019	0.907473	0.085365
	C215	C	0.406924	0.908757	0.885287
	Zn216	Zn	0.503259	0.007193	0.736609
	Zn217	Zn	0.501978	0.007528	0.234626
	Zn218	Zn	0.751559	0.506521	-0.013040
	Zn219	Zn	0.251701	0.507467	-0.010632
	Zn220	Zn	0.003314	0.756544	0.487203
	Zn221	Zn	0.001263	0.257989	0.487614
	Zn222	Zn	0.000529	0.508125	0.737500
	Zn223	Zn	0.001690	0.506898	0.239284
	Zn224	Zn	0.501828	0.758222	-0.013758
	Zn225	Zn	0.501803	0.256298	-0.013914
	Zn226	Zn	0.753262	0.007176	0.486193
	Zn227	Zn	0.252352	0.006905	0.484411
	N228	N	0.416696	0.970584	0.664317
	N229	N	0.589649	0.043670	0.665979
	N230	N	0.588081	0.970644	0.307702
	N231	N	0.415044	0.044461	0.305263
	N232	N	0.680185	0.420573	0.949670
	N233	N	0.678571	0.591070	0.024598
	N234	N	0.321708	0.594266	0.951069
	N235	N	0.326700	0.423623	0.026127
	N236	N	0.965499	0.685900	0.401301
	N237	N	0.039809	0.684900	0.573801
	N238	N	0.964508	0.328380	0.574782
	N239	N	0.038482	0.329555	0.403029
	N240	N	0.963010	0.423947	0.663999
	N241	N	0.038421	0.593866	0.667085
	N242	N	0.965036	0.592767	0.310668
	N243	N	0.038468	0.421064	0.310778
	N244	N	0.414057	0.687497	0.950360
	N245	N	0.587772	0.686243	0.023801
	N246	N	0.588825	0.326939	0.949514
	N247	N	0.415460	0.326954	0.023508
	N248	N	0.679952	0.970093	0.401364
	N249	N	0.681788	0.044126	0.572756
	N250	N	0.326732	0.969475	0.568367
	N251	N	0.322573	0.044225	0.397986
	N252	N	0.915421	0.470295	0.167085
	N253	N	0.088183	0.544175	0.168839
	N254	N	0.086738	0.471037	0.810083
	N255	N	0.913167	0.544350	0.807895
	N256	N	0.179493	0.921871	0.447822
	N257	N	0.180634	0.092168	0.523052
	N258	N	0.823781	0.093324	0.449462
	N259	N	0.825908	0.922040	0.523442
	N260	N	0.465379	0.185849	0.898710
	N261	N	0.539538	0.183667	0.070775
	N262	N	0.465138	0.830125	0.071578
	N263	N	0.538630	0.827541	0.899520
	N264	N	0.465493	0.922293	0.162765
	N265	N	0.538770	0.093708	0.164735
	N266	N	0.465586	0.092574	0.807552
	N267	N	0.539967	0.921053	0.808480
	N268	N	0.915221	0.187049	0.450011
	N269	N	0.088631	0.186203	0.523856
	N270	N	0.090664	0.825961	0.450307
	N271	N	0.918010	0.829044	0.523631
	N272	N	0.178285	0.469750	0.904808
	N273	N	0.181095	0.544093	0.076557
	N274	N	0.824777	0.469263	0.071862
	N275	N	0.822254	0.544208	0.901560
	O276	O	-0.550218	-0.495189	0.406924
	H277	H	-0.547925	-0.491750	0.401088
	H278	H	-0.551688	-0.483850	0.407222
	O279	O	0.527445	0.478225	0.383911
	H280	H	0.527288	0.481607	0.388049
	H281	H	0.521688	0.479505	0.385069
	O282	O	0.450940	0.493992	0.481207
	H283	H	0.448640	0.488599	0.481701
	H284	H	0.458831	0.501854	0.480740
	O285	O	-0.040643	1.023771	0.964920
	H286	H	-0.058975	1.019260	0.963128
	H287	H	-0.039364	1.024923	0.961155
	O288	O	0.517211	0.491529	0.481494
	H289	H	0.530123	0.488240	0.485660
	H290	H	0.506770	0.498519	0.477530
	O291	O	0.982663	1.003302	1.000765
	H292	H	0.990415	1.001272	1.006932
	H293	H	0.975695	1.001728	0.999048
	O294	O	1.138113	0.903268	0.862387
	H295	H	1.148663	0.902339	0.851525
	H296	H	1.128735	0.919318	0.859194
	O297	O	1.002797	-0.076217	0.935103
	H298	H	1.001814	-0.074814	0.928962
	H299	H	1.009778	-0.073358	0.929536
	O300	O	0.477414	0.506793	0.468753
	H301	H	0.479651	0.511114	0.460854
	H302	H	0.467116	0.502206	0.462585
	O303	O	1.102284	0.016267	0.033034
	H304	H	1.108780	0.008474	0.017050
	H305	H	1.089348	0.010624	0.034214
	O306	O	0.063091	1.027898	0.890842
	H307	H	0.068251	1.036793	0.891514
	H308	H	0.054519	1.027388	0.892815
	O309	O	0.617131	0.422401	0.431435
	H310	H	0.611255	0.418064	0.425159
	H311	H	0.615238	0.408476	0.429833
	O312	O	1.098536	0.063239	0.998311
	H313	H	1.104080	0.068560	0.999253
	H314	H	1.094460	0.056070	1.004911
	O315	O	0.391155	0.529290	0.468651
	H316	H	0.387490	0.530988	0.472721
	H317	H	0.399403	0.520531	0.472253
	O318	O	-0.048183	-0.033857	0.897534
	H319	H	-0.053684	-0.026132	0.896129
	H320	H	-0.057742	-0.014517	0.893839
	O321	O	1.030625	0.959422	0.989686
	H322	H	1.031090	0.962172	0.984609
	H323	H	1.035149	0.946404	0.985266
	O324	O	0.577050	0.558344	0.467224
	H325	H	0.583001	0.570598	0.464496
	H326	H	0.574556	0.545750	0.467127
	O327	O	0.452698	0.466838	0.549798
	H328	H	0.456080	0.460926	0.547646
	H329	H	0.453405	0.485664	0.549575
	O330	O	0.953403	-0.012476	1.043551
	H331	H	0.948192	-0.022419	1.041103
	H332	H	0.970058	-0.023105	1.043539
	O333	O	0.966969	0.965121	0.011479
	H334	H	0.966070	0.954780	0.013031
	H335	H	0.972395	0.969397	0.016792
	O336	O	0.547077	0.472579	0.619229
	H337	H	0.560041	0.483602	0.620197
	H338	H	0.544407	0.474707	0.621306
	O339	O	0.552880	0.612123	0.482960
	H340	H	0.556821	0.614596	0.488508
	H341	H	0.549835	0.602802	0.488357
	O342	O	0.568531	1.602847	0.552400
	H343	H	0.574854	1.611834	0.558056
	H344	H	0.557266	1.593447	0.547885
	O345	O	-0.060718	0.126289	-0.078483
	H346	H	-0.049999	0.123884	-0.071383
	H347	H	-0.052866	0.112531	-0.076157
	O348	O	0.476639	0.591712	0.470351
	H349	H	0.490744	0.591888	0.464274
	H350	H	0.469683	0.598603	0.458299
	O351	O	-0.051856	0.112953	0.999859
	H352	H	-0.049665	0.121788	1.001116
	H353	H	-0.049822	0.114967	1.000686
	O354	O	0.478418	0.468736	0.507755
	H355	H	0.471437	0.475203	0.513295
	H356	H	0.488317	0.461002	0.522377
	O357	O	0.481855	0.502882	0.631741
	H358	H	0.489208	0.506615	0.638816
	H359	H	0.482190	0.507999	0.633058
	O360	O	0.021448	-0.073222	-0.022304
	H361	H	0.018812	-0.076589	-0.028567
	H362	H	0.031782	-0.065809	-0.024917
	O363	O	0.421158	0.516187	0.454533
	H364	H	0.423212	0.509606	0.443870
	H365	H	0.407225	0.507222	0.450756
	O366	O	-0.070156	0.067318	0.989957
	H367	H	-0.071039	0.075543	0.986803
	H368	H	-0.070248	0.065052	0.984827
	O369	O	0.586648	0.445022	0.488202
	H370	H	0.589060	0.431713	0.468216
	H371	H	0.576056	0.434332	0.504287
