data_Molecule from HDF5

_cell_length_a		16.417798
_cell_length_b		16.730109
_cell_length_c		16.599626
_cell_angle_alpha	90.057992
_cell_angle_beta	90.115702
_cell_angle_gamma	90.036216
_symmetry_space_group_name_H-M	'P 1'
_symmetry_Int_Tables_number		1

loop_
	_symmetry_equiv_pos_as_xyz
	x,y,z

loop_
	_atom_site_label
	_atom_site_type_symbol
	_atom_site_fract_x
	_atom_site_fract_y
	_atom_site_fract_z
	H0	H	0.379726	0.835478	0.720318
	H1	H	0.580670	0.150001	0.721019
	H2	H	0.587279	0.838578	0.278740
	H3	H	0.372055	0.146699	0.279545
	H4	H	0.702157	0.387137	0.848792
	H5	H	0.704467	0.599758	0.159035
	H6	H	0.264151	0.591934	0.844352
	H7	H	0.260079	0.389965	0.160278
	H8	H	0.822603	0.714671	0.395918
	H9	H	0.137030	0.712864	0.607507
	H10	H	0.822329	0.273196	0.606310
	H11	H	0.136392	0.271179	0.395747
	H12	H	0.822903	0.389195	0.722530
	H13	H	0.137208	0.596328	0.722015
	H14	H	0.822251	0.599004	0.280861
	H15	H	0.138296	0.390058	0.284401
	H16	H	0.376492	0.712289	0.846426
	H17	H	0.590286	0.717475	0.157681
	H18	H	0.587430	0.269689	0.849686
	H19	H	0.372495	0.270067	0.158251
	H20	H	0.700630	0.836503	0.398527
	H21	H	0.697124	0.150520	0.602504
	H22	H	0.263437	0.834769	0.602671
	H23	H	0.258495	0.148635	0.399581
	H24	H	0.870291	0.339794	0.229374
	H25	H	0.087919	0.647630	0.226639
	H26	H	0.087937	0.340672	0.778769
	H27	H	0.869755	0.644579	0.777974
	H28	H	0.201886	0.887055	0.346952
	H29	H	0.195666	0.093739	0.660749
	H30	H	0.755001	0.098953	0.346793
	H31	H	0.760991	0.890627	0.660401
	H32	H	0.323045	0.213864	0.897572
	H33	H	0.635632	0.217865	0.112950
	H34	H	0.323534	0.770106	0.111150
	H35	H	0.639189	0.774002	0.900660
	H36	H	0.322278	0.887461	0.224547
	H37	H	0.635313	0.102848	0.229102
	H38	H	0.321640	0.094916	0.785343
	H39	H	0.640037	0.892343	0.788035
	H40	H	0.867048	0.219125	0.348297
	H41	H	0.086167	0.215167	0.656886
	H42	H	0.087836	0.768602	0.347817
	H43	H	0.872879	0.770187	0.658111
	H44	H	0.201711	0.338685	0.898319
	H45	H	0.199676	0.649429	0.105939
	H46	H	0.755930	0.338079	0.110791
	H47	H	0.755060	0.645082	0.895812
	H48	H	0.387035	0.107079	0.602480
	H49	H	0.569407	0.880448	0.598155
	H50	H	0.559836	0.101907	0.410995
	H51	H	0.396001	0.884852	0.415292
	H52	H	0.571009	0.404602	0.116515
	H53	H	0.558245	0.586625	0.894148
	H54	H	0.390165	0.582303	0.116020
	H55	H	0.392626	0.412494	0.895554
	H56	H	0.092005	0.580627	0.414531
	H57	H	0.866401	0.580061	0.591389
	H58	H	0.097782	0.397002	0.598693
	H59	H	0.867338	0.400633	0.421207
	H60	H	0.091533	0.398551	0.580236
	H61	H	0.865264	0.583566	0.591195
	H62	H	0.092643	0.582892	0.416563
	H63	H	0.869873	0.411516	0.416510
	H64	H	0.393507	0.585765	0.115572
	H65	H	0.574224	0.585818	0.887988
	H66	H	0.564794	0.410160	0.112350
	H67	H	0.400033	0.395541	0.892171
	H68	H	0.564002	0.098191	0.423246
	H69	H	0.572046	0.880228	0.594891
	H70	H	0.392681	0.103051	0.594855
	H71	H	0.388135	0.883155	0.417349
	H72	H	0.893352	0.602827	0.092806
	H73	H	0.068527	0.384987	0.086367
	H74	H	0.069386	0.604659	0.913721
	H75	H	0.892888	0.382607	0.917435
	H76	H	0.062996	0.900423	0.612671
	H77	H	0.066230	0.083212	0.389915
	H78	H	0.895816	0.083045	0.611552
	H79	H	0.892384	0.902495	0.391544
	H80	H	0.593947	0.085369	0.914839
	H81	H	0.368814	0.079429	0.091302
	H82	H	0.593015	0.905444	0.094379
	H83	H	0.367478	0.903688	0.916329
	H84	H	0.591945	0.902282	0.087481
	H85	H	0.367827	0.082821	0.088426
	H86	H	0.594214	0.082911	0.915617
	H87	H	0.364777	0.903064	0.908100
	H88	H	0.890425	0.087732	0.615634
	H89	H	0.068849	0.081679	0.389604
	H90	H	0.070889	0.896750	0.616843
	H91	H	0.892542	0.905540	0.392529
	H92	H	0.071812	0.606135	0.910955
	H93	H	0.077041	0.378665	0.096713
	H94	H	0.896420	0.600840	0.090366
	H95	H	0.891173	0.381133	0.913069
	H96	H	0.382445	0.105334	0.593340
	H97	H	0.573343	0.879311	0.598369
	H98	H	0.572762	0.104247	0.415057
	H99	H	0.391077	0.880963	0.410002
	H100	H	0.561654	0.401736	0.115149
	H101	H	0.567351	0.572674	0.895661
	H102	H	0.389200	0.586546	0.116987
	H103	H	0.382072	0.399271	0.887339
	H104	H	0.091346	0.580615	0.417933
	H105	H	0.866507	0.581994	0.587790
	H106	H	0.090603	0.414080	0.592811
	H107	H	0.864398	0.403602	0.409626
	H108	H	0.891887	0.601819	0.088949
	H109	H	0.062976	0.382636	0.099966
	H110	H	0.068660	0.605406	0.910011
	H111	H	0.895811	0.382684	0.913258
	H112	H	0.071140	0.906058	0.614213
	H113	H	0.065868	0.080147	0.390962
	H114	H	0.888114	0.080593	0.613440
	H115	H	0.894693	0.903980	0.392445
	H116	H	0.594017	0.083421	0.912896
	H117	H	0.370583	0.078967	0.087167
	H118	H	0.590259	0.909615	0.088124
	H119	H	0.365350	0.896018	0.912966
	C120	C	0.357542	0.000903	0.626004
	C121	C	0.601733	0.984366	0.625916
	C122	C	0.599949	0.000095	0.382494
	C123	C	0.358283	0.984688	0.381724
	C124	C	0.599991	0.372271	0.012428
	C125	C	0.601649	0.614492	0.995081
	C126	C	0.359369	0.614972	0.011946
	C127	C	0.358511	0.370999	0.994649
	C128	C	-0.011843	0.613935	0.382537
	C129	C	0.970328	0.613993	0.623330
	C130	C	-0.011026	0.371976	0.622610
	C131	C	0.971138	0.372890	0.382605
	C132	C	0.859068	0.500633	0.124939
	C133	C	0.101822	0.484915	0.125542
	C134	C	0.101962	0.502712	0.880352
	C135	C	0.859023	0.483551	0.881613
	C136	C	0.101691	0.869420	0.511741
	C137	C	0.099044	0.112747	0.493997
	C138	C	0.857464	0.115521	0.510660
	C139	C	0.859570	0.871804	0.494875
	C140	C	0.489320	0.114606	0.882627
	C141	C	0.471913	0.114532	0.123998
	C142	C	0.487943	0.872646	0.123303
	C143	C	0.471504	0.871373	0.882661
	C144	C	0.359746	0.882630	0.681788
	C145	C	0.600654	0.103234	0.681989
	C146	C	0.604124	0.884462	0.320312
	C147	C	0.354907	0.100953	0.320917
	C148	C	0.661904	0.368927	0.895634
	C149	C	0.663620	0.617502	0.112034
	C150	C	0.302218	0.612840	0.892395
	C151	C	0.299271	0.370583	0.112822
	C152	C	0.869909	0.674619	0.378460
	C153	C	0.089506	0.673157	0.625745
	C154	C	0.869729	0.312950	0.624568
	C155	C	0.089167	0.311751	0.378548
	C156	C	0.869776	0.370718	0.681948
	C157	C	0.089263	0.615463	0.682988
	C158	C	0.869836	0.616867	0.321182
	C159	C	0.090218	0.370986	0.323105
	C160	C	0.358045	0.672627	0.893315
	C161	C	0.606973	0.676421	0.111361
	C162	C	0.604950	0.310476	0.895987
	C163	C	0.355132	0.310916	0.111875
	C164	C	0.660664	0.883547	0.379834
	C165	C	0.658307	0.103210	0.623198
	C166	C	0.301935	0.882145	0.623178
	C167	C	0.298152	0.101701	0.380186
	C168	C	0.853955	0.385560	0.187452
	C169	C	0.105090	0.601214	0.185816
	C170	C	0.105361	0.386441	0.819805
	C171	C	0.852965	0.598565	0.818916
	C172	C	0.162112	0.867813	0.393915
	C173	C	0.157482	0.113294	0.612600
	C174	C	0.795488	0.117604	0.393716
	C175	C	0.799985	0.870843	0.612918
	C176	C	0.370242	0.173607	0.880038
	C177	C	0.588808	0.177066	0.129866
	C178	C	0.370379	0.811006	0.127685
	C179	C	0.591492	0.813610	0.882049
	C180	C	0.369854	0.869437	0.184306
	C181	C	0.588558	0.119750	0.187675
	C182	C	0.369701	0.114660	0.823993
	C183	C	0.591975	0.872366	0.826055
	C184	C	0.851235	0.177455	0.394490
	C185	C	0.102962	0.173881	0.610616
	C186	C	0.105316	0.809026	0.394291
	C187	C	0.855862	0.811280	0.611860
	C188	C	0.162087	0.385672	0.879061
	C189	C	0.161069	0.602279	0.126081
	C190	C	0.796792	0.384693	0.128478
	C191	C	0.796011	0.598833	0.877828
	C192	C	0.380513	0.083747	0.603362
	C193	C	0.578553	0.901655	0.603630
	C194	C	0.573316	0.080492	0.408837
	C195	C	0.384423	0.903984	0.406841
	C196	C	0.573322	0.398231	0.093559
	C197	C	0.574449	0.588945	0.913955
	C198	C	0.383689	0.591719	0.094637
	C199	C	0.384140	0.395450	0.912852
	C200	C	0.070611	0.588564	0.408935
	C201	C	0.887554	0.589032	0.597489
	C202	C	0.071743	0.396375	0.597798
	C203	C	0.888618	0.398020	0.408288
	C204	C	0.886102	0.581035	0.098326
	C205	C	0.076780	0.403201	0.101122
	C206	C	0.077035	0.584152	0.904664
	C207	C	0.885880	0.402990	0.907320
	C208	C	0.075888	0.894171	0.593268
	C209	C	0.074005	0.088554	0.411731
	C210	C	0.883988	0.090796	0.592282
	C211	C	0.885838	0.897001	0.413254
	C212	C	0.572489	0.090608	0.907491
	C213	C	0.390292	0.087960	0.096868
	C214	C	0.570257	0.898582	0.097335
	C215	C	0.387703	0.894155	0.905848
	Zn216	Zn	0.480367	-0.007433	0.755477
	Zn217	Zn	0.479628	-0.006837	0.251705
	Zn218	Zn	0.729457	0.492092	0.003349
	Zn219	Zn	0.230225	0.493803	0.003590
	Zn220	Zn	-0.020633	0.742245	0.502851
	Zn221	Zn	-0.020833	0.243390	0.501626
	Zn222	Zn	-0.020216	0.492644	0.751477
	Zn223	Zn	-0.019730	0.493249	0.254573
	Zn224	Zn	0.480648	0.743674	0.003354
	Zn225	Zn	0.479874	0.242616	0.003630
	Zn226	Zn	0.730508	-0.007600	0.502710
	Zn227	Zn	0.228910	-0.007793	0.503028
	N228	N	0.393259	0.957728	0.683934
	N229	N	0.566770	0.028078	0.684286
	N230	N	0.567118	0.957980	0.321709
	N231	N	0.391508	0.027215	0.321540
	N232	N	0.658759	0.406644	0.968977
	N233	N	0.660543	0.579717	0.038622
	N234	N	0.302704	0.577887	0.967263
	N235	N	0.300883	0.407265	0.038844
	N236	N	0.944668	0.673010	0.415685
	N237	N	0.014211	0.672566	0.589485
	N238	N	0.944853	0.313354	0.588676
	N239	N	0.013965	0.312544	0.414638
	N240	N	0.945068	0.406549	0.681016
	N241	N	0.014037	0.579644	0.681872
	N242	N	0.944572	0.580025	0.323356
	N243	N	0.015695	0.408233	0.325365
	N244	N	0.392586	0.674339	0.968788
	N245	N	0.568964	0.674704	0.037677
	N246	N	0.567094	0.312382	0.969600
	N247	N	0.391073	0.311115	0.037300
	N248	N	0.658122	0.956315	0.417911
	N249	N	0.659378	0.028294	0.589441
	N250	N	0.300185	0.956949	0.589595
	N251	N	0.300000	0.028548	0.417369
	N252	N	0.891754	0.458688	0.185471
	N253	N	0.069303	0.526995	0.185850
	N254	N	0.068951	0.460251	0.820328
	N255	N	0.891585	0.525931	0.821283
	N256	N	0.159853	0.904899	0.467845
	N257	N	0.155425	0.075934	0.538853
	N258	N	0.799281	0.079707	0.466976
	N259	N	0.802343	0.908058	0.539154
	N260	N	0.445875	0.174131	0.915508
	N261	N	0.515024	0.174037	0.091029
	N262	N	0.445127	0.812828	0.090476
	N263	N	0.515618	0.812875	0.916616
	N264	N	0.444073	0.907176	0.181718
	N265	N	0.514809	0.081326	0.183928
	N266	N	0.444911	0.078757	0.825352
	N267	N	0.516254	0.907290	0.825928
	N268	N	0.889274	0.176121	0.468336
	N269	N	0.067439	0.174075	0.535698
	N270	N	0.068419	0.809795	0.468439
	N271	N	0.892032	0.811748	0.537312
	N272	N	0.160410	0.459056	0.916149
	N273	N	0.159528	0.528834	0.089505
	N274	N	0.799769	0.457562	0.090301
	N275	N	0.799522	0.526254	0.916168
	O276	O	0.449095	0.712698	-0.474254
	H277	H	0.449166	0.702300	-0.476392
	H278	H	0.456714	0.714252	-0.457069
	O279	O	0.445330	0.518406	0.476223
	H280	H	0.434432	0.505870	0.464861
	H281	H	0.445835	0.514050	0.486743
	O282	O	0.666098	0.304494	0.694473
	H283	H	0.640669	0.321439	0.678806
	H284	H	0.653041	0.324596	0.675986
	O285	O	1.153312	-0.050057	1.041610
	H286	H	1.153980	-0.017891	1.040647
	H287	H	1.153721	-0.054885	1.063555
	O288	O	0.299383	0.629828	0.610597
	H289	H	0.298403	0.611301	0.601967
	H290	H	0.319638	0.634385	0.601812
	O291	O	0.264938	0.290366	0.532735
	H292	H	0.251830	0.286895	0.539229
	H293	H	0.258207	0.287149	0.549939
	O294	O	0.955254	-0.228604	1.226135
	H295	H	0.936083	-0.231918	1.231267
	H296	H	0.952706	-0.241642	1.235542
	O297	O	0.488756	0.388924	0.505226
	H298	H	0.470391	0.387284	0.494968
	H299	H	0.491644	0.393334	0.505073
	O300	O	-0.041962	0.220859	0.780116
	H301	H	-0.060827	0.244439	0.752524
	H302	H	-0.070749	0.208284	0.777047
	O303	O	0.434895	0.280357	0.701942
	H304	H	0.444257	0.284412	0.721437
	H305	H	0.431421	0.288354	0.705112
	O306	O	1.010717	1.065948	-0.199503
	H307	H	1.001524	1.071436	-0.215336
	H308	H	1.016239	1.065373	-0.190289
	O309	O	0.448045	0.335963	0.467555
	H310	H	0.451113	0.337166	0.477682
	H311	H	0.432294	0.338044	0.487511
	O312	O	0.884652	0.950027	0.838870
	H313	H	0.906962	0.963659	0.822195
	H314	H	0.879220	0.966744	0.837160
	O315	O	0.469607	0.583292	0.717435
	H316	H	0.464962	0.597454	0.720218
	H317	H	0.454191	0.585164	0.717293
	O318	O	0.299739	0.311293	0.327695
	H319	H	0.314419	0.321162	0.335509
	H320	H	0.288497	0.296989	0.321735
	O321	O	-0.176991	1.119968	1.169690
	H322	H	-0.181117	1.098040	1.163217
	H323	H	-0.164603	1.103767	1.164513
	O324	O	0.762828	0.965830	0.225434
	H325	H	0.750765	0.955248	0.226104
	H326	H	0.748380	0.947213	0.230739
	O327	O	0.112364	-0.214347	1.143591
	H328	H	0.123791	-0.229725	1.168778
	H329	H	0.109326	-0.193624	1.154581
	O330	O	0.782314	0.793822	0.203311
	H331	H	0.765686	0.774603	0.206865
	H332	H	0.789453	0.802655	0.188568
	O333	O	0.345814	0.444809	0.552409
	H334	H	0.336210	0.429186	0.537250
	H335	H	0.335949	0.428245	0.561993
	O336	O	0.979781	-0.163286	0.054419
	H337	H	0.997419	-0.164902	0.067721
	H338	H	0.990786	-0.159305	0.058035
	O339	O	1.475571	0.684089	0.354860
	H340	H	1.479074	0.670731	0.364259
	H341	H	1.486927	0.688808	0.357455
	O342	O	-0.205061	-0.195637	-0.171822
	H343	H	-0.189548	-0.195012	-0.143661
	H344	H	-0.186971	-0.175383	-0.157776
	O345	O	0.190223	1.178191	1.216268
	H346	H	0.161130	1.171181	1.212799
	H347	H	0.190699	1.160333	1.215325
	O348	O	0.689134	0.518160	0.717193
	H349	H	0.712543	0.527533	0.716950
	H350	H	0.695818	0.556930	0.723016
	O351	O	0.305803	0.496870	0.456503
	H352	H	0.316413	0.491996	0.442146
	H353	H	0.296471	0.497848	0.443107
	O354	O	-0.229200	-0.222234	1.033319
	H355	H	-0.238116	-0.227524	1.031408
	H356	H	-0.230298	-0.214755	1.032981
	O357	O	0.689214	0.284765	0.475682
	H358	H	0.685099	0.278834	0.475846
	H359	H	0.687285	0.269426	0.481177
	O360	O	0.687512	0.703014	0.538649
	H361	H	0.702121	0.717512	0.525503
	H362	H	0.674923	0.687167	0.522318
	O363	O	0.061038	-0.020352	0.185349
	H364	H	0.039037	-0.030792	0.178933
	H365	H	0.050131	-0.014094	0.184058
	O366	O	0.502995	0.283869	0.298289
	H367	H	0.501318	0.274173	0.296838
	H368	H	0.492100	0.277879	0.292606
	O369	O	0.960424	0.085137	0.051359
	H370	H	0.968570	0.073993	0.039412
	H371	H	0.963784	0.073976	0.051180
	O372	O	0.754183	1.035326	-0.226190
	H373	H	0.767848	1.077492	-0.222609
	H374	H	0.715899	1.036534	-0.263816
	O375	O	1.009158	-0.228597	-0.214788
	H376	H	1.012089	-0.239468	-0.215726
	H377	H	0.994210	-0.239259	-0.216125
	O378	O	0.263124	0.529044	0.281170
	H379	H	0.245117	0.549756	0.263743
	H380	H	0.256106	0.554794	0.278609
	O381	O	-0.733761	0.680945	0.483645
	H382	H	-0.736800	0.670781	0.493142
	H383	H	-0.741857	0.676718	0.500519
	O384	O	1.199683	0.217181	1.027898
	H385	H	1.194779	0.223645	1.042393
	H386	H	1.211297	0.238117	1.028869
	O387	O	0.787124	1.201821	-0.040169
	H388	H	0.799986	1.200027	-0.025400
	H389	H	0.787248	1.201375	-0.032721
	O390	O	0.463277	0.487354	0.279921
	H391	H	0.433175	0.496436	0.274315
	H392	H	0.482036	0.473204	0.273816
	O393	O	0.514590	0.547342	0.616552
	H394	H	0.510817	0.537890	0.621909
	H395	H	0.527447	0.550473	0.628176
	O396	O	0.003164	1.215261	1.223906
	H397	H	0.000919	1.205576	1.230034
	H398	H	0.004977	1.220181	1.246552
	O399	O	-0.072568	-0.245898	0.940239
	H400	H	-0.057345	-0.243531	0.943561
	H401	H	-0.065914	-0.249779	0.971812
	O402	O	1.181030	0.784184	-0.205106
	H403	H	1.162387	0.766744	-0.223373
	H404	H	1.179948	0.775310	-0.160094
	O405	O	0.774380	0.205623	0.790313
	H406	H	0.737743	0.239081	0.764446
	H407	H	0.771970	0.206667	0.839126
	O408	O	-0.231645	0.047836	0.057850
	H409	H	-0.238049	0.036324	0.055944
	H410	H	-0.228362	0.052150	0.043848
	O411	O	0.795476	0.958085	0.955359
	H412	H	0.791804	0.961928	0.933753
	H413	H	0.809454	0.963291	0.942055
	O414	O	0.654203	0.671657	0.331814
	H415	H	0.627634	0.662655	0.345607
	H416	H	0.645431	0.649199	0.343979
	O417	O	1.040785	0.225117	0.946178
	H418	H	1.034603	0.219581	0.959318
	H419	H	1.028915	0.228317	0.920395
	O420	O	-0.000971	0.917993	0.847022
	H421	H	0.003655	0.896915	0.843575
	H422	H	0.001216	0.919874	0.843000
	O423	O	0.275241	0.288571	0.706626
	H424	H	0.243190	0.255357	0.738800
	H425	H	0.307566	0.282981	0.695516
	O426	O	0.264256	0.459769	0.719180
	H427	H	0.242616	0.452681	0.740336
	H428	H	0.259234	0.423806	0.719011
	O429	O	1.205474	0.951241	0.775666
	H430	H	1.242646	0.946966	0.737921
	H431	H	1.192809	0.901046	0.785125
	O432	O	0.580228	0.503434	0.367928
	H433	H	0.577192	0.491381	0.370644
	H434	H	0.572358	0.493931	0.360016
	O435	O	0.069807	1.070870	0.140608
	H436	H	0.079835	1.068383	0.140284
	H437	H	0.063565	1.054452	0.136592
	O438	O	0.170137	0.044293	-0.098605
	H439	H	0.166349	0.047367	-0.095967
	H440	H	0.180199	0.023030	-0.125236
	O441	O	0.107115	-0.052409	0.174390
	H442	H	0.097011	-0.050993	0.166887
	H443	H	0.106877	-0.041810	0.192471
	O444	O	0.662042	0.691139	0.705960
	H445	H	0.690914	0.722104	0.729158
	H446	H	0.656243	0.698351	0.663248
	O447	O	-0.043523	0.966471	1.120487
	H448	H	-0.042294	0.963615	1.109196
	H449	H	-0.039647	0.957726	1.109092
	O450	O	0.692875	0.446886	1.563108
	H451	H	0.696913	0.428382	1.553321
	H452	H	0.690222	0.457023	1.571106
	O453	O	0.482851	0.667477	0.692662
	H454	H	0.496741	0.662971	0.696151
	H455	H	0.497329	0.681276	0.712237
	O456	O	0.171317	0.015270	1.145147
	H457	H	0.172040	0.043572	1.141344
	H458	H	0.165643	0.027767	1.146786
	O459	O	1.171098	1.192457	-0.191109
	H460	H	1.149300	1.176558	-0.171333
	H461	H	1.151643	1.174509	-0.174707
	O462	O	0.454440	0.707716	0.434414
	H463	H	0.461648	0.708895	0.446976
	H464	H	0.447341	0.701716	0.428481
	O465	O	1.200331	-0.232116	-0.038477
	H466	H	1.206439	-0.215659	-0.024926
	H467	H	1.230196	-0.248476	-0.024317
	O468	O	0.677674	0.483635	0.350715
	H469	H	0.688563	0.489879	0.338180
	H470	H	0.680188	0.467683	0.348832
	O471	O	0.281176	0.697292	0.305414
	H472	H	0.305699	0.703790	0.323467
	H473	H	0.300698	0.698028	0.329524
	O474	O	0.519444	0.277529	0.535617
	H475	H	0.511731	0.281822	0.541017
	H476	H	0.512065	0.287661	0.530106
	O477	O	0.472685	0.494277	1.722355
	H478	H	0.485829	0.518608	1.726977
	H479	H	0.462590	0.506055	1.723793
	O480	O	0.668402	0.308494	0.315861
	H481	H	0.678997	0.314611	0.343776
	H482	H	0.640702	0.290117	0.301099
	O483	O	0.604009	0.510462	0.277827
	H484	H	0.601863	0.488603	0.277050
	H485	H	0.617413	0.497254	0.266441
	O486	O	0.923321	0.234372	1.061099
	H487	H	0.929440	0.230339	1.070779
	H488	H	0.928695	0.238285	1.072052
	O489	O	0.958571	0.993560	-0.061672
	H490	H	0.951197	0.989723	-0.072159
	H491	H	0.980897	0.991664	-0.057661
