data_Molecule from HDF5

_cell_length_a		16.343596
_cell_length_b		16.302372
_cell_length_c		16.214412
_cell_angle_alpha	89.923623
_cell_angle_beta	89.979357
_cell_angle_gamma	90.004741
_symmetry_space_group_name_H-M	'P 1'
_symmetry_Int_Tables_number		1

loop_
	_symmetry_equiv_pos_as_xyz
	x,y,z

loop_
	_atom_site_label
	_atom_site_type_symbol
	_atom_site_fract_x
	_atom_site_fract_y
	_atom_site_fract_z
	H0	H	0.403816	0.835869	0.713533
	H1	H	0.595704	0.164545	0.711924
	H2	H	0.596840	0.835393	0.286813
	H3	H	0.403449	0.163646	0.286729
	H4	H	0.713863	0.401839	0.835273
	H5	H	0.714460	0.598328	0.163910
	H6	H	0.285961	0.597917	0.835379
	H7	H	0.285692	0.401857	0.164227
	H8	H	0.837025	0.714855	0.402132
	H9	H	0.163309	0.714425	0.599276
	H10	H	0.837633	0.284660	0.599429
	H11	H	0.163218	0.285943	0.402624
	H12	H	0.836026	0.402942	0.713656
	H13	H	0.163632	0.596619	0.713630
	H14	H	0.836771	0.597205	0.286533
	H15	H	0.163016	0.403239	0.287133
	H16	H	0.402009	0.713686	0.835415
	H17	H	0.597155	0.712454	0.164674
	H18	H	0.596991	0.287144	0.835929
	H19	H	0.403642	0.287321	0.164864
	H20	H	0.715182	0.836313	0.400883
	H21	H	0.714806	0.163206	0.598556
	H22	H	0.284676	0.836307	0.600178
	H23	H	0.284964	0.163181	0.400877
	H24	H	0.902784	0.336049	0.213788
	H25	H	0.095902	0.664359	0.212408
	H26	H	0.095727	0.335953	0.787654
	H27	H	0.902456	0.663998	0.785607
	H28	H	0.213874	0.902551	0.335477
	H29	H	0.214342	0.098320	0.663963
	H30	H	0.785804	0.098388	0.335936
	H31	H	0.786657	0.901245	0.664490
	H32	H	0.336647	0.214820	0.901419
	H33	H	0.663189	0.214568	0.098214
	H34	H	0.337370	0.784615	0.099839
	H35	H	0.663015	0.784650	0.900672
	H36	H	0.336668	0.903184	0.213117
	H37	H	0.663585	0.096067	0.213133
	H38	H	0.336376	0.097159	0.786358
	H39	H	0.664393	0.904432	0.787589
	H40	H	0.903919	0.212927	0.335295
	H41	H	0.097810	0.213519	0.664827
	H42	H	0.097725	0.786635	0.335512
	H43	H	0.902878	0.786154	0.664470
	H44	H	0.213724	0.336170	0.902100
	H45	H	0.213858	0.663833	0.097858
	H46	H	0.785795	0.336853	0.098218
	H47	H	0.785754	0.664053	0.900913
	H48	H	0.407338	0.115975	0.595010
	H49	H	0.601249	0.883750	0.584787
	H50	H	0.596781	0.117508	0.404063
	H51	H	0.406780	0.883325	0.407742
	H52	H	0.587121	0.397264	0.118450
	H53	H	0.593067	0.599237	0.881100
	H54	H	0.410939	0.594230	0.116068
	H55	H	0.407415	0.409551	0.884055
	H56	H	0.113838	0.589335	0.411063
	H57	H	0.884990	0.592236	0.590568
	H58	H	0.113134	0.411596	0.588220
	H59	H	0.884619	0.406935	0.410193
	H60	H	0.117935	0.408822	0.601305
	H61	H	0.883796	0.592567	0.595408
	H62	H	0.117981	0.592356	0.400211
	H63	H	0.882951	0.408070	0.403640
	H64	H	0.403204	0.596306	0.118645
	H65	H	0.598151	0.589023	0.882418
	H66	H	0.604762	0.406407	0.120274
	H67	H	0.407323	0.403729	0.881799
	H68	H	0.590635	0.115321	0.404953
	H69	H	0.597833	0.879329	0.604292
	H70	H	0.407473	0.115392	0.590570
	H71	H	0.405424	0.883462	0.408513
	H72	H	0.910872	0.618519	0.101516
	H73	H	0.087509	0.386370	0.091089
	H74	H	0.096373	0.619143	0.901144
	H75	H	0.909455	0.383818	0.903907
	H76	H	0.100235	0.905053	0.619535
	H77	H	0.097112	0.084931	0.384397
	H78	H	0.904279	0.096360	0.618418
	H79	H	0.913833	0.910295	0.385978
	H80	H	0.616939	0.092394	0.902391
	H81	H	0.381972	0.091544	0.104795
	H82	H	0.615367	0.902997	0.087439
	H83	H	0.384465	0.910520	0.901672
	H84	H	0.614742	0.911223	0.093377
	H85	H	0.380975	0.105702	0.090748
	H86	H	0.617134	0.099046	0.907553
	H87	H	0.382294	0.900106	0.906341
	H88	H	0.904556	0.088114	0.616922
	H89	H	0.084232	0.095473	0.384513
	H90	H	0.091143	0.913724	0.614548
	H91	H	0.906850	0.899395	0.380164
	H92	H	0.088672	0.614663	0.906797
	H93	H	0.099765	0.383000	0.088522
	H94	H	0.910267	0.613098	0.084824
	H95	H	0.906440	0.385267	0.911515
	H96	H	0.403436	0.116578	0.593175
	H97	H	0.583024	0.886739	0.592686
	H98	H	0.594714	0.114805	0.410491
	H99	H	0.405935	0.882972	0.406371
	H100	H	0.589013	0.416312	0.113234
	H101	H	0.586952	0.590667	0.885934
	H102	H	0.404699	0.588349	0.115526
	H103	H	0.401986	0.407313	0.881827
	H104	H	0.117481	0.600222	0.408760
	H105	H	0.883746	0.596691	0.592244
	H106	H	0.117751	0.398814	0.591107
	H107	H	0.881861	0.401842	0.406355
	H108	H	0.896267	0.619190	0.093245
	H109	H	0.095129	0.380655	0.100555
	H110	H	0.097801	0.616763	0.911200
	H111	H	0.901647	0.382457	0.905384
	H112	H	0.088127	0.901054	0.617279
	H113	H	0.098997	0.100685	0.379265
	H114	H	0.911572	0.092750	0.615872
	H115	H	0.900305	0.911901	0.382222
	H116	H	0.613880	0.091876	0.910688
	H117	H	0.388058	0.086774	0.085533
	H118	H	0.618739	0.902078	0.097676
	H119	H	0.386186	0.908121	0.913089
	C120	C	0.377947	0.007979	0.621868
	C121	C	0.621936	0.991574	0.622045
	C122	C	0.622251	0.007869	0.377934
	C123	C	0.378367	0.991378	0.378689
	C124	C	0.621287	0.379045	0.008516
	C125	C	0.621215	0.621137	0.991855
	C126	C	0.378523	0.621290	0.008075
	C127	C	0.378308	0.378595	0.991580
	C128	C	0.008567	0.621918	0.378292
	C129	C	0.992035	0.621742	0.621382
	C130	C	0.008069	0.378237	0.621825
	C131	C	0.991345	0.377970	0.378708
	C132	C	0.878241	0.508674	0.121395
	C133	C	0.121623	0.491731	0.121327
	C134	C	0.121833	0.508331	0.878019
	C135	C	0.877776	0.491938	0.878194
	C136	C	0.121496	0.878677	0.508371
	C137	C	0.121255	0.121438	0.491662
	C138	C	0.878774	0.120948	0.508518
	C139	C	0.878833	0.878636	0.491604
	C140	C	0.508103	0.122451	0.878419
	C141	C	0.491402	0.122188	0.121884
	C142	C	0.508541	0.877941	0.121311
	C143	C	0.492054	0.878534	0.878586
	C144	C	0.382194	0.884715	0.676223
	C145	C	0.617733	0.115215	0.675544
	C146	C	0.618139	0.884414	0.324121
	C147	C	0.382059	0.114819	0.324150
	C148	C	0.675938	0.381543	0.884589
	C149	C	0.676513	0.618819	0.114914
	C150	C	0.323962	0.618565	0.884492
	C151	C	0.324018	0.381418	0.115430
	C152	C	0.885690	0.676854	0.381257
	C153	C	0.114726	0.676250	0.619084
	C154	C	0.885590	0.323086	0.619193
	C155	C	0.114556	0.323843	0.381765
	C156	C	0.885189	0.381513	0.676310
	C157	C	0.114828	0.617897	0.676084
	C158	C	0.885379	0.618280	0.324247
	C159	C	0.114595	0.382055	0.324558
	C160	C	0.381573	0.676020	0.884433
	C161	C	0.618284	0.675446	0.115368
	C162	C	0.618105	0.324608	0.884616
	C163	C	0.382318	0.324583	0.115587
	C164	C	0.677104	0.884941	0.380722
	C165	C	0.676800	0.114568	0.619151
	C166	C	0.322839	0.885071	0.620089
	C167	C	0.323208	0.114434	0.380729
	C168	C	0.881739	0.384982	0.175964
	C169	C	0.117718	0.615149	0.175557
	C170	C	0.117483	0.384945	0.824518
	C171	C	0.881265	0.615169	0.823083
	C172	C	0.176548	0.881378	0.384669
	C173	C	0.175967	0.118523	0.615362
	C174	C	0.824080	0.118411	0.384649
	C175	C	0.824074	0.880994	0.615382
	C176	C	0.385272	0.176863	0.880966
	C177	C	0.614436	0.176819	0.119213
	C178	C	0.385665	0.823013	0.119463
	C179	C	0.614871	0.823499	0.880975
	C180	C	0.385515	0.881566	0.176003
	C181	C	0.614953	0.117847	0.175755
	C182	C	0.385114	0.118447	0.823784
	C183	C	0.615233	0.882511	0.824431
	C184	C	0.882505	0.175466	0.384435
	C185	C	0.118390	0.175903	0.615587
	C186	C	0.118669	0.824105	0.384589
	C187	C	0.881869	0.823807	0.615221
	C188	C	0.176172	0.385116	0.881234
	C189	C	0.176101	0.615088	0.118547
	C190	C	0.823431	0.385572	0.119031
	C191	C	0.823233	0.615180	0.880514
	C192	C	0.399460	0.093836	0.599453
	C193	C	0.600480	0.905363	0.600292
	C194	C	0.600484	0.093760	0.399942
	C195	C	0.399816	0.905324	0.400745
	C196	C	0.599971	0.400462	0.095090
	C197	C	0.599123	0.599357	0.905270
	C198	C	0.399981	0.599491	0.094527
	C199	C	0.399282	0.400343	0.904807
	C200	C	0.094134	0.600317	0.400127
	C201	C	0.906196	0.600288	0.599181
	C202	C	0.094168	0.399984	0.599991
	C203	C	0.905286	0.399434	0.400348
	C204	C	0.899502	0.594596	0.099639
	C205	C	0.100529	0.405602	0.099670
	C206	C	0.100617	0.594653	0.899863
	C207	C	0.899448	0.405989	0.900290
	C208	C	0.099577	0.900432	0.594790
	C209	C	0.099739	0.100096	0.405026
	C210	C	0.900348	0.098920	0.594739
	C211	C	0.900533	0.900799	0.405190
	C212	C	0.593949	0.100744	0.900399
	C213	C	0.405844	0.100847	0.100089
	C214	C	0.594195	0.899252	0.099392
	C215	C	0.406349	0.900000	0.900499
	Zn216	Zn	0.500027	0.000486	0.750323
	Zn217	Zn	0.500312	-0.000283	0.249900
	Zn218	Zn	0.749238	0.500233	-0.000544
	Zn219	Zn	0.250238	0.500089	-0.000083
	Zn220	Zn	0.000357	0.750617	0.500019
	Zn221	Zn	0.000360	0.249438	0.500554
	Zn222	Zn	-0.000006	0.500220	0.749836
	Zn223	Zn	-0.000141	0.499777	0.249380
	Zn224	Zn	0.499933	0.749291	0.000195
	Zn225	Zn	0.499814	0.250832	-0.000212
	Zn226	Zn	0.750317	-0.000389	0.500158
	Zn227	Zn	0.249387	0.000023	0.500118
	N228	N	0.415691	0.962107	0.677499
	N229	N	0.584560	0.037648	0.677506
	N230	N	0.584606	0.961883	0.322455
	N231	N	0.415504	0.037268	0.322670
	N232	N	0.677953	0.414557	0.962582
	N233	N	0.678168	0.585772	0.037026
	N234	N	0.322058	0.585199	0.962349
	N235	N	0.321340	0.414256	0.037251
	N236	N	0.963276	0.679448	0.414015
	N237	N	0.037343	0.678817	0.585801
	N238	N	0.963125	0.320942	0.586166
	N239	N	0.036965	0.321137	0.414575
	N240	N	0.962360	0.415152	0.677834
	N241	N	0.037463	0.584583	0.677328
	N242	N	0.962566	0.584703	0.322378
	N243	N	0.036993	0.414902	0.322306
	N244	N	0.414785	0.677830	0.962471
	N245	N	0.584692	0.677229	0.037488
	N246	N	0.584966	0.322642	0.962708
	N247	N	0.415490	0.322976	0.037694
	N248	N	0.679558	0.962682	0.413517
	N249	N	0.679166	0.036879	0.586241
	N250	N	0.320186	0.962731	0.586789
	N251	N	0.320980	0.036827	0.414201
	N252	N	0.915118	0.462510	0.177745
	N253	N	0.084526	0.537592	0.177230
	N254	N	0.084237	0.462488	0.822879
	N255	N	0.914732	0.537654	0.821691
	N256	N	0.178607	0.914274	0.462763
	N257	N	0.177902	0.085413	0.537275
	N258	N	0.821603	0.085230	0.462712
	N259	N	0.822112	0.914492	0.537457
	N260	N	0.462547	0.179140	0.914315
	N261	N	0.536811	0.179689	0.086502
	N262	N	0.463027	0.820485	0.086247
	N263	N	0.537271	0.820563	0.913886
	N264	N	0.462785	0.914934	0.177383
	N265	N	0.537697	0.084438	0.177585
	N266	N	0.462560	0.085539	0.821965
	N267	N	0.538022	0.915908	0.822954
	N268	N	0.915541	0.177328	0.462401
	N269	N	0.085048	0.177594	0.537741
	N270	N	0.085297	0.822352	0.462558
	N271	N	0.915083	0.822204	0.537284
	N272	N	0.178959	0.462969	0.913862
	N273	N	0.178707	0.537324	0.085557
	N274	N	0.821366	0.463145	0.085674
	N275	N	0.821190	0.537665	0.914017
