data_Molecule from HDF5

_cell_length_a		16.455586
_cell_length_b		16.600983
_cell_length_c		16.721191
_cell_angle_alpha	90.022490
_cell_angle_beta	90.053987
_cell_angle_gamma	90.024324
_symmetry_space_group_name_H-M	'P 1'
_symmetry_Int_Tables_number		1

loop_
	_symmetry_equiv_pos_as_xyz
	x,y,z

loop_
	_atom_site_label
	_atom_site_type_symbol
	_atom_site_fract_x
	_atom_site_fract_y
	_atom_site_fract_z
	H0	H	0.392317	0.841163	0.716393
	H1	H	0.606387	0.151556	0.716946
	H2	H	0.605302	0.841564	0.271159
	H3	H	0.389744	0.150336	0.268123
	H4	H	0.720567	0.393603	0.836879
	H5	H	0.720381	0.601995	0.147636
	H6	H	0.275738	0.602474	0.839328
	H7	H	0.277019	0.391239	0.147343
	H8	H	0.840895	0.714506	0.393333
	H9	H	0.158957	0.715440	0.596372
	H10	H	0.843449	0.276257	0.599065
	H11	H	0.158473	0.277892	0.390186
	H12	H	0.842828	0.392668	0.713877
	H13	H	0.158332	0.601195	0.713303
	H14	H	0.841097	0.599291	0.276351
	H15	H	0.156554	0.391428	0.272168
	H16	H	0.392371	0.719131	0.838378
	H17	H	0.605128	0.720185	0.146903
	H18	H	0.605835	0.274796	0.838032
	H19	H	0.389619	0.271344	0.144714
	H20	H	0.718736	0.840285	0.390188
	H21	H	0.719685	0.153213	0.597509
	H22	H	0.279241	0.839073	0.596776
	H23	H	0.277588	0.152599	0.388927
	H24	H	0.894137	0.340952	0.213616
	H25	H	0.103679	0.652814	0.215057
	H26	H	0.109015	0.343565	0.768213
	H27	H	0.891691	0.652904	0.770963
	H28	H	0.218098	0.894566	0.336968
	H29	H	0.221603	0.101305	0.650145
	H30	H	0.780731	0.099578	0.337859
	H31	H	0.781052	0.896555	0.650663
	H32	H	0.342018	0.218494	0.886356
	H33	H	0.656559	0.216969	0.096708
	H34	H	0.340065	0.780476	0.093537
	H35	H	0.657299	0.779100	0.891436
	H36	H	0.341915	0.893243	0.212963
	H37	H	0.655242	0.103919	0.214871
	H38	H	0.341544	0.101372	0.772168
	H39	H	0.657016	0.893496	0.773961
	H40	H	0.896046	0.217601	0.338988
	H41	H	0.106681	0.219398	0.649457
	H42	H	0.102594	0.776547	0.338193
	H43	H	0.896618	0.778847	0.650704
	H44	H	0.220623	0.340764	0.888401
	H45	H	0.217318	0.654111	0.095803
	H46	H	0.781817	0.339902	0.092781
	H47	H	0.779652	0.654217	0.891148
	H48	H	0.408508	0.109184	0.586045
	H49	H	0.586309	0.886730	0.581205
	H50	H	0.589248	0.108537	0.406144
	H51	H	0.411104	0.885272	0.401566
	H52	H	0.582259	0.403972	0.101784
	H53	H	0.585817	0.585637	0.882802
	H54	H	0.408621	0.593636	0.106501
	H55	H	0.411200	0.412267	0.884175
	H56	H	0.113685	0.584496	0.400598
	H57	H	0.887615	0.586477	0.580204
	H58	H	0.110235	0.412810	0.578523
	H59	H	0.887298	0.406686	0.406152
	H60	H	0.113904	0.411734	0.586751
	H61	H	0.887138	0.584185	0.587582
	H62	H	0.115168	0.590155	0.402667
	H63	H	0.888476	0.409856	0.404160
	H64	H	0.405526	0.583387	0.105269
	H65	H	0.587558	0.592086	0.880529
	H66	H	0.593460	0.403737	0.106103
	H67	H	0.414426	0.408662	0.884273
	H68	H	0.590433	0.110815	0.400353
	H69	H	0.592099	0.883616	0.584066
	H70	H	0.415752	0.106004	0.584293
	H71	H	0.413864	0.886306	0.403914
	H72	H	0.904625	0.611579	0.081434
	H73	H	0.082769	0.386871	0.083598
	H74	H	0.088285	0.609136	0.901026
	H75	H	0.905675	0.384492	0.906604
	H76	H	0.089316	0.908012	0.604875
	H77	H	0.087427	0.087912	0.383697
	H78	H	0.911072	0.081898	0.603657
	H79	H	0.906843	0.901847	0.380399
	H80	H	0.608999	0.080468	0.904481
	H81	H	0.390573	0.078077	0.075357
	H82	H	0.614396	0.901322	0.082544
	H83	H	0.386274	0.911240	0.903668
	H84	H	0.609840	0.911260	0.076784
	H85	H	0.384884	0.082338	0.088302
	H86	H	0.614045	0.086930	0.900125
	H87	H	0.385008	0.907906	0.900082
	H88	H	0.915755	0.090281	0.605021
	H89	H	0.089236	0.087103	0.383935
	H90	H	0.088390	0.905581	0.605789
	H91	H	0.906993	0.908670	0.381961
	H92	H	0.080868	0.606183	0.904484
	H93	H	0.089259	0.384917	0.080529
	H94	H	0.908927	0.613082	0.092620
	H95	H	0.912506	0.383976	0.896697
	H96	H	0.409675	0.106538	0.578920
	H97	H	0.586006	0.884178	0.587963
	H98	H	0.584691	0.107938	0.401194
	H99	H	0.410595	0.886153	0.404354
	H100	H	0.589100	0.413789	0.101227
	H101	H	0.592265	0.586776	0.880701
	H102	H	0.415511	0.587043	0.101506
	H103	H	0.410120	0.408061	0.881465
	H104	H	0.112180	0.585950	0.406636
	H105	H	0.885107	0.591630	0.585914
	H106	H	0.113623	0.405146	0.580918
	H107	H	0.886833	0.406790	0.402311
	H108	H	0.915564	0.607196	0.084500
	H109	H	0.087715	0.382741	0.087483
	H110	H	0.087712	0.606509	0.909171
	H111	H	0.917208	0.388759	0.906865
	H112	H	0.091022	0.906038	0.605143
	H113	H	0.088445	0.085981	0.384136
	H114	H	0.906367	0.089260	0.607486
	H115	H	0.912544	0.904673	0.383197
	H116	H	0.610993	0.088430	0.908764
	H117	H	0.385283	0.091705	0.076692
	H118	H	0.613527	0.912155	0.088881
	H119	H	0.384847	0.906371	0.905138
	C120	C	0.378520	0.004285	0.614724
	C121	C	0.620162	0.988397	0.615262
	C122	C	0.620323	0.005565	0.371446
	C123	C	0.378343	0.988509	0.371424
	C124	C	0.620708	0.375562	0.000687
	C125	C	0.620745	0.619697	0.984076
	C126	C	0.377138	0.619670	0.001967
	C127	C	0.377766	0.375841	0.984525
	C128	C	0.008344	0.617649	0.373397
	C129	C	0.991276	0.618482	0.615593
	C130	C	0.008446	0.377343	0.614222
	C131	C	0.991614	0.375681	0.372485
	C132	C	0.877586	0.506466	0.116105
	C133	C	0.119304	0.488392	0.115026
	C134	C	0.120079	0.505241	0.872081
	C135	C	0.878823	0.489093	0.871837
	C136	C	0.120882	0.875610	0.501903
	C137	C	0.121714	0.118983	0.486003
	C138	C	0.879033	0.118572	0.502660
	C139	C	0.877731	0.875006	0.485443
	C140	C	0.507586	0.117800	0.871741
	C141	C	0.490696	0.117300	0.112916
	C142	C	0.508040	0.876384	0.114072
	C143	C	0.490126	0.876805	0.871940
	C144	C	0.374987	0.887374	0.675197
	C145	C	0.623527	0.105574	0.675688
	C146	C	0.622843	0.888255	0.311803
	C147	C	0.373503	0.104802	0.310221
	C148	C	0.680698	0.374460	0.883709
	C149	C	0.680404	0.620957	0.100932
	C150	C	0.316117	0.621156	0.885490
	C151	C	0.316554	0.372388	0.100586
	C152	C	0.888649	0.675641	0.373765
	C153	C	0.111028	0.676595	0.615554
	C154	C	0.890317	0.316828	0.616710
	C155	C	0.110416	0.316776	0.371128
	C156	C	0.890369	0.374287	0.674295
	C157	C	0.110657	0.620071	0.674080
	C158	C	0.888663	0.618270	0.315742
	C159	C	0.109525	0.373050	0.312225
	C160	C	0.374133	0.679100	0.885069
	C161	C	0.623427	0.680041	0.100466
	C162	C	0.623698	0.315264	0.884347
	C163	C	0.372994	0.313126	0.099218
	C164	C	0.679484	0.887687	0.370952
	C165	C	0.679665	0.106407	0.616322
	C166	C	0.318734	0.886245	0.615802
	C167	C	0.317584	0.105670	0.369945
	C168	C	0.875924	0.387998	0.173907
	C169	C	0.121727	0.606227	0.174503
	C170	C	0.125203	0.389317	0.810001
	C171	C	0.874767	0.606322	0.811652
	C172	C	0.178952	0.875629	0.384093
	C173	C	0.181810	0.120213	0.603146
	C174	C	0.820161	0.118872	0.385082
	C175	C	0.820001	0.876299	0.603470
	C176	C	0.389181	0.177984	0.868783
	C177	C	0.608914	0.177466	0.115142
	C178	C	0.388199	0.818752	0.113836
	C179	C	0.609532	0.818177	0.871796
	C180	C	0.389212	0.874595	0.173136
	C181	C	0.608444	0.121114	0.173838
	C182	C	0.389070	0.119938	0.811794
	C183	C	0.609609	0.875397	0.813840
	C184	C	0.877355	0.177734	0.385615
	C185	C	0.124829	0.179196	0.602844
	C186	C	0.121758	0.816707	0.384750
	C187	C	0.877645	0.817925	0.603425
	C188	C	0.180777	0.388029	0.869912
	C189	C	0.178245	0.606823	0.115391
	C190	C	0.820187	0.387409	0.114083
	C191	C	0.818921	0.607087	0.871337
	C192	C	0.404093	0.086047	0.590129
	C193	C	0.595113	0.906208	0.591220
	C194	C	0.595265	0.087847	0.395658
	C195	C	0.404516	0.907036	0.396088
	C196	C	0.595498	0.400278	0.081918
	C197	C	0.595691	0.595001	0.902473
	C198	C	0.402623	0.595036	0.083422
	C199	C	0.404448	0.402231	0.904020
	C200	C	0.091851	0.593769	0.396687
	C201	C	0.908332	0.594279	0.591638
	C202	C	0.090945	0.402649	0.589244
	C203	C	0.908898	0.400786	0.397210
	C204	C	0.902347	0.589046	0.092786
	C205	C	0.093906	0.406314	0.090790
	C206	C	0.093337	0.586414	0.897770
	C207	C	0.904316	0.407145	0.896347
	C208	C	0.096435	0.899659	0.583993
	C209	C	0.095845	0.094103	0.405075
	C210	C	0.903740	0.094175	0.584137
	C211	C	0.901880	0.898284	0.403247
	C212	C	0.589911	0.092639	0.897049
	C213	C	0.408260	0.091441	0.087457
	C214	C	0.590952	0.901106	0.089725
	C215	C	0.407171	0.901410	0.896010
	Zn216	Zn	0.499255	-0.003184	0.743730
	Zn217	Zn	0.499247	-0.002471	0.242078
	Zn218	Zn	0.750091	0.497366	-0.007164
	Zn219	Zn	0.248539	0.497107	-0.006308
	Zn220	Zn	-0.000122	0.745990	0.494515
	Zn221	Zn	0.000170	0.248369	0.494485
	Zn222	Zn	-0.000032	0.497643	0.743187
	Zn223	Zn	-0.000770	0.496650	0.244510
	Zn224	Zn	0.498454	0.748320	-0.007313
	Zn225	Zn	0.499081	0.246067	-0.007648
	Zn226	Zn	0.748771	-0.002754	0.493980
	Zn227	Zn	0.250316	-0.003454	0.493626
	N228	N	0.411229	0.961837	0.674800
	N229	N	0.587293	0.031105	0.675226
	N230	N	0.586716	0.962682	0.312129
	N231	N	0.410808	0.031002	0.311199
	N232	N	0.679271	0.411231	0.957247
	N233	N	0.679155	0.584188	0.027339
	N234	N	0.317847	0.584872	0.959180
	N235	N	0.319480	0.410951	0.028183
	N236	N	0.964207	0.675480	0.408853
	N237	N	0.035616	0.676269	0.580282
	N238	N	0.964904	0.318456	0.580176
	N239	N	0.035756	0.318026	0.407687
	N240	N	0.965012	0.411003	0.673010
	N241	N	0.035100	0.584920	0.674400
	N242	N	0.964066	0.582987	0.315276
	N243	N	0.034303	0.408867	0.312847
	N244	N	0.411220	0.678392	0.958580
	N245	N	0.586970	0.679149	0.026653
	N246	N	0.587304	0.315704	0.957999
	N247	N	0.410309	0.315041	0.026007
	N248	N	0.678081	0.961717	0.407496
	N249	N	0.677453	0.032661	0.579212
	N250	N	0.320704	0.960200	0.578982
	N251	N	0.320744	0.032489	0.407631
	N252	N	0.910552	0.463305	0.175426
	N253	N	0.086057	0.531414	0.174658
	N254	N	0.088122	0.463208	0.811471
	N255	N	0.911221	0.531834	0.811685
	N256	N	0.178838	0.911067	0.458285
	N257	N	0.180358	0.083663	0.529421
	N258	N	0.820642	0.082957	0.458943
	N259	N	0.819466	0.910663	0.528861
	N260	N	0.463855	0.176899	0.905250
	N261	N	0.534430	0.175297	0.077954
	N262	N	0.463284	0.819306	0.078122
	N263	N	0.534099	0.818674	0.907010
	N264	N	0.464996	0.909209	0.173833
	N265	N	0.533698	0.084467	0.172718
	N266	N	0.463913	0.083313	0.813335
	N267	N	0.534232	0.910726	0.813600
	N268	N	0.912943	0.177971	0.459804
	N269	N	0.088304	0.178815	0.529061
	N270	N	0.086644	0.816400	0.459088
	N271	N	0.912657	0.816817	0.528884
	N272	N	0.177691	0.461156	0.908179
	N273	N	0.177027	0.532478	0.079237
	N274	N	0.820676	0.462302	0.079085
	N275	N	0.821440	0.533383	0.908197
	O276	O	0.033561	0.792268	0.026295
	H277	H	0.026370	0.799616	0.002300
	H278	H	0.034585	0.796892	0.042563
	O279	O	0.444559	0.560926	0.269825
	H280	H	0.443376	0.546136	0.284505
	H281	H	0.436790	0.571316	0.259574
	O282	O	0.915045	0.071596	1.166778
	H283	H	0.918874	0.062806	1.164536
	H284	H	0.909216	0.068067	1.180882
	O285	O	0.551118	0.435759	0.727879
	H286	H	0.553398	0.421072	0.727496
	H287	H	0.566524	0.432920	0.727219
	O288	O	0.283613	0.718375	0.455121
	H289	H	0.279136	0.715233	0.427946
	H290	H	0.261426	0.739122	0.433725
	O291	O	0.358515	0.388873	0.582706
	H292	H	0.375580	0.408871	0.586640
	H293	H	0.336458	0.365295	0.578026
	O294	O	0.857754	0.189575	1.014286
	H295	H	0.838124	0.194263	1.024225
	H296	H	0.854165	0.179803	1.028093
	O297	O	0.508549	0.652545	0.272917
	H298	H	0.507825	0.651073	0.283381
	H299	H	0.510273	0.672740	0.268104
	O300	O	-0.024781	0.213075	0.779239
	H301	H	-0.032821	0.227537	0.779843
	H302	H	-0.042399	0.221215	0.771516
	O303	O	0.719094	0.723903	0.535433
	H304	H	0.727305	0.737771	0.532159
	H305	H	0.731438	0.734325	0.557380
	O306	O	0.719674	0.276171	0.461601
	H307	H	0.731426	0.264188	0.461966
	H308	H	0.721518	0.272335	0.448067
	O309	O	0.419683	0.588800	0.715940
	H310	H	0.408876	0.576075	0.696235
	H311	H	0.439421	0.565069	0.719782
	O312	O	0.531030	0.717861	0.716262
	H313	H	0.529902	0.711288	0.729991
	H314	H	0.522138	0.725790	0.733760
	O315	O	0.891911	0.953002	0.928204
	H316	H	0.882238	0.936808	0.930316
	H317	H	0.883790	0.954389	0.932849
	O318	O	0.515772	0.613885	0.415364
	H319	H	0.485115	0.624468	0.419368
	H320	H	0.519567	0.604276	0.419685
	O321	O	0.080955	0.779220	0.781492
	H322	H	0.094705	0.775541	0.758496
	H323	H	0.108390	0.782788	0.796663
	O324	O	0.949112	0.790332	0.205283
	H325	H	0.941887	0.774578	0.220155
	H326	H	0.930280	0.788153	0.192721
	O327	O	-0.136024	0.200157	1.004781
	H328	H	-0.147464	0.198386	0.999735
	H329	H	-0.136665	0.204594	0.991358
	O330	O	0.697159	0.391175	0.562963
	H331	H	0.676934	0.399817	0.562823
	H332	H	0.695777	0.382623	0.564063
	O333	O	0.465657	0.278827	0.709066
	H334	H	0.450405	0.287443	0.705672
	H335	H	0.471900	0.259791	0.730396
	O336	O	0.706978	0.284944	0.283260
	H337	H	0.708155	0.336029	0.277881
	H338	H	0.681599	0.277380	0.307555
	O339	O	0.940826	-0.102024	0.888801
	H340	H	0.943480	-0.086539	0.892500
	H341	H	0.944476	-0.101236	0.877831
	O342	O	0.190728	0.018612	0.186331
	H343	H	0.182075	0.013069	0.179187
	H344	H	0.198518	0.033221	0.201568
	O345	O	0.208543	0.956815	0.995459
	H346	H	0.199953	0.959802	0.997160
	H347	H	0.198966	0.974873	1.002333
	O348	O	0.327367	0.337644	0.310649
	H349	H	0.315331	0.324843	0.295922
	H350	H	0.323808	0.336328	0.302549
	O351	O	0.704438	0.698105	0.286422
	H352	H	0.699935	0.681023	0.307744
	H353	H	0.681689	0.677233	0.302208
	O354	O	0.128318	0.106601	0.919442
	H355	H	0.110694	0.103962	0.923810
	H356	H	0.117719	0.102807	0.909573
	O357	O	0.333486	0.555769	0.635192
	H358	H	0.328576	0.574567	0.651576
	H359	H	0.318578	0.572710	0.618125
	O360	O	0.161036	0.158625	0.751974
	H361	H	0.153489	0.177661	0.749223
	H362	H	0.171783	0.171397	0.741362
	O363	O	-0.015725	-0.047394	-0.075050
	H364	H	-0.016636	-0.055447	-0.074927
	H365	H	-0.017482	-0.043211	-0.072748
	O366	O	0.649701	0.553266	0.470064
	H367	H	0.642346	0.565355	0.488575
	H368	H	0.634771	0.543343	0.469157
	O369	O	0.822514	0.182500	0.177285
	H370	H	0.816038	0.164200	0.184902
	H371	H	0.805254	0.196336	0.194967
	O372	O	0.810573	0.785413	0.011787
	H373	H	0.824739	0.771333	-0.003427
	H374	H	0.806370	0.788788	-0.001884
	O375	O	0.781749	-0.024541	0.211617
	H376	H	0.789224	-0.063184	0.208867
	H377	H	0.758801	-0.038983	0.234475
	O378	O	0.618122	0.525292	0.521678
	H379	H	0.619323	0.522166	0.524049
	H380	H	0.609180	0.528748	0.516795
	O381	O	-0.123422	0.804046	0.802007
	H382	H	-0.110627	0.809676	0.808531
	H383	H	-0.116218	0.793432	0.797520
	O384	O	0.829033	0.120169	0.816632
	H385	H	0.837935	0.108910	0.819125
	H386	H	0.837078	0.102354	0.823936
	O387	O	1.031168	1.040596	0.034569
	H388	H	1.031008	1.040493	0.020976
	H389	H	1.022922	1.044983	0.036610
	O390	O	0.535981	0.307953	0.305377
	H391	H	0.541577	0.312736	0.329451
	H392	H	0.533956	0.287277	0.282921
	O393	O	0.326922	0.467695	0.482396
	H394	H	0.329987	0.455067	0.474368
	H395	H	0.327722	0.462894	0.484904
	O396	O	0.158620	0.978369	0.774256
	H397	H	0.147445	1.002240	0.777327
	H398	H	0.153611	0.984780	0.766908
	O399	O	-0.007614	-0.125299	0.956828
	H400	H	-0.013037	-0.129160	0.942405
	H401	H	-0.018549	-0.129221	0.957236
	O402	O	0.473679	0.467624	0.322443
	H403	H	0.459421	0.464115	0.323955
	H404	H	0.469913	0.468608	0.306660
	O405	O	0.818081	0.019984	0.867396
	H406	H	0.820093	0.023734	0.873537
	H407	H	0.812725	0.008982	0.879927
	O408	O	0.171083	0.101870	0.031906
	H409	H	0.183925	0.101862	0.024748
	H410	H	0.156050	0.100998	0.020934
	O411	O	0.699929	0.704495	0.704867
	H412	H	0.687648	0.669695	0.707832
	H413	H	0.689037	0.717402	0.700656
	O414	O	0.539742	0.429363	0.512594
	H415	H	0.540929	0.429976	0.495584
	H416	H	0.528121	0.426929	0.517880
	O417	O	0.492595	0.367161	0.446872
	H418	H	0.498329	0.364924	0.442259
	H419	H	0.478833	0.372200	0.466844
	O420	O	0.310865	0.646701	0.637573
	H421	H	0.304560	0.658207	0.636470
	H422	H	0.316199	0.642758	0.634073
	O423	O	0.006970	0.131283	0.934311
	H424	H	0.005984	0.138628	0.936071
	H425	H	0.010740	0.128751	0.930543
	O426	O	0.416487	0.630798	0.487218
	H427	H	0.404072	0.625256	0.490871
	H428	H	0.422506	0.637911	0.492683
	O429	O	1.110901	1.062073	0.935042
	H430	H	1.111842	1.070038	0.934385
	H431	H	1.112448	1.080431	0.941592
	O432	O	0.646185	0.551480	0.496513
	H433	H	0.633997	0.551730	0.507139
	H434	H	0.649089	0.556572	0.504524
	O435	O	0.186134	0.810768	0.178894
	H436	H	0.164582	0.828052	0.168770
	H437	H	0.188123	0.811531	0.168407
	O438	O	0.222686	0.199120	0.217922
	H439	H	0.213262	0.188410	0.203710
	H440	H	0.204643	0.188626	0.207412
	O441	O	0.046944	0.205695	0.209338
	H442	H	0.029856	0.211155	0.220182
	H443	H	0.035927	0.211276	0.204604
	O444	O	0.350520	0.294207	0.472855
	H445	H	0.334862	0.287371	0.466114
	H446	H	0.357207	0.279908	0.473175
	O447	O	0.205426	0.845806	0.793959
	H448	H	0.204579	0.841662	0.816382
	H449	H	0.215486	0.885452	0.780071
	O450	O	0.203578	0.790623	0.962345
	H451	H	0.212066	0.776691	0.967182
	H452	H	0.193732	0.796195	0.976027
	O453	O	0.297236	0.379716	0.702287
	H454	H	0.312821	0.377202	0.691734
	H455	H	0.290633	0.410072	0.697967
	O456	O	0.200931	0.197535	0.928346
	H457	H	0.210343	0.209567	0.922489
	H458	H	0.193973	0.197261	0.929911
	O459	O	0.796274	0.804055	0.164168
	H460	H	0.792904	0.792346	0.124422
	H461	H	0.772102	0.769536	0.187150
	O462	O	0.715986	0.452546	0.273541
	H463	H	0.738286	0.463850	0.268907
	H464	H	0.713800	0.474604	0.271782
	O465	O	0.798650	0.012069	0.027371
	H466	H	0.804410	0.013426	0.035810
	H467	H	0.794267	0.003007	0.050913
	O468	O	0.287088	0.525034	0.278121
	H469	H	0.266633	0.532948	0.259473
	H470	H	0.283520	0.534685	0.292499
	O471	O	0.447437	0.430124	0.563792
	H472	H	0.450774	0.449033	0.555319
	H473	H	0.445090	0.419908	0.555135
	O474	O	0.287785	0.705704	0.281436
	H475	H	0.319877	0.717310	0.268878
	H476	H	0.288554	0.703619	0.263292
	O477	O	0.555952	0.671842	1.363379
	H478	H	0.562727	0.661640	1.382466
	H479	H	0.556902	0.669759	1.364715
	O480	O	0.513139	0.267821	0.527439
	H481	H	0.508474	0.269108	0.526456
	H482	H	0.501769	0.266341	0.535727
	O483	O	0.712052	0.537801	0.703661
	H484	H	0.713656	0.538758	0.705975
	H485	H	0.726807	0.525859	0.700788
	O486	O	0.752083	0.251754	0.746936
	H487	H	0.725725	0.260542	0.727919
	H488	H	0.767713	0.211798	0.753280
	O489	O	1.019256	0.960583	0.209081
	H490	H	1.026270	0.954482	0.208664
	H491	H	1.008099	0.957892	0.206449
