data_Molecule from HDF5

_cell_length_a		16.293034
_cell_length_b		16.332902
_cell_length_c		16.488067
_cell_angle_alpha	90.151725
_cell_angle_beta	89.740873
_cell_angle_gamma	90.216333
_symmetry_space_group_name_H-M	'P 1'
_symmetry_Int_Tables_number		1

loop_
	_symmetry_equiv_pos_as_xyz
	x,y,z

loop_
	_atom_site_label
	_atom_site_type_symbol
	_atom_site_fract_x
	_atom_site_fract_y
	_atom_site_fract_z
	H0	H	0.380389	0.849363	0.721241
	H1	H	0.594041	0.167423	0.719881
	H2	H	0.593836	0.847195	0.279527
	H3	H	0.386033	0.167741	0.279909
	H4	H	0.710224	0.403909	0.841545
	H5	H	0.706041	0.610584	0.160212
	H6	H	0.271005	0.609947	0.840883
	H7	H	0.267680	0.404733	0.159367
	H8	H	0.825528	0.724232	0.400877
	H9	H	0.148766	0.729932	0.602279
	H10	H	0.825339	0.292459	0.602256
	H11	H	0.149374	0.293237	0.397735
	H12	H	0.827667	0.405225	0.721610
	H13	H	0.148326	0.616839	0.719668
	H14	H	0.827961	0.613414	0.280848
	H15	H	0.148301	0.406983	0.280158
	H16	H	0.386002	0.727416	0.841342
	H17	H	0.593616	0.730009	0.158185
	H18	H	0.592672	0.289180	0.840292
	H19	H	0.384001	0.288041	0.159646
	H20	H	0.705231	0.846343	0.399465
	H21	H	0.703428	0.170794	0.600395
	H22	H	0.267087	0.848827	0.603023
	H23	H	0.271460	0.169912	0.396956
	H24	H	0.882524	0.349613	0.220530
	H25	H	0.090802	0.670562	0.217990
	H26	H	0.089989	0.350196	0.780615
	H27	H	0.883383	0.669751	0.781570
	H28	H	0.209456	0.903576	0.341489
	H29	H	0.206780	0.112989	0.658882
	H30	H	0.771136	0.108477	0.339470
	H31	H	0.768746	0.908977	0.661568
	H32	H	0.328740	0.224269	0.899094
	H33	H	0.650999	0.226986	0.101295
	H34	H	0.327329	0.789505	0.101246
	H35	H	0.651322	0.791935	0.898023
	H36	H	0.328717	0.902444	0.220000
	H37	H	0.650260	0.112644	0.218851
	H38	H	0.330284	0.111296	0.780006
	H39	H	0.650022	0.905071	0.779956
	H40	H	0.885288	0.226987	0.339590
	H41	H	0.088997	0.229004	0.659008
	H42	H	0.090285	0.789042	0.340803
	H43	H	0.882053	0.789831	0.660556
	H44	H	0.203717	0.347321	0.898223
	H45	H	0.207464	0.669810	0.102249
	H46	H	0.771735	0.347122	0.100653
	H47	H	0.770770	0.670243	0.900577
	H48	H	0.405325	0.122252	0.596163
	H49	H	0.576536	0.893780	0.589241
	H50	H	0.580143	0.124554	0.401632
	H51	H	0.395640	0.893505	0.410749
	H52	H	0.570181	0.414049	0.112414
	H53	H	0.582407	0.593565	0.887150
	H54	H	0.398401	0.595239	0.112794
	H55	H	0.398355	0.416750	0.886773
	H56	H	0.106104	0.605661	0.405559
	H57	H	0.874065	0.601181	0.588338
	H58	H	0.101418	0.423521	0.590216
	H59	H	0.875572	0.424111	0.413001
	H60	H	0.103866	0.417509	0.593578
	H61	H	0.874424	0.594105	0.592208
	H62	H	0.100162	0.599890	0.417872
	H63	H	0.870098	0.420258	0.403296
	H64	H	0.401961	0.599515	0.113047
	H65	H	0.574404	0.598721	0.888696
	H66	H	0.586024	0.412186	0.117267
	H67	H	0.398936	0.416038	0.886755
	H68	H	0.574424	0.121196	0.409831
	H69	H	0.578727	0.892739	0.589766
	H70	H	0.400704	0.120195	0.583388
	H71	H	0.400412	0.894035	0.406618
	H72	H	0.893603	0.623641	0.084823
	H73	H	0.078688	0.394495	0.089606
	H74	H	0.072584	0.621380	0.913897
	H75	H	0.900304	0.396510	0.913295
	H76	H	0.068700	0.916984	0.610705
	H77	H	0.077308	0.103605	0.385935
	H78	H	0.895886	0.088812	0.609249
	H79	H	0.900889	0.919400	0.388956
	H80	H	0.604020	0.096454	0.910721
	H81	H	0.377537	0.092096	0.088432
	H82	H	0.604441	0.919786	0.091654
	H83	H	0.375305	0.922635	0.907236
	H84	H	0.603749	0.916827	0.087500
	H85	H	0.373199	0.097013	0.096896
	H86	H	0.605737	0.096325	0.906035
	H87	H	0.372368	0.914503	0.908574
	H88	H	0.907649	0.108912	0.612832
	H89	H	0.082986	0.099945	0.385223
	H90	H	0.082182	0.915995	0.616028
	H91	H	0.896697	0.912294	0.386727
	H92	H	0.087302	0.625725	0.914411
	H93	H	0.078051	0.393510	0.093259
	H94	H	0.895579	0.626627	0.098462
	H95	H	0.898702	0.394205	0.908977
	H96	H	0.392601	0.126197	0.593008
	H97	H	0.577110	0.893155	0.591064
	H98	H	0.584619	0.123429	0.410988
	H99	H	0.401419	0.895376	0.412259
	H100	H	0.580286	0.426732	0.111320
	H101	H	0.582396	0.602336	0.884543
	H102	H	0.396385	0.600523	0.114789
	H103	H	0.397915	0.415909	0.887334
	H104	H	0.101797	0.591690	0.405687
	H105	H	0.870942	0.600586	0.595546
	H106	H	0.101527	0.417704	0.586349
	H107	H	0.871049	0.412923	0.411918
	H108	H	0.905871	0.620477	0.091329
	H109	H	0.075094	0.395373	0.091303
	H110	H	0.079586	0.627061	0.901730
	H111	H	0.903199	0.395549	0.908671
	H112	H	0.077720	0.927873	0.610298
	H113	H	0.077367	0.096496	0.387721
	H114	H	0.884952	0.106964	0.619337
	H115	H	0.892592	0.919802	0.386491
	H116	H	0.605766	0.101046	0.908534
	H117	H	0.373761	0.101925	0.088076
	H118	H	0.601349	0.921821	0.087706
	H119	H	0.376402	0.918849	0.914467
	C120	C	0.366633	0.017269	0.622066
	C121	C	0.608421	0.999724	0.620358
	C122	C	0.610486	0.016349	0.377470
	C123	C	0.368026	0.999879	0.378444
	C124	C	0.610740	0.386277	0.008582
	C125	C	0.610745	0.629536	0.991695
	C126	C	0.367949	0.629469	0.008600
	C127	C	0.366403	0.385169	0.991957
	C128	C	-0.003788	0.629922	0.379490
	C129	C	0.979572	0.631026	0.622123
	C130	C	-0.004238	0.388570	0.621188
	C131	C	0.978711	0.388125	0.378047
	C132	C	0.866909	0.517619	0.122207
	C133	C	0.109276	0.500615	0.121844
	C134	C	0.109973	0.518634	0.878739
	C135	C	0.868206	0.501344	0.879702
	C136	C	0.108236	0.888196	0.507767
	C137	C	0.109574	0.131182	0.491272
	C138	C	0.865732	0.130916	0.507923
	C139	C	0.865192	0.886746	0.492843
	C140	C	0.498946	0.128822	0.878004
	C141	C	0.481299	0.128560	0.121142
	C142	C	0.497412	0.886782	0.120661
	C143	C	0.480567	0.886796	0.878132
	C144	C	0.362661	0.897351	0.681570
	C145	C	0.611060	0.120308	0.679365
	C146	C	0.611718	0.895330	0.319272
	C147	C	0.367132	0.120171	0.319514
	C148	C	0.670275	0.385147	0.889046
	C149	C	0.668023	0.630084	0.112061
	C150	C	0.309722	0.629672	0.888920
	C151	C	0.307228	0.385043	0.111636
	C152	C	0.874568	0.686958	0.380285
	C153	C	0.100441	0.690652	0.621647
	C154	C	0.874186	0.330835	0.621908
	C155	C	0.100654	0.331068	0.378041
	C156	C	0.875498	0.386941	0.681394
	C157	C	0.100305	0.634223	0.680193
	C158	C	0.875612	0.631528	0.320846
	C159	C	0.100162	0.387913	0.319776
	C160	C	0.367117	0.688043	0.888873
	C161	C	0.611721	0.689262	0.111083
	C162	C	0.611865	0.327892	0.888526
	C163	C	0.365336	0.327077	0.111816
	C164	C	0.667614	0.894798	0.378609
	C165	C	0.665945	0.121664	0.620042
	C166	C	0.306404	0.897057	0.622472
	C167	C	0.310240	0.121136	0.377837
	C168	C	0.864635	0.397284	0.180713
	C169	C	0.110240	0.621981	0.179543
	C170	C	0.109895	0.397947	0.819832
	C171	C	0.865682	0.621839	0.821238
	C172	C	0.168538	0.885766	0.388632
	C173	C	0.167356	0.131807	0.611178
	C174	C	0.809491	0.128648	0.387365
	C175	C	0.807282	0.888402	0.613452
	C176	C	0.377219	0.185954	0.878811
	C177	C	0.602505	0.187651	0.121135
	C178	C	0.375993	0.828176	0.121123
	C179	C	0.602475	0.829932	0.878270
	C180	C	0.376640	0.884455	0.180119
	C181	C	0.602095	0.130743	0.179550
	C182	C	0.377898	0.129667	0.820001
	C183	C	0.601762	0.886000	0.819263
	C184	C	0.866414	0.187703	0.387528
	C185	C	0.108838	0.189483	0.611322
	C186	C	0.109189	0.828795	0.388371
	C187	C	0.863757	0.829210	0.612934
	C188	C	0.166222	0.396569	0.878674
	C189	C	0.167961	0.621712	0.121854
	C190	C	0.809429	0.395957	0.120974
	C191	C	0.809521	0.621957	0.880230
	C192	C	0.392173	0.101038	0.597994
	C193	C	0.584307	0.915347	0.596687
	C194	C	0.586718	0.100938	0.400782
	C195	C	0.392052	0.916101	0.402845
	C196	C	0.585992	0.410579	0.091954
	C197	C	0.586691	0.605191	0.908383
	C198	C	0.392068	0.605352	0.091909
	C199	C	0.391286	0.409249	0.908680
	C200	C	0.080675	0.605968	0.402806
	C201	C	0.894995	0.605676	0.598780
	C202	C	0.080332	0.412658	0.596949
	C203	C	0.894367	0.412074	0.402409
	C204	C	0.891322	0.601954	0.098400
	C205	C	0.084573	0.416365	0.098151
	C206	C	0.086593	0.602819	0.902864
	C207	C	0.893626	0.417333	0.903287
	C208	C	0.083414	0.913295	0.590909
	C209	C	0.085980	0.107018	0.407892
	C210	C	0.889173	0.108227	0.592005
	C211	C	0.889577	0.910324	0.409098
	C212	C	0.583205	0.105062	0.901499
	C213	C	0.396838	0.104029	0.097805
	C214	C	0.581531	0.912100	0.096049
	C215	C	0.396524	0.911295	0.902832
	Zn216	Zn	0.489565	0.007546	0.749415
	Zn217	Zn	0.489280	0.007249	0.249418
	Zn218	Zn	0.739525	0.508371	0.000340
	Zn219	Zn	0.238302	0.508385	0.000574
	Zn220	Zn	-0.012961	0.758212	0.500773
	Zn221	Zn	-0.012879	0.260693	0.499275
	Zn222	Zn	-0.011644	0.510479	0.750037
	Zn223	Zn	-0.012436	0.509718	0.250627
	Zn224	Zn	0.489506	0.758394	-0.000502
	Zn225	Zn	0.489455	0.256926	-0.000028
	Zn226	Zn	0.736993	0.008686	0.500337
	Zn227	Zn	0.239512	0.009132	0.499389
	N228	N	0.399618	0.973221	0.681457
	N229	N	0.576054	0.043675	0.679656
	N230	N	0.577196	0.972003	0.318511
	N231	N	0.402172	0.043783	0.319623
	N232	N	0.669593	0.420788	0.964592
	N233	N	0.667699	0.593676	0.036774
	N234	N	0.310061	0.593889	0.964258
	N235	N	0.307755	0.420414	0.036148
	N236	N	0.950447	0.685953	0.416223
	N237	N	0.024099	0.688739	0.586503
	N238	N	0.949968	0.331757	0.585079
	N239	N	0.024034	0.330886	0.413418
	N240	N	0.952250	0.422267	0.681080
	N241	N	0.024104	0.597866	0.680542
	N242	N	0.952462	0.597074	0.319903
	N243	N	0.023440	0.422343	0.319336
	N244	N	0.402398	0.688009	0.964400
	N245	N	0.576828	0.689043	0.035392
	N246	N	0.575626	0.328260	0.963991
	N247	N	0.401285	0.326852	0.036136
	N248	N	0.667091	0.971123	0.414155
	N249	N	0.664356	0.045685	0.583745
	N250	N	0.308662	0.972666	0.586381
	N251	N	0.310622	0.045251	0.413759
	N252	N	0.899604	0.474017	0.181627
	N253	N	0.074504	0.545521	0.179883
	N254	N	0.075953	0.474714	0.819452
	N255	N	0.901324	0.545749	0.820653
	N256	N	0.168088	0.922046	0.463829
	N257	N	0.168129	0.096394	0.535578
	N258	N	0.808895	0.094306	0.463382
	N259	N	0.807796	0.923287	0.537519
	N260	N	0.453446	0.185630	0.914198
	N261	N	0.526395	0.186526	0.085680
	N262	N	0.452200	0.829394	0.085099
	N263	N	0.526063	0.830121	0.914082
	N264	N	0.453177	0.920201	0.179921
	N265	N	0.525413	0.094924	0.179957
	N266	N	0.454556	0.095041	0.819343
	N267	N	0.524843	0.920451	0.818859
	N268	N	0.900772	0.189071	0.463531
	N269	N	0.073889	0.189654	0.535627
	N270	N	0.072449	0.830222	0.463498
	N271	N	0.898780	0.828038	0.537011
	N272	N	0.166740	0.472673	0.914463
	N273	N	0.167511	0.545271	0.086718
	N274	N	0.810629	0.471895	0.085505
	N275	N	0.811001	0.545984	0.915825
	O276	O	0.628876	0.673944	0.503219
	H277	H	0.630621	0.669336	0.504332
	H278	H	0.624732	0.665678	0.515903
	O279	O	0.293159	0.492516	0.624873
	H280	H	0.279996	0.473467	0.636785
	H281	H	0.293534	0.468564	0.630830
	O282	O	0.553352	0.319753	0.473269
	H283	H	0.554432	0.309980	0.461519
	H284	H	0.551335	0.321316	0.465001
	O285	O	1.111191	-0.049795	-0.168955
	H286	H	1.114850	-0.069864	-0.179746
	H287	H	1.130168	-0.051679	-0.170839
	O288	O	-0.078068	-0.137476	0.999436
	H289	H	-0.080868	-0.138337	1.008166
	H290	H	-0.080970	-0.134512	0.986135
	O291	O	0.343388	0.345210	0.618781
	H292	H	0.360984	0.343942	0.618111
	H293	H	0.326496	0.326838	0.642679
	O294	O	0.612278	0.448648	0.472425
	H295	H	0.605387	0.441083	0.473484
	H296	H	0.604183	0.453002	0.467475
	O297	O	0.873350	1.020053	0.906239
	H298	H	0.874209	1.026938	0.898086
	H299	H	0.879462	1.006408	0.897543
	O300	O	0.024696	0.192213	0.070300
	H301	H	0.015537	0.193262	0.068308
	H302	H	0.014976	0.200531	0.072518
	O303	O	0.506547	0.662682	0.621594
	H304	H	0.508784	0.661956	0.628905
	H305	H	0.498017	0.648539	0.615794
	O306	O	0.822185	-0.001209	0.040166
	H307	H	0.812934	-0.009760	0.044295
	H308	H	0.827267	-0.000642	0.031578
	O309	O	0.676267	0.633050	0.689307
	H310	H	0.677532	0.607261	0.701114
	H311	H	0.640440	0.625161	0.698776
	O312	O	1.113934	1.003837	-0.154163
	H313	H	1.113368	1.015096	-0.152019
	H314	H	1.116187	1.001920	-0.150647
	O315	O	0.577182	0.531677	0.633373
	H316	H	0.577157	0.537407	0.638652
	H317	H	0.576160	0.525318	0.630905
	O318	O	0.521231	0.577137	0.465879
	H319	H	0.529477	0.574464	0.455907
	H320	H	0.514501	0.583440	0.463105
	O321	O	1.119911	-0.056764	0.975355
	H322	H	1.120123	-0.041639	0.988982
	H323	H	1.124037	-0.067269	0.975992
	O324	O	-0.026543	0.132715	0.864325
	H325	H	-0.021884	0.141179	0.863224
	H326	H	-0.024611	0.133221	0.866649
	O327	O	0.530659	0.580387	0.357493
	H328	H	0.518379	0.596121	0.340235
	H329	H	0.518760	0.583054	0.355977
	O330	O	0.357026	0.467543	0.312136
	H331	H	0.366568	0.470994	0.321731
	H332	H	0.366518	0.463109	0.303926
	O333	O	1.517431	0.591457	1.355713
	H334	H	1.527098	0.599210	1.361462
	H335	H	1.517249	0.595184	1.346743
	O336	O	0.594162	0.659358	0.443891
	H337	H	0.607655	0.675203	0.449009
	H338	H	0.579092	0.667920	0.451211
	O339	O	1.045617	0.109853	0.847770
	H340	H	1.037043	0.106986	0.856580
	H341	H	1.043170	0.100851	0.848575
	O342	O	0.077177	0.888256	0.870216
	H343	H	0.085047	0.879811	0.854609
	H344	H	0.074282	0.889392	0.858273
	O345	O	-0.075077	1.037993	0.977090
	H346	H	-0.072322	1.032968	0.983103
	H347	H	-0.071488	1.025703	0.983438
	O348	O	0.290326	0.549665	0.522609
	H349	H	0.285774	0.540239	0.535337
	H350	H	0.289101	0.554539	0.526272
	O351	O	-0.096008	-0.092840	0.174450
	H352	H	-0.091760	-0.089103	0.164949
	H353	H	-0.096416	-0.104841	0.183264
	O354	O	0.908037	0.941392	0.184271
	H355	H	0.900612	0.928747	0.194192
	H356	H	0.905339	0.924830	0.192620
	O357	O	0.053716	0.899211	0.104093
	H358	H	0.058410	0.906539	0.109440
	H359	H	0.053554	0.895019	0.110034
	O360	O	0.481176	0.388887	0.357100
	H361	H	0.488981	0.390677	0.357378
	H362	H	0.480392	0.406489	0.353074
	O363	O	0.500335	0.568963	0.666422
	H364	H	0.497634	0.563027	0.651872
	H365	H	0.513580	0.544507	0.665991
	O366	O	0.537379	0.352896	0.679340
	H367	H	0.537743	0.357103	0.661612
	H368	H	0.541602	0.328988	0.674739
	O369	O	0.318713	0.629607	0.425697
	H370	H	0.322182	0.625532	0.431662
	H371	H	0.310455	0.602696	0.431854
	O372	O	0.471932	0.539051	0.376165
	H373	H	0.471423	0.553865	0.381979
	H374	H	0.480785	0.545670	0.378703
	O375	O	0.939255	-0.176990	0.015103
	H376	H	0.939952	-0.178972	0.022039
	H377	H	0.945142	-0.177214	0.006556
	O378	O	0.443012	0.455828	0.615505
	H379	H	0.449760	0.433447	0.615180
	H380	H	0.446384	0.456048	0.629428
	O381	O	0.431897	0.676989	0.531315
	H382	H	0.429705	0.680555	0.538272
	H383	H	0.431507	0.682043	0.521513
	O384	O	0.001868	0.993894	1.049810
	H385	H	0.008440	1.001898	1.065000
	H386	H	0.007785	0.994884	1.037732
	O387	O	1.021264	1.039492	0.173126
	H388	H	1.033613	1.048337	0.177922
	H389	H	1.017791	1.028725	0.177883
	O390	O	0.589720	0.536830	0.527358
	H391	H	0.599080	0.554754	0.536079
	H392	H	0.592067	0.541335	0.535200
	O393	O	1.681413	-0.638402	0.344858
	H394	H	1.682081	-0.631242	0.335538
	H395	H	1.688237	-0.634124	0.339122
	O396	O	0.147353	1.023515	1.156701
	H397	H	0.125150	1.044224	1.158818
	H398	H	0.154323	1.027562	1.182786
	O399	O	0.443759	0.596714	0.536120
	H400	H	0.431100	0.589456	0.531605
	H401	H	0.440606	0.603303	0.545099
	O402	O	1.034163	-0.003480	0.966990
	H403	H	1.041808	0.003000	0.967938
	H404	H	1.028521	-0.009172	0.970194
	O405	O	-0.007266	0.068718	0.030844
	H406	H	-0.004362	0.067705	0.049364
	H407	H	0.001897	0.054050	0.028568
	O408	O	0.925921	0.962880	0.887117
	H409	H	0.917130	0.952132	0.878439
	H410	H	0.924199	0.960309	0.897974
	O411	O	1.177597	1.199924	0.016691
	H412	H	1.168732	1.205895	0.019101
	H413	H	1.170949	1.211904	0.034761
	O414	O	-0.068875	0.098297	0.912330
	H415	H	-0.055293	0.102439	0.918862
	H416	H	-0.068885	0.087903	0.908642
	O417	O	0.429045	0.317966	0.459980
	H418	H	0.432019	0.329230	0.450826
	H419	H	0.423897	0.308811	0.473068
	O420	O	0.093672	1.187956	0.126192
	H421	H	0.102792	1.179650	0.133640
	H422	H	0.083646	1.191325	0.130428
	O423	O	1.448465	-0.523314	-0.639866
	H424	H	1.447693	-0.514569	-0.639734
	H425	H	1.457973	-0.521143	-0.648980
	O426	O	-0.086880	0.062440	1.122255
	H427	H	-0.098887	0.059551	1.114025
	H428	H	-0.084612	0.056872	1.127733
	O429	O	0.289049	0.311447	0.611666
	H430	H	0.298016	0.302064	0.617150
	H431	H	0.280354	0.297456	0.627545
