data_Molecule from HDF5

_cell_length_a		16.281310
_cell_length_b		16.224717
_cell_length_c		16.351355
_cell_angle_alpha	89.942076
_cell_angle_beta	89.842684
_cell_angle_gamma	90.138432
_symmetry_space_group_name_H-M	'P 1'
_symmetry_Int_Tables_number		1

loop_
	_symmetry_equiv_pos_as_xyz
	x,y,z

loop_
	_atom_site_label
	_atom_site_type_symbol
	_atom_site_fract_x
	_atom_site_fract_y
	_atom_site_fract_z
	H0	H	0.404468	0.844550	0.717250
	H1	H	0.605065	0.171237	0.715807
	H2	H	0.603463	0.843524	0.286085
	H3	H	0.405468	0.171729	0.285345
	H4	H	0.721009	0.409558	0.837554
	H5	H	0.719914	0.606692	0.163600
	H6	H	0.291575	0.607232	0.837600
	H7	H	0.288886	0.408307	0.163150
	H8	H	0.841476	0.722491	0.402709
	H9	H	0.169576	0.721539	0.596486
	H10	H	0.842445	0.292595	0.599900
	H11	H	0.169767	0.295267	0.402488
	H12	H	0.842430	0.407867	0.716066
	H13	H	0.168735	0.608733	0.715576
	H14	H	0.841685	0.606787	0.285564
	H15	H	0.167913	0.407873	0.283256
	H16	H	0.407895	0.723141	0.838050
	H17	H	0.602746	0.722612	0.164104
	H18	H	0.604561	0.293410	0.837460
	H19	H	0.406353	0.293262	0.163961
	H20	H	0.719434	0.843517	0.402719
	H21	H	0.719658	0.171713	0.599567
	H22	H	0.290795	0.843736	0.599909
	H23	H	0.291383	0.172223	0.402315
	H24	H	0.904637	0.344210	0.216565
	H25	H	0.105136	0.671474	0.215714
	H26	H	0.104076	0.343960	0.786151
	H27	H	0.907198	0.672159	0.786757
	H28	H	0.221627	0.908711	0.338693
	H29	H	0.219953	0.106718	0.664588
	H30	H	0.789600	0.107714	0.338099
	H31	H	0.789386	0.908022	0.664643
	H32	H	0.341103	0.221892	0.902631
	H33	H	0.669464	0.221593	0.096255
	H34	H	0.340721	0.793172	0.099925
	H35	H	0.668702	0.795019	0.902906
	H36	H	0.341591	0.908414	0.216769
	H37	H	0.667898	0.109692	0.216882
	H38	H	0.342046	0.107149	0.785335
	H39	H	0.668419	0.909153	0.786302
	H40	H	0.907672	0.223875	0.338067
	H41	H	0.103689	0.222933	0.664461
	H42	H	0.103672	0.794898	0.337638
	H43	H	0.905649	0.791370	0.663708
	H44	H	0.219702	0.344193	0.901704
	H45	H	0.218609	0.672355	0.097822
	H46	H	0.789332	0.343909	0.100288
	H47	H	0.791748	0.672155	0.902551
	H48	H	0.422552	0.126287	0.608392
	H49	H	0.600264	0.886913	0.601456
	H50	H	0.595513	0.123788	0.409983
	H51	H	0.411149	0.892217	0.412808
	H52	H	0.591533	0.411709	0.115406
	H53	H	0.596743	0.603368	0.884683
	H54	H	0.422165	0.607157	0.115527
	H55	H	0.402897	0.410235	0.880097
	H56	H	0.124020	0.606649	0.404325
	H57	H	0.891018	0.588833	0.597162
	H58	H	0.123751	0.414296	0.596468
	H59	H	0.886850	0.415949	0.400321
	H60	H	0.121876	0.414320	0.590391
	H61	H	0.885078	0.606546	0.601341
	H62	H	0.119816	0.601082	0.411450
	H63	H	0.888700	0.409286	0.413080
	H64	H	0.402064	0.607174	0.121316
	H65	H	0.601432	0.602937	0.883709
	H66	H	0.603675	0.414068	0.118232
	H67	H	0.412306	0.426405	0.887837
	H68	H	0.600696	0.124336	0.409178
	H69	H	0.587618	0.893770	0.594040
	H70	H	0.419700	0.118196	0.578589
	H71	H	0.410061	0.890103	0.405374
	H72	H	0.910048	0.623145	0.086870
	H73	H	0.091380	0.392479	0.095272
	H74	H	0.094696	0.625165	0.902850
	H75	H	0.895892	0.388431	0.914959
	H76	H	0.098861	0.915309	0.616993
	H77	H	0.101045	0.104950	0.383526
	H78	H	0.905296	0.092697	0.616234
	H79	H	0.911961	0.905406	0.382600
	H80	H	0.617571	0.092829	0.911475
	H81	H	0.386485	0.095149	0.106146
	H82	H	0.621254	0.915008	0.094992
	H83	H	0.386896	0.917549	0.901396
	H84	H	0.620393	0.915797	0.091129
	H85	H	0.385390	0.113142	0.092739
	H86	H	0.624442	0.101124	0.898767
	H87	H	0.386924	0.909326	0.910945
	H88	H	0.921088	0.099258	0.612941
	H89	H	0.102347	0.097229	0.386483
	H90	H	0.097254	0.915239	0.616228
	H91	H	0.902205	0.920181	0.384609
	H92	H	0.097048	0.622854	0.911978
	H93	H	0.097670	0.393130	0.086778
	H94	H	0.910127	0.626257	0.097748
	H95	H	0.915189	0.386955	0.889622
	H96	H	0.395603	0.129986	0.593807
	H97	H	0.602214	0.891781	0.585700
	H98	H	0.597754	0.124811	0.405212
	H99	H	0.417335	0.891989	0.407005
	H100	H	0.596411	0.422896	0.113489
	H101	H	0.598839	0.599504	0.885641
	H102	H	0.410471	0.589287	0.114033
	H103	H	0.421791	0.409018	0.886440
	H104	H	0.121059	0.597250	0.402923
	H105	H	0.891412	0.602763	0.584153
	H106	H	0.120697	0.419787	0.593788
	H107	H	0.892443	0.423280	0.411335
	H108	H	0.919474	0.622671	0.092946
	H109	H	0.101158	0.389005	0.096190
	H110	H	0.103923	0.627502	0.905495
	H111	H	0.926082	0.397727	0.917673
	H112	H	0.098139	0.913623	0.617611
	H113	H	0.095139	0.100790	0.386837
	H114	H	0.909242	0.109401	0.620327
	H115	H	0.919681	0.921098	0.389244
	H116	H	0.621786	0.108928	0.913118
	H117	H	0.393737	0.093444	0.084930
	H118	H	0.620879	0.918121	0.094301
	H119	H	0.391785	0.920995	0.912521
	C120	C	0.383621	0.016479	0.622685
	C121	C	0.625959	0.999142	0.622270
	C122	C	0.626685	0.016209	0.379079
	C123	C	0.384303	0.999707	0.380032
	C124	C	0.626686	0.387034	0.008408
	C125	C	0.627513	0.630796	0.992326
	C126	C	0.383773	0.629749	0.008866
	C127	C	0.383392	0.386392	0.992408
	C128	C	0.013534	0.629907	0.378269
	C129	C	0.997186	0.629235	0.622146
	C130	C	0.014159	0.386952	0.622503
	C131	C	0.997082	0.386775	0.379136
	C132	C	0.883422	0.516067	0.122114
	C133	C	0.126101	0.499624	0.121246
	C134	C	0.127590	0.516745	0.878051
	C135	C	0.884292	0.499668	0.879442
	C136	C	0.127058	0.886437	0.509326
	C137	C	0.127428	0.129905	0.493148
	C138	C	0.883319	0.129720	0.509072
	C139	C	0.883015	0.886275	0.493224
	C140	C	0.513331	0.129812	0.878953
	C141	C	0.496482	0.129908	0.122876
	C142	C	0.512837	0.887009	0.122584
	C143	C	0.496666	0.887264	0.879503
	C144	C	0.385367	0.893139	0.678244
	C145	C	0.624822	0.122495	0.677674
	C146	C	0.624278	0.892566	0.323704
	C147	C	0.385823	0.122957	0.323995
	C148	C	0.682617	0.389326	0.886126
	C149	C	0.682067	0.627255	0.115040
	C150	C	0.328885	0.627767	0.886435
	C151	C	0.327582	0.388386	0.114904
	C152	C	0.890480	0.684931	0.381548
	C153	C	0.120521	0.684285	0.618002
	C154	C	0.891147	0.331060	0.619973
	C155	C	0.120493	0.332154	0.381281
	C156	C	0.891175	0.388202	0.677958
	C157	C	0.120161	0.628471	0.677324
	C158	C	0.890349	0.627453	0.323539
	C159	C	0.119833	0.388711	0.322728
	C160	C	0.387057	0.685080	0.886414
	C161	C	0.623949	0.684965	0.115333
	C162	C	0.624645	0.331713	0.885974
	C163	C	0.385746	0.331166	0.115210
	C164	C	0.681632	0.892488	0.381653
	C165	C	0.681647	0.122702	0.619935
	C166	C	0.328570	0.892811	0.620328
	C167	C	0.328984	0.123203	0.382033
	C168	C	0.884384	0.393071	0.178410
	C169	C	0.124556	0.622842	0.176911
	C170	C	0.124906	0.393188	0.823414
	C171	C	0.886484	0.622906	0.824165
	C172	C	0.182868	0.889182	0.386984
	C173	C	0.182203	0.127464	0.615890
	C174	C	0.828115	0.127763	0.386543
	C175	C	0.827880	0.888099	0.615898
	C176	C	0.390085	0.184560	0.882020
	C177	C	0.620208	0.184531	0.118292
	C178	C	0.389735	0.831192	0.120198
	C179	C	0.619777	0.832363	0.882174
	C180	C	0.390042	0.888602	0.178065
	C181	C	0.619544	0.128500	0.177843
	C182	C	0.390670	0.127770	0.823327
	C183	C	0.619687	0.889225	0.824368
	C184	C	0.886516	0.185532	0.386681
	C185	C	0.124363	0.185092	0.615830
	C186	C	0.124448	0.832066	0.386487
	C187	C	0.885656	0.830315	0.615532
	C188	C	0.182181	0.393150	0.881015
	C189	C	0.180999	0.623313	0.118373
	C190	C	0.827326	0.392951	0.120533
	C191	C	0.829351	0.622943	0.881878
	C192	C	0.406022	0.102719	0.600275
	C193	C	0.603537	0.913082	0.600134
	C194	C	0.604564	0.102101	0.401376
	C195	C	0.406504	0.913750	0.401879
	C196	C	0.603923	0.409676	0.093777
	C197	C	0.605463	0.608590	0.906891
	C198	C	0.405120	0.607687	0.094674
	C199	C	0.405844	0.408689	0.907036
	C200	C	0.099334	0.608100	0.399818
	C201	C	0.911354	0.606183	0.600566
	C202	C	0.099977	0.409575	0.600304
	C203	C	0.911516	0.409445	0.401742
	C204	C	0.906529	0.601802	0.099311
	C205	C	0.103511	0.413575	0.099102
	C206	C	0.105346	0.602908	0.900397
	C207	C	0.906164	0.413326	0.901127
	C208	C	0.104697	0.908374	0.594987
	C209	C	0.105778	0.107786	0.407714
	C210	C	0.905343	0.107106	0.594407
	C211	C	0.904902	0.908897	0.407559
	C212	C	0.599099	0.107514	0.901155
	C213	C	0.410699	0.107163	0.101224
	C214	C	0.598740	0.909782	0.100198
	C215	C	0.410724	0.909379	0.901794
	Zn216	Zn	0.505342	0.007811	0.750627
	Zn217	Zn	0.504886	0.007794	0.251158
	Zn218	Zn	0.755813	0.508017	0.000479
	Zn219	Zn	0.254859	0.508000	0.000260
	Zn220	Zn	0.005280	0.757842	0.500849
	Zn221	Zn	0.006175	0.258844	0.500821
	Zn222	Zn	0.005874	0.508086	0.750968
	Zn223	Zn	0.004886	0.507962	0.250063
	Zn224	Zn	0.504990	0.759223	0.000928
	Zn225	Zn	0.504914	0.258381	0.000933
	Zn226	Zn	0.754219	0.007493	0.501293
	Zn227	Zn	0.256035	0.008209	0.501450
	N228	N	0.419035	0.971006	0.679720
	N229	N	0.590917	0.044654	0.679325
	N230	N	0.590894	0.970460	0.322080
	N231	N	0.419588	0.045243	0.322610
	N232	N	0.683771	0.423120	0.963232
	N233	N	0.684288	0.594260	0.037529
	N234	N	0.326864	0.593989	0.963575
	N235	N	0.325954	0.422022	0.037491
	N236	N	0.968044	0.686538	0.414833
	N237	N	0.043109	0.684926	0.584431
	N238	N	0.968535	0.330280	0.585971
	N239	N	0.043215	0.330815	0.415496
	N240	N	0.968643	0.422311	0.679521
	N241	N	0.042601	0.594653	0.679782
	N242	N	0.967844	0.594057	0.321270
	N243	N	0.042094	0.421912	0.321083
	N244	N	0.420469	0.686413	0.963572
	N245	N	0.590753	0.687429	0.038110
	N246	N	0.590666	0.330192	0.963073
	N247	N	0.419444	0.329812	0.038104
	N248	N	0.683294	0.970183	0.415368
	N249	N	0.682252	0.045267	0.585780
	N250	N	0.327394	0.970460	0.586552
	N251	N	0.327862	0.045677	0.416113
	N252	N	0.918580	0.470728	0.179582
	N253	N	0.091053	0.544940	0.178926
	N254	N	0.091814	0.471123	0.821476
	N255	N	0.920155	0.545233	0.822696
	N256	N	0.184436	0.922354	0.464400
	N257	N	0.184213	0.093841	0.538655
	N258	N	0.826064	0.093812	0.463729
	N259	N	0.826105	0.922013	0.538893
	N260	N	0.467277	0.185920	0.916115
	N261	N	0.542813	0.185525	0.084858
	N262	N	0.467256	0.830253	0.086243
	N263	N	0.542372	0.831144	0.916005
	N264	N	0.467535	0.922535	0.179494
	N265	N	0.541593	0.095508	0.180979
	N266	N	0.468307	0.094587	0.821235
	N267	N	0.541981	0.922534	0.822521
	N268	N	0.920307	0.186659	0.463666
	N269	N	0.090982	0.186590	0.538682
	N270	N	0.090595	0.830264	0.463574
	N271	N	0.919463	0.829249	0.538223
	N272	N	0.183820	0.470927	0.914497
	N273	N	0.181946	0.545751	0.084469
	N274	N	0.826565	0.470460	0.086419
	N275	N	0.827810	0.545210	0.915531
	O276	O	0.545460	0.425365	0.475040
	H277	H	0.543204	0.432350	0.481548
	H278	H	0.546640	0.421233	0.476294
	O279	O	-0.031351	0.003333	0.065176
	H280	H	-0.019192	0.000772	0.075428
	H281	H	-0.034755	0.002049	0.067308
	O282	O	0.494137	0.469622	0.522905
	H283	H	0.493058	0.476510	0.519165
	H284	H	0.500105	0.468684	0.515640
	O285	O	0.474500	0.494131	0.439202
	H286	H	0.472516	0.491179	0.446709
	H287	H	0.474473	0.506869	0.444340
	O288	O	0.958259	-0.007378	0.072684
	H289	H	0.958909	-0.005467	0.073295
	H290	H	0.956765	-0.007377	0.074738
	O291	O	-0.492311	0.452298	-0.558430
	H292	H	-0.490626	0.449832	-0.560846
	H293	H	-0.482272	0.446606	-0.571965
	O294	O	0.589382	0.447631	0.504235
	H295	H	0.583026	0.445887	0.499677
	H296	H	0.589494	0.440590	0.505823
	O297	O	0.020688	0.961296	0.132311
	H298	H	0.022216	0.948891	0.147223
	H299	H	0.010412	0.964268	0.121457
	O300	O	0.972125	-0.040075	1.095292
	H301	H	0.959847	-0.032482	1.089003
	H302	H	0.973657	-0.036472	1.096072
	O303	O	0.532108	0.488853	0.490454
	H304	H	0.533860	0.477773	0.494299
	H305	H	0.540283	0.486456	0.498345
	O306	O	-0.002535	0.994486	1.089228
	H307	H	-0.000066	0.991954	1.093900
	H308	H	0.000979	0.996335	1.091601
	O309	O	0.508285	0.447038	0.511025
	H310	H	0.501345	0.438338	0.514433
	H311	H	0.502689	0.447911	0.505033
