data_Molecule from HDF5

_cell_length_a		16.394133
_cell_length_b		16.317313
_cell_length_c		16.511105
_cell_angle_alpha	90.133939
_cell_angle_beta	89.798591
_cell_angle_gamma	89.910418
_symmetry_space_group_name_H-M	'P 1'
_symmetry_Int_Tables_number		1

loop_
	_symmetry_equiv_pos_as_xyz
	x,y,z

loop_
	_atom_site_label
	_atom_site_type_symbol
	_atom_site_fract_x
	_atom_site_fract_y
	_atom_site_fract_z
	H0	H	0.391141	0.848928	0.714616
	H1	H	0.606904	0.164642	0.716146
	H2	H	0.612704	0.851022	0.265140
	H3	H	0.394868	0.166246	0.271744
	H4	H	0.724181	0.398593	0.834568
	H5	H	0.720849	0.612022	0.149836
	H6	H	0.277098	0.611757	0.836548
	H7	H	0.272664	0.395006	0.147607
	H8	H	0.842066	0.731127	0.386047
	H9	H	0.158386	0.726823	0.595650
	H10	H	0.841009	0.285201	0.598572
	H11	H	0.158238	0.285116	0.385809
	H12	H	0.842422	0.398305	0.717711
	H13	H	0.156935	0.615103	0.715858
	H14	H	0.840567	0.615331	0.270463
	H15	H	0.153454	0.392905	0.263108
	H16	H	0.392245	0.727785	0.836037
	H17	H	0.605738	0.729809	0.148683
	H18	H	0.606710	0.284554	0.833604
	H19	H	0.394894	0.284771	0.150403
	H20	H	0.726224	0.850072	0.381614
	H21	H	0.720148	0.165546	0.599681
	H22	H	0.279727	0.846967	0.596244
	H23	H	0.280297	0.166722	0.388363
	H24	H	0.885957	0.349478	0.218217
	H25	H	0.104996	0.664158	0.215290
	H26	H	0.111524	0.350723	0.764718
	H27	H	0.894045	0.665538	0.772465
	H28	H	0.226499	0.895292	0.336279
	H29	H	0.221320	0.112696	0.650132
	H30	H	0.774362	0.117368	0.336868
	H31	H	0.772121	0.897088	0.648165
	H32	H	0.340661	0.228106	0.888689
	H33	H	0.658710	0.229099	0.098562
	H34	H	0.340854	0.786074	0.097037
	H35	H	0.657744	0.782876	0.883138
	H36	H	0.344115	0.896858	0.217650
	H37	H	0.656893	0.117275	0.217690
	H38	H	0.340969	0.114092	0.771259
	H39	H	0.655773	0.896005	0.764662
	H40	H	0.892773	0.230460	0.335601
	H41	H	0.106530	0.230360	0.649517
	H42	H	0.107108	0.782044	0.335455
	H43	H	0.891211	0.783274	0.650073
	H44	H	0.224161	0.348749	0.883037
	H45	H	0.220330	0.664580	0.099387
	H46	H	0.777012	0.347448	0.097956
	H47	H	0.779590	0.665660	0.888005
	H48	H	0.407890	0.122170	0.580848
	H49	H	0.587928	0.891562	0.581906
	H50	H	0.595393	0.122737	0.406671
	H51	H	0.414247	0.892011	0.399945
	H52	H	0.581308	0.422552	0.100031
	H53	H	0.590913	0.597571	0.876916
	H54	H	0.414950	0.598297	0.105597
	H55	H	0.406559	0.415285	0.876525
	H56	H	0.108382	0.587718	0.408012
	H57	H	0.883431	0.599956	0.584112
	H58	H	0.112180	0.423048	0.582631
	H59	H	0.885594	0.418350	0.403167
	H60	H	0.113998	0.415680	0.580956
	H61	H	0.888539	0.593233	0.577277
	H62	H	0.111788	0.589246	0.397403
	H63	H	0.887078	0.417044	0.408038
	H64	H	0.406119	0.595930	0.107094
	H65	H	0.592910	0.589575	0.879412
	H66	H	0.588283	0.409631	0.106281
	H67	H	0.411494	0.424819	0.882347
	H68	H	0.583161	0.122296	0.395751
	H69	H	0.579574	0.895362	0.579376
	H70	H	0.411530	0.122639	0.584453
	H71	H	0.416273	0.895018	0.405787
	H72	H	0.911862	0.619814	0.082587
	H73	H	0.080804	0.396142	0.074034
	H74	H	0.084789	0.621210	0.898010
	H75	H	0.910743	0.392425	0.904716
	H76	H	0.096021	0.924520	0.605073
	H77	H	0.087860	0.091668	0.381110
	H78	H	0.911550	0.099799	0.606052
	H79	H	0.914581	0.917929	0.381707
	H80	H	0.612673	0.095449	0.902619
	H81	H	0.388712	0.092180	0.079762
	H82	H	0.612893	0.915102	0.074257
	H83	H	0.389795	0.920450	0.909602
	H84	H	0.610348	0.924448	0.076264
	H85	H	0.388376	0.092864	0.081721
	H86	H	0.611689	0.092632	0.904088
	H87	H	0.385748	0.922842	0.895182
	H88	H	0.905691	0.092992	0.605589
	H89	H	0.087566	0.098688	0.379303
	H90	H	0.081067	0.920107	0.600676
	H91	H	0.911259	0.919705	0.381460
	H92	H	0.083453	0.617117	0.909821
	H93	H	0.088678	0.392290	0.076432
	H94	H	0.909985	0.620433	0.081417
	H95	H	0.915292	0.392347	0.901734
	H96	H	0.412256	0.119722	0.579770
	H97	H	0.586770	0.895354	0.573125
	H98	H	0.580536	0.115987	0.410982
	H99	H	0.409207	0.892805	0.405303
	H100	H	0.596506	0.423266	0.104991
	H101	H	0.584874	0.592975	0.881580
	H102	H	0.412100	0.590396	0.103529
	H103	H	0.417574	0.414857	0.881059
	H104	H	0.112651	0.597779	0.405109
	H105	H	0.885854	0.590328	0.587331
	H106	H	0.110491	0.420241	0.575816
	H107	H	0.887084	0.422606	0.406378
	H108	H	0.910189	0.620970	0.083547
	H109	H	0.082016	0.392310	0.082665
	H110	H	0.094613	0.621889	0.906090
	H111	H	0.915059	0.393990	0.906946
	H112	H	0.090773	0.909363	0.607626
	H113	H	0.093811	0.094966	0.378463
	H114	H	0.913878	0.092357	0.602029
	H115	H	0.914303	0.921557	0.383715
	H116	H	0.613043	0.092888	0.901351
	H117	H	0.388117	0.094475	0.080239
	H118	H	0.614220	0.918881	0.083201
	H119	H	0.382862	0.909393	0.901776
	C120	C	0.378015	0.016120	0.613416
	C121	C	0.618798	0.998312	0.612289
	C122	C	0.621811	0.016266	0.370261
	C123	C	0.379603	0.998040	0.371227
	C124	C	0.622772	0.384080	0.000475
	C125	C	0.621302	0.627080	0.983296
	C126	C	0.378581	0.626986	0.001414
	C127	C	0.378026	0.384308	0.983625
	C128	C	0.006778	0.626424	0.371345
	C129	C	0.991170	0.627396	0.614338
	C130	C	0.008087	0.386079	0.613841
	C131	C	0.990255	0.384457	0.370487
	C132	C	0.876707	0.515400	0.115108
	C133	C	0.118538	0.497598	0.112573
	C134	C	0.122203	0.515964	0.870101
	C135	C	0.880092	0.497801	0.872054
	C136	C	0.122518	0.884127	0.500691
	C137	C	0.121767	0.128178	0.483746
	C138	C	0.877516	0.128865	0.500926
	C139	C	0.877694	0.885059	0.484695
	C140	C	0.507834	0.127279	0.871119
	C141	C	0.492273	0.127781	0.113654
	C142	C	0.508558	0.885474	0.112740
	C143	C	0.490498	0.883898	0.868715
	C144	C	0.374334	0.896324	0.673894
	C145	C	0.623380	0.117201	0.674927
	C146	C	0.628730	0.898051	0.306731
	C147	C	0.376905	0.118220	0.311478
	C148	C	0.684068	0.380806	0.881993
	C149	C	0.681091	0.630458	0.102247
	C150	C	0.317434	0.629971	0.883544
	C151	C	0.314393	0.378563	0.100741
	C152	C	0.888747	0.689421	0.368716
	C153	C	0.110662	0.687592	0.615258
	C154	C	0.888969	0.324997	0.616924
	C155	C	0.109672	0.323892	0.366832
	C156	C	0.889597	0.381601	0.676028
	C157	C	0.109810	0.631936	0.674972
	C158	C	0.888247	0.631605	0.310887
	C159	C	0.107176	0.377786	0.305748
	C160	C	0.375316	0.687456	0.883095
	C161	C	0.623450	0.688746	0.101745
	C162	C	0.625592	0.323723	0.881585
	C163	C	0.375546	0.323875	0.102363
	C164	C	0.685432	0.897881	0.364893
	C165	C	0.679790	0.117920	0.616736
	C166	C	0.318992	0.895237	0.614677
	C167	C	0.319558	0.118328	0.369382
	C168	C	0.870205	0.396831	0.177148
	C169	C	0.122968	0.616307	0.175076
	C170	C	0.128048	0.397633	0.806444
	C171	C	0.876381	0.617741	0.812199
	C172	C	0.185056	0.878931	0.383310
	C173	C	0.181608	0.131054	0.602604
	C174	C	0.815483	0.133692	0.383756
	C175	C	0.813778	0.880200	0.601511
	C176	C	0.388739	0.188519	0.869613
	C177	C	0.610936	0.189482	0.116861
	C178	C	0.389226	0.824913	0.115868
	C179	C	0.609640	0.822417	0.865038
	C180	C	0.390889	0.880337	0.175950
	C181	C	0.609991	0.133317	0.176211
	C182	C	0.388735	0.131560	0.811107
	C183	C	0.608789	0.879431	0.806218
	C184	C	0.874777	0.190204	0.382991
	C185	C	0.124191	0.189454	0.602310
	C186	C	0.125573	0.822236	0.382644
	C187	C	0.873042	0.823183	0.602439
	C188	C	0.184038	0.396657	0.865567
	C189	C	0.180508	0.616603	0.117294
	C190	C	0.815691	0.395799	0.117173
	C191	C	0.819482	0.617775	0.869803
	C192	C	0.403095	0.099822	0.588723
	C193	C	0.592409	0.915676	0.585699
	C194	C	0.594204	0.098645	0.396884
	C195	C	0.405600	0.914863	0.396342
	C196	C	0.596374	0.410749	0.082446
	C197	C	0.596702	0.600906	0.900924
	C198	C	0.403833	0.601948	0.083857
	C199	C	0.404344	0.410653	0.901431
	C200	C	0.089534	0.599279	0.396529
	C201	C	0.907636	0.601821	0.589889
	C202	C	0.090767	0.412259	0.587509
	C203	C	0.908200	0.411420	0.397864
	C204	C	0.903104	0.598640	0.089634
	C205	C	0.091683	0.415148	0.085426
	C206	C	0.095379	0.598435	0.896728
	C207	C	0.906116	0.414700	0.897222
	C208	C	0.096666	0.910280	0.582994
	C209	C	0.096959	0.102513	0.401368
	C210	C	0.903046	0.102619	0.583213
	C211	C	0.905453	0.912012	0.403299
	C212	C	0.591011	0.101061	0.895498
	C213	C	0.409720	0.100872	0.087766
	C214	C	0.590991	0.912003	0.085756
	C215	C	0.407754	0.909843	0.894751
	Zn216	Zn	0.498884	0.007002	0.741046
	Zn217	Zn	0.500531	0.006167	0.242042
	Zn218	Zn	0.751167	0.506325	-0.008323
	Zn219	Zn	0.249070	0.506272	-0.007079
	Zn220	Zn	-0.000402	0.755512	0.492951
	Zn221	Zn	0.000028	0.257116	0.492570
	Zn222	Zn	-0.000118	0.507082	0.743219
	Zn223	Zn	-0.001872	0.505541	0.241729
	Zn224	Zn	0.499651	0.756490	-0.008178
	Zn225	Zn	0.500658	0.256306	-0.007909
	Zn226	Zn	0.748300	0.007667	0.492785
	Zn227	Zn	0.250747	0.006810	0.492345
	N228	N	0.410210	0.972316	0.673469
	N229	N	0.586178	0.041733	0.672425
	N230	N	0.589888	0.972545	0.309814
	N231	N	0.413319	0.042249	0.312247
	N232	N	0.682735	0.417349	0.957180
	N233	N	0.680075	0.592986	0.027566
	N234	N	0.319521	0.592905	0.958073
	N235	N	0.315600	0.415309	0.025857
	N236	N	0.963624	0.686275	0.405728
	N237	N	0.035720	0.684911	0.578286
	N238	N	0.963845	0.327425	0.579178
	N239	N	0.035939	0.327722	0.406455
	N240	N	0.964934	0.418430	0.674523
	N241	N	0.034472	0.595221	0.674258
	N242	N	0.962869	0.593155	0.312428
	N243	N	0.031870	0.414879	0.308045
	N244	N	0.412411	0.686076	0.957526
	N245	N	0.587095	0.686821	0.026866
	N246	N	0.588274	0.325564	0.956191
	N247	N	0.414215	0.327258	0.028439
	N248	N	0.681351	0.972561	0.403609
	N249	N	0.677414	0.043012	0.578644
	N250	N	0.321043	0.970754	0.577825
	N251	N	0.320973	0.042661	0.405715
	N252	N	0.907159	0.472393	0.176050
	N253	N	0.085463	0.541087	0.172494
	N254	N	0.090459	0.472721	0.809148
	N255	N	0.913247	0.542032	0.813343
	N256	N	0.183095	0.916654	0.457719
	N257	N	0.180314	0.093512	0.527990
	N258	N	0.817259	0.096189	0.458158
	N259	N	0.816494	0.917866	0.527190
	N260	N	0.463775	0.185910	0.906182
	N261	N	0.536699	0.185944	0.078482
	N262	N	0.463573	0.827907	0.077518
	N263	N	0.534993	0.825011	0.903169
	N264	N	0.466428	0.916971	0.174352
	N265	N	0.535129	0.095556	0.174271
	N266	N	0.463923	0.094191	0.811835
	N267	N	0.533711	0.916937	0.808277
	N268	N	0.912765	0.187180	0.456959
	N269	N	0.087689	0.187763	0.527546
	N270	N	0.087088	0.825466	0.456679
	N271	N	0.912231	0.826160	0.528791
	N272	N	0.180767	0.471122	0.904494
	N273	N	0.178073	0.541441	0.079355
	N274	N	0.819170	0.470735	0.079634
	N275	N	0.821649	0.542254	0.906503
	O276	O	-0.200755	1.021919	-0.212886
	H277	H	-0.208360	0.991776	-0.188460
	H278	H	-0.209062	1.016293	-0.230308
	O279	O	0.647117	0.560055	0.381289
	H280	H	0.635571	0.561997	0.377869
	H281	H	0.648429	0.567091	0.380029
	O282	O	-0.208929	-0.012533	0.201542
	H283	H	-0.231735	-0.008493	0.237024
	H284	H	-0.181718	0.009848	0.200255
	O285	O	1.195793	0.966497	0.000090
	H286	H	1.192728	0.974980	0.000592
	H287	H	1.206293	0.980698	0.015867
	O288	O	0.689121	0.311798	0.425622
	H289	H	0.685246	0.292647	0.409100
	H290	H	0.683493	0.309187	0.428900
	O291	O	0.700964	0.511043	0.665253
	H292	H	0.728860	0.508878	0.667423
	H293	H	0.696809	0.481356	0.643585
	O294	O	1.032699	1.220552	0.864610
	H295	H	1.032927	1.231763	0.836091
	H296	H	1.006212	1.203565	0.854165
	O297	O	0.414804	0.711835	0.529963
	H298	H	0.422859	0.702996	0.551492
	H299	H	0.420909	0.713902	0.552943
	O300	O	0.280572	0.522567	0.273556
	H301	H	0.293412	0.568636	0.281116
	H302	H	0.247860	0.533916	0.243885
	O303	O	1.013447	0.214738	1.201181
	H304	H	1.010423	0.233732	1.223635
	H305	H	0.998167	0.221530	1.176266
	O306	O	0.211180	0.220439	1.018266
	H307	H	0.231766	0.243185	1.008995
	H308	H	0.190846	0.235522	0.994571
	O309	O	0.369322	-0.554000	0.472836
	H310	H	0.352402	-0.554218	0.483060
	H311	H	0.369116	-0.537143	0.452154
	O312	O	0.706452	0.456050	0.289321
	H313	H	0.695325	0.445630	0.298827
	H314	H	0.734950	0.457160	0.261355
	O315	O	0.335747	0.667381	0.313671
	H316	H	0.324299	0.679307	0.366185
	H317	H	0.386852	0.668287	0.308646
	O318	O	-0.207521	-0.203489	0.013470
	H319	H	-0.216248	-0.212939	0.048115
	H320	H	-0.219853	-0.210142	0.035863
	O321	O	0.456850	0.463660	0.342630
	H322	H	0.476753	0.466623	0.337411
	H323	H	0.448630	0.441190	0.344994
	O324	O	1.203737	-0.017791	0.782769
	H325	H	1.211296	-0.026547	0.778183
	H326	H	1.216794	-0.020817	0.787995
	O327	O	1.028212	-0.160590	0.995279
	H328	H	1.020779	-0.166909	0.989151
	H329	H	1.010997	-0.157189	0.996604
	O330	O	-0.005950	1.228691	0.998666
	H331	H	-0.020348	1.227340	1.000531
	H332	H	0.013938	1.212647	0.969262
	O333	O	-0.012747	0.979225	-0.188263
	H334	H	-0.004248	0.969598	-0.197299
	H335	H	-0.015610	0.967563	-0.196979
	O336	O	0.785258	1.218982	-0.030774
	H337	H	0.781751	1.230930	-0.022195
	H338	H	0.763576	1.221467	-0.020681
	O339	O	0.107997	1.003196	0.961381
	H340	H	0.133226	0.997816	0.966464
	H341	H	0.099410	0.997169	0.934391
	O342	O	0.491499	0.335212	0.486576
	H343	H	0.477396	0.333953	0.490293
	H344	H	0.492135	0.350407	0.491003
	O345	O	-0.120374	-0.063510	0.851965
	H346	H	-0.108167	-0.065960	0.865353
	H347	H	-0.105106	-0.075400	0.864282
	O348	O	0.309637	0.583979	0.620978
	H349	H	0.306676	0.576194	0.641427
	H350	H	0.316288	0.589869	0.608017
	O351	O	1.014102	1.158559	-0.216291
	H352	H	0.996832	1.146119	-0.229257
	H353	H	0.985654	1.178952	-0.227300
	O354	O	0.992646	0.802134	1.180984
	H355	H	1.007708	0.805505	1.183630
	H356	H	1.009471	0.806127	1.194006
	O357	O	0.063958	-0.059378	0.204634
	H358	H	0.105390	-0.040927	0.209241
	H359	H	0.054096	-0.053143	0.189442
	O360	O	0.402800	0.386267	0.378773
	H361	H	0.390970	0.391401	0.390012
	H362	H	0.385001	0.399550	0.371225
	O363	O	1.049437	-0.071973	0.017737
	H364	H	1.046373	-0.069360	0.013176
	H365	H	1.046191	-0.070148	0.013016
	O366	O	-0.694958	-0.579042	1.671039
	H367	H	-0.672210	-0.575076	1.673012
	H368	H	-0.699957	-0.572399	1.688437
	O369	O	1.178150	0.182243	1.177748
	H370	H	1.184491	0.193600	1.128192
	H371	H	1.135229	0.197412	1.183562
	O372	O	0.516430	0.418371	0.614613
	H373	H	0.507559	0.417846	0.599411
	H374	H	0.518281	0.404432	0.619572
	O375	O	0.140452	-0.123212	0.952767
	H376	H	0.146503	-0.115445	0.957453
	H377	H	0.135513	-0.113255	0.971214
	O378	O	0.531972	0.494433	0.501592
	H379	H	0.502613	0.488300	0.508302
	H380	H	0.549315	0.505170	0.490424
	O381	O	0.511278	0.683189	0.708100
	H382	H	0.558372	0.666812	0.696437
	H383	H	0.510279	0.708779	0.740589
	O384	O	0.348067	0.420396	0.538022
	H385	H	0.346472	0.405118	0.524766
	H386	H	0.323596	0.450979	0.542343
	O387	O	0.571570	0.319827	0.299163
	H388	H	0.566857	0.329459	0.294872
	H389	H	0.547497	0.310850	0.300428
	O390	O	0.926068	0.930649	-0.003250
	H391	H	0.933623	0.913757	0.014959
	H392	H	0.924688	0.938317	-0.005146
	O393	O	0.993920	0.128448	1.010805
	H394	H	0.977607	0.114857	0.985181
	H395	H	0.990291	0.112909	1.009348
	O396	O	0.672537	0.655338	0.670324
	H397	H	0.671140	0.645550	0.649144
	H398	H	0.686967	0.622999	0.667324
	O399	O	0.479221	0.720653	0.285236
	H400	H	0.483449	0.735694	0.262052
	H401	H	0.482068	0.701328	0.275137
	O402	O	1.007705	0.803940	-0.195148
	H403	H	1.013921	0.794021	-0.204350
	H404	H	1.019510	0.804043	-0.201720
	O405	O	0.297151	0.658103	0.491817
	H406	H	0.281356	0.679236	0.491336
	H407	H	0.314861	0.652664	0.503211
	O408	O	0.459003	0.430033	0.688905
	H409	H	0.476802	0.435278	0.686311
	H410	H	0.475530	0.425899	0.686764
	O411	O	0.779860	1.046585	1.021768
	H412	H	0.792047	1.044292	1.028705
	H413	H	0.785086	1.041702	1.014619
	O414	O	0.708369	0.713270	0.528663
	H415	H	0.734463	0.743533	0.523594
	H416	H	0.683930	0.711520	0.528467
	O417	O	0.177402	0.823609	0.814257
	H418	H	0.179642	0.846783	0.833816
	H419	H	0.180444	0.802958	0.822968
	O420	O	-0.176262	0.825726	1.163399
	H421	H	-0.187526	0.879612	1.177324
	H422	H	-0.124335	0.817833	1.170478
	O423	O	-0.173799	1.185015	-0.190913
	H424	H	-0.185739	1.194565	-0.140199
	H425	H	-0.184633	1.130419	-0.200293
	O426	O	0.609476	0.524291	0.461991
	H427	H	0.612928	0.533409	0.463533
	H428	H	0.620710	0.528639	0.444776
	O429	O	0.566233	0.385740	0.522211
	H430	H	0.553990	0.378818	0.514751
	H431	H	0.580944	0.381829	0.516180
	O432	O	0.943668	0.055951	0.213945
	H433	H	0.956894	0.042880	0.215897
	H434	H	0.960349	0.070100	0.196517
	O435	O	0.221737	0.026582	0.214176
	H436	H	0.228130	0.059381	0.221160
	H437	H	0.238605	0.053230	0.230414
	O438	O	-0.437936	1.714763	1.473561
	H439	H	-0.460494	1.707963	1.491560
	H440	H	-0.460778	1.726340	1.459756
	O441	O	0.519409	0.434524	0.600016
	H442	H	0.507400	0.430989	0.602830
	H443	H	0.515983	0.429426	0.604645
