data_Molecule from HDF5

_cell_length_a		16.266159
_cell_length_b		16.251001
_cell_length_c		16.300317
_cell_angle_alpha	90.485865
_cell_angle_beta	89.835407
_cell_angle_gamma	89.912237
_symmetry_space_group_name_H-M	'P 1'
_symmetry_Int_Tables_number		1

loop_
	_symmetry_equiv_pos_as_xyz
	x,y,z

loop_
	_atom_site_label
	_atom_site_type_symbol
	_atom_site_fract_x
	_atom_site_fract_y
	_atom_site_fract_z
	H0	H	0.402699	0.833249	0.720502
	H1	H	0.604710	0.159166	0.723852
	H2	H	0.605731	0.833513	0.287631
	H3	H	0.403454	0.159301	0.290832
	H4	H	0.723541	0.391779	0.843906
	H5	H	0.718561	0.598407	0.168139
	H6	H	0.288059	0.595906	0.842492
	H7	H	0.287401	0.398232	0.168180
	H8	H	0.841083	0.710474	0.409503
	H9	H	0.167666	0.714963	0.606641
	H10	H	0.841583	0.283127	0.605824
	H11	H	0.166738	0.278532	0.401158
	H12	H	0.843186	0.397453	0.723394
	H13	H	0.167275	0.601191	0.724199
	H14	H	0.842242	0.597605	0.291977
	H15	H	0.166933	0.395342	0.286699
	H16	H	0.404345	0.711251	0.842131
	H17	H	0.604087	0.715485	0.166892
	H18	H	0.604922	0.277617	0.842720
	H19	H	0.402113	0.281574	0.168261
	H20	H	0.720874	0.832713	0.403730
	H21	H	0.719263	0.159661	0.607756
	H22	H	0.286953	0.833644	0.604546
	H23	H	0.286612	0.158404	0.404563
	H24	H	0.903497	0.335538	0.221048
	H25	H	0.103221	0.660623	0.221208
	H26	H	0.106831	0.334814	0.786668
	H27	H	0.902610	0.660557	0.790566
	H28	H	0.222373	0.892201	0.343449
	H29	H	0.221354	0.099691	0.668070
	H30	H	0.787160	0.095996	0.343167
	H31	H	0.788183	0.898063	0.668981
	H32	H	0.340606	0.211780	0.905298
	H33	H	0.665585	0.215189	0.107347
	H34	H	0.340483	0.783242	0.103099
	H35	H	0.667199	0.779421	0.902947
	H36	H	0.341995	0.896734	0.221028
	H37	H	0.666343	0.098468	0.222116
	H38	H	0.341234	0.096852	0.789752
	H39	H	0.667129	0.894491	0.787073
	H40	H	0.903659	0.211909	0.342966
	H41	H	0.105290	0.216138	0.667584
	H42	H	0.105669	0.778120	0.343254
	H43	H	0.904876	0.783649	0.669092
	H44	H	0.221140	0.334307	0.903071
	H45	H	0.219787	0.660661	0.107422
	H46	H	0.788104	0.334957	0.105522
	H47	H	0.786330	0.659691	0.905234
	H48	H	0.418156	0.109516	0.595574
	H49	H	0.600730	0.880389	0.591666
	H50	H	0.588085	0.107449	0.420286
	H51	H	0.413954	0.878946	0.409771
	H52	H	0.586597	0.409660	0.117004
	H53	H	0.598881	0.581856	0.889694
	H54	H	0.420310	0.587751	0.117743
	H55	H	0.414667	0.402012	0.890479
	H56	H	0.121373	0.584649	0.409526
	H57	H	0.890098	0.589834	0.598281
	H58	H	0.117842	0.405255	0.584664
	H59	H	0.890663	0.411252	0.415018
	H60	H	0.118968	0.417469	0.599306
	H61	H	0.887949	0.589957	0.600640
	H62	H	0.124619	0.593440	0.411541
	H63	H	0.886142	0.404453	0.407119
	H64	H	0.410706	0.598769	0.123979
	H65	H	0.590722	0.588042	0.891509
	H66	H	0.595229	0.397359	0.123416
	H67	H	0.410431	0.402211	0.889115
	H68	H	0.606063	0.114374	0.418552
	H69	H	0.597075	0.878309	0.600524
	H70	H	0.409344	0.112709	0.593912
	H71	H	0.414221	0.880392	0.413586
	H72	H	0.903628	0.616814	0.099004
	H73	H	0.088936	0.381951	0.099468
	H74	H	0.098145	0.610696	0.924565
	H75	H	0.910207	0.382308	0.919000
	H76	H	0.103210	0.918893	0.619544
	H77	H	0.098684	0.077500	0.392694
	H78	H	0.916889	0.096097	0.621877
	H79	H	0.916026	0.904667	0.391531
	H80	H	0.620244	0.092140	0.918631
	H81	H	0.388211	0.086020	0.097605
	H82	H	0.620511	0.899287	0.088750
	H83	H	0.391073	0.911202	0.916185
	H84	H	0.617047	0.914275	0.094245
	H85	H	0.386721	0.089317	0.100451
	H86	H	0.616440	0.080203	0.918057
	H87	H	0.386115	0.904847	0.903914
	H88	H	0.905265	0.090599	0.624016
	H89	H	0.086909	0.089282	0.392732
	H90	H	0.081236	0.908281	0.616108
	H91	H	0.911268	0.899426	0.387847
	H92	H	0.101951	0.617110	0.910320
	H93	H	0.097318	0.383255	0.089086
	H94	H	0.913574	0.615575	0.105797
	H95	H	0.913501	0.379812	0.908042
	H96	H	0.412647	0.113551	0.603121
	H97	H	0.590700	0.882408	0.594516
	H98	H	0.594498	0.114927	0.403952
	H99	H	0.411083	0.880005	0.411865
	H100	H	0.602492	0.411859	0.120741
	H101	H	0.599362	0.590994	0.885922
	H102	H	0.405100	0.584365	0.121347
	H103	H	0.412526	0.406025	0.889655
	H104	H	0.120084	0.588204	0.418194
	H105	H	0.888412	0.591548	0.598645
	H106	H	0.124995	0.398771	0.601270
	H107	H	0.888295	0.399729	0.417524
	H108	H	0.914198	0.611700	0.094152
	H109	H	0.101670	0.378000	0.100496
	H110	H	0.087262	0.611316	0.912956
	H111	H	0.921122	0.385180	0.915564
	H112	H	0.099573	0.895037	0.626155
	H113	H	0.101831	0.092492	0.386817
	H114	H	0.914986	0.084057	0.618067
	H115	H	0.908383	0.906202	0.389707
	H116	H	0.621256	0.085745	0.908315
	H117	H	0.388545	0.090303	0.096794
	H118	H	0.624137	0.903079	0.104883
	H119	H	0.386990	0.896786	0.916319
	C120	C	0.382907	0.004634	0.626686
	C121	C	0.625520	0.988096	0.626524
	C122	C	0.626135	0.004556	0.383677
	C123	C	0.382850	0.987225	0.383188
	C124	C	0.625371	0.374838	0.013461
	C125	C	0.625301	0.618005	0.996573
	C126	C	0.382685	0.618868	0.013591
	C127	C	0.382308	0.374894	0.997193
	C128	C	0.013853	0.618158	0.385111
	C129	C	0.996350	0.620579	0.628799
	C130	C	0.013376	0.377320	0.626013
	C131	C	0.995828	0.375007	0.382350
	C132	C	0.881751	0.506661	0.127921
	C133	C	0.125430	0.488701	0.126571
	C134	C	0.126501	0.505698	0.884252
	C135	C	0.883206	0.489372	0.884380
	C136	C	0.125384	0.875434	0.513662
	C137	C	0.126281	0.118257	0.497543
	C138	C	0.882692	0.118856	0.513958
	C139	C	0.882357	0.875003	0.497370
	C140	C	0.512017	0.116562	0.884997
	C141	C	0.495275	0.118731	0.127674
	C142	C	0.512878	0.876296	0.125222
	C143	C	0.495766	0.874521	0.882497
	C144	C	0.383109	0.882074	0.682506
	C145	C	0.624674	0.110457	0.684925
	C146	C	0.625647	0.882298	0.326150
	C147	C	0.383613	0.110349	0.328301
	C148	C	0.684118	0.373385	0.892074
	C149	C	0.680678	0.618125	0.119384
	C150	C	0.326312	0.616231	0.891304
	C151	C	0.325474	0.377400	0.119437
	C152	C	0.890307	0.673364	0.388239
	C153	C	0.118983	0.676767	0.626848
	C154	C	0.890566	0.321116	0.625731
	C155	C	0.117984	0.317255	0.381996
	C156	C	0.891407	0.378038	0.684106
	C157	C	0.118748	0.620362	0.685507
	C158	C	0.890926	0.617055	0.329932
	C159	C	0.118049	0.375467	0.325142
	C160	C	0.384132	0.673624	0.890887
	C161	C	0.624229	0.676754	0.118594
	C162	C	0.625115	0.316695	0.891318
	C163	C	0.382522	0.319158	0.119234
	C164	C	0.682736	0.881855	0.384036
	C165	C	0.681541	0.110810	0.627031
	C166	C	0.325508	0.882187	0.624863
	C167	C	0.325938	0.109921	0.385389
	C168	C	0.883542	0.384199	0.183189
	C169	C	0.123578	0.611565	0.183295
	C170	C	0.126562	0.383476	0.825592
	C171	C	0.883001	0.611410	0.828100
	C172	C	0.183448	0.873530	0.391919
	C173	C	0.183265	0.118933	0.619309
	C174	C	0.825997	0.116333	0.391673
	C175	C	0.826399	0.877661	0.620230
	C176	C	0.389518	0.173586	0.885628
	C177	C	0.617299	0.176330	0.126841
	C178	C	0.389736	0.820534	0.123468
	C179	C	0.618378	0.817655	0.883128
	C180	C	0.390371	0.877115	0.182060
	C181	C	0.617577	0.118403	0.183977
	C182	C	0.389872	0.116377	0.828045
	C183	C	0.618391	0.874578	0.825493
	C184	C	0.883596	0.174289	0.391577
	C185	C	0.125662	0.177051	0.619078
	C186	C	0.125065	0.816930	0.391842
	C187	C	0.884480	0.820697	0.620142
	C188	C	0.183122	0.383225	0.883880
	C189	C	0.181267	0.611776	0.126201
	C190	C	0.826195	0.383904	0.125590
	C191	C	0.824888	0.610991	0.885246
	C192	C	0.406486	0.089748	0.604201
	C193	C	0.602791	0.902672	0.602589
	C194	C	0.602957	0.090129	0.407391
	C195	C	0.406334	0.901970	0.405335
	C196	C	0.601618	0.399220	0.098221
	C197	C	0.602864	0.593820	0.911448
	C198	C	0.405448	0.596914	0.098978
	C199	C	0.405679	0.396821	0.911838
	C200	C	0.099571	0.595404	0.406834
	C201	C	0.910952	0.597405	0.606075
	C202	C	0.098424	0.400275	0.601967
	C203	C	0.910489	0.398394	0.406171
	C204	C	0.904006	0.592680	0.106067
	C205	C	0.102756	0.403200	0.103056
	C206	C	0.102587	0.590784	0.908595
	C207	C	0.907677	0.404317	0.907322
	C208	C	0.101516	0.900262	0.598755
	C209	C	0.102706	0.093693	0.412580
	C210	C	0.905532	0.096698	0.598993
	C211	C	0.905135	0.897012	0.411964
	C212	C	0.597255	0.092885	0.908246
	C213	C	0.409946	0.095444	0.104771
	C214	C	0.598344	0.898989	0.102561
	C215	C	0.410277	0.897566	0.905372
	Zn216	Zn	0.504371	-0.003787	0.755149
	Zn217	Zn	0.504425	-0.003510	0.255466
	Zn218	Zn	0.753975	0.497222	0.005859
	Zn219	Zn	0.253851	0.497182	0.005591
	Zn220	Zn	0.004809	0.746946	0.505791
	Zn221	Zn	0.004577	0.247672	0.505078
	Zn222	Zn	0.005664	0.498112	0.756038
	Zn223	Zn	0.004527	0.497807	0.255560
	Zn224	Zn	0.504444	0.747088	0.004174
	Zn225	Zn	0.503390	0.245984	0.005072
	Zn226	Zn	0.753976	-0.003491	0.506053
	Zn227	Zn	0.254738	-0.004040	0.504759
	N228	N	0.418057	0.959092	0.683809
	N229	N	0.590580	0.033032	0.684730
	N230	N	0.591121	0.959605	0.325927
	N231	N	0.418497	0.033233	0.326894
	N232	N	0.684563	0.408856	0.969182
	N233	N	0.681719	0.582558	0.042457
	N234	N	0.325299	0.582885	0.968714
	N235	N	0.325038	0.411281	0.042443
	N236	N	0.967781	0.674240	0.421859
	N237	N	0.041866	0.676995	0.592508
	N238	N	0.967349	0.320645	0.589986
	N239	N	0.040789	0.316795	0.416871
	N240	N	0.968637	0.412071	0.684384
	N241	N	0.041497	0.585992	0.686733
	N242	N	0.968495	0.583420	0.327779
	N243	N	0.041150	0.410479	0.325120
	N244	N	0.418286	0.675562	0.967966
	N245	N	0.590565	0.676724	0.041263
	N246	N	0.589436	0.317292	0.967695
	N247	N	0.417079	0.317640	0.042157
	N248	N	0.683375	0.959085	0.419181
	N249	N	0.682195	0.033786	0.591431
	N250	N	0.325337	0.959246	0.590804
	N251	N	0.325193	0.032539	0.418707
	N252	N	0.917407	0.461642	0.184704
	N253	N	0.089607	0.534163	0.183725
	N254	N	0.091943	0.460783	0.825717
	N255	N	0.918806	0.534694	0.827428
	N256	N	0.183484	0.909567	0.468661
	N257	N	0.183680	0.083097	0.542524
	N258	N	0.825160	0.082638	0.468752
	N259	N	0.824891	0.910818	0.542930
	N260	N	0.466544	0.173730	0.920247
	N261	N	0.540012	0.176890	0.092901
	N262	N	0.467002	0.819784	0.088861
	N263	N	0.541010	0.817109	0.917554
	N264	N	0.467731	0.911073	0.183243
	N265	N	0.540622	0.083341	0.184634
	N266	N	0.467121	0.081752	0.827388
	N267	N	0.541194	0.909237	0.824905
	N268	N	0.918126	0.176104	0.468487
	N269	N	0.090865	0.176650	0.542287
	N270	N	0.089693	0.818297	0.468501
	N271	N	0.918563	0.819015	0.542818
	N272	N	0.183220	0.460176	0.919415
	N273	N	0.182535	0.534401	0.091487
	N274	N	0.824949	0.461239	0.092046
	N275	N	0.824883	0.534007	0.919597
	O276	O	1.026382	-0.113972	0.865989
	H277	H	1.029356	-0.123944	0.867036
	H278	H	1.013057	-0.110792	0.857368
	O279	O	0.089429	0.995032	0.106259
	H280	H	0.088845	0.998575	0.107843
	H281	H	0.077333	0.994071	0.099958
	O282	O	0.534541	0.518305	0.480458
	H283	H	0.533274	0.512144	0.484390
	H284	H	0.526369	0.531282	0.498903
	O285	O	0.578386	0.613384	0.599237
	H286	H	0.579593	0.625661	0.596884
	H287	H	0.568257	0.614459	0.607246
	O288	O	0.526033	0.360754	0.501319
	H289	H	0.539159	0.386105	0.498180
	H290	H	0.525553	0.350804	0.482056
	O291	O	-0.090857	-0.080284	1.029902
	H292	H	-0.089993	-0.089240	1.028729
	H293	H	-0.082716	-0.084426	1.023591
	O294	O	0.495927	1.486868	0.581424
	H295	H	0.502598	1.498928	0.580128
	H296	H	0.501849	1.482025	0.579701
	O297	O	1.085899	1.115027	0.055513
	H298	H	1.082295	1.121034	0.055667
	H299	H	1.083929	1.101545	0.060489
	O300	O	0.471249	0.526541	0.599191
	H301	H	0.476037	0.519354	0.612348
	H302	H	0.476292	0.530330	0.602448
	O303	O	0.031837	-0.062341	0.995800
	H304	H	0.038723	-0.074852	0.977251
	H305	H	0.043962	-0.063737	0.991724
	O306	O	0.614672	0.409135	0.529884
	H307	H	0.606111	0.413155	0.533718
	H308	H	0.615710	0.408186	0.520980
	O309	O	0.520681	0.657856	0.474311
	H310	H	0.530626	0.664460	0.476965
	H311	H	0.523134	0.653596	0.471385
	O312	O	1.675773	0.404384	1.368514
	H313	H	1.677080	0.416564	1.365249
	H314	H	1.686518	0.402989	1.354043
	O315	O	0.951618	1.060077	-0.131186
	H316	H	0.936721	1.060500	-0.125484
	H317	H	0.953866	1.060021	-0.127827
	O318	O	0.490924	0.520246	0.553750
	H319	H	0.493032	0.516756	0.543019
	H320	H	0.491109	0.518043	0.557854
	O321	O	0.589951	0.408816	0.461353
	H322	H	0.607890	0.394952	0.453797
	H323	H	0.587621	0.415014	0.453769
	O324	O	-0.076655	0.898223	1.019331
	H325	H	-0.071953	0.901073	1.033614
	H326	H	-0.076655	0.894899	1.022096
	O327	O	-0.005351	1.105409	1.052996
	H328	H	-0.005548	1.107786	1.065924
	H329	H	-0.004961	1.099301	1.054636
	O330	O	-0.027704	0.100254	0.119937
	H331	H	-0.032158	0.094667	0.119835
	H332	H	-0.029513	0.092416	0.111717
	O333	O	0.648225	0.566272	0.398236
	H334	H	0.637620	0.571927	0.404648
	H335	H	0.656389	0.565313	0.401820
	O336	O	0.000189	0.012383	-0.043075
	H337	H	0.003428	0.019849	-0.049065
	H338	H	0.013841	0.015977	-0.038565
	O339	O	0.021020	0.027371	0.088817
	H340	H	0.034294	0.036436	0.097614
	H341	H	0.024250	0.017770	0.094050
	O342	O	-0.046014	1.009629	0.012668
	H343	H	-0.037550	1.005769	0.018076
	H344	H	-0.046535	1.013532	0.013068
	O345	O	0.105522	0.915201	0.977638
	H346	H	0.118617	0.917774	0.976350
	H347	H	0.114829	0.921646	0.975970
	O348	O	0.099141	1.025957	-0.028804
	H349	H	0.097941	1.044887	-0.028675
	H350	H	0.098514	1.019619	-0.037015
	O351	O	0.563426	0.439858	0.563037
	H352	H	0.573461	0.447029	0.561886
	H353	H	0.577283	0.429935	0.545322
	O354	O	-0.003822	0.949034	0.014551
	H355	H	-0.000464	0.951335	0.032042
	H356	H	-0.007598	0.933181	0.017172
	O357	O	0.367144	0.551999	0.419904
	H358	H	0.370681	0.545657	0.429018
	H359	H	0.360606	0.559948	0.419764
	O360	O	0.447438	0.494446	0.416770
	H361	H	0.442528	0.488236	0.421326
	H362	H	0.451756	0.496512	0.421672
	O363	O	0.549551	0.553619	0.639045
	H364	H	0.546595	0.547765	0.641309
	H365	H	0.538759	0.533342	0.635782
	O366	O	0.534744	0.549001	0.422788
	H367	H	0.520915	0.548673	0.423520
	H368	H	0.531734	0.543265	0.420315
	O369	O	0.951523	0.038975	-0.132581
	H370	H	0.928429	0.046332	-0.153896
	H371	H	0.948335	0.038740	-0.125316
	O372	O	0.408138	0.471557	0.572856
	H373	H	0.396573	0.467713	0.583654
	H374	H	0.410115	0.481708	0.573114
	O375	O	0.895795	0.168437	0.955470
	H376	H	0.883953	0.183630	0.961531
	H377	H	0.897585	0.155325	0.953204
	O378	O	0.052472	0.979579	0.060161
	H379	H	0.043583	0.983382	0.064030
	H380	H	0.054341	0.967166	0.044554
	O381	O	0.421552	0.398843	0.587688
	H382	H	0.425322	0.401232	0.575733
	H383	H	0.420912	0.382074	0.590646
	O384	O	1.104618	0.949981	0.085823
	H385	H	1.104057	0.951686	0.080124
	H386	H	1.112107	0.956766	0.082025
	O387	O	1.041166	-0.034721	1.005335
	H388	H	1.036243	-0.021087	1.002100
	H389	H	1.042155	-0.033014	1.012130
	O390	O	1.453412	0.442923	-0.581433
	H391	H	1.453265	0.430710	-0.591163
	H392	H	1.441230	0.443077	-0.568126
	O393	O	0.413087	0.427592	0.530555
	H394	H	0.423450	0.419335	0.521821
	H395	H	0.413262	0.423792	0.552144
