data_Molecule from HDF5

_cell_length_a		16.161501
_cell_length_b		16.248098
_cell_length_c		16.305646
_cell_angle_alpha	89.706753
_cell_angle_beta	89.980043
_cell_angle_gamma	89.750804
_symmetry_space_group_name_H-M	'P 1'
_symmetry_Int_Tables_number		1

loop_
	_symmetry_equiv_pos_as_xyz
	x,y,z

loop_
	_atom_site_label
	_atom_site_type_symbol
	_atom_site_fract_x
	_atom_site_fract_y
	_atom_site_fract_z
	H0	H	0.406023	0.842435	0.716062
	H1	H	0.604947	0.168765	0.713470
	H2	H	0.607594	0.842979	0.283905
	H3	H	0.402811	0.168831	0.282326
	H4	H	0.718720	0.408939	0.834182
	H5	H	0.719489	0.602843	0.161989
	H6	H	0.290570	0.606214	0.834114
	H7	H	0.290588	0.408223	0.161459
	H8	H	0.840986	0.722165	0.395871
	H9	H	0.170094	0.717587	0.595382
	H10	H	0.840165	0.290871	0.596684
	H11	H	0.169955	0.291899	0.401154
	H12	H	0.839587	0.405339	0.712444
	H13	H	0.168200	0.603804	0.713532
	H14	H	0.840020	0.604330	0.283582
	H15	H	0.168208	0.403370	0.281375
	H16	H	0.404306	0.724211	0.835774
	H17	H	0.604048	0.718899	0.162639
	H18	H	0.604069	0.291807	0.835071
	H19	H	0.405092	0.290914	0.161863
	H20	H	0.719283	0.841264	0.402794
	H21	H	0.717779	0.169591	0.595914
	H22	H	0.291614	0.841659	0.599424
	H23	H	0.290910	0.169464	0.400705
	H24	H	0.904073	0.342110	0.213987
	H25	H	0.104014	0.668857	0.213740
	H26	H	0.105004	0.341718	0.784103
	H27	H	0.902742	0.667998	0.780632
	H28	H	0.222380	0.906604	0.335223
	H29	H	0.217515	0.100175	0.663444
	H30	H	0.790131	0.105397	0.335554
	H31	H	0.793244	0.907788	0.662189
	H32	H	0.340840	0.222317	0.899442
	H33	H	0.670179	0.218965	0.096790
	H34	H	0.339934	0.791862	0.099900
	H35	H	0.669581	0.791616	0.902031
	H36	H	0.341226	0.906727	0.216077
	H37	H	0.669595	0.103993	0.213366
	H38	H	0.341168	0.107222	0.783277
	H39	H	0.669417	0.905690	0.785557
	H40	H	0.906677	0.220518	0.334965
	H41	H	0.104220	0.219486	0.661817
	H42	H	0.106379	0.791243	0.334396
	H43	H	0.905552	0.788942	0.660728
	H44	H	0.219536	0.341365	0.900558
	H45	H	0.217864	0.670094	0.096159
	H46	H	0.791983	0.341483	0.096428
	H47	H	0.790566	0.669671	0.898655
	H48	H	0.414527	0.120138	0.584278
	H49	H	0.603570	0.887460	0.593003
	H50	H	0.604244	0.126056	0.401998
	H51	H	0.417859	0.890536	0.408609
	H52	H	0.595967	0.402024	0.117110
	H53	H	0.604940	0.591709	0.881840
	H54	H	0.405910	0.602936	0.117684
	H55	H	0.414312	0.403225	0.878857
	H56	H	0.120702	0.597160	0.410528
	H57	H	0.888027	0.590421	0.595057
	H58	H	0.119332	0.422334	0.590225
	H59	H	0.886364	0.405575	0.409812
	H60	H	0.126425	0.408763	0.602132
	H61	H	0.884449	0.605632	0.591467
	H62	H	0.120811	0.590680	0.402682
	H63	H	0.889479	0.418951	0.409885
	H64	H	0.409204	0.592625	0.113177
	H65	H	0.586841	0.598774	0.886632
	H66	H	0.607416	0.415774	0.116730
	H67	H	0.402495	0.417846	0.880119
	H68	H	0.591013	0.121840	0.401418
	H69	H	0.597880	0.887086	0.599082
	H70	H	0.403144	0.125079	0.593638
	H71	H	0.413570	0.889468	0.409739
	H72	H	0.916455	0.620860	0.091009
	H73	H	0.089424	0.391069	0.090561
	H74	H	0.101798	0.622380	0.909556
	H75	H	0.913419	0.389755	0.908872
	H76	H	0.091508	0.901744	0.614556
	H77	H	0.102590	0.102074	0.379655
	H78	H	0.912170	0.099547	0.616546
	H79	H	0.920391	0.915654	0.383634
	H80	H	0.622255	0.095645	0.903499
	H81	H	0.389647	0.100083	0.086681
	H82	H	0.623451	0.913701	0.098276
	H83	H	0.388315	0.912682	0.909808
	H84	H	0.623511	0.906682	0.089523
	H85	H	0.387525	0.093660	0.093761
	H86	H	0.624693	0.101599	0.902732
	H87	H	0.388336	0.917491	0.908724
	H88	H	0.911072	0.098751	0.615738
	H89	H	0.099606	0.093680	0.382827
	H90	H	0.107902	0.910915	0.616640
	H91	H	0.911656	0.906124	0.379066
	H92	H	0.097030	0.624423	0.895817
	H93	H	0.102181	0.389918	0.084859
	H94	H	0.909946	0.622128	0.088213
	H95	H	0.906966	0.386112	0.904691
	H96	H	0.418098	0.123150	0.598989
	H97	H	0.595181	0.889525	0.591002
	H98	H	0.597493	0.120727	0.413513
	H99	H	0.414598	0.888533	0.405892
	H100	H	0.591237	0.418583	0.111042
	H101	H	0.600863	0.610989	0.877551
	H102	H	0.417343	0.602070	0.113737
	H103	H	0.419492	0.419825	0.885597
	H104	H	0.124814	0.600872	0.401614
	H105	H	0.890127	0.595746	0.580097
	H106	H	0.121478	0.404290	0.584799
	H107	H	0.885531	0.413316	0.398017
	H108	H	0.911526	0.624485	0.094781
	H109	H	0.099930	0.386979	0.097412
	H110	H	0.088167	0.619266	0.905956
	H111	H	0.914951	0.387653	0.901141
	H112	H	0.092765	0.919842	0.610130
	H113	H	0.093249	0.101414	0.383382
	H114	H	0.912614	0.099315	0.615329
	H115	H	0.907507	0.918806	0.381933
	H116	H	0.622226	0.099338	0.909438
	H117	H	0.384559	0.102877	0.094355
	H118	H	0.620065	0.917031	0.088971
	H119	H	0.387231	0.914738	0.905129
	C120	C	0.383545	0.014207	0.621175
	C121	C	0.627356	0.996416	0.621808
	C122	C	0.627242	0.014411	0.377734
	C123	C	0.384692	0.997443	0.378244
	C124	C	0.627075	0.384204	0.006873
	C125	C	0.626415	0.627682	0.990167
	C126	C	0.382422	0.628943	0.006721
	C127	C	0.383308	0.384779	0.989693
	C128	C	0.013587	0.626691	0.375571
	C129	C	0.996022	0.625966	0.618658
	C130	C	0.013346	0.383004	0.620427
	C131	C	0.995736	0.383542	0.376939
	C132	C	0.883315	0.514191	0.119836
	C133	C	0.125804	0.497388	0.119705
	C134	C	0.125403	0.513705	0.876154
	C135	C	0.882375	0.496406	0.875690
	C136	C	0.128103	0.882556	0.506287
	C137	C	0.126540	0.126464	0.490394
	C138	C	0.883417	0.127796	0.507514
	C139	C	0.884373	0.884321	0.489577
	C140	C	0.514124	0.128004	0.876710
	C141	C	0.496294	0.126822	0.119871
	C142	C	0.513684	0.883832	0.121771
	C143	C	0.496743	0.885606	0.879016
	C144	C	0.385665	0.891208	0.677703
	C145	C	0.624674	0.119953	0.675693
	C146	C	0.626567	0.891556	0.322452
	C147	C	0.384149	0.120171	0.321256
	C148	C	0.681454	0.387802	0.883327
	C149	C	0.681744	0.623952	0.113248
	C150	C	0.327740	0.627001	0.883418
	C151	C	0.328126	0.387410	0.112687
	C152	C	0.889995	0.683410	0.376859
	C153	C	0.120219	0.680726	0.616500
	C154	C	0.889317	0.328120	0.617474
	C155	C	0.120321	0.328903	0.379867
	C156	C	0.888881	0.385365	0.674733
	C157	C	0.119281	0.623830	0.674961
	C158	C	0.889283	0.624681	0.321098
	C159	C	0.119502	0.384434	0.320480
	C160	C	0.384714	0.685349	0.884242
	C161	C	0.624359	0.681769	0.113475
	C162	C	0.624466	0.329519	0.883772
	C163	C	0.385133	0.329183	0.112752
	C164	C	0.682186	0.890753	0.381562
	C165	C	0.681077	0.120249	0.617287
	C166	C	0.329025	0.890734	0.619569
	C167	C	0.328427	0.120443	0.380123
	C168	C	0.884443	0.391015	0.175744
	C169	C	0.123811	0.620222	0.175381
	C170	C	0.124888	0.390467	0.821583
	C171	C	0.883233	0.619265	0.819052
	C172	C	0.184571	0.885777	0.384019
	C173	C	0.180334	0.122044	0.614295
	C174	C	0.828166	0.125320	0.384347
	C175	C	0.830260	0.886836	0.613119
	C176	C	0.389997	0.184126	0.878928
	C177	C	0.620607	0.181871	0.117724
	C178	C	0.389708	0.829129	0.120061
	C179	C	0.620406	0.829627	0.881184
	C180	C	0.390298	0.886298	0.177844
	C181	C	0.620476	0.124661	0.175393
	C182	C	0.390182	0.126938	0.821209
	C183	C	0.620309	0.886266	0.823401
	C184	C	0.886163	0.182704	0.384016
	C185	C	0.124072	0.181195	0.613456
	C186	C	0.126784	0.828163	0.383600
	C187	C	0.885998	0.827698	0.612236
	C188	C	0.181732	0.390425	0.879685
	C189	C	0.180187	0.621012	0.116731
	C190	C	0.828614	0.390693	0.117099
	C191	C	0.827694	0.620275	0.877985
	C192	C	0.405532	0.100349	0.598770
	C193	C	0.605416	0.910218	0.600700
	C194	C	0.604329	0.100625	0.399432
	C195	C	0.408589	0.911573	0.401284
	C196	C	0.604918	0.405727	0.092644
	C197	C	0.604215	0.606572	0.904410
	C198	C	0.404299	0.605853	0.092741
	C199	C	0.405551	0.407061	0.903637
	C200	C	0.099683	0.603185	0.398359
	C201	C	0.909783	0.603689	0.595694
	C202	C	0.099882	0.405284	0.598703
	C203	C	0.909417	0.405934	0.399441
	C204	C	0.905807	0.600378	0.097760
	C205	C	0.103626	0.411488	0.097588
	C206	C	0.102253	0.599664	0.897481
	C207	C	0.904952	0.410188	0.898303
	C208	C	0.104438	0.904453	0.591874
	C209	C	0.105032	0.105389	0.404371
	C210	C	0.905445	0.105665	0.593542
	C211	C	0.906590	0.906822	0.403733
	C212	C	0.600492	0.105607	0.898914
	C213	C	0.409714	0.105221	0.097991
	C214	C	0.600228	0.906056	0.099065
	C215	C	0.410245	0.908392	0.901372
	Zn216	Zn	0.505292	0.005702	0.749444
	Zn217	Zn	0.505472	0.005905	0.249254
	Zn218	Zn	0.755502	0.505734	-0.001854
	Zn219	Zn	0.254218	0.506256	-0.002250
	Zn220	Zn	0.005080	0.754676	0.497144
	Zn221	Zn	0.005183	0.256010	0.498834
	Zn222	Zn	0.003701	0.504270	0.747824
	Zn223	Zn	0.004281	0.504837	0.248501
	Zn224	Zn	0.504683	0.756622	-0.000459
	Zn225	Zn	0.505386	0.255458	-0.001020
	Zn226	Zn	0.755268	0.005651	0.499527
	Zn227	Zn	0.255968	0.005165	0.499019
	N228	N	0.418626	0.969070	0.678942
	N229	N	0.592140	0.041938	0.678783
	N230	N	0.593276	0.969633	0.319687
	N231	N	0.418562	0.042576	0.320165
	N232	N	0.683027	0.421104	0.960783
	N233	N	0.683240	0.590961	0.035746
	N234	N	0.326130	0.592497	0.960726
	N235	N	0.327108	0.421365	0.035172
	N236	N	0.968375	0.684774	0.410110
	N237	N	0.042561	0.682257	0.582281
	N238	N	0.967694	0.326622	0.584633
	N239	N	0.042689	0.328461	0.414432
	N240	N	0.966975	0.418823	0.676769
	N241	N	0.041050	0.590524	0.676493
	N242	N	0.967099	0.590124	0.320108
	N243	N	0.041076	0.417854	0.318716
	N244	N	0.417470	0.686862	0.962087
	N245	N	0.590513	0.684130	0.036027
	N246	N	0.591291	0.327079	0.961447
	N247	N	0.418936	0.327546	0.035251
	N248	N	0.682734	0.968188	0.415184
	N249	N	0.682723	0.042495	0.584314
	N250	N	0.327469	0.968298	0.585321
	N251	N	0.328520	0.043050	0.414713
	N252	N	0.917986	0.468585	0.177269
	N253	N	0.090577	0.542271	0.177378
	N254	N	0.090584	0.468012	0.819129
	N255	N	0.916673	0.541188	0.817696
	N256	N	0.185401	0.918862	0.461553
	N257	N	0.182003	0.088741	0.536905
	N258	N	0.826340	0.091988	0.462085
	N259	N	0.829098	0.921278	0.535946
	N260	N	0.467957	0.184982	0.912625
	N261	N	0.542565	0.183400	0.083945
	N262	N	0.467643	0.827596	0.085710
	N263	N	0.542622	0.829182	0.915131
	N264	N	0.468454	0.919410	0.179025
	N265	N	0.542370	0.091209	0.177008
	N266	N	0.468262	0.092720	0.819785
	N267	N	0.542243	0.920644	0.822109
	N268	N	0.919723	0.184502	0.461630
	N269	N	0.091342	0.183927	0.535614
	N270	N	0.092477	0.825915	0.460744
	N271	N	0.919158	0.826185	0.534461
	N272	N	0.182147	0.468170	0.912879
	N273	N	0.181688	0.543561	0.083023
	N274	N	0.828006	0.468337	0.082847
	N275	N	0.827128	0.542784	0.912606
	O276	O	-0.044055	-0.011131	0.014610
	H277	H	-0.048628	-0.018039	0.020583
	H278	H	-0.037045	-0.012995	0.015633
	O279	O	0.579937	0.454215	0.481966
	H280	H	0.574616	0.453330	0.490085
	H281	H	0.592027	0.453407	0.476465
	O282	O	0.565645	0.506514	0.472588
	H283	H	0.565310	0.515198	0.464855
	H284	H	0.568691	0.511439	0.468822
	O285	O	1.067271	-0.053594	0.969225
	H286	H	1.067084	-0.051659	0.966693
	H287	H	1.070431	-0.051009	0.959261
	O288	O	1.004112	0.038574	-0.039138
	H289	H	1.007774	0.035605	-0.040956
	H290	H	0.996593	0.045851	-0.036711
	O291	O	0.595316	0.495026	0.534786
	H292	H	0.595319	0.498350	0.532773
	H293	H	0.595457	0.499582	0.545453
	O294	O	1.020914	-0.076348	0.985908
	H295	H	1.018768	-0.086227	0.986583
	H296	H	1.015537	-0.072293	0.984704
	O297	O	0.073064	0.011887	-0.078246
	H298	H	0.060772	0.018285	-0.074183
	H299	H	0.074893	0.021264	-0.075662
	O300	O	0.485823	0.564387	0.441810
	H301	H	0.496736	0.559539	0.452542
	H302	H	0.489451	0.573895	0.435675
	O303	O	0.446805	0.550891	0.520496
	H304	H	0.440570	0.555205	0.515598
	H305	H	0.450982	0.552460	0.515704
	O306	O	0.991702	0.014335	-0.028838
	H307	H	0.991002	0.013434	-0.035189
	H308	H	0.993668	0.015652	-0.024433
	O309	O	0.021236	-0.025397	0.967042
	H310	H	0.010429	-0.031021	0.955819
	H311	H	0.020259	-0.030420	0.969138
	O312	O	0.995298	0.987313	0.993887
	H313	H	1.000100	0.987962	0.995354
	H314	H	0.995694	0.987655	0.994093
	O315	O	0.534009	0.443013	0.475692
	H316	H	0.537738	0.446759	0.478791
	H317	H	0.546962	0.436732	0.478476
	O318	O	0.410198	0.484233	0.526319
	H319	H	0.410148	0.472413	0.524162
	H320	H	0.407732	0.486560	0.519402
	O321	O	-0.055521	0.988900	1.002894
	H322	H	-0.057822	0.981640	1.002738
	H323	H	-0.052354	0.987083	1.012814
	O324	O	0.445416	0.527309	0.615473
	H325	H	0.437771	0.530944	0.615155
	H326	H	0.440949	0.530102	0.610782
	O327	O	0.481230	0.461849	0.495221
	H328	H	0.482959	0.459642	0.492958
	H329	H	0.475825	0.449313	0.495741
	O330	O	0.532426	0.567440	0.462939
	H331	H	0.536214	0.561836	0.468381
	H332	H	0.521858	0.574883	0.454457
	O333	O	0.513296	0.442515	0.507938
	H334	H	0.526434	0.448067	0.510390
	H335	H	0.512123	0.437890	0.513346
	O336	O	0.453090	0.608480	0.403226
	H337	H	0.450805	0.599061	0.408975
	H338	H	0.448910	0.612455	0.409217
	O339	O	1.001495	0.961334	-0.008722
	H340	H	1.004627	0.955554	-0.009636
	H341	H	1.010513	0.962333	-0.022998
	O342	O	0.478201	0.495373	0.448052
	H343	H	0.467778	0.491294	0.441473
	H344	H	0.477737	0.492352	0.450343
	O345	O	0.415583	0.541544	0.484068
	H346	H	0.407217	0.541778	0.469850
	H347	H	0.415585	0.533636	0.494660
	O348	O	0.033075	-0.048689	-0.027371
	H349	H	0.035666	-0.060929	-0.032808
	H350	H	0.035891	-0.038130	-0.032908
	O351	O	-0.038800	0.981862	1.042407
	H352	H	-0.041250	0.976840	1.044785
	H353	H	-0.040059	0.989842	1.032315
	O354	O	0.491410	0.536670	0.449592
	H355	H	0.492317	0.540294	0.451278
	H356	H	0.488507	0.540309	0.440133
	O357	O	0.098556	1.025663	1.049436
	H358	H	0.106069	1.026098	1.043469
	H359	H	0.097156	1.022654	1.055916
