data_Molecule from HDF5

_cell_length_a		16.681436
_cell_length_b		16.721442
_cell_length_c		16.530302
_cell_angle_alpha	90.064574
_cell_angle_beta	89.885114
_cell_angle_gamma	90.129644
_symmetry_space_group_name_H-M	'P 1'
_symmetry_Int_Tables_number		1

loop_
	_symmetry_equiv_pos_as_xyz
	x,y,z

loop_
	_atom_site_label
	_atom_site_type_symbol
	_atom_site_fract_x
	_atom_site_fract_y
	_atom_site_fract_z
	H0	H	0.396685	0.840268	0.723611
	H1	H	0.601479	0.153237	0.722510
	H2	H	0.603591	0.841801	0.283887
	H3	H	0.397548	0.152081	0.283765
	H4	H	0.721131	0.394490	0.847413
	H5	H	0.714436	0.595580	0.164157
	H6	H	0.283578	0.598259	0.844662
	H7	H	0.279427	0.392552	0.160137
	H8	H	0.847183	0.720843	0.396002
	H9	H	0.153644	0.720239	0.610972
	H10	H	0.846138	0.275221	0.609929
	H11	H	0.156510	0.276745	0.399325
	H12	H	0.844939	0.393801	0.723985
	H13	H	0.154722	0.601076	0.724544
	H14	H	0.846520	0.600810	0.283142
	H15	H	0.157583	0.395547	0.285416
	H16	H	0.400305	0.713644	0.844785
	H17	H	0.601713	0.714618	0.162301
	H18	H	0.603735	0.279507	0.846494
	H19	H	0.395885	0.277813	0.161058
	H20	H	0.722048	0.842748	0.398461
	H21	H	0.719222	0.152968	0.606297
	H22	H	0.277651	0.842336	0.610946
	H23	H	0.280007	0.151692	0.399836
	H24	H	0.899274	0.340950	0.222792
	H25	H	0.106637	0.651766	0.227161
	H26	H	0.102638	0.341809	0.784335
	H27	H	0.894891	0.651581	0.782510
	H28	H	0.220082	0.893678	0.348427
	H29	H	0.219134	0.099849	0.662309
	H30	H	0.782891	0.098703	0.347214
	H31	H	0.779326	0.892675	0.661486
	H32	H	0.345369	0.218058	0.899276
	H33	H	0.657156	0.215716	0.106536
	H34	H	0.344048	0.778174	0.106207
	H35	H	0.659584	0.782548	0.903768
	H36	H	0.343009	0.895764	0.221561
	H37	H	0.657728	0.097181	0.220861
	H38	H	0.343901	0.098421	0.785377
	H39	H	0.660253	0.901400	0.790205
	H40	H	0.899503	0.214584	0.346482
	H41	H	0.105826	0.217837	0.660820
	H42	H	0.104410	0.777174	0.349106
	H43	H	0.894288	0.776562	0.661203
	H44	H	0.221340	0.342523	0.899110
	H45	H	0.223365	0.651716	0.110563
	H46	H	0.779617	0.342452	0.109586
	H47	H	0.779191	0.651860	0.899398
	H48	H	0.412631	0.106780	0.592627
	H49	H	0.593339	0.884893	0.594835
	H50	H	0.593018	0.107580	0.417364
	H51	H	0.413832	0.885869	0.412500
	H52	H	0.591185	0.407764	0.116693
	H53	H	0.595016	0.594692	0.887925
	H54	H	0.406331	0.586015	0.116724
	H55	H	0.408897	0.408321	0.890830
	H56	H	0.110708	0.586011	0.417519
	H57	H	0.888039	0.590092	0.592095
	H58	H	0.112242	0.404837	0.590502
	H59	H	0.888529	0.407338	0.410461
	H60	H	0.111595	0.410243	0.593018
	H61	H	0.890153	0.584847	0.589858
	H62	H	0.111673	0.587582	0.417496
	H63	H	0.888191	0.400938	0.414318
	H64	H	0.414028	0.583752	0.112619
	H65	H	0.596857	0.584480	0.890106
	H66	H	0.589077	0.406579	0.116188
	H67	H	0.413505	0.409958	0.892873
	H68	H	0.594354	0.109964	0.410875
	H69	H	0.590237	0.884740	0.595463
	H70	H	0.408108	0.108216	0.592274
	H71	H	0.408276	0.886453	0.418843
	H72	H	0.913176	0.609627	0.100115
	H73	H	0.083312	0.389604	0.091001
	H74	H	0.088163	0.607119	0.917015
	H75	H	0.908549	0.385745	0.915110
	H76	H	0.085727	0.910203	0.616699
	H77	H	0.093688	0.083347	0.392322
	H78	H	0.913161	0.087800	0.616629
	H79	H	0.908204	0.907921	0.391192
	H80	H	0.614670	0.090378	0.907425
	H81	H	0.388724	0.090139	0.092742
	H82	H	0.612027	0.901178	0.088360
	H83	H	0.388005	0.904829	0.909270
	H84	H	0.609753	0.912432	0.092700
	H85	H	0.390415	0.086257	0.091019
	H86	H	0.612373	0.093863	0.917952
	H87	H	0.387442	0.899927	0.913176
	H88	H	0.909670	0.088870	0.618632
	H89	H	0.086730	0.087575	0.393669
	H90	H	0.087576	0.907120	0.618499
	H91	H	0.913591	0.913302	0.394388
	H92	H	0.094472	0.609149	0.916367
	H93	H	0.096584	0.386901	0.087781
	H94	H	0.912074	0.606556	0.089721
	H95	H	0.913533	0.386869	0.914081
	H96	H	0.410423	0.107597	0.596407
	H97	H	0.591304	0.885788	0.592896
	H98	H	0.588183	0.108102	0.412455
	H99	H	0.405526	0.884055	0.411449
	H100	H	0.590582	0.405562	0.118259
	H101	H	0.587185	0.588886	0.892597
	H102	H	0.413405	0.592012	0.116798
	H103	H	0.412935	0.404646	0.891679
	H104	H	0.110835	0.586983	0.418566
	H105	H	0.888005	0.585406	0.595873
	H106	H	0.113401	0.405818	0.596443
	H107	H	0.890480	0.407268	0.417681
	H108	H	0.904003	0.610100	0.095327
	H109	H	0.092348	0.384189	0.101561
	H110	H	0.090844	0.609289	0.911272
	H111	H	0.911253	0.387683	0.918975
	H112	H	0.090055	0.910422	0.616879
	H113	H	0.093437	0.091472	0.389798
	H114	H	0.910649	0.085423	0.616609
	H115	H	0.915623	0.905400	0.393603
	H116	H	0.610237	0.083565	0.914562
	H117	H	0.389082	0.086377	0.095525
	H118	H	0.614467	0.904041	0.100104
	H119	H	0.390236	0.905348	0.915443
	C120	C	0.378844	0.004858	0.625846
	C121	C	0.622144	0.988218	0.625344
	C122	C	0.622709	0.005508	0.382051
	C123	C	0.378745	0.988449	0.382742
	C124	C	0.622059	0.376032	0.013016
	C125	C	0.622414	0.618850	0.995477
	C126	C	0.380012	0.617808	0.011446
	C127	C	0.379266	0.375668	0.995230
	C128	C	0.009276	0.618874	0.383967
	C129	C	0.990998	0.618876	0.625336
	C130	C	0.009522	0.375324	0.625388
	C131	C	0.992692	0.375296	0.383048
	C132	C	0.879233	0.505712	0.126304
	C133	C	0.122706	0.489310	0.125706
	C134	C	0.122141	0.505770	0.882838
	C135	C	0.879266	0.489083	0.883770
	C136	C	0.120300	0.877074	0.513681
	C137	C	0.122700	0.118755	0.496009
	C138	C	0.880566	0.117687	0.512856
	C139	C	0.879576	0.876575	0.496606
	C140	C	0.508845	0.119024	0.882391
	C141	C	0.492668	0.118207	0.124638
	C142	C	0.508640	0.875284	0.124866
	C143	C	0.493235	0.875540	0.882918
	C144	C	0.377680	0.887675	0.684725
	C145	C	0.621535	0.106284	0.683367
	C146	C	0.623007	0.888363	0.323403
	C147	C	0.378179	0.105509	0.323356
	C148	C	0.681104	0.375502	0.894579
	C149	C	0.677235	0.616501	0.115881
	C150	C	0.322290	0.617745	0.892366
	C151	C	0.319201	0.373886	0.113051
	C152	C	0.893181	0.679465	0.379428
	C153	C	0.107443	0.679490	0.628704
	C154	C	0.892586	0.315640	0.627773
	C155	C	0.110028	0.316974	0.381175
	C156	C	0.891944	0.374384	0.684525
	C157	C	0.107936	0.620493	0.685216
	C158	C	0.893044	0.620456	0.322803
	C159	C	0.110583	0.375953	0.324621
	C160	C	0.380445	0.674907	0.892380
	C161	C	0.621487	0.675718	0.114947
	C162	C	0.622808	0.318627	0.893910
	C163	C	0.377286	0.317003	0.113571
	C164	C	0.681774	0.888945	0.380231
	C165	C	0.680097	0.106064	0.625967
	C166	C	0.318684	0.888368	0.628357
	C167	C	0.319923	0.105296	0.380993
	C168	C	0.879446	0.388026	0.184124
	C169	C	0.125038	0.605494	0.186491
	C170	C	0.121978	0.388278	0.824221
	C171	C	0.876753	0.605229	0.822968
	C172	C	0.180071	0.875112	0.395546
	C173	C	0.180486	0.119206	0.614670
	C174	C	0.822280	0.118199	0.394199
	C175	C	0.819356	0.874435	0.614317
	C176	C	0.391593	0.177502	0.881181
	C177	C	0.610401	0.175851	0.125144
	C178	C	0.390852	0.817600	0.124920
	C179	C	0.612319	0.821146	0.884647
	C180	C	0.390366	0.876039	0.182340
	C181	C	0.610595	0.117324	0.182265
	C182	C	0.390952	0.118584	0.824336
	C183	C	0.612621	0.880087	0.828027
	C184	C	0.880252	0.175479	0.393906
	C185	C	0.124164	0.177750	0.613970
	C186	C	0.122630	0.817436	0.395656
	C187	C	0.876480	0.816567	0.614138
	C188	C	0.180783	0.388688	0.881093
	C189	C	0.182933	0.605598	0.128465
	C190	C	0.820159	0.388755	0.127802
	C191	C	0.819379	0.605353	0.881259
	C192	C	0.403480	0.086245	0.600864
	C193	C	0.598520	0.906382	0.601306
	C194	C	0.598681	0.087243	0.406640
	C195	C	0.402310	0.906856	0.407228
	C196	C	0.597237	0.399676	0.095607
	C197	C	0.599680	0.596068	0.912091
	C198	C	0.404110	0.593958	0.093933
	C199	C	0.404719	0.400578	0.913244
	C200	C	0.090083	0.593858	0.410261
	C201	C	0.909808	0.593906	0.599788
	C202	C	0.091127	0.399815	0.600437
	C203	C	0.910599	0.398535	0.407269
	C204	C	0.902986	0.587475	0.102067
	C205	C	0.097746	0.407973	0.100582
	C206	C	0.098273	0.587180	0.907899
	C207	C	0.904200	0.407895	0.908943
	C208	C	0.095127	0.902065	0.595956
	C209	C	0.098364	0.094490	0.413459
	C210	C	0.904182	0.094088	0.595748
	C211	C	0.905371	0.901561	0.414476
	C212	C	0.590929	0.095937	0.906551
	C213	C	0.410542	0.094316	0.100101
	C214	C	0.590851	0.899023	0.100668
	C215	C	0.410077	0.897097	0.905873
	Zn216	Zn	0.500194	-0.003511	0.754237
	Zn217	Zn	0.500669	-0.003075	0.254114
	Zn218	Zn	0.750272	0.497314	0.004984
	Zn219	Zn	0.251453	0.497416	0.003648
	Zn220	Zn	-0.000173	0.748024	0.504537
	Zn221	Zn	0.001048	0.246181	0.504249
	Zn222	Zn	-0.000113	0.497075	0.754118
	Zn223	Zn	0.001172	0.497360	0.254638
	Zn224	Zn	0.501195	0.746358	0.003564
	Zn225	Zn	0.500772	0.248258	0.004155
	Zn226	Zn	0.751036	-0.002854	0.503774
	Zn227	Zn	0.249904	-0.003069	0.505129
	N228	N	0.414149	0.961339	0.683724
	N229	N	0.586414	0.031903	0.683407
	N230	N	0.586959	0.961942	0.324250
	N231	N	0.413875	0.031680	0.324118
	N232	N	0.681031	0.410245	0.969745
	N233	N	0.678311	0.582102	0.040402
	N234	N	0.321550	0.583322	0.967733
	N235	N	0.320033	0.409622	0.038329
	N236	N	0.966365	0.678495	0.416952
	N237	N	0.033711	0.678699	0.592194
	N238	N	0.966734	0.315926	0.591817
	N239	N	0.035600	0.316367	0.416736
	N240	N	0.965708	0.410877	0.683255
	N241	N	0.034512	0.583534	0.683351
	N242	N	0.966045	0.583196	0.325662
	N243	N	0.036393	0.411334	0.325292
	N244	N	0.415328	0.675614	0.967625
	N245	N	0.588435	0.677693	0.038903
	N246	N	0.587023	0.318527	0.968728
	N247	N	0.413663	0.317509	0.038949
	N248	N	0.681851	0.962964	0.415872
	N249	N	0.680909	0.031583	0.591012
	N250	N	0.319156	0.962293	0.592445
	N251	N	0.319869	0.031503	0.417204
	N252	N	0.915380	0.461810	0.183529
	N253	N	0.088210	0.532160	0.184871
	N254	N	0.086228	0.462155	0.824863
	N255	N	0.913687	0.531950	0.824758
	N256	N	0.178982	0.911289	0.470106
	N257	N	0.179728	0.083170	0.540087
	N258	N	0.822026	0.083276	0.469322
	N259	N	0.820867	0.910854	0.539971
	N260	N	0.466136	0.178395	0.916201
	N261	N	0.535705	0.177060	0.090403
	N262	N	0.465666	0.816685	0.090239
	N263	N	0.536777	0.817853	0.917664
	N264	N	0.464735	0.911057	0.182755
	N265	N	0.536069	0.082365	0.182266
	N266	N	0.464888	0.082923	0.824817
	N267	N	0.537277	0.912751	0.826352
	N268	N	0.915562	0.175578	0.468944
	N269	N	0.089032	0.177804	0.539113
	N270	N	0.086080	0.818466	0.470116
	N271	N	0.912956	0.817424	0.539558
	N272	N	0.180968	0.462750	0.916904
	N273	N	0.181700	0.532182	0.091387
	N274	N	0.819591	0.462954	0.092684
	N275	N	0.820654	0.532092	0.918435
	O276	O	-0.208456	1.169696	-0.208539
	H277	H	-0.235320	1.195903	-0.238434
	H278	H	-0.217725	1.132852	-0.215153
	O279	O	0.042687	0.214532	0.220434
	H280	H	0.041823	0.220776	0.228353
	H281	H	0.046757	0.228485	0.221547
	O282	O	0.972451	-0.138243	1.183982
	H283	H	0.949803	-0.155499	1.192146
	H284	H	0.955406	-0.134397	1.197321
	O285	O	0.472280	0.435835	0.613755
	H286	H	0.465162	0.425501	0.603019
	H287	H	0.466923	0.415091	0.613040
	O288	O	0.651783	0.563046	0.366079
	H289	H	0.656555	0.538995	0.376392
	H290	H	0.647112	0.564258	0.363622
	O291	O	0.281392	0.552858	0.577401
	H292	H	0.294156	0.543591	0.568365
	H293	H	0.272645	0.545214	0.559636
	O294	O	0.944843	-0.170947	0.831532
	H295	H	0.963165	-0.153204	0.850817
	H296	H	0.953728	-0.190639	0.811205
	O297	O	0.282676	0.455898	0.716652
	H298	H	0.269105	0.457952	0.726232
	H299	H	0.286710	0.460825	0.713646
	O300	O	0.223051	0.215609	1.032975
	H301	H	0.238860	0.223742	1.040408
	H302	H	0.220876	0.223224	1.025593
	O303	O	0.444014	0.702742	0.313146
	H304	H	0.410338	0.685551	0.316781
	H305	H	0.438273	0.729836	0.282441
	O306	O	0.572302	0.544911	0.560085
	H307	H	0.564570	0.549477	0.563052
	H308	H	0.567596	0.546681	0.555117
	O309	O	0.561142	0.290634	0.588570
	H310	H	0.539284	0.294467	0.590505
	H311	H	0.541239	0.283833	0.576063
	O312	O	0.463032	0.289388	0.479041
	H313	H	0.440660	0.293590	0.472919
	H314	H	0.454815	0.290612	0.468030
	O315	O	0.909538	1.166373	1.094004
	H316	H	0.910169	1.167453	1.081240
	H317	H	0.913966	1.162398	1.092897
	O318	O	1.217763	1.040342	0.215367
	H319	H	1.206403	1.019185	0.213818
	H320	H	1.238372	1.028071	0.233215
	O321	O	0.546940	0.729220	0.730624
	H322	H	0.591369	0.724146	0.727251
	H323	H	0.556503	0.758535	0.761021
	O324	O	1.056779	0.963225	-0.112537
	H325	H	1.052100	0.969169	-0.115728
	H326	H	1.059907	0.964389	-0.105914
	O327	O	-0.015183	0.163916	0.984048
	H328	H	-0.034750	0.168139	0.979815
	H329	H	-0.015900	0.152719	0.970200
	O330	O	0.695665	0.276804	0.477145
	H331	H	0.674871	0.276661	0.474487
	H332	H	0.715450	0.251089	0.480007
	O333	O	0.653329	0.543927	0.708107
	H334	H	0.660962	0.519914	0.703845
	H335	H	0.634859	0.533504	0.698504
	O336	O	0.691647	0.307806	0.689949
	H337	H	0.666343	0.313542	0.665005
	H338	H	0.683535	0.333670	0.669741
	O339	O	0.960654	0.037241	1.215146
	H340	H	0.963115	0.052585	1.209423
	H341	H	0.945067	0.034890	1.219960
	O342	O	-0.029734	-0.073576	-0.014051
	H343	H	-0.018962	-0.073098	-0.019866
	H344	H	-0.039371	-0.074871	-0.021666
	O345	O	-0.058933	0.953395	0.777386
	H346	H	-0.054916	0.946293	0.784322
	H347	H	-0.037846	0.948826	0.777908
	O348	O	0.126090	-0.219867	-0.210543
	H349	H	0.158623	-0.240795	-0.232935
	H350	H	0.122553	-0.218806	-0.217334
	O351	O	0.548737	0.456453	0.413739
	H352	H	0.545880	0.445086	0.398668
	H353	H	0.548830	0.458879	0.424666
	O354	O	-0.151354	-0.133432	0.968910
	H355	H	-0.148051	-0.125968	0.974580
	H356	H	-0.142284	-0.130550	0.966729
	O357	O	0.303872	0.688140	0.692276
	H358	H	0.331213	0.671496	0.677334
	H359	H	0.309480	0.662535	0.668785
	O360	O	0.721801	0.717571	0.530605
	H361	H	0.730406	0.741090	0.525465
	H362	H	0.714312	0.719972	0.524688
	O363	O	-0.074623	0.216585	-0.211737
	H364	H	-0.086082	0.238616	-0.223093
	H365	H	-0.101174	0.218420	-0.216617
	O366	O	0.430220	0.431333	0.301682
	H367	H	0.432303	0.425919	0.298385
	H368	H	0.437816	0.436921	0.293826
	O369	O	0.711416	0.282676	0.293680
	H370	H	0.744463	0.251064	0.260992
	H371	H	0.702422	0.291858	0.313486
	O372	O	0.788732	0.962773	0.208203
	H373	H	0.788098	0.934252	0.204319
	H374	H	0.771696	0.958518	0.219924
	O375	O	1.182959	0.186709	-0.179902
	H376	H	1.164926	0.181111	-0.162867
	H377	H	1.168144	0.163068	-0.167082
	O378	O	0.210877	0.207001	0.208883
	H379	H	0.203523	0.184000	0.193069
	H380	H	0.198086	0.186332	0.196835
	O381	O	-0.006691	0.982733	1.015462
	H382	H	-0.008024	0.982440	1.015796
	H383	H	-0.014127	0.991999	1.007351
	O384	O	0.775237	0.223710	0.971676
	H385	H	0.779424	0.223416	0.932306
	H386	H	0.751265	0.251347	0.965345
	O387	O	1.213811	0.780662	-0.111179
	H388	H	1.239874	0.765086	-0.099739
	H389	H	1.222103	0.775917	-0.133476
	O390	O	0.539915	0.272401	0.280544
	H391	H	0.548727	0.252528	0.258788
	H392	H	0.559778	0.267218	0.283078
	O393	O	0.308001	0.302910	0.316499
	H394	H	0.278373	0.274397	0.280361
	H395	H	0.328337	0.330373	0.314773
	O396	O	-0.166802	1.030067	0.805632
	H397	H	-0.157519	1.010160	0.805609
	H398	H	-0.176475	1.019217	0.780364
	O399	O	-0.021497	-0.091863	0.961360
	H400	H	-0.025337	-0.088351	0.951093
	H401	H	-0.032003	-0.104786	0.963183
	O402	O	0.452619	0.585556	0.420260
	H403	H	0.456288	0.593032	0.423685
	H404	H	0.458008	0.590298	0.415040
	O405	O	1.289539	-0.289076	1.296817
	H406	H	1.255722	-0.259015	1.263884
	H407	H	1.287403	-0.315307	1.312631
	O408	O	0.192788	0.006042	0.040794
	H409	H	0.180667	0.000686	0.040204
	H410	H	0.192692	0.005164	0.028365
	O411	O	0.766960	0.768121	0.777055
	H412	H	0.770602	0.749327	0.761286
	H413	H	0.784223	0.772949	0.777114
	O414	O	0.429832	0.414321	0.498231
	H415	H	0.429446	0.410032	0.487636
	H416	H	0.424725	0.411064	0.489967
	O417	O	0.709136	0.594282	0.706384
	H418	H	0.716890	0.593041	0.695706
	H419	H	0.701255	0.562124	0.694016
	O420	O	0.443468	0.734573	0.529267
	H421	H	0.446045	0.736671	0.558443
	H422	H	0.426222	0.735130	0.519682
	O423	O	-0.118191	-0.014590	1.083134
	H424	H	-0.119068	-0.000645	1.098671
	H425	H	-0.121332	-0.016668	1.063694
	O426	O	0.288039	0.545511	0.295131
	H427	H	0.293348	0.554614	0.308621
	H428	H	0.271809	0.538718	0.276148
	O429	O	0.792995	0.781507	1.216514
	H430	H	0.787017	0.787801	1.178357
	H431	H	0.758800	0.750324	1.247911
	O432	O	0.730709	0.520404	0.501878
	H433	H	0.724833	0.514565	0.498494
	H434	H	0.720889	0.528870	0.501127
	O435	O	0.187974	0.805294	0.194796
	H436	H	0.162355	0.817735	0.179605
	H437	H	0.170257	0.823646	0.174379
	O438	O	-0.189584	0.187299	0.192996
	H439	H	-0.165982	0.184726	0.164869
	H440	H	-0.177116	0.154687	0.180840
	O441	O	0.085749	0.168335	-0.007911
	H442	H	0.075238	0.165090	-0.023070
	H443	H	0.104002	0.159824	-0.007733
	O444	O	0.702417	0.405840	0.526340
	H445	H	0.694553	0.411705	0.509214
	H446	H	0.708286	0.400586	0.515621
	O447	O	0.042169	1.089773	0.789956
	H448	H	0.042830	1.093315	0.779553
	H449	H	0.038985	1.092308	0.790991
	O450	O	-0.221117	0.767959	1.044750
	H451	H	-0.226900	0.785051	1.031377
	H452	H	-0.244841	0.746596	1.051118
	O453	O	0.466882	0.485342	0.711032
	H454	H	0.460228	0.480071	0.688958
	H455	H	0.461207	0.483755	0.715203
	O456	O	0.287742	0.288063	0.715387
	H457	H	0.278620	0.315173	0.708371
	H458	H	0.270306	0.265360	0.739397
	O459	O	1.037812	0.775719	0.122533
	H460	H	1.029118	0.765801	0.120315
	H461	H	1.008974	0.763354	0.126994
	O462	O	0.724088	0.456262	0.289421
	H463	H	0.750873	0.454268	0.261640
	H464	H	0.722075	0.441864	0.301060
	O465	O	0.781933	0.018940	-0.009000
	H466	H	0.778527	0.031760	-0.006375
	H467	H	0.783250	0.019933	-0.028529
	O468	O	0.689728	0.686841	0.316866
	H469	H	0.660238	0.675307	0.328252
	H470	H	0.686038	0.657372	0.339491
	O471	O	0.464890	0.273510	0.724607
	H472	H	0.436549	0.281020	0.723294
	H473	H	0.458630	0.247848	0.748951
	O474	O	0.279259	0.719169	0.472502
	H475	H	0.255251	0.738852	0.467071
	H476	H	0.285613	0.710544	0.461228
	O477	O	0.495769	0.489955	1.316033
	H478	H	0.490326	0.508092	1.307101
	H479	H	0.489034	0.475513	1.320719
	O480	O	0.540642	0.716145	0.422529
	H481	H	0.511131	0.722479	0.438893
	H482	H	0.523144	0.715219	0.393678
	O483	O	0.278156	0.274405	0.542971
	H484	H	0.272610	0.284114	0.558730
	H485	H	0.255402	0.252838	0.549277
	O486	O	0.465223	0.624919	0.658979
	H487	H	0.500326	0.647014	0.680531
	H488	H	0.472741	0.603372	0.652358
	O489	O	1.083092	0.973165	0.155734
	H490	H	1.079531	0.950325	0.164388
	H491	H	1.072943	0.990331	0.139888
	O492	O	0.167977	-0.176640	-0.013350
	H493	H	0.175005	-0.193350	-0.009103
	H494	H	0.155366	-0.180970	-0.001061
	O495	O	0.196212	0.990915	1.014318
	H496	H	0.179646	0.989257	1.013604
	H497	H	0.198271	0.986648	1.022368
	O498	O	1.219779	0.964307	0.786487
	H499	H	1.221194	0.950234	0.793914
	H500	H	1.237683	0.952408	0.766474
	O501	O	0.285462	0.453971	0.428381
	H502	H	0.290460	0.457406	0.414160
	H503	H	0.289921	0.436696	0.432700
