data_Molecule from HDF5

_cell_length_a		16.235855
_cell_length_b		16.147047
_cell_length_c		16.415484
_cell_angle_alpha	90.142291
_cell_angle_beta	89.832557
_cell_angle_gamma	89.962184
_symmetry_space_group_name_H-M	'P 1'
_symmetry_Int_Tables_number		1

loop_
	_symmetry_equiv_pos_as_xyz
	x,y,z

loop_
	_atom_site_label
	_atom_site_type_symbol
	_atom_site_fract_x
	_atom_site_fract_y
	_atom_site_fract_z
	H0	H	0.400170	0.833455	0.715947
	H1	H	0.598881	0.162734	0.715243
	H2	H	0.602239	0.834228	0.284427
	H3	H	0.400123	0.162235	0.286822
	H4	H	0.717117	0.397387	0.837855
	H5	H	0.715493	0.596338	0.162310
	H6	H	0.286951	0.596793	0.837133
	H7	H	0.285808	0.400107	0.162525
	H8	H	0.836468	0.709894	0.404371
	H9	H	0.166423	0.709405	0.595575
	H10	H	0.836240	0.286271	0.595639
	H11	H	0.165756	0.285426	0.403476
	H12	H	0.838664	0.396348	0.716675
	H13	H	0.164628	0.597965	0.715023
	H14	H	0.837703	0.597826	0.284508
	H15	H	0.164663	0.396087	0.283476
	H16	H	0.404780	0.712025	0.837230
	H17	H	0.598414	0.712092	0.162951
	H18	H	0.599643	0.282900	0.837801
	H19	H	0.403350	0.284922	0.163736
	H20	H	0.712902	0.831912	0.403637
	H21	H	0.713316	0.162995	0.598053
	H22	H	0.287910	0.832367	0.598698
	H23	H	0.289148	0.162846	0.406513
	H24	H	0.901470	0.333019	0.214687
	H25	H	0.100414	0.661737	0.214663
	H26	H	0.101686	0.332878	0.785320
	H27	H	0.901924	0.661477	0.785903
	H28	H	0.217480	0.898027	0.338426
	H29	H	0.214375	0.096791	0.663823
	H30	H	0.786709	0.095642	0.337325
	H31	H	0.784903	0.898245	0.663624
	H32	H	0.336451	0.210306	0.906488
	H33	H	0.667657	0.208787	0.096118
	H34	H	0.336918	0.786051	0.096996
	H35	H	0.666806	0.786915	0.903932
	H36	H	0.338207	0.897415	0.216761
	H37	H	0.664631	0.099374	0.217374
	H38	H	0.336745	0.098178	0.786573
	H39	H	0.663833	0.897645	0.783480
	H40	H	0.903951	0.211366	0.337296
	H41	H	0.098433	0.213129	0.662773
	H42	H	0.097676	0.783909	0.337514
	H43	H	0.901139	0.782185	0.663686
	H44	H	0.213815	0.332206	0.903101
	H45	H	0.211950	0.663794	0.095409
	H46	H	0.789145	0.332515	0.096629
	H47	H	0.789222	0.662803	0.903261
	H48	H	0.399089	0.116959	0.593067
	H49	H	0.595983	0.879288	0.593845
	H50	H	0.588046	0.115551	0.402814
	H51	H	0.415828	0.881194	0.404781
	H52	H	0.589948	0.397894	0.116745
	H53	H	0.597210	0.584713	0.885776
	H54	H	0.410279	0.590325	0.113842
	H55	H	0.412570	0.408925	0.887786
	H56	H	0.121508	0.586281	0.392210
	H57	H	0.884048	0.590765	0.594577
	H58	H	0.120891	0.403032	0.598635
	H59	H	0.884126	0.399050	0.412802
	H60	H	0.119657	0.400932	0.590076
	H61	H	0.884553	0.588793	0.592809
	H62	H	0.120803	0.602493	0.410181
	H63	H	0.887300	0.414991	0.406725
	H64	H	0.405958	0.596123	0.116268
	H65	H	0.588983	0.593299	0.885002
	H66	H	0.603771	0.402360	0.119516
	H67	H	0.410614	0.397826	0.883372
	H68	H	0.591645	0.113159	0.414742
	H69	H	0.590846	0.879459	0.596807
	H70	H	0.409721	0.117527	0.604473
	H71	H	0.408876	0.880911	0.414177
	H72	H	0.916617	0.614908	0.101174
	H73	H	0.089606	0.382719	0.087102
	H74	H	0.095989	0.618754	0.896546
	H75	H	0.904922	0.378475	0.908709
	H76	H	0.094086	0.905257	0.615609
	H77	H	0.095745	0.098279	0.382284
	H78	H	0.908884	0.095938	0.616602
	H79	H	0.909370	0.904035	0.386066
	H80	H	0.616532	0.084846	0.907319
	H81	H	0.385402	0.093120	0.090131
	H82	H	0.619339	0.907173	0.097608
	H83	H	0.384886	0.907589	0.909014
	H84	H	0.618775	0.903579	0.091091
	H85	H	0.386098	0.084359	0.095704
	H86	H	0.620147	0.089991	0.900524
	H87	H	0.383817	0.906320	0.903733
	H88	H	0.901576	0.090655	0.616268
	H89	H	0.103222	0.086537	0.384172
	H90	H	0.093364	0.903552	0.616444
	H91	H	0.905719	0.901596	0.384417
	H92	H	0.086566	0.613011	0.907659
	H93	H	0.101306	0.377765	0.091042
	H94	H	0.911740	0.611971	0.084524
	H95	H	0.911292	0.379575	0.902193
	H96	H	0.413554	0.113089	0.589771
	H97	H	0.591443	0.880825	0.590773
	H98	H	0.599637	0.117281	0.406653
	H99	H	0.404897	0.877525	0.403704
	H100	H	0.593834	0.411595	0.113520
	H101	H	0.600857	0.595782	0.881287
	H102	H	0.403089	0.589204	0.115991
	H103	H	0.401804	0.405428	0.882795
	H104	H	0.112734	0.579786	0.413327
	H105	H	0.884309	0.587752	0.595515
	H106	H	0.117164	0.409250	0.592770
	H107	H	0.880046	0.403046	0.396814
	H108	H	0.900078	0.618429	0.096009
	H109	H	0.090536	0.378452	0.099754
	H110	H	0.101226	0.616558	0.911000
	H111	H	0.913791	0.382338	0.911004
	H112	H	0.095280	0.904090	0.616677
	H113	H	0.089932	0.087174	0.387594
	H114	H	0.909514	0.087348	0.613641
	H115	H	0.904862	0.905092	0.385322
	H116	H	0.618100	0.093597	0.908651
	H117	H	0.382878	0.092868	0.100328
	H118	H	0.615898	0.910637	0.091244
	H119	H	0.383180	0.902347	0.907578
	C120	C	0.378971	0.006648	0.623377
	C121	C	0.621279	0.989101	0.622107
	C122	C	0.622166	0.006332	0.379555
	C123	C	0.380553	0.989047	0.380355
	C124	C	0.624112	0.375197	0.008954
	C125	C	0.623824	0.619905	0.991529
	C126	C	0.378774	0.620215	0.008108
	C127	C	0.379637	0.375852	0.991932
	C128	C	0.009793	0.618683	0.377725
	C129	C	0.992883	0.618211	0.621523
	C130	C	0.010497	0.376019	0.621578
	C131	C	0.992443	0.376347	0.377583
	C132	C	0.880307	0.506309	0.121916
	C133	C	0.122169	0.488920	0.120668
	C134	C	0.123396	0.506572	0.877348
	C135	C	0.880983	0.488797	0.879123
	C136	C	0.123128	0.875536	0.509092
	C137	C	0.123554	0.119722	0.492388
	C138	C	0.878704	0.119924	0.508225
	C139	C	0.877856	0.874673	0.492621
	C140	C	0.509555	0.118678	0.878964
	C141	C	0.493270	0.119486	0.123275
	C142	C	0.509744	0.877369	0.122015
	C143	C	0.492440	0.876287	0.878294
	C144	C	0.380689	0.882455	0.677875
	C145	C	0.618878	0.113395	0.677102
	C146	C	0.621450	0.882914	0.323136
	C147	C	0.381313	0.113196	0.325392
	C148	C	0.679370	0.377042	0.886573
	C149	C	0.677896	0.617189	0.113919
	C150	C	0.324460	0.617620	0.885637
	C151	C	0.324163	0.379251	0.114199
	C152	C	0.885788	0.672667	0.382511
	C153	C	0.116870	0.672515	0.617021
	C154	C	0.885866	0.322522	0.617604
	C155	C	0.116496	0.322179	0.382043
	C156	C	0.886980	0.377525	0.677182
	C157	C	0.116149	0.617166	0.676340
	C158	C	0.886456	0.617194	0.322887
	C159	C	0.115839	0.376841	0.322078
	C160	C	0.383081	0.674709	0.885670
	C161	C	0.619981	0.675014	0.113890
	C162	C	0.621068	0.320004	0.886602
	C163	C	0.382564	0.321823	0.114878
	C164	C	0.676724	0.881763	0.382125
	C165	C	0.675894	0.113612	0.618825
	C166	C	0.324871	0.881986	0.619795
	C167	C	0.326174	0.113546	0.384687
	C168	C	0.881743	0.382286	0.176771
	C169	C	0.120501	0.612881	0.176156
	C170	C	0.121401	0.382230	0.822929
	C171	C	0.882319	0.612558	0.824048
	C172	C	0.178944	0.877798	0.386967
	C173	C	0.177014	0.116916	0.614963
	C174	C	0.823961	0.116821	0.386042
	C175	C	0.822918	0.877744	0.615048
	C176	C	0.385699	0.173184	0.884152
	C177	C	0.617435	0.173236	0.118333
	C178	C	0.386299	0.822614	0.118767
	C179	C	0.616988	0.823043	0.882256
	C180	C	0.386915	0.878251	0.178121
	C181	C	0.616085	0.118896	0.178831
	C182	C	0.385708	0.117312	0.824928
	C183	C	0.615506	0.878280	0.822639
	C184	C	0.882392	0.174168	0.385980
	C185	C	0.119356	0.175036	0.614303
	C186	C	0.119428	0.821278	0.386117
	C187	C	0.880915	0.819933	0.614916
	C188	C	0.177341	0.381954	0.881368
	C189	C	0.175755	0.613834	0.116912
	C190	C	0.825890	0.381974	0.118158
	C191	C	0.826146	0.613100	0.882234
	C192	C	0.401044	0.093371	0.602056
	C193	C	0.599320	0.902185	0.600262
	C194	C	0.599709	0.092861	0.401728
	C195	C	0.403136	0.902510	0.401301
	C196	C	0.602388	0.397541	0.094402
	C197	C	0.602165	0.597671	0.906065
	C198	C	0.400063	0.598280	0.093316
	C199	C	0.402000	0.397471	0.906739
	C200	C	0.095972	0.596033	0.398952
	C201	C	0.906679	0.595663	0.600611
	C202	C	0.096870	0.397892	0.600326
	C203	C	0.906062	0.399102	0.399069
	C204	C	0.902864	0.592800	0.100215
	C205	C	0.100213	0.402081	0.098961
	C206	C	0.101114	0.593545	0.898813
	C207	C	0.903494	0.402227	0.900877
	C208	C	0.100739	0.897601	0.594291
	C209	C	0.102648	0.097137	0.406680
	C210	C	0.900266	0.097829	0.593621
	C211	C	0.900005	0.897032	0.407468
	C212	C	0.595899	0.096261	0.899404
	C213	C	0.406970	0.096656	0.101781
	C214	C	0.595852	0.900475	0.099863
	C215	C	0.406124	0.898679	0.900436
	Zn216	Zn	0.500244	-0.002285	0.750161
	Zn217	Zn	0.501249	-0.001538	0.251633
	Zn218	Zn	0.752422	0.497376	-0.000189
	Zn219	Zn	0.249696	0.497861	-0.000778
	Zn220	Zn	0.000905	0.746432	0.500548
	Zn221	Zn	0.001130	0.248939	0.499589
	Zn222	Zn	0.001676	0.497289	0.750205
	Zn223	Zn	0.001628	0.497324	0.249112
	Zn224	Zn	0.501623	0.748870	0.000363
	Zn225	Zn	0.501806	0.246707	0.000806
	Zn226	Zn	0.749594	-0.002797	0.500509
	Zn227	Zn	0.252902	-0.002727	0.501733
	N228	N	0.413681	0.960873	0.680298
	N229	N	0.585832	0.034966	0.679223
	N230	N	0.588067	0.961354	0.321463
	N231	N	0.414377	0.034595	0.322192
	N232	N	0.681298	0.410726	0.963689
	N233	N	0.680455	0.583746	0.036756
	N234	N	0.321723	0.584323	0.962635
	N235	N	0.322023	0.412039	0.036941
	N236	N	0.963372	0.673569	0.415990
	N237	N	0.039236	0.673313	0.583703
	N238	N	0.963475	0.321722	0.583612
	N239	N	0.038800	0.321723	0.415748
	N240	N	0.965411	0.409933	0.680127
	N241	N	0.038115	0.584169	0.679454
	N242	N	0.964668	0.584207	0.319928
	N243	N	0.037671	0.410042	0.319341
	N244	N	0.416214	0.676419	0.962674
	N245	N	0.587089	0.676826	0.036670
	N246	N	0.587444	0.318780	0.963605
	N247	N	0.416352	0.319529	0.037808
	N248	N	0.677048	0.959316	0.416670
	N249	N	0.677424	0.035316	0.585423
	N250	N	0.323750	0.960125	0.586406
	N251	N	0.325598	0.035602	0.418040
	N252	N	0.914546	0.460778	0.179628
	N253	N	0.087874	0.534345	0.178590
	N254	N	0.088531	0.460905	0.820157
	N255	N	0.915852	0.534328	0.821993
	N256	N	0.181232	0.910963	0.464283
	N257	N	0.179666	0.083243	0.538037
	N258	N	0.821448	0.083636	0.463274
	N259	N	0.820862	0.911107	0.538017
	N260	N	0.463498	0.174055	0.917046
	N261	N	0.539838	0.173695	0.084399
	N262	N	0.463582	0.822147	0.084453
	N263	N	0.539357	0.821732	0.916220
	N264	N	0.464890	0.911792	0.180193
	N265	N	0.538034	0.086058	0.181793
	N266	N	0.463825	0.084237	0.821514
	N267	N	0.537123	0.910558	0.820104
	N268	N	0.915717	0.176135	0.462860
	N269	N	0.087059	0.177145	0.536909
	N270	N	0.085562	0.819681	0.463054
	N271	N	0.914352	0.818011	0.537799
	N272	N	0.178375	0.460142	0.914401
	N273	N	0.176830	0.535663	0.082988
	N274	N	0.824753	0.460086	0.084856
	N275	N	0.825238	0.535084	0.915878
	O276	O	1.009644	1.020696	-0.007676
	H277	H	1.013214	1.024389	-0.001104
	H278	H	1.002537	1.023652	-0.014533
	O279	O	-0.034331	0.004672	-0.027659
	H280	H	-0.041572	0.000313	-0.021693
	H281	H	-0.027490	-0.002385	-0.029181
	O282	O	0.039396	0.029757	0.975383
	H283	H	0.046822	0.030404	0.972559
	H284	H	0.035052	0.021067	0.970339
	O285	O	0.486429	0.509196	0.522811
	H286	H	0.485314	0.504268	0.527792
	H287	H	0.480052	0.508916	0.529433
	O288	O	0.493555	0.468430	0.461555
	H289	H	0.498970	0.465122	0.463081
	H290	H	0.491409	0.477461	0.458359
	O291	O	0.440338	0.538099	0.500847
	H292	H	0.441663	0.533600	0.496336
	H293	H	0.432979	0.532492	0.494944
	O294	O	0.017904	-0.014600	0.019331
	H295	H	0.016963	-0.018704	0.020664
	H296	H	0.023959	-0.014408	0.013640
	O297	O	0.456885	0.509488	0.474241
	H298	H	0.449617	0.503587	0.468238
	H299	H	0.458391	0.498339	0.476184
	O300	O	-0.041077	0.939584	1.019131
	H301	H	-0.039253	0.943128	1.022624
	H302	H	-0.040865	0.942443	1.020263
	O303	O	0.514037	0.524198	0.534026
	H304	H	0.511009	0.527098	0.531279
	H305	H	0.514090	0.521555	0.532217
	O306	O	-0.010394	0.053734	0.960132
	H307	H	0.003285	0.044084	0.956463
	H308	H	-0.006556	0.067356	0.966296
	O309	O	1.056228	1.000069	0.999504
	H310	H	1.047846	1.000248	0.991356
	H311	H	1.049554	1.001143	1.003988
	O312	O	0.483757	0.471946	0.523404
	H313	H	0.494631	0.480257	0.520637
	H314	H	0.488234	0.480803	0.534369
	O315	O	0.565783	0.483691	0.511754
	H316	H	0.575244	0.478524	0.509993
	H317	H	0.556449	0.494471	0.511721
	O318	O	-0.022166	1.016542	-0.027675
	H319	H	-0.024531	1.013059	-0.026086
	H320	H	-0.020180	1.020605	-0.025676
	O321	O	1.021015	0.944280	-0.039650
	H322	H	1.020802	0.947333	-0.035302
	H323	H	1.012565	0.945444	-0.051723
