data_Molecule from HDF5

_cell_length_a		16.335892
_cell_length_b		16.235854
_cell_length_c		16.266613
_cell_angle_alpha	89.904738
_cell_angle_beta	89.823981
_cell_angle_gamma	89.933323
_symmetry_space_group_name_H-M	'P 1'
_symmetry_Int_Tables_number		1

loop_
	_symmetry_equiv_pos_as_xyz
	x,y,z

loop_
	_atom_site_label
	_atom_site_type_symbol
	_atom_site_fract_x
	_atom_site_fract_y
	_atom_site_fract_z
	H0	H	0.398192	0.844532	0.714945
	H1	H	0.591932	0.174811	0.712288
	H2	H	0.593968	0.845574	0.288326
	H3	H	0.398203	0.173697	0.287364
	H4	H	0.710756	0.411268	0.836647
	H5	H	0.709342	0.608371	0.163382
	H6	H	0.281837	0.609608	0.835975
	H7	H	0.280709	0.411271	0.164058
	H8	H	0.832279	0.723911	0.402481
	H9	H	0.158938	0.724416	0.598436
	H10	H	0.831553	0.295673	0.597275
	H11	H	0.159846	0.296214	0.402510
	H12	H	0.832079	0.411171	0.715018
	H13	H	0.159419	0.606769	0.713481
	H14	H	0.832695	0.609563	0.284473
	H15	H	0.159369	0.411976	0.285520
	H16	H	0.399354	0.724223	0.835698
	H17	H	0.591518	0.721427	0.164803
	H18	H	0.592566	0.298320	0.835390
	H19	H	0.399338	0.296994	0.164588
	H20	H	0.709987	0.846058	0.402831
	H21	H	0.710108	0.173376	0.599343
	H22	H	0.280843	0.844811	0.601037
	H23	H	0.282059	0.173023	0.402844
	H24	H	0.898871	0.344983	0.213348
	H25	H	0.092266	0.674034	0.212572
	H26	H	0.093851	0.345285	0.786712
	H27	H	0.898316	0.673686	0.786280
	H28	H	0.213847	0.907961	0.337379
	H29	H	0.209285	0.108105	0.664259
	H30	H	0.781206	0.108092	0.336629
	H31	H	0.780571	0.910450	0.664189
	H32	H	0.332791	0.224762	0.902383
	H33	H	0.660294	0.223559	0.097424
	H34	H	0.333069	0.795477	0.099479
	H35	H	0.660130	0.795998	0.902366
	H36	H	0.333215	0.911194	0.215324
	H37	H	0.660072	0.107903	0.214971
	H38	H	0.332796	0.108658	0.786568
	H39	H	0.660378	0.912605	0.786074
	H40	H	0.898507	0.222739	0.335571
	H41	H	0.091029	0.221898	0.664287
	H42	H	0.093612	0.796498	0.335039
	H43	H	0.898450	0.796303	0.664443
	H44	H	0.210409	0.346173	0.901132
	H45	H	0.208744	0.674056	0.098276
	H46	H	0.781352	0.345607	0.099911
	H47	H	0.781408	0.673455	0.901650
	H48	H	0.403940	0.124841	0.594225
	H49	H	0.585370	0.896032	0.587845
	H50	H	0.590766	0.126462	0.412842
	H51	H	0.410750	0.891904	0.400427
	H52	H	0.593579	0.424417	0.116634
	H53	H	0.590612	0.603754	0.882140
	H54	H	0.404223	0.604149	0.115439
	H55	H	0.405881	0.417846	0.885055
	H56	H	0.109290	0.589107	0.398954
	H57	H	0.883207	0.603177	0.582902
	H58	H	0.112893	0.414447	0.597466
	H59	H	0.877494	0.409886	0.404871
	H60	H	0.111545	0.412358	0.590672
	H61	H	0.880548	0.593515	0.600378
	H62	H	0.117259	0.613825	0.398817
	H63	H	0.881424	0.416997	0.411822
	H64	H	0.398234	0.605489	0.118115
	H65	H	0.590273	0.601474	0.883387
	H66	H	0.580578	0.416421	0.114099
	H67	H	0.401638	0.414136	0.882651
	H68	H	0.591906	0.129052	0.403332
	H69	H	0.595415	0.890355	0.593498
	H70	H	0.399737	0.125394	0.591649
	H71	H	0.406548	0.896469	0.417958
	H72	H	0.908485	0.623649	0.091265
	H73	H	0.092234	0.393307	0.087135
	H74	H	0.086981	0.627463	0.903230
	H75	H	0.911368	0.395728	0.910405
	H76	H	0.090491	0.903896	0.620233
	H77	H	0.092259	0.106248	0.381701
	H78	H	0.896094	0.098753	0.617482
	H79	H	0.902439	0.922614	0.385380
	H80	H	0.613466	0.100795	0.899832
	H81	H	0.375929	0.105777	0.107270
	H82	H	0.616096	0.905020	0.093960
	H83	H	0.380790	0.911404	0.914187
	H84	H	0.609277	0.920210	0.085846
	H85	H	0.380259	0.113674	0.087121
	H86	H	0.613607	0.110131	0.906962
	H87	H	0.383325	0.924625	0.909572
	H88	H	0.907068	0.098668	0.614129
	H89	H	0.093438	0.097109	0.384224
	H90	H	0.097807	0.926220	0.615880
	H91	H	0.906059	0.912789	0.383547
	H92	H	0.087896	0.625088	0.909141
	H93	H	0.091876	0.390145	0.097714
	H94	H	0.896776	0.626876	0.088258
	H95	H	0.894894	0.392161	0.914779
	H96	H	0.399781	0.127016	0.596183
	H97	H	0.585008	0.891787	0.600152
	H98	H	0.583499	0.125923	0.407134
	H99	H	0.394235	0.888968	0.407035
	H100	H	0.592593	0.409355	0.121099
	H101	H	0.588253	0.603283	0.882817
	H102	H	0.399845	0.599190	0.115961
	H103	H	0.400173	0.419901	0.883608
	H104	H	0.108287	0.603104	0.420560
	H105	H	0.875443	0.612846	0.598794
	H106	H	0.109670	0.419344	0.592343
	H107	H	0.879166	0.419889	0.401916
	H108	H	0.900796	0.629139	0.099220
	H109	H	0.083050	0.395119	0.092668
	H110	H	0.092370	0.628160	0.905764
	H111	H	0.900437	0.389671	0.898264
	H112	H	0.075598	0.920421	0.611442
	H113	H	0.084388	0.101603	0.384838
	H114	H	0.902565	0.108273	0.618196
	H115	H	0.896822	0.915559	0.381472
	H116	H	0.610294	0.099679	0.911305
	H117	H	0.384309	0.092639	0.091369
	H118	H	0.614323	0.920737	0.103250
	H119	H	0.377734	0.914781	0.900960
	C120	C	0.373341	0.017136	0.622712
	C121	C	0.616921	1.001216	0.622184
	C122	C	0.617344	0.018526	0.379293
	C123	C	0.374988	1.000963	0.379876
	C124	C	0.617339	0.388896	0.008811
	C125	C	0.617022	0.630926	0.991639
	C126	C	0.373341	0.632060	0.008230
	C127	C	0.374170	0.388809	0.991964
	C128	C	0.003495	0.630875	0.378125
	C129	C	0.987677	0.631400	0.622075
	C130	C	0.003674	0.387054	0.622112
	C131	C	0.987330	0.387248	0.377526
	C132	C	0.873659	0.518026	0.121907
	C133	C	0.116850	0.501518	0.120864
	C134	C	0.117666	0.518315	0.877988
	C135	C	0.874256	0.500968	0.878933
	C136	C	0.117423	0.887715	0.507768
	C137	C	0.117549	0.130292	0.491738
	C138	C	0.873835	0.130583	0.508276
	C139	C	0.873400	0.888029	0.491767
	C140	C	0.504311	0.131857	0.878486
	C141	C	0.488410	0.131685	0.122550
	C142	C	0.504959	0.887587	0.122618
	C143	C	0.488507	0.888616	0.879369
	C144	C	0.376885	0.893606	0.677581
	C145	C	0.613267	0.125472	0.675642
	C146	C	0.614698	0.894731	0.325206
	C147	C	0.377579	0.124627	0.325125
	C148	C	0.672337	0.391209	0.885232
	C149	C	0.671205	0.628340	0.114719
	C150	C	0.319455	0.629938	0.884954
	C151	C	0.318921	0.391198	0.115192
	C152	C	0.880805	0.685594	0.381673
	C153	C	0.110362	0.686006	0.618802
	C154	C	0.880613	0.332560	0.618976
	C155	C	0.110781	0.333154	0.381042
	C156	C	0.880671	0.390341	0.677052
	C157	C	0.110546	0.627877	0.676233
	C158	C	0.881172	0.628645	0.323109
	C159	C	0.110525	0.390432	0.322772
	C160	C	0.377769	0.686910	0.884737
	C161	C	0.612974	0.684733	0.115338
	C162	C	0.613891	0.334861	0.884886
	C163	C	0.377663	0.334399	0.115652
	C164	C	0.672424	0.895061	0.382067
	C165	C	0.672190	0.124597	0.619758
	C166	C	0.318737	0.893809	0.620526
	C167	C	0.320055	0.124276	0.382547
	C168	C	0.877295	0.394186	0.176377
	C169	C	0.113302	0.625028	0.175196
	C170	C	0.114603	0.394517	0.823949
	C171	C	0.877365	0.624651	0.823842
	C172	C	0.174011	0.888992	0.385304
	C173	C	0.171514	0.127977	0.615235
	C174	C	0.818865	0.128882	0.385243
	C175	C	0.818576	0.890381	0.615149
	C176	C	0.381513	0.186862	0.882193
	C177	C	0.611345	0.186195	0.119032
	C178	C	0.381926	0.833101	0.119864
	C179	C	0.611558	0.834038	0.881912
	C180	C	0.381887	0.891127	0.177151
	C181	C	0.611281	0.128477	0.177118
	C182	C	0.381386	0.129526	0.824264
	C183	C	0.611465	0.891773	0.824034
	C184	C	0.877522	0.185239	0.384688
	C185	C	0.112690	0.184394	0.615439
	C186	C	0.114705	0.833291	0.384339
	C187	C	0.876981	0.833405	0.615217
	C188	C	0.172554	0.394991	0.880590
	C189	C	0.171265	0.624995	0.118295
	C190	C	0.818907	0.394585	0.119887
	C191	C	0.819590	0.624832	0.881306
	C192	C	0.394851	0.103636	0.600496
	C193	C	0.594877	0.914835	0.600493
	C194	C	0.595279	0.104846	0.401307
	C195	C	0.397195	0.914734	0.402008
	C196	C	0.595545	0.410593	0.094884
	C197	C	0.595855	0.609401	0.905077
	C198	C	0.394477	0.609680	0.094295
	C199	C	0.396156	0.410810	0.906121
	C200	C	0.089413	0.608528	0.399800
	C201	C	0.901737	0.609400	0.600453
	C202	C	0.089269	0.408950	0.600084
	C203	C	0.901510	0.409185	0.399698
	C204	C	0.895591	0.604232	0.099531
	C205	C	0.095304	0.415183	0.098980
	C206	C	0.095781	0.604697	0.899660
	C207	C	0.895691	0.414827	0.901303
	C208	C	0.094625	0.910166	0.593627
	C209	C	0.096291	0.108138	0.405703
	C210	C	0.895540	0.108210	0.594324
	C211	C	0.895378	0.910304	0.405687
	C212	C	0.590282	0.109915	0.899593
	C213	C	0.402425	0.110272	0.101376
	C214	C	0.590987	0.909108	0.100881
	C215	C	0.402867	0.910524	0.901591
	Zn216	Zn	0.495738	0.010202	0.750142
	Zn217	Zn	0.496411	0.009437	0.251533
	Zn218	Zn	0.745518	0.509997	0.000183
	Zn219	Zn	0.245299	0.509965	-0.000430
	Zn220	Zn	-0.004191	0.759585	0.499563
	Zn221	Zn	-0.004255	0.258600	0.499898
	Zn222	Zn	-0.003987	0.509156	0.750842
	Zn223	Zn	-0.004240	0.509183	0.249152
	Zn224	Zn	0.496185	0.759378	0.000349
	Zn225	Zn	0.496659	0.260482	0.000344
	Zn226	Zn	0.744771	0.009975	0.500599
	Zn227	Zn	0.245799	0.008445	0.500510
	N228	N	0.409940	0.971472	0.679212
	N229	N	0.579654	0.047757	0.677199
	N230	N	0.581303	0.972480	0.323410
	N231	N	0.410965	0.046841	0.323297
	N232	N	0.674644	0.424029	0.963038
	N233	N	0.673798	0.595577	0.036740
	N234	N	0.316533	0.596655	0.962696
	N235	N	0.316592	0.424164	0.037327
	N236	N	0.957893	0.686923	0.415162
	N237	N	0.032954	0.688512	0.586062
	N238	N	0.958035	0.330518	0.585570
	N239	N	0.033036	0.330791	0.414280
	N240	N	0.958125	0.423212	0.679362
	N241	N	0.033194	0.594486	0.678150
	N242	N	0.958596	0.595074	0.321039
	N243	N	0.033147	0.423650	0.321012
	N244	N	0.410568	0.688243	0.962506
	N245	N	0.579899	0.686208	0.037665
	N246	N	0.580442	0.333293	0.962611
	N247	N	0.411110	0.332640	0.038037
	N248	N	0.674103	0.973057	0.414838
	N249	N	0.674454	0.046473	0.587165
	N250	N	0.316563	0.971724	0.587221
	N251	N	0.318347	0.046351	0.415795
	N252	N	0.910621	0.471843	0.177632
	N253	N	0.080204	0.547208	0.176897
	N254	N	0.081022	0.472149	0.822483
	N255	N	0.910478	0.546797	0.822233
	N256	N	0.175878	0.921857	0.463126
	N257	N	0.174474	0.095043	0.537403
	N258	N	0.816550	0.095528	0.462939
	N259	N	0.816170	0.923689	0.537311
	N260	N	0.458988	0.188484	0.915152
	N261	N	0.534118	0.188231	0.085777
	N262	N	0.459284	0.831108	0.086400
	N263	N	0.534174	0.831791	0.915379
	N264	N	0.459357	0.924151	0.179205
	N265	N	0.533707	0.095350	0.179518
	N266	N	0.458660	0.096139	0.821870
	N267	N	0.533840	0.925142	0.822406
	N268	N	0.910714	0.186730	0.462256
	N269	N	0.080065	0.186217	0.537598
	N270	N	0.080297	0.832357	0.461611
	N271	N	0.910451	0.831944	0.537565
	N272	N	0.174408	0.472901	0.913504
	N273	N	0.173554	0.547071	0.085263
	N274	N	0.816333	0.472749	0.086915
	N275	N	0.817471	0.547030	0.914785
	O276	O	0.441655	0.538084	0.539207
	H277	H	0.427105	0.532242	0.539930
	H278	H	0.442311	0.539757	0.538768
	O279	O	0.047574	-0.020236	-0.074452
	H280	H	0.051552	-0.020423	-0.078818
	H281	H	0.037423	-0.015167	-0.066277
	O282	O	1.059332	0.004794	0.945267
	H283	H	1.066770	0.008662	0.948732
	H284	H	1.059384	-0.003847	0.952375
	O285	O	1.036766	-0.004100	0.962566
	H286	H	1.032301	-0.004278	0.961042
	H287	H	1.040361	-0.007427	0.956248
	O288	O	1.367628	0.340883	-0.321032
	H289	H	1.362221	0.342520	-0.327226
	H290	H	1.369574	0.333141	-0.321276
	O291	O	-0.530791	0.530477	-0.517835
	H292	H	-0.534988	0.530867	-0.514819
	H293	H	-0.523833	0.527001	-0.518168
	O294	O	0.445685	0.484834	0.516466
	H295	H	0.438004	0.484150	0.521412
	H296	H	0.453834	0.476391	0.500912
	O297	O	0.085783	1.014689	-0.023046
	H298	H	0.085696	1.007631	-0.034570
	H299	H	0.091916	1.007904	-0.022136
	O300	O	1.006905	0.052558	0.954203
	H301	H	1.010016	0.063489	0.954608
	H302	H	1.018498	0.053217	0.950887
	O303	O	0.466332	0.487095	0.497941
	H304	H	0.466069	0.496900	0.506635
	H305	H	0.463596	0.485084	0.506837
	O306	O	0.064311	0.976543	0.958849
	H307	H	0.063072	0.978491	0.963597
	H308	H	0.059712	0.980986	0.948746
	O309	O	0.511831	0.512288	0.476484
	H310	H	0.515981	0.510922	0.471537
	H311	H	0.522861	0.517964	0.482149
