data_Molecule from HDF5

_cell_length_a		16.305749
_cell_length_b		16.362697
_cell_length_c		16.314460
_cell_angle_alpha	90.084924
_cell_angle_beta	90.166434
_cell_angle_gamma	89.721641
_symmetry_space_group_name_H-M	'P 1'
_symmetry_Int_Tables_number		1

loop_
	_symmetry_equiv_pos_as_xyz
	x,y,z

loop_
	_atom_site_label
	_atom_site_type_symbol
	_atom_site_fract_x
	_atom_site_fract_y
	_atom_site_fract_z
	H0	H	0.391476	0.840546	0.721662
	H1	H	0.595015	0.162427	0.722709
	H2	H	0.598579	0.841228	0.282753
	H3	H	0.390856	0.163337	0.286603
	H4	H	0.709645	0.397694	0.841107
	H5	H	0.708763	0.600930	0.165569
	H6	H	0.273034	0.601380	0.843197
	H7	H	0.277633	0.398808	0.165705
	H8	H	0.833126	0.719099	0.403149
	H9	H	0.156848	0.716032	0.609133
	H10	H	0.832400	0.281887	0.606590
	H11	H	0.155565	0.282196	0.404920
	H12	H	0.831063	0.398229	0.720708
	H13	H	0.155758	0.597641	0.723818
	H14	H	0.831209	0.601674	0.288094
	H15	H	0.154392	0.394352	0.286198
	H16	H	0.386528	0.719015	0.842153
	H17	H	0.594051	0.718839	0.164825
	H18	H	0.595169	0.280297	0.842243
	H19	H	0.389812	0.282193	0.164319
	H20	H	0.712618	0.839400	0.401345
	H21	H	0.711783	0.162344	0.606392
	H22	H	0.276606	0.839262	0.605124
	H23	H	0.274159	0.161669	0.401823
	H24	H	0.891622	0.337220	0.220850
	H25	H	0.095053	0.658999	0.225057
	H26	H	0.094316	0.336574	0.789620
	H27	H	0.889478	0.659233	0.785680
	H28	H	0.210575	0.897933	0.340971
	H29	H	0.211540	0.100342	0.665254
	H30	H	0.775247	0.103925	0.343084
	H31	H	0.777540	0.899817	0.665905
	H32	H	0.331113	0.221343	0.898864
	H33	H	0.653907	0.219345	0.105598
	H34	H	0.332138	0.784189	0.106986
	H35	H	0.652000	0.779419	0.897452
	H36	H	0.333049	0.900729	0.221384
	H37	H	0.654210	0.105392	0.221929
	H38	H	0.331690	0.105676	0.782177
	H39	H	0.654411	0.898626	0.785351
	H40	H	0.890799	0.218415	0.343095
	H41	H	0.097629	0.216603	0.665407
	H42	H	0.100362	0.776496	0.344372
	H43	H	0.893199	0.782881	0.666597
	H44	H	0.212871	0.338503	0.902691
	H45	H	0.210940	0.659755	0.109230
	H46	H	0.775191	0.337854	0.104871
	H47	H	0.772655	0.659943	0.899351
	H48	H	0.412170	0.112170	0.594181
	H49	H	0.589007	0.887921	0.590182
	H50	H	0.590848	0.118512	0.410906
	H51	H	0.405421	0.887799	0.414910
	H52	H	0.581399	0.413277	0.115909
	H53	H	0.581096	0.594392	0.887274
	H54	H	0.403642	0.593590	0.119021
	H55	H	0.401325	0.417972	0.890344
	H56	H	0.109270	0.591286	0.418001
	H57	H	0.877565	0.593216	0.598280
	H58	H	0.105423	0.411773	0.591852
	H59	H	0.878988	0.413270	0.412564
	H60	H	0.111232	0.409161	0.606667
	H61	H	0.880562	0.593495	0.590448
	H62	H	0.106116	0.583269	0.417157
	H63	H	0.876014	0.405467	0.410483
	H64	H	0.401412	0.595923	0.120206
	H65	H	0.585848	0.589428	0.887838
	H66	H	0.581120	0.405615	0.118212
	H67	H	0.409105	0.409039	0.890112
	H68	H	0.580040	0.115165	0.408008
	H69	H	0.587124	0.884615	0.598211
	H70	H	0.398772	0.113323	0.583838
	H71	H	0.399003	0.885183	0.409760
	H72	H	0.904451	0.611975	0.096668
	H73	H	0.093319	0.380078	0.099389
	H74	H	0.082308	0.613757	0.915269
	H75	H	0.901258	0.385191	0.917308
	H76	H	0.083007	0.910402	0.616864
	H77	H	0.077725	0.090402	0.390577
	H78	H	0.912089	0.087966	0.615296
	H79	H	0.903833	0.909244	0.389674
	H80	H	0.609805	0.097857	0.910482
	H81	H	0.376188	0.092099	0.098695
	H82	H	0.608996	0.907414	0.090515
	H83	H	0.379534	0.917444	0.913182
	H84	H	0.607069	0.913302	0.089332
	H85	H	0.377432	0.096601	0.091303
	H86	H	0.603966	0.090531	0.921656
	H87	H	0.375462	0.910620	0.905561
	H88	H	0.903686	0.098874	0.622201
	H89	H	0.085428	0.097070	0.385554
	H90	H	0.086143	0.904094	0.619772
	H91	H	0.906261	0.909355	0.390541
	H92	H	0.080182	0.613173	0.914328
	H93	H	0.076362	0.385208	0.100802
	H94	H	0.899369	0.613807	0.092899
	H95	H	0.897517	0.382321	0.911834
	H96	H	0.397235	0.118987	0.599344
	H97	H	0.580829	0.888039	0.593212
	H98	H	0.583384	0.113294	0.419122
	H99	H	0.407497	0.886379	0.406314
	H100	H	0.587595	0.410284	0.119194
	H101	H	0.579792	0.588642	0.890223
	H102	H	0.400658	0.592642	0.119263
	H103	H	0.398182	0.407324	0.886028
	H104	H	0.110431	0.587221	0.410377
	H105	H	0.880657	0.586768	0.594820
	H106	H	0.111495	0.398243	0.595223
	H107	H	0.879120	0.406595	0.418180
	H108	H	0.899294	0.614394	0.099512
	H109	H	0.085024	0.387724	0.085781
	H110	H	0.081337	0.612415	0.916606
	H111	H	0.903886	0.384663	0.910738
	H112	H	0.090202	0.910080	0.619558
	H113	H	0.087764	0.086512	0.388408
	H114	H	0.897608	0.085272	0.618538
	H115	H	0.905084	0.907053	0.389253
	H116	H	0.605601	0.083986	0.909048
	H117	H	0.379505	0.088605	0.091587
	H118	H	0.608571	0.911109	0.094726
	H119	H	0.377289	0.906621	0.915865
	C120	C	0.372302	0.008844	0.623601
	C121	C	0.615582	0.993343	0.624927
	C122	C	0.616378	0.009902	0.381424
	C123	C	0.372556	0.993057	0.380704
	C124	C	0.614308	0.378461	0.011253
	C125	C	0.613276	0.621858	0.994735
	C126	C	0.370233	0.623237	0.012553
	C127	C	0.372325	0.379934	0.995197
	C128	C	0.001926	0.619604	0.384277
	C129	C	0.986044	0.620779	0.626857
	C130	C	0.002453	0.376688	0.627445
	C131	C	0.984877	0.377506	0.383641
	C132	C	0.870622	0.507376	0.125944
	C133	C	0.115144	0.490405	0.126906
	C134	C	0.113115	0.506992	0.884604
	C135	C	0.870047	0.490252	0.882198
	C136	C	0.117035	0.877009	0.512202
	C137	C	0.115055	0.121008	0.495205
	C138	C	0.872733	0.122172	0.512733
	C139	C	0.874315	0.878428	0.496460
	C140	C	0.500338	0.122268	0.881977
	C141	C	0.484299	0.123452	0.124750
	C142	C	0.501788	0.880755	0.123151
	C143	C	0.483603	0.879559	0.880802
	C144	C	0.372528	0.888101	0.682017
	C145	C	0.615081	0.114145	0.683694
	C146	C	0.617521	0.889002	0.322543
	C147	C	0.372045	0.114632	0.325028
	C148	C	0.671377	0.378372	0.889653
	C149	C	0.670413	0.621061	0.116909
	C150	C	0.311496	0.621878	0.891481
	C151	C	0.315741	0.379796	0.117135
	C152	C	0.881115	0.679155	0.384101
	C153	C	0.108168	0.677132	0.627997
	C154	C	0.880709	0.320210	0.626165
	C155	C	0.106935	0.320252	0.384605
	C156	C	0.880016	0.378388	0.682853
	C157	C	0.107530	0.618735	0.685201
	C158	C	0.880319	0.620888	0.326615
	C159	C	0.106225	0.376222	0.325665
	C160	C	0.368490	0.680125	0.890880
	C161	C	0.613266	0.679702	0.116379
	C162	C	0.614357	0.319960	0.890212
	C163	C	0.371649	0.321513	0.116447
	C164	C	0.674200	0.888246	0.381528
	C165	C	0.673035	0.114248	0.625678
	C166	C	0.315392	0.887710	0.623848
	C167	C	0.313630	0.113663	0.382099
	C168	C	0.871600	0.385727	0.182357
	C169	C	0.114534	0.611005	0.185679
	C170	C	0.113956	0.385329	0.827649
	C171	C	0.870056	0.611141	0.824380
	C172	C	0.173129	0.877357	0.389986
	C173	C	0.173283	0.120215	0.616677
	C174	C	0.814400	0.122706	0.391400
	C175	C	0.816429	0.879758	0.617598
	C176	C	0.379280	0.181810	0.880139
	C177	C	0.605603	0.180673	0.124875
	C178	C	0.380540	0.823220	0.125075
	C179	C	0.604246	0.819381	0.879080
	C180	C	0.381066	0.881209	0.182158
	C181	C	0.605957	0.123875	0.182735
	C182	C	0.379511	0.124030	0.822246
	C183	C	0.605490	0.878924	0.823379
	C184	C	0.871643	0.180013	0.391642
	C185	C	0.116200	0.178014	0.616960
	C186	C	0.118420	0.816993	0.391725
	C187	C	0.874383	0.821740	0.618106
	C188	C	0.172869	0.386378	0.884125
	C189	C	0.172211	0.611529	0.127841
	C190	C	0.813865	0.386115	0.124404
	C191	C	0.811970	0.611436	0.881216
	C192	C	0.395822	0.093040	0.599389
	C193	C	0.592238	0.908831	0.600907
	C194	C	0.591900	0.093764	0.405668
	C195	C	0.397051	0.908388	0.403552
	C196	C	0.590438	0.402652	0.095632
	C197	C	0.589419	0.597738	0.910416
	C198	C	0.394716	0.600636	0.097342
	C199	C	0.396019	0.404213	0.910855
	C200	C	0.086595	0.594494	0.408090
	C201	C	0.901420	0.597816	0.601954
	C202	C	0.087243	0.399528	0.604628
	C203	C	0.900143	0.401470	0.407143
	C204	C	0.894182	0.591580	0.102899
	C205	C	0.091835	0.406125	0.102473
	C206	C	0.088445	0.591224	0.908422
	C207	C	0.893871	0.405979	0.906335
	C208	C	0.093481	0.901085	0.596651
	C209	C	0.090768	0.097951	0.410205
	C210	C	0.897489	0.097939	0.597021
	C211	C	0.898396	0.901762	0.411878
	C212	C	0.584522	0.097811	0.906557
	C213	C	0.399766	0.099461	0.100902
	C214	C	0.586253	0.904058	0.098754
	C215	C	0.399396	0.904270	0.904703
	Zn216	Zn	0.492658	0.001297	0.753093
	Zn217	Zn	0.494357	0.001812	0.252222
	Zn218	Zn	0.742099	0.499928	0.003652
	Zn219	Zn	0.243375	0.500019	0.004985
	Zn220	Zn	-0.004153	0.749001	0.505131
	Zn221	Zn	-0.005992	0.249631	0.504712
	Zn222	Zn	-0.006924	0.498488	0.754918
	Zn223	Zn	-0.007150	0.497858	0.254951
	Zn224	Zn	0.491985	0.751390	0.002929
	Zn225	Zn	0.491924	0.251285	0.003281
	Zn226	Zn	0.745404	0.000964	0.503590
	Zn227	Zn	0.243546	0.000139	0.502172
	N228	N	0.407288	0.964459	0.682005
	N229	N	0.580094	0.037865	0.683265
	N230	N	0.582186	0.965498	0.322168
	N231	N	0.408179	0.038460	0.324189
	N232	N	0.671479	0.413879	0.966038
	N233	N	0.670739	0.585790	0.040228
	N234	N	0.312396	0.587454	0.968203
	N235	N	0.316117	0.415552	0.040973
	N236	N	0.957966	0.678422	0.418960
	N237	N	0.031489	0.678690	0.592681
	N238	N	0.957846	0.319010	0.592321
	N239	N	0.030506	0.321062	0.419962
	N240	N	0.956648	0.412808	0.683790
	N241	N	0.030679	0.584323	0.684525
	N242	N	0.956651	0.584565	0.326349
	N243	N	0.029305	0.411006	0.324830
	N244	N	0.404260	0.681127	0.967277
	N245	N	0.578757	0.680371	0.039445
	N246	N	0.579763	0.319873	0.966870
	N247	N	0.406153	0.321370	0.039550
	N248	N	0.673800	0.964431	0.417187
	N249	N	0.673498	0.037998	0.590067
	N250	N	0.315174	0.963769	0.588390
	N251	N	0.313842	0.036918	0.415971
	N252	N	0.906458	0.461964	0.183480
	N253	N	0.079688	0.534697	0.185065
	N254	N	0.077450	0.461374	0.827888
	N255	N	0.905511	0.534816	0.824719
	N256	N	0.172595	0.913863	0.465904
	N257	N	0.172665	0.085468	0.539909
	N258	N	0.815047	0.087353	0.467675
	N259	N	0.816243	0.914483	0.540898
	N260	N	0.455437	0.180838	0.916781
	N261	N	0.528947	0.180556	0.089583
	N262	N	0.456651	0.822809	0.089084
	N263	N	0.527492	0.819385	0.913731
	N264	N	0.457539	0.916352	0.181162
	N265	N	0.529491	0.088791	0.182684
	N266	N	0.455582	0.087728	0.823403
	N267	N	0.529530	0.915633	0.824174
	N268	N	0.907206	0.179821	0.468220
	N269	N	0.080510	0.178637	0.540442
	N270	N	0.084322	0.816682	0.468653
	N271	N	0.909691	0.820925	0.541743
	N272	N	0.172484	0.462991	0.918899
	N273	N	0.172722	0.535391	0.092189
	N274	N	0.812943	0.462926	0.090269
	N275	N	0.811677	0.535287	0.916459
	O276	O	0.864116	0.804777	0.994206
	H277	H	0.846291	0.788964	0.990545
	H278	H	0.870399	0.818620	0.995911
	O279	O	0.386243	0.656609	0.534683
	H280	H	0.397032	0.665246	0.547089
	H281	H	0.384942	0.674120	0.533923
	O282	O	1.176679	-0.097599	0.942560
	H283	H	1.169586	-0.108195	0.940267
	H284	H	1.184077	-0.100643	0.942038
	O285	O	0.333709	0.529107	0.563338
	H286	H	0.337660	0.527517	0.561134
	H287	H	0.330879	0.519265	0.574907
	O288	O	0.881706	0.812378	1.195369
	H289	H	0.879189	0.820025	1.200058
	H290	H	0.903540	0.816412	1.203807
	O291	O	0.125504	-0.009287	1.081895
	H292	H	0.117278	-0.021619	1.077367
	H293	H	0.126485	-0.011354	1.085931
	O294	O	0.398176	0.639733	0.363429
	H295	H	0.431945	0.646357	0.369239
	H296	H	0.402514	0.640763	0.388096
	O297	O	0.575924	0.371825	0.494351
	H298	H	0.571121	0.362209	0.486330
	H299	H	0.565143	0.362070	0.491272
	O300	O	0.033124	0.074219	0.187354
	H301	H	0.031567	0.071818	0.184055
	H302	H	0.039396	0.081204	0.192190
	O303	O	1.054931	0.054123	-0.048787
	H304	H	1.047312	0.057455	-0.045011
	H305	H	1.051214	0.045819	-0.053951
	O306	O	0.406087	0.587533	0.636107
	H307	H	0.407817	0.580657	0.644358
	H308	H	0.414668	0.594162	0.629940
	O309	O	0.587277	0.526190	0.402438
	H310	H	0.594236	0.525387	0.384931
	H311	H	0.578296	0.511042	0.401041
	O312	O	0.030543	0.041781	0.002638
	H313	H	0.039920	0.045037	-0.003425
	H314	H	0.027604	0.048510	-0.000308
	O315	O	0.496331	0.455386	0.500551
	H316	H	0.507638	0.454243	0.495641
	H317	H	0.484865	0.455756	0.499542
	O318	O	-0.066745	0.984323	0.834376
	H319	H	-0.084955	0.992225	0.850333
	H320	H	-0.078983	0.994738	0.829807
	O321	O	0.492474	0.489989	0.355464
	H322	H	0.497442	0.482686	0.359719
	H323	H	0.493034	0.490262	0.358008
	O324	O	0.094486	0.972440	0.146071
	H325	H	0.091758	0.963726	0.143822
	H326	H	0.095606	0.959336	0.136744
	O327	O	1.300765	0.564697	-0.684907
	H328	H	1.314259	0.594261	-0.674978
	H329	H	1.279802	0.574595	-0.696560
	O330	O	-0.117887	0.092827	1.100367
	H331	H	-0.103232	0.106271	1.092617
	H332	H	-0.127864	0.084743	1.109958
	O333	O	-0.146027	0.157623	0.969819
	H334	H	-0.122576	0.158828	0.970779
	H335	H	-0.142151	0.164025	0.986882
	O336	O	0.503575	0.491883	0.505457
	H337	H	0.502838	0.497481	0.499553
	H338	H	0.505501	0.507039	0.506787
	O339	O	0.910727	-0.151122	-0.072895
	H340	H	0.924617	-0.157624	-0.070693
	H341	H	0.898699	-0.142994	-0.064242
	O342	O	-0.150838	0.054727	-0.034788
	H343	H	-0.148838	0.040000	-0.030193
	H344	H	-0.157044	0.045397	-0.025167
	O345	O	1.516572	0.442741	1.367714
	H346	H	1.513599	0.449017	1.363996
	H347	H	1.496000	0.439745	1.366786
	O348	O	0.964957	0.809536	0.108168
	H349	H	0.969458	0.800323	0.112852
	H350	H	0.975683	0.807736	0.101733
	O351	O	0.394182	0.573130	0.541695
	H352	H	0.404802	0.586709	0.555758
	H353	H	0.394425	0.582195	0.534344
	O354	O	1.013335	0.055180	1.056014
	H355	H	1.033921	0.056212	1.045733
	H356	H	1.015378	0.063243	1.047958
	O357	O	0.525549	0.360704	0.403836
	H358	H	0.513437	0.349596	0.402226
	H359	H	0.516845	0.364284	0.407062
	O360	O	0.596508	0.529805	0.517480
	H361	H	0.595407	0.529519	0.520220
	H362	H	0.606457	0.516333	0.519193
	O363	O	-0.047773	1.086710	0.902452
	H364	H	-0.044852	1.094193	0.894354
	H365	H	-0.043787	1.080167	0.905047
	O366	O	0.636399	0.643636	0.489957
	H367	H	0.639237	0.634734	0.479041
	H368	H	0.650855	0.641642	0.498720
	O369	O	-0.491199	0.574271	0.645426
	H370	H	-0.472849	0.573548	0.654530
	H371	H	-0.487390	0.592580	0.648921
	O372	O	0.473368	0.474295	0.434920
	H373	H	0.464012	0.490212	0.438555
	H374	H	0.489679	0.480868	0.448171
	O375	O	0.427940	0.342829	0.608911
	H376	H	0.417245	0.332770	0.605227
	H377	H	0.431536	0.342271	0.607811
	O378	O	1.180355	0.922963	-0.075884
	H379	H	1.178305	0.920619	-0.083090
	H380	H	1.186645	0.916533	-0.081188
	O381	O	0.813848	0.114409	-0.123406
	H382	H	0.810334	0.128046	-0.129021
	H383	H	0.809844	0.125176	-0.128404
	O384	O	0.517070	1.356487	-0.401119
	H385	H	0.518779	1.343367	-0.416445
	H386	H	0.517231	1.370053	-0.397974
	O387	O	0.095111	0.059646	0.042875
	H388	H	0.103952	0.048666	0.047909
	H389	H	0.111260	0.057216	0.030953
	O390	O	0.104956	1.181640	0.065159
	H391	H	0.103666	1.179037	0.054809
	H392	H	0.110298	1.175316	0.082907
	O393	O	1.648322	0.446008	0.402184
	H394	H	1.638715	0.414869	0.400533
	H395	H	1.646017	0.443805	0.382940
	O396	O	0.473685	0.560479	0.479507
	H397	H	0.461327	0.545358	0.488539
	H398	H	0.462545	0.566480	0.474984
	O399	O	-0.176028	0.912792	1.155820
	H400	H	-0.186391	0.895950	1.167147
	H401	H	-0.165388	0.909279	1.166378
	O402	O	0.613985	0.658492	0.666082
	H403	H	0.625969	0.670079	0.664357
	H404	H	0.629310	0.645845	0.678631
	O405	O	0.819116	1.090934	0.020483
	H406	H	0.820445	1.096830	0.013560
	H407	H	0.818138	1.108716	0.026737
	O408	O	1.060737	0.895807	-0.176283
	H409	H	1.047588	0.893938	-0.167244
	H410	H	1.051927	0.897829	-0.181753
	O411	O	1.037571	-0.024388	0.868765
	H412	H	1.025092	-0.023093	0.873333
	H413	H	1.036487	-0.022296	0.857194
	O414	O	0.135411	-0.136243	0.923318
	H415	H	0.140682	-0.152215	0.921680
	H416	H	0.139983	-0.139315	0.922002
	O417	O	0.654786	0.500568	0.645001
	H418	H	0.645543	0.493616	0.651075
	H419	H	0.662911	0.493779	0.641175
