data_Molecule from HDF5

_cell_length_a		16.619944
_cell_length_b		16.713660
_cell_length_c		16.609695
_cell_angle_alpha	90.209422
_cell_angle_beta	89.809397
_cell_angle_gamma	89.949276
_symmetry_space_group_name_H-M	'P 1'
_symmetry_Int_Tables_number		1

loop_
	_symmetry_equiv_pos_as_xyz
	x,y,z

loop_
	_atom_site_label
	_atom_site_type_symbol
	_atom_site_fract_x
	_atom_site_fract_y
	_atom_site_fract_z
	H0	H	0.399367	0.837975	0.728843
	H1	H	0.608476	0.147676	0.732536
	H2	H	0.613905	0.842905	0.282113
	H3	H	0.399799	0.150248	0.292945
	H4	H	0.723135	0.387760	0.855610
	H5	H	0.721663	0.600012	0.164516
	H6	H	0.278084	0.600578	0.854606
	H7	H	0.277698	0.387898	0.163278
	H8	H	0.848206	0.716571	0.403256
	H9	H	0.153400	0.720767	0.621206
	H10	H	0.849391	0.267895	0.618458
	H11	H	0.157629	0.271331	0.401154
	H12	H	0.849541	0.383936	0.735062
	H13	H	0.152595	0.604873	0.736451
	H14	H	0.846014	0.597589	0.290382
	H15	H	0.156919	0.387640	0.286180
	H16	H	0.393577	0.716228	0.854679
	H17	H	0.606593	0.716473	0.163730
	H18	H	0.605916	0.272806	0.855407
	H19	H	0.390535	0.270365	0.162057
	H20	H	0.728460	0.841823	0.398552
	H21	H	0.725397	0.148097	0.616566
	H22	H	0.281187	0.838600	0.614780
	H23	H	0.284942	0.150514	0.410261
	H24	H	0.895345	0.339575	0.231246
	H25	H	0.111048	0.644845	0.236043
	H26	H	0.111878	0.344103	0.780779
	H27	H	0.886787	0.643215	0.780660
	H28	H	0.223758	0.889176	0.354413
	H29	H	0.222501	0.100372	0.665365
	H30	H	0.778030	0.103991	0.356918
	H31	H	0.779946	0.888425	0.663613
	H32	H	0.346033	0.215168	0.904342
	H33	H	0.654150	0.219895	0.118695
	H34	H	0.346726	0.773578	0.116649
	H35	H	0.655383	0.769621	0.901828
	H36	H	0.346639	0.891903	0.230316
	H37	H	0.653028	0.107851	0.236393
	H38	H	0.346653	0.099318	0.788321
	H39	H	0.656807	0.886496	0.786795
	H40	H	0.895320	0.217621	0.355196
	H41	H	0.111067	0.219752	0.662837
	H42	H	0.109231	0.771424	0.354865
	H43	H	0.893238	0.770814	0.662147
	H44	H	0.226365	0.342582	0.898536
	H45	H	0.225528	0.646395	0.118247
	H46	H	0.777577	0.340202	0.117631
	H47	H	0.774655	0.646242	0.901008
	H48	H	0.405774	0.107455	0.601492
	H49	H	0.588687	0.883675	0.600236
	H50	H	0.585376	0.102857	0.421410
	H51	H	0.411980	0.882379	0.423940
	H52	H	0.592000	0.405271	0.123638
	H53	H	0.588203	0.582905	0.897878
	H54	H	0.415624	0.585133	0.119381
	H55	H	0.414266	0.414400	0.900626
	H56	H	0.114445	0.582283	0.419481
	H57	H	0.893192	0.583228	0.588788
	H58	H	0.110536	0.409904	0.593450
	H59	H	0.890884	0.407358	0.417445
	H60	H	0.112463	0.407991	0.596010
	H61	H	0.894138	0.574468	0.594903
	H62	H	0.114501	0.583407	0.422921
	H63	H	0.888683	0.399021	0.419367
	H64	H	0.409346	0.584587	0.122053
	H65	H	0.589794	0.578925	0.898633
	H66	H	0.586866	0.411666	0.119683
	H67	H	0.421453	0.399737	0.898287
	H68	H	0.590263	0.102346	0.428259
	H69	H	0.590199	0.885636	0.592384
	H70	H	0.416659	0.105607	0.604806
	H71	H	0.410276	0.881256	0.416513
	H72	H	0.910643	0.602953	0.093734
	H73	H	0.091008	0.386766	0.087818
	H74	H	0.085429	0.602876	0.925285
	H75	H	0.916727	0.385428	0.921347
	H76	H	0.086198	0.903336	0.620948
	H77	H	0.086161	0.082953	0.400308
	H78	H	0.919834	0.080222	0.618308
	H79	H	0.912014	0.908763	0.397120
	H80	H	0.610991	0.082949	0.924803
	H81	H	0.390215	0.081666	0.099667
	H82	H	0.612107	0.914432	0.099036
	H83	H	0.390274	0.907704	0.917866
	H84	H	0.616612	0.899184	0.101845
	H85	H	0.389967	0.083679	0.099275
	H86	H	0.611839	0.079710	0.921293
	H87	H	0.389026	0.901609	0.920239
	H88	H	0.915970	0.084836	0.620918
	H89	H	0.095833	0.087452	0.395225
	H90	H	0.093802	0.902380	0.624250
	H91	H	0.920417	0.909191	0.400913
	H92	H	0.088252	0.603012	0.924902
	H93	H	0.095890	0.379686	0.100254
	H94	H	0.906428	0.607847	0.102589
	H95	H	0.914715	0.386420	0.925471
	H96	H	0.413069	0.102026	0.594527
	H97	H	0.596031	0.881169	0.596803
	H98	H	0.593324	0.105935	0.421293
	H99	H	0.416999	0.883002	0.418944
	H100	H	0.583284	0.403037	0.120424
	H101	H	0.585577	0.579597	0.899410
	H102	H	0.412219	0.579255	0.118867
	H103	H	0.406068	0.402143	0.894079
	H104	H	0.112562	0.580229	0.422087
	H105	H	0.888669	0.582866	0.598483
	H106	H	0.111315	0.406455	0.592898
	H107	H	0.892049	0.404054	0.425473
	H108	H	0.916567	0.603567	0.102618
	H109	H	0.081167	0.384573	0.100113
	H110	H	0.086004	0.604141	0.922849
	H111	H	0.911929	0.383966	0.921939
	H112	H	0.091912	0.909381	0.620004
	H113	H	0.095892	0.076152	0.398991
	H114	H	0.913276	0.079118	0.618975
	H115	H	0.917035	0.901132	0.396786
	H116	H	0.612834	0.084223	0.920800
	H117	H	0.389978	0.081805	0.097502
	H118	H	0.610982	0.902957	0.087593
	H119	H	0.392193	0.906184	0.924018
	C120	C	0.380281	0.002413	0.631695
	C121	C	0.624063	0.985469	0.630146
	C122	C	0.624779	0.003130	0.387753
	C123	C	0.382259	0.985425	0.389836
	C124	C	0.621195	0.373150	0.018969
	C125	C	0.621310	0.614134	1.000864
	C126	C	0.379301	0.615385	0.017851
	C127	C	0.379337	0.372521	0.999847
	C128	C	0.010973	0.614169	0.388799
	C129	C	0.992549	0.615568	0.630189
	C130	C	0.010190	0.373264	0.628968
	C131	C	0.993647	0.371579	0.387611
	C132	C	0.878857	0.502745	0.132119
	C133	C	0.123205	0.484632	0.130727
	C134	C	0.121800	0.503195	0.888048
	C135	C	0.879274	0.485495	0.888291
	C136	C	0.123632	0.872237	0.518868
	C137	C	0.124207	0.115063	0.501002
	C138	C	0.882797	0.115195	0.517574
	C139	C	0.881945	0.873401	0.500183
	C140	C	0.509901	0.114734	0.888886
	C141	C	0.492108	0.116644	0.131675
	C142	C	0.510600	0.873926	0.129949
	C143	C	0.493129	0.872039	0.887724
	C144	C	0.379715	0.884996	0.690050
	C145	C	0.626740	0.101415	0.691885
	C146	C	0.630365	0.888882	0.323617
	C147	C	0.381681	0.103362	0.332571
	C148	C	0.682693	0.369651	0.902214
	C149	C	0.681639	0.617744	0.117649
	C150	C	0.318684	0.618347	0.901083
	C151	C	0.317771	0.369812	0.116195
	C152	C	0.894359	0.675518	0.385685
	C153	C	0.107222	0.679359	0.637483
	C154	C	0.895427	0.309510	0.635317
	C155	C	0.110834	0.311699	0.383840
	C156	C	0.895202	0.367263	0.693055
	C157	C	0.106779	0.621518	0.694696
	C158	C	0.893492	0.616367	0.329492
	C159	C	0.110340	0.369463	0.326456
	C160	C	0.376001	0.676031	0.901333
	C161	C	0.624298	0.675724	0.117340
	C162	C	0.624698	0.312570	0.902057
	C163	C	0.374115	0.311408	0.115783
	C164	C	0.687813	0.888326	0.381361
	C165	C	0.684761	0.101551	0.634144
	C166	C	0.320993	0.885409	0.633305
	C167	C	0.324078	0.103201	0.390666
	C168	C	0.876691	0.386401	0.191822
	C169	C	0.127903	0.599447	0.194174
	C170	C	0.128313	0.389473	0.823192
	C171	C	0.871576	0.598703	0.823638
	C172	C	0.183945	0.870231	0.401363
	C173	C	0.183719	0.118430	0.618081
	C174	C	0.819861	0.120344	0.402409
	C175	C	0.820275	0.870497	0.616711
	C176	C	0.393121	0.175079	0.885936
	C177	C	0.607475	0.179456	0.135930
	C178	C	0.393745	0.813787	0.134182
	C179	C	0.609337	0.810768	0.884249
	C180	C	0.393681	0.872572	0.190917
	C181	C	0.607413	0.123160	0.194309
	C182	C	0.393330	0.117453	0.828177
	C183	C	0.609932	0.868852	0.827039
	C184	C	0.877976	0.177288	0.401852
	C185	C	0.128059	0.177820	0.616701
	C186	C	0.127216	0.811758	0.401644
	C187	C	0.876873	0.812055	0.616221
	C188	C	0.185429	0.388754	0.881517
	C189	C	0.185202	0.599837	0.135934
	C190	C	0.818275	0.386534	0.134906
	C191	C	0.815463	0.599759	0.883135
	C192	C	0.404727	0.083670	0.607403
	C193	C	0.598768	0.904602	0.603891
	C194	C	0.597601	0.082928	0.415813
	C195	C	0.406270	0.903504	0.413275
	C196	C	0.595110	0.399211	0.100029
	C197	C	0.595427	0.587787	0.919718
	C198	C	0.405012	0.590060	0.098982
	C199	C	0.406309	0.398084	0.918694
	C200	C	0.092444	0.589090	0.414313
	C201	C	0.912804	0.588087	0.601884
	C202	C	0.090493	0.400317	0.601737
	C203	C	0.911840	0.396281	0.413435
	C204	C	0.904123	0.583833	0.106828
	C205	C	0.096845	0.404453	0.103724
	C206	C	0.094240	0.582790	0.916345
	C207	C	0.906854	0.405942	0.915195
	C208	C	0.097928	0.897562	0.600507
	C209	C	0.099399	0.089594	0.419511
	C210	C	0.908925	0.088858	0.598355
	C211	C	0.908781	0.899123	0.419319
	C212	C	0.590961	0.089478	0.914852
	C213	C	0.411249	0.089957	0.106040
	C214	C	0.592054	0.898583	0.103734
	C215	C	0.411634	0.897786	0.913544
	Zn216	Zn	0.502395	-0.006324	0.759781
	Zn217	Zn	0.502751	-0.004737	0.259275
	Zn218	Zn	0.750467	0.493320	0.010085
	Zn219	Zn	0.251240	0.494055	0.008817
	Zn220	Zn	0.002373	0.744045	0.509106
	Zn221	Zn	0.003568	0.243654	0.508999
	Zn222	Zn	0.000507	0.494462	0.758733
	Zn223	Zn	0.001495	0.493248	0.259536
	Zn224	Zn	0.500503	0.743733	0.009075
	Zn225	Zn	0.500511	0.244117	0.009932
	Zn226	Zn	0.753494	-0.005497	0.509007
	Zn227	Zn	0.251926	-0.006346	0.510456
	N228	N	0.415709	0.958884	0.689599
	N229	N	0.589801	0.028129	0.689777
	N230	N	0.591756	0.961506	0.327245
	N231	N	0.417134	0.029054	0.331693
	N232	N	0.680927	0.406576	0.976005
	N233	N	0.680209	0.580521	0.043921
	N234	N	0.320377	0.581420	0.974637
	N235	N	0.320758	0.407362	0.042777
	N236	N	0.968566	0.674499	0.421845
	N237	N	0.035000	0.675751	0.597932
	N238	N	0.968132	0.313093	0.596229
	N239	N	0.036987	0.312552	0.420929
	N240	N	0.967695	0.406353	0.689314
	N241	N	0.034337	0.582526	0.690420
	N242	N	0.967124	0.579140	0.331040
	N243	N	0.036267	0.405869	0.328454
	N244	N	0.412921	0.674601	0.975092
	N245	N	0.587622	0.673946	0.043463
	N246	N	0.587251	0.314433	0.975754
	N247	N	0.411852	0.312936	0.042329
	N248	N	0.684602	0.960597	0.420615
	N249	N	0.683375	0.028327	0.596504
	N250	N	0.320876	0.959566	0.598159
	N251	N	0.323900	0.028739	0.425250
	N252	N	0.913922	0.459696	0.189973
	N253	N	0.089985	0.526688	0.191036
	N254	N	0.089285	0.461669	0.827207
	N255	N	0.910743	0.526614	0.826629
	N256	N	0.182056	0.907112	0.475470
	N257	N	0.181467	0.079871	0.545077
	N258	N	0.822834	0.082064	0.475306
	N259	N	0.823204	0.908010	0.543452
	N260	N	0.466648	0.173582	0.923041
	N261	N	0.534766	0.175554	0.097486
	N262	N	0.467473	0.814126	0.097016
	N263	N	0.535475	0.812550	0.921335
	N264	N	0.467692	0.909071	0.188754
	N265	N	0.534725	0.084511	0.191839
	N266	N	0.467110	0.080539	0.829694
	N267	N	0.536545	0.906455	0.829146
	N268	N	0.916467	0.174294	0.474709
	N269	N	0.091659	0.175843	0.542817
	N270	N	0.090775	0.812544	0.475879
	N271	N	0.914584	0.813657	0.542607
	N272	N	0.181432	0.460553	0.921380
	N273	N	0.182282	0.527568	0.096897
	N274	N	0.819440	0.459892	0.098200
	N275	N	0.820041	0.528219	0.922623
	O276	O	-0.717712	1.713747	-0.515760
	H277	H	-0.748336	1.734231	-0.517686
	H278	H	-0.718777	1.695398	-0.524578
	O279	O	-0.234104	0.056518	0.071632
	H280	H	-0.229478	0.051929	0.077387
	H281	H	-0.232397	0.054814	0.065290
	O282	O	0.817597	-0.195873	0.815924
	H283	H	0.839578	-0.179681	0.831367
	H284	H	0.834691	-0.175770	0.829863
	O285	O	0.684634	0.655181	0.323218
	H286	H	0.672608	0.650180	0.343297
	H287	H	0.689358	0.672021	0.310031
	O288	O	0.454098	0.532286	0.666984
	H289	H	0.465935	0.529313	0.660725
	H290	H	0.463082	0.531818	0.669440
	O291	O	0.557322	0.564211	0.549423
	H292	H	0.546811	0.568277	0.553092
	H293	H	0.551728	0.580249	0.556374
	O294	O	0.935105	0.084997	1.006241
	H295	H	0.947511	0.073172	1.005599
	H296	H	0.928409	0.099934	1.001969
	O297	O	0.689785	0.307836	0.699141
	H298	H	0.674630	0.330319	0.685382
	H299	H	0.670224	0.322084	0.682182
	O300	O	0.003999	0.065351	1.175249
	H301	H	-0.012999	0.068638	1.185789
	H302	H	0.003348	0.053646	1.178256
	O303	O	0.575500	0.721804	0.442030
	H304	H	0.564353	0.722333	0.435815
	H305	H	0.566026	0.721320	0.442476
	O306	O	1.292418	-0.294184	0.301656
	H307	H	1.292308	-0.290332	0.303781
	H308	H	1.301619	-0.324557	0.311356
	O309	O	0.428378	0.447343	0.422835
	H310	H	0.438543	0.444010	0.431493
	H311	H	0.435520	0.460789	0.444317
	O312	O	0.358180	0.288481	0.712881
	H313	H	0.364249	0.306920	0.721397
	H314	H	0.344210	0.276585	0.725873
	O315	O	1.188605	1.188429	0.822086
	H316	H	1.177085	1.167905	0.833472
	H317	H	1.160206	1.183394	0.839553
	O318	O	0.961146	0.808099	0.205280
	H319	H	0.965358	0.797489	0.219848
	H320	H	0.962226	0.823625	0.207310
	O321	O	0.474312	0.647553	0.496136
	H322	H	0.468063	0.632002	0.504851
	H323	H	0.463613	0.663781	0.498937
	O324	O	0.933603	1.224671	0.059849
	H325	H	0.935392	1.226306	0.091493
	H326	H	0.917232	1.224603	0.060789
	O327	O	-0.006559	0.142389	0.835557
	H328	H	0.001828	0.154201	0.845869
	H329	H	-0.013570	0.152911	0.835657
	O330	O	0.967284	-0.251928	-0.003305
	H331	H	0.968820	-0.252243	-0.020033
	H332	H	0.979696	-0.256941	-0.018724
	O333	O	0.323569	0.454501	0.690074
	H334	H	0.337093	0.456749	0.696608
	H335	H	0.326826	0.440144	0.698737
	O336	O	0.677009	0.526603	0.707256
	H337	H	0.682170	0.536263	0.720832
	H338	H	0.669701	0.551004	0.706906
	O339	O	1.037307	-0.241721	1.121519
	H340	H	1.039792	-0.242518	1.129319
	H341	H	1.031536	-0.251616	1.119547
	O342	O	-0.054499	-0.060652	-0.226148
	H343	H	-0.064832	-0.043414	-0.227727
	H344	H	-0.058312	-0.058411	-0.219106
	O345	O	0.224644	0.920662	0.790264
	H346	H	0.232267	0.937791	0.784850
	H347	H	0.231362	0.909518	0.770598
	O348	O	-0.214506	0.201288	-0.033651
	H349	H	-0.211413	0.199055	-0.024084
	H350	H	-0.227840	0.209460	-0.040500
	O351	O	0.493039	0.315726	0.289725
	H352	H	0.517980	0.322306	0.286273
	H353	H	0.515796	0.296713	0.278993
	O354	O	-0.189059	0.184793	1.199074
	H355	H	-0.211922	0.196491	1.224639
	H356	H	-0.195966	0.154588	1.180997
	O357	O	-0.220140	0.998783	0.833229
	H358	H	-0.238835	1.008143	0.831400
	H359	H	-0.224606	1.027659	0.821879
	O360	O	0.281943	0.389293	0.475402
	H361	H	0.279532	0.378083	0.472079
	H362	H	0.286549	0.377691	0.484969
	O363	O	-0.478785	0.710696	-0.310113
	H364	H	-0.485115	0.717480	-0.313974
	H365	H	-0.473641	0.717842	-0.293942
	O366	O	0.322430	0.679624	0.692862
	H367	H	0.320517	0.660140	0.681224
	H368	H	0.316242	0.691996	0.712835
	O369	O	0.500257	0.282558	0.693719
	H370	H	0.501002	0.291891	0.677415
	H371	H	0.505264	0.261445	0.718109
	O372	O	0.982350	1.149380	0.218267
	H373	H	0.965022	1.163874	0.237933
	H374	H	0.978110	1.149595	0.229058
	O375	O	1.321443	0.317204	0.318546
	H376	H	1.353091	0.330237	0.319253
	H377	H	1.326401	0.338453	0.340732
	O378	O	0.044783	-0.059193	0.238848
	H379	H	0.043748	-0.046053	0.242409
	H380	H	0.069752	-0.046646	0.239230
	O381	O	0.057549	0.911441	0.889753
	H382	H	0.044039	0.930441	0.891722
	H383	H	0.068879	0.921012	0.911352
	O384	O	1.171623	-0.208247	0.837080
	H385	H	1.173470	-0.206099	0.857199
	H386	H	1.157507	-0.176658	0.831056
	O387	O	1.010742	0.764435	-0.203190
	H388	H	1.032796	0.744217	-0.223344
	H389	H	1.023714	0.784037	-0.208267
	O390	O	0.289456	0.521287	0.296918
	H391	H	0.291639	0.515782	0.301620
	H392	H	0.280609	0.523432	0.284847
	O393	O	0.286007	0.276947	0.591339
	H394	H	0.284141	0.270079	0.607730
	H395	H	0.272144	0.264786	0.623240
	O396	O	-0.215538	0.780370	1.053328
	H397	H	-0.199015	0.777075	1.043518
	H398	H	-0.232715	0.768429	1.043478
	O399	O	-0.223166	-0.017915	1.230565
	H400	H	-0.233219	-0.038360	1.237258
	H401	H	-0.235580	-0.034010	1.235652
	O402	O	0.714315	0.707317	0.719826
	H403	H	0.712327	0.727485	0.738123
	H404	H	0.731131	0.719642	0.717116
	O405	O	0.964300	0.145208	0.846729
	H406	H	0.959423	0.148986	0.856044
	H407	H	0.953449	0.160381	0.837329
	O408	O	0.513089	0.440799	-0.712107
	H409	H	0.528484	0.448673	-0.706437
	H410	H	0.512919	0.433599	-0.713619
	O411	O	0.472217	0.282502	0.455210
	H412	H	0.465196	0.286285	0.456252
	H413	H	0.474608	0.280734	0.442454
	O414	O	0.727582	0.547835	0.455148
	H415	H	0.722535	0.549405	0.450514
	H416	H	0.720010	0.570869	0.453348
	O417	O	0.660809	0.272957	0.496163
	H418	H	0.674102	0.268636	0.507437
	H419	H	0.653360	0.286503	0.504049
	O420	O	0.587487	0.519572	0.704075
	H421	H	0.583816	0.539359	0.706665
	H422	H	0.603121	0.528668	0.707311
	O423	O	0.172005	0.034742	0.846498
	H424	H	0.164174	0.038841	0.855722
	H425	H	0.171798	0.035489	0.836986
	O426	O	0.551347	0.445406	0.489551
	H427	H	0.551534	0.440174	0.497183
	H428	H	0.555060	0.455834	0.492182
	O429	O	0.791293	0.774530	1.218017
	H430	H	0.796309	0.784429	1.186069
	H431	H	0.810417	0.771960	1.219769
	O432	O	0.984996	1.003618	0.861555
	H433	H	0.981406	1.015074	0.873095
	H434	H	0.992177	1.002123	0.868687
	O435	O	0.229168	0.922027	0.056528
	H436	H	0.223651	0.924437	0.065537
	H437	H	0.231134	0.897161	0.059518
	O438	O	0.120980	0.213012	0.127787
	H439	H	0.128349	0.220191	0.143771
	H440	H	0.138676	0.220869	0.137162
	O441	O	-0.019082	-0.053622	0.129806
	H442	H	-0.011867	-0.043450	0.115457
	H443	H	-0.012910	-0.037434	0.135470
	O444	O	0.421923	0.443060	0.578285
	H445	H	0.417429	0.449924	0.563493
	H446	H	0.428755	0.446168	0.580330
	O447	O	0.227582	1.033020	1.238591
	H448	H	0.248678	1.051562	1.256307
	H449	H	0.233898	1.065978	1.246913
	O450	O	-0.270140	0.370284	1.527500
	H451	H	-0.265140	0.387799	1.556210
	H452	H	-0.270350	0.385116	1.518040
	O453	O	0.561107	0.400764	0.578071
	H454	H	0.563304	0.412156	0.570476
	H455	H	0.559319	0.397298	0.559173
	O456	O	0.507942	0.569131	0.311278
	H457	H	0.514500	0.574789	0.322329
	H458	H	0.503823	0.573435	0.317142
	O459	O	1.193792	1.120997	0.021696
	H460	H	1.191659	1.102927	0.025216
	H461	H	1.202570	1.121992	0.010121
	O462	O	1.218454	-0.232110	-0.020759
	H463	H	1.210993	-0.235678	-0.021776
	H464	H	1.236506	-0.251880	-0.019159
	O465	O	1.137988	-0.002655	0.044477
	H466	H	1.149429	-0.012209	0.049429
	H467	H	1.131232	-0.012508	0.048702
	O468	O	0.354534	0.551628	0.591327
	H469	H	0.356811	0.544102	0.579279
	H470	H	0.337621	0.544984	0.613067
	O471	O	0.375303	0.556105	0.652777
	H472	H	0.360306	0.548851	0.663186
	H473	H	0.364257	0.551157	0.652745
	O474	O	0.213640	0.197215	0.219333
	H475	H	0.202091	0.205128	0.178172
	H476	H	0.234406	0.232866	0.245135
	O477	O	0.721963	0.711514	1.539714
	H478	H	0.729131	0.731514	1.542789
	H479	H	0.721702	0.716608	1.544003
	O480	O	-0.051359	0.869554	-0.028549
	H481	H	-0.051133	0.874235	-0.025292
	H482	H	-0.055704	0.867384	-0.020808
	O483	O	0.710175	0.455092	0.294746
	H484	H	0.713959	0.460501	0.285726
	H485	H	0.720907	0.463729	0.297588
	O486	O	0.474453	0.723028	0.290045
	H487	H	0.462256	0.745566	0.267097
	H488	H	0.469086	0.715877	0.285443
	O489	O	1.056906	1.233870	-0.053129
	H490	H	1.035162	1.229679	-0.033939
	H491	H	1.063002	1.244459	-0.057474
	O492	O	-0.288417	0.282876	0.302777
	H493	H	-0.288764	0.282762	0.351477
	H494	H	-0.283841	0.308722	0.295272
	O495	O	0.192254	0.799585	1.198162
	H496	H	0.208747	0.792091	1.212948
	H497	H	0.164536	0.808365	1.188811
	O498	O	0.826451	0.976661	0.941488
	H499	H	0.831390	0.974143	0.943458
	H500	H	0.821494	0.988922	0.942415
	O501	O	0.788947	0.207230	0.798467
	H502	H	0.781119	0.213993	0.818062
	H503	H	0.775244	0.231455	0.777803
