data_Molecule from HDF5

_cell_length_a		16.368227
_cell_length_b		16.359987
_cell_length_c		16.467100
_cell_angle_alpha	90.116394
_cell_angle_beta	89.976654
_cell_angle_gamma	90.059217
_symmetry_space_group_name_H-M	'P 1'
_symmetry_Int_Tables_number		1

loop_
	_symmetry_equiv_pos_as_xyz
	x,y,z

loop_
	_atom_site_label
	_atom_site_type_symbol
	_atom_site_fract_x
	_atom_site_fract_y
	_atom_site_fract_z
	H0	H	0.389414	0.837570	0.721808
	H1	H	0.603854	0.153850	0.724785
	H2	H	0.608320	0.839976	0.275436
	H3	H	0.388283	0.153515	0.276249
	H4	H	0.716277	0.390806	0.840397
	H5	H	0.721325	0.605807	0.156100
	H6	H	0.273942	0.604862	0.842843
	H7	H	0.271018	0.389293	0.156456
	H8	H	0.838043	0.718719	0.390843
	H9	H	0.156494	0.716939	0.602045
	H10	H	0.838850	0.275295	0.604394
	H11	H	0.156965	0.277208	0.393680
	H12	H	0.839685	0.387826	0.722422
	H13	H	0.154656	0.607138	0.722619
	H14	H	0.838008	0.602253	0.275783
	H15	H	0.154562	0.388118	0.273592
	H16	H	0.389832	0.720538	0.843928
	H17	H	0.602438	0.717459	0.158455
	H18	H	0.600239	0.273889	0.841569
	H19	H	0.386715	0.272599	0.156912
	H20	H	0.717891	0.837550	0.395149
	H21	H	0.721179	0.153479	0.610397
	H22	H	0.272564	0.838316	0.607613
	H23	H	0.277752	0.156124	0.396606
	H24	H	0.888515	0.337453	0.218657
	H25	H	0.105984	0.653399	0.222843
	H26	H	0.104460	0.338463	0.775422
	H27	H	0.889996	0.655513	0.775764
	H28	H	0.220094	0.891902	0.341034
	H29	H	0.219204	0.105009	0.658050
	H30	H	0.772319	0.102566	0.343578
	H31	H	0.775584	0.889119	0.658361
	H32	H	0.338281	0.218778	0.892798
	H33	H	0.655359	0.218907	0.106253
	H34	H	0.337379	0.776703	0.105803
	H35	H	0.655474	0.774847	0.896476
	H36	H	0.339633	0.887374	0.225183
	H37	H	0.656086	0.102852	0.222500
	H38	H	0.338656	0.105264	0.777038
	H39	H	0.654307	0.887735	0.777430
	H40	H	0.889053	0.217612	0.341101
	H41	H	0.103418	0.221230	0.656769
	H42	H	0.105113	0.774274	0.340712
	H43	H	0.891169	0.772012	0.656452
	H44	H	0.219686	0.338630	0.891251
	H45	H	0.219108	0.655113	0.105652
	H46	H	0.774360	0.337223	0.101451
	H47	H	0.773804	0.655713	0.892461
	H48	H	0.408541	0.108989	0.586200
	H49	H	0.586199	0.882067	0.588962
	H50	H	0.582475	0.109473	0.412069
	H51	H	0.413246	0.885945	0.418022
	H52	H	0.584206	0.411892	0.110888
	H53	H	0.584024	0.580930	0.889297
	H54	H	0.405361	0.582817	0.113090
	H55	H	0.405264	0.412034	0.887806
	H56	H	0.110859	0.585552	0.408600
	H57	H	0.882310	0.582894	0.591729
	H58	H	0.108840	0.414282	0.587272
	H59	H	0.882931	0.413101	0.403281
	H60	H	0.112846	0.407904	0.590518
	H61	H	0.883931	0.587426	0.583004
	H62	H	0.109183	0.582955	0.410936
	H63	H	0.880608	0.400459	0.407019
	H64	H	0.411304	0.583743	0.111527
	H65	H	0.580613	0.588849	0.887164
	H66	H	0.582534	0.405155	0.111811
	H67	H	0.413249	0.408577	0.890089
	H68	H	0.583049	0.109073	0.415114
	H69	H	0.585492	0.881234	0.590946
	H70	H	0.405876	0.111815	0.591921
	H71	H	0.404640	0.881736	0.414584
	H72	H	0.915815	0.609133	0.093243
	H73	H	0.082598	0.383539	0.087093
	H74	H	0.088936	0.611883	0.910198
	H75	H	0.907524	0.383077	0.907783
	H76	H	0.086068	0.907914	0.611829
	H77	H	0.091593	0.089510	0.384395
	H78	H	0.911702	0.089556	0.612274
	H79	H	0.914128	0.903895	0.388024
	H80	H	0.607142	0.083170	0.916353
	H81	H	0.385974	0.081343	0.084654
	H82	H	0.613049	0.904893	0.091852
	H83	H	0.384891	0.908213	0.915678
	H84	H	0.609210	0.907243	0.085063
	H85	H	0.384210	0.079043	0.094490
	H86	H	0.609345	0.080540	0.910669
	H87	H	0.383490	0.911959	0.909955
	H88	H	0.905636	0.084646	0.613096
	H89	H	0.088676	0.080038	0.387576
	H90	H	0.084195	0.908584	0.610367
	H91	H	0.901048	0.905443	0.384105
	H92	H	0.081776	0.609528	0.906921
	H93	H	0.082139	0.384059	0.084168
	H94	H	0.909656	0.606722	0.078173
	H95	H	0.910730	0.385202	0.909670
	H96	H	0.412395	0.109461	0.591878
	H97	H	0.584272	0.883060	0.589456
	H98	H	0.585662	0.110531	0.412894
	H99	H	0.412986	0.882658	0.408320
	H100	H	0.588715	0.407405	0.113645
	H101	H	0.589017	0.586898	0.885122
	H102	H	0.408161	0.588088	0.114356
	H103	H	0.407847	0.403663	0.885621
	H104	H	0.110026	0.582179	0.407555
	H105	H	0.886165	0.578292	0.584015
	H106	H	0.109498	0.407757	0.582729
	H107	H	0.886270	0.408936	0.415729
	H108	H	0.899881	0.613473	0.090343
	H109	H	0.085390	0.383077	0.084563
	H110	H	0.082698	0.607466	0.914806
	H111	H	0.907221	0.384664	0.911536
	H112	H	0.084714	0.906423	0.611177
	H113	H	0.082090	0.087854	0.387776
	H114	H	0.912499	0.081958	0.609848
	H115	H	0.907965	0.915727	0.389559
	H116	H	0.610868	0.086972	0.911892
	H117	H	0.381718	0.087985	0.091199
	H118	H	0.609541	0.912914	0.092029
	H119	H	0.381852	0.905458	0.910448
	C120	C	0.375001	0.005580	0.622673
	C121	C	0.618695	0.987013	0.623169
	C122	C	0.617866	0.005132	0.380163
	C123	C	0.376943	0.988177	0.380109
	C124	C	0.617387	0.374948	0.007784
	C125	C	0.618154	0.618362	0.991258
	C126	C	0.375096	0.618372	0.009013
	C127	C	0.374366	0.374544	0.991471
	C128	C	0.005274	0.616985	0.376206
	C129	C	0.988866	0.617139	0.619016
	C130	C	0.005611	0.376175	0.619556
	C131	C	0.988092	0.374410	0.375815
	C132	C	0.874955	0.504869	0.119245
	C133	C	0.117549	0.488041	0.119269
	C134	C	0.118346	0.505395	0.877305
	C135	C	0.874888	0.488543	0.876535
	C136	C	0.118756	0.875298	0.506955
	C137	C	0.119437	0.119141	0.491026
	C138	C	0.875851	0.117870	0.507907
	C139	C	0.875095	0.874324	0.491353
	C140	C	0.504533	0.116685	0.879778
	C141	C	0.488603	0.117182	0.122596
	C142	C	0.505663	0.875087	0.122763
	C143	C	0.487905	0.874772	0.879598
	C144	C	0.371214	0.885639	0.682506
	C145	C	0.622050	0.106155	0.684641
	C146	C	0.623864	0.886842	0.317354
	C147	C	0.372136	0.106601	0.318087
	C148	C	0.676601	0.372571	0.888270
	C149	C	0.679960	0.622338	0.109317
	C150	C	0.313913	0.622739	0.890527
	C151	C	0.312044	0.371389	0.109416
	C152	C	0.885728	0.678142	0.373443
	C153	C	0.108382	0.677981	0.621273
	C154	C	0.886668	0.315054	0.622309
	C155	C	0.108349	0.315267	0.374086
	C156	C	0.887165	0.371176	0.681623
	C157	C	0.107410	0.622963	0.681330
	C158	C	0.885748	0.620515	0.315596
	C159	C	0.107194	0.370882	0.314439
	C160	C	0.371962	0.680191	0.890916
	C161	C	0.620745	0.678252	0.110554
	C162	C	0.618892	0.314141	0.888716
	C163	C	0.369472	0.312969	0.109636
	C164	C	0.679245	0.886018	0.376770
	C165	C	0.680425	0.106035	0.627552
	C166	C	0.312984	0.886209	0.625474
	C167	C	0.316701	0.107847	0.377772
	C168	C	0.871712	0.385080	0.178366
	C169	C	0.122206	0.606432	0.181587
	C170	C	0.122005	0.386213	0.815869
	C171	C	0.871615	0.607774	0.815858
	C172	C	0.180214	0.873113	0.388585
	C173	C	0.179140	0.122610	0.610246
	C174	C	0.813159	0.120633	0.390314
	C175	C	0.815380	0.871171	0.610474
	C176	C	0.385644	0.178254	0.875865
	C177	C	0.607666	0.178546	0.124594
	C178	C	0.385795	0.815662	0.124560
	C179	C	0.607612	0.814582	0.877534
	C180	C	0.386888	0.870917	0.184381
	C181	C	0.608187	0.120570	0.182521
	C182	C	0.385941	0.121568	0.817848
	C183	C	0.607119	0.870996	0.818517
	C184	C	0.871819	0.177856	0.389061
	C185	C	0.121659	0.180862	0.609629
	C186	C	0.122576	0.814817	0.388125
	C187	C	0.872982	0.812741	0.609451
	C188	C	0.179251	0.386231	0.873942
	C189	C	0.178709	0.607296	0.123028
	C190	C	0.814457	0.384965	0.120361
	C191	C	0.813894	0.607870	0.874120
	C192	C	0.401425	0.088392	0.597564
	C193	C	0.592732	0.903891	0.597191
	C194	C	0.591506	0.088108	0.406085
	C195	C	0.402894	0.905288	0.406048
	C196	C	0.592460	0.400862	0.090598
	C197	C	0.592181	0.592926	0.908668
	C198	C	0.400753	0.592205	0.091470
	C199	C	0.401108	0.400462	0.909197
	C200	C	0.088168	0.590952	0.401525
	C201	C	0.906053	0.590712	0.593647
	C202	C	0.088778	0.402487	0.594197
	C203	C	0.904905	0.400091	0.401414
	C204	C	0.900949	0.588123	0.094351
	C205	C	0.090980	0.405195	0.092738
	C206	C	0.092160	0.588082	0.903224
	C207	C	0.900989	0.405742	0.902190
	C208	C	0.092438	0.900427	0.589593
	C209	C	0.094504	0.093187	0.408305
	C210	C	0.902291	0.092463	0.590354
	C211	C	0.900566	0.900663	0.408719
	C212	C	0.587398	0.090818	0.905544
	C213	C	0.405556	0.090374	0.097394
	C214	C	0.588935	0.900884	0.097067
	C215	C	0.405161	0.900935	0.904871
	Zn216	Zn	0.495958	-0.003989	0.750728
	Zn217	Zn	0.497372	-0.003961	0.251618
	Zn218	Zn	0.746140	0.497008	-0.001189
	Zn219	Zn	0.246671	0.496931	-0.000894
	Zn220	Zn	-0.002393	0.745562	0.497745
	Zn221	Zn	-0.002838	0.247214	0.498049
	Zn222	Zn	-0.002938	0.497199	0.748246
	Zn223	Zn	-0.003602	0.495398	0.247693
	Zn224	Zn	0.496582	0.746787	0.001659
	Zn225	Zn	0.495931	0.245633	0.000364
	Zn226	Zn	0.746072	-0.003414	0.500892
	Zn227	Zn	0.248082	-0.003218	0.499960
	N228	N	0.408868	0.960720	0.680959
	N229	N	0.584629	0.030973	0.682099
	N230	N	0.586399	0.961907	0.319433
	N231	N	0.408978	0.031148	0.319520
	N232	N	0.675691	0.409579	0.963331
	N233	N	0.678586	0.585951	0.034063
	N234	N	0.315757	0.585034	0.964956
	N235	N	0.314841	0.408709	0.034814
	N236	N	0.961138	0.676372	0.410126
	N237	N	0.033616	0.674563	0.583388
	N238	N	0.961457	0.318064	0.584459
	N239	N	0.033249	0.317273	0.411379
	N240	N	0.962249	0.408523	0.679869
	N241	N	0.031865	0.586028	0.680350
	N242	N	0.961014	0.583288	0.317100
	N243	N	0.031197	0.406505	0.315245
	N244	N	0.408973	0.677902	0.965683
	N245	N	0.582930	0.676009	0.036004
	N246	N	0.582782	0.315453	0.964096
	N247	N	0.407563	0.314941	0.035183
	N248	N	0.675785	0.960719	0.415126
	N249	N	0.678548	0.030925	0.590121
	N250	N	0.314982	0.961879	0.589169
	N251	N	0.319903	0.033269	0.415962
	N252	N	0.908601	0.460646	0.177744
	N253	N	0.084939	0.531141	0.179351
	N254	N	0.084713	0.461368	0.817748
	N255	N	0.908785	0.532666	0.817298
	N256	N	0.178042	0.909955	0.463705
	N257	N	0.177799	0.084867	0.535696
	N258	N	0.815518	0.084075	0.465467
	N259	N	0.816418	0.908466	0.535907
	N260	N	0.460149	0.175058	0.913949
	N261	N	0.532067	0.176695	0.088392
	N262	N	0.460587	0.818325	0.086802
	N263	N	0.532646	0.816719	0.914664
	N264	N	0.462648	0.907088	0.183569
	N265	N	0.532811	0.083438	0.181567
	N266	N	0.460994	0.083947	0.819881
	N267	N	0.531629	0.907776	0.819477
	N268	N	0.909908	0.176304	0.463190
	N269	N	0.085478	0.178969	0.534332
	N270	N	0.084954	0.816101	0.462666
	N271	N	0.908911	0.814161	0.533966
	N272	N	0.177387	0.461541	0.911037
	N273	N	0.175776	0.532565	0.084949
	N274	N	0.816360	0.460623	0.084405
	N275	N	0.815905	0.532717	0.911250
	O276	O	0.421824	0.620963	0.650577
	H277	H	0.406173	0.608898	0.670265
	H278	H	0.439232	0.602695	0.660759
	O279	O	0.662136	0.321754	0.374547
	H280	H	0.648306	0.352161	0.383418
	H281	H	0.675326	0.327256	0.370164
	O282	O	0.401241	0.681744	0.319362
	H283	H	0.425369	0.696826	0.347393
	H284	H	0.398504	0.694116	0.322873
	O285	O	1.180097	1.143148	0.092250
	H286	H	1.174543	1.127317	0.087955
	H287	H	1.203687	1.144260	0.092185
	O288	O	0.713237	0.714105	0.524701
	H289	H	0.751404	0.745742	0.531938
	H290	H	0.708939	0.692380	0.551800
	O291	O	0.338068	0.660611	0.518049
	H292	H	0.330904	0.675125	0.535515
	H293	H	0.357130	0.659464	0.534775
	O294	O	1.001337	1.071321	1.021149
	H295	H	0.998171	1.074658	1.038451
	H296	H	0.989820	1.073747	1.021275
	O297	O	0.547980	0.657056	0.624298
	H298	H	0.545746	0.674690	0.639895
	H299	H	0.553433	0.649693	0.624374
	O300	O	0.301371	0.558271	0.309412
	H301	H	0.301982	0.566931	0.289857
	H302	H	0.303682	0.576131	0.321145
	O303	O	0.661535	0.503968	0.702836
	H304	H	0.684749	0.491488	0.689179
	H305	H	0.670674	0.482065	0.701977
	O306	O	0.016620	-0.073491	1.163096
	H307	H	0.010167	-0.076950	1.159690
	H308	H	0.009631	-0.082238	1.170572
	O309	O	1.120630	0.037118	-0.095358
	H310	H	1.108023	0.030111	-0.095396
	H311	H	1.113346	0.050541	-0.100023
	O312	O	0.285349	0.475570	0.649418
	H313	H	0.279435	0.463132	0.648066
	H314	H	0.266640	0.459409	0.655494
	O315	O	0.676791	0.674044	0.680250
	H316	H	0.674164	0.636350	0.691927
	H317	H	0.665850	0.668453	0.676815
	O318	O	0.196782	-0.194268	-0.012267
	H319	H	0.188522	-0.206043	-0.002966
	H320	H	0.197356	-0.201316	-0.027910
	O321	O	0.451294	0.553405	0.411125
	H322	H	0.427526	0.557321	0.407792
	H323	H	0.436565	0.538989	0.416186
	O324	O	1.008830	0.207038	1.184963
	H325	H	1.027576	0.212138	1.188237
	H326	H	1.034272	0.219130	1.201140
	O327	O	0.496003	0.371276	0.692184
	H328	H	0.516474	0.359891	0.671155
	H329	H	0.486423	0.349170	0.696678
	O330	O	0.027758	1.039365	0.986469
	H331	H	0.035249	1.043494	0.991952
	H332	H	0.013030	1.027030	0.979624
	O333	O	0.043552	1.019254	-0.202650
	H334	H	0.030168	1.027890	-0.189139
	H335	H	0.044673	1.016622	-0.212125
	O336	O	1.179381	0.947129	-0.208542
	H337	H	1.153142	0.966642	-0.210887
	H338	H	1.200752	0.956660	-0.238928
	O339	O	0.014093	0.891671	1.017992
	H340	H	0.011977	0.886387	1.000668
	H341	H	0.029198	0.892789	1.022905
	O342	O	0.462990	0.345774	0.341500
	H343	H	0.459368	0.330442	0.322412
	H344	H	0.462018	0.346689	0.332209
	O345	O	-0.001020	-0.168458	0.962602
	H346	H	-0.003486	-0.172245	0.979599
	H347	H	0.023971	-0.170659	0.962774
	O348	O	0.316656	0.364055	0.692226
	H349	H	0.303689	0.357723	0.672432
	H350	H	0.355207	0.346347	0.691748
	O351	O	0.850168	0.932108	-0.129189
	H352	H	0.852591	0.954518	-0.111119
	H353	H	0.852797	0.917997	-0.130998
	O354	O	0.887619	1.047359	1.204943
	H355	H	0.896662	1.055782	1.202475
	H356	H	0.898413	1.070394	1.210341
	O357	O	-0.149555	0.182638	-0.184162
	H358	H	-0.121287	0.195923	-0.194950
	H359	H	-0.155428	0.143884	-0.181982
	O360	O	0.356882	0.455405	0.423581
	H361	H	0.360141	0.458773	0.404131
	H362	H	0.360873	0.464576	0.447391
	O363	O	0.818267	-0.180516	0.176521
	H364	H	0.804373	-0.171993	0.144390
	H365	H	0.807340	-0.144157	0.172671
	O366	O	-0.128697	-0.209658	0.977434
	H367	H	-0.118706	-0.218100	0.954637
	H368	H	-0.113614	-0.211970	0.983736
	O369	O	0.787038	0.153479	1.022488
	H370	H	0.784534	0.167219	0.990878
	H371	H	0.769227	0.156302	1.010244
	O372	O	0.638063	0.529333	0.424448
	H373	H	0.635411	0.538152	0.434378
	H374	H	0.624352	0.527657	0.419392
	O375	O	-0.197828	0.048835	1.018907
	H376	H	-0.194277	0.045210	1.019108
	H377	H	-0.190580	0.059228	1.022868
	O378	O	0.530354	0.714841	0.466641
	H379	H	0.553672	0.715496	0.486815
	H380	H	0.526005	0.709826	0.498416
	O381	O	-0.213675	1.020136	-0.212887
	H382	H	-0.244221	1.019836	-0.242976
	H383	H	-0.199021	0.992111	-0.198167
	O384	O	0.606802	0.415310	0.584319
	H385	H	0.612494	0.422090	0.577512
	H386	H	0.601270	0.402689	0.570464
	O387	O	0.490030	0.498622	0.503550
	H388	H	0.475656	0.503750	0.508863
	H389	H	0.493034	0.497565	0.498856
	O390	O	1.161857	1.091928	0.117348
	H391	H	1.153812	1.070900	0.125095
	H392	H	1.178998	1.081940	0.120019
	O393	O	1.173033	-0.181934	0.826917
	H394	H	1.178409	-0.145588	0.811900
	H395	H	1.175547	-0.177277	0.854876
	O396	O	0.295458	0.287953	0.522965
	H397	H	0.294267	0.296114	0.509125
	H398	H	0.269483	0.278478	0.513070
	O399	O	0.402046	0.614598	0.412576
	H400	H	0.385360	0.640464	0.406116
	H401	H	0.416083	0.618132	0.442167
	O402	O	1.166035	1.179260	0.105964
	H403	H	1.159152	1.172891	0.081577
	H404	H	1.184346	1.158838	0.115625
	O405	O	0.667677	0.397937	0.294594
	H406	H	0.674948	0.414361	0.280661
	H407	H	0.674821	0.416642	0.305625
	O408	O	0.465610	0.293651	0.559316
	H409	H	0.478794	0.298996	0.534194
	H410	H	0.450439	0.292507	0.543040
	O411	O	0.794981	0.973901	1.040579
	H412	H	0.806699	0.964507	1.039975
	H413	H	0.788528	0.973976	1.049841
	O414	O	0.564255	0.523141	0.483446
	H415	H	0.558067	0.518068	0.486331
	H416	H	0.562762	0.538179	0.484926
	O417	O	-0.018012	0.812498	0.807934
	H418	H	0.006905	0.800524	0.813885
	H419	H	-0.006077	0.810375	0.800371
	O420	O	-0.029392	1.204701	0.873742
	H421	H	-0.013086	1.204146	0.897490
	H422	H	-0.020866	1.225863	0.865569
	O423	O	0.161302	1.020112	0.090541
	H424	H	0.165769	1.016232	0.069674
	H425	H	0.158669	1.001829	0.091621
	O426	O	0.626031	0.491931	0.406164
	H427	H	0.631880	0.498629	0.396072
	H428	H	0.615943	0.509513	0.398252
	O429	O	0.514493	0.487528	0.665562
	H430	H	0.500575	0.464409	0.671545
	H431	H	0.536009	0.487100	0.669099
	O432	O	0.709874	0.317636	0.504566
	H433	H	0.709860	0.308216	0.484783
	H434	H	0.715339	0.310755	0.478507
	O435	O	-0.026870	-0.224758	0.217355
	H436	H	-0.079443	-0.209019	0.204085
	H437	H	-0.033102	-0.262519	0.256217
	O438	O	-0.003476	1.114106	1.050423
	H439	H	-0.007568	1.111241	1.073436
	H440	H	0.000085	1.112812	1.059617
	O441	O	0.433119	0.367401	0.287685
	H442	H	0.444767	0.373792	0.284354
	H443	H	0.453401	0.354317	0.272293
