data_Molecule from HDF5

_cell_length_a		16.126538
_cell_length_b		16.169010
_cell_length_c		16.430577
_cell_angle_alpha	89.711960
_cell_angle_beta	90.162765
_cell_angle_gamma	89.671649
_symmetry_space_group_name_H-M	'P 1'
_symmetry_Int_Tables_number		1

loop_
	_symmetry_equiv_pos_as_xyz
	x,y,z

loop_
	_atom_site_label
	_atom_site_type_symbol
	_atom_site_fract_x
	_atom_site_fract_y
	_atom_site_fract_z
	H0	H	0.408366	0.840092	0.707580
	H1	H	0.607320	0.168171	0.705406
	H2	H	0.610104	0.839336	0.276310
	H3	H	0.402453	0.165911	0.272050
	H4	H	0.722715	0.405716	0.826748
	H5	H	0.723555	0.599731	0.152085
	H6	H	0.291845	0.604111	0.826695
	H7	H	0.294584	0.404498	0.152343
	H8	H	0.841389	0.718030	0.392104
	H9	H	0.173618	0.713217	0.585274
	H10	H	0.841383	0.294247	0.584907
	H11	H	0.172954	0.291266	0.394685
	H12	H	0.843429	0.403494	0.705535
	H13	H	0.171565	0.603740	0.705013
	H14	H	0.842582	0.605454	0.273005
	H15	H	0.171344	0.402308	0.275201
	H16	H	0.408260	0.721040	0.827527
	H17	H	0.606198	0.715901	0.153352
	H18	H	0.606161	0.289450	0.826740
	H19	H	0.409516	0.287041	0.150943
	H20	H	0.720859	0.838540	0.397112
	H21	H	0.717786	0.170270	0.585540
	H22	H	0.298465	0.837483	0.587162
	H23	H	0.293727	0.168412	0.393316
	H24	H	0.907572	0.339641	0.206220
	H25	H	0.107706	0.667178	0.204756
	H26	H	0.109492	0.339750	0.773896
	H27	H	0.904592	0.667608	0.771930
	H28	H	0.222946	0.904883	0.327832
	H29	H	0.221586	0.099863	0.653461
	H30	H	0.791747	0.104113	0.327959
	H31	H	0.796703	0.906708	0.653955
	H32	H	0.341237	0.217301	0.892783
	H33	H	0.673423	0.213744	0.085253
	H34	H	0.341837	0.791353	0.088031
	H35	H	0.673150	0.792158	0.896358
	H36	H	0.343653	0.902228	0.206332
	H37	H	0.671613	0.103922	0.205970
	H38	H	0.343508	0.106100	0.773271
	H39	H	0.672084	0.902767	0.776685
	H40	H	0.907858	0.220445	0.327662
	H41	H	0.105458	0.217196	0.653191
	H42	H	0.106407	0.788805	0.327312
	H43	H	0.910271	0.787272	0.651928
	H44	H	0.220260	0.338196	0.894049
	H45	H	0.218873	0.669046	0.085888
	H46	H	0.799374	0.337023	0.083684
	H47	H	0.793818	0.669496	0.891550
	H48	H	0.420398	0.118872	0.581752
	H49	H	0.611513	0.883059	0.586719
	H50	H	0.602771	0.121924	0.397910
	H51	H	0.411727	0.883231	0.395287
	H52	H	0.605491	0.407283	0.105745
	H53	H	0.606288	0.602028	0.871651
	H54	H	0.412581	0.611697	0.109318
	H55	H	0.414398	0.418012	0.875838
	H56	H	0.124680	0.598046	0.401661
	H57	H	0.888023	0.606757	0.577887
	H58	H	0.126329	0.408855	0.583087
	H59	H	0.887922	0.414769	0.391847
	H60	H	0.124313	0.412270	0.581896
	H61	H	0.893547	0.588064	0.575785
	H62	H	0.123521	0.588603	0.393011
	H63	H	0.888587	0.408663	0.396409
	H64	H	0.400478	0.588802	0.106829
	H65	H	0.600799	0.591631	0.876255
	H66	H	0.603367	0.411222	0.104719
	H67	H	0.418648	0.407785	0.874284
	H68	H	0.596737	0.121978	0.390472
	H69	H	0.595110	0.885674	0.594881
	H70	H	0.409441	0.121688	0.578406
	H71	H	0.421010	0.886089	0.393541
	H72	H	0.910601	0.623356	0.086855
	H73	H	0.099657	0.386164	0.084520
	H74	H	0.107446	0.623939	0.896559
	H75	H	0.918028	0.387564	0.895988
	H76	H	0.101780	0.910146	0.605490
	H77	H	0.096991	0.092703	0.377236
	H78	H	0.912265	0.102749	0.607567
	H79	H	0.918268	0.911580	0.375960
	H80	H	0.623412	0.090364	0.897705
	H81	H	0.393697	0.091438	0.073479
	H82	H	0.629693	0.901880	0.090436
	H83	H	0.390624	0.920848	0.892141
	H84	H	0.623205	0.909979	0.074225
	H85	H	0.388980	0.089188	0.090695
	H86	H	0.628163	0.097059	0.890548
	H87	H	0.386565	0.907032	0.892599
	H88	H	0.909473	0.096958	0.607300
	H89	H	0.097017	0.102592	0.374832
	H90	H	0.101385	0.906201	0.606328
	H91	H	0.912787	0.909884	0.373189
	H92	H	0.093943	0.622185	0.886494
	H93	H	0.099264	0.386305	0.082617
	H94	H	0.921489	0.619759	0.084698
	H95	H	0.915484	0.386133	0.896571
	H96	H	0.412823	0.124585	0.589457
	H97	H	0.596959	0.889619	0.576727
	H98	H	0.593805	0.119346	0.398849
	H99	H	0.417332	0.887475	0.402282
	H100	H	0.600778	0.406698	0.105065
	H101	H	0.593901	0.602424	0.874780
	H102	H	0.425313	0.591633	0.099985
	H103	H	0.407508	0.409800	0.871244
	H104	H	0.127876	0.600848	0.389611
	H105	H	0.886527	0.594193	0.592675
	H106	H	0.125532	0.412151	0.585728
	H107	H	0.891034	0.415617	0.398377
	H108	H	0.912881	0.619519	0.076395
	H109	H	0.101898	0.385909	0.083167
	H110	H	0.093351	0.617275	0.903047
	H111	H	0.916821	0.386433	0.893753
	H112	H	0.104692	0.907939	0.606611
	H113	H	0.105542	0.097405	0.373891
	H114	H	0.916238	0.098346	0.605232
	H115	H	0.912544	0.914835	0.374780
	H116	H	0.625257	0.101204	0.900721
	H117	H	0.385595	0.105941	0.082348
	H118	H	0.623719	0.920587	0.090477
	H119	H	0.391363	0.913413	0.904859
	C120	C	0.386630	0.012407	0.612003
	C121	C	0.628893	0.995550	0.612560
	C122	C	0.628326	0.012406	0.368764
	C123	C	0.386253	0.994316	0.368592
	C124	C	0.630649	0.381128	-0.002256
	C125	C	0.629623	0.625615	0.981641
	C126	C	0.384313	0.626981	-0.002138
	C127	C	0.385492	0.382284	0.980615
	C128	C	0.015886	0.625659	0.366975
	C129	C	0.998858	0.624397	0.610136
	C130	C	0.016160	0.382939	0.611356
	C131	C	0.998373	0.383262	0.368347
	C132	C	0.886826	0.512008	0.110899
	C133	C	0.128609	0.494929	0.111008
	C134	C	0.128285	0.512135	0.867593
	C135	C	0.886449	0.495388	0.867190
	C136	C	0.130663	0.880123	0.498751
	C137	C	0.128864	0.125630	0.482723
	C138	C	0.884053	0.127662	0.499018
	C139	C	0.886328	0.882615	0.481920
	C140	C	0.516272	0.125756	0.868064
	C141	C	0.498651	0.124530	0.111037
	C142	C	0.516249	0.882131	0.112528
	C143	C	0.498850	0.883969	0.869607
	C144	C	0.388762	0.888907	0.668520
	C145	C	0.626847	0.119578	0.666955
	C146	C	0.628557	0.888533	0.314416
	C147	C	0.384743	0.117639	0.311763
	C148	C	0.684797	0.384983	0.875130
	C149	C	0.685163	0.620962	0.103830
	C150	C	0.329638	0.624524	0.875481
	C151	C	0.332200	0.384453	0.103748
	C152	C	0.891228	0.680994	0.370674
	C153	C	0.123977	0.676953	0.606260
	C154	C	0.891235	0.329993	0.606815
	C155	C	0.123242	0.328429	0.373146
	C156	C	0.892088	0.384461	0.666709
	C157	C	0.122760	0.623046	0.666178
	C158	C	0.891712	0.625158	0.311393
	C159	C	0.122677	0.383719	0.313902
	C160	C	0.387530	0.682828	0.875914
	C161	C	0.627251	0.679068	0.104343
	C162	C	0.626772	0.327100	0.875249
	C163	C	0.388854	0.325987	0.103046
	C164	C	0.683729	0.887886	0.374434
	C165	C	0.681891	0.120553	0.607674
	C166	C	0.333963	0.887469	0.608742
	C167	C	0.330408	0.118785	0.371799
	C168	C	0.888602	0.388352	0.166941
	C169	C	0.126939	0.618552	0.166323
	C170	C	0.128323	0.388921	0.812163
	C171	C	0.886006	0.619068	0.811011
	C172	C	0.185082	0.883967	0.376173
	C173	C	0.184144	0.121484	0.604723
	C174	C	0.829374	0.124977	0.376549
	C175	C	0.832752	0.885088	0.604751
	C176	C	0.391175	0.180485	0.871482
	C177	C	0.623619	0.177702	0.107294
	C178	C	0.391674	0.827941	0.109189
	C179	C	0.623535	0.828986	0.874314
	C180	C	0.392727	0.882790	0.168229
	C181	C	0.622404	0.122942	0.167257
	C182	C	0.392325	0.125056	0.812124
	C183	C	0.623029	0.884267	0.815081
	C184	C	0.887145	0.182723	0.376418
	C185	C	0.126255	0.179970	0.604528
	C186	C	0.127041	0.826509	0.375992
	C187	C	0.889599	0.826097	0.603938
	C188	C	0.183449	0.388065	0.872001
	C189	C	0.182054	0.619516	0.106891
	C190	C	0.834642	0.386949	0.106367
	C191	C	0.831143	0.619915	0.870540
	C192	C	0.407910	0.099331	0.589729
	C193	C	0.607717	0.908501	0.592175
	C194	C	0.604609	0.098671	0.389437
	C195	C	0.409611	0.907942	0.390755
	C196	C	0.609479	0.402263	0.083266
	C197	C	0.607219	0.604649	0.896254
	C198	C	0.406341	0.604246	0.083301
	C199	C	0.407084	0.404908	0.895812
	C200	C	0.102875	0.602637	0.388374
	C201	C	0.911895	0.602682	0.588499
	C202	C	0.102918	0.404760	0.590045
	C203	C	0.911476	0.406300	0.389189
	C204	C	0.908641	0.598701	0.089026
	C205	C	0.106672	0.408616	0.089799
	C206	C	0.104877	0.598936	0.888987
	C207	C	0.909851	0.408934	0.888990
	C208	C	0.108986	0.901742	0.584027
	C209	C	0.106427	0.103883	0.397328
	C210	C	0.906077	0.105763	0.584586
	C211	C	0.908186	0.905275	0.396635
	C212	C	0.603172	0.102954	0.890034
	C213	C	0.411895	0.102319	0.088578
	C214	C	0.603163	0.904143	0.091109
	C215	C	0.411938	0.906977	0.890470
	Zn216	Zn	0.508071	0.004319	0.740575
	Zn217	Zn	0.506746	0.003458	0.239707
	Zn218	Zn	0.759443	0.503436	-0.010939
	Zn219	Zn	0.256013	0.503713	-0.010087
	Zn220	Zn	0.007959	0.752428	0.489754
	Zn221	Zn	0.006825	0.255677	0.490083
	Zn222	Zn	0.007313	0.504613	0.738550
	Zn223	Zn	0.007587	0.503570	0.239604
	Zn224	Zn	0.507242	0.755687	-0.008982
	Zn225	Zn	0.507574	0.252879	-0.010447
	Zn226	Zn	0.756153	0.004566	0.491322
	Zn227	Zn	0.259029	0.002794	0.490552
	N228	N	0.420615	0.967644	0.670640
	N229	N	0.594693	0.040926	0.670054
	N230	N	0.594853	0.966928	0.310596
	N231	N	0.418731	0.039495	0.309596
	N232	N	0.687533	0.417642	0.952253
	N233	N	0.686498	0.588394	0.026628
	N234	N	0.327780	0.590365	0.952325
	N235	N	0.329792	0.418648	0.026870
	N236	N	0.969503	0.681325	0.404542
	N237	N	0.045976	0.677933	0.572078
	N238	N	0.969192	0.329083	0.572958
	N239	N	0.044989	0.328117	0.406194
	N240	N	0.970833	0.416663	0.669663
	N241	N	0.044113	0.590843	0.668468
	N242	N	0.970169	0.591380	0.309020
	N243	N	0.044006	0.417169	0.310904
	N244	N	0.420675	0.684426	0.953168
	N245	N	0.593079	0.682005	0.027438
	N246	N	0.593917	0.324570	0.952404
	N247	N	0.421755	0.324719	0.025951
	N248	N	0.683669	0.965762	0.407565
	N249	N	0.683216	0.042481	0.574621
	N250	N	0.332543	0.965221	0.574234
	N251	N	0.331150	0.041118	0.406443
	N252	N	0.920271	0.467220	0.169772
	N253	N	0.094361	0.540154	0.169069
	N254	N	0.094680	0.467380	0.809372
	N255	N	0.919399	0.540719	0.808510
	N256	N	0.187529	0.916618	0.453304
	N257	N	0.185914	0.088376	0.527776
	N258	N	0.827268	0.091676	0.453793
	N259	N	0.830668	0.919519	0.527940
	N260	N	0.469381	0.181159	0.905357
	N261	N	0.545701	0.178930	0.073029
	N262	N	0.469685	0.827284	0.075452
	N263	N	0.545323	0.828742	0.907595
	N264	N	0.471181	0.915757	0.170389
	N265	N	0.543565	0.090529	0.169601
	N266	N	0.471013	0.091835	0.810068
	N267	N	0.544503	0.917959	0.812156
	N268	N	0.920492	0.184456	0.453491
	N269	N	0.092593	0.182600	0.527447
	N270	N	0.094210	0.823746	0.453183
	N271	N	0.922113	0.824346	0.526619
	N272	N	0.183525	0.465758	0.905812
	N273	N	0.183420	0.541681	0.073395
	N274	N	0.833578	0.464820	0.072074
	N275	N	0.831389	0.542051	0.904963
	O276	O	1.005453	1.033671	-0.096437
	H277	H	1.005379	1.025756	-0.102654
	H278	H	1.006706	1.032367	-0.095256
	O279	O	0.023070	-0.045899	1.000376
	H280	H	0.029171	-0.051951	1.008350
	H281	H	0.030909	-0.043542	1.001503
	O282	O	0.015918	0.039638	-0.001224
	H283	H	0.008487	0.034774	-0.010526
	H284	H	0.015367	0.034603	0.001081
	O285	O	0.536012	0.431985	0.505183
	H286	H	0.540970	0.424924	0.499139
	H287	H	0.541562	0.432792	0.509078
	O288	O	0.065576	0.022469	0.008486
	H289	H	0.062399	0.019219	0.010774
	H290	H	0.066598	0.025270	0.015604
	O291	O	-0.025762	1.088226	-0.044473
	H292	H	-0.025851	1.091360	-0.046356
	H293	H	-0.031801	1.094257	-0.056545
	O294	O	0.090958	0.987755	-0.013215
	H295	H	0.098263	0.986504	-0.017682
	H296	H	0.081053	0.995719	-0.012800
	O297	O	0.518150	0.476016	0.529587
	H298	H	0.525403	0.481592	0.526063
	H299	H	0.518263	0.465108	0.527815
	O300	O	0.556072	0.531073	0.497357
	H301	H	0.548757	0.529184	0.496706
	H302	H	0.561899	0.545279	0.494477
	O303	O	0.935554	-0.019279	1.047717
	H304	H	0.926245	-0.012597	1.044769
	H305	H	0.941376	-0.025206	1.041761
	O306	O	0.014831	1.009383	0.986539
	H307	H	0.008115	1.003244	0.988698
	H308	H	0.018013	1.017326	0.983642
	O309	O	-0.491314	0.564620	1.438070
	H310	H	-0.488731	0.563208	1.441769
	H311	H	-0.499190	0.554214	1.439602
	O312	O	0.014259	0.067401	1.011746
	H313	H	0.012109	0.065786	1.010142
	H314	H	0.016920	0.068701	1.006842
	O315	O	0.517569	0.479719	0.460237
	H316	H	0.521488	0.472180	0.462383
	H317	H	0.522404	0.482601	0.466621
	O318	O	0.018880	-0.004344	1.001711
	H319	H	0.014796	-0.009478	1.002167
	H320	H	0.014173	-0.005169	1.006787
	O321	O	0.992266	1.028808	0.966146
	H322	H	0.994448	1.031909	0.971802
	H323	H	0.983598	1.038776	0.971218
	O324	O	-0.012524	-1.030619	1.092246
	H325	H	-0.012362	-1.038731	1.087350
	H326	H	-0.011741	-1.030781	1.095955
	O327	O	1.045974	0.931441	1.015139
	H328	H	1.053705	0.924468	1.016724
	H329	H	1.050523	0.934652	1.028517
	O330	O	0.529683	0.500753	0.455588
	H331	H	0.543193	0.501115	0.466226
	H332	H	0.526803	0.496071	0.457493
	O333	O	0.480469	0.539371	0.447726
	H334	H	0.485176	0.539648	0.446525
	H335	H	0.474858	0.551214	0.444178
	O336	O	0.559559	0.468476	0.403452
	H337	H	0.548973	0.476572	0.403212
	H338	H	0.569598	0.471037	0.397536
	O339	O	0.465097	0.503046	0.434227
	H340	H	0.463821	0.501014	0.426198
	H341	H	0.458354	0.506242	0.426748
	O342	O	0.499883	0.459783	0.521697
	H343	H	0.497038	0.455842	0.513252
	H344	H	0.494238	0.460229	0.524267
	O345	O	0.531779	0.510959	0.457036
	H346	H	0.527136	0.508983	0.457989
	H347	H	0.525760	0.512522	0.451438
