data_Molecule from HDF5

_cell_length_a		16.552922
_cell_length_b		16.397776
_cell_length_c		16.355320
_cell_angle_alpha	90.049787
_cell_angle_beta	89.938507
_cell_angle_gamma	89.797196
_symmetry_space_group_name_H-M	'P 1'
_symmetry_Int_Tables_number		1

loop_
	_symmetry_equiv_pos_as_xyz
	x,y,z

loop_
	_atom_site_label
	_atom_site_type_symbol
	_atom_site_fract_x
	_atom_site_fract_y
	_atom_site_fract_z
	H0	H	0.398126	0.857322	0.730294
	H1	H	0.611020	0.171981	0.732121
	H2	H	0.611949	0.856889	0.284780
	H3	H	0.399714	0.173558	0.286964
	H4	H	0.732429	0.402048	0.853382
	H5	H	0.727018	0.622835	0.166856
	H6	H	0.280075	0.623391	0.853305
	H7	H	0.282725	0.404811	0.166896
	H8	H	0.847685	0.738690	0.402575
	H9	H	0.159921	0.738587	0.617530
	H10	H	0.848882	0.288682	0.622199
	H11	H	0.159686	0.288448	0.400854
	H12	H	0.850496	0.404574	0.739087
	H13	H	0.161192	0.621152	0.732529
	H14	H	0.847960	0.624246	0.284799
	H15	H	0.160277	0.405439	0.284439
	H16	H	0.398555	0.735425	0.850301
	H17	H	0.611214	0.737086	0.166693
	H18	H	0.611177	0.293261	0.849340
	H19	H	0.400272	0.292727	0.166828
	H20	H	0.731037	0.858349	0.396410
	H21	H	0.727295	0.171777	0.618385
	H22	H	0.280094	0.858708	0.617467
	H23	H	0.278473	0.170900	0.398223
	H24	H	0.899632	0.356786	0.232384
	H25	H	0.108127	0.672982	0.230096
	H26	H	0.114209	0.357011	0.785231
	H27	H	0.900527	0.673764	0.789221
	H28	H	0.225677	0.906176	0.350770
	H29	H	0.228648	0.123363	0.665808
	H30	H	0.780309	0.124851	0.352284
	H31	H	0.780203	0.908311	0.666570
	H32	H	0.350279	0.243170	0.896496
	H33	H	0.661234	0.237967	0.116277
	H34	H	0.347910	0.792082	0.114043
	H35	H	0.659522	0.785871	0.896612
	H36	H	0.348646	0.909178	0.231173
	H37	H	0.660406	0.123535	0.233093
	H38	H	0.348773	0.124131	0.782818
	H39	H	0.660237	0.904137	0.781429
	H40	H	0.895261	0.240597	0.353397
	H41	H	0.111151	0.236834	0.668119
	H42	H	0.108313	0.793154	0.350899
	H43	H	0.897393	0.793972	0.668527
	H44	H	0.231074	0.357179	0.899368
	H45	H	0.228932	0.670370	0.119971
	H46	H	0.780083	0.357876	0.120837
	H47	H	0.780507	0.671575	0.900860
	H48	H	0.408938	0.131900	0.598250
	H49	H	0.597066	0.900856	0.594659
	H50	H	0.592741	0.126059	0.424155
	H51	H	0.414818	0.901721	0.422499
	H52	H	0.591508	0.430261	0.120295
	H53	H	0.597270	0.598275	0.894761
	H54	H	0.424025	0.605012	0.120631
	H55	H	0.418731	0.426038	0.895659
	H56	H	0.115305	0.601112	0.421182
	H57	H	0.889638	0.606602	0.602997
	H58	H	0.113859	0.424966	0.591639
	H59	H	0.894052	0.430995	0.421381
	H60	H	0.113601	0.432244	0.597569
	H61	H	0.893312	0.606280	0.594666
	H62	H	0.116828	0.603754	0.419896
	H63	H	0.892190	0.426521	0.423121
	H64	H	0.411304	0.607967	0.126020
	H65	H	0.590192	0.594519	0.899245
	H66	H	0.590341	0.423816	0.121434
	H67	H	0.414890	0.429106	0.895218
	H68	H	0.595453	0.128597	0.420265
	H69	H	0.587140	0.902995	0.596686
	H70	H	0.423544	0.126523	0.597927
	H71	H	0.414572	0.901133	0.418754
	H72	H	0.909930	0.628796	0.094276
	H73	H	0.091900	0.399331	0.103564
	H74	H	0.095887	0.626840	0.926151
	H75	H	0.922793	0.405441	0.927014
	H76	H	0.093945	0.924574	0.624407
	H77	H	0.090513	0.098449	0.398182
	H78	H	0.915909	0.102571	0.622904
	H79	H	0.918445	0.925550	0.396193
	H80	H	0.615011	0.100677	0.919661
	H81	H	0.392908	0.099350	0.100122
	H82	H	0.618601	0.924431	0.099710
	H83	H	0.392136	0.916743	0.924259
	H84	H	0.617012	0.922393	0.092363
	H85	H	0.391751	0.108447	0.096334
	H86	H	0.616220	0.101704	0.919285
	H87	H	0.398274	0.933745	0.925711
	H88	H	0.913996	0.100655	0.622933
	H89	H	0.088660	0.104128	0.396619
	H90	H	0.095597	0.931135	0.621532
	H91	H	0.913712	0.926529	0.395623
	H92	H	0.095320	0.626985	0.921208
	H93	H	0.090195	0.403864	0.091558
	H94	H	0.915270	0.629365	0.102709
	H95	H	0.915680	0.402209	0.927228
	H96	H	0.414295	0.125058	0.585204
	H97	H	0.591243	0.904666	0.587283
	H98	H	0.589506	0.127719	0.418714
	H99	H	0.417484	0.901941	0.420478
	H100	H	0.596236	0.426819	0.122985
	H101	H	0.589940	0.603613	0.895700
	H102	H	0.414299	0.594684	0.121280
	H103	H	0.418646	0.431072	0.897226
	H104	H	0.115353	0.603671	0.423106
	H105	H	0.893900	0.599069	0.600292
	H106	H	0.117458	0.424305	0.600284
	H107	H	0.895027	0.429433	0.425780
	H108	H	0.919508	0.625497	0.094646
	H109	H	0.101349	0.398990	0.095200
	H110	H	0.091620	0.625290	0.924217
	H111	H	0.920099	0.401739	0.921054
	H112	H	0.088349	0.928724	0.620903
	H113	H	0.093593	0.101900	0.394618
	H114	H	0.916476	0.100121	0.621784
	H115	H	0.916601	0.929859	0.396873
	H116	H	0.615432	0.102010	0.920527
	H117	H	0.395488	0.101205	0.091017
	H118	H	0.615879	0.929645	0.094162
	H119	H	0.391014	0.928023	0.909942
	C120	C	0.382724	0.023830	0.628534
	C121	C	0.625430	1.006336	0.628436
	C122	C	0.626587	0.023550	0.386610
	C123	C	0.382810	1.006025	0.386865
	C124	C	0.627044	0.392483	0.017610
	C125	C	0.625444	0.634399	1.000343
	C126	C	0.383336	0.635651	0.018202
	C127	C	0.384356	0.393920	1.000153
	C128	C	0.012319	0.636284	0.388044
	C129	C	0.995771	0.636726	0.632086
	C130	C	0.012807	0.392666	0.632324
	C131	C	0.996123	0.393548	0.388668
	C132	C	0.882457	0.523460	0.131474
	C133	C	0.126604	0.505254	0.130598
	C134	C	0.128103	0.522697	0.888831
	C135	C	0.884916	0.506559	0.889889
	C136	C	0.125127	0.893841	0.517922
	C137	C	0.124932	0.135552	0.500639
	C138	C	0.882229	0.135878	0.518743
	C139	C	0.882619	0.894008	0.500599
	C140	C	0.512844	0.136315	0.885879
	C141	C	0.496566	0.135908	0.129102
	C142	C	0.513636	0.892656	0.129259
	C143	C	0.496421	0.891579	0.885049
	C144	C	0.379863	0.905035	0.690161
	C145	C	0.628805	0.124553	0.691292
	C146	C	0.630264	0.904724	0.324546
	C147	C	0.380679	0.125611	0.326352
	C148	C	0.690347	0.386621	0.899881
	C149	C	0.686409	0.639586	0.119121
	C150	C	0.321208	0.640166	0.900228
	C151	C	0.323189	0.388193	0.119263
	C152	C	0.894545	0.698142	0.384728
	C153	C	0.113049	0.698173	0.635487
	C154	C	0.896157	0.329569	0.638873
	C155	C	0.112892	0.329752	0.383524
	C156	C	0.896763	0.387290	0.697129
	C157	C	0.113672	0.639566	0.692938
	C158	C	0.894909	0.640617	0.326191
	C159	C	0.113289	0.388232	0.325650
	C160	C	0.380169	0.696164	0.898720
	C161	C	0.628639	0.696897	0.118990
	C162	C	0.630041	0.332046	0.897993
	C163	C	0.381401	0.332025	0.119113
	C164	C	0.689408	0.905490	0.380687
	C165	C	0.686811	0.124541	0.634456
	C166	C	0.320903	0.905725	0.634035
	C167	C	0.320201	0.124074	0.381569
	C168	C	0.880928	0.404299	0.192337
	C169	C	0.127351	0.624906	0.190877
	C170	C	0.131754	0.404391	0.826085
	C171	C	0.881831	0.625729	0.828855
	C172	C	0.185572	0.889252	0.398587
	C173	C	0.187579	0.140225	0.618667
	C174	C	0.820709	0.141626	0.399919
	C175	C	0.820773	0.890264	0.619375
	C176	C	0.396654	0.200763	0.880398
	C177	C	0.614071	0.197460	0.132963
	C178	C	0.395359	0.832285	0.132692
	C179	C	0.612990	0.827715	0.879560
	C180	C	0.395717	0.890341	0.190986
	C181	C	0.613867	0.140106	0.191352
	C182	C	0.395693	0.141372	0.823575
	C183	C	0.613258	0.886748	0.822269
	C184	C	0.877675	0.199628	0.400663
	C185	C	0.129102	0.197260	0.619739
	C186	C	0.127099	0.832873	0.398687
	C187	C	0.879461	0.833723	0.620393
	C188	C	0.190086	0.404448	0.883163
	C189	C	0.187534	0.623551	0.135854
	C190	C	0.821378	0.404896	0.136676
	C191	C	0.821806	0.624475	0.884265
	C192	C	0.408320	0.106180	0.601587
	C193	C	0.599302	0.924166	0.600800
	C194	C	0.600161	0.105837	0.413473
	C195	C	0.408341	0.923413	0.412952
	C196	C	0.600426	0.419286	0.100163
	C197	C	0.599559	0.606816	0.917825
	C198	C	0.409133	0.609883	0.101025
	C199	C	0.409807	0.420924	0.917777
	C200	C	0.094407	0.610354	0.414002
	C201	C	0.913559	0.611084	0.606692
	C202	C	0.093785	0.419572	0.604470
	C203	C	0.914809	0.421056	0.415683
	C204	C	0.907449	0.606261	0.104718
	C205	C	0.101585	0.422410	0.104266
	C206	C	0.101822	0.604925	0.915967
	C207	C	0.911739	0.424574	0.917220
	C208	C	0.099834	0.920618	0.600814
	C209	C	0.098437	0.109066	0.417949
	C210	C	0.908197	0.108815	0.601074
	C211	C	0.908738	0.919754	0.417940
	C212	C	0.594373	0.109013	0.912351
	C213	C	0.414640	0.110253	0.103153
	C214	C	0.595735	0.918124	0.102924
	C215	C	0.415042	0.918773	0.912179
	Zn216	Zn	0.504302	0.014725	0.756316
	Zn217	Zn	0.505033	0.015047	0.258741
	Zn218	Zn	0.754733	0.513808	0.009870
	Zn219	Zn	0.256176	0.513635	0.010205
	Zn220	Zn	0.003997	0.765676	0.509792
	Zn221	Zn	0.003713	0.263893	0.510224
	Zn222	Zn	0.005686	0.514678	0.760868
	Zn223	Zn	0.004564	0.515213	0.258788
	Zn224	Zn	0.505040	0.763214	0.007752
	Zn225	Zn	0.504869	0.265665	0.008172
	Zn226	Zn	0.753900	0.014987	0.508594
	Zn227	Zn	0.254065	0.014412	0.507791
	N228	N	0.417448	0.979507	0.686947
	N229	N	0.591420	0.049881	0.687675
	N230	N	0.592002	0.979123	0.327890
	N231	N	0.418923	0.051188	0.329651
	N232	N	0.688793	0.423439	0.975483
	N233	N	0.684674	0.601323	0.044424
	N234	N	0.322797	0.603381	0.975613
	N235	N	0.324718	0.425778	0.044220
	N236	N	0.968467	0.695291	0.422798
	N237	N	0.038725	0.696520	0.598450
	N238	N	0.969369	0.332674	0.599180
	N239	N	0.038934	0.332677	0.421851
	N240	N	0.970304	0.425692	0.693273
	N241	N	0.039616	0.602028	0.690787
	N242	N	0.969069	0.602608	0.328435
	N243	N	0.039468	0.426921	0.328477
	N244	N	0.418031	0.693568	0.973259
	N245	N	0.591669	0.693879	0.043793
	N246	N	0.591643	0.335422	0.972321
	N247	N	0.418572	0.335339	0.044084
	N248	N	0.687149	0.980411	0.418562
	N249	N	0.684587	0.050052	0.595879
	N250	N	0.322151	0.980874	0.596864
	N251	N	0.321318	0.048814	0.418353
	N252	N	0.918135	0.478968	0.189157
	N253	N	0.090322	0.550044	0.187877
	N254	N	0.093928	0.479037	0.829373
	N255	N	0.920211	0.551356	0.832148
	N256	N	0.184671	0.926545	0.473797
	N257	N	0.185212	0.102735	0.543464
	N258	N	0.823263	0.103060	0.474249
	N259	N	0.822621	0.926964	0.543953
	N260	N	0.470536	0.197661	0.918549
	N261	N	0.540126	0.194937	0.094745
	N262	N	0.469745	0.833373	0.095362
	N263	N	0.539242	0.830580	0.917837
	N264	N	0.470525	0.926829	0.189278
	N265	N	0.539954	0.102466	0.189044
	N266	N	0.468950	0.101841	0.826995
	N267	N	0.539732	0.925843	0.825719
	N268	N	0.915172	0.196520	0.475653
	N269	N	0.090890	0.194450	0.545187
	N270	N	0.090425	0.835540	0.473937
	N271	N	0.917154	0.835864	0.545488
	N272	N	0.188074	0.479122	0.921288
	N273	N	0.187407	0.548049	0.099326
	N274	N	0.822181	0.480159	0.099634
	N275	N	0.823378	0.549213	0.921319
	O276	O	0.301139	0.664628	0.481603
	H277	H	0.312299	0.665084	0.491561
	H278	H	0.302227	0.651737	0.467574
	O279	O	0.909377	0.053611	1.123088
	H280	H	0.927980	0.056292	1.119438
	H281	H	0.916156	0.055620	1.125002
	O282	O	0.681459	0.689769	0.688369
	H283	H	0.682032	0.699134	0.645702
	H284	H	0.636710	0.698944	0.701277
	O285	O	0.437819	0.640977	0.337905
	H286	H	0.449917	0.653976	0.337998
	H287	H	0.436808	0.640681	0.338631
	O288	O	0.800451	1.030743	-0.182417
	H289	H	0.791778	1.012783	-0.166400
	H290	H	0.783915	1.020122	-0.177448
	O291	O	0.368366	0.531820	0.446460
	H292	H	0.363391	0.542425	0.435216
	H293	H	0.377057	0.536018	0.454370
	O294	O	-0.007116	-0.178072	1.197092
	H295	H	0.002571	-0.179936	1.198426
	H296	H	0.001813	-0.173265	1.178675
	O297	O	0.825892	0.194792	-0.169693
	H298	H	0.833323	0.160580	-0.179368
	H299	H	0.862168	0.185251	-0.180627
	O300	O	0.989165	1.221235	-0.201056
	H301	H	1.006223	1.224448	-0.190897
	H302	H	1.000105	1.232954	-0.215349
	O303	O	0.475146	0.372815	0.423269
	H304	H	0.481299	0.365398	0.451218
	H305	H	0.462681	0.366914	0.430841
	O306	O	0.536853	0.684913	0.513762
	H307	H	0.524307	0.682427	0.528901
	H308	H	0.525406	0.675142	0.502470
	O309	O	0.296192	0.305029	0.554657
	H310	H	0.293614	0.324785	0.543331
	H311	H	0.270859	0.299094	0.555038
	O312	O	-0.154280	1.079135	1.096595
	H313	H	-0.129913	1.077804	1.081574
	H314	H	-0.149687	1.103258	1.082744
	O315	O	0.509365	0.536424	0.494415
	H316	H	0.530529	0.536723	0.497154
	H317	H	0.508544	0.534446	0.500748
	O318	O	1.015127	-0.078346	-0.007613
	H319	H	1.018248	-0.059608	-0.014299
	H320	H	1.017543	-0.093835	-0.032856
	O321	O	-0.214037	0.233392	-0.012128
	H322	H	-0.237970	0.258554	-0.031519
	H323	H	-0.215538	0.232388	-0.050594
	O324	O	0.500188	0.592126	0.520699
	H325	H	0.510424	0.572724	0.516678
	H326	H	0.491692	0.585129	0.530832
	O327	O	0.489767	0.313116	0.330102
	H328	H	0.463575	0.309428	0.334479
	H329	H	0.475098	0.307696	0.342957
	O330	O	0.062110	1.232776	-0.043781
	H331	H	0.074103	1.236674	-0.023072
	H332	H	0.073254	1.233689	-0.038378
	O333	O	0.218185	0.853096	1.017747
	H334	H	0.203251	0.860916	1.017229
	H335	H	0.234997	0.831958	1.018358
	O336	O	-0.063315	-0.166445	-0.024820
	H337	H	-0.045735	-0.159984	-0.027322
	H338	H	-0.090508	-0.176633	-0.042430
	O339	O	-0.207341	0.995624	1.218106
	H340	H	-0.216983	1.007118	1.231472
	H341	H	-0.223046	1.013104	1.209207
	O342	O	-0.020365	0.865676	0.815458
	H343	H	-0.011847	0.871979	0.806689
	H344	H	-0.014734	0.867131	0.822752
	O345	O	1.368378	0.673070	-0.381081
	H346	H	1.365025	0.667818	-0.378867
	H347	H	1.345879	0.686033	-0.374785
	O348	O	0.188230	0.193153	0.190998
	H349	H	0.135310	0.204908	0.201712
	H350	H	0.195955	0.178207	0.162326
	O351	O	-0.084523	1.169238	1.154848
	H352	H	-0.092211	1.157025	1.152746
	H353	H	-0.104506	1.167504	1.140496
	O354	O	-0.651892	0.483040	0.303667
	H355	H	-0.668988	0.480303	0.285280
	H356	H	-0.632506	0.483984	0.292894
	O357	O	-0.283390	-0.535852	0.565330
	H358	H	-0.280130	-0.511968	0.551782
	H359	H	-0.292463	-0.523019	0.578672
	O360	O	0.717853	0.301190	0.485656
	H361	H	0.741588	0.305603	0.502399
	H362	H	0.742317	0.307197	0.495266
	O363	O	-0.539143	-0.528933	1.409896
	H364	H	-0.532804	-0.525898	1.413274
	H365	H	-0.528024	-0.524855	1.435860
	O366	O	1.198573	-0.075956	1.164338
	H367	H	1.211205	-0.075734	1.182450
	H368	H	1.182472	-0.099043	1.175028
	O369	O	0.439947	0.483737	0.693529
	H370	H	0.438039	0.482261	0.712813
	H371	H	0.435497	0.472308	0.692773
	O372	O	1.229157	0.037163	0.989472
	H373	H	1.233533	0.018577	0.992285
	H374	H	1.223064	0.018649	0.995582
	O375	O	0.173983	0.015239	0.222513
	H376	H	0.164290	0.035962	0.224524
	H377	H	0.178475	0.021742	0.230629
	O378	O	0.719232	0.727836	0.528753
	H379	H	0.703163	0.725307	0.504716
	H380	H	0.742179	0.751306	0.536295
	O381	O	0.314568	0.657533	0.318786
	H382	H	0.332680	0.652412	0.304753
	H383	H	0.307694	0.632650	0.344965
	O384	O	0.521230	0.717423	0.711451
	H385	H	0.503139	0.725495	0.719100
	H386	H	0.504408	0.719111	0.713865
	O387	O	-0.180601	-0.026669	0.980875
	H388	H	-0.181146	-0.040661	1.006623
	H389	H	-0.178983	-0.020297	0.995781
	O390	O	-0.461220	-0.413713	0.365561
	H391	H	-0.439168	-0.407992	0.363725
	H392	H	-0.449202	-0.425556	0.369507
	O393	O	0.797469	0.809101	1.026089
	H394	H	0.799739	0.811246	1.057975
	H395	H	0.780837	0.794816	1.041054
	O396	O	1.353566	0.338925	-0.311133
	H397	H	1.384265	0.328016	-0.321490
	H398	H	1.348290	0.346483	-0.338001
	O399	O	1.129291	-0.089122	0.807492
	H400	H	1.104383	-0.083122	0.796669
	H401	H	1.126518	-0.079760	0.790718
	O402	O	1.170495	0.877548	0.935353
	H403	H	1.178417	0.878649	0.941588
	H404	H	1.169133	0.890050	0.945456
	O405	O	0.995794	1.004969	-0.211872
	H406	H	0.996996	0.982493	-0.210071
	H407	H	0.995156	0.999782	-0.212229
	O408	O	1.196420	-0.176510	-0.178900
	H409	H	1.180573	-0.151898	-0.182143
	H410	H	1.202706	-0.159289	-0.155933
	O411	O	1.221557	1.230404	0.029169
	H412	H	1.236813	1.214809	0.018583
	H413	H	1.244896	1.245613	0.048335
	O414	O	0.528873	0.337109	0.661272
	H415	H	0.522102	0.330287	0.674511
	H416	H	0.549044	0.347708	0.662607
	O417	O	0.381728	0.712970	0.538692
	H418	H	0.365788	0.690911	0.547967
	H419	H	0.379096	0.723257	0.518658
	O420	O	-0.002395	0.146783	0.015755
	H421	H	0.007953	0.140736	0.020172
	H422	H	-0.020858	0.164104	0.011851
	O423	O	0.435843	0.430147	0.567378
	H424	H	0.448544	0.420175	0.577033
	H425	H	0.439693	0.432844	0.577477
	O426	O	0.829827	0.833666	0.185527
	H427	H	0.852093	0.854652	0.195102
	H428	H	0.842111	0.859807	0.188902
	O429	O	0.708470	0.566956	0.438287
	H430	H	0.716545	0.556518	0.416198
	H431	H	0.703869	0.580447	0.424041
	O432	O	0.726676	0.535656	0.731432
	H433	H	0.765093	0.542717	0.770153
	H434	H	0.713989	0.579123	0.712953
	O435	O	0.283949	0.499682	0.577942
	H436	H	0.283835	0.519635	0.557032
	H437	H	0.285053	0.511337	0.595336
	O438	O	0.140082	0.075241	-0.148748
	H439	H	0.133215	0.061421	-0.122141
	H440	H	0.120001	0.087564	-0.144589
	O441	O	0.999741	-0.059390	0.107452
	H442	H	1.007382	-0.042225	0.082688
	H443	H	1.001345	-0.071596	0.112769
	O444	O	0.027110	1.221149	1.220455
	H445	H	0.019274	1.245072	1.242608
	H446	H	0.002861	1.208560	1.206433
	O447	O	0.725792	0.493321	0.295774
	H448	H	0.728262	0.469726	0.281831
	H449	H	0.736592	0.463786	0.279726
	O450	O	0.560057	0.389989	0.645258
	H451	H	0.584437	0.397606	0.636844
	H452	H	0.569493	0.398018	0.639835
	O453	O	0.691930	0.329692	0.320871
	H454	H	0.655943	0.321104	0.321606
	H455	H	0.684880	0.320847	0.359417
