data_Molecule from HDF5

_cell_length_a		16.489592
_cell_length_b		16.490412
_cell_length_c		16.515164
_cell_angle_alpha	89.932780
_cell_angle_beta	89.922229
_cell_angle_gamma	89.938368
_symmetry_space_group_name_H-M	'P 1'
_symmetry_Int_Tables_number		1

loop_
	_symmetry_equiv_pos_as_xyz
	x,y,z

loop_
	_atom_site_label
	_atom_site_type_symbol
	_atom_site_fract_x
	_atom_site_fract_y
	_atom_site_fract_z
	H0	H	0.381009	0.852328	0.723983
	H1	H	0.598374	0.164000	0.726366
	H2	H	0.590377	0.850973	0.281594
	H3	H	0.382230	0.166372	0.279383
	H4	H	0.715323	0.396034	0.844564
	H5	H	0.706257	0.609153	0.156374
	H6	H	0.264044	0.616243	0.843657
	H7	H	0.265109	0.400010	0.155908
	H8	H	0.829956	0.727634	0.396751
	H9	H	0.145773	0.728459	0.604580
	H10	H	0.830617	0.283936	0.609285
	H11	H	0.146356	0.287265	0.396912
	H12	H	0.831805	0.399587	0.726039
	H13	H	0.144073	0.616246	0.725123
	H14	H	0.830035	0.610608	0.281021
	H15	H	0.145626	0.400934	0.278525
	H16	H	0.381118	0.731763	0.843073
	H17	H	0.590952	0.725918	0.156451
	H18	H	0.598555	0.280765	0.843871
	H19	H	0.380007	0.283489	0.155218
	H20	H	0.707040	0.850406	0.396873
	H21	H	0.714239	0.164037	0.610286
	H22	H	0.265985	0.850967	0.607427
	H23	H	0.267054	0.166722	0.395841
	H24	H	0.880108	0.350997	0.224686
	H25	H	0.089744	0.664694	0.217788
	H26	H	0.099110	0.353145	0.773361
	H27	H	0.878634	0.663097	0.776838
	H28	H	0.207401	0.905092	0.343046
	H29	H	0.211941	0.114815	0.657544
	H30	H	0.767543	0.113500	0.343600
	H31	H	0.764647	0.900050	0.657651
	H32	H	0.332570	0.234071	0.890556
	H33	H	0.644002	0.231812	0.107323
	H34	H	0.330821	0.788577	0.102749
	H35	H	0.645483	0.785267	0.892754
	H36	H	0.330709	0.903544	0.220305
	H37	H	0.644529	0.115154	0.223311
	H38	H	0.332622	0.119229	0.772906
	H39	H	0.644051	0.899121	0.774312
	H40	H	0.880686	0.232730	0.345604
	H41	H	0.096471	0.231954	0.657806
	H42	H	0.090499	0.788874	0.343488
	H43	H	0.881547	0.784087	0.657561
	H44	H	0.214683	0.352051	0.890272
	H45	H	0.207557	0.664230	0.102857
	H46	H	0.764975	0.350117	0.107670
	H47	H	0.762903	0.662465	0.892575
	H48	H	0.400930	0.119152	0.585341
	H49	H	0.570865	0.901800	0.581526
	H50	H	0.577926	0.122261	0.412632
	H51	H	0.403209	0.895891	0.408286
	H52	H	0.583846	0.416027	0.114262
	H53	H	0.577716	0.598170	0.883990
	H54	H	0.404783	0.601626	0.110736
	H55	H	0.401921	0.420919	0.888007
	H56	H	0.101261	0.600033	0.411393
	H57	H	0.874533	0.595703	0.591855
	H58	H	0.101857	0.421972	0.597460
	H59	H	0.876553	0.420003	0.414453
	H60	H	0.100174	0.412239	0.581984
	H61	H	0.876558	0.597064	0.586616
	H62	H	0.100559	0.595009	0.408908
	H63	H	0.876468	0.421644	0.410589
	H64	H	0.391930	0.602932	0.115542
	H65	H	0.577652	0.593474	0.886151
	H66	H	0.575153	0.428917	0.106205
	H67	H	0.402405	0.423866	0.889464
	H68	H	0.577432	0.122526	0.411183
	H69	H	0.583484	0.894400	0.585707
	H70	H	0.400035	0.120012	0.586702
	H71	H	0.395224	0.896448	0.415863
	H72	H	0.891805	0.621364	0.088084
	H73	H	0.077927	0.393039	0.089535
	H74	H	0.069990	0.618506	0.909531
	H75	H	0.901733	0.394878	0.911058
	H76	H	0.075943	0.917737	0.614215
	H77	H	0.080583	0.097168	0.388513
	H78	H	0.905755	0.093895	0.610252
	H79	H	0.899127	0.916017	0.387452
	H80	H	0.596599	0.093199	0.916756
	H81	H	0.378409	0.090963	0.086512
	H82	H	0.600385	0.921546	0.089204
	H83	H	0.374973	0.911597	0.915026
	H84	H	0.603839	0.917601	0.096546
	H85	H	0.374392	0.095859	0.093893
	H86	H	0.596551	0.090240	0.913847
	H87	H	0.381152	0.926791	0.918855
	H88	H	0.900505	0.098039	0.613702
	H89	H	0.075230	0.094191	0.390749
	H90	H	0.077866	0.918247	0.614481
	H91	H	0.896990	0.917592	0.387798
	H92	H	0.075114	0.615549	0.920010
	H93	H	0.077793	0.393159	0.089928
	H94	H	0.899234	0.621773	0.096510
	H95	H	0.906066	0.397763	0.915142
	H96	H	0.401976	0.119361	0.587033
	H97	H	0.572077	0.895897	0.595190
	H98	H	0.576436	0.121276	0.412575
	H99	H	0.393231	0.892684	0.406046
	H100	H	0.567461	0.413589	0.109756
	H101	H	0.573471	0.596756	0.887009
	H102	H	0.396534	0.590473	0.110152
	H103	H	0.404415	0.421820	0.888839
	H104	H	0.103754	0.599041	0.406239
	H105	H	0.877796	0.592472	0.588821
	H106	H	0.093636	0.429865	0.582490
	H107	H	0.875020	0.417444	0.411289
	H108	H	0.902440	0.616821	0.086497
	H109	H	0.077567	0.392585	0.089844
	H110	H	0.081244	0.620947	0.911816
	H111	H	0.900340	0.395977	0.916938
	H112	H	0.076862	0.919747	0.613792
	H113	H	0.074937	0.100459	0.389192
	H114	H	0.898950	0.090929	0.611850
	H115	H	0.899054	0.918146	0.389010
	H116	H	0.598698	0.093876	0.913561
	H117	H	0.375495	0.100347	0.085404
	H118	H	0.603295	0.912514	0.089155
	H119	H	0.374944	0.923846	0.903407
	C120	C	0.367306	0.016370	0.620399
	C121	C	0.610337	0.999932	0.622507
	C122	C	0.608852	0.017541	0.379910
	C123	C	0.365407	0.999738	0.378597
	C124	C	0.610150	0.384731	0.007633
	C125	C	0.608249	0.627502	0.990102
	C126	C	0.365826	0.630386	0.008404
	C127	C	0.368216	0.387464	0.991420
	C128	C	-0.003200	0.629058	0.378339
	C129	C	0.979831	0.628345	0.621862
	C130	C	-0.004334	0.386862	0.622099
	C131	C	0.979692	0.386426	0.379653
	C132	C	0.865767	0.515715	0.122319
	C133	C	0.109006	0.497611	0.120730
	C134	C	0.110163	0.515821	0.878668
	C135	C	0.867804	0.498851	0.880053
	C136	C	0.108538	0.887234	0.509687
	C137	C	0.110306	0.130406	0.492696
	C138	C	0.867992	0.128217	0.509080
	C139	C	0.865672	0.884788	0.492159
	C140	C	0.495688	0.128497	0.878881
	C141	C	0.479732	0.128920	0.121474
	C142	C	0.497631	0.886566	0.121855
	C143	C	0.480369	0.886848	0.878526
	C144	C	0.363308	0.899081	0.682869
	C145	C	0.615053	0.117197	0.685042
	C146	C	0.609729	0.898380	0.320951
	C147	C	0.363888	0.118809	0.319191
	C148	C	0.673854	0.379213	0.891126
	C149	C	0.667353	0.628592	0.108869
	C150	C	0.304846	0.633650	0.890481
	C151	C	0.305730	0.382703	0.108802
	C152	C	0.877620	0.687798	0.378070
	C153	C	0.098199	0.689075	0.624069
	C154	C	0.878002	0.324832	0.626343
	C155	C	0.098930	0.326828	0.378141
	C156	C	0.878311	0.382501	0.684603
	C157	C	0.097340	0.633147	0.683810
	C158	C	0.877447	0.629684	0.320296
	C159	C	0.098296	0.383409	0.319057
	C160	C	0.363125	0.691180	0.890199
	C161	C	0.609882	0.686643	0.109015
	C162	C	0.615913	0.321488	0.891107
	C163	C	0.362850	0.324360	0.108393
	C164	C	0.667615	0.898328	0.378442
	C165	C	0.673362	0.116992	0.627607
	C166	C	0.305956	0.898335	0.624895
	C167	C	0.306410	0.118778	0.377173
	C168	C	0.862661	0.397677	0.183578
	C169	C	0.109694	0.616875	0.179276
	C170	C	0.115977	0.399405	0.814993
	C171	C	0.862244	0.616244	0.817776
	C172	C	0.167861	0.886113	0.390645
	C173	C	0.171515	0.133271	0.610533
	C174	C	0.807192	0.131943	0.391208
	C175	C	0.804980	0.882177	0.610288
	C176	C	0.379017	0.192687	0.873296
	C177	C	0.597049	0.191114	0.125064
	C178	C	0.378317	0.828080	0.121996
	C179	C	0.598222	0.825522	0.874639
	C180	C	0.378382	0.885071	0.180678
	C181	C	0.597394	0.133015	0.182907
	C182	C	0.379349	0.135512	0.814720
	C183	C	0.597337	0.882284	0.815675
	C184	C	0.863657	0.191025	0.391958
	C185	C	0.114058	0.191556	0.610750
	C186	C	0.109945	0.828345	0.390622
	C187	C	0.863231	0.824447	0.610316
	C188	C	0.173205	0.398830	0.873377
	C189	C	0.167832	0.616694	0.121816
	C190	C	0.805470	0.397321	0.125188
	C191	C	0.804232	0.615678	0.875095
	C192	C	0.393367	0.098046	0.593801
	C193	C	0.583263	0.918710	0.595467
	C194	C	0.584237	0.100435	0.404863
	C195	C	0.390155	0.916699	0.403119
	C196	C	0.583144	0.411729	0.088993
	C197	C	0.583361	0.603115	0.907348
	C198	C	0.390697	0.605467	0.090710
	C199	C	0.395150	0.414490	0.910101
	C200	C	0.080095	0.604863	0.402035
	C201	C	0.897714	0.602409	0.596341
	C202	C	0.077235	0.413800	0.595041
	C203	C	0.897672	0.412046	0.404947
	C204	C	0.890657	0.598441	0.097420
	C205	C	0.084778	0.414592	0.096696
	C206	C	0.083049	0.597047	0.905950
	C207	C	0.895158	0.417518	0.906712
	C208	C	0.083909	0.911559	0.592550
	C209	C	0.084224	0.104789	0.410730
	C210	C	0.894097	0.101873	0.590691
	C211	C	0.891045	0.909990	0.409486
	C212	C	0.576255	0.100406	0.906748
	C213	C	0.397525	0.103062	0.095808
	C214	C	0.580791	0.910336	0.098322
	C215	C	0.398293	0.913182	0.904925
	Zn216	Zn	0.487955	0.008413	0.749571
	Zn217	Zn	0.487610	0.008497	0.251031
	Zn218	Zn	0.737890	0.506669	-0.000316
	Zn219	Zn	0.238387	0.507126	-0.000526
	Zn220	Zn	-0.011895	0.756993	0.501033
	Zn221	Zn	-0.011678	0.257938	0.501256
	Zn222	Zn	-0.012020	0.507811	0.750911
	Zn223	Zn	-0.012042	0.506725	0.250143
	Zn224	Zn	0.488951	0.758094	-0.000965
	Zn225	Zn	0.487467	0.257194	-0.000631
	Zn226	Zn	0.738124	0.007929	0.500611
	Zn227	Zn	0.238097	0.008111	0.500769
	N228	N	0.400815	0.973281	0.680292
	N229	N	0.576711	0.043337	0.681902
	N230	N	0.573976	0.973686	0.321655
	N231	N	0.399911	0.043559	0.319888
	N232	N	0.670423	0.417740	0.964677
	N233	N	0.666525	0.592471	0.033932
	N234	N	0.306302	0.596362	0.964878
	N235	N	0.309171	0.421442	0.035147
	N236	N	0.953049	0.687845	0.413210
	N237	N	0.024008	0.686556	0.586686
	N238	N	0.952189	0.327378	0.588413
	N239	N	0.024216	0.328317	0.414967
	N240	N	0.952611	0.420097	0.682185
	N241	N	0.022574	0.596351	0.682818
	N242	N	0.952841	0.594166	0.320003
	N243	N	0.023300	0.419948	0.319851
	N244	N	0.400319	0.689344	0.964526
	N245	N	0.574288	0.686363	0.033971
	N246	N	0.576993	0.324772	0.964616
	N247	N	0.401092	0.327292	0.034485
	N248	N	0.667457	0.973542	0.414224
	N249	N	0.670791	0.042979	0.589543
	N250	N	0.308330	0.972482	0.586813
	N251	N	0.307192	0.043710	0.413196
	N252	N	0.899378	0.472311	0.182131
	N253	N	0.073702	0.541690	0.178750
	N254	N	0.077365	0.473136	0.818229
	N255	N	0.900914	0.542544	0.820720
	N256	N	0.167326	0.921653	0.465697
	N257	N	0.169409	0.096170	0.536200
	N258	N	0.809790	0.093541	0.464924
	N259	N	0.806448	0.919020	0.535587
	N260	N	0.452534	0.188698	0.911981
	N261	N	0.522844	0.188652	0.087549
	N262	N	0.453508	0.828596	0.086153
	N263	N	0.524395	0.828440	0.912934
	N264	N	0.453501	0.921055	0.180736
	N265	N	0.523122	0.095239	0.180918
	N266	N	0.452846	0.096283	0.818045
	N267	N	0.522923	0.919850	0.817914
	N268	N	0.900492	0.189224	0.466466
	N269	N	0.076593	0.189742	0.536480
	N270	N	0.073917	0.828599	0.465825
	N271	N	0.900171	0.825959	0.535839
	N272	N	0.169578	0.472226	0.912265
	N273	N	0.167577	0.541529	0.086326
	N274	N	0.807297	0.471683	0.087693
	N275	N	0.807357	0.541718	0.913036
	O276	O	0.883312	0.018031	-0.030204
	H277	H	0.890443	0.022233	-0.020776
	H278	H	0.874555	0.002651	-0.032500
	O279	O	0.701567	0.487895	0.524295
	H280	H	0.693746	0.496574	0.536723
	H281	H	0.699796	0.504662	0.539526
	O282	O	0.775663	0.799884	0.190766
	H283	H	0.805531	0.785090	0.199647
	H284	H	0.762022	0.776092	0.212682
	O285	O	0.574675	0.331390	0.439855
	H286	H	0.574047	0.334786	0.452890
	H287	H	0.557156	0.335316	0.432206
	O288	O	-0.097552	0.124331	0.183215
	H289	H	-0.098276	0.123574	0.183695
	H290	H	-0.105577	0.119682	0.191185
	O291	O	0.939144	0.847721	0.154744
	H292	H	0.955590	0.841778	0.158439
	H293	H	0.960400	0.860575	0.159266
	O294	O	-0.207272	1.090932	-0.198124
	H295	H	-0.213552	1.061388	-0.209123
	H296	H	-0.210859	1.082576	-0.191306
	O297	O	0.498240	0.495686	0.479803
	H298	H	0.486549	0.512722	0.474948
	H299	H	0.498924	0.496783	0.473954
	O300	O	0.667240	0.691987	0.325629
	H301	H	0.652546	0.678673	0.349025
	H302	H	0.652190	0.677040	0.340538
	O303	O	0.337666	0.325822	0.685751
	H304	H	0.334353	0.366730	0.686952
	H305	H	0.373044	0.316445	0.696873
	O306	O	-0.229758	0.976888	1.215130
	H307	H	-0.252688	0.968293	1.224766
	H308	H	-0.236597	0.943092	1.222407
	O309	O	0.814709	0.929040	0.884415
	H310	H	0.808364	0.921679	0.871320
	H311	H	0.825132	0.930218	0.881602
	O312	O	0.454176	0.486661	0.527829
	H313	H	0.451942	0.487333	0.515343
	H314	H	0.453560	0.501630	0.535697
	O315	O	-0.082130	0.101677	0.926904
	H316	H	-0.111467	0.123924	0.925138
	H317	H	-0.078538	0.093484	0.948120
	O318	O	0.190210	0.814994	-0.012616
	H319	H	0.205349	0.796908	-0.032439
	H320	H	0.188289	0.842759	-0.008814
	O321	O	0.559284	0.442358	0.715381
	H322	H	0.535617	0.429001	0.715231
	H323	H	0.529854	0.447404	0.714935
	O324	O	1.027817	0.224118	0.916394
	H325	H	1.030411	0.233322	0.901869
	H326	H	1.006092	0.234424	0.912195
	O327	O	0.968030	0.227237	0.779659
	H328	H	0.938615	0.237938	0.770120
	H329	H	0.940089	0.240315	0.771029
	O330	O	0.972379	-0.148947	-0.202802
	H331	H	0.972817	-0.163310	-0.193921
	H332	H	0.980836	-0.160300	-0.205866
	O333	O	0.794527	1.173513	0.894857
	H334	H	0.774734	1.158651	0.909298
	H335	H	0.783898	1.164391	0.915153
	O336	O	1.180420	0.201142	1.173373
	H337	H	1.142460	0.211250	1.174948
	H338	H	1.179064	0.206880	1.132326
	O339	O	0.285272	0.695494	0.300176
	H340	H	0.261599	0.714639	0.281097
	H341	H	0.287196	0.677268	0.286998
	O342	O	0.486396	0.292909	0.687344
	H343	H	0.492263	0.272095	0.689932
	H344	H	0.488104	0.282968	0.675583
	O345	O	0.010848	0.211907	0.207332
	H346	H	-0.002335	0.223865	0.226769
	H347	H	-0.013112	0.207856	0.196456
	O348	O	1.182569	0.001797	1.193248
	H349	H	1.172133	0.035525	1.194292
	H350	H	1.205036	0.012308	1.203805
	O351	O	0.850857	1.057372	0.034290
	H352	H	0.851905	1.054944	0.037143
	H353	H	0.843966	1.043392	0.033541
	O354	O	0.284176	0.522442	0.289917
	H355	H	0.272285	0.525735	0.276602
	H356	H	0.287522	0.520610	0.290996
	O357	O	0.773823	0.821607	1.002118
	H358	H	0.777973	0.832010	1.031811
	H359	H	0.749499	0.800297	1.013941
	O360	O	0.490122	0.571854	0.299945
	H361	H	0.510117	0.548869	0.293400
	H362	H	0.490742	0.598279	0.303843
	O363	O	0.511050	0.714581	0.705243
	H364	H	0.508747	0.723834	0.711293
	H365	H	0.493619	0.724834	0.698693
	O366	O	1.051324	0.082654	1.063942
	H367	H	1.046475	0.089822	1.048315
	H368	H	1.058881	0.083853	1.062847
	O369	O	0.278862	0.297496	0.552494
	H370	H	0.282097	0.313255	0.585663
	H371	H	0.256676	0.274850	0.556385
	O372	O	0.459770	0.677131	0.338932
	H373	H	0.437797	0.675992	0.343927
	H374	H	0.446724	0.691528	0.328489
	O375	O	0.073291	1.061354	0.818445
	H376	H	0.081996	1.067101	0.809970
	H377	H	0.062436	1.089492	0.816672
	O378	O	0.909401	0.003112	0.140422
	H379	H	0.911340	-0.007453	0.148046
	H380	H	0.891384	-0.004219	0.140253
	O381	O	1.179658	-0.172870	0.177612
	H382	H	1.160542	-0.149040	0.163624
	H383	H	1.172405	-0.155037	0.157213
	O384	O	0.205868	-0.009893	0.972533
	H385	H	0.212998	0.010332	0.980121
	H386	H	0.202302	0.000309	0.980838
	O387	O	-0.079514	0.789351	0.978165
	H388	H	-0.076371	0.782992	0.990920
	H389	H	-0.100225	0.793989	0.984843
	O390	O	0.115685	0.020606	0.935166
	H391	H	0.123398	0.020857	0.932862
	H392	H	0.101182	0.017861	0.927659
	O393	O	0.900909	1.010133	-0.210310
	H394	H	0.903995	1.025699	-0.220869
	H395	H	0.909547	0.983842	-0.208627
	O396	O	0.297782	0.619697	0.595904
	H397	H	0.315499	0.621809	0.574576
	H398	H	0.283691	0.644264	0.589921
	O399	O	0.300991	0.502337	0.710940
	H400	H	0.276220	0.502942	0.721272
	H401	H	0.290027	0.530506	0.691684
	O402	O	-0.003152	-0.204181	1.088048
	H403	H	-0.011710	-0.199835	1.085492
	H404	H	0.008841	-0.206229	1.095558
	O405	O	0.150638	0.211142	0.000452
	H406	H	0.134484	0.208241	-0.013393
	H407	H	0.148733	0.216128	-0.015941
	O408	O	0.704777	0.529405	0.710338
	H409	H	0.715532	0.519600	0.736247
	H410	H	0.681845	0.508296	0.725994
	O411	O	0.699662	0.297452	0.480999
	H412	H	0.713718	0.312072	0.493951
	H413	H	0.717962	0.293961	0.484907
	O414	O	0.676654	0.692704	0.686876
	H415	H	0.687116	0.642589	0.697080
	H416	H	0.640486	0.705383	0.700867
	O417	O	0.292496	0.417656	0.455647
	H418	H	0.299782	0.410304	0.445108
	H419	H	0.290767	0.403777	0.455421
	O420	O	0.454401	0.578016	0.658779
	H421	H	0.450239	0.587600	0.663745
	H422	H	0.442142	0.578443	0.652526
	O423	O	0.052002	0.941927	0.208270
	H424	H	0.051812	0.955859	0.200494
	H425	H	0.065591	0.962245	0.212718
	O426	O	0.777628	1.258960	1.212967
	H427	H	0.755288	1.261941	1.212761
	H428	H	0.775958	1.258849	1.224664
	O429	O	0.433612	0.678926	0.594505
	H430	H	0.400108	0.682762	0.573058
	H431	H	0.460565	0.683885	0.570115
	O432	O	0.705482	0.719463	0.523011
	H433	H	0.726281	0.734377	0.545117
	H434	H	0.705799	0.722075	0.553859
	O435	O	0.557088	-0.476704	0.416537
	H436	H	0.551470	-0.466512	0.422975
	H437	H	0.544192	-0.469536	0.412230
	O438	O	0.980483	0.000751	-0.067687
	H439	H	0.977195	-0.004667	-0.059496
	H440	H	0.983256	-0.011872	-0.067567
	O441	O	0.270628	0.723580	0.468002
	H442	H	0.261012	0.730699	0.446697
	H443	H	0.258136	0.734125	0.456791
	O444	O	0.526775	0.715660	0.460480
	H445	H	0.545036	0.720136	0.461755
	H446	H	0.534379	0.706507	0.453469
	O447	O	0.508017	0.303304	0.304265
	H448	H	0.500423	0.291061	0.294674
	H449	H	0.503859	0.300686	0.315752
	O450	O	0.442813	0.365837	0.382148
	H451	H	0.425704	0.365392	0.393569
	H452	H	0.441040	0.389582	0.385177
	O453	O	0.696392	0.478884	0.296452
	H454	H	0.697441	0.464705	0.305798
	H455	H	0.718995	0.485090	0.288086
	O456	O	1.194062	0.006057	-0.131904
	H457	H	1.200637	0.003720	-0.143510
	H458	H	1.197756	0.006889	-0.126994
	O459	O	0.534823	0.364901	0.527746
	H460	H	0.541848	0.366438	0.515212
	H461	H	0.531192	0.363529	0.507868
	O462	O	0.425968	0.470079	0.319286
	H463	H	0.431340	0.452996	0.319816
	H464	H	0.430562	0.453862	0.307042
	O465	O	1.180660	-0.184219	-0.184567
	H466	H	1.165089	-0.185384	-0.170396
	H467	H	1.175882	-0.151460	-0.188953
