data_Molecule from HDF5

_cell_length_a		16.544593
_cell_length_b		16.511831
_cell_length_c		16.693189
_cell_angle_alpha	90.009508
_cell_angle_beta	89.889534
_cell_angle_gamma	89.992641
_symmetry_space_group_name_H-M	'P 1'
_symmetry_Int_Tables_number		1

loop_
	_symmetry_equiv_pos_as_xyz
	x,y,z

loop_
	_atom_site_label
	_atom_site_type_symbol
	_atom_site_fract_x
	_atom_site_fract_y
	_atom_site_fract_z
	H0	H	0.400881	0.862840	0.703099
	H1	H	0.616071	0.173135	0.705442
	H2	H	0.611638	0.860304	0.262146
	H3	H	0.400832	0.174746	0.259519
	H4	H	0.728136	0.414263	0.825598
	H5	H	0.726299	0.620572	0.138681
	H6	H	0.287970	0.620886	0.825876
	H7	H	0.285779	0.413587	0.137733
	H8	H	0.850815	0.737816	0.380280
	H9	H	0.167277	0.735339	0.582609
	H10	H	0.848400	0.302533	0.581045
	H11	H	0.163799	0.296961	0.376823
	H12	H	0.849396	0.417431	0.699547
	H13	H	0.166542	0.621108	0.700264
	H14	H	0.850750	0.623739	0.262134
	H15	H	0.162773	0.411173	0.258689
	H16	H	0.406192	0.736425	0.824990
	H17	H	0.609538	0.737158	0.139133
	H18	H	0.614013	0.295018	0.827703
	H19	H	0.403514	0.298042	0.139008
	H20	H	0.725925	0.859479	0.379285
	H21	H	0.728328	0.174472	0.586237
	H22	H	0.286904	0.862337	0.586552
	H23	H	0.286606	0.175968	0.376831
	H24	H	0.902301	0.361912	0.202662
	H25	H	0.114189	0.674205	0.204486
	H26	H	0.113418	0.360296	0.761346
	H27	H	0.907727	0.677206	0.764624
	H28	H	0.231655	0.911930	0.326570
	H29	H	0.228497	0.124131	0.636012
	H30	H	0.787206	0.121666	0.325865
	H31	H	0.788116	0.915604	0.637821
	H32	H	0.350140	0.239436	0.879555
	H33	H	0.665826	0.237063	0.083713
	H34	H	0.349298	0.799032	0.085415
	H35	H	0.664678	0.800633	0.880549
	H36	H	0.350354	0.913241	0.203528
	H37	H	0.665024	0.122247	0.201717
	H38	H	0.352037	0.126697	0.759240
	H39	H	0.662725	0.914866	0.761449
	H40	H	0.902556	0.239700	0.326255
	H41	H	0.109532	0.237846	0.637750
	H42	H	0.114914	0.794978	0.326998
	H43	H	0.906704	0.800399	0.639149
	H44	H	0.226683	0.359687	0.879821
	H45	H	0.229209	0.674687	0.087067
	H46	H	0.790925	0.359773	0.082185
	H47	H	0.793041	0.678022	0.882640
	H48	H	0.418742	0.131154	0.568929
	H49	H	0.593574	0.902988	0.581126
	H50	H	0.601914	0.133204	0.389365
	H51	H	0.421580	0.908170	0.395431
	H52	H	0.595618	0.423259	0.093777
	H53	H	0.604345	0.614003	0.867595
	H54	H	0.417625	0.606187	0.093637
	H55	H	0.420719	0.430801	0.872220
	H56	H	0.120978	0.606986	0.389715
	H57	H	0.895508	0.608753	0.571943
	H58	H	0.117183	0.434232	0.566908
	H59	H	0.895140	0.429513	0.393338
	H60	H	0.123166	0.429602	0.581917
	H61	H	0.895866	0.607061	0.576721
	H62	H	0.119859	0.607114	0.394340
	H63	H	0.896201	0.431331	0.392231
	H64	H	0.418822	0.608656	0.093235
	H65	H	0.601581	0.606234	0.870486
	H66	H	0.604321	0.429264	0.094674
	H67	H	0.419134	0.427147	0.871011
	H68	H	0.593831	0.130231	0.387291
	H69	H	0.588354	0.910182	0.565590
	H70	H	0.418245	0.131492	0.571385
	H71	H	0.416563	0.905944	0.393137
	H72	H	0.917046	0.632115	0.071978
	H73	H	0.095274	0.406877	0.068913
	H74	H	0.101932	0.631926	0.891783
	H75	H	0.921081	0.404636	0.886639
	H76	H	0.096994	0.923168	0.593877
	H77	H	0.091910	0.105507	0.372070
	H78	H	0.915592	0.111398	0.595094
	H79	H	0.913111	0.928152	0.368821
	H80	H	0.621330	0.110150	0.890751
	H81	H	0.394454	0.109529	0.070577
	H82	H	0.621228	0.922981	0.073852
	H83	H	0.392598	0.932388	0.887143
	H84	H	0.617097	0.930952	0.067282
	H85	H	0.396870	0.104953	0.071835
	H86	H	0.615992	0.106136	0.898832
	H87	H	0.391770	0.924105	0.892211
	H88	H	0.915341	0.104234	0.592643
	H89	H	0.096965	0.110846	0.369140
	H90	H	0.103061	0.930514	0.593514
	H91	H	0.919203	0.928369	0.371047
	H92	H	0.097112	0.631755	0.886794
	H93	H	0.094564	0.406463	0.071394
	H94	H	0.917013	0.632363	0.074401
	H95	H	0.919023	0.406144	0.894089
	H96	H	0.421182	0.131251	0.570632
	H97	H	0.604915	0.903833	0.567390
	H98	H	0.597293	0.128724	0.395275
	H99	H	0.421388	0.906466	0.389945
	H100	H	0.595043	0.433583	0.091142
	H101	H	0.595861	0.612637	0.870023
	H102	H	0.415564	0.608677	0.093394
	H103	H	0.416766	0.430531	0.871446
	H104	H	0.119007	0.603285	0.392077
	H105	H	0.893841	0.611536	0.576024
	H106	H	0.123120	0.418322	0.569396
	H107	H	0.894763	0.429736	0.390991
	H108	H	0.919370	0.631637	0.073325
	H109	H	0.092570	0.406902	0.069583
	H110	H	0.095295	0.629070	0.893089
	H111	H	0.913516	0.403136	0.889365
	H112	H	0.094616	0.931610	0.590227
	H113	H	0.099509	0.103286	0.369887
	H114	H	0.921456	0.108217	0.591751
	H115	H	0.917360	0.922897	0.368742
	H116	H	0.617562	0.100775	0.890293
	H117	H	0.394374	0.107605	0.075369
	H118	H	0.620031	0.933108	0.077446
	H119	H	0.396182	0.931913	0.896385
	C120	C	0.386322	0.028080	0.602811
	C121	C	0.628251	1.009454	0.603134
	C122	C	0.629082	0.026306	0.359953
	C123	C	0.386774	1.010485	0.360911
	C124	C	0.629632	0.396749	-0.009743
	C125	C	0.630487	0.641253	0.973188
	C126	C	0.386048	0.639518	-0.009746
	C127	C	0.386879	0.397516	0.974549
	C128	C	0.016326	0.638628	0.361047
	C129	C	1.000049	0.639536	0.603849
	C130	C	0.016081	0.397020	0.602966
	C131	C	0.998783	0.397174	0.360063
	C132	C	0.886010	0.527592	0.103804
	C133	C	0.127583	0.510140	0.102706
	C134	C	0.129418	0.526405	0.859988
	C135	C	0.887480	0.509956	0.860619
	C136	C	0.130494	0.896474	0.489779
	C137	C	0.128200	0.139504	0.472805
	C138	C	0.885312	0.139916	0.490440
	C139	C	0.886773	0.896430	0.473687
	C140	C	0.515473	0.139361	0.861353
	C141	C	0.499347	0.139130	0.103641
	C142	C	0.515393	0.897185	0.103788
	C143	C	0.498075	0.898249	0.861356
	C144	C	0.383016	0.910244	0.663190
	C145	C	0.632495	0.126697	0.663928
	C146	C	0.630045	0.907566	0.301691
	C147	C	0.383421	0.128172	0.300285
	C148	C	0.688618	0.395454	0.872787
	C149	C	0.687547	0.640491	0.091505
	C150	C	0.327526	0.640124	0.872762
	C151	C	0.326394	0.395363	0.091538
	C152	C	0.897994	0.698291	0.360700
	C153	C	0.119523	0.696528	0.602230
	C154	C	0.896250	0.340784	0.601673
	C155	C	0.116547	0.336576	0.357935
	C156	C	0.896934	0.398110	0.660204
	C157	C	0.119168	0.639804	0.660919
	C158	C	0.897955	0.641523	0.301927
	C159	C	0.116039	0.393321	0.299181
	C160	C	0.386446	0.697356	0.872210
	C161	C	0.629492	0.698369	0.091819
	C162	C	0.631884	0.336162	0.873715
	C163	C	0.384914	0.337928	0.091982
	C164	C	0.687291	0.907289	0.359740
	C165	C	0.688746	0.127101	0.604909
	C166	C	0.326310	0.909978	0.604824
	C167	C	0.326515	0.128707	0.358458
	C168	C	0.884089	0.408947	0.162529
	C169	C	0.131491	0.627635	0.163514
	C170	C	0.131185	0.407495	0.801526
	C171	C	0.888252	0.629578	0.803827
	C172	C	0.190919	0.894064	0.373113
	C173	C	0.188171	0.142128	0.589639
	C174	C	0.826546	0.140817	0.372836
	C175	C	0.828134	0.896351	0.591291
	C176	C	0.397492	0.199857	0.859863
	C177	C	0.618313	0.197766	0.103530
	C178	C	0.396707	0.838195	0.104646
	C179	C	0.617143	0.839822	0.861124
	C180	C	0.397313	0.895015	0.163253
	C181	C	0.617740	0.140643	0.162161
	C182	C	0.398533	0.143958	0.800155
	C183	C	0.616081	0.896235	0.801876
	C184	C	0.884114	0.199131	0.372807
	C185	C	0.129131	0.198706	0.590427
	C186	C	0.132771	0.836031	0.373034
	C187	C	0.886993	0.839118	0.591946
	C188	C	0.187871	0.407305	0.860087
	C189	C	0.188710	0.627854	0.105258
	C190	C	0.828741	0.407845	0.102822
	C191	C	0.831019	0.630091	0.862087
	C192	C	0.412232	0.110147	0.577590
	C193	C	0.602811	0.927219	0.578500
	C194	C	0.604755	0.109309	0.383725
	C195	C	0.412516	0.928399	0.385842
	C196	C	0.605198	0.421473	0.072136
	C197	C	0.607278	0.617854	0.890827
	C198	C	0.410415	0.615048	0.072155
	C199	C	0.411764	0.422429	0.892839
	C200	C	0.098528	0.613037	0.385050
	C201	C	0.916749	0.616121	0.581120
	C202	C	0.099526	0.420307	0.579440
	C203	C	0.916724	0.422939	0.385073
	C204	C	0.910691	0.610413	0.080028
	C205	C	0.101578	0.428060	0.077120
	C206	C	0.105166	0.609220	0.883675
	C207	C	0.911005	0.426531	0.883557
	C208	C	0.105351	0.921415	0.571253
	C209	C	0.103252	0.114011	0.391484
	C210	C	0.910123	0.115088	0.571917
	C211	C	0.910025	0.919736	0.391047
	C212	C	0.597238	0.113092	0.886305
	C213	C	0.416745	0.114528	0.079331
	C214	C	0.598043	0.921850	0.079551
	C215	C	0.415175	0.922442	0.885288
	Zn216	Zn	0.506687	0.018947	0.731741
	Zn217	Zn	0.507104	0.017765	0.232668
	Zn218	Zn	0.758736	0.518321	-0.018604
	Zn219	Zn	0.256771	0.518045	-0.017763
	Zn220	Zn	0.008589	0.767342	0.482320
	Zn221	Zn	0.007164	0.268929	0.481146
	Zn222	Zn	0.008799	0.518053	0.731939
	Zn223	Zn	0.007554	0.518459	0.231722
	Zn224	Zn	0.507165	0.768886	-0.017464
	Zn225	Zn	0.507566	0.267919	-0.017504
	Zn226	Zn	0.756686	0.017512	0.481988
	Zn227	Zn	0.258204	0.019324	0.481053
	N228	N	0.419654	0.984795	0.662102
	N229	N	0.595454	0.052517	0.662955
	N230	N	0.594723	0.982792	0.301619
	N231	N	0.420121	0.053599	0.301524
	N232	N	0.687515	0.432346	0.946465
	N233	N	0.688546	0.605939	0.016699
	N234	N	0.326960	0.605215	0.947388
	N235	N	0.327341	0.431515	0.017463
	N236	N	0.972655	0.696823	0.396494
	N237	N	0.044275	0.696775	0.567937
	N238	N	0.971498	0.339863	0.566972
	N239	N	0.042554	0.338863	0.395066
	N240	N	0.972779	0.431923	0.661343
	N241	N	0.043744	0.605193	0.662227
	N242	N	0.972718	0.605222	0.301819
	N243	N	0.041669	0.430108	0.300242
	N244	N	0.421845	0.697366	0.946473
	N245	N	0.594720	0.699108	0.017190
	N246	N	0.595803	0.336906	0.947762
	N247	N	0.421815	0.339117	0.018253
	N248	N	0.687070	0.982361	0.395118
	N249	N	0.685939	0.053232	0.567478
	N250	N	0.327994	0.984317	0.568006
	N251	N	0.328512	0.054513	0.395408
	N252	N	0.918851	0.484510	0.163545
	N253	N	0.094385	0.553301	0.161969
	N254	N	0.095984	0.482717	0.801031
	N255	N	0.922359	0.553813	0.802458
	N256	N	0.189524	0.930911	0.446641
	N257	N	0.187788	0.106141	0.515582
	N258	N	0.826816	0.104921	0.447022
	N259	N	0.827790	0.931214	0.516610
	N260	N	0.471436	0.197313	0.897083
	N261	N	0.543463	0.197197	0.068264
	N262	N	0.471291	0.839286	0.068426
	N263	N	0.542384	0.840464	0.897078
	N264	N	0.472156	0.930800	0.163034
	N265	N	0.542666	0.105098	0.162619
	N266	N	0.472909	0.107134	0.800926
	N267	N	0.541059	0.931734	0.801990
	N268	N	0.919872	0.198745	0.446938
	N269	N	0.092618	0.197465	0.516549
	N270	N	0.095752	0.837352	0.446601
	N271	N	0.922461	0.838832	0.517685
	N272	N	0.187063	0.482232	0.895787
	N273	N	0.186355	0.553734	0.067983
	N274	N	0.829627	0.482835	0.067206
	N275	N	0.830319	0.554566	0.896520
	O276	O	-0.036027	1.052136	0.030759
	H277	H	-0.023565	1.042447	0.051326
	H278	H	-0.035181	1.057618	0.023969
	O279	O	0.638945	0.644292	0.246446
	H280	H	0.631666	0.642177	0.226023
	H281	H	0.638507	0.629665	0.259267
	O282	O	0.532070	-0.385477	1.541768
	H283	H	0.543655	-0.379974	1.562244
	H284	H	0.550306	-0.391865	1.538197
	O285	O	0.606416	0.703899	0.507876
	H286	H	0.622446	0.720584	0.516676
	H287	H	0.601729	0.698883	0.526680
	O288	O	0.490704	0.497351	0.257373
	H289	H	0.479578	0.486038	0.253796
	H290	H	0.502871	0.470146	0.263056
	O291	O	0.598139	0.474634	0.683818
	H292	H	0.582192	0.448577	0.691926
	H293	H	0.607856	0.490369	0.684459
	O294	O	0.954521	0.121526	1.085239
	H295	H	0.942851	0.116562	1.093845
	H296	H	0.962685	0.132944	1.084571
	O297	O	0.720069	0.731403	0.694210
	H298	H	0.751104	0.763060	0.728231
	H299	H	0.695619	0.708522	0.700228
	O300	O	-0.359366	-0.311346	0.334410
	H301	H	-0.381916	-0.320086	0.331148
	H302	H	-0.353283	-0.318304	0.361538
	O303	O	-0.023475	0.238567	-0.240045
	H304	H	-0.042670	0.255883	-0.255247
	H305	H	-0.054819	0.240934	-0.248410
	O306	O	0.326567	0.704154	0.669796
	H307	H	0.336233	0.672575	0.657996
	H308	H	0.350196	0.699051	0.644629
	O309	O	0.359266	0.431614	0.584212
	H310	H	0.361955	0.419339	0.574908
	H311	H	0.348682	0.423163	0.593246
	O312	O	0.541162	0.297524	0.257568
	H313	H	0.551246	0.271418	0.243695
	H314	H	0.580633	0.291123	0.255979
	O315	O	1.184618	1.196533	1.004703
	H316	H	1.167610	1.186281	1.000574
	H317	H	1.207623	1.208013	0.993449
	O318	O	0.574889	0.294957	0.529415
	H319	H	0.588390	0.282661	0.531785
	H320	H	0.575195	0.299330	0.522782
	O321	O	0.028569	1.227119	1.197303
	H322	H	0.048494	1.237620	1.192926
	H323	H	0.046369	1.246164	1.197238
	O324	O	0.800930	1.104768	0.043563
	H325	H	0.803514	1.085049	0.038389
	H326	H	0.820443	1.086749	0.035734
	O327	O	-0.703387	0.496536	0.682427
	H328	H	-0.702879	0.472791	0.664130
	H329	H	-0.720842	0.494595	0.701031
	O330	O	-0.192945	-0.007279	1.208579
	H331	H	-0.208831	-0.002655	1.208463
	H332	H	-0.188484	0.007403	1.227859
	O333	O	0.281948	0.466384	0.420950
	H334	H	0.291264	0.489589	0.422056
	H335	H	0.273442	0.470238	0.425857
	O336	O	0.985313	-0.046326	0.006350
	H337	H	0.984958	-0.070374	0.006307
	H338	H	0.988590	-0.043126	0.007800
	O339	O	1.206657	0.219021	1.188118
	H340	H	1.209604	0.215560	1.148057
	H341	H	1.222611	0.235046	1.211063
	O342	O	-0.644808	-0.376674	0.530763
	H343	H	-0.640105	-0.368723	0.526978
	H344	H	-0.636100	-0.367842	0.526024
	O345	O	-0.098215	0.825957	0.937839
	H346	H	-0.100152	0.825655	0.948532
	H347	H	-0.095728	0.813558	0.920659
	O348	O	0.227535	0.053048	0.848218
	H349	H	0.227409	0.064898	0.843694
	H350	H	0.239352	0.034086	0.835332
	O351	O	0.364098	0.345725	0.518705
	H352	H	0.353750	0.347596	0.498248
	H353	H	0.368321	0.345514	0.500889
	O354	O	-0.274625	0.477520	0.261585
	H355	H	-0.256244	0.492428	0.263383
	H356	H	-0.271939	0.490324	0.258431
	O357	O	0.174471	-0.032580	-0.025660
	H358	H	0.165743	-0.037575	-0.026619
	H359	H	0.178290	-0.036158	-0.038958
	O360	O	-0.179652	0.208654	1.172965
	H361	H	-0.153038	0.191256	1.164791
	H362	H	-0.168291	0.192044	1.140968
	O363	O	-0.512088	0.676044	0.311840
	H364	H	-0.511075	0.671843	0.305223
	H365	H	-0.499728	0.658560	0.313431
	O366	O	0.547614	0.711254	0.649201
	H367	H	0.541688	0.702762	0.659082
	H368	H	0.550333	0.719847	0.654063
	O369	O	0.970142	0.037415	-0.203766
	H370	H	0.984549	0.027964	-0.215077
	H371	H	0.984670	0.040682	-0.196655
	O372	O	1.021534	1.122878	0.076112
	H373	H	1.019228	1.116988	0.063121
	H374	H	1.037938	1.118633	0.064895
	O375	O	1.116831	0.034079	0.015017
	H376	H	1.123999	0.024826	0.027607
	H377	H	1.131629	0.046253	0.007195
	O378	O	1.227504	-0.200939	-0.062738
	H379	H	1.225218	-0.207525	-0.054179
	H380	H	1.232951	-0.220537	-0.049479
	O381	O	-0.025002	0.800374	1.203265
	H382	H	-0.031833	0.803114	1.208064
	H383	H	-0.038082	0.782277	1.222540
	O384	O	0.795122	0.097844	0.776496
	H385	H	0.792087	0.111427	0.790866
	H386	H	0.786385	0.106881	0.758192
	O387	O	1.235329	0.816299	0.185630
	H388	H	1.227792	0.834887	0.179183
	H389	H	1.235072	0.801441	0.179892
	O390	O	0.112517	0.915975	1.197232
	H391	H	0.101166	0.933854	1.194327
	H392	H	0.109704	0.914585	1.194205
	O393	O	0.724357	0.563135	0.701018
	H394	H	0.744024	0.563210	0.720357
	H395	H	0.710980	0.569102	0.701584
	O396	O	0.216295	0.808798	0.768787
	H397	H	0.225971	0.817116	0.808604
	H398	H	0.250519	0.782992	0.741120
	O399	O	0.603095	-0.478229	1.499325
	H400	H	0.608719	-0.486701	1.499034
	H401	H	0.611391	-0.485620	1.504945
	O402	O	0.301258	0.311344	0.690977
	H403	H	0.308809	0.307252	0.651966
	H404	H	0.284049	0.307464	0.701485
	O405	O	1.050371	0.030162	0.761185
	H406	H	1.044847	0.021481	0.756169
	H407	H	1.062775	0.036109	0.758775
	O408	O	-0.181695	-0.165317	-0.204583
	H409	H	-0.143152	-0.163991	-0.187598
	H410	H	-0.184433	-0.126461	-0.189818
	O411	O	0.357874	0.721814	0.270655
	H412	H	0.351287	0.741533	0.251481
	H413	H	0.372214	0.714522	0.293649
	O414	O	0.716943	0.604766	0.380944
	H415	H	0.714453	0.613384	0.387454
	H416	H	0.714863	0.602812	0.403855
	O417	O	0.574143	0.441937	0.491420
	H418	H	0.587522	0.447743	0.495242
	H419	H	0.583480	0.447343	0.485619
	O420	O	0.303461	0.545506	0.274667
	H421	H	0.294720	0.549711	0.269588
	H422	H	0.318998	0.539962	0.271045
	O423	O	0.052092	0.235327	0.921819
	H424	H	0.047233	0.225633	0.910580
	H425	H	0.043846	0.237721	0.895810
	O426	O	1.056181	-0.041346	-0.097049
	H427	H	1.059478	-0.051364	-0.111009
	H428	H	1.043245	-0.038733	-0.102790
	O429	O	1.617419	0.718510	1.447593
	H430	H	1.621795	0.732434	1.453028
	H431	H	1.618509	0.725777	1.470071
	O432	O	0.433847	0.561799	0.706489
	H433	H	0.409607	0.549672	0.708159
	H434	H	0.448166	0.550308	0.709450
	O435	O	0.493763	1.651527	-0.554797
	H436	H	0.500180	1.637178	-0.571436
	H437	H	0.492339	1.656417	-0.545845
	O438	O	0.681572	0.334922	0.668822
	H439	H	0.652985	0.332373	0.653213
	H440	H	0.680345	0.351151	0.662958
	O441	O	-0.151021	0.220614	-0.152481
	H442	H	-0.161019	0.216186	-0.166998
	H443	H	-0.150855	0.215555	-0.128408
	O444	O	0.722617	0.334735	0.471328
	H445	H	0.738694	0.318819	0.457137
	H446	H	0.720791	0.332253	0.444097
	O447	O	0.325981	1.715122	1.488789
	H448	H	0.318880	1.730186	1.475565
	H449	H	0.323717	1.718184	1.472839
	O450	O	-0.162905	0.877555	1.052672
	H451	H	-0.179564	0.862295	1.065757
	H452	H	-0.155166	0.868860	1.081934
	O453	O	0.322445	0.338246	1.306286
	H454	H	0.327922	0.361603	1.316297
	H455	H	0.333401	0.344651	1.327956
	O456	O	-0.143714	-0.186773	1.153777
	H457	H	-0.153446	-0.160560	1.169067
	H458	H	-0.148564	-0.194134	1.177975
	O459	O	0.877428	0.994494	-0.122303
	H460	H	0.879920	0.979989	-0.130531
	H461	H	0.887240	0.999441	-0.119471
	O462	O	0.458649	0.302105	0.410499
	H463	H	0.471873	0.300555	0.410548
	H464	H	0.461974	0.298419	0.400929
	O465	O	1.217856	0.046904	0.191933
	H466	H	1.202759	0.058055	0.184745
	H467	H	1.244590	0.057130	0.214050
	O468	O	0.563371	0.498274	0.486122
	H469	H	0.564819	0.504265	0.482988
	H470	H	0.575965	0.496868	0.484056
	O471	O	0.714751	0.307596	0.273901
	H472	H	0.721618	0.354779	0.272672
	H473	H	0.749750	0.278137	0.240747
	O474	O	0.797693	0.178070	-0.048061
	H475	H	0.793663	0.166559	-0.031545
	H476	H	0.790097	0.173531	-0.047079
	O477	O	0.482270	0.300177	1.696713
	H478	H	0.467295	0.298841	1.692109
	H479	H	0.468368	0.282991	1.708948
	O480	O	0.046347	-0.201358	0.755820
	H481	H	0.058744	-0.222907	0.738453
	H482	H	0.084960	-0.207905	0.750801
	O483	O	0.011223	-0.057376	0.976991
	H484	H	0.006267	-0.061570	0.980692
	H485	H	0.011020	-0.059160	0.981413
	O486	O	1.189656	0.200392	0.792410
	H487	H	1.184426	0.186508	0.800187
	H488	H	1.184259	0.195200	0.796499
	O489	O	1.031088	0.800094	0.008711
	H490	H	1.025438	0.791866	0.029555
	H491	H	1.025988	0.797448	0.002382
