data_Molecule from HDF5

_cell_length_a		16.493994
_cell_length_b		16.522091
_cell_length_c		16.475054
_cell_angle_alpha	89.929374
_cell_angle_beta	90.018301
_cell_angle_gamma	90.046669
_symmetry_space_group_name_H-M	'P 1'
_symmetry_Int_Tables_number		1

loop_
	_symmetry_equiv_pos_as_xyz
	x,y,z

loop_
	_atom_site_label
	_atom_site_type_symbol
	_atom_site_fract_x
	_atom_site_fract_y
	_atom_site_fract_z
	H0	H	0.391262	0.849250	0.718733
	H1	H	0.600327	0.164565	0.720479
	H2	H	0.594237	0.848875	0.281229
	H3	H	0.387639	0.164690	0.274938
	H4	H	0.715470	0.402316	0.841491
	H5	H	0.716820	0.611133	0.155726
	H6	H	0.273818	0.609613	0.841684
	H7	H	0.271786	0.399142	0.157274
	H8	H	0.836339	0.725148	0.395621
	H9	H	0.152541	0.727342	0.602740
	H10	H	0.837496	0.285208	0.604086
	H11	H	0.151955	0.281657	0.389703
	H12	H	0.837528	0.401278	0.720038
	H13	H	0.152644	0.610159	0.719490
	H14	H	0.837026	0.609348	0.278838
	H15	H	0.152692	0.400175	0.276039
	H16	H	0.390045	0.727141	0.841921
	H17	H	0.599486	0.726409	0.156411
	H18	H	0.598274	0.286202	0.840769
	H19	H	0.386040	0.281402	0.156761
	H20	H	0.712628	0.849232	0.396222
	H21	H	0.717473	0.163940	0.605084
	H22	H	0.273798	0.849691	0.601486
	H23	H	0.271182	0.165668	0.390866
	H24	H	0.887830	0.350108	0.222836
	H25	H	0.101624	0.663228	0.220360
	H26	H	0.100883	0.348792	0.776119
	H27	H	0.890334	0.664105	0.777813
	H28	H	0.212438	0.906646	0.340606
	H29	H	0.216507	0.113528	0.656290
	H30	H	0.774003	0.110976	0.340740
	H31	H	0.774929	0.903694	0.659146
	H32	H	0.336498	0.227833	0.892176
	H33	H	0.651816	0.227172	0.103618
	H34	H	0.336122	0.785545	0.102982
	H35	H	0.653404	0.786000	0.895209
	H36	H	0.335018	0.903424	0.217978
	H37	H	0.652056	0.110094	0.218627
	H38	H	0.336413	0.110330	0.777517
	H39	H	0.653057	0.902629	0.778451
	H40	H	0.889023	0.228722	0.341398
	H41	H	0.099810	0.228566	0.656817
	H42	H	0.098145	0.787757	0.341414
	H43	H	0.890889	0.786854	0.658152
	H44	H	0.218439	0.349181	0.891205
	H45	H	0.217464	0.662612	0.103638
	H46	H	0.771293	0.350508	0.106601
	H47	H	0.773549	0.664146	0.893326
	H48	H	0.406737	0.116681	0.579257
	H49	H	0.587615	0.895212	0.584362
	H50	H	0.586407	0.121692	0.407596
	H51	H	0.406896	0.898145	0.412238
	H52	H	0.582768	0.412281	0.112789
	H53	H	0.579149	0.591343	0.888849
	H54	H	0.403942	0.594789	0.112571
	H55	H	0.410852	0.412421	0.888073
	H56	H	0.105587	0.591599	0.413257
	H57	H	0.879938	0.592835	0.596614
	H58	H	0.108750	0.415810	0.587662
	H59	H	0.884729	0.418736	0.410980
	H60	H	0.106181	0.418689	0.585036
	H61	H	0.878970	0.604775	0.588475
	H62	H	0.109737	0.596219	0.404274
	H63	H	0.884034	0.418897	0.411928
	H64	H	0.407239	0.593115	0.111195
	H65	H	0.581957	0.602806	0.883907
	H66	H	0.586164	0.421143	0.111589
	H67	H	0.400443	0.416553	0.885930
	H68	H	0.579944	0.119746	0.407362
	H69	H	0.586690	0.892335	0.593071
	H70	H	0.399790	0.122951	0.589990
	H71	H	0.399140	0.895451	0.411511
	H72	H	0.906853	0.615611	0.081727
	H73	H	0.078260	0.395268	0.087104
	H74	H	0.083062	0.616955	0.909768
	H75	H	0.904803	0.395003	0.913182
	H76	H	0.083082	0.918626	0.612514
	H77	H	0.086826	0.095556	0.385516
	H78	H	0.903944	0.103476	0.613792
	H79	H	0.900646	0.911322	0.384822
	H80	H	0.604497	0.092886	0.911210
	H81	H	0.384407	0.092554	0.081252
	H82	H	0.605028	0.915612	0.084459
	H83	H	0.383331	0.916377	0.913909
	H84	H	0.606335	0.921129	0.091021
	H85	H	0.381937	0.091413	0.090342
	H86	H	0.608450	0.096354	0.907290
	H87	H	0.382783	0.920369	0.905472
	H88	H	0.900627	0.086752	0.610517
	H89	H	0.080880	0.092308	0.387696
	H90	H	0.083824	0.916344	0.612778
	H91	H	0.899887	0.920276	0.386598
	H92	H	0.085190	0.617504	0.910723
	H93	H	0.084154	0.394674	0.083124
	H94	H	0.901625	0.620706	0.088849
	H95	H	0.902814	0.392346	0.909045
	H96	H	0.413236	0.117829	0.591967
	H97	H	0.579205	0.896247	0.589237
	H98	H	0.583626	0.119090	0.413399
	H99	H	0.404198	0.894945	0.405261
	H100	H	0.577644	0.419142	0.108970
	H101	H	0.590850	0.593932	0.883709
	H102	H	0.406927	0.596929	0.112325
	H103	H	0.408126	0.423003	0.889925
	H104	H	0.108852	0.602442	0.413291
	H105	H	0.884696	0.593098	0.583224
	H106	H	0.107179	0.419837	0.589598
	H107	H	0.885244	0.419027	0.411365
	H108	H	0.911243	0.617950	0.090893
	H109	H	0.084411	0.392707	0.089711
	H110	H	0.084855	0.618715	0.908306
	H111	H	0.907882	0.395198	0.908691
	H112	H	0.084783	0.918107	0.613576
	H113	H	0.080765	0.099812	0.386318
	H114	H	0.916488	0.093755	0.607367
	H115	H	0.907911	0.915637	0.387407
	H116	H	0.606225	0.099299	0.913021
	H117	H	0.379909	0.099281	0.085937
	H118	H	0.609017	0.912917	0.092112
	H119	H	0.379752	0.911852	0.906892
	C120	C	0.374156	0.015337	0.619150
	C121	C	0.616633	0.998604	0.620667
	C122	C	0.614551	0.015819	0.378071
	C123	C	0.371025	0.999608	0.376386
	C124	C	0.615195	0.385458	0.007188
	C125	C	0.615829	0.627361	0.989945
	C126	C	0.373857	0.626855	0.007761
	C127	C	0.372963	0.383953	0.991608
	C128	C	0.003540	0.628102	0.377759
	C129	C	0.986016	0.628204	0.620932
	C130	C	0.003574	0.385265	0.620122
	C131	C	0.987746	0.385454	0.377848
	C132	C	0.873695	0.514664	0.120297
	C133	C	0.115813	0.497646	0.119574
	C134	C	0.117212	0.513984	0.876861
	C135	C	0.873184	0.498061	0.877783
	C136	C	0.115204	0.887004	0.507810
	C137	C	0.115980	0.128856	0.490321
	C138	C	0.873829	0.127556	0.506623
	C139	C	0.872121	0.884884	0.491512
	C140	C	0.502513	0.128051	0.877306
	C141	C	0.485997	0.127427	0.119215
	C142	C	0.502350	0.884782	0.120595
	C143	C	0.486352	0.884592	0.877310
	C144	C	0.372307	0.896500	0.678683
	C145	C	0.618734	0.117162	0.680618
	C146	C	0.614261	0.896344	0.320086
	C147	C	0.369385	0.117836	0.315464
	C148	C	0.675677	0.383328	0.888801
	C149	C	0.676163	0.629439	0.108888
	C150	C	0.314048	0.628448	0.888796
	C151	C	0.312071	0.380976	0.109923
	C152	C	0.884175	0.686018	0.376865
	C153	C	0.105061	0.687604	0.622096
	C154	C	0.884857	0.325122	0.622164
	C155	C	0.105230	0.323131	0.373181
	C156	C	0.884848	0.382826	0.680095
	C157	C	0.105400	0.628998	0.679551
	C158	C	0.884573	0.628485	0.318591
	C159	C	0.105654	0.381922	0.316148
	C160	C	0.371685	0.686771	0.889037
	C161	C	0.618118	0.686766	0.108967
	C162	C	0.617186	0.325913	0.888365
	C163	C	0.368991	0.322323	0.109624
	C164	C	0.673240	0.896644	0.377087
	C165	C	0.676929	0.117065	0.623128
	C166	C	0.313802	0.896925	0.620857
	C167	C	0.311371	0.118225	0.373291
	C168	C	0.870406	0.397097	0.181853
	C169	C	0.119454	0.615925	0.180100
	C170	C	0.119503	0.395968	0.816242
	C171	C	0.871680	0.616794	0.817729
	C172	C	0.173644	0.886565	0.388282
	C173	C	0.176663	0.131764	0.608812
	C174	C	0.813757	0.129830	0.388233
	C175	C	0.813979	0.884761	0.611064
	C176	C	0.383868	0.187903	0.874168
	C177	C	0.604343	0.187412	0.121921
	C178	C	0.383609	0.825268	0.121786
	C179	C	0.605510	0.825344	0.876063
	C180	C	0.382967	0.883843	0.179106
	C181	C	0.604616	0.128728	0.178748
	C182	C	0.383910	0.129364	0.817042
	C183	C	0.605584	0.883608	0.818249
	C184	C	0.871059	0.188414	0.388655
	C185	C	0.118699	0.189111	0.609089
	C186	C	0.116814	0.827618	0.388806
	C187	C	0.871516	0.826382	0.610737
	C188	C	0.178220	0.396304	0.873383
	C189	C	0.176975	0.615723	0.122000
	C190	C	0.812227	0.397305	0.124009
	C191	C	0.813590	0.616715	0.875459
	C192	C	0.399352	0.097732	0.594214
	C193	C	0.591766	0.916100	0.595949
	C194	C	0.590316	0.098479	0.402408
	C195	C	0.396085	0.917581	0.402367
	C196	C	0.589558	0.410324	0.089652
	C197	C	0.591129	0.602748	0.906939
	C198	C	0.398626	0.601973	0.090552
	C199	C	0.398898	0.409841	0.909297
	C200	C	0.086429	0.603649	0.402929
	C201	C	0.902902	0.603965	0.596521
	C202	C	0.085901	0.410882	0.594811
	C203	C	0.905890	0.411358	0.403983
	C204	C	0.899363	0.596882	0.094327
	C205	C	0.089638	0.415666	0.093999
	C206	C	0.091678	0.596248	0.902285
	C207	C	0.898047	0.415632	0.902965
	C208	C	0.090812	0.910978	0.591037
	C209	C	0.090087	0.103169	0.407865
	C210	C	0.899610	0.101756	0.589200
	C211	C	0.896082	0.908819	0.407874
	C212	C	0.584841	0.103218	0.903013
	C213	C	0.403349	0.101805	0.093319
	C214	C	0.585299	0.909582	0.096405
	C215	C	0.403597	0.909058	0.901861
	Zn216	Zn	0.495021	0.006646	0.749219
	Zn217	Zn	0.493443	0.007052	0.248604
	Zn218	Zn	0.744248	0.506585	-0.001199
	Zn219	Zn	0.244987	0.505354	-0.000553
	Zn220	Zn	-0.005254	0.757315	0.499458
	Zn221	Zn	-0.004774	0.256870	0.498888
	Zn222	Zn	-0.005199	0.506120	0.749351
	Zn223	Zn	-0.004408	0.506293	0.248902
	Zn224	Zn	0.494692	0.755846	-0.000559
	Zn225	Zn	0.493933	0.256162	-0.001119
	Zn226	Zn	0.744151	0.007423	0.498982
	Zn227	Zn	0.243751	0.008331	0.498782
	N228	N	0.408918	0.971062	0.677954
	N229	N	0.582006	0.042480	0.679472
	N230	N	0.578737	0.971403	0.320270
	N231	N	0.405637	0.043009	0.316946
	N232	N	0.674587	0.419499	0.963689
	N233	N	0.674808	0.593108	0.033814
	N234	N	0.315360	0.591865	0.963642
	N235	N	0.314214	0.418395	0.035482
	N236	N	0.959334	0.686165	0.412813
	N237	N	0.029781	0.687317	0.586518
	N238	N	0.959763	0.326560	0.585602
	N239	N	0.030986	0.325269	0.410840
	N240	N	0.959559	0.419467	0.679069
	N241	N	0.030261	0.593131	0.679221
	N242	N	0.960129	0.593443	0.318734
	N243	N	0.031705	0.420113	0.319119
	N244	N	0.407975	0.685859	0.963939
	N245	N	0.581503	0.685672	0.034146
	N246	N	0.580627	0.326723	0.963267
	N247	N	0.406094	0.324170	0.034954
	N248	N	0.673443	0.971841	0.412568
	N249	N	0.675855	0.042330	0.586877
	N250	N	0.314801	0.971872	0.584689
	N251	N	0.312293	0.043811	0.410506
	N252	N	0.907893	0.471132	0.179597
	N253	N	0.082248	0.541548	0.178773
	N254	N	0.082374	0.470267	0.818205
	N255	N	0.907971	0.541961	0.818971
	N256	N	0.172479	0.922834	0.463193
	N257	N	0.175161	0.095330	0.533800
	N258	N	0.815322	0.092831	0.462954
	N259	N	0.814125	0.920320	0.535515
	N260	N	0.458594	0.187301	0.910962
	N261	N	0.529382	0.186443	0.085541
	N262	N	0.458810	0.825736	0.086185
	N263	N	0.530368	0.825821	0.912108
	N264	N	0.457952	0.920107	0.178528
	N265	N	0.529687	0.092363	0.177268
	N266	N	0.458759	0.093128	0.818767
	N267	N	0.530555	0.919536	0.818689
	N268	N	0.907733	0.187022	0.463444
	N269	N	0.081965	0.187540	0.534282
	N270	N	0.081268	0.827602	0.464270
	N271	N	0.906699	0.826156	0.535285
	N272	N	0.177212	0.470850	0.910029
	N273	N	0.174991	0.541053	0.085300
	N274	N	0.814072	0.471606	0.086483
	N275	N	0.814517	0.542051	0.912150
	O276	O	0.765011	0.336440	0.257714
	H277	H	0.764100	0.324803	0.256505
	H278	H	0.768622	0.339104	0.250773
	O279	O	0.561769	0.608717	0.510380
	H280	H	0.562530	0.585989	0.499447
	H281	H	0.569223	0.618296	0.513051
	O282	O	0.780806	0.797186	0.209357
	H283	H	0.775806	0.808312	0.219352
	H284	H	0.780789	0.787839	0.191960
	O285	O	0.516056	0.317133	0.289272
	H286	H	0.500694	0.303375	0.272295
	H287	H	0.496137	0.329504	0.277845
	O288	O	0.124088	0.153213	0.093724
	H289	H	0.142114	0.160052	0.097592
	H290	H	0.105255	0.130463	0.090367
	O291	O	0.962237	0.788321	0.212482
	H292	H	0.946826	0.784782	0.212242
	H293	H	0.955406	0.773672	0.226127
	O294	O	0.169527	0.958555	0.018568
	H295	H	0.166601	0.968395	0.036696
	H296	H	0.171364	0.945283	0.020114
	O297	O	0.555644	0.574744	0.336049
	H298	H	0.539154	0.568860	0.347357
	H299	H	0.556682	0.589747	0.333412
	O300	O	0.575063	0.489099	0.626830
	H301	H	0.577197	0.476880	0.632625
	H302	H	0.576600	0.464255	0.629916
	O303	O	0.315191	0.348963	0.693271
	H304	H	0.301073	0.388004	0.698890
	H305	H	0.292698	0.337281	0.676425
	O306	O	0.014194	0.834976	1.058106
	H307	H	0.004133	0.837524	1.041202
	H308	H	0.017103	0.847940	1.062601
	O309	O	0.716173	0.722799	0.529570
	H310	H	0.724581	0.726264	0.560107
	H311	H	0.731210	0.735895	0.555661
	O312	O	0.350561	0.704388	0.646608
	H313	H	0.356578	0.688583	0.635051
	H314	H	0.369119	0.692733	0.630454
	O315	O	0.098993	0.092644	1.182068
	H316	H	0.108341	0.073419	1.195514
	H317	H	0.086424	0.108067	1.188122
	O318	O	0.026487	0.789162	0.023881
	H319	H	0.017064	0.785689	0.022091
	H320	H	0.023973	0.793177	0.018211
	O321	O	0.413881	0.677158	0.523937
	H322	H	0.414629	0.677398	0.514330
	H323	H	0.417797	0.673061	0.509298
	O324	O	0.794392	0.206202	0.807931
	H325	H	0.803259	0.218982	0.823998
	H326	H	0.782755	0.198251	0.798453
	O327	O	0.974865	0.026841	0.861381
	H328	H	0.967999	0.009639	0.866871
	H329	H	0.977495	0.036862	0.857316
	O330	O	0.858365	-0.081608	0.020031
	H331	H	0.862984	-0.089133	0.020458
	H332	H	0.855212	-0.085709	0.023212
	O333	O	0.807905	0.833247	0.941628
	H334	H	0.814288	0.831114	0.944805
	H335	H	0.794793	0.822895	0.955250
	O336	O	0.825508	0.160622	0.983133
	H337	H	0.819104	0.158272	0.980839
	H338	H	0.816956	0.163511	0.966433
	O339	O	0.287611	0.297615	0.548575
	H340	H	0.280420	0.286530	0.531587
	H341	H	0.282501	0.287491	0.559277
	O342	O	0.587038	0.307160	0.596998
	H343	H	0.592899	0.311252	0.588825
	H344	H	0.582903	0.321246	0.592800
	O345	O	0.057586	0.139453	0.068485
	H346	H	0.049639	0.127902	0.064497
	H347	H	0.051663	0.144990	0.057468
	O348	O	0.956521	0.136763	0.787170
	H349	H	0.948715	0.140553	0.781911
	H350	H	0.944094	0.149311	0.785046
	O351	O	1.075974	0.938089	-0.039998
	H352	H	1.066816	0.933918	-0.047708
	H353	H	1.080029	0.950829	-0.029748
	O354	O	0.541623	0.351210	0.440481
	H355	H	0.535226	0.344835	0.442807
	H356	H	0.554321	0.348743	0.446670
	O357	O	0.795293	0.943099	0.935954
	H358	H	0.784217	0.943418	0.944188
	H359	H	0.793412	0.958763	0.924886
	O360	O	0.639932	0.292808	0.512612
	H361	H	0.653334	0.279014	0.499111
	H362	H	0.630545	0.293209	0.497367
	O363	O	0.659589	0.548540	0.469711
	H364	H	0.654930	0.556756	0.471518
	H365	H	0.667242	0.564136	0.470392
	O366	O	0.875180	0.092533	0.974178
	H367	H	0.857767	0.117789	0.956183
	H368	H	0.865442	0.103515	0.977549
	O369	O	0.287867	0.534196	0.287867
	H370	H	0.269508	0.539286	0.269380
	H371	H	0.289378	0.574728	0.290697
	O372	O	0.472017	0.292111	0.709290
	H373	H	0.472385	0.268552	0.741840
	H374	H	0.420177	0.298958	0.704517
	O375	O	0.196163	0.970602	0.789069
	H376	H	0.194654	0.983569	0.780399
	H377	H	0.203482	0.967900	0.786180
	O378	O	0.731416	0.232376	0.160616
	H379	H	0.719188	0.241120	0.178397
	H380	H	0.719426	0.222465	0.140697
	O381	O	1.068772	-0.036417	0.186759
	H382	H	1.058368	-0.022770	0.172459
	H383	H	1.055703	-0.046683	0.174192
	O384	O	0.046496	0.200877	0.919917
	H385	H	0.052010	0.212193	0.932090
	H386	H	0.043014	0.204467	0.943036
	O387	O	0.024512	0.788396	0.783547
	H388	H	0.055492	0.798276	0.796456
	H389	H	0.026019	0.757724	0.750336
	O390	O	0.014392	0.182431	0.993989
	H391	H	0.027408	0.177768	1.008007
	H392	H	0.019473	0.184704	1.003975
	O393	O	0.816572	0.968206	-0.103520
	H394	H	0.830708	0.963952	-0.111340
	H395	H	0.821682	0.953255	-0.114054
	O396	O	0.682205	0.580668	0.328338
	H397	H	0.670610	0.586523	0.347727
	H398	H	0.676349	0.585860	0.325647
	O399	O	0.416549	0.573839	0.712894
	H400	H	0.433439	0.561954	0.706984
	H401	H	0.418084	0.576369	0.715096
	O402	O	0.152717	0.161813	0.888143
	H403	H	0.148807	0.152551	0.893879
	H404	H	0.146297	0.149700	0.884361
	O405	O	0.182683	0.118143	0.104636
	H406	H	0.186397	0.130691	0.095097
	H407	H	0.174208	0.090839	0.103562
	O408	O	0.683786	0.693598	0.690503
	H409	H	0.652928	0.703447	0.707332
	H410	H	0.673795	0.661244	0.701666
	O411	O	0.288120	0.488347	0.688397
	H412	H	0.267199	0.485538	0.717001
	H413	H	0.310503	0.506721	0.678301
	O414	O	0.342667	0.706899	0.294530
	H415	H	0.355239	0.714025	0.323514
	H416	H	0.331975	0.731291	0.276577
	O417	O	0.273485	0.545576	0.539599
	H418	H	0.274278	0.530049	0.533301
	H419	H	0.274078	0.532061	0.532462
	O420	O	0.544028	0.638462	0.342252
	H421	H	0.542105	0.642788	0.357316
	H422	H	0.559356	0.650253	0.348156
	O423	O	0.021111	0.975205	0.070558
	H424	H	0.013516	0.974440	0.069760
	H425	H	0.012628	0.975094	0.052187
	O426	O	1.093689	0.986372	1.110834
	H427	H	1.092150	0.983375	1.091338
	H428	H	1.091153	0.979914	1.128171
	O429	O	0.485085	0.640071	0.283676
	H430	H	0.488632	0.653622	0.267863
	H431	H	0.464322	0.631286	0.287785
	O432	O	0.371742	0.392092	0.346305
	H433	H	0.355466	0.393690	0.356911
	H434	H	0.381695	0.413045	0.338440
	O435	O	0.276273	-0.270287	0.404902
	H436	H	0.271430	-0.284044	0.415969
	H437	H	0.276905	-0.262186	0.408238
	O438	O	0.858468	0.018609	0.188066
	H439	H	0.850161	0.018929	0.180034
	H440	H	0.857501	0.019480	0.181777
	O441	O	0.517045	0.349912	0.498033
	H442	H	0.516552	0.352211	0.500848
	H443	H	0.516350	0.340737	0.496921
	O444	O	0.198014	0.804490	0.793843
	H445	H	0.214125	0.807063	0.774507
	H446	H	0.200972	0.810640	0.813387
	O447	O	0.519874	0.712975	0.707698
	H448	H	0.511700	0.720261	0.723453
	H449	H	0.498664	0.719312	0.686610
	O450	O	0.346334	0.463281	0.445920
	H451	H	0.353814	0.459827	0.436927
	H452	H	0.343699	0.443831	0.434532
	O453	O	0.690056	0.437140	0.518034
	H454	H	0.687637	0.443940	0.518244
	H455	H	0.694165	0.458472	0.503514
	O456	O	0.997007	0.103335	0.000584
	H457	H	0.990840	0.113433	0.015271
	H458	H	1.005988	0.106238	0.005850
	O459	O	0.609724	0.520080	0.518703
	H460	H	0.608759	0.522612	0.503534
	H461	H	0.609516	0.523690	0.513957
	O462	O	0.568788	0.454866	0.673988
	H463	H	0.565428	0.448789	0.656085
	H464	H	0.578655	0.435166	0.678736
	O465	O	1.100508	-0.135568	-0.000286
	H466	H	1.119736	-0.135901	0.004794
	H467	H	1.080602	-0.140054	-0.000789
