data_Molecule from HDF5

_cell_length_a		16.097174
_cell_length_b		16.448235
_cell_length_c		16.221458
_cell_angle_alpha	90.456695
_cell_angle_beta	89.949772
_cell_angle_gamma	90.591465
_symmetry_space_group_name_H-M	'P 1'
_symmetry_Int_Tables_number		1

loop_
	_symmetry_equiv_pos_as_xyz
	x,y,z

loop_
	_atom_site_label
	_atom_site_type_symbol
	_atom_site_fract_x
	_atom_site_fract_y
	_atom_site_fract_z
	H0	H	0.394915	0.835405	0.719314
	H1	H	0.604212	0.157202	0.720840
	H2	H	0.596988	0.834844	0.284114
	H3	H	0.400845	0.158332	0.288501
	H4	H	0.712149	0.399760	0.840034
	H5	H	0.714291	0.597048	0.169357
	H6	H	0.286697	0.592566	0.841457
	H7	H	0.285510	0.398821	0.169269
	H8	H	0.836506	0.711070	0.400481
	H9	H	0.162863	0.717049	0.608452
	H10	H	0.836538	0.277661	0.605442
	H11	H	0.164609	0.280823	0.401249
	H12	H	0.834026	0.396648	0.716514
	H13	H	0.163825	0.599560	0.721942
	H14	H	0.834665	0.589756	0.291695
	H15	H	0.164860	0.395529	0.287492
	H16	H	0.397656	0.712567	0.842227
	H17	H	0.604532	0.718638	0.166817
	H18	H	0.605733	0.277762	0.842823
	H19	H	0.396805	0.279021	0.167288
	H20	H	0.713548	0.832517	0.400827
	H21	H	0.718445	0.157119	0.602604
	H22	H	0.280577	0.834952	0.602632
	H23	H	0.286124	0.158925	0.405726
	H24	H	0.898205	0.334050	0.219298
	H25	H	0.103163	0.656830	0.224013
	H26	H	0.098840	0.335489	0.785201
	H27	H	0.897761	0.657519	0.788245
	H28	H	0.211939	0.898933	0.338676
	H29	H	0.215304	0.098040	0.667641
	H30	H	0.789936	0.088889	0.337408
	H31	H	0.784202	0.896863	0.666959
	H32	H	0.337359	0.212628	0.900267
	H33	H	0.664703	0.215664	0.106640
	H34	H	0.337509	0.779487	0.106305
	H35	H	0.664538	0.780507	0.899612
	H36	H	0.334760	0.898329	0.214931
	H37	H	0.665301	0.098744	0.219569
	H38	H	0.335749	0.093548	0.788272
	H39	H	0.665210	0.897944	0.786526
	H40	H	0.897755	0.212266	0.340837
	H41	H	0.104940	0.217747	0.665239
	H42	H	0.104583	0.775782	0.342475
	H43	H	0.894588	0.778368	0.666020
	H44	H	0.214816	0.334991	0.903150
	H45	H	0.218014	0.658387	0.107374
	H46	H	0.780082	0.334952	0.104198
	H47	H	0.786611	0.659322	0.907265
	H48	H	0.409975	0.112095	0.596555
	H49	H	0.589806	0.883603	0.587821
	H50	H	0.603733	0.113264	0.409644
	H51	H	0.406228	0.881180	0.407074
	H52	H	0.590028	0.402530	0.123260
	H53	H	0.600621	0.588847	0.885307
	H54	H	0.414352	0.587995	0.120680
	H55	H	0.414096	0.405607	0.891272
	H56	H	0.116907	0.588840	0.420023
	H57	H	0.880207	0.592860	0.597050
	H58	H	0.116875	0.409238	0.595939
	H59	H	0.881931	0.400883	0.412085
	H60	H	0.118336	0.405670	0.595470
	H61	H	0.884561	0.586936	0.590162
	H62	H	0.116093	0.584805	0.414146
	H63	H	0.882965	0.401477	0.415022
	H64	H	0.411930	0.595819	0.122809
	H65	H	0.586962	0.583628	0.891480
	H66	H	0.592511	0.407290	0.121894
	H67	H	0.411448	0.398775	0.887335
	H68	H	0.589771	0.111627	0.405386
	H69	H	0.596946	0.877764	0.595746
	H70	H	0.411036	0.109662	0.595670
	H71	H	0.406040	0.882118	0.409454
	H72	H	0.905352	0.612629	0.101397
	H73	H	0.090152	0.380859	0.098447
	H74	H	0.092871	0.610017	0.918975
	H75	H	0.902367	0.382571	0.915967
	H76	H	0.092151	0.901407	0.622305
	H77	H	0.092644	0.095584	0.384211
	H78	H	0.912815	0.096733	0.620612
	H79	H	0.904326	0.902042	0.385372
	H80	H	0.618415	0.086100	0.908150
	H81	H	0.386314	0.081224	0.090948
	H82	H	0.617437	0.904280	0.087599
	H83	H	0.381094	0.897923	0.910394
	H84	H	0.616164	0.915385	0.092585
	H85	H	0.379240	0.088558	0.104127
	H86	H	0.618846	0.094185	0.913635
	H87	H	0.385447	0.903232	0.918612
	H88	H	0.902537	0.086876	0.622199
	H89	H	0.097088	0.085001	0.386929
	H90	H	0.091707	0.912152	0.618593
	H91	H	0.913102	0.902846	0.388817
	H92	H	0.097091	0.613310	0.910688
	H93	H	0.088391	0.382626	0.093271
	H94	H	0.912653	0.611693	0.101948
	H95	H	0.903522	0.378881	0.903734
	H96	H	0.408927	0.110802	0.595387
	H97	H	0.585454	0.880619	0.599537
	H98	H	0.593303	0.107745	0.418599
	H99	H	0.403971	0.881454	0.407457
	H100	H	0.587287	0.405840	0.120027
	H101	H	0.588592	0.598414	0.887228
	H102	H	0.406775	0.589668	0.123354
	H103	H	0.405684	0.404453	0.887262
	H104	H	0.118913	0.590806	0.413031
	H105	H	0.882836	0.583955	0.599379
	H106	H	0.115888	0.406806	0.592882
	H107	H	0.884072	0.403857	0.413552
	H108	H	0.908457	0.610466	0.094927
	H109	H	0.094156	0.380862	0.094213
	H110	H	0.087881	0.610152	0.911296
	H111	H	0.912409	0.383693	0.910988
	H112	H	0.083200	0.905199	0.618610
	H113	H	0.086097	0.087330	0.389290
	H114	H	0.915428	0.083762	0.616959
	H115	H	0.910676	0.894926	0.385120
	H116	H	0.615517	0.086576	0.917816
	H117	H	0.382364	0.096892	0.090432
	H118	H	0.620785	0.905614	0.098721
	H119	H	0.384335	0.907851	0.908806
	C120	C	0.377792	0.004588	0.625220
	C121	C	0.622506	0.987260	0.624639
	C122	C	0.622893	0.003929	0.380403
	C123	C	0.377479	0.988407	0.380865
	C124	C	0.620714	0.375846	0.013425
	C125	C	0.622271	0.620210	0.996127
	C126	C	0.380448	0.618291	0.014034
	C127	C	0.379074	0.374265	0.996401
	C128	C	0.008633	0.616013	0.384727
	C129	C	0.990851	0.618428	0.626103
	C130	C	0.008276	0.376273	0.624487
	C131	C	0.991754	0.373845	0.382840
	C132	C	0.877974	0.504589	0.127284
	C133	C	0.122460	0.487835	0.126827
	C134	C	0.121616	0.504782	0.882608
	C135	C	0.877330	0.488359	0.882346
	C136	C	0.119908	0.875880	0.512096
	C137	C	0.122570	0.119592	0.494882
	C138	C	0.880773	0.116379	0.511476
	C139	C	0.877932	0.871745	0.494237
	C140	C	0.509189	0.117841	0.882613
	C141	C	0.491665	0.119062	0.125360
	C142	C	0.509324	0.877673	0.122897
	C143	C	0.492168	0.874490	0.881895
	C144	C	0.376252	0.883432	0.681251
	C145	C	0.623109	0.108723	0.682447
	C146	C	0.618772	0.882696	0.322805
	C147	C	0.380430	0.110060	0.326135
	C148	C	0.676051	0.378376	0.889871
	C149	C	0.677654	0.618143	0.119662
	C150	C	0.324170	0.614100	0.890464
	C151	C	0.322767	0.377433	0.119695
	C152	C	0.885243	0.671970	0.383015
	C153	C	0.113955	0.677339	0.627470
	C154	C	0.885293	0.317428	0.624375
	C155	C	0.115281	0.318408	0.382176
	C156	C	0.883977	0.376685	0.679620
	C157	C	0.114549	0.618864	0.683508
	C158	C	0.884498	0.612066	0.328500
	C159	C	0.115541	0.375947	0.325916
	C160	C	0.379665	0.673492	0.890980
	C161	C	0.623481	0.678901	0.118374
	C162	C	0.622658	0.317835	0.891167
	C163	C	0.378237	0.317833	0.118654
	C164	C	0.676754	0.881667	0.380906
	C165	C	0.680156	0.108854	0.623357
	C166	C	0.319144	0.883293	0.623067
	C167	C	0.323184	0.110343	0.384379
	C168	C	0.878333	0.382633	0.181500
	C169	C	0.122883	0.608759	0.185319
	C170	C	0.119099	0.383703	0.824520
	C171	C	0.878618	0.609561	0.826655
	C172	C	0.175322	0.877777	0.388479
	C173	C	0.178175	0.118328	0.618189
	C174	C	0.826328	0.111332	0.387183
	C175	C	0.821302	0.875555	0.617643
	C176	C	0.386216	0.174275	0.881970
	C177	C	0.615532	0.176802	0.125799
	C178	C	0.385859	0.819535	0.123954
	C179	C	0.615446	0.818886	0.881254
	C180	C	0.384682	0.878731	0.178155
	C181	C	0.615660	0.118448	0.181946
	C182	C	0.385210	0.114840	0.826395
	C183	C	0.615856	0.877403	0.824783
	C184	C	0.880145	0.172595	0.388876
	C185	C	0.123431	0.178151	0.617018
	C186	C	0.121901	0.816465	0.390444
	C187	C	0.876411	0.816658	0.617152
	C188	C	0.176719	0.383327	0.883418
	C189	C	0.179815	0.609632	0.127106
	C190	C	0.819614	0.383155	0.124284
	C191	C	0.823280	0.610374	0.886029
	C192	C	0.402765	0.088853	0.602622
	C193	C	0.597999	0.902483	0.601204
	C194	C	0.601783	0.088949	0.404076
	C195	C	0.398986	0.903757	0.401763
	C196	C	0.596752	0.398606	0.099380
	C197	C	0.598870	0.597025	0.910323
	C198	C	0.403955	0.597410	0.099946
	C199	C	0.403147	0.396438	0.910680
	C200	C	0.094914	0.594593	0.408820
	C201	C	0.904852	0.594649	0.602380
	C202	C	0.094643	0.400301	0.601293
	C203	C	0.905337	0.395763	0.406540
	C204	C	0.901810	0.589399	0.105882
	C205	C	0.098095	0.403387	0.102429
	C206	C	0.099172	0.589304	0.906616
	C207	C	0.899471	0.403699	0.903931
	C208	C	0.096006	0.899480	0.597658
	C209	C	0.099005	0.096135	0.408985
	C210	C	0.903622	0.095237	0.597461
	C211	C	0.902178	0.893609	0.408674
	C212	C	0.595373	0.095460	0.906187
	C213	C	0.405289	0.095820	0.102046
	C214	C	0.595781	0.901402	0.099518
	C215	C	0.405891	0.896476	0.905608
	Zn216	Zn	0.499929	-0.003900	0.753952
	Zn217	Zn	0.499846	-0.003398	0.251540
	Zn218	Zn	0.748622	0.497311	0.004450
	Zn219	Zn	0.251962	0.496827	0.005474
	Zn220	Zn	-0.000254	0.745538	0.504237
	Zn221	Zn	0.000586	0.246861	0.503472
	Zn222	Zn	-0.001306	0.496977	0.753165
	Zn223	Zn	0.001016	0.495439	0.256354
	Zn224	Zn	0.500968	0.747994	0.004910
	Zn225	Zn	0.500719	0.246465	0.004284
	Zn226	Zn	0.752145	-0.005417	0.502286
	Zn227	Zn	0.248675	-0.003455	0.503375
	N228	N	0.412044	0.959959	0.682855
	N229	N	0.588050	0.031963	0.683398
	N230	N	0.586338	0.959657	0.322327
	N231	N	0.413611	0.033476	0.323761
	N232	N	0.674941	0.413863	0.966959
	N233	N	0.677286	0.582558	0.042534
	N234	N	0.324670	0.580418	0.967887
	N235	N	0.323165	0.411661	0.042468
	N236	N	0.963398	0.674409	0.417437
	N237	N	0.036239	0.677203	0.592345
	N238	N	0.963866	0.316840	0.591003
	N239	N	0.037231	0.317080	0.417012
	N240	N	0.961591	0.412596	0.679917
	N241	N	0.036982	0.583108	0.682947
	N242	N	0.962195	0.578171	0.329305
	N243	N	0.037609	0.409590	0.326040
	N244	N	0.414016	0.676123	0.968706
	N245	N	0.590002	0.680371	0.040395
	N246	N	0.589069	0.315886	0.969263
	N247	N	0.412436	0.315549	0.040809
	N248	N	0.679319	0.958039	0.416113
	N249	N	0.680018	0.032461	0.588424
	N250	N	0.319801	0.959660	0.589159
	N251	N	0.320969	0.033760	0.417591
	N252	N	0.914129	0.459111	0.183537
	N253	N	0.088163	0.531968	0.185350
	N254	N	0.085749	0.460315	0.823833
	N255	N	0.911555	0.532764	0.824292
	N256	N	0.174241	0.914105	0.465125
	N257	N	0.177683	0.082637	0.541089
	N258	N	0.826621	0.076915	0.464384
	N259	N	0.821956	0.908993	0.540095
	N260	N	0.464531	0.176237	0.916293
	N261	N	0.537502	0.177351	0.091445
	N262	N	0.464310	0.819037	0.090306
	N263	N	0.537333	0.816846	0.916016
	N264	N	0.462548	0.914249	0.177633
	N265	N	0.537538	0.083320	0.181951
	N266	N	0.462707	0.080678	0.826643
	N267	N	0.538089	0.911244	0.825079
	N268	N	0.913388	0.175772	0.466931
	N269	N	0.089701	0.179233	0.539121
	N270	N	0.087992	0.815357	0.468300
	N271	N	0.910783	0.814048	0.539469
	N272	N	0.178650	0.459658	0.918776
	N273	N	0.179688	0.533420	0.091412
	N274	N	0.819177	0.459854	0.091231
	N275	N	0.822009	0.533976	0.919893
	O276	O	1.083674	0.031127	1.003761
	H277	H	1.082024	0.031026	1.013520
	H278	H	1.082610	0.021388	0.999389
	O279	O	0.443759	0.434188	0.556273
	H280	H	0.443851	0.428389	0.554764
	H281	H	0.439439	0.420951	0.561242
	O282	O	0.574699	0.396780	0.460254
	H283	H	0.581286	0.404017	0.467381
	H284	H	0.576912	0.399581	0.463184
	O285	O	0.543370	0.441886	0.480526
	H286	H	0.540302	0.448136	0.489229
	H287	H	0.542888	0.453485	0.486485
	O288	O	0.575790	0.400941	0.447415
	H289	H	0.576969	0.394469	0.441154
	H290	H	0.571079	0.390961	0.436605
	O291	O	0.014962	0.035736	1.101334
	H292	H	0.015321	0.024841	1.090000
	H293	H	0.009960	0.045602	1.089817
	O294	O	0.962583	0.897295	0.006504
	H295	H	0.966030	0.890900	0.007902
	H296	H	0.948483	0.901911	0.009339
	O297	O	0.999544	1.145833	-0.071425
	H298	H	1.003214	1.141173	-0.066052
	H299	H	0.999401	1.146889	-0.070932
	O300	O	0.545262	0.484573	0.546711
	H301	H	0.546529	0.474885	0.543788
	H302	H	0.555808	0.492601	0.544930
	O303	O	0.535426	0.426831	0.397259
	H304	H	0.552166	0.424528	0.395071
	H305	H	0.525659	0.442069	0.396524
	O306	O	0.618967	0.600874	0.524986
	H307	H	0.615035	0.597568	0.517955
	H308	H	0.629611	0.585820	0.520558
	O309	O	0.396196	0.415334	0.591345
	H310	H	0.394568	0.410883	0.578150
	H311	H	0.395385	0.417468	0.594335
	O312	O	0.978679	0.995977	0.887122
	H313	H	0.980658	0.998798	0.877368
	H314	H	0.992450	1.003165	0.890011
	O315	O	1.067744	0.924091	0.052046
	H316	H	1.057354	0.914806	0.052671
	H317	H	1.072208	0.920646	0.045279
	O318	O	0.474708	0.545547	0.480283
	H319	H	0.477308	0.546747	0.491652
	H320	H	0.458393	0.553458	0.490393
	O321	O	0.427067	0.427685	0.492737
	H322	H	0.441551	0.434948	0.478421
	H323	H	0.419292	0.416984	0.479616
	O324	O	-0.010392	1.078286	1.110622
	H325	H	-0.015998	1.069659	1.123723
	H326	H	-0.029583	1.085105	1.118680
	O327	O	0.018434	1.106712	1.008380
	H328	H	0.018420	1.112483	1.005193
	H329	H	0.020155	1.101034	1.011154
	O330	O	0.115327	0.079424	0.097880
	H331	H	0.111281	0.086434	0.116093
	H332	H	0.116075	0.067847	0.107720
	O333	O	0.471595	0.601153	0.482659
	H334	H	0.487325	0.603434	0.485613
	H335	H	0.464677	0.593735	0.502304
	O336	O	0.064693	-0.020909	0.121420
	H337	H	0.056054	-0.018195	0.116358
	H338	H	0.068376	-0.017432	0.123531
	O339	O	0.070256	-0.026616	-0.114520
	H340	H	0.068895	-0.028635	-0.110840
	H341	H	0.081784	-0.010112	-0.112381
	O342	O	-0.008993	1.045547	-0.056376
	H343	H	-0.010448	1.058703	-0.062514
	H344	H	-0.007926	1.043231	-0.060676
	O345	O	-0.111398	1.100294	1.028349
	H346	H	-0.106083	1.096559	1.023928
	H347	H	-0.111211	1.102165	1.019665
	O348	O	0.488308	0.446531	0.543946
	H349	H	0.477844	0.457228	0.549400
	H350	H	0.488347	0.452714	0.530294
	O351	O	0.414478	0.539069	0.495170
	H352	H	0.410683	0.531759	0.497580
	H353	H	0.412093	0.535996	0.489435
	O354	O	-0.087403	0.911042	-0.048296
	H355	H	-0.068479	0.926766	-0.047442
	H356	H	-0.099056	0.904531	-0.047981
	O357	O	0.463584	0.539406	0.485172
	H358	H	0.468294	0.542884	0.501908
	H359	H	0.461707	0.539543	0.486988
	O360	O	0.450749	0.476574	0.556236
	H361	H	0.441412	0.476766	0.556266
	H362	H	0.444618	0.479956	0.564602
	O363	O	0.351763	0.469315	0.576957
	H364	H	0.354462	0.478280	0.577893
	H365	H	0.345996	0.471858	0.568466
	O366	O	0.607841	0.533756	0.518865
	H367	H	0.611547	0.520235	0.516697
	H368	H	0.611925	0.530819	0.518777
	O369	O	0.997287	-0.050729	0.056867
	H370	H	0.987491	-0.044314	0.059238
	H371	H	0.990941	-0.057350	0.052873
	O372	O	0.508010	0.530890	0.523825
	H373	H	0.498811	0.535932	0.509827
	H374	H	0.519528	0.523066	0.533263
	O375	O	1.113828	0.047612	0.912983
	H376	H	1.119705	0.047330	0.921203
	H377	H	1.117374	0.062373	0.931484
	O378	O	-0.022582	0.918229	0.125291
	H379	H	-0.024691	0.917987	0.133848
	H380	H	-0.037491	0.912859	0.112336
	O381	O	0.550382	0.611098	0.652072
	H382	H	0.538290	0.614511	0.669010
	H383	H	0.558311	0.608792	0.658916
	O384	O	0.941957	0.873097	-0.110850
	H385	H	0.951296	0.877569	-0.107957
	H386	H	0.940883	0.854630	-0.115555
	O387	O	0.978768	0.011163	0.972568
	H388	H	0.983922	0.010547	0.974287
	H389	H	0.981458	0.014392	0.974688
	O390	O	0.920357	0.950327	-0.004363
	H391	H	0.919938	0.964620	-0.009722
	H392	H	0.925854	0.947574	-0.023773
	O393	O	0.602184	0.550382	0.557457
	H394	H	0.608808	0.559430	0.554836
	H395	H	0.587833	0.536467	0.570764
