data_Molecule from HDF5

_cell_length_a		16.332021
_cell_length_b		16.211240
_cell_length_c		16.287328
_cell_angle_alpha	89.771466
_cell_angle_beta	89.848130
_cell_angle_gamma	90.230535
_symmetry_space_group_name_H-M	'P 1'
_symmetry_Int_Tables_number		1

loop_
	_symmetry_equiv_pos_as_xyz
	x,y,z

loop_
	_atom_site_label
	_atom_site_type_symbol
	_atom_site_fract_x
	_atom_site_fract_y
	_atom_site_fract_z
	H0	H	0.397811	0.834118	0.713811
	H1	H	0.594326	0.163336	0.711584
	H2	H	0.595196	0.833764	0.285845
	H3	H	0.400474	0.162935	0.285915
	H4	H	0.713334	0.401351	0.836177
	H5	H	0.712794	0.597840	0.162908
	H6	H	0.283759	0.599279	0.836152
	H7	H	0.281003	0.399436	0.163184
	H8	H	0.832867	0.711969	0.401741
	H9	H	0.159984	0.713360	0.596235
	H10	H	0.833096	0.283551	0.597986
	H11	H	0.160792	0.284867	0.400906
	H12	H	0.834832	0.397282	0.717437
	H13	H	0.160039	0.598181	0.712775
	H14	H	0.833494	0.598081	0.283320
	H15	H	0.160036	0.401156	0.283688
	H16	H	0.403368	0.711720	0.835751
	H17	H	0.595425	0.712517	0.163986
	H18	H	0.595054	0.286186	0.835310
	H19	H	0.398744	0.285106	0.164085
	H20	H	0.709788	0.833800	0.402906
	H21	H	0.712552	0.162007	0.599110
	H22	H	0.281050	0.834767	0.599634
	H23	H	0.282684	0.162007	0.398921
	H24	H	0.898204	0.334750	0.212928
	H25	H	0.095557	0.663241	0.212369
	H26	H	0.096132	0.334875	0.786145
	H27	H	0.900740	0.663916	0.784749
	H28	H	0.212756	0.899092	0.336974
	H29	H	0.212595	0.097683	0.663370
	H30	H	0.782259	0.098256	0.336532
	H31	H	0.780924	0.898575	0.663237
	H32	H	0.332172	0.213254	0.901932
	H33	H	0.660114	0.213588	0.096149
	H34	H	0.333439	0.783190	0.097946
	H35	H	0.661615	0.788168	0.902966
	H36	H	0.333848	0.897592	0.215872
	H37	H	0.659809	0.099026	0.214127
	H38	H	0.333241	0.097783	0.784324
	H39	H	0.660249	0.903177	0.785678
	H40	H	0.899822	0.212220	0.335962
	H41	H	0.094955	0.212027	0.663783
	H42	H	0.093204	0.786157	0.335188
	H43	H	0.897247	0.782752	0.663289
	H44	H	0.212411	0.335481	0.900215
	H45	H	0.211523	0.663126	0.097676
	H46	H	0.780900	0.335916	0.100243
	H47	H	0.784520	0.663991	0.899594
	H48	H	0.395591	0.116343	0.584258
	H49	H	0.580358	0.882674	0.597561
	H50	H	0.585235	0.113297	0.407573
	H51	H	0.406124	0.881514	0.406856
	H52	H	0.596445	0.408926	0.117356
	H53	H	0.586296	0.594520	0.884929
	H54	H	0.402551	0.589807	0.116719
	H55	H	0.406701	0.408162	0.884835
	H56	H	0.113704	0.599825	0.406795
	H57	H	0.881910	0.585924	0.595674
	H58	H	0.114383	0.399946	0.591449
	H59	H	0.883128	0.410083	0.406853
	H60	H	0.111322	0.408711	0.588689
	H61	H	0.879336	0.593688	0.594194
	H62	H	0.109935	0.586896	0.410028
	H63	H	0.879303	0.402219	0.401481
	H64	H	0.405895	0.590016	0.115081
	H65	H	0.595109	0.598713	0.881115
	H66	H	0.585673	0.411227	0.112568
	H67	H	0.403722	0.404673	0.882497
	H68	H	0.594018	0.114714	0.409779
	H69	H	0.591502	0.883383	0.584207
	H70	H	0.403569	0.118857	0.602539
	H71	H	0.402596	0.882491	0.410668
	H72	H	0.901465	0.619355	0.095590
	H73	H	0.081957	0.383220	0.095452
	H74	H	0.089274	0.617055	0.901865
	H75	H	0.907384	0.385509	0.914631
	H76	H	0.089672	0.909069	0.614808
	H77	H	0.083507	0.094498	0.384736
	H78	H	0.903668	0.086995	0.615292
	H79	H	0.908711	0.914233	0.387740
	H80	H	0.610265	0.090184	0.906743
	H81	H	0.378265	0.088269	0.104705
	H82	H	0.614421	0.898300	0.088072
	H83	H	0.377483	0.894303	0.908759
	H84	H	0.609722	0.914936	0.089479
	H85	H	0.378507	0.102435	0.088836
	H86	H	0.613325	0.092539	0.901643
	H87	H	0.385218	0.911419	0.915668
	H88	H	0.907043	0.090938	0.615635
	H89	H	0.096998	0.095627	0.380411
	H90	H	0.086327	0.903066	0.615767
	H91	H	0.907756	0.895752	0.381820
	H92	H	0.088957	0.614464	0.908832
	H93	H	0.091121	0.383926	0.083951
	H94	H	0.911540	0.615317	0.093358
	H95	H	0.898855	0.381089	0.908029
	H96	H	0.414526	0.111027	0.587024
	H97	H	0.596571	0.877131	0.599133
	H98	H	0.591772	0.117816	0.401571
	H99	H	0.401604	0.880204	0.405790
	H100	H	0.587896	0.400491	0.116482
	H101	H	0.595181	0.587614	0.882925
	H102	H	0.404097	0.592713	0.117417
	H103	H	0.402337	0.409324	0.883783
	H104	H	0.113877	0.589901	0.398165
	H105	H	0.881659	0.589035	0.588489
	H106	H	0.114322	0.406273	0.598328
	H107	H	0.881215	0.401145	0.411556
	H108	H	0.903805	0.614969	0.085843
	H109	H	0.096296	0.378656	0.096984
	H110	H	0.095199	0.617398	0.906326
	H111	H	0.909058	0.382912	0.903038
	H112	H	0.092602	0.904055	0.617143
	H113	H	0.092334	0.083406	0.385978
	H114	H	0.901811	0.091570	0.616995
	H115	H	0.892214	0.907429	0.380807
	H116	H	0.612755	0.096149	0.906073
	H117	H	0.385593	0.081933	0.085846
	H118	H	0.615578	0.906494	0.103335
	H119	H	0.379689	0.910580	0.896897
	C120	C	0.375152	0.007161	0.620966
	C121	C	0.618340	0.989812	0.621256
	C122	C	0.618533	0.006769	0.378249
	C123	C	0.375490	0.989842	0.378551
	C124	C	0.619011	0.378397	0.007263
	C125	C	0.620315	0.621903	0.991148
	C126	C	0.376329	0.620029	0.008343
	C127	C	0.374905	0.377764	0.991643
	C128	C	0.004559	0.620435	0.376999
	C129	C	0.988664	0.619400	0.620787
	C130	C	0.005395	0.376059	0.621808
	C131	C	0.989125	0.376715	0.377686
	C132	C	0.875845	0.507955	0.121007
	C133	C	0.118448	0.490513	0.120313
	C134	C	0.119632	0.507747	0.877445
	C135	C	0.876742	0.491550	0.878981
	C136	C	0.117835	0.877196	0.507995
	C137	C	0.119135	0.119903	0.491686
	C138	C	0.875330	0.119454	0.508103
	C139	C	0.874456	0.876812	0.491497
	C140	C	0.504222	0.121532	0.876898
	C141	C	0.488651	0.120284	0.121113
	C142	C	0.505273	0.876854	0.122329
	C143	C	0.488730	0.878154	0.878546
	C144	C	0.376782	0.883572	0.677005
	C145	C	0.615074	0.114077	0.674683
	C146	C	0.615386	0.882806	0.323826
	C147	C	0.379042	0.113773	0.323428
	C148	C	0.674940	0.380691	0.884729
	C149	C	0.675164	0.618775	0.114197
	C150	C	0.321626	0.618803	0.885092
	C151	C	0.319128	0.379080	0.114450
	C152	C	0.881640	0.674665	0.380314
	C153	C	0.111303	0.675231	0.616992
	C154	C	0.882282	0.321060	0.619077
	C155	C	0.111847	0.322211	0.380220
	C156	C	0.882877	0.377962	0.677999
	C157	C	0.111448	0.618182	0.675074
	C158	C	0.882039	0.617873	0.321796
	C159	C	0.111509	0.379885	0.321872
	C160	C	0.381018	0.674687	0.884722
	C161	C	0.616718	0.675525	0.114918
	C162	C	0.615852	0.324059	0.884229
	C163	C	0.377609	0.322492	0.114991
	C164	C	0.672715	0.882974	0.381700
	C165	C	0.673850	0.113399	0.618578
	C166	C	0.319180	0.883733	0.620109
	C167	C	0.320429	0.113195	0.379452
	C168	C	0.877318	0.384231	0.176167
	C169	C	0.116016	0.614039	0.175053
	C170	C	0.116654	0.383939	0.823334
	C171	C	0.879935	0.614794	0.822562
	C172	C	0.173731	0.879434	0.385191
	C173	C	0.174359	0.117627	0.614510
	C174	C	0.820286	0.117946	0.385296
	C175	C	0.818951	0.878200	0.614519
	C176	C	0.381307	0.176076	0.880570
	C177	C	0.611456	0.175681	0.117176
	C178	C	0.382350	0.821179	0.118955
	C179	C	0.612286	0.824709	0.881508
	C180	C	0.382428	0.878196	0.177495
	C181	C	0.611141	0.118710	0.175876
	C182	C	0.381693	0.118680	0.822080
	C183	C	0.611692	0.881811	0.823194
	C184	C	0.878513	0.174816	0.384888
	C185	C	0.115955	0.174403	0.614817
	C186	C	0.114496	0.823206	0.384513
	C187	C	0.876675	0.820785	0.614516
	C188	C	0.174534	0.384352	0.879941
	C189	C	0.173778	0.614096	0.117934
	C190	C	0.819397	0.384849	0.119540
	C191	C	0.822211	0.614936	0.879683
	C192	C	0.397934	0.093094	0.598109
	C193	C	0.596056	0.903417	0.599976
	C194	C	0.596880	0.092985	0.399955
	C195	C	0.397086	0.903642	0.401128
	C196	C	0.596603	0.400469	0.093170
	C197	C	0.598538	0.600201	0.905240
	C198	C	0.397790	0.597565	0.094147
	C199	C	0.397639	0.400511	0.906040
	C200	C	0.090328	0.598645	0.398579
	C201	C	0.902966	0.596252	0.599225
	C202	C	0.091171	0.398380	0.599407
	C203	C	0.903397	0.398156	0.400107
	C204	C	0.898872	0.594179	0.098155
	C205	C	0.096416	0.404194	0.098408
	C206	C	0.097612	0.594019	0.899281
	C207	C	0.898503	0.405401	0.901946
	C208	C	0.095828	0.898874	0.593825
	C209	C	0.097163	0.097818	0.405931
	C210	C	0.897646	0.096532	0.593826
	C211	C	0.896485	0.899266	0.405607
	C212	C	0.589935	0.099592	0.898590
	C213	C	0.402888	0.097496	0.099466
	C214	C	0.590998	0.899708	0.100129
	C215	C	0.403095	0.899117	0.900597
	Zn216	Zn	0.496123	-0.000942	0.748529
	Zn217	Zn	0.496716	-0.001506	0.250444
	Zn218	Zn	0.748240	0.500244	-0.000566
	Zn219	Zn	0.247138	0.499317	-0.000322
	Zn220	Zn	-0.003832	0.748262	0.499299
	Zn221	Zn	-0.003039	0.247549	0.499575
	Zn222	Zn	-0.002060	0.498573	0.750320
	Zn223	Zn	-0.003297	0.498897	0.248645
	Zn224	Zn	0.497738	0.749099	0.000154
	Zn225	Zn	0.496539	0.249559	-0.000575
	Zn226	Zn	0.746570	-0.001441	0.499985
	Zn227	Zn	0.247392	-0.001696	0.499841
	N228	N	0.410775	0.961515	0.677708
	N229	N	0.581175	0.036214	0.676376
	N230	N	0.582487	0.960916	0.321319
	N231	N	0.412316	0.036176	0.322525
	N232	N	0.677046	0.413634	0.962411
	N233	N	0.677248	0.586034	0.036458
	N234	N	0.318722	0.585508	0.962881
	N235	N	0.317351	0.412742	0.036744
	N236	N	0.958594	0.676253	0.414151
	N237	N	0.033747	0.676214	0.584022
	N238	N	0.959478	0.319688	0.585027
	N239	N	0.034733	0.320353	0.414413
	N240	N	0.960414	0.411422	0.679745
	N241	N	0.034329	0.583858	0.677203
	N242	N	0.959662	0.585101	0.319436
	N243	N	0.034131	0.412681	0.320104
	N244	N	0.414381	0.675580	0.962070
	N245	N	0.583628	0.677794	0.037355
	N246	N	0.581935	0.322519	0.961563
	N247	N	0.411644	0.321574	0.037588
	N248	N	0.675002	0.960993	0.414452
	N249	N	0.675920	0.035243	0.586206
	N250	N	0.318040	0.961271	0.585884
	N251	N	0.318090	0.035019	0.412974
	N252	N	0.911709	0.461774	0.177200
	N253	N	0.082181	0.536238	0.176698
	N254	N	0.083504	0.461740	0.821385
	N255	N	0.913211	0.536876	0.821940
	N256	N	0.175968	0.912253	0.462947
	N257	N	0.176461	0.084461	0.536811
	N258	N	0.818438	0.084192	0.462805
	N259	N	0.817470	0.912297	0.537142
	N260	N	0.458677	0.178087	0.913755
	N261	N	0.534313	0.176672	0.083821
	N262	N	0.459656	0.820587	0.085264
	N263	N	0.534944	0.822284	0.915263
	N264	N	0.459827	0.912162	0.179690
	N265	N	0.533597	0.084921	0.178478
	N266	N	0.459092	0.085609	0.819693
	N267	N	0.534183	0.914623	0.821463
	N268	N	0.912129	0.175810	0.462300
	N269	N	0.082490	0.176053	0.537501
	N270	N	0.080247	0.821902	0.461672
	N271	N	0.910666	0.819890	0.537095
	N272	N	0.176389	0.462446	0.913083
	N273	N	0.175401	0.536226	0.084749
	N274	N	0.818427	0.462976	0.085944
	N275	N	0.820157	0.537347	0.914066
	O276	O	0.938331	1.062991	0.078962
	H277	H	0.941914	1.064015	0.072710
	H278	H	0.942654	1.052374	0.081310
	O279	O	-0.074026	-0.002222	0.010756
	H280	H	-0.074551	0.005107	0.008503
	H281	H	-0.074075	-0.006115	0.024713
	O282	O	-0.041581	0.028459	1.035950
	H283	H	-0.048209	0.034199	1.036236
	H284	H	-0.038680	0.032281	1.042871
	O285	O	0.998975	0.998796	0.971310
	H286	H	0.996876	1.010554	0.973856
	H287	H	0.993404	1.008432	0.968383
	O288	O	0.472961	0.431319	0.541240
	H289	H	0.480207	0.432180	0.524623
	H290	H	0.466414	0.440174	0.543178
	O291	O	0.479927	0.426203	0.533493
	H292	H	0.494442	0.428789	0.539022
	H293	H	0.482603	0.423392	0.544562
	O294	O	-0.028127	-0.039442	-0.017940
	H295	H	-0.030603	-0.051464	-0.017564
	H296	H	-0.026793	-0.029573	-0.023133
	O297	O	0.440022	0.432745	0.487226
	H298	H	0.430161	0.419858	0.485441
	H299	H	0.443704	0.442407	0.492752
	O300	O	-0.092995	0.989314	0.969077
	H301	H	-0.091160	0.979878	0.978436
	H302	H	-0.102523	0.983831	0.972811
	O303	O	0.485761	0.462982	0.522810
	H304	H	0.481275	0.462788	0.513420
	H305	H	0.477936	0.453595	0.534624
	O306	O	0.000504	0.083068	1.028629
	H307	H	0.004833	0.087954	1.018530
	H308	H	0.004517	0.075250	1.030293
	O309	O	1.026902	1.001568	0.986993
	H310	H	1.022891	0.996628	0.971971
	H311	H	1.025909	0.984380	0.989107
	O312	O	1.012295	-0.012233	-0.047733
	H313	H	1.010631	-0.008646	-0.045898
	H314	H	1.001526	-0.011677	-0.047171
	O315	O	0.478282	0.418989	0.477635
	H316	H	0.478622	0.408715	0.474214
	H317	H	0.473030	0.416603	0.477572
	O318	O	-0.003184	1.033807	-0.052379
	H319	H	-0.001178	1.035645	-0.048975
	H320	H	0.000545	1.034663	-0.049491
	O321	O	1.014279	1.006047	-0.013722
	H322	H	1.020507	1.004865	-0.015129
	H323	H	1.010040	1.013916	-0.020784
