data_Molecule from HDF5

_cell_length_a		16.520384
_cell_length_b		16.405684
_cell_length_c		16.532720
_cell_angle_alpha	90.022999
_cell_angle_beta	89.897114
_cell_angle_gamma	89.849412
_symmetry_space_group_name_H-M	'P 1'
_symmetry_Int_Tables_number		1

loop_
	_symmetry_equiv_pos_as_xyz
	x,y,z

loop_
	_atom_site_label
	_atom_site_type_symbol
	_atom_site_fract_x
	_atom_site_fract_y
	_atom_site_fract_z
	H0	H	0.385666	0.844544	0.709949
	H1	H	0.593720	0.161672	0.704248
	H2	H	0.602134	0.844782	0.263113
	H3	H	0.389880	0.159911	0.265654
	H4	H	0.715286	0.399416	0.828529
	H5	H	0.715250	0.610253	0.143779
	H6	H	0.269275	0.613555	0.829082
	H7	H	0.270530	0.396963	0.140801
	H8	H	0.838330	0.726437	0.381566
	H9	H	0.153163	0.725088	0.592921
	H10	H	0.836149	0.283913	0.589510
	H11	H	0.151249	0.280600	0.381134
	H12	H	0.837345	0.398574	0.708058
	H13	H	0.152387	0.610004	0.709532
	H14	H	0.838770	0.612318	0.263868
	H15	H	0.149587	0.395038	0.261468
	H16	H	0.387833	0.726341	0.827916
	H17	H	0.597724	0.726106	0.143737
	H18	H	0.598899	0.283515	0.828640
	H19	H	0.389527	0.282721	0.143206
	H20	H	0.715706	0.843912	0.380784
	H21	H	0.711997	0.162078	0.589881
	H22	H	0.270273	0.844419	0.593950
	H23	H	0.272508	0.159801	0.381311
	H24	H	0.886795	0.346742	0.210360
	H25	H	0.101955	0.660097	0.210772
	H26	H	0.102100	0.344430	0.764273
	H27	H	0.891539	0.660878	0.765734
	H28	H	0.218779	0.894085	0.330582
	H29	H	0.217136	0.110058	0.643024
	H30	H	0.775645	0.105873	0.327302
	H31	H	0.774613	0.899602	0.643737
	H32	H	0.336314	0.225518	0.883099
	H33	H	0.653094	0.220865	0.089315
	H34	H	0.335920	0.781458	0.094050
	H35	H	0.648607	0.781439	0.880706
	H36	H	0.338166	0.894732	0.212405
	H37	H	0.651957	0.107642	0.208308
	H38	H	0.335607	0.110514	0.765458
	H39	H	0.647669	0.896133	0.762535
	H40	H	0.893449	0.220392	0.326975
	H41	H	0.099462	0.224685	0.644071
	H42	H	0.102415	0.778405	0.330592
	H43	H	0.894579	0.785693	0.645011
	H44	H	0.219637	0.346356	0.877843
	H45	H	0.216431	0.660899	0.092670
	H46	H	0.772269	0.345787	0.093353
	H47	H	0.774935	0.661809	0.882562
	H48	H	0.407479	0.114235	0.578042
	H49	H	0.587221	0.886306	0.579454
	H50	H	0.586262	0.115818	0.399597
	H51	H	0.410416	0.890391	0.400212
	H52	H	0.580951	0.409980	0.099346
	H53	H	0.584410	0.596324	0.872192
	H54	H	0.410557	0.595032	0.095344
	H55	H	0.405288	0.424713	0.876343
	H56	H	0.104091	0.587087	0.401363
	H57	H	0.882856	0.594323	0.577797
	H58	H	0.109215	0.412827	0.582533
	H59	H	0.881560	0.418331	0.393558
	H60	H	0.108494	0.407951	0.571589
	H61	H	0.883575	0.593096	0.574481
	H62	H	0.106658	0.587365	0.395914
	H63	H	0.879785	0.408933	0.396705
	H64	H	0.399653	0.592743	0.099490
	H65	H	0.588124	0.589045	0.873966
	H66	H	0.589742	0.411335	0.102226
	H67	H	0.416161	0.414198	0.876545
	H68	H	0.584745	0.116593	0.393546
	H69	H	0.579272	0.889484	0.576405
	H70	H	0.404865	0.113458	0.570796
	H71	H	0.407272	0.890565	0.402719
	H72	H	0.903777	0.616073	0.073590
	H73	H	0.076217	0.392994	0.075231
	H74	H	0.075413	0.616365	0.890136
	H75	H	0.902981	0.387265	0.895820
	H76	H	0.087137	0.922460	0.597230
	H77	H	0.080956	0.089154	0.375763
	H78	H	0.905379	0.098227	0.600952
	H79	H	0.900977	0.913112	0.370962
	H80	H	0.607474	0.095583	0.892691
	H81	H	0.380981	0.091924	0.079643
	H82	H	0.602408	0.920186	0.072964
	H83	H	0.378195	0.912667	0.894587
	H84	H	0.606351	0.913606	0.077984
	H85	H	0.381981	0.094581	0.075069
	H86	H	0.604981	0.091107	0.899956
	H87	H	0.380071	0.914292	0.902143
	H88	H	0.897497	0.092545	0.600455
	H89	H	0.083278	0.093066	0.373480
	H90	H	0.073502	0.915925	0.594313
	H91	H	0.905658	0.917664	0.374176
	H92	H	0.078212	0.610895	0.906031
	H93	H	0.081762	0.392684	0.067382
	H94	H	0.905165	0.617330	0.077158
	H95	H	0.908305	0.389747	0.896266
	H96	H	0.400262	0.116933	0.576749
	H97	H	0.586332	0.890124	0.571444
	H98	H	0.580787	0.114535	0.397707
	H99	H	0.406373	0.889327	0.399033
	H100	H	0.584933	0.417866	0.097796
	H101	H	0.580110	0.590039	0.876471
	H102	H	0.405939	0.584092	0.093983
	H103	H	0.402545	0.411029	0.870895
	H104	H	0.107962	0.592037	0.399398
	H105	H	0.884088	0.591163	0.576989
	H106	H	0.104935	0.419321	0.573517
	H107	H	0.884182	0.415301	0.402886
	H108	H	0.907549	0.615947	0.074354
	H109	H	0.085213	0.389133	0.075667
	H110	H	0.090461	0.618968	0.897681
	H111	H	0.904596	0.389903	0.900870
	H112	H	0.084260	0.907770	0.601985
	H113	H	0.086328	0.088054	0.374576
	H114	H	0.905384	0.089301	0.597380
	H115	H	0.907300	0.910504	0.373444
	H116	H	0.605787	0.087568	0.892318
	H117	H	0.383043	0.089372	0.075276
	H118	H	0.604063	0.912845	0.068971
	H119	H	0.380300	0.920288	0.896446
	C120	C	0.371512	0.010522	0.607714
	C121	C	0.614493	0.993890	0.607402
	C122	C	0.616048	0.011020	0.364353
	C123	C	0.374936	0.994282	0.367294
	C124	C	0.617069	0.381308	-0.004577
	C125	C	0.615490	0.625064	0.978078
	C126	C	0.372000	0.625107	-0.006724
	C127	C	0.374249	0.383192	0.977538
	C128	C	0.003312	0.623444	0.365882
	C129	C	0.987346	0.624899	0.608877
	C130	C	0.003149	0.381545	0.607622
	C131	C	0.985416	0.381159	0.364504
	C132	C	0.872560	0.512417	0.108138
	C133	C	0.114625	0.495064	0.106548
	C134	C	0.115856	0.511653	0.864242
	C135	C	0.873872	0.494093	0.865619
	C136	C	0.116010	0.881348	0.494941
	C137	C	0.115870	0.123484	0.478134
	C138	C	0.872132	0.124771	0.494795
	C139	C	0.873369	0.881960	0.477350
	C140	C	0.501829	0.124511	0.864021
	C141	C	0.486153	0.123912	0.108295
	C142	C	0.501832	0.881654	0.107944
	C143	C	0.482998	0.882358	0.864800
	C144	C	0.368256	0.891782	0.669087
	C145	C	0.613788	0.113573	0.665645
	C146	C	0.619142	0.892087	0.303801
	C147	C	0.371671	0.112832	0.306505
	C148	C	0.675967	0.380263	0.876320
	C149	C	0.675203	0.628258	0.096488
	C150	C	0.310367	0.629945	0.875924
	C151	C	0.311712	0.379208	0.094492
	C152	C	0.885512	0.685757	0.363306
	C153	C	0.105805	0.685157	0.611009
	C154	C	0.883793	0.323168	0.608693
	C155	C	0.103923	0.320668	0.362338
	C156	C	0.884458	0.380173	0.667460
	C157	C	0.105316	0.627529	0.669163
	C158	C	0.885396	0.628620	0.304909
	C159	C	0.103188	0.377430	0.303012
	C160	C	0.369238	0.686634	0.875353
	C161	C	0.616428	0.685618	0.096537
	C162	C	0.617905	0.322699	0.876228
	C163	C	0.370985	0.322437	0.095512
	C164	C	0.675818	0.891611	0.362432
	C165	C	0.672513	0.113858	0.608461
	C166	C	0.310509	0.891789	0.611569
	C167	C	0.313309	0.112776	0.363843
	C168	C	0.868911	0.393983	0.169768
	C169	C	0.119012	0.613059	0.169168
	C170	C	0.120018	0.392421	0.803708
	C171	C	0.872384	0.613434	0.805881
	C172	C	0.178082	0.876686	0.377441
	C173	C	0.176584	0.127293	0.596189
	C174	C	0.814443	0.125303	0.375186
	C175	C	0.814498	0.880816	0.596536
	C176	C	0.383616	0.185467	0.863732
	C177	C	0.605393	0.182079	0.108556
	C178	C	0.383574	0.820997	0.111726
	C179	C	0.601524	0.821563	0.861940
	C180	C	0.384696	0.877425	0.170868
	C181	C	0.604614	0.125971	0.168078
	C182	C	0.383091	0.128204	0.805177
	C183	C	0.601038	0.878249	0.803397
	C184	C	0.873056	0.182320	0.374989
	C185	C	0.117984	0.184631	0.596455
	C186	C	0.120188	0.819199	0.377412
	C187	C	0.873587	0.823790	0.596985
	C188	C	0.178723	0.393488	0.860107
	C189	C	0.175877	0.613810	0.110317
	C190	C	0.812089	0.393429	0.111263
	C191	C	0.814679	0.613942	0.863919
	C192	C	0.396847	0.093354	0.582444
	C193	C	0.591039	0.910243	0.582893
	C194	C	0.590963	0.094061	0.389695
	C195	C	0.400841	0.911695	0.393206
	C196	C	0.592423	0.405969	0.078214
	C197	C	0.591058	0.599311	0.895695
	C198	C	0.397944	0.598429	0.074988
	C199	C	0.400547	0.409357	0.895755
	C200	C	0.084932	0.596520	0.391342
	C201	C	0.904838	0.600042	0.583733
	C202	C	0.085860	0.406098	0.582789
	C203	C	0.903273	0.406945	0.390220
	C204	C	0.898147	0.594881	0.082470
	C205	C	0.088690	0.413013	0.080264
	C206	C	0.089073	0.593866	0.890345
	C207	C	0.898239	0.410884	0.890466
	C208	C	0.089325	0.907765	0.576490
	C209	C	0.090700	0.097559	0.396004
	C210	C	0.895837	0.100389	0.577820
	C211	C	0.897574	0.906655	0.394441
	C212	C	0.584555	0.098626	0.887894
	C213	C	0.403547	0.098981	0.083839
	C214	C	0.583354	0.907995	0.080850
	C215	C	0.401070	0.908259	0.890472
	Zn216	Zn	0.491472	0.002710	0.735866
	Zn217	Zn	0.494474	0.002157	0.236675
	Zn218	Zn	0.744926	0.503856	-0.013063
	Zn219	Zn	0.243645	0.503942	-0.014983
	Zn220	Zn	-0.004274	0.752947	0.486804
	Zn221	Zn	-0.005578	0.252430	0.486367
	Zn222	Zn	-0.004652	0.502691	0.736631
	Zn223	Zn	-0.005898	0.503478	0.236261
	Zn224	Zn	0.492388	0.753928	-0.014123
	Zn225	Zn	0.495021	0.252910	-0.013515
	Zn226	Zn	0.743573	0.002793	0.485793
	Zn227	Zn	0.244642	0.001705	0.486356
	N228	N	0.405406	0.966550	0.666756
	N229	N	0.578351	0.037898	0.665155
	N230	N	0.582542	0.967516	0.304914
	N231	N	0.409312	0.038243	0.308613
	N232	N	0.675905	0.416023	0.951550
	N233	N	0.674806	0.591456	0.021789
	N234	N	0.311924	0.592470	0.950274
	N235	N	0.313617	0.416329	0.020123
	N236	N	0.959752	0.682857	0.400584
	N237	N	0.031525	0.683394	0.573740
	N238	N	0.958608	0.323904	0.572368
	N239	N	0.029728	0.322921	0.399758
	N240	N	0.959843	0.415529	0.667130
	N241	N	0.030655	0.590799	0.667868
	N242	N	0.959578	0.590651	0.306365
	N243	N	0.028338	0.414130	0.304018
	N244	N	0.406845	0.683657	0.949407
	N245	N	0.579919	0.683922	0.021769
	N246	N	0.582374	0.322986	0.951387
	N247	N	0.409299	0.324991	0.021747
	N248	N	0.673977	0.966515	0.399462
	N249	N	0.673189	0.038197	0.572935
	N250	N	0.312205	0.966751	0.574413
	N251	N	0.315280	0.037877	0.400911
	N252	N	0.905992	0.468950	0.167924
	N253	N	0.081727	0.538310	0.167195
	N254	N	0.081751	0.466962	0.806031
	N255	N	0.908340	0.537898	0.806671
	N256	N	0.175719	0.914405	0.451619
	N257	N	0.175523	0.090162	0.521706
	N258	N	0.813377	0.090443	0.450903
	N259	N	0.813631	0.915466	0.520880
	N260	N	0.458527	0.183532	0.899526
	N261	N	0.530622	0.181160	0.072190
	N262	N	0.457382	0.823473	0.073315
	N263	N	0.527244	0.823870	0.899237
	N264	N	0.459179	0.914463	0.168350
	N265	N	0.529390	0.090501	0.167998
	N266	N	0.457749	0.091134	0.805263
	N267	N	0.526288	0.914962	0.804763
	N268	N	0.907871	0.182452	0.450372
	N269	N	0.081092	0.182569	0.521914
	N270	N	0.082326	0.821967	0.451392
	N271	N	0.909254	0.824166	0.521709
	N272	N	0.176455	0.468711	0.896717
	N273	N	0.173474	0.539449	0.072072
	N274	N	0.814358	0.467970	0.073743
	N275	N	0.815396	0.538690	0.900335
	O276	O	1.196398	0.196283	0.189194
	H277	H	1.229951	0.227289	0.213470
	H278	H	1.197585	0.184043	0.156607
	O279	O	0.289182	0.292993	0.568541
	H280	H	0.273138	0.299123	0.583779
	H281	H	0.276164	0.290838	0.581509
	O282	O	0.707116	1.531376	0.702277
	H283	H	0.712232	1.550232	0.705814
	H284	H	0.722718	1.550168	0.709555
	O285	O	0.702882	0.464471	0.526112
	H286	H	0.706239	0.466124	0.532108
	H287	H	0.691021	0.481370	0.534802
	O288	O	0.164259	-0.185658	-0.192237
	H289	H	0.177251	-0.138890	-0.206241
	H290	H	0.122911	-0.191397	-0.202126
	O291	O	1.158654	1.209852	0.071706
	H292	H	1.161223	1.204976	0.067027
	H293	H	1.173889	1.220668	0.058912
	O294	O	-0.302108	0.704862	-0.310080
	H295	H	-0.289897	0.728455	-0.295864
	H296	H	-0.304078	0.714914	-0.308678
	O297	O	0.491648	0.499375	0.481124
	H298	H	0.506437	0.500349	0.467028
	H299	H	0.474343	0.506962	0.481191
	O300	O	0.552498	0.623278	0.330998
	H301	H	0.542104	0.608418	0.336702
	H302	H	0.572613	0.615020	0.344170
	O303	O	0.300052	0.406569	0.629307
	H304	H	0.303476	0.425000	0.620890
	H305	H	0.316844	0.420750	0.651272
	O306	O	-0.077599	1.007324	1.164793
	H307	H	-0.078103	1.009872	1.160222
	H308	H	-0.065112	0.999782	1.166807
	O309	O	0.800201	0.812790	0.794337
	H310	H	0.818347	0.830937	0.815958
	H311	H	0.817749	0.831155	0.813443
	O312	O	0.371085	0.496470	0.692440
	H313	H	0.373789	0.504059	0.696835
	H314	H	0.388570	0.514804	0.706850
	O315	O	-0.198293	0.193993	0.787257
	H316	H	-0.210115	0.201038	0.839665
	H317	H	-0.226783	0.193019	0.765424
	O318	O	0.020728	1.199060	-0.076848
	H319	H	0.021409	1.202814	-0.084837
	H320	H	0.021955	1.188884	-0.093301
	O321	O	1.094691	0.125848	0.827996
	H322	H	1.087981	0.135849	0.825442
	H323	H	1.079153	0.097703	0.836714
	O324	O	1.523583	0.713568	0.702812
	H325	H	1.529025	0.731393	0.721584
	H326	H	1.525037	0.725824	0.693244
	O327	O	0.998939	-0.188597	0.794630
	H328	H	0.994438	-0.184926	0.792437
	H329	H	0.988628	-0.188530	0.816173
	O330	O	0.694242	-0.699226	0.588890
	H331	H	0.694146	-0.685358	0.568498
	H332	H	0.682185	-0.697898	0.567130
	O333	O	1.312698	0.681316	0.308161
	H334	H	1.335919	0.672459	0.293949
	H335	H	1.318356	0.702034	0.318187
	O336	O	0.985398	0.120181	1.091506
	H337	H	0.994935	0.113997	1.087467
	H338	H	0.992410	0.127231	1.086269
	O339	O	0.360451	0.628113	0.436922
	H340	H	0.368055	0.608856	0.450317
	H341	H	0.361826	0.625474	0.431283
	O342	O	0.799904	-0.187330	1.174298
	H343	H	0.851555	-0.197015	1.184532
	H344	H	0.785905	-0.168355	1.195352
	O345	O	-0.131719	-0.028139	0.109044
	H346	H	-0.146579	-0.007797	0.111182
	H347	H	-0.115621	-0.018347	0.095791
	O348	O	1.196228	0.021025	1.201420
	H349	H	1.198760	0.035101	1.191964
	H350	H	1.204554	0.035848	1.218332
	O351	O	1.003666	1.208318	0.166051
	H352	H	1.027149	1.211628	0.176551
	H353	H	1.026309	1.226255	0.167157
	O354	O	0.367978	0.707816	0.498470
	H355	H	0.340062	0.707819	0.497415
	H356	H	0.367487	0.702104	0.501283
	O357	O	0.719483	1.296312	1.258536
	H358	H	0.719032	1.285091	1.270687
	H359	H	0.711477	1.309511	1.272101
	O360	O	0.554698	0.704383	0.288645
	H361	H	0.564233	0.687657	0.299089
	H362	H	0.543641	0.716501	0.273584
	O363	O	0.315230	0.319000	0.301226
	H364	H	0.321195	0.346107	0.316592
	H365	H	0.339328	0.329287	0.320188
	O366	O	1.131137	-0.050398	1.082405
	H367	H	1.141871	-0.053401	1.085534
	H368	H	1.127965	-0.038359	1.085973
	O369	O	1.206532	0.098982	0.952195
	H370	H	1.202262	0.087814	0.956348
	H371	H	1.210906	0.089588	0.951279
	O372	O	0.006572	1.012470	-0.114164
	H373	H	0.001675	1.007170	-0.094548
	H374	H	-0.022503	1.012123	-0.107843
	O375	O	-0.169298	0.986790	0.930789
	H376	H	-0.171727	0.990611	0.945083
	H377	H	-0.175598	0.992034	0.946221
	O378	O	0.776164	0.218308	-0.050244
	H379	H	0.806573	0.224393	-0.022605
	H380	H	0.752095	0.247841	-0.041338
	O381	O	0.988501	0.011783	-0.118247
	H382	H	0.989986	0.007204	-0.126599
	H383	H	0.963497	0.009811	-0.115076
	O384	O	0.574211	0.393957	1.404219
	H385	H	0.582560	0.406523	1.395338
	H386	H	0.586355	0.396349	1.413972
	O387	O	0.705839	0.444560	0.284529
	H388	H	0.713044	0.440264	0.268811
	H389	H	0.691461	0.441811	0.286473
	O390	O	0.205011	-0.031307	0.775326
	H391	H	0.191299	-0.007835	0.759113
	H392	H	0.209880	-0.015956	0.757339
	O393	O	0.963264	0.790964	0.195764
	H394	H	0.991335	0.807912	0.194140
	H395	H	0.973185	0.770391	0.214092
	O396	O	0.714164	0.551338	1.404467
	H397	H	0.729500	0.567804	1.390427
	H398	H	0.712474	0.550588	1.415786
	O399	O	0.515689	1.476096	1.668601
	H400	H	0.531040	1.486846	1.657072
	H401	H	0.533803	1.469229	1.666371
	O402	O	0.034667	-0.020697	0.902226
	H403	H	0.037870	-0.023138	0.909924
	H404	H	0.009224	-0.023749	0.886893
	O405	O	-1.218946	1.035095	0.027853
	H406	H	-1.225769	1.043399	0.025943
	H407	H	-1.211207	1.035199	0.047284
	O408	O	0.273904	0.450453	0.535209
	H409	H	0.268120	0.451661	0.546774
	H410	H	0.275996	0.461946	0.530698
	O411	O	0.714629	0.718573	0.520291
	H412	H	0.708352	0.719935	0.531736
	H413	H	0.737479	0.735968	0.523123
	O414	O	-0.226542	0.786368	0.012220
	H415	H	-0.224400	0.791631	0.053013
	H416	H	-0.253286	0.761386	0.024948
	O417	O	0.849319	0.147237	1.155786
	H418	H	0.843736	0.151771	1.162795
	H419	H	0.875899	0.149189	1.150792
	O420	O	0.209477	0.794604	0.967596
	H421	H	0.210784	0.793865	0.928185
	H422	H	0.230290	0.780092	0.953915
	O423	O	0.166151	0.911979	0.118544
	H424	H	0.159410	0.907864	0.110077
	H425	H	0.162338	0.933446	0.113933
	O426	O	0.550177	1.656180	1.418946
	H427	H	0.548534	1.655009	1.417896
	H428	H	0.548073	1.652792	1.417216
	O429	O	0.516264	0.301070	0.453944
	H430	H	0.512515	0.287483	0.461912
	H431	H	0.515076	0.308454	0.471344
	O432	O	0.452893	0.453420	0.306014
	H433	H	0.447603	0.452729	0.303036
	H434	H	0.450224	0.444027	0.315706
	O435	O	0.281449	-0.479402	0.274689
	H436	H	0.277432	-0.468181	0.289936
	H437	H	0.270731	-0.467682	0.254333
	O438	O	1.044548	-0.199502	0.029311
	H439	H	1.067049	-0.194530	0.027625
	H440	H	1.049738	-0.202916	0.025301
	O441	O	0.406210	0.304555	0.498130
	H442	H	0.397796	0.288074	0.511523
	H443	H	0.389281	0.324805	0.512445
	O444	O	0.498938	0.464309	0.650672
	H445	H	0.514417	0.453411	0.652407
	H446	H	0.500062	0.477075	0.657056
	O447	O	0.406324	0.427224	0.549772
	H448	H	0.416120	0.431315	0.565188
	H449	H	0.410322	0.427449	0.570297
	O450	O	0.535377	0.323697	0.640523
	H451	H	0.522790	0.307017	0.635049
	H452	H	0.517296	0.320406	0.642297
	O453	O	-0.219813	0.023130	-0.227200
	H454	H	-0.234486	0.037652	-0.232354
	H455	H	-0.232634	0.024227	-0.220470
	O456	O	0.901503	-0.162233	-0.051150
	H457	H	0.914604	-0.166972	-0.030348
	H458	H	0.885448	-0.159672	-0.034606
	O459	O	0.357628	0.709845	0.530012
	H460	H	0.337056	0.711073	0.504048
	H461	H	0.362336	0.718923	0.517375
	O462	O	0.498066	0.337062	0.281232
	H463	H	0.490318	0.327176	0.285074
	H464	H	0.489697	0.330744	0.283216
	O465	O	0.963785	0.224809	-0.237408
	H466	H	0.914688	0.216031	-0.232065
	H467	H	0.956902	0.260952	-0.270035
