data_Molecule from HDF5

_cell_length_a		16.372280
_cell_length_b		16.447845
_cell_length_c		16.357648
_cell_angle_alpha	89.761307
_cell_angle_beta	89.902636
_cell_angle_gamma	90.056945
_symmetry_space_group_name_H-M	'P 1'
_symmetry_Int_Tables_number		1

loop_
	_symmetry_equiv_pos_as_xyz
	x,y,z

loop_
	_atom_site_label
	_atom_site_type_symbol
	_atom_site_fract_x
	_atom_site_fract_y
	_atom_site_fract_z
	H0	H	0.404322	0.848792	0.708073
	H1	H	0.608907	0.168536	0.707357
	H2	H	0.609878	0.852515	0.266948
	H3	H	0.398339	0.168386	0.265982
	H4	H	0.721818	0.406925	0.826996
	H5	H	0.724491	0.612229	0.146404
	H6	H	0.286295	0.613226	0.827949
	H7	H	0.283696	0.405880	0.148310
	H8	H	0.844999	0.728438	0.383638
	H9	H	0.163681	0.728010	0.590630
	H10	H	0.844823	0.287522	0.592263
	H11	H	0.164583	0.290236	0.381648
	H12	H	0.845122	0.402235	0.708554
	H13	H	0.163485	0.612592	0.706892
	H14	H	0.843043	0.609497	0.270283
	H15	H	0.164703	0.407104	0.267509
	H16	H	0.401116	0.729597	0.829666
	H17	H	0.605452	0.725559	0.148920
	H18	H	0.607851	0.290509	0.828315
	H19	H	0.397879	0.287762	0.147834
	H20	H	0.723948	0.850269	0.386328
	H21	H	0.727067	0.167372	0.593723
	H22	H	0.283822	0.850408	0.594388
	H23	H	0.282926	0.168117	0.382203
	H24	H	0.899073	0.349759	0.207539
	H25	H	0.106762	0.668470	0.205335
	H26	H	0.105130	0.349923	0.770174
	H27	H	0.897636	0.667326	0.764052
	H28	H	0.227027	0.906611	0.328543
	H29	H	0.221689	0.111744	0.647546
	H30	H	0.784616	0.111954	0.328363
	H31	H	0.786258	0.903473	0.649132
	H32	H	0.346277	0.228017	0.885468
	H33	H	0.662568	0.233610	0.095841
	H34	H	0.344834	0.787982	0.096689
	H35	H	0.664819	0.788507	0.886917
	H36	H	0.345142	0.905532	0.211172
	H37	H	0.663408	0.115806	0.209793
	H38	H	0.345541	0.109738	0.771292
	H39	H	0.666181	0.904080	0.770261
	H40	H	0.898977	0.229333	0.327325
	H41	H	0.108947	0.230781	0.644764
	H42	H	0.109289	0.791353	0.326145
	H43	H	0.898484	0.783940	0.645364
	H44	H	0.225190	0.351346	0.883960
	H45	H	0.225256	0.667465	0.092834
	H46	H	0.783304	0.349308	0.091051
	H47	H	0.783845	0.668690	0.882628
	H48	H	0.414252	0.122904	0.578436
	H49	H	0.603412	0.892676	0.580832
	H50	H	0.604845	0.124280	0.406014
	H51	H	0.417921	0.897822	0.400928
	H52	H	0.585137	0.421993	0.099272
	H53	H	0.595230	0.608526	0.870111
	H54	H	0.414464	0.602646	0.104917
	H55	H	0.413884	0.421926	0.874705
	H56	H	0.119369	0.597009	0.391852
	H57	H	0.893700	0.593037	0.568252
	H58	H	0.115185	0.426798	0.576723
	H59	H	0.890778	0.418290	0.399898
	H60	H	0.121342	0.416421	0.583012
	H61	H	0.889874	0.592815	0.580068
	H62	H	0.121112	0.604220	0.394220
	H63	H	0.890550	0.421494	0.396551
	H64	H	0.409005	0.597409	0.104459
	H65	H	0.598947	0.593186	0.873032
	H66	H	0.594618	0.414386	0.104476
	H67	H	0.417279	0.418613	0.874966
	H68	H	0.593512	0.126466	0.388909
	H69	H	0.591854	0.894090	0.586471
	H70	H	0.412791	0.123417	0.580587
	H71	H	0.418143	0.899077	0.402992
	H72	H	0.914064	0.622421	0.080108
	H73	H	0.098595	0.393967	0.076993
	H74	H	0.087424	0.624234	0.886598
	H75	H	0.913480	0.396878	0.902165
	H76	H	0.091858	0.919955	0.599937
	H77	H	0.092084	0.095385	0.374188
	H78	H	0.914059	0.105312	0.604065
	H79	H	0.911003	0.916034	0.371640
	H80	H	0.617143	0.095670	0.903384
	H81	H	0.391321	0.091290	0.083295
	H82	H	0.616089	0.923706	0.077283
	H83	H	0.390630	0.919213	0.896150
	H84	H	0.619766	0.918116	0.082111
	H85	H	0.387736	0.107126	0.079715
	H86	H	0.622253	0.098844	0.893320
	H87	H	0.390760	0.916573	0.900140
	H88	H	0.911653	0.092636	0.601160
	H89	H	0.092275	0.102686	0.371816
	H90	H	0.091810	0.914759	0.601626
	H91	H	0.913025	0.926454	0.375683
	H92	H	0.088316	0.618081	0.907139
	H93	H	0.089575	0.395343	0.080797
	H94	H	0.915826	0.620610	0.074524
	H95	H	0.910021	0.394845	0.896369
	H96	H	0.414677	0.122539	0.580539
	H97	H	0.593638	0.897711	0.573795
	H98	H	0.585188	0.117896	0.405500
	H99	H	0.415831	0.898148	0.401679
	H100	H	0.597598	0.427028	0.100561
	H101	H	0.584838	0.599403	0.877110
	H102	H	0.415797	0.596051	0.101748
	H103	H	0.413054	0.417745	0.873634
	H104	H	0.117958	0.598977	0.399153
	H105	H	0.888956	0.602942	0.573514
	H106	H	0.116867	0.415273	0.570147
	H107	H	0.889215	0.417322	0.395946
	H108	H	0.910504	0.622809	0.075245
	H109	H	0.091184	0.397923	0.071811
	H110	H	0.105222	0.627163	0.897964
	H111	H	0.917141	0.396638	0.895606
	H112	H	0.096505	0.917300	0.602618
	H113	H	0.097927	0.098426	0.371107
	H114	H	0.923057	0.097839	0.598098
	H115	H	0.921480	0.918585	0.375701
	H116	H	0.621982	0.106337	0.902043
	H117	H	0.394819	0.097937	0.068267
	H118	H	0.617721	0.916194	0.074232
	H119	H	0.392540	0.921111	0.900611
	C120	C	0.383316	0.017538	0.611483
	C121	C	0.627922	1.000153	0.611548
	C122	C	0.626074	0.018014	0.368057
	C123	C	0.384298	1.002439	0.368447
	C124	C	0.624289	0.389068	-0.003763
	C125	C	0.624869	0.630609	0.979299
	C126	C	0.381914	0.631009	-0.002306
	C127	C	0.382351	0.387762	0.979794
	C128	C	0.013418	0.630602	0.364440
	C129	C	0.995689	0.628591	0.606560
	C130	C	0.012521	0.386798	0.608550
	C131	C	0.996053	0.388021	0.365666
	C132	C	0.881527	0.517147	0.108692
	C133	C	0.124859	0.500834	0.108057
	C134	C	0.125344	0.518238	0.866017
	C135	C	0.881601	0.500848	0.865268
	C136	C	0.126123	0.887030	0.495661
	C137	C	0.125461	0.130171	0.478106
	C138	C	0.883963	0.130228	0.495824
	C139	C	0.883443	0.887200	0.479736
	C140	C	0.514516	0.130396	0.868354
	C141	C	0.496030	0.131793	0.109856
	C142	C	0.512848	0.887615	0.110954
	C143	C	0.497083	0.887454	0.867960
	C144	C	0.384098	0.896993	0.669197
	C145	C	0.628216	0.120472	0.668845
	C146	C	0.627952	0.899204	0.307798
	C147	C	0.381128	0.121220	0.307050
	C148	C	0.682594	0.388113	0.875171
	C149	C	0.684331	0.630855	0.099176
	C150	C	0.324948	0.632192	0.876597
	C151	C	0.322997	0.386700	0.100366
	C152	C	0.892678	0.688892	0.364365
	C153	C	0.115952	0.688252	0.609226
	C154	C	0.893017	0.326969	0.610624
	C155	C	0.116491	0.329615	0.363624
	C156	C	0.892960	0.384335	0.668627
	C157	C	0.115770	0.630513	0.666918
	C158	C	0.891838	0.629785	0.307980
	C159	C	0.116634	0.387721	0.306728
	C160	C	0.381879	0.690179	0.877260
	C161	C	0.625280	0.687416	0.100447
	C162	C	0.625718	0.330375	0.875895
	C163	C	0.380065	0.328072	0.100020
	C164	C	0.684867	0.898251	0.366836
	C165	C	0.686927	0.119869	0.612111
	C166	C	0.324226	0.897896	0.612732
	C167	C	0.323274	0.120956	0.364870
	C168	C	0.880189	0.397421	0.168265
	C169	C	0.125911	0.620539	0.166510
	C170	C	0.125220	0.397879	0.808378
	C171	C	0.879581	0.620190	0.804669
	C172	C	0.186775	0.887044	0.375895
	C173	C	0.183385	0.131261	0.599079
	C174	C	0.824092	0.131458	0.376032
	C175	C	0.825048	0.884932	0.600345
	C176	C	0.394137	0.188624	0.866690
	C177	C	0.615128	0.193008	0.113396
	C178	C	0.392638	0.828208	0.114060
	C179	C	0.617164	0.828160	0.867565
	C180	C	0.392811	0.886597	0.171215
	C181	C	0.615924	0.133822	0.169796
	C182	C	0.393762	0.129830	0.810046
	C183	C	0.617831	0.885795	0.809434
	C184	C	0.881132	0.189840	0.375566
	C185	C	0.127144	0.190070	0.597920
	C186	C	0.128542	0.829441	0.374928
	C187	C	0.880880	0.825281	0.598547
	C188	C	0.184669	0.398701	0.864862
	C189	C	0.184698	0.620158	0.110093
	C190	C	0.822734	0.397282	0.109970
	C191	C	0.822848	0.620808	0.863730
	C192	C	0.407115	0.101390	0.587130
	C193	C	0.603500	0.916515	0.587592
	C194	C	0.601450	0.101411	0.392857
	C195	C	0.410007	0.919712	0.394419
	C196	C	0.599537	0.413904	0.079753
	C197	C	0.600229	0.607278	0.895212
	C198	C	0.405986	0.606018	0.081786
	C199	C	0.407395	0.412456	0.896099
	C200	C	0.097474	0.606947	0.388311
	C201	C	0.912482	0.603638	0.581219
	C202	C	0.096161	0.412143	0.583759
	C203	C	0.912129	0.412094	0.390285
	C204	C	0.906388	0.600445	0.083747
	C205	C	0.100122	0.417473	0.083471
	C206	C	0.100788	0.601530	0.890192
	C207	C	0.906491	0.417887	0.890698
	C208	C	0.100757	0.910512	0.579439
	C209	C	0.101222	0.105744	0.394295
	C210	C	0.909052	0.105694	0.579257
	C211	C	0.908223	0.912871	0.395983
	C212	C	0.598543	0.106986	0.892552
	C213	C	0.412882	0.106133	0.084433
	C214	C	0.596058	0.912349	0.085340
	C215	C	0.413245	0.912004	0.892082
	Zn216	Zn	0.506460	0.008948	0.739641
	Zn217	Zn	0.504398	0.010413	0.238302
	Zn218	Zn	0.752867	0.508747	-0.013159
	Zn219	Zn	0.254483	0.509263	-0.012191
	Zn220	Zn	0.004612	0.758578	0.486224
	Zn221	Zn	0.004946	0.258926	0.486530
	Zn222	Zn	0.003642	0.509043	0.736844
	Zn223	Zn	0.004228	0.508319	0.236783
	Zn224	Zn	0.503543	0.758991	-0.010465
	Zn225	Zn	0.504734	0.260067	-0.011324
	Zn226	Zn	0.755592	0.008778	0.489036
	Zn227	Zn	0.254216	0.009588	0.488456
	N228	N	0.419965	0.972529	0.668577
	N229	N	0.592387	0.044958	0.668459
	N230	N	0.592582	0.974814	0.308233
	N231	N	0.418528	0.046643	0.309352
	N232	N	0.681864	0.424101	0.950922
	N233	N	0.684547	0.596814	0.022735
	N234	N	0.324738	0.596291	0.952602
	N235	N	0.324311	0.423239	0.024589
	N236	N	0.969268	0.689765	0.398239
	N237	N	0.040711	0.687029	0.572145
	N238	N	0.968628	0.328462	0.574103
	N239	N	0.040499	0.329652	0.399537
	N240	N	0.968435	0.420932	0.667521
	N241	N	0.039955	0.594516	0.665776
	N242	N	0.968014	0.594652	0.307557
	N243	N	0.040748	0.423447	0.307969
	N244	N	0.416329	0.689685	0.953802
	N245	N	0.589030	0.687329	0.024772
	N246	N	0.590168	0.330828	0.952108
	N247	N	0.416194	0.328635	0.024154
	N248	N	0.683967	0.973305	0.403485
	N249	N	0.687184	0.043813	0.577433
	N250	N	0.323470	0.973945	0.577534
	N251	N	0.325342	0.046125	0.402551
	N252	N	0.915977	0.473054	0.167631
	N253	N	0.089245	0.545332	0.165258
	N254	N	0.089232	0.473299	0.808897
	N255	N	0.915317	0.544727	0.805421
	N256	N	0.185585	0.921928	0.452035
	N257	N	0.182442	0.094876	0.523678
	N258	N	0.825650	0.095006	0.451552
	N259	N	0.826704	0.922904	0.525332
	N260	N	0.470292	0.189343	0.901818
	N261	N	0.539611	0.191729	0.077076
	N262	N	0.468132	0.828552	0.077282
	N263	N	0.541016	0.829013	0.903246
	N264	N	0.468493	0.922770	0.169364
	N265	N	0.540717	0.096563	0.167777
	N266	N	0.469685	0.094284	0.810875
	N267	N	0.542170	0.922038	0.809739
	N268	N	0.917245	0.189476	0.451295
	N269	N	0.092090	0.189717	0.521570
	N270	N	0.091701	0.829153	0.450517
	N271	N	0.916642	0.826863	0.522489
	N272	N	0.185068	0.474530	0.899762
	N273	N	0.184175	0.544736	0.074447
	N274	N	0.823302	0.472846	0.073734
	N275	N	0.823964	0.545575	0.900745
	O276	O	-0.164920	1.200776	-0.133486
	H277	H	-0.163753	1.217185	-0.132151
	H278	H	-0.172500	1.159365	-0.135963
	O279	O	0.484298	0.333401	0.314594
	H280	H	0.465607	0.338250	0.329778
	H281	H	0.479568	0.323295	0.307461
	O282	O	-0.197315	0.095677	-0.210992
	H283	H	-0.191277	0.086662	-0.213620
	H284	H	-0.208981	0.071174	-0.225528
	O285	O	1.178095	1.141925	-0.011515
	H286	H	1.167144	1.133739	-0.002864
	H287	H	1.195194	1.155262	-0.007051
	O288	O	0.462643	0.617570	0.333224
	H289	H	0.458612	0.624505	0.326950
	H290	H	0.485603	0.616740	0.338795
	O291	O	0.540896	0.662086	0.329622
	H292	H	0.513324	0.664182	0.334707
	H293	H	0.535725	0.660145	0.337648
	O294	O	1.030146	0.806213	0.778589
	H295	H	1.062282	0.814255	0.778625
	H296	H	1.040791	0.786954	0.761039
	O297	O	0.314358	0.559525	0.497919
	H298	H	0.316396	0.550736	0.489516
	H299	H	0.306114	0.553568	0.503156
	O300	O	0.596605	0.533790	0.646980
	H301	H	0.608718	0.514909	0.645962
	H302	H	0.591034	0.538746	0.660085
	O303	O	1.178046	0.189691	1.161098
	H304	H	1.162199	0.175123	1.168987
	H305	H	1.177812	0.166230	1.157074
	O306	O	0.167249	0.195817	0.833444
	H307	H	0.145946	0.183244	0.832389
	H308	H	0.162659	0.190619	0.867098
	O309	O	0.668063	-0.541465	0.308929
	H310	H	0.672551	-0.535348	0.292406
	H311	H	0.663312	-0.546476	0.308252
	O312	O	0.649247	0.684253	0.354680
	H313	H	0.652739	0.667276	0.368677
	H314	H	0.627395	0.689353	0.361426
	O315	O	0.349999	0.439449	0.664523
	H316	H	0.344015	0.446049	0.681520
	H317	H	0.356588	0.441691	0.661634
	O318	O	-0.028633	-0.129981	-0.048437
	H319	H	-0.014938	-0.126482	-0.066305
	H320	H	-0.019534	-0.125599	-0.054683
	O321	O	0.686482	0.455676	0.639222
	H322	H	0.689832	0.444976	0.617608
	H323	H	0.688377	0.459957	0.654896
	O324	O	0.807385	0.079627	1.071562
	H325	H	0.803850	0.063993	1.064397
	H326	H	0.809683	0.076825	1.091244
	O327	O	0.795824	-0.194948	1.017592
	H328	H	0.803101	-0.187552	0.996729
	H329	H	0.797567	-0.214629	1.008088
	O330	O	0.019604	0.997215	1.055833
	H331	H	0.027426	0.998290	1.070046
	H332	H	0.017113	0.995925	1.051790
	O333	O	-0.206617	0.984382	0.137846
	H334	H	-0.204763	0.971384	0.158089
	H335	H	-0.220098	0.955034	0.144915
	O336	O	1.011668	1.193300	0.187746
	H337	H	1.005964	1.204442	0.197042
	H338	H	1.011420	1.188524	0.194970
	O339	O	-0.156263	1.170422	1.035021
	H340	H	-0.171887	1.151850	1.044026
	H341	H	-0.162030	1.174168	1.019080
	O342	O	0.345733	0.500228	0.389527
	H343	H	0.337236	0.502899	0.371751
	H344	H	0.348447	0.507215	0.403571
	O345	O	0.073583	0.214231	0.989215
	H346	H	0.072574	0.209176	0.994294
	H347	H	0.070410	0.214781	1.001744
	O348	O	0.582515	0.412122	0.646082
	H349	H	0.597498	0.394682	0.628928
	H350	H	0.577934	0.408217	0.662921
	O351	O	1.106775	1.005798	0.071321
	H352	H	1.106803	0.996695	0.068594
	H353	H	1.110154	0.991648	0.087535
	O354	O	0.973460	0.795382	1.201486
	H355	H	0.972455	0.768187	1.219292
	H356	H	0.940264	0.796684	1.199536
	O357	O	-0.546899	-0.519953	0.508448
	H358	H	-0.545840	-0.521493	0.513788
	H359	H	-0.556462	-0.530203	0.503249
	O360	O	0.458555	0.607658	0.609045
	H361	H	0.465989	0.594031	0.602459
	H362	H	0.465473	0.602508	0.619726
	O363	O	0.991182	0.107402	0.024618
	H364	H	1.007949	0.118572	0.031869
	H365	H	0.984285	0.104233	0.036226
	O366	O	-0.521716	-0.517643	1.360816
	H367	H	-0.530807	-0.524752	1.375923
	H368	H	-0.516521	-0.512809	1.358619
	O369	O	1.159538	0.022938	1.034344
	H370	H	1.157009	0.024478	1.035669
	H371	H	1.163270	0.016607	1.025450
	O372	O	0.485010	0.589510	0.632563
	H373	H	0.495378	0.582722	0.624176
	H374	H	0.498202	0.586289	0.619894
	O375	O	0.064668	-0.192820	1.052770
	H376	H	0.070252	-0.170557	1.048622
	H377	H	0.041077	-0.200525	1.057760
	O378	O	0.664551	0.558342	0.445156
	H379	H	0.668090	0.549693	0.458719
	H380	H	0.663035	0.552941	0.439043
	O381	O	0.313490	0.308698	0.651663
	H382	H	0.320339	0.334377	0.658122
	H383	H	0.291653	0.284113	0.674380
	O384	O	0.640430	0.326112	0.311071
	H385	H	0.638056	0.351720	0.309166
	H386	H	0.609252	0.319012	0.297474
	O387	O	0.619207	0.647397	0.625497
	H388	H	0.619414	0.643277	0.617496
	H389	H	0.620123	0.651200	0.618511
	O390	O	1.192691	0.827146	-0.197360
	H391	H	1.208906	0.850260	-0.199444
	H392	H	1.205129	0.827237	-0.176190
	O393	O	1.189870	-0.011301	0.800660
	H394	H	1.183509	0.000527	0.801810
	H395	H	1.189372	-0.003577	0.783553
	O396	O	0.350014	0.315759	0.492965
	H397	H	0.331549	0.315172	0.505676
	H398	H	0.352765	0.303395	0.504636
	O399	O	-0.149107	0.964622	0.866282
	H400	H	-0.139698	0.954546	0.849175
	H401	H	-0.150438	0.962966	0.882712
	O402	O	0.950558	0.909524	-0.176586
	H403	H	0.968539	0.892575	-0.183232
	H404	H	0.956720	0.917143	-0.162658
	O405	O	0.323138	0.634317	0.420589
	H406	H	0.327542	0.616680	0.430773
	H407	H	0.313973	0.636154	0.438939
	O408	O	0.486019	0.299918	0.641589
	H409	H	0.481248	0.294321	0.636319
	H410	H	0.493628	0.290456	0.651544
	O411	O	0.906632	0.972247	1.117553
	H412	H	0.907786	0.976536	1.123963
	H413	H	0.904540	0.960857	1.121043
	O414	O	0.630558	0.595472	0.425892
	H415	H	0.628326	0.590394	0.444362
	H416	H	0.618860	0.591766	0.423530
	O417	O	-0.193265	0.812791	1.182115
	H418	H	-0.207321	0.796956	1.201554
	H419	H	-0.198190	0.812315	1.133166
	O420	O	0.213500	0.811219	0.965075
	H421	H	0.212906	0.799271	0.964991
	H422	H	0.216440	0.794733	0.973063
	O423	O	-0.009701	1.182698	-0.200716
	H424	H	-0.016517	1.200907	-0.214271
	H425	H	-0.039726	1.180597	-0.191880
	O426	O	0.429047	0.660810	0.577712
	H427	H	0.426899	0.647389	0.573516
	H428	H	0.432467	0.655484	0.590323
	O429	O	0.556579	0.582643	0.568200
	H430	H	0.554515	0.577838	0.561374
	H431	H	0.559197	0.584588	0.575597
	O432	O	1.168472	-0.037034	0.121096
	H433	H	1.143598	-0.043682	0.116077
	H434	H	1.176056	-0.056916	0.131585
	O435	O	0.060046	0.078218	-0.217305
	H436	H	0.041578	0.082179	-0.207317
	H437	H	0.044014	0.085990	-0.218686
	O438	O	-0.306895	1.305245	1.477817
	H439	H	-0.289922	1.283899	1.466465
	H440	H	-0.317807	1.313627	1.443266
	O441	O	0.325028	0.659581	0.304925
	H442	H	0.319105	0.660816	0.324158
	H443	H	0.333518	0.649431	0.312075
