data_Molecule from HDF5

_cell_length_a		16.298806
_cell_length_b		16.227257
_cell_length_c		16.214952
_cell_angle_alpha	90.185368
_cell_angle_beta	90.337938
_cell_angle_gamma	89.325114
_symmetry_space_group_name_H-M	'P 1'
_symmetry_Int_Tables_number		1

loop_
	_symmetry_equiv_pos_as_xyz
	x,y,z

loop_
	_atom_site_label
	_atom_site_type_symbol
	_atom_site_fract_x
	_atom_site_fract_y
	_atom_site_fract_z
	H0	H	0.405912	0.840062	0.707877
	H1	H	0.600263	0.167974	0.711406
	H2	H	0.602295	0.839803	0.282264
	H3	H	0.401321	0.168223	0.279195
	H4	H	0.719246	0.401979	0.834007
	H5	H	0.715207	0.602797	0.160844
	H6	H	0.283252	0.604239	0.834118
	H7	H	0.291111	0.405689	0.161530
	H8	H	0.839798	0.723846	0.397842
	H9	H	0.167199	0.718005	0.599731
	H10	H	0.838281	0.293519	0.597369
	H11	H	0.165411	0.289375	0.401990
	H12	H	0.838003	0.409867	0.711995
	H13	H	0.166098	0.603055	0.716646
	H14	H	0.839434	0.608658	0.281741
	H15	H	0.165907	0.404640	0.286365
	H16	H	0.400377	0.718687	0.832041
	H17	H	0.600339	0.718092	0.160062
	H18	H	0.602883	0.288175	0.832425
	H19	H	0.408102	0.290641	0.160081
	H20	H	0.722439	0.842784	0.394060
	H21	H	0.714227	0.169841	0.596003
	H22	H	0.288992	0.841333	0.593197
	H23	H	0.284315	0.168689	0.393038
	H24	H	0.906254	0.340564	0.212157
	H25	H	0.099588	0.669169	0.214734
	H26	H	0.100624	0.341624	0.785776
	H27	H	0.900224	0.669658	0.785414
	H28	H	0.215183	0.904940	0.330745
	H29	H	0.220017	0.105228	0.659054
	H30	H	0.786833	0.106302	0.332404
	H31	H	0.789020	0.909348	0.660040
	H32	H	0.341208	0.222647	0.892867
	H33	H	0.667755	0.215303	0.095586
	H34	H	0.339179	0.792861	0.091489
	H35	H	0.665604	0.784524	0.895792
	H36	H	0.339782	0.904657	0.210473
	H37	H	0.666022	0.101622	0.212546
	H38	H	0.340157	0.103903	0.779377
	H39	H	0.667151	0.901751	0.780866
	H40	H	0.901555	0.222012	0.333466
	H41	H	0.099604	0.216047	0.662907
	H42	H	0.101595	0.787781	0.333451
	H43	H	0.906499	0.795567	0.662331
	H44	H	0.217078	0.341717	0.899840
	H45	H	0.218628	0.668271	0.102851
	H46	H	0.788571	0.340844	0.097806
	H47	H	0.782604	0.667343	0.898682
	H48	H	0.411818	0.123613	0.595678
	H49	H	0.597796	0.885666	0.593598
	H50	H	0.595294	0.121775	0.405834
	H51	H	0.420907	0.888686	0.394904
	H52	H	0.605979	0.410288	0.116902
	H53	H	0.592822	0.598493	0.877494
	H54	H	0.410223	0.595538	0.113292
	H55	H	0.409885	0.408441	0.878186
	H56	H	0.116259	0.590898	0.410851
	H57	H	0.890020	0.596920	0.582997
	H58	H	0.115148	0.417687	0.587334
	H59	H	0.883213	0.412858	0.400464
	H60	H	0.120365	0.413256	0.602641
	H61	H	0.885034	0.597003	0.602186
	H62	H	0.120152	0.595766	0.402063
	H63	H	0.885410	0.411495	0.409236
	H64	H	0.413650	0.599826	0.112832
	H65	H	0.597738	0.591134	0.878954
	H66	H	0.591630	0.417082	0.110929
	H67	H	0.403467	0.414372	0.878946
	H68	H	0.593212	0.122697	0.400634
	H69	H	0.592346	0.890763	0.582649
	H70	H	0.416654	0.117358	0.580773
	H71	H	0.410346	0.892353	0.414253
	H72	H	0.903943	0.619493	0.081572
	H73	H	0.099804	0.385527	0.096411
	H74	H	0.092456	0.621837	0.911080
	H75	H	0.914399	0.389616	0.905346
	H76	H	0.104866	0.902055	0.618693
	H77	H	0.108393	0.096129	0.375644
	H78	H	0.906116	0.101880	0.615187
	H79	H	0.907402	0.920143	0.379523
	H80	H	0.616285	0.086291	0.908923
	H81	H	0.386829	0.107927	0.078545
	H82	H	0.620044	0.904528	0.088572
	H83	H	0.383147	0.908045	0.893851
	H84	H	0.617875	0.911442	0.084537
	H85	H	0.392051	0.086757	0.081064
	H86	H	0.621897	0.092354	0.892843
	H87	H	0.387730	0.909111	0.906405
	H88	H	0.906464	0.098343	0.613794
	H89	H	0.083987	0.086461	0.385302
	H90	H	0.106362	0.924336	0.612701
	H91	H	0.918216	0.915582	0.382461
	H92	H	0.094223	0.623921	0.907157
	H93	H	0.091271	0.390348	0.091981
	H94	H	0.902076	0.625006	0.097002
	H95	H	0.907662	0.387691	0.907894
	H96	H	0.400994	0.123014	0.583515
	H97	H	0.605136	0.887032	0.582755
	H98	H	0.589683	0.120762	0.404782
	H99	H	0.399641	0.882975	0.396667
	H100	H	0.592223	0.401267	0.115163
	H101	H	0.589501	0.591443	0.881562
	H102	H	0.409073	0.600516	0.114866
	H103	H	0.412188	0.416095	0.881476
	H104	H	0.118373	0.600685	0.410756
	H105	H	0.883085	0.614153	0.591768
	H106	H	0.120151	0.401750	0.590704
	H107	H	0.886788	0.419408	0.405496
	H108	H	0.916557	0.619252	0.091931
	H109	H	0.099529	0.389550	0.086550
	H110	H	0.089661	0.622002	0.907186
	H111	H	0.909432	0.386073	0.900083
	H112	H	0.086399	0.913440	0.610405
	H113	H	0.086335	0.113166	0.377517
	H114	H	0.910168	0.100662	0.614310
	H115	H	0.909503	0.907763	0.378122
	H116	H	0.621587	0.103962	0.907364
	H117	H	0.383411	0.098799	0.098419
	H118	H	0.619871	0.912437	0.092903
	H119	H	0.388352	0.918876	0.898474
	C120	C	0.382001	0.013105	0.615311
	C121	C	0.625115	0.996262	0.616392
	C122	C	0.623635	0.013666	0.374251
	C123	C	0.380296	0.996079	0.372162
	C124	C	0.625070	0.381132	0.005620
	C125	C	0.622348	0.623689	0.987811
	C126	C	0.379796	0.627359	0.005534
	C127	C	0.381551	0.383606	0.988076
	C128	C	0.010607	0.626875	0.377712
	C129	C	0.994648	0.629209	0.621772
	C130	C	0.010104	0.384082	0.620964
	C131	C	0.993206	0.384256	0.377323
	C132	C	0.880303	0.513068	0.119407
	C133	C	0.124840	0.496614	0.121491
	C134	C	0.122276	0.514335	0.878703
	C135	C	0.879747	0.496133	0.876030
	C136	C	0.126275	0.883224	0.505225
	C137	C	0.122563	0.126382	0.488150
	C138	C	0.878678	0.129386	0.505783
	C139	C	0.883282	0.886616	0.488627
	C140	C	0.512394	0.125078	0.873289
	C141	C	0.495259	0.125283	0.116288
	C142	C	0.511080	0.882141	0.116651
	C143	C	0.494332	0.881312	0.871649
	C144	C	0.385309	0.889380	0.670351
	C145	C	0.621135	0.119448	0.673129
	C146	C	0.622551	0.889284	0.319642
	C147	C	0.381317	0.119332	0.317000
	C148	C	0.680693	0.382590	0.882421
	C149	C	0.677455	0.622801	0.111541
	C150	C	0.321999	0.624675	0.882691
	C151	C	0.328618	0.385855	0.112203
	C152	C	0.888497	0.685017	0.378213
	C153	C	0.117854	0.681505	0.619877
	C154	C	0.887154	0.330764	0.617504
	C155	C	0.116393	0.327202	0.380619
	C156	C	0.886870	0.389004	0.674467
	C157	C	0.117356	0.624459	0.678200
	C158	C	0.888300	0.627356	0.320596
	C159	C	0.116762	0.384701	0.323248
	C160	C	0.380385	0.681346	0.881378
	C161	C	0.620531	0.680192	0.110959
	C162	C	0.623193	0.325774	0.881662
	C163	C	0.386490	0.328160	0.111152
	C164	C	0.682446	0.890963	0.374937
	C165	C	0.677851	0.120249	0.615714
	C166	C	0.326998	0.890075	0.613420
	C167	C	0.322864	0.119305	0.373344
	C168	C	0.884730	0.389688	0.174709
	C169	C	0.121023	0.620144	0.177081
	C170	C	0.120802	0.390856	0.823231
	C171	C	0.880114	0.619986	0.822078
	C172	C	0.178954	0.884496	0.380784
	C173	C	0.180190	0.124608	0.611038
	C174	C	0.823768	0.127178	0.381958
	C175	C	0.827334	0.889004	0.611551
	C176	C	0.389766	0.183115	0.873703
	C177	C	0.618227	0.178695	0.115312
	C178	C	0.388042	0.829397	0.112785
	C179	C	0.617155	0.823701	0.875066
	C180	C	0.388451	0.885346	0.171967
	C181	C	0.617528	0.122023	0.173626
	C182	C	0.389364	0.124179	0.817134
	C183	C	0.617819	0.881960	0.817887
	C184	C	0.880916	0.184795	0.382602
	C185	C	0.120530	0.179770	0.612816
	C186	C	0.122859	0.825897	0.382157
	C187	C	0.885908	0.832528	0.612747
	C188	C	0.178814	0.390920	0.880031
	C189	C	0.180159	0.619489	0.121227
	C190	C	0.826109	0.389785	0.118070
	C191	C	0.821905	0.618804	0.878734
	C192	C	0.403472	0.099127	0.593092
	C193	C	0.604542	0.910172	0.593335
	C194	C	0.599683	0.099450	0.396769
	C195	C	0.403529	0.910091	0.395020
	C196	C	0.603125	0.403092	0.091837
	C197	C	0.600048	0.600542	0.901669
	C198	C	0.403752	0.605269	0.091400
	C199	C	0.402321	0.406133	0.901846
	C200	C	0.096273	0.602687	0.401165
	C201	C	0.908320	0.608805	0.599111
	C202	C	0.096301	0.404904	0.599835
	C203	C	0.907481	0.407703	0.398624
	C204	C	0.901287	0.598972	0.096920
	C205	C	0.103260	0.410661	0.098510
	C206	C	0.098884	0.600333	0.901741
	C207	C	0.903581	0.410046	0.898041
	C208	C	0.105385	0.906506	0.591518
	C209	C	0.099675	0.104782	0.402009
	C210	C	0.900999	0.106867	0.592242
	C211	C	0.905333	0.908128	0.402439
	C212	C	0.597775	0.101224	0.896442
	C213	C	0.409580	0.103851	0.092841
	C214	C	0.597162	0.903201	0.095081
	C215	C	0.408656	0.904944	0.893058
	Zn216	Zn	0.503610	0.003750	0.743866
	Zn217	Zn	0.502505	0.003881	0.245145
	Zn218	Zn	0.751475	0.503353	-0.002067
	Zn219	Zn	0.252185	0.505425	-0.001084
	Zn220	Zn	0.003754	0.756658	0.498549
	Zn221	Zn	0.001235	0.255732	0.498720
	Zn222	Zn	0.001873	0.506370	0.749295
	Zn223	Zn	0.002149	0.505213	0.248656
	Zn224	Zn	0.502749	0.753693	-0.005055
	Zn225	Zn	0.504446	0.254064	-0.005016
	Zn226	Zn	0.752748	0.006494	0.495730
	Zn227	Zn	0.252887	0.005448	0.494418
	N228	N	0.418924	0.966852	0.671530
	N229	N	0.588978	0.041385	0.673760
	N230	N	0.586412	0.966489	0.319285
	N231	N	0.416014	0.041691	0.316052
	N232	N	0.682345	0.416093	0.960463
	N233	N	0.678437	0.588185	0.034154
	N234	N	0.321310	0.592132	0.961144
	N235	N	0.325255	0.419520	0.034498
	N236	N	0.965740	0.684830	0.412918
	N237	N	0.040370	0.684697	0.585797
	N238	N	0.964838	0.327615	0.584986
	N239	N	0.038742	0.326762	0.413568
	N240	N	0.964401	0.421792	0.676552
	N241	N	0.039426	0.592649	0.679538
	N242	N	0.965423	0.591971	0.320252
	N243	N	0.039258	0.419401	0.320947
	N244	N	0.415575	0.683115	0.958601
	N245	N	0.586880	0.680909	0.032818
	N246	N	0.589361	0.324868	0.959130
	N247	N	0.418792	0.326829	0.032978
	N248	N	0.683162	0.969095	0.408220
	N249	N	0.680360	0.042786	0.581080
	N250	N	0.324885	0.967845	0.579955
	N251	N	0.321995	0.041472	0.406861
	N252	N	0.917553	0.467416	0.175952
	N253	N	0.087429	0.542850	0.177352
	N254	N	0.086324	0.468722	0.822236
	N255	N	0.915491	0.542719	0.820323
	N256	N	0.181293	0.919366	0.458258
	N257	N	0.181741	0.092040	0.532494
	N258	N	0.822280	0.093572	0.459718
	N259	N	0.825619	0.921830	0.533407
	N260	N	0.467116	0.183673	0.907869
	N261	N	0.541083	0.180934	0.080313
	N262	N	0.465305	0.827326	0.079162
	N263	N	0.539483	0.823003	0.907698
	N264	N	0.466113	0.917589	0.174238
	N265	N	0.539862	0.089414	0.174443
	N266	N	0.466443	0.088685	0.816813
	N267	N	0.540455	0.916944	0.815591
	N268	N	0.914566	0.185940	0.460610
	N269	N	0.085419	0.181034	0.535442
	N270	N	0.091066	0.824883	0.460573
	N271	N	0.919911	0.830779	0.535240
	N272	N	0.179656	0.468729	0.913842
	N273	N	0.182602	0.541640	0.087232
	N274	N	0.823503	0.467324	0.084013
	N275	N	0.821439	0.540645	0.911305
	O276	O	0.040009	-0.017365	-0.009301
	H277	H	0.045740	-0.018410	0.002579
	H278	H	0.039561	-0.008800	-0.001500
	O279	O	0.442217	0.486046	0.538089
	H280	H	0.450669	0.485058	0.537659
	H281	H	0.448925	0.499908	0.540188
	O282	O	0.504961	0.576879	0.513787
	H283	H	0.496619	0.566686	0.514884
	H284	H	0.510108	0.589705	0.510666
	O285	O	1.006519	-0.028515	0.991933
	H286	H	1.000626	-0.035769	0.991492
	H287	H	1.007081	-0.022555	0.995716
	O288	O	1.028437	-0.044017	0.062392
	H289	H	1.039133	-0.055999	0.055898
	H290	H	1.015714	-0.041572	0.065339
	O291	O	0.460883	0.491074	0.473703
	H292	H	0.473217	0.494112	0.469004
	H293	H	0.455675	0.491411	0.462904
	O294	O	1.029210	-0.022646	0.932383
	H295	H	1.023151	-0.030227	0.930006
	H296	H	1.028293	-0.022782	0.934776
	O297	O	0.053337	-0.020520	-0.022662
	H298	H	0.048210	-0.019719	-0.024908
	H299	H	0.053001	-0.019256	-0.026511
	O300	O	0.494115	0.541385	0.541136
	H301	H	0.499046	0.533560	0.540553
	H302	H	0.511754	0.552960	0.541089
	O303	O	0.612202	0.447590	0.456366
	H304	H	0.619865	0.444731	0.466171
	H305	H	0.613038	0.435344	0.455002
	O306	O	1.016662	0.056723	-0.028821
	H307	H	1.013080	0.069215	-0.029392
	H308	H	1.017097	0.050681	-0.035238
	O309	O	0.036307	0.028335	0.989835
	H310	H	0.029943	0.022089	0.986774
	H311	H	0.036289	0.028697	0.989043
	O312	O	1.080471	1.034845	1.029018
	H313	H	1.084296	1.026336	1.023560
	H314	H	1.084220	1.036601	1.030743
	O315	O	0.498938	0.388776	0.485932
	H316	H	0.493084	0.391187	0.493959
	H317	H	0.490785	0.388520	0.487368
	O318	O	0.523492	0.526486	0.525394
	H319	H	0.524440	0.528972	0.525835
	H320	H	0.510170	0.527988	0.527657
	O321	O	-0.051771	1.014338	0.976232
	H322	H	-0.049837	1.016271	0.981940
	H323	H	-0.056898	1.018990	0.984835
	O324	O	0.462770	0.485560	0.453737
	H325	H	0.458406	0.500987	0.450177
	H326	H	0.456440	0.486292	0.454626
	O327	O	0.590579	0.511341	0.570080
	H328	H	0.585590	0.517239	0.571667
	H329	H	0.588173	0.511268	0.572157
	O330	O	0.582279	0.482237	0.464303
	H331	H	0.584655	0.477716	0.459529
	H332	H	0.590356	0.463324	0.450534
	O333	O	0.374904	0.479628	0.492792
	H334	H	0.371635	0.476373	0.494535
	H335	H	0.372261	0.496207	0.502695
	O336	O	0.447967	0.523150	0.510288
	H337	H	0.442517	0.526822	0.517968
	H338	H	0.452363	0.531647	0.506380
	O339	O	1.072188	0.971842	-0.028375
	H340	H	1.071644	0.967478	-0.035535
	H341	H	1.070732	0.976063	-0.032549
	O342	O	0.549125	0.418035	0.468106
	H343	H	0.543904	0.410160	0.461534
	H344	H	0.545558	0.419270	0.473689
	O345	O	0.458320	0.615531	0.512050
	H346	H	0.465114	0.616391	0.496701
	H347	H	0.457015	0.626382	0.514126
	O348	O	0.061023	0.046939	-0.004436
	H349	H	0.067958	0.053976	-0.009459
	H350	H	0.067331	0.043330	-0.008070
	O351	O	0.048388	1.009199	1.046579
	H352	H	0.056180	1.007147	1.048394
	H353	H	0.055834	1.017806	1.044462
	O354	O	0.515741	0.525047	0.442877
	H355	H	0.520897	0.510093	0.455475
	H356	H	0.507172	0.528796	0.432164
	O357	O	0.032060	1.040801	1.049987
	H358	H	0.043371	1.045731	1.044037
	H359	H	0.041326	1.045424	1.047100
