data_Molecule from HDF5

_cell_length_a		16.268149
_cell_length_b		16.377378
_cell_length_c		16.095818
_cell_angle_alpha	90.196379
_cell_angle_beta	90.249994
_cell_angle_gamma	89.921154
_symmetry_space_group_name_H-M	'P 1'
_symmetry_Int_Tables_number		1

loop_
	_symmetry_equiv_pos_as_xyz
	x,y,z

loop_
	_atom_site_label
	_atom_site_type_symbol
	_atom_site_fract_x
	_atom_site_fract_y
	_atom_site_fract_z
	H0	H	0.404756	0.843442	0.715648
	H1	H	0.601804	0.168605	0.715833
	H2	H	0.602091	0.843250	0.285130
	H3	H	0.406150	0.168936	0.288722
	H4	H	0.718480	0.405629	0.835101
	H5	H	0.719664	0.604594	0.166387
	H6	H	0.289325	0.603485	0.836739
	H7	H	0.293247	0.409022	0.166447
	H8	H	0.841251	0.717842	0.401053
	H9	H	0.166168	0.722539	0.607492
	H10	H	0.840994	0.286861	0.602548
	H11	H	0.165996	0.284151	0.398772
	H12	H	0.840163	0.406408	0.715225
	H13	H	0.169839	0.599436	0.713957
	H14	H	0.841051	0.600638	0.287466
	H15	H	0.168918	0.405320	0.289240
	H16	H	0.403006	0.720033	0.836263
	H17	H	0.606243	0.722048	0.165630
	H18	H	0.605118	0.288067	0.836319
	H19	H	0.405596	0.292251	0.166149
	H20	H	0.718241	0.842093	0.400094
	H21	H	0.722941	0.166104	0.604471
	H22	H	0.288224	0.843098	0.601877
	H23	H	0.284475	0.165767	0.399972
	H24	H	0.907575	0.340178	0.214628
	H25	H	0.105494	0.666068	0.219394
	H26	H	0.103433	0.341531	0.787320
	H27	H	0.905594	0.666759	0.786557
	H28	H	0.217041	0.903524	0.336537
	H29	H	0.218761	0.104661	0.665389
	H30	H	0.789990	0.100609	0.335955
	H31	H	0.789608	0.905404	0.666291
	H32	H	0.341306	0.222967	0.898506
	H33	H	0.667614	0.222110	0.102882
	H34	H	0.341667	0.788211	0.102841
	H35	H	0.665856	0.786971	0.896719
	H36	H	0.339242	0.910258	0.212497
	H37	H	0.668263	0.103450	0.215996
	H38	H	0.339777	0.104808	0.786204
	H39	H	0.668063	0.908987	0.786961
	H40	H	0.898937	0.220045	0.337679
	H41	H	0.105081	0.220147	0.664522
	H42	H	0.103695	0.785646	0.337665
	H43	H	0.903844	0.789426	0.667501
	H44	H	0.221006	0.342567	0.900968
	H45	H	0.222499	0.666197	0.105582
	H46	H	0.786516	0.342908	0.101729
	H47	H	0.787207	0.665439	0.897411
	H48	H	0.409097	0.121657	0.591959
	H49	H	0.598812	0.889865	0.589468
	H50	H	0.593690	0.119802	0.410761
	H51	H	0.406769	0.889216	0.409734
	H52	H	0.607707	0.422520	0.119310
	H53	H	0.592872	0.602888	0.882919
	H54	H	0.415472	0.592788	0.116742
	H55	H	0.406224	0.406697	0.879136
	H56	H	0.121199	0.594236	0.412518
	H57	H	0.884412	0.600032	0.601867
	H58	H	0.122725	0.409215	0.601036
	H59	H	0.884211	0.405651	0.403308
	H60	H	0.120911	0.402718	0.588718
	H61	H	0.888873	0.603203	0.586044
	H62	H	0.121620	0.596483	0.411253
	H63	H	0.889510	0.407848	0.416596
	H64	H	0.419229	0.603864	0.119345
	H65	H	0.601926	0.595793	0.882536
	H66	H	0.585232	0.418224	0.112588
	H67	H	0.409120	0.422081	0.884567
	H68	H	0.601406	0.121005	0.413441
	H69	H	0.598860	0.888723	0.596216
	H70	H	0.409819	0.121159	0.593630
	H71	H	0.409270	0.887171	0.402185
	H72	H	0.905292	0.620903	0.094357
	H73	H	0.109419	0.383497	0.098227
	H74	H	0.092059	0.617973	0.909942
	H75	H	0.918608	0.389173	0.905878
	H76	H	0.098228	0.915424	0.618985
	H77	H	0.098634	0.091195	0.382776
	H78	H	0.909006	0.087096	0.617995
	H79	H	0.911597	0.909863	0.383893
	H80	H	0.621702	0.099286	0.907353
	H81	H	0.383673	0.112859	0.093035
	H82	H	0.619359	0.912802	0.090158
	H83	H	0.388023	0.909004	0.913445
	H84	H	0.619809	0.915867	0.092990
	H85	H	0.392067	0.095883	0.082423
	H86	H	0.619434	0.099854	0.913039
	H87	H	0.389281	0.917606	0.909376
	H88	H	0.922517	0.097050	0.616254
	H89	H	0.088452	0.091419	0.385776
	H90	H	0.091837	0.911351	0.618141
	H91	H	0.911536	0.909230	0.384077
	H92	H	0.102021	0.619398	0.915240
	H93	H	0.090606	0.389549	0.099623
	H94	H	0.917288	0.619835	0.101203
	H95	H	0.911599	0.392117	0.917186
	H96	H	0.410635	0.120872	0.591892
	H97	H	0.592984	0.890510	0.592694
	H98	H	0.599582	0.122463	0.405867
	H99	H	0.413981	0.890736	0.407938
	H100	H	0.597953	0.401316	0.122282
	H101	H	0.591798	0.592631	0.885768
	H102	H	0.408566	0.600869	0.120954
	H103	H	0.421872	0.410907	0.884574
	H104	H	0.120700	0.596585	0.413770
	H105	H	0.890910	0.587547	0.592488
	H106	H	0.117905	0.415610	0.590341
	H107	H	0.890012	0.417989	0.406747
	H108	H	0.916142	0.616555	0.086940
	H109	H	0.100811	0.392347	0.082830
	H110	H	0.100882	0.623140	0.903891
	H111	H	0.905872	0.384958	0.906218
	H112	H	0.097900	0.908331	0.620442
	H113	H	0.093256	0.099649	0.381378
	H114	H	0.907706	0.102942	0.622673
	H115	H	0.910539	0.909114	0.384665
	H116	H	0.618981	0.094647	0.910645
	H117	H	0.387034	0.094358	0.103032
	H118	H	0.621037	0.912049	0.093872
	H119	H	0.385895	0.909916	0.903594
	C120	C	0.381723	0.013906	0.621912
	C121	C	0.626072	0.996916	0.622978
	C122	C	0.626190	0.013508	0.379836
	C123	C	0.380653	0.996215	0.378339
	C124	C	0.626075	0.384261	0.009123
	C125	C	0.626058	0.626922	0.992523
	C126	C	0.383455	0.627572	0.010094
	C127	C	0.384160	0.385260	0.992174
	C128	C	0.013200	0.624677	0.381403
	C129	C	0.996086	0.625629	0.624000
	C130	C	0.012653	0.380911	0.623005
	C131	C	0.995409	0.380987	0.379182
	C132	C	0.883508	0.512022	0.122970
	C133	C	0.128637	0.495771	0.124242
	C134	C	0.127174	0.513124	0.880301
	C135	C	0.882930	0.495764	0.879136
	C136	C	0.124705	0.881995	0.510261
	C137	C	0.123579	0.124228	0.491896
	C138	C	0.882558	0.124506	0.510190
	C139	C	0.882553	0.881510	0.493407
	C140	C	0.511976	0.127110	0.880143
	C141	C	0.495583	0.128918	0.123093
	C142	C	0.512042	0.884575	0.121742
	C143	C	0.495424	0.883282	0.878460
	C144	C	0.384476	0.891821	0.677720
	C145	C	0.622926	0.119581	0.678282
	C146	C	0.622835	0.891380	0.323301
	C147	C	0.383894	0.119609	0.324705
	C148	C	0.681216	0.385183	0.884795
	C149	C	0.682220	0.625243	0.116736
	C150	C	0.327239	0.624421	0.885893
	C151	C	0.330360	0.388576	0.117151
	C152	C	0.890226	0.679719	0.381786
	C153	C	0.118125	0.682665	0.625105
	C154	C	0.889621	0.325537	0.621975
	C155	C	0.117741	0.323524	0.379682
	C156	C	0.889256	0.384961	0.677925
	C157	C	0.119856	0.621352	0.678194
	C158	C	0.890263	0.621706	0.324813
	C159	C	0.119420	0.383621	0.325023
	C160	C	0.383571	0.682533	0.885817
	C161	C	0.625351	0.683398	0.116503
	C162	C	0.624976	0.326800	0.885254
	C163	C	0.386025	0.330419	0.116805
	C164	C	0.680752	0.891072	0.380639
	C165	C	0.683124	0.118291	0.623026
	C166	C	0.326428	0.891676	0.621001
	C167	C	0.323987	0.118058	0.380237
	C168	C	0.886072	0.389248	0.177704
	C169	C	0.125894	0.617584	0.181261
	C170	C	0.124465	0.390237	0.825039
	C171	C	0.885174	0.617899	0.823650
	C172	C	0.179503	0.883296	0.385956
	C173	C	0.180533	0.123982	0.615930
	C174	C	0.826706	0.121587	0.385739
	C175	C	0.827103	0.884741	0.617429
	C176	C	0.389707	0.183891	0.879989
	C177	C	0.618671	0.184020	0.122619
	C178	C	0.389837	0.827963	0.120892
	C179	C	0.617530	0.826376	0.878213
	C180	C	0.388604	0.888465	0.175730
	C181	C	0.619140	0.124948	0.178695
	C182	C	0.389035	0.125198	0.823825
	C183	C	0.618543	0.886968	0.823527
	C184	C	0.881462	0.180754	0.386475
	C185	C	0.124128	0.181656	0.615496
	C186	C	0.123452	0.824519	0.386636
	C187	C	0.884235	0.827387	0.617952
	C188	C	0.182845	0.390860	0.881452
	C189	C	0.184056	0.617772	0.124288
	C190	C	0.826287	0.390528	0.121420
	C191	C	0.826128	0.617338	0.879192
	C192	C	0.403538	0.099242	0.599142
	C193	C	0.603339	0.911680	0.599651
	C194	C	0.604547	0.098995	0.403129
	C195	C	0.403186	0.911217	0.400179
	C196	C	0.603695	0.407346	0.095408
	C197	C	0.602476	0.603751	0.905998
	C198	C	0.407512	0.605675	0.096609
	C199	C	0.406087	0.406740	0.905398
	C200	C	0.098998	0.602326	0.405444
	C201	C	0.910018	0.603418	0.600541
	C202	C	0.098091	0.402822	0.600213
	C203	C	0.909980	0.403708	0.402203
	C204	C	0.906206	0.597081	0.100666
	C205	C	0.106622	0.410533	0.100514
	C206	C	0.104705	0.597946	0.903129
	C207	C	0.905412	0.410805	0.902638
	C208	C	0.102483	0.905085	0.596734
	C209	C	0.100118	0.100976	0.405593
	C210	C	0.906226	0.102188	0.596657
	C211	C	0.904692	0.902985	0.406789
	C212	C	0.597820	0.104427	0.903415
	C213	C	0.409724	0.107275	0.099882
	C214	C	0.597828	0.907049	0.098937
	C215	C	0.409956	0.905698	0.901888
	Zn216	Zn	0.503330	0.005678	0.750790
	Zn217	Zn	0.504059	0.006071	0.251135
	Zn218	Zn	0.754083	0.504744	0.000395
	Zn219	Zn	0.256584	0.505270	0.001728
	Zn220	Zn	0.003896	0.753816	0.502871
	Zn221	Zn	0.003242	0.252294	0.500229
	Zn222	Zn	0.004913	0.503887	0.751611
	Zn223	Zn	0.006167	0.503051	0.252203
	Zn224	Zn	0.504285	0.755037	0.000732
	Zn225	Zn	0.504033	0.256983	0.000820
	Zn226	Zn	0.755598	0.004144	0.501515
	Zn227	Zn	0.252019	0.004130	0.501213
	N228	N	0.418036	0.968802	0.678481
	N229	N	0.588118	0.043061	0.678347
	N230	N	0.589673	0.968560	0.322723
	N231	N	0.418709	0.043017	0.323279
	N232	N	0.682057	0.420172	0.962581
	N233	N	0.682855	0.591135	0.038415
	N234	N	0.327080	0.591138	0.964240
	N235	N	0.329209	0.421946	0.038844
	N236	N	0.967881	0.681944	0.416020
	N237	N	0.040117	0.685098	0.591773
	N238	N	0.967027	0.322975	0.588280
	N239	N	0.039777	0.321699	0.412609
	N240	N	0.966728	0.418643	0.678985
	N241	N	0.042802	0.586568	0.677630
	N242	N	0.967846	0.588178	0.324439
	N243	N	0.042543	0.418704	0.324640
	N244	N	0.417797	0.684569	0.964110
	N245	N	0.591444	0.684732	0.038105
	N246	N	0.591282	0.326189	0.963441
	N247	N	0.419017	0.328247	0.038230
	N248	N	0.682995	0.968082	0.414882
	N249	N	0.685207	0.040876	0.589510
	N250	N	0.324377	0.968770	0.587182
	N251	N	0.321719	0.040547	0.412614
	N252	N	0.921109	0.465696	0.178612
	N253	N	0.092237	0.540645	0.181406
	N254	N	0.090421	0.467029	0.824063
	N255	N	0.919756	0.541351	0.823583
	N256	N	0.180609	0.918185	0.463770
	N257	N	0.180290	0.088836	0.538167
	N258	N	0.827641	0.087141	0.463574
	N259	N	0.825975	0.917846	0.539072
	N260	N	0.467338	0.185238	0.914312
	N261	N	0.540930	0.186675	0.088884
	N262	N	0.467877	0.825496	0.088019
	N263	N	0.539900	0.823978	0.911734
	N264	N	0.465660	0.922999	0.176393
	N265	N	0.541515	0.091529	0.179417
	N266	N	0.466056	0.090393	0.823910
	N267	N	0.541512	0.921531	0.823469
	N268	N	0.915644	0.182645	0.464703
	N269	N	0.089460	0.181900	0.537371
	N270	N	0.090190	0.823579	0.464976
	N271	N	0.917872	0.825101	0.539814
	N272	N	0.184908	0.468278	0.915048
	N273	N	0.185721	0.541050	0.089483
	N274	N	0.824391	0.467893	0.088252
	N275	N	0.824604	0.540373	0.913271
	O276	O	0.538854	0.585338	0.571165
	H277	H	0.542230	0.582986	0.585042
	H278	H	0.540697	0.590179	0.565599
	O279	O	0.590651	0.549422	0.594232
	H280	H	0.585834	0.554041	0.601047
	H281	H	0.576937	0.552663	0.594603
	O282	O	0.932516	0.989575	-0.002893
	H283	H	0.932471	0.990765	-0.003157
	H284	H	0.942307	0.994758	0.004974
	O285	O	0.958964	0.051732	1.057885
	H286	H	0.956089	0.069092	1.055349
	H287	H	0.958260	0.045480	1.056616
	O288	O	0.418548	0.574242	0.401579
	H289	H	0.434282	0.554343	0.393344
	H290	H	0.419724	0.584056	0.389935
	O291	O	0.535314	0.489614	0.493988
	H292	H	0.530279	0.491791	0.497024
	H293	H	0.525612	0.478366	0.501250
	O294	O	0.564185	0.553751	0.523975
	H295	H	0.558125	0.558066	0.534570
	H296	H	0.574162	0.552565	0.518643
	O297	O	-0.089005	-0.169482	1.177234
	H298	H	-0.092951	-0.173090	1.176363
	H299	H	-0.081794	-0.167353	1.185951
	O300	O	0.146566	-0.028485	0.069067
	H301	H	0.150769	-0.026777	0.075693
	H302	H	0.153795	-0.031885	0.061136
	O303	O	0.891005	0.823509	0.031749
	H304	H	0.889089	0.814840	0.039442
	H305	H	0.892951	0.833604	0.045963
	O306	O	-0.046786	0.989623	0.972146
	H307	H	-0.059672	0.993462	0.966069
	H308	H	-0.048779	0.995761	0.974125
	O309	O	0.520308	0.434518	0.551768
	H310	H	0.526317	0.440733	0.546695
	H311	H	0.512945	0.434929	0.550439
	O312	O	-0.061391	-0.089653	-0.019759
	H313	H	-0.060242	-0.100147	-0.008331
	H314	H	-0.058921	-0.086304	-0.020837
	O315	O	1.029703	-0.125447	-0.003480
	H316	H	1.030357	-0.139841	0.001655
	H317	H	1.039517	-0.113944	-0.001140
	O318	O	0.918116	1.107017	0.853638
	H319	H	0.912781	1.098577	0.865505
	H320	H	0.908996	1.109732	0.845107
	O321	O	0.115083	-0.014446	0.875582
	H322	H	0.109556	-0.017888	0.868943
	H323	H	0.107119	-0.015644	0.875361
	O324	O	0.459773	0.444049	0.546143
	H325	H	0.452973	0.454094	0.550574
	H326	H	0.463104	0.448761	0.542246
	O327	O	0.039160	0.109142	-0.006980
	H328	H	0.025998	0.106585	-0.003966
	H329	H	0.044114	0.100968	0.006656
	O330	O	0.625741	0.393848	0.409713
	H331	H	0.628714	0.397729	0.411023
	H332	H	0.630527	0.389803	0.411881
	O333	O	0.108016	0.948825	0.942849
	H334	H	0.104248	0.943189	0.934523
	H335	H	0.097905	0.968137	0.934899
	O336	O	-0.138895	0.073648	-0.087492
	H337	H	-0.136184	0.069175	-0.077386
	H338	H	-0.139383	0.081397	-0.086294
	O339	O	0.592090	0.469583	0.478227
	H340	H	0.597337	0.465688	0.483398
	H341	H	0.588475	0.460990	0.483540
	O342	O	0.897949	1.009749	1.086418
	H343	H	0.888195	1.006852	1.081333
	H344	H	0.907022	1.019381	1.087249
	O345	O	1.011730	1.063985	0.007861
	H346	H	1.014282	1.075563	0.009377
	H347	H	1.010165	1.055642	0.005332
	O348	O	0.508485	0.589731	0.518734
	H349	H	0.513183	0.584033	0.507192
	H350	H	0.524137	0.598151	0.523080
	O351	O	0.346636	0.489257	0.578934
	H352	H	0.335440	0.503729	0.587792
	H353	H	0.352444	0.495654	0.566407
	O354	O	0.901505	0.050959	1.020042
	H355	H	0.912379	0.043635	1.011829
	H356	H	0.898618	0.044311	1.018113
	O357	O	1.004665	-0.151948	1.090868
	H358	H	1.012414	-0.143065	1.092860
	H359	H	1.014577	-0.165241	1.092091
	O360	O	0.475194	0.534796	0.559256
	H361	H	0.470086	0.537853	0.555164
	H362	H	0.472270	0.536009	0.561309
	O363	O	0.437974	0.440910	0.483507
	H364	H	0.439493	0.434234	0.483299
	H365	H	0.432015	0.433393	0.483958
	O366	O	0.543063	1.593990	0.434006
	H367	H	0.547951	1.589789	0.438953
	H368	H	0.551678	1.595664	0.431852
	O369	O	1.040012	0.026695	1.064490
	H370	H	1.043171	0.031521	1.066655
	H371	H	1.029167	0.019385	1.064343
	O372	O	0.023485	0.024384	-0.004989
	H373	H	0.024724	0.024030	-0.011631
	H374	H	0.028625	0.021994	0.005325
	O375	O	1.152965	0.116635	0.045791
	H376	H	1.160648	0.108808	0.048186
	H377	H	1.157314	0.121184	0.046560
	O378	O	0.477899	0.469110	0.477068
	H379	H	0.484167	0.469063	0.488211
	H380	H	0.468581	0.458815	0.461383
	O381	O	0.481457	0.513346	0.428535
	H382	H	0.469845	0.513842	0.423237
	H383	H	0.485798	0.516265	0.425948
