data_Molecule from HDF5

_cell_length_a		16.484763
_cell_length_b		16.549991
_cell_length_c		16.427515
_cell_angle_alpha	89.854405
_cell_angle_beta	89.833531
_cell_angle_gamma	90.018783
_symmetry_space_group_name_H-M	'P 1'
_symmetry_Int_Tables_number		1

loop_
	_symmetry_equiv_pos_as_xyz
	x,y,z

loop_
	_atom_site_label
	_atom_site_type_symbol
	_atom_site_fract_x
	_atom_site_fract_y
	_atom_site_fract_z
	H0	H	0.388440	0.854614	0.709589
	H1	H	0.589575	0.173161	0.710399
	H2	H	0.593456	0.855952	0.273899
	H3	H	0.388411	0.172574	0.273389
	H4	H	0.708174	0.412276	0.834084
	H5	H	0.711401	0.623510	0.149422
	H6	H	0.271759	0.614691	0.832159
	H7	H	0.270816	0.413020	0.152363
	H8	H	0.831479	0.738261	0.387641
	H9	H	0.147157	0.735011	0.596065
	H10	H	0.830770	0.293049	0.598609
	H11	H	0.145461	0.295763	0.387473
	H12	H	0.830419	0.410224	0.714799
	H13	H	0.148476	0.615901	0.710549
	H14	H	0.829782	0.622292	0.271990
	H15	H	0.145863	0.415147	0.273527
	H16	H	0.384988	0.733677	0.832626
	H17	H	0.595037	0.738222	0.149912
	H18	H	0.591613	0.296734	0.833322
	H19	H	0.384396	0.293090	0.151230
	H20	H	0.708615	0.856156	0.390852
	H21	H	0.709219	0.172650	0.596552
	H22	H	0.269638	0.855872	0.596004
	H23	H	0.270297	0.172695	0.389793
	H24	H	0.878385	0.360109	0.218401
	H25	H	0.090373	0.673091	0.211863
	H26	H	0.090997	0.356592	0.774206
	H27	H	0.885611	0.672277	0.772802
	H28	H	0.210007	0.911284	0.334735
	H29	H	0.209021	0.121039	0.650332
	H30	H	0.767905	0.119897	0.333484
	H31	H	0.767731	0.909985	0.650172
	H32	H	0.329998	0.233384	0.890271
	H33	H	0.646023	0.238182	0.099219
	H34	H	0.329848	0.795502	0.098418
	H35	H	0.645338	0.794214	0.888632
	H36	H	0.331153	0.911759	0.214060
	H37	H	0.647591	0.120293	0.214318
	H38	H	0.329492	0.115798	0.775190
	H39	H	0.647849	0.913753	0.774630
	H40	H	0.882481	0.236841	0.333789
	H41	H	0.092163	0.236548	0.649566
	H42	H	0.094931	0.793614	0.334712
	H43	H	0.882359	0.790731	0.649187
	H44	H	0.206652	0.356061	0.891896
	H45	H	0.211670	0.670241	0.100040
	H46	H	0.759622	0.360902	0.105356
	H47	H	0.767135	0.671684	0.888379
	H48	H	0.402787	0.128005	0.589278
	H49	H	0.580399	0.899909	0.586217
	H50	H	0.573110	0.125080	0.402435
	H51	H	0.398964	0.903917	0.410659
	H52	H	0.572916	0.421502	0.106826
	H53	H	0.570701	0.603959	0.881574
	H54	H	0.401815	0.606537	0.105349
	H55	H	0.400600	0.427965	0.880664
	H56	H	0.099756	0.593327	0.397170
	H57	H	0.875571	0.602044	0.585381
	H58	H	0.095341	0.432483	0.575962
	H59	H	0.871038	0.425540	0.395028
	H60	H	0.104122	0.426232	0.591812
	H61	H	0.874802	0.607255	0.581364
	H62	H	0.106407	0.614498	0.395120
	H63	H	0.874024	0.416666	0.410778
	H64	H	0.395114	0.608258	0.108025
	H65	H	0.578086	0.605754	0.879178
	H66	H	0.579012	0.427607	0.105989
	H67	H	0.401107	0.418034	0.877524
	H68	H	0.582264	0.125984	0.409149
	H69	H	0.576419	0.903332	0.582800
	H70	H	0.398848	0.124816	0.577313
	H71	H	0.394357	0.898941	0.401754
	H72	H	0.895418	0.627142	0.077909
	H73	H	0.074037	0.403289	0.083755
	H74	H	0.079633	0.626643	0.906447
	H75	H	0.890931	0.399652	0.905113
	H76	H	0.077208	0.921461	0.607239
	H77	H	0.078368	0.111069	0.377050
	H78	H	0.901690	0.103030	0.604365
	H79	H	0.896918	0.925171	0.377389
	H80	H	0.602125	0.105355	0.902318
	H81	H	0.377820	0.095558	0.089832
	H82	H	0.601077	0.921862	0.076189
	H83	H	0.373174	0.922766	0.900973
	H84	H	0.600057	0.930382	0.080733
	H85	H	0.373835	0.112682	0.083299
	H86	H	0.603614	0.105980	0.899747
	H87	H	0.374599	0.923838	0.904654
	H88	H	0.900039	0.106467	0.605823
	H89	H	0.084396	0.102316	0.378161
	H90	H	0.080462	0.926934	0.606249
	H91	H	0.902665	0.930770	0.381683
	H92	H	0.085696	0.629610	0.900017
	H93	H	0.078258	0.403434	0.079184
	H94	H	0.901139	0.627512	0.084560
	H95	H	0.903051	0.401676	0.898007
	H96	H	0.390471	0.130517	0.585372
	H97	H	0.582535	0.901537	0.580321
	H98	H	0.582393	0.129366	0.398206
	H99	H	0.404854	0.902954	0.401495
	H100	H	0.570757	0.429075	0.103300
	H101	H	0.576410	0.598522	0.881798
	H102	H	0.396523	0.601614	0.105796
	H103	H	0.391732	0.423684	0.876453
	H104	H	0.097413	0.607562	0.414590
	H105	H	0.877857	0.601811	0.579037
	H106	H	0.102715	0.415498	0.576616
	H107	H	0.878296	0.434601	0.409470
	H108	H	0.902976	0.623640	0.076721
	H109	H	0.079797	0.400733	0.083952
	H110	H	0.076244	0.628450	0.897881
	H111	H	0.901779	0.405275	0.911678
	H112	H	0.074679	0.926042	0.604712
	H113	H	0.074300	0.102568	0.381261
	H114	H	0.897364	0.102595	0.604664
	H115	H	0.905057	0.922774	0.379032
	H116	H	0.603385	0.107858	0.901323
	H117	H	0.381792	0.099629	0.071471
	H118	H	0.603804	0.922738	0.085581
	H119	H	0.374416	0.927156	0.902098
	C120	C	0.366671	0.023020	0.615058
	C121	C	0.610974	1.005990	0.614288
	C122	C	0.610919	0.022829	0.371741
	C123	C	0.368337	1.006400	0.372458
	C124	C	0.608130	0.394238	0.001081
	C125	C	0.608584	0.635927	0.984632
	C126	C	0.366714	0.636037	0.001045
	C127	C	0.366684	0.392459	0.983798
	C128	C	-0.003323	0.637327	0.370812
	C129	C	0.980768	0.635578	0.613726
	C130	C	-0.003345	0.392897	0.614158
	C131	C	0.978896	0.394741	0.371974
	C132	C	0.865166	0.523704	0.114885
	C133	C	0.108948	0.506458	0.114104
	C134	C	0.110455	0.523189	0.871451
	C135	C	0.867080	0.506172	0.872356
	C136	C	0.109810	0.893638	0.501303
	C137	C	0.110157	0.136669	0.483514
	C138	C	0.867377	0.136307	0.500258
	C139	C	0.868473	0.893384	0.483679
	C140	C	0.497843	0.136634	0.870631
	C141	C	0.481460	0.135504	0.113960
	C142	C	0.497553	0.893206	0.114002
	C143	C	0.479388	0.893888	0.871413
	C144	C	0.368164	0.902719	0.671551
	C145	C	0.610191	0.125378	0.671895
	C146	C	0.612034	0.903487	0.313259
	C147	C	0.368903	0.125425	0.313402
	C148	C	0.668549	0.393203	0.881847
	C149	C	0.670385	0.640225	0.102466
	C150	C	0.309815	0.634800	0.880486
	C151	C	0.309307	0.392706	0.104403
	C152	C	0.878146	0.697713	0.369255
	C153	C	0.099857	0.694928	0.614926
	C154	C	0.877888	0.333127	0.617017
	C155	C	0.097968	0.335673	0.369304
	C156	C	0.877926	0.391132	0.674911
	C157	C	0.100519	0.635872	0.671912
	C158	C	0.877562	0.640091	0.311450
	C159	C	0.098210	0.394897	0.312653
	C160	C	0.365992	0.694313	0.880782
	C161	C	0.612384	0.697545	0.102661
	C162	C	0.610314	0.335907	0.881243
	C163	C	0.365762	0.333409	0.103733
	C164	C	0.669192	0.903406	0.371352
	C165	C	0.669671	0.125066	0.615270
	C166	C	0.309258	0.903342	0.614827
	C167	C	0.310241	0.125464	0.371120
	C168	C	0.860766	0.406861	0.177640
	C169	C	0.110004	0.625403	0.172760
	C170	C	0.110870	0.403878	0.813375
	C171	C	0.866283	0.624891	0.812622
	C172	C	0.170156	0.892257	0.382108
	C173	C	0.169364	0.139035	0.602806
	C174	C	0.807675	0.138309	0.380965
	C175	C	0.807826	0.891083	0.602789
	C176	C	0.377888	0.194235	0.870898
	C177	C	0.599437	0.196879	0.116801
	C178	C	0.378019	0.834699	0.116581
	C179	C	0.598771	0.834804	0.870335
	C180	C	0.378423	0.892568	0.174349
	C181	C	0.600265	0.138182	0.174112
	C182	C	0.377558	0.135984	0.813563
	C183	C	0.599699	0.894004	0.813751
	C184	C	0.864550	0.196761	0.381323
	C185	C	0.111270	0.196415	0.602467
	C186	C	0.113083	0.833742	0.382309
	C187	C	0.864343	0.831800	0.602307
	C188	C	0.167965	0.403418	0.871974
	C189	C	0.170195	0.624045	0.117094
	C190	C	0.801577	0.407389	0.121403
	C191	C	0.807449	0.624743	0.869973
	C192	C	0.390347	0.106335	0.591089
	C193	C	0.586890	0.923136	0.590180
	C194	C	0.586478	0.105268	0.396125
	C195	C	0.392514	0.923374	0.397484
	C196	C	0.581864	0.419022	0.083905
	C197	C	0.582477	0.610119	0.902401
	C198	C	0.390916	0.612310	0.084576
	C199	C	0.390899	0.416363	0.899967
	C200	C	0.079703	0.612367	0.395199
	C201	C	0.897730	0.610934	0.589145
	C202	C	0.079348	0.417716	0.588721
	C203	C	0.895896	0.418808	0.397602
	C204	C	0.891913	0.604988	0.087605
	C205	C	0.084402	0.424085	0.089451
	C206	C	0.087104	0.606367	0.894703
	C207	C	0.891384	0.423718	0.897563
	C208	C	0.084704	0.918014	0.584381
	C209	C	0.085831	0.112250	0.400529
	C210	C	0.892496	0.111245	0.583263
	C211	C	0.894280	0.918918	0.401146
	C212	C	0.581282	0.113123	0.894153
	C213	C	0.399208	0.109804	0.088770
	C214	C	0.580062	0.917930	0.088299
	C215	C	0.396033	0.917661	0.895641
	Zn216	Zn	0.488511	0.014485	0.742708
	Zn217	Zn	0.490349	0.014303	0.242996
	Zn218	Zn	0.737218	0.515083	-0.006876
	Zn219	Zn	0.238654	0.513949	-0.007031
	Zn220	Zn	-0.010758	0.764373	0.492398
	Zn221	Zn	-0.012046	0.264835	0.492252
	Zn222	Zn	-0.011099	0.514565	0.742692
	Zn223	Zn	-0.012893	0.516110	0.242737
	Zn224	Zn	0.488022	0.764726	-0.007617
	Zn225	Zn	0.488750	0.264481	-0.007460
	Zn226	Zn	0.739641	0.014514	0.491833
	Zn227	Zn	0.238146	0.014945	0.493372
	N228	N	0.402939	0.978111	0.671852
	N229	N	0.574728	0.050400	0.671566
	N230	N	0.576494	0.978705	0.313317
	N231	N	0.403939	0.050173	0.314044
	N232	N	0.667365	0.428697	0.957469
	N233	N	0.667943	0.602369	0.028245
	N234	N	0.309792	0.599625	0.956375
	N235	N	0.309697	0.428505	0.028774
	N236	N	0.953274	0.696324	0.405074
	N237	N	0.024265	0.694783	0.579614
	N238	N	0.952699	0.334202	0.579960
	N239	N	0.022641	0.335382	0.405331
	N240	N	0.952830	0.427570	0.673216
	N241	N	0.025316	0.599976	0.671354
	N242	N	0.952315	0.602891	0.312610
	N243	N	0.022977	0.430487	0.313878
	N244	N	0.400304	0.695492	0.956933
	N245	N	0.574635	0.695130	0.028170
	N246	N	0.573831	0.336265	0.956574
	N247	N	0.400466	0.333038	0.027646
	N248	N	0.668773	0.978390	0.406742
	N249	N	0.670562	0.049543	0.580370
	N250	N	0.307862	0.979358	0.580740
	N251	N	0.309873	0.050293	0.407143
	N252	N	0.899327	0.480366	0.173997
	N253	N	0.072713	0.551406	0.171076
	N254	N	0.075905	0.479210	0.813032
	N255	N	0.902505	0.550073	0.813720
	N256	N	0.168175	0.928816	0.457144
	N257	N	0.168922	0.102613	0.527945
	N258	N	0.809149	0.101529	0.455930
	N259	N	0.810235	0.928597	0.528134
	N260	N	0.453643	0.195013	0.905292
	N261	N	0.524769	0.195349	0.080088
	N262	N	0.453071	0.834555	0.079934
	N263	N	0.522868	0.834538	0.905286
	N264	N	0.453883	0.927860	0.173111
	N265	N	0.525899	0.100499	0.172373
	N266	N	0.453249	0.101079	0.812904
	N267	N	0.524464	0.929748	0.814222
	N268	N	0.900866	0.195720	0.456613
	N269	N	0.075236	0.195304	0.527218
	N270	N	0.076131	0.834457	0.457358
	N271	N	0.901418	0.833239	0.527361
	N272	N	0.168070	0.478748	0.907027
	N273	N	0.169785	0.549219	0.081232
	N274	N	0.804154	0.481186	0.083160
	N275	N	0.807738	0.549940	0.906225
	O276	O	0.805275	-0.179911	0.178367
	H277	H	0.818955	-0.185357	0.167594
	H278	H	0.816555	-0.189779	0.178001
	O279	O	0.365662	0.305820	0.701292
	H280	H	0.356075	0.318959	0.706370
	H281	H	0.357226	0.296077	0.724187
	O282	O	0.672727	1.327864	0.304078
	H283	H	0.685167	1.370934	0.305781
	H284	H	0.664436	1.319706	0.334703
	O285	O	0.312154	0.497060	0.481808
	H286	H	0.316484	0.502282	0.492360
	H287	H	0.310784	0.501299	0.489111
	O288	O	-0.221376	0.233914	-0.032207
	H289	H	-0.229458	0.250193	-0.022858
	H290	H	-0.215594	0.239679	-0.029063
	O291	O	1.011065	0.976313	0.170440
	H292	H	0.994519	0.969963	0.169073
	H293	H	1.004015	0.985144	0.176588
	O294	O	-0.311677	0.701626	-0.307189
	H295	H	-0.277278	0.734017	-0.280231
	H296	H	-0.314588	0.712153	-0.348661
	O297	O	0.282847	0.487258	0.691739
	H298	H	0.281945	0.492311	0.704116
	H299	H	0.284912	0.484753	0.689650
	O300	O	0.392265	0.713341	0.489426
	H301	H	0.386021	0.702767	0.502510
	H302	H	0.401413	0.721044	0.477799
	O303	O	0.348558	0.638572	0.528648
	H304	H	0.364461	0.639781	0.534787
	H305	H	0.352021	0.643534	0.529576
	O306	O	0.192821	1.182787	1.192721
	H307	H	0.186940	1.168451	1.172724
	H308	H	0.204326	1.198888	1.213674
	O309	O	1.041791	0.905020	1.000283
	H310	H	1.067750	0.910348	0.998934
	H311	H	1.040991	0.903659	1.009485
	O312	O	0.456971	0.732137	0.274397
	H313	H	0.437079	0.754602	0.259465
	H314	H	0.421157	0.738571	0.268799
	O315	O	0.037560	0.221800	0.797654
	H316	H	0.017524	0.221982	0.797334
	H317	H	0.020776	0.223641	0.802355
	O318	O	0.071109	1.218909	-0.023723
	H319	H	0.058473	1.210781	-0.009171
	H320	H	0.101879	1.231586	-0.006349
	O321	O	0.812702	-0.158042	0.830867
	H322	H	0.831800	-0.139932	0.846527
	H323	H	0.826092	-0.141907	0.854559
	O324	O	1.562297	0.591938	0.429832
	H325	H	1.580568	0.573827	0.433394
	H326	H	1.553457	0.610911	0.423680
	O327	O	0.949322	-0.206809	0.937103
	H328	H	0.967174	-0.208107	0.945551
	H329	H	0.952248	-0.195435	0.950600
	O330	O	0.770432	-0.026809	0.209041
	H331	H	0.763393	-0.050864	0.205357
	H332	H	0.750288	-0.035099	0.226000
	O333	O	1.502316	0.347706	0.673345
	H334	H	1.481071	0.345994	0.687504
	H335	H	1.492515	0.345818	0.659889
	O336	O	1.208420	-0.017235	0.773905
	H337	H	1.221196	-0.021957	0.767722
	H338	H	1.215851	-0.024002	0.757500
	O339	O	0.660217	0.411132	0.585533
	H340	H	0.662455	0.415878	0.610979
	H341	H	0.654460	0.425630	0.586311
	O342	O	0.881015	0.049714	0.785577
	H343	H	0.878980	0.063070	0.782697
	H344	H	0.880267	0.053682	0.806170
	O345	O	0.195359	0.086347	-0.076002
	H346	H	0.183307	0.074009	-0.065397
	H347	H	0.195160	0.066652	-0.082027
	O348	O	1.212344	-0.209867	0.959352
	H349	H	1.201666	-0.199195	0.905995
	H350	H	1.251507	-0.247117	0.957002
	O351	O	0.788923	0.812449	0.005559
	H352	H	0.786306	0.812310	0.007374
	H353	H	0.797812	0.811626	0.006104
	O354	O	0.533298	0.664580	0.438956
	H355	H	0.526983	0.668479	0.430530
	H356	H	0.515500	0.667491	0.449668
	O357	O	1.148844	1.033037	1.188635
	H358	H	1.143082	1.043262	1.186879
	H359	H	1.163822	1.035939	1.207552
	O360	O	0.292976	0.713537	0.301108
	H361	H	0.269584	0.708662	0.283107
	H362	H	0.281353	0.688731	0.318791
	O363	O	0.592496	0.454889	0.611058
	H364	H	0.591661	0.436261	0.601340
	H365	H	0.591986	0.440449	0.620545
	O366	O	0.884661	0.203384	1.128429
	H367	H	0.880597	0.201301	1.137791
	H368	H	0.899734	0.211312	1.135679
	O369	O	0.762966	0.246437	0.765766
	H370	H	0.773124	0.255085	0.768847
	H371	H	0.749613	0.227937	0.762091
	O372	O	0.416590	0.494827	0.498388
	H373	H	0.413342	0.495641	0.494424
	H374	H	0.427537	0.498425	0.511519
	O375	O	-0.034158	1.073821	0.792220
	H376	H	-0.035460	1.091198	0.803638
	H377	H	-0.027338	1.079077	0.798659
	O378	O	1.142675	-0.175280	0.151098
	H379	H	1.132542	-0.151378	0.141708
	H380	H	1.138402	-0.165874	0.143413
	O381	O	1.019883	-0.197043	-0.219922
	H382	H	1.004718	-0.211537	-0.221800
	H383	H	1.003959	-0.191849	-0.222090
	O384	O	0.021373	0.234618	1.208164
	H385	H	0.046491	0.239711	1.215655
	H386	H	0.019933	0.250774	1.223846
	O387	O	0.184487	0.816725	0.797815
	H388	H	0.201040	0.825323	0.775257
	H389	H	0.133837	0.812884	0.787232
	O390	O	-0.058122	0.014798	1.004614
	H391	H	-0.060229	0.010758	1.021031
	H392	H	-0.054495	0.020369	1.002416
	O393	O	1.042645	1.073389	-0.157314
	H394	H	1.038255	1.065060	-0.153115
	H395	H	1.040976	1.084823	-0.163417
	O396	O	0.779880	0.047073	0.778799
	H397	H	0.771204	0.061820	0.766933
	H398	H	0.783595	0.033471	0.768572
	O399	O	-0.219038	1.072512	1.064293
	H400	H	-0.230595	1.082406	1.068369
	H401	H	-0.218148	1.076189	1.071416
	O402	O	0.178386	-0.058671	1.046603
	H403	H	0.184596	-0.080595	1.037742
	H404	H	0.181002	-0.060403	1.056988
	O405	O	-0.772622	0.273922	0.746186
	H406	H	-0.767338	0.253065	0.763696
	H407	H	-0.797441	0.273951	0.762987
	O408	O	0.298443	0.358733	0.305536
	H409	H	0.309561	0.371309	0.316750
	H410	H	0.313726	0.371298	0.325109
	O411	O	0.427956	0.435861	0.312052
	H412	H	0.448991	0.402086	0.320176
	H413	H	0.437380	0.450915	0.320369
	O414	O	0.446825	0.566227	0.683775
	H415	H	0.457701	0.544229	0.693158
	H416	H	0.465688	0.585430	0.675587
	O417	O	0.280523	0.306949	0.517917
	H418	H	0.284359	0.309810	0.553176
	H419	H	0.261459	0.293307	0.520643
	O420	O	0.470090	0.296760	0.477887
	H421	H	0.457499	0.304305	0.482796
	H422	H	0.468454	0.292233	0.477501
	O423	O	-0.223517	0.989552	-0.058285
	H424	H	-0.230648	0.996243	-0.069452
	H425	H	-0.225766	0.993231	-0.051786
	O426	O	0.701662	1.493736	1.279797
	H427	H	0.661415	1.509769	1.269625
	H428	H	0.730414	1.491821	1.238771
	O429	O	0.683851	0.717172	0.520618
	H430	H	0.685371	0.707696	0.504906
	H431	H	0.695752	0.709564	0.504260
	O432	O	0.510517	0.314488	0.295878
	H433	H	0.518695	0.297249	0.285161
	H434	H	0.527808	0.317276	0.313775
	O435	O	0.527903	-0.278229	0.699654
	H436	H	0.540365	-0.270485	0.708590
	H437	H	0.545856	-0.264823	0.699858
	O438	O	0.958573	-0.064861	0.204332
	H439	H	0.956994	-0.062644	0.212206
	H440	H	0.956031	-0.075924	0.204577
	O441	O	0.309860	0.532658	0.285850
	H442	H	0.303007	0.524322	0.287483
	H443	H	0.325233	0.518070	0.274411
	O444	O	0.301860	0.680106	0.604344
	H445	H	0.314549	0.668359	0.599617
	H446	H	0.325108	0.677427	0.598990
	O447	O	0.674668	0.548407	0.442363
	H448	H	0.675943	0.525032	0.439695
	H449	H	0.673352	0.523134	0.427481
	O450	O	0.694450	0.308503	0.467754
	H451	H	0.698206	0.314973	0.476969
	H452	H	0.698187	0.293267	0.481528
	O453	O	0.194031	0.227267	0.061875
	H454	H	0.223937	0.232424	0.071180
	H455	H	0.200368	0.201299	0.070849
	O456	O	1.042776	0.070544	0.071155
	H457	H	1.024466	0.084987	0.065251
	H458	H	1.048650	0.088549	0.087964
	O459	O	0.547041	0.580755	0.275521
	H460	H	0.521427	0.602523	0.274330
	H461	H	0.534590	0.585952	0.296750
	O462	O	0.698762	0.536007	0.691052
	H463	H	0.717332	0.546431	0.708615
	H464	H	0.691095	0.574371	0.692922
	O465	O	0.986963	-0.031561	0.056234
	H466	H	1.016909	-0.029038	0.043351
	H467	H	0.965465	-0.024148	0.054073
