data_Molecule from HDF5

_cell_length_a		16.217263
_cell_length_b		16.506637
_cell_length_c		16.469948
_cell_angle_alpha	89.885539
_cell_angle_beta	90.240496
_cell_angle_gamma	89.911747
_symmetry_space_group_name_H-M	'P 1'
_symmetry_Int_Tables_number		1

loop_
	_symmetry_equiv_pos_as_xyz
	x,y,z

loop_
	_atom_site_label
	_atom_site_type_symbol
	_atom_site_fract_x
	_atom_site_fract_y
	_atom_site_fract_z
	H0	H	0.389794	0.837975	0.721885
	H1	H	0.602800	0.152661	0.721146
	H2	H	0.604605	0.836239	0.278163
	H3	H	0.388979	0.150871	0.272277
	H4	H	0.714424	0.394227	0.839218
	H5	H	0.716057	0.594828	0.158647
	H6	H	0.276420	0.600476	0.840289
	H7	H	0.278951	0.391410	0.158080
	H8	H	0.836731	0.716054	0.393882
	H9	H	0.157738	0.719578	0.606205
	H10	H	0.838174	0.277980	0.600830
	H11	H	0.158446	0.274806	0.389865
	H12	H	0.838479	0.393132	0.716963
	H13	H	0.157280	0.605444	0.722271
	H14	H	0.837593	0.601918	0.276942
	H15	H	0.159109	0.392328	0.276727
	H16	H	0.387481	0.719594	0.842291
	H17	H	0.605980	0.716794	0.156085
	H18	H	0.602986	0.272922	0.841664
	H19	H	0.392046	0.272511	0.157475
	H20	H	0.718137	0.836272	0.397169
	H21	H	0.713366	0.156330	0.598932
	H22	H	0.276979	0.837407	0.601495
	H23	H	0.277787	0.154539	0.392598
	H24	H	0.896430	0.338386	0.218286
	H25	H	0.107695	0.654312	0.220468
	H26	H	0.105166	0.338766	0.775674
	H27	H	0.890771	0.654618	0.775632
	H28	H	0.214848	0.896083	0.337943
	H29	H	0.216261	0.098826	0.657846
	H30	H	0.781153	0.095277	0.336963
	H31	H	0.782235	0.896239	0.659793
	H32	H	0.337403	0.215791	0.893819
	H33	H	0.659565	0.211781	0.103556
	H34	H	0.338442	0.772352	0.103710
	H35	H	0.657632	0.773377	0.892792
	H36	H	0.338088	0.887872	0.219540
	H37	H	0.659043	0.094919	0.217747
	H38	H	0.336721	0.100503	0.778495
	H39	H	0.658335	0.889828	0.778651
	H40	H	0.895867	0.214880	0.337200
	H41	H	0.106044	0.219802	0.655203
	H42	H	0.104780	0.774308	0.341364
	H43	H	0.889092	0.772030	0.655560
	H44	H	0.216866	0.335511	0.896897
	H45	H	0.221969	0.654127	0.101862
	H46	H	0.783743	0.335507	0.098029
	H47	H	0.777523	0.655131	0.895328
	H48	H	0.402628	0.111045	0.591443
	H49	H	0.586489	0.882308	0.589794
	H50	H	0.589929	0.109230	0.407085
	H51	H	0.407040	0.884603	0.416509
	H52	H	0.587348	0.391229	0.116593
	H53	H	0.584690	0.584748	0.886171
	H54	H	0.405358	0.580372	0.112130
	H55	H	0.406041	0.406048	0.885392
	H56	H	0.112371	0.589208	0.414039
	H57	H	0.888072	0.577100	0.584250
	H58	H	0.115682	0.410771	0.594091
	H59	H	0.884499	0.410459	0.406119
	H60	H	0.114854	0.401739	0.583529
	H61	H	0.881812	0.586668	0.592415
	H62	H	0.110753	0.581052	0.410883
	H63	H	0.883386	0.406024	0.406672
	H64	H	0.418799	0.576657	0.106280
	H65	H	0.584729	0.587863	0.884495
	H66	H	0.600766	0.405945	0.116693
	H67	H	0.413992	0.407913	0.889778
	H68	H	0.584045	0.107650	0.403597
	H69	H	0.590977	0.881544	0.589441
	H70	H	0.415404	0.108095	0.593621
	H71	H	0.402455	0.879780	0.404601
	H72	H	0.910271	0.608939	0.087469
	H73	H	0.089064	0.384720	0.086049
	H74	H	0.087769	0.610025	0.905720
	H75	H	0.912574	0.385079	0.908348
	H76	H	0.082089	0.900436	0.612403
	H77	H	0.086632	0.092230	0.383672
	H78	H	0.905758	0.089398	0.612950
	H79	H	0.907864	0.905775	0.384984
	H80	H	0.613422	0.082814	0.906469
	H81	H	0.380030	0.087382	0.089213
	H82	H	0.610142	0.910823	0.085303
	H83	H	0.383141	0.906365	0.909960
	H84	H	0.615110	0.905199	0.094145
	H85	H	0.384203	0.085639	0.082550
	H86	H	0.613436	0.088173	0.912725
	H87	H	0.383805	0.906458	0.910792
	H88	H	0.909764	0.090724	0.611911
	H89	H	0.088780	0.086726	0.383884
	H90	H	0.092419	0.909231	0.612697
	H91	H	0.907216	0.906165	0.385272
	H92	H	0.081586	0.604932	0.910134
	H93	H	0.088942	0.383228	0.091959
	H94	H	0.906347	0.610285	0.086559
	H95	H	0.904436	0.381905	0.908434
	H96	H	0.409957	0.105630	0.582054
	H97	H	0.588837	0.880815	0.593363
	H98	H	0.584706	0.106048	0.410348
	H99	H	0.415801	0.884069	0.405453
	H100	H	0.582881	0.408829	0.108707
	H101	H	0.587915	0.585354	0.885046
	H102	H	0.416366	0.589999	0.111575
	H103	H	0.412745	0.399984	0.884900
	H104	H	0.114391	0.587164	0.405443
	H105	H	0.884559	0.589844	0.579246
	H106	H	0.109944	0.414801	0.581729
	H107	H	0.884865	0.408846	0.410824
	H108	H	0.907778	0.610797	0.090429
	H109	H	0.083481	0.384793	0.089420
	H110	H	0.089670	0.607462	0.914433
	H111	H	0.908816	0.381898	0.901152
	H112	H	0.080142	0.912816	0.606609
	H113	H	0.082745	0.087499	0.385727
	H114	H	0.906828	0.093850	0.613086
	H115	H	0.908915	0.906314	0.385783
	H116	H	0.610142	0.080740	0.912954
	H117	H	0.383740	0.080490	0.087966
	H118	H	0.613213	0.899676	0.084453
	H119	H	0.383437	0.907473	0.910197
	C120	C	0.376165	0.004182	0.620643
	C121	C	0.619865	0.986757	0.621513
	C122	C	0.619185	0.002987	0.376836
	C123	C	0.376026	0.987027	0.376316
	C124	C	0.620585	0.372007	0.008234
	C125	C	0.619102	0.617152	0.990050
	C126	C	0.377840	0.616071	0.006631
	C127	C	0.377829	0.373201	0.991195
	C128	C	0.006343	0.618078	0.377480
	C129	C	0.989709	0.618193	0.619222
	C130	C	0.007542	0.376625	0.618222
	C131	C	0.990510	0.376773	0.376120
	C132	C	0.877727	0.504784	0.119082
	C133	C	0.121111	0.488261	0.120684
	C134	C	0.119476	0.503409	0.877387
	C135	C	0.876063	0.487767	0.875264
	C136	C	0.118164	0.875607	0.506523
	C137	C	0.119467	0.119850	0.488863
	C138	C	0.876495	0.120098	0.506358
	C139	C	0.876531	0.874790	0.490556
	C140	C	0.506283	0.116081	0.878142
	C141	C	0.489285	0.115006	0.119339
	C142	C	0.506700	0.873200	0.119623
	C143	C	0.489259	0.874123	0.878139
	C144	C	0.372333	0.885508	0.681250
	C145	C	0.621119	0.105888	0.680573
	C146	C	0.622347	0.883960	0.317950
	C147	C	0.372143	0.104404	0.313756
	C148	C	0.676710	0.373764	0.887435
	C149	C	0.677890	0.615717	0.110261
	C150	C	0.316002	0.618815	0.888016
	C151	C	0.318041	0.372232	0.110496
	C152	C	0.885238	0.676846	0.375419
	C153	C	0.109616	0.679818	0.623980
	C154	C	0.886482	0.317411	0.619646
	C155	C	0.110685	0.315703	0.373099
	C156	C	0.886625	0.374600	0.677386
	C157	C	0.109403	0.622592	0.681480
	C158	C	0.885768	0.620271	0.316971
	C159	C	0.111183	0.374065	0.316546
	C160	C	0.371473	0.678351	0.889097
	C161	C	0.623005	0.676308	0.109075
	C162	C	0.621484	0.313317	0.888827
	C163	C	0.374435	0.312967	0.110157
	C164	C	0.679036	0.883846	0.377222
	C165	C	0.676420	0.107512	0.620098
	C166	C	0.315953	0.885034	0.621400
	C167	C	0.317043	0.106647	0.374242
	C168	C	0.877489	0.385507	0.178107
	C169	C	0.124931	0.606996	0.180098
	C170	C	0.122722	0.385582	0.816349
	C171	C	0.873046	0.606967	0.815804
	C172	C	0.176632	0.875728	0.386498
	C173	C	0.178327	0.119287	0.609221
	C174	C	0.819480	0.116605	0.385203
	C175	C	0.819381	0.875609	0.610877
	C176	C	0.385567	0.176142	0.875733
	C177	C	0.610842	0.172960	0.121927
	C178	C	0.386011	0.812913	0.121521
	C179	C	0.609796	0.813735	0.875349
	C180	C	0.385877	0.870174	0.179143
	C181	C	0.610641	0.115198	0.178932
	C182	C	0.385125	0.118403	0.818433
	C183	C	0.609723	0.871316	0.817917
	C184	C	0.876118	0.176375	0.385434
	C185	C	0.123311	0.179578	0.608000
	C186	C	0.121691	0.815097	0.388052
	C187	C	0.873138	0.813954	0.608997
	C188	C	0.178803	0.384125	0.876348
	C189	C	0.182082	0.606842	0.121347
	C190	C	0.821446	0.383864	0.118266
	C191	C	0.816468	0.607183	0.875183
	C192	C	0.401922	0.086655	0.596166
	C193	C	0.595792	0.903484	0.597681
	C194	C	0.593508	0.086022	0.400353
	C195	C	0.401174	0.904235	0.401687
	C196	C	0.597128	0.395150	0.092226
	C197	C	0.593215	0.593214	0.906790
	C198	C	0.405546	0.589920	0.088633
	C199	C	0.403443	0.397731	0.908310
	C200	C	0.090806	0.592978	0.402821
	C201	C	0.906390	0.592216	0.592637
	C202	C	0.091627	0.401716	0.593407
	C203	C	0.906209	0.401645	0.400820
	C204	C	0.901242	0.588251	0.094968
	C205	C	0.094774	0.405620	0.096267
	C206	C	0.093879	0.585937	0.902748
	C207	C	0.901254	0.404600	0.899143
	C208	C	0.092372	0.900504	0.589178
	C209	C	0.093775	0.095732	0.406106
	C210	C	0.900568	0.098078	0.590625
	C211	C	0.901112	0.898951	0.407071
	C212	C	0.590473	0.090907	0.903389
	C213	C	0.404629	0.091204	0.093957
	C214	C	0.590754	0.898138	0.095100
	C215	C	0.405252	0.899521	0.903137
	Zn216	Zn	0.497720	-0.004789	0.749876
	Zn217	Zn	0.497943	-0.006303	0.247091
	Zn218	Zn	0.748116	0.495502	-0.001924
	Zn219	Zn	0.249562	0.495248	-0.001467
	Zn220	Zn	-0.002150	0.745868	0.498595
	Zn221	Zn	-0.001303	0.249025	0.496908
	Zn222	Zn	-0.001481	0.497019	0.746794
	Zn223	Zn	-0.001183	0.497903	0.248620
	Zn224	Zn	0.497925	0.745539	-0.001370
	Zn225	Zn	0.498318	0.243727	-0.000222
	Zn226	Zn	0.747942	-0.003631	0.498801
	Zn227	Zn	0.247359	-0.003335	0.497775
	N228	N	0.408840	0.960569	0.680962
	N229	N	0.587081	0.029708	0.681928
	N230	N	0.585633	0.959030	0.317705
	N231	N	0.408209	0.029004	0.314963
	N232	N	0.676302	0.409477	0.962810
	N233	N	0.675591	0.579546	0.035223
	N234	N	0.319685	0.580871	0.962167
	N235	N	0.320152	0.409063	0.035572
	N236	N	0.961440	0.675861	0.411840
	N237	N	0.034168	0.677372	0.585935
	N238	N	0.962823	0.318327	0.583677
	N239	N	0.034709	0.317431	0.409644
	N240	N	0.962790	0.410837	0.676468
	N241	N	0.033767	0.585158	0.678813
	N242	N	0.962514	0.584675	0.317841
	N243	N	0.035637	0.411789	0.318766
	N244	N	0.409195	0.676693	0.963848
	N245	N	0.587461	0.677348	0.033144
	N246	N	0.587298	0.312253	0.965006
	N247	N	0.410610	0.313259	0.034947
	N248	N	0.677274	0.958857	0.413154
	N249	N	0.675933	0.032459	0.584221
	N250	N	0.317956	0.959717	0.584434
	N251	N	0.319302	0.032572	0.412452
	N252	N	0.911432	0.461711	0.178821
	N253	N	0.087603	0.532336	0.179622
	N254	N	0.086869	0.460900	0.816825
	N255	N	0.909415	0.531619	0.815632
	N256	N	0.174474	0.912796	0.461036
	N257	N	0.176312	0.082940	0.534230
	N258	N	0.819216	0.082836	0.461594
	N259	N	0.821475	0.912798	0.536181
	N260	N	0.461772	0.174538	0.912537
	N261	N	0.534238	0.173175	0.085831
	N262	N	0.462182	0.814594	0.085207
	N263	N	0.533721	0.815048	0.911949
	N264	N	0.461739	0.906963	0.177941
	N265	N	0.533820	0.080089	0.177521
	N266	N	0.461377	0.081812	0.819681
	N267	N	0.533850	0.908191	0.819625
	N268	N	0.910393	0.178855	0.461898
	N269	N	0.087692	0.180410	0.532160
	N270	N	0.086058	0.814969	0.463624
	N271	N	0.907824	0.813372	0.533024
	N272	N	0.176865	0.458483	0.913695
	N273	N	0.179779	0.532016	0.085163
	N274	N	0.821332	0.459200	0.082292
	N275	N	0.818000	0.532048	0.911245
	O276	O	0.448772	0.474477	0.559297
	H277	H	0.451572	0.471659	0.551381
	H278	H	0.452113	0.454508	0.559699
	O279	O	0.586722	0.342163	0.414014
	H280	H	0.570465	0.343476	0.398609
	H281	H	0.598771	0.338740	0.404886
	O282	O	0.354450	0.680726	0.316100
	H283	H	0.350867	0.670213	0.337596
	H284	H	0.339681	0.692053	0.316622
	O285	O	0.974436	0.900065	0.188003
	H286	H	0.975945	0.890067	0.193814
	H287	H	0.985987	0.892522	0.191143
	O288	O	0.560711	0.656828	0.572504
	H289	H	0.571723	0.646847	0.578745
	H290	H	0.546186	0.659530	0.562831
	O291	O	0.334860	0.604910	0.541954
	H292	H	0.352566	0.593295	0.547649
	H293	H	0.339231	0.599675	0.566214
	O294	O	1.022021	1.063305	0.834804
	H295	H	1.032916	1.052090	0.836051
	H296	H	1.020326	1.058147	0.832553
	O297	O	0.355653	0.341012	0.667143
	H298	H	0.384450	0.331040	0.683630
	H299	H	0.344421	0.341929	0.636139
	O300	O	0.516002	0.445224	0.312793
	H301	H	0.494993	0.453439	0.307497
	H302	H	0.517559	0.436336	0.326435
	O303	O	0.683215	0.518001	0.695920
	H304	H	0.696140	0.518981	0.709115
	H305	H	0.670152	0.527133	0.694977
	O306	O	0.019685	0.175624	1.153956
	H307	H	0.046350	0.173292	1.163258
	H308	H	0.007432	0.156042	1.159591
	O309	O	1.161975	-0.085903	0.148552
	H310	H	1.136699	-0.088749	0.154610
	H311	H	1.171351	-0.096887	0.125511
	O312	O	0.289014	0.469245	0.713266
	H313	H	0.279677	0.451457	0.723040
	H314	H	0.283372	0.466505	0.721756
	O315	O	0.560322	0.417761	0.471602
	H316	H	0.559674	0.421722	0.474016
	H317	H	0.564689	0.405142	0.468889
	O318	O	0.188986	-0.202009	-0.041280
	H319	H	0.176427	-0.211705	-0.031083
	H320	H	0.186743	-0.207249	-0.048610
	O321	O	0.676457	0.641075	0.567881
	H322	H	0.678576	0.648235	0.547158
	H323	H	0.653516	0.642641	0.573595
	O324	O	0.898848	-0.013367	1.006530
	H325	H	0.901952	0.000916	1.004793
	H326	H	0.896124	-0.010812	1.012608
	O327	O	0.539326	0.694201	0.690516
	H328	H	0.536918	0.674972	0.680680
	H329	H	0.530417	0.714289	0.708418
	O330	O	0.168399	0.974652	0.799166
	H331	H	0.168064	0.951273	0.800476
	H332	H	0.174498	0.984375	0.788210
	O333	O	0.147236	1.003139	-0.083881
	H334	H	0.149846	1.006853	-0.087344
	H335	H	0.140013	0.992953	-0.096396
	O336	O	0.938269	0.943084	-0.134963
	H337	H	0.933114	0.962843	-0.132881
	H338	H	0.921291	0.945616	-0.144143
	O339	O	-0.067341	0.933165	1.112449
	H340	H	-0.071867	0.939385	1.096108
	H341	H	-0.073351	0.919115	1.119970
	O342	O	0.639398	0.529187	0.387017
	H343	H	0.626676	0.530144	0.384550
	H344	H	0.629902	0.522605	0.392213
	O345	O	0.086288	-0.199022	0.826936
	H346	H	0.087545	-0.201076	0.836829
	H347	H	0.092690	-0.213874	0.825955
	O348	O	0.295113	0.287637	0.540217
	H349	H	0.270826	0.277714	0.544231
	H350	H	0.286802	0.302020	0.529583
	O351	O	1.121315	1.142243	-0.030391
	H352	H	1.129712	1.142459	-0.027483
	H353	H	1.109259	1.139798	-0.040195
	O354	O	0.906300	0.993571	1.188326
	H355	H	0.931955	1.000430	1.191900
	H356	H	0.891748	0.995575	1.179294
	O357	O	-0.110073	0.205831	-0.205600
	H358	H	-0.122765	0.224128	-0.237253
	H359	H	-0.106659	0.163476	-0.219810
	O360	O	0.545785	0.609878	0.530760
	H361	H	0.545433	0.611341	0.515625
	H362	H	0.538721	0.601713	0.531149
	O363	O	0.867241	0.000863	0.159349
	H364	H	0.872612	0.001492	0.153644
	H365	H	0.875233	0.022951	0.158099
	O366	O	0.007765	-0.191677	1.007218
	H367	H	0.004577	-0.183910	1.009569
	H368	H	0.013114	-0.191606	0.994756
	O369	O	0.943463	0.211275	0.987937
	H370	H	0.941509	0.219687	0.963058
	H371	H	0.941481	0.230150	0.972426
	O372	O	0.533768	0.574226	0.389740
	H373	H	0.529233	0.567939	0.385841
	H374	H	0.524320	0.586579	0.373694
	O375	O	-0.098738	0.094363	1.033561
	H376	H	-0.101875	0.108813	1.030280
	H377	H	-0.096300	0.091815	1.036265
	O378	O	0.487704	0.616680	0.477321
	H379	H	0.493550	0.618900	0.483774
	H380	H	0.493193	0.617572	0.484822
	O381	O	-0.208374	1.109067	-0.202576
	H382	H	-0.219223	1.110013	-0.215973
	H383	H	-0.209459	1.092329	-0.169856
	O384	O	0.654834	0.363395	0.653859
	H385	H	0.651779	0.362811	0.647607
	H386	H	0.655786	0.392160	0.641349
	O387	O	0.315416	0.509929	0.386954
	H388	H	0.306037	0.519725	0.368312
	H389	H	0.325464	0.501517	0.377643
	O390	O	1.176365	1.055398	0.193927
	H391	H	1.178728	1.022812	0.195231
	H392	H	1.187818	1.048585	0.182620
	O393	O	1.032228	-0.195254	0.937005
	H394	H	1.026295	-0.189610	0.944569
	H395	H	1.026603	-0.184481	0.947072
	O396	O	0.423068	0.476887	0.392577
	H397	H	0.422070	0.483357	0.398594
	H398	H	0.420721	0.465988	0.394649
	O399	O	0.633921	0.593179	0.490669
	H400	H	0.633086	0.599388	0.487612
	H401	H	0.640612	0.571772	0.490037
	O402	O	1.196542	1.042701	0.008789
	H403	H	1.202098	1.036564	-0.006922
	H404	H	1.192355	1.048994	0.003036
	O405	O	0.712545	0.347107	0.393520
	H406	H	0.704195	0.363390	0.365362
	H407	H	0.732650	0.330847	0.381723
	O408	O	0.452464	0.417762	0.365601
	H409	H	0.450482	0.429496	0.373071
	H410	H	0.450815	0.414454	0.359954
	O411	O	0.791316	0.913222	0.911492
	H412	H	0.798978	0.917309	0.897113
	H413	H	0.779536	0.910822	0.927836
	O414	O	0.506963	0.505612	0.672760
	H415	H	0.505248	0.511409	0.669005
	H416	H	0.499664	0.493927	0.676581
	O417	O	-0.093736	0.894265	0.893374
	H418	H	-0.099702	0.885961	0.889208
	H419	H	-0.090306	0.896218	0.899054
	O420	O	-0.053673	1.102910	0.890023
	H421	H	-0.063501	1.123832	0.897186
	H422	H	-0.067775	1.104279	0.886819
	O423	O	0.120347	1.177320	0.040068
	H424	H	0.130296	1.191622	0.031386
	H425	H	0.119339	1.168518	0.048362
	O426	O	0.340180	0.414722	0.425528
	H427	H	0.354721	0.415899	0.421824
	H428	H	0.340705	0.434125	0.426632
	O429	O	0.349947	0.701256	0.459288
	H430	H	0.345059	0.678959	0.475301
	H431	H	0.326670	0.717865	0.466171
	O432	O	0.569298	0.283124	0.600978
	H433	H	0.568005	0.275480	0.592146
	H434	H	0.600103	0.278632	0.596810
	O435	O	-0.117991	-0.182693	0.189061
	H436	H	-0.143137	-0.171385	0.190827
	H437	H	-0.109606	-0.194690	0.199265
	O438	O	-0.260780	1.223527	1.213526
	H439	H	-0.260711	1.234459	1.194847
	H440	H	-0.268233	1.229986	1.206469
	O441	O	0.537356	0.286100	0.425424
	H442	H	0.528774	0.279421	0.427454
	H443	H	0.557820	0.271052	0.412244
