data_Molecule from HDF5

_cell_length_a		16.464879
_cell_length_b		16.483487
_cell_length_c		16.402653
_cell_angle_alpha	90.094550
_cell_angle_beta	89.956415
_cell_angle_gamma	90.106110
_symmetry_space_group_name_H-M	'P 1'
_symmetry_Int_Tables_number		1

loop_
	_symmetry_equiv_pos_as_xyz
	x,y,z

loop_
	_atom_site_label
	_atom_site_type_symbol
	_atom_site_fract_x
	_atom_site_fract_y
	_atom_site_fract_z
	H0	H	0.394318	0.859217	0.732847
	H1	H	0.608617	0.173098	0.731663
	H2	H	0.606342	0.857078	0.290544
	H3	H	0.402435	0.175481	0.292306
	H4	H	0.722356	0.415178	0.850149
	H5	H	0.723245	0.621229	0.169225
	H6	H	0.282301	0.621030	0.851449
	H7	H	0.283749	0.411108	0.169100
	H8	H	0.844894	0.735766	0.408685
	H9	H	0.161836	0.740363	0.618448
	H10	H	0.846852	0.295022	0.617019
	H11	H	0.160687	0.294240	0.404151
	H12	H	0.845209	0.414787	0.729595
	H13	H	0.163338	0.621967	0.732197
	H14	H	0.844450	0.620420	0.292041
	H15	H	0.162152	0.413614	0.290586
	H16	H	0.397223	0.737915	0.851797
	H17	H	0.608707	0.737859	0.168792
	H18	H	0.608542	0.296529	0.850935
	H19	H	0.400287	0.296276	0.168707
	H20	H	0.722623	0.857099	0.406130
	H21	H	0.726401	0.172322	0.616297
	H22	H	0.279990	0.858858	0.615369
	H23	H	0.280316	0.173003	0.402622
	H24	H	0.900060	0.357741	0.230157
	H25	H	0.109171	0.674052	0.232697
	H26	H	0.110116	0.359412	0.788126
	H27	H	0.899835	0.674493	0.789222
	H28	H	0.223201	0.909854	0.351488
	H29	H	0.227352	0.123296	0.667686
	H30	H	0.785218	0.118760	0.351847
	H31	H	0.781259	0.909523	0.668549
	H32	H	0.347100	0.239870	0.902146
	H33	H	0.662437	0.237597	0.115152
	H34	H	0.346772	0.793058	0.117158
	H35	H	0.660437	0.794243	0.902654
	H36	H	0.345216	0.911601	0.230374
	H37	H	0.662517	0.120483	0.230775
	H38	H	0.347407	0.125763	0.784893
	H39	H	0.660163	0.909881	0.786869
	H40	H	0.896847	0.238490	0.354048
	H41	H	0.111229	0.238760	0.669486
	H42	H	0.107657	0.794797	0.353440
	H43	H	0.897462	0.795602	0.670064
	H44	H	0.224982	0.358323	0.904483
	H45	H	0.228337	0.672683	0.118501
	H46	H	0.782076	0.358427	0.115053
	H47	H	0.782359	0.674632	0.903862
	H48	H	0.409015	0.129580	0.593982
	H49	H	0.597452	0.900072	0.599675
	H50	H	0.592488	0.127724	0.421730
	H51	H	0.422046	0.906998	0.423591
	H52	H	0.590390	0.417645	0.126014
	H53	H	0.600525	0.605498	0.894320
	H54	H	0.419013	0.605764	0.122046
	H55	H	0.418991	0.425375	0.897428
	H56	H	0.117215	0.607322	0.421829
	H57	H	0.890856	0.610773	0.599688
	H58	H	0.116977	0.429112	0.599779
	H59	H	0.887904	0.421877	0.418977
	H60	H	0.117731	0.425759	0.600817
	H61	H	0.894353	0.603423	0.597039
	H62	H	0.116004	0.606906	0.424033
	H63	H	0.892363	0.425719	0.427670
	H64	H	0.413961	0.606562	0.124279
	H65	H	0.589775	0.599560	0.899951
	H66	H	0.602649	0.429567	0.126288
	H67	H	0.411339	0.424868	0.894293
	H68	H	0.598113	0.130135	0.422736
	H69	H	0.586883	0.903087	0.602133
	H70	H	0.419292	0.128868	0.603942
	H71	H	0.404149	0.901855	0.426479
	H72	H	0.918719	0.628211	0.102314
	H73	H	0.098476	0.401700	0.100247
	H74	H	0.090269	0.627964	0.921519
	H75	H	0.915318	0.403164	0.917046
	H76	H	0.090001	0.928021	0.623526
	H77	H	0.093656	0.104323	0.397443
	H78	H	0.917227	0.105164	0.623383
	H79	H	0.909690	0.926189	0.395718
	H80	H	0.614904	0.102218	0.920438
	H81	H	0.392246	0.101929	0.102456
	H82	H	0.618952	0.919662	0.098350
	H83	H	0.388323	0.920866	0.921412
	H84	H	0.613780	0.931506	0.092327
	H85	H	0.388124	0.110857	0.104396
	H86	H	0.617291	0.107392	0.920348
	H87	H	0.393049	0.929949	0.928840
	H88	H	0.913569	0.105712	0.625366
	H89	H	0.089675	0.103266	0.399487
	H90	H	0.093372	0.928649	0.624551
	H91	H	0.915942	0.928625	0.398276
	H92	H	0.093506	0.627219	0.926567
	H93	H	0.086960	0.404576	0.104611
	H94	H	0.910594	0.629667	0.096774
	H95	H	0.916929	0.406454	0.924515
	H96	H	0.421284	0.124000	0.590935
	H97	H	0.591270	0.905606	0.591861
	H98	H	0.595516	0.130500	0.416913
	H99	H	0.412149	0.898934	0.409762
	H100	H	0.587233	0.433314	0.119608
	H101	H	0.589076	0.612074	0.895775
	H102	H	0.414489	0.601616	0.121957
	H103	H	0.414053	0.431765	0.897504
	H104	H	0.116361	0.604770	0.422155
	H105	H	0.890857	0.603634	0.605361
	H106	H	0.117422	0.426879	0.597046
	H107	H	0.890434	0.431623	0.419402
	H108	H	0.910569	0.631621	0.105852
	H109	H	0.090170	0.407024	0.092146
	H110	H	0.095991	0.630093	0.921417
	H111	H	0.909533	0.403226	0.922490
	H112	H	0.091080	0.931570	0.623443
	H113	H	0.090808	0.107656	0.398144
	H114	H	0.914700	0.102397	0.624095
	H115	H	0.915300	0.922047	0.396096
	H116	H	0.614762	0.105450	0.924954
	H117	H	0.392186	0.108776	0.095202
	H118	H	0.617259	0.931389	0.106003
	H119	H	0.390088	0.932149	0.916570
	C120	C	0.382199	0.024431	0.630365
	C121	C	0.624491	1.006819	0.631101
	C122	C	0.625874	0.024463	0.388667
	C123	C	0.381437	1.007358	0.388121
	C124	C	0.625226	0.395436	0.018488
	C125	C	0.625295	0.638577	1.001382
	C126	C	0.382742	0.637145	0.018135
	C127	C	0.383192	0.395166	1.001411
	C128	C	0.011717	0.637792	0.390792
	C129	C	0.996189	0.638857	0.633256
	C130	C	0.012709	0.395417	0.631937
	C131	C	0.994738	0.394807	0.389725
	C132	C	0.881457	0.525222	0.132862
	C133	C	0.125411	0.507973	0.132408
	C134	C	0.125603	0.524521	0.889914
	C135	C	0.882891	0.508657	0.889457
	C136	C	0.123534	0.896339	0.519285
	C137	C	0.125174	0.138091	0.502463
	C138	C	0.882867	0.136784	0.519744
	C139	C	0.881733	0.894085	0.501934
	C140	C	0.511851	0.137732	0.888612
	C141	C	0.495465	0.138742	0.132408
	C142	C	0.512185	0.895011	0.131228
	C143	C	0.494385	0.894917	0.888633
	C144	C	0.377869	0.906128	0.692082
	C145	C	0.627095	0.125922	0.691464
	C146	C	0.625723	0.904832	0.330031
	C147	C	0.381915	0.127073	0.330187
	C148	C	0.683517	0.395143	0.898071
	C149	C	0.684200	0.640257	0.121241
	C150	C	0.322253	0.639450	0.899232
	C151	C	0.323587	0.392947	0.121201
	C152	C	0.892369	0.696467	0.389645
	C153	C	0.114486	0.700203	0.636564
	C154	C	0.893834	0.335490	0.634742
	C155	C	0.113741	0.334814	0.386538
	C156	C	0.893178	0.394943	0.690766
	C157	C	0.115457	0.640991	0.692990
	C158	C	0.892433	0.639131	0.331502
	C159	C	0.114088	0.393868	0.329789
	C160	C	0.379511	0.697770	0.899349
	C161	C	0.627133	0.698344	0.120837
	C162	C	0.626626	0.336409	0.898434
	C163	C	0.381744	0.335961	0.121243
	C164	C	0.683630	0.904807	0.387574
	C165	C	0.685551	0.125449	0.634201
	C166	C	0.320773	0.905954	0.633539
	C167	C	0.321372	0.126036	0.385427
	C168	C	0.880434	0.405718	0.191360
	C169	C	0.128132	0.626569	0.192931
	C170	C	0.127940	0.406345	0.828626
	C171	C	0.881595	0.627447	0.829422
	C172	C	0.183437	0.892586	0.399678
	C173	C	0.186778	0.141169	0.620710
	C174	C	0.823695	0.138392	0.400168
	C175	C	0.821519	0.891721	0.621320
	C176	C	0.394061	0.199343	0.884898
	C177	C	0.614822	0.197774	0.133752
	C178	C	0.393659	0.834242	0.134442
	C179	C	0.612889	0.834504	0.885018
	C180	C	0.393205	0.892876	0.191301
	C181	C	0.614825	0.139611	0.191390
	C182	C	0.394275	0.142368	0.826286
	C183	C	0.612800	0.892028	0.826898
	C184	C	0.879542	0.197791	0.401211
	C185	C	0.128985	0.198742	0.621488
	C186	C	0.125914	0.835156	0.400451
	C187	C	0.879404	0.834789	0.621792
	C188	C	0.185442	0.405897	0.886495
	C189	C	0.187297	0.625786	0.136053
	C190	C	0.821848	0.406017	0.133927
	C191	C	0.822851	0.627439	0.886391
	C192	C	0.408915	0.106181	0.603949
	C193	C	0.599050	0.924347	0.605371
	C194	C	0.602217	0.107646	0.413308
	C195	C	0.405629	0.924324	0.413009
	C196	C	0.600767	0.419719	0.101904
	C197	C	0.600337	0.613145	0.918401
	C198	C	0.408509	0.612050	0.101100
	C199	C	0.407950	0.420040	0.918044
	C200	C	0.094825	0.613239	0.415600
	C201	C	0.913638	0.613473	0.607925
	C202	C	0.095806	0.420113	0.606552
	C203	C	0.911911	0.419219	0.414878
	C204	C	0.906056	0.608361	0.108473
	C205	C	0.099337	0.425792	0.106483
	C206	C	0.100551	0.607009	0.915842
	C207	C	0.907013	0.425959	0.914256
	C208	C	0.098661	0.922227	0.602311
	C209	C	0.098785	0.112600	0.419703
	C210	C	0.908016	0.111526	0.602678
	C211	C	0.906417	0.918431	0.418504
	C212	C	0.594153	0.112137	0.914493
	C213	C	0.412498	0.114185	0.107806
	C214	C	0.595007	0.920207	0.105915
	C215	C	0.411870	0.920448	0.914755
	Zn216	Zn	0.502828	0.016357	0.759742
	Zn217	Zn	0.504199	0.016032	0.260089
	Zn218	Zn	0.753455	0.516976	0.009958
	Zn219	Zn	0.254527	0.515716	0.010557
	Zn220	Zn	0.003771	0.767130	0.511479
	Zn221	Zn	0.003867	0.266069	0.511357
	Zn222	Zn	0.004838	0.516655	0.760938
	Zn223	Zn	0.003580	0.517014	0.261478
	Zn224	Zn	0.503504	0.766331	0.009959
	Zn225	Zn	0.503859	0.266699	0.009771
	Zn226	Zn	0.754154	0.015491	0.510444
	Zn227	Zn	0.252714	0.015954	0.509754
	N228	N	0.415368	0.980841	0.690365
	N229	N	0.590141	0.051087	0.689798
	N230	N	0.590463	0.980260	0.330445
	N231	N	0.418310	0.052168	0.331355
	N232	N	0.682774	0.430952	0.973629
	N233	N	0.683226	0.603858	0.045928
	N234	N	0.324296	0.602485	0.974158
	N235	N	0.324481	0.429004	0.045708
	N236	N	0.967514	0.695732	0.425877
	N237	N	0.039082	0.699131	0.600300
	N238	N	0.969231	0.335686	0.598932
	N239	N	0.038517	0.335133	0.422993
	N240	N	0.968328	0.431251	0.689324
	N241	N	0.041010	0.603711	0.691220
	N242	N	0.967802	0.603383	0.332034
	N243	N	0.039094	0.430343	0.331489
	N244	N	0.416726	0.696203	0.974302
	N245	N	0.591228	0.697651	0.045156
	N246	N	0.591166	0.336314	0.974398
	N247	N	0.417643	0.336826	0.045583
	N248	N	0.684021	0.980360	0.423108
	N249	N	0.684212	0.050445	0.597568
	N250	N	0.323329	0.980270	0.596012
	N251	N	0.320615	0.050306	0.420203
	N252	N	0.916732	0.480850	0.190995
	N253	N	0.090437	0.552174	0.190728
	N254	N	0.091351	0.481216	0.830615
	N255	N	0.918196	0.552645	0.831010
	N256	N	0.181981	0.930051	0.474588
	N257	N	0.184657	0.104338	0.545515
	N258	N	0.825605	0.101063	0.474935
	N259	N	0.822619	0.927722	0.545865
	N260	N	0.468164	0.196675	0.923081
	N261	N	0.539547	0.197405	0.097917
	N262	N	0.468648	0.835446	0.097863
	N263	N	0.538209	0.835866	0.922348
	N264	N	0.467990	0.930058	0.189422
	N265	N	0.539450	0.103712	0.190878
	N266	N	0.468573	0.104654	0.828664
	N267	N	0.537985	0.928936	0.829001
	N268	N	0.915640	0.197099	0.476627
	N269	N	0.091591	0.197052	0.546684
	N270	N	0.089494	0.837227	0.475837
	N271	N	0.916189	0.836047	0.546545
	N272	N	0.183844	0.480327	0.924015
	N273	N	0.185727	0.551039	0.099101
	N274	N	0.822225	0.481402	0.098387
	N275	N	0.823601	0.552696	0.923222
	O276	O	0.308204	0.723715	0.412252
	H277	H	0.296497	0.711720	0.399605
	H278	H	0.318628	0.724855	0.407677
	O279	O	0.920389	-0.192847	0.923238
	H280	H	0.927781	-0.197568	0.929201
	H281	H	0.901322	-0.183648	0.922619
	O282	O	0.692603	0.628669	0.600954
	H283	H	0.700728	0.625313	0.597161
	H284	H	0.700113	0.618287	0.587343
	O285	O	0.190474	0.266295	0.818698
	H286	H	0.215540	0.253027	0.818687
	H287	H	0.188153	0.288961	0.821081
	O288	O	1.004705	0.991244	-0.044702
	H289	H	0.994793	0.976219	-0.046526
	H290	H	1.003292	0.991697	-0.020274
	O291	O	0.483871	0.697558	0.416950
	H292	H	0.494068	0.704336	0.410860
	H293	H	0.499921	0.701145	0.431447
	O294	O	-0.042959	0.075927	1.205495
	H295	H	-0.033979	0.064907	1.192249
	H296	H	-0.043565	0.081677	1.209422
	O297	O	1.124519	0.146970	0.030626
	H298	H	1.125953	0.160146	0.027265
	H299	H	1.113856	0.144640	0.026044
	O300	O	0.813084	1.207666	-0.187222
	H301	H	0.846001	1.199854	-0.195366
	H302	H	0.823553	1.195420	-0.173175
	O303	O	0.598370	0.320318	0.539404
	H304	H	0.614377	0.314793	0.526130
	H305	H	0.584313	0.326769	0.539902
	O306	O	0.547689	0.336265	0.421984
	H307	H	0.558153	0.344973	0.416242
	H308	H	0.557822	0.341509	0.410738
	O309	O	0.482861	0.338706	0.695321
	H310	H	0.498670	0.340351	0.691084
	H311	H	0.496815	0.325556	0.696166
	O312	O	0.041052	1.225231	1.222234
	H313	H	0.057210	1.227159	1.230963
	H314	H	0.042779	1.231252	1.222297
	O315	O	0.321289	0.696334	0.377895
	H316	H	0.321720	0.693748	0.370855
	H317	H	0.343860	0.693585	0.375917
	O318	O	0.848327	0.088335	-0.196057
	H319	H	0.848556	0.070159	-0.205740
	H320	H	0.853385	0.101822	-0.212082
	O321	O	-0.213738	0.229611	-0.021355
	H322	H	-0.222524	0.239816	-0.044951
	H323	H	-0.232867	0.231666	-0.025027
	O324	O	0.304059	0.395607	0.688896
	H325	H	0.330952	0.407536	0.682212
	H326	H	0.291618	0.418916	0.703944
	O327	O	0.640500	0.473464	0.610086
	H328	H	0.639073	0.468702	0.619130
	H329	H	0.645435	0.475512	0.597811
	O330	O	-0.212604	0.802976	0.033550
	H331	H	-0.204842	0.817712	0.043715
	H332	H	-0.240696	0.778173	0.031316
	O333	O	0.187410	0.824773	0.934641
	H334	H	0.179211	0.815106	0.946126
	H335	H	0.198643	0.815989	0.940867
	O336	O	0.107888	-0.069209	0.192405
	H337	H	0.125023	-0.056427	0.196521
	H338	H	0.114713	-0.079564	0.204573
	O339	O	-0.163342	1.100492	1.092312
	H340	H	-0.150123	1.092001	1.077645
	H341	H	-0.158360	1.101291	1.078821
	O342	O	0.207594	1.042480	1.221907
	H343	H	0.212507	1.056908	1.224755
	H344	H	0.210030	1.056179	1.237228
	O345	O	1.543081	0.559177	-0.642388
	H346	H	1.532653	0.555167	-0.650391
	H347	H	1.556042	0.565205	-0.652596
	O348	O	0.192596	0.195211	0.198617
	H349	H	0.185299	0.200909	0.206446
	H350	H	0.196863	0.192179	0.168142
	O351	O	0.200499	0.915936	1.027752
	H352	H	0.194038	0.916892	1.049511
	H353	H	0.197007	0.916514	1.027480
	O354	O	-0.499562	0.313741	0.328161
	H355	H	-0.504279	0.293771	0.316221
	H356	H	-0.518290	0.315171	0.337436
	O357	O	-0.538221	-0.377662	0.584371
	H358	H	-0.542686	-0.377080	0.581930
	H359	H	-0.530954	-0.376918	0.583718
	O360	O	0.496737	0.443661	0.393601
	H361	H	0.490713	0.434242	0.410206
	H362	H	0.502280	0.456133	0.402272
	O363	O	-0.702533	-0.447044	1.440394
	H364	H	-0.707459	-0.439877	1.416314
	H365	H	-0.701101	-0.452208	1.441244
	O366	O	0.909960	0.070170	1.023345
	H367	H	0.925081	0.072617	1.022520
	H368	H	0.903214	0.078037	1.016674
	O369	O	0.521827	0.559734	0.571566
	H370	H	0.501145	0.556110	0.573039
	H371	H	0.520706	0.564278	0.553643
	O372	O	0.921188	-0.098399	0.949487
	H373	H	0.927298	-0.120641	0.943147
	H374	H	0.933782	-0.100901	0.967392
	O375	O	-0.150941	0.075678	0.000868
	H376	H	-0.146766	0.083669	0.015187
	H377	H	-0.163314	0.085331	-0.018276
	O378	O	0.641921	0.638526	0.488268
	H379	H	0.655703	0.643715	0.479393
	H380	H	0.640209	0.637320	0.482536
	O381	O	0.292037	0.315249	0.521209
	H382	H	0.268155	0.292448	0.539665
	H383	H	0.290921	0.328986	0.552108
	O384	O	0.606172	0.729283	0.644110
	H385	H	0.604144	0.740761	0.679059
	H386	H	0.644939	0.730691	0.647595
	O387	O	-0.032795	-0.102183	0.903649
	H388	H	-0.033382	-0.106153	0.918520
	H389	H	-0.030231	-0.104761	0.891085
	O390	O	-0.597809	-0.577964	0.423068
	H391	H	-0.600977	-0.585709	0.422953
	H392	H	-0.600452	-0.579992	0.424567
	O393	O	0.924143	0.818808	1.213339
	H394	H	0.916260	0.827149	1.238244
	H395	H	0.920675	0.818483	1.199861
	O396	O	1.726175	0.786324	-0.710733
	H397	H	1.718898	0.799934	-0.713376
	H398	H	1.722411	0.775291	-0.734133
	O399	O	1.204781	0.004358	0.802670
	H400	H	1.215509	0.003571	0.786637
	H401	H	1.208045	0.000445	0.817076
	O402	O	1.281794	0.751348	0.699052
	H403	H	1.277366	0.739987	0.714255
	H404	H	1.282717	0.789369	0.688965
	O405	O	1.055654	0.820440	0.139702
	H406	H	1.067578	0.812997	0.136517
	H407	H	1.047277	0.820890	0.145408
	O408	O	1.016729	-0.137797	-0.163251
	H409	H	1.036175	-0.126702	-0.158840
	H410	H	1.017893	-0.155247	-0.185808
	O411	O	1.044723	1.193500	-0.042416
	H412	H	1.030672	1.195454	-0.054923
	H413	H	1.050991	1.188709	-0.033695
	O414	O	0.610597	0.360598	0.660854
	H415	H	0.628323	0.347858	0.648775
	H416	H	0.613610	0.355836	0.660940
	O417	O	0.612331	0.581476	0.594674
	H418	H	0.622965	0.591060	0.592183
	H419	H	0.605325	0.595191	0.597415
	O420	O	0.026229	0.076202	-0.066908
	H421	H	0.029868	0.070859	-0.069563
	H422	H	0.012043	0.076415	-0.059823
	O423	O	0.667702	0.491847	0.328037
	H424	H	0.665075	0.468039	0.325641
	H425	H	0.675320	0.476567	0.308794
	O426	O	0.802582	0.990518	0.216675
	H427	H	0.798503	0.982445	0.225499
	H428	H	0.796693	1.008233	0.220085
	O429	O	0.471450	0.593629	0.636896
	H430	H	0.463876	0.595779	0.647825
	H431	H	0.465023	0.598876	0.635797
	O432	O	0.698267	0.604628	0.700992
	H433	H	0.712470	0.595794	0.708851
	H434	H	0.670012	0.596859	0.699153
	O435	O	0.477992	0.656297	0.484883
	H436	H	0.481130	0.657878	0.494722
	H437	H	0.478029	0.658370	0.500994
	O438	O	0.192957	0.146576	0.004198
	H439	H	0.187195	0.149366	-0.004810
	H440	H	0.201140	0.153487	0.009598
	O441	O	0.972840	0.138271	-0.157441
	H442	H	0.990322	0.147017	-0.178389
	H443	H	0.989885	0.132068	-0.137694
	O444	O	0.116040	1.038468	0.923969
	H445	H	0.117160	1.021126	0.916522
	H446	H	0.118224	1.015311	0.924896
	O447	O	0.699158	0.359030	0.317004
	H448	H	0.671422	0.343674	0.313180
	H449	H	0.706881	0.348076	0.305236
	O450	O	0.340980	0.489985	0.571327
	H451	H	0.342339	0.494502	0.563639
	H452	H	0.345241	0.502207	0.583515
	O453	O	0.511796	0.457226	0.353829
	H454	H	0.513440	0.454338	0.360161
	H455	H	0.520474	0.444858	0.358420
