data_Molecule from HDF5

_cell_length_a		16.171863
_cell_length_b		16.389262
_cell_length_c		16.226802
_cell_angle_alpha	90.046967
_cell_angle_beta	89.970862
_cell_angle_gamma	89.714218
_symmetry_space_group_name_H-M	'P 1'
_symmetry_Int_Tables_number		1

loop_
	_symmetry_equiv_pos_as_xyz
	x,y,z

loop_
	_atom_site_label
	_atom_site_type_symbol
	_atom_site_fract_x
	_atom_site_fract_y
	_atom_site_fract_z
	H0	H	0.393094	0.836107	0.713949
	H1	H	0.589981	0.161405	0.713545
	H2	H	0.591423	0.835711	0.281982
	H3	H	0.391631	0.161002	0.283142
	H4	H	0.704787	0.399628	0.833034
	H5	H	0.704076	0.595079	0.161625
	H6	H	0.279091	0.595526	0.832323
	H7	H	0.278095	0.401628	0.162518
	H8	H	0.828375	0.715198	0.395455
	H9	H	0.155568	0.714323	0.599623
	H10	H	0.827615	0.284276	0.597958
	H11	H	0.155429	0.280441	0.395561
	H12	H	0.827100	0.399876	0.711520
	H13	H	0.156859	0.595330	0.710352
	H14	H	0.826225	0.595539	0.284950
	H15	H	0.156287	0.399705	0.282844
	H16	H	0.388262	0.715831	0.834695
	H17	H	0.592353	0.714086	0.159854
	H18	H	0.593080	0.281384	0.834769
	H19	H	0.390749	0.282016	0.160912
	H20	H	0.707262	0.835682	0.398721
	H21	H	0.705983	0.161729	0.596384
	H22	H	0.277835	0.834910	0.596953
	H23	H	0.274965	0.160474	0.399466
	H24	H	0.892097	0.336120	0.212909
	H25	H	0.090727	0.661375	0.213030
	H26	H	0.091769	0.335667	0.781449
	H27	H	0.890511	0.660953	0.781500
	H28	H	0.206103	0.899427	0.333520
	H29	H	0.203117	0.094052	0.663070
	H30	H	0.778773	0.094813	0.333159
	H31	H	0.779190	0.901678	0.661757
	H32	H	0.327301	0.213957	0.897984
	H33	H	0.655523	0.212576	0.097442
	H34	H	0.327332	0.784844	0.097394
	H35	H	0.654380	0.780639	0.896107
	H36	H	0.327384	0.901539	0.211709
	H37	H	0.656828	0.095829	0.210763
	H38	H	0.326510	0.096708	0.784387
	H39	H	0.656703	0.900192	0.784724
	H40	H	0.888570	0.214962	0.334570
	H41	H	0.092923	0.215141	0.660721
	H42	H	0.093335	0.781152	0.334509
	H43	H	0.891667	0.782606	0.660041
	H44	H	0.208644	0.335933	0.898068
	H45	H	0.203577	0.662895	0.092650
	H46	H	0.777937	0.335286	0.093824
	H47	H	0.774995	0.660698	0.899076
	H48	H	0.398846	0.114078	0.592718
	H49	H	0.584278	0.882440	0.594845
	H50	H	0.591358	0.116792	0.401692
	H51	H	0.404734	0.885281	0.408507
	H52	H	0.581556	0.401999	0.114954
	H53	H	0.587556	0.592368	0.878690
	H54	H	0.408153	0.589182	0.110315
	H55	H	0.408211	0.417331	0.887043
	H56	H	0.109068	0.589869	0.403184
	H57	H	0.873657	0.590152	0.593583
	H58	H	0.110102	0.406873	0.595575
	H59	H	0.875339	0.404192	0.409450
	H60	H	0.109637	0.397665	0.584998
	H61	H	0.873980	0.597346	0.586848
	H62	H	0.109870	0.591378	0.405555
	H63	H	0.875103	0.409369	0.402834
	H64	H	0.396001	0.603793	0.117853
	H65	H	0.581125	0.584869	0.881811
	H66	H	0.586904	0.405140	0.114992
	H67	H	0.407527	0.392360	0.879920
	H68	H	0.579370	0.114522	0.398777
	H69	H	0.583506	0.884407	0.588694
	H70	H	0.398548	0.112418	0.589942
	H71	H	0.395010	0.881614	0.405817
	H72	H	0.894045	0.614550	0.090914
	H73	H	0.090676	0.382827	0.086392
	H74	H	0.088688	0.615336	0.900924
	H75	H	0.893733	0.382491	0.908343
	H76	H	0.084775	0.885799	0.621338
	H77	H	0.082007	0.092446	0.380832
	H78	H	0.901893	0.093827	0.614299
	H79	H	0.896884	0.904087	0.379214
	H80	H	0.603023	0.081095	0.915018
	H81	H	0.374584	0.087119	0.094438
	H82	H	0.608732	0.906290	0.090105
	H83	H	0.373686	0.903329	0.903716
	H84	H	0.610478	0.901886	0.089905
	H85	H	0.371855	0.097916	0.091780
	H86	H	0.612302	0.086808	0.891881
	H87	H	0.374808	0.906346	0.909995
	H88	H	0.897605	0.092677	0.615313
	H89	H	0.085070	0.089803	0.380619
	H90	H	0.099733	0.913859	0.616032
	H91	H	0.901185	0.907241	0.381183
	H92	H	0.081400	0.614558	0.899389
	H93	H	0.085502	0.381715	0.095741
	H94	H	0.899074	0.614537	0.093838
	H95	H	0.896933	0.379601	0.895814
	H96	H	0.395963	0.114626	0.591259
	H97	H	0.589710	0.882179	0.590796
	H98	H	0.583635	0.111736	0.410491
	H99	H	0.402675	0.881538	0.398707
	H100	H	0.581116	0.407744	0.112806
	H101	H	0.577562	0.594673	0.880540
	H102	H	0.388764	0.585035	0.115469
	H103	H	0.386055	0.406642	0.877310
	H104	H	0.108275	0.588911	0.405659
	H105	H	0.876793	0.587854	0.584225
	H106	H	0.105159	0.410143	0.582944
	H107	H	0.872229	0.401726	0.401927
	H108	H	0.899369	0.613022	0.087583
	H109	H	0.080309	0.385316	0.087612
	H110	H	0.084390	0.613225	0.906400
	H111	H	0.906171	0.385354	0.903821
	H112	H	0.068786	0.911066	0.608043
	H113	H	0.081189	0.087987	0.382358
	H114	H	0.899899	0.089362	0.613521
	H115	H	0.902280	0.902181	0.379856
	H116	H	0.611208	0.104089	0.910498
	H117	H	0.376267	0.090755	0.083214
	H118	H	0.607761	0.903821	0.086571
	H119	H	0.374806	0.910049	0.904271
	C120	C	0.369744	0.006503	0.620012
	C121	C	0.613935	0.990471	0.619766
	C122	C	0.613941	0.006693	0.375202
	C123	C	0.370231	0.990148	0.375964
	C124	C	0.612967	0.375965	0.006197
	C125	C	0.611521	0.619006	0.988702
	C126	C	0.369244	0.620816	0.006098
	C127	C	0.370889	0.377068	0.989282
	C128	C	0.000170	0.619244	0.375862
	C129	C	0.983645	0.619552	0.617686
	C130	C	0.000031	0.376986	0.617413
	C131	C	0.983173	0.376138	0.375451
	C132	C	0.869474	0.506564	0.118746
	C133	C	0.113167	0.490745	0.118336
	C134	C	0.114141	0.506659	0.874353
	C135	C	0.869234	0.489982	0.874242
	C136	C	0.113719	0.875364	0.506547
	C137	C	0.112202	0.119243	0.489736
	C138	C	0.869976	0.120396	0.505795
	C139	C	0.870984	0.876789	0.488398
	C140	C	0.499870	0.119866	0.876671
	C141	C	0.483021	0.120068	0.118707
	C142	C	0.500450	0.876533	0.118569
	C143	C	0.482871	0.876955	0.876163
	C144	C	0.372713	0.884431	0.675688
	C145	C	0.610834	0.112773	0.675348
	C146	C	0.612086	0.884377	0.319830
	C147	C	0.371560	0.112380	0.320953
	C148	C	0.668203	0.378416	0.882477
	C149	C	0.667173	0.616224	0.112271
	C150	C	0.315460	0.616988	0.881978
	C151	C	0.315086	0.379878	0.113068
	C152	C	0.877143	0.676076	0.376667
	C153	C	0.107011	0.675203	0.617747
	C154	C	0.876426	0.322429	0.617076
	C155	C	0.106366	0.319518	0.376235
	C156	C	0.876478	0.379948	0.673601
	C157	C	0.107489	0.616195	0.673120
	C158	C	0.875954	0.616639	0.321542
	C159	C	0.106953	0.378826	0.320362
	C160	C	0.370048	0.676674	0.883136
	C161	C	0.611216	0.675052	0.111438
	C162	C	0.612173	0.319808	0.883273
	C163	C	0.371324	0.320986	0.112384
	C164	C	0.669511	0.884421	0.378126
	C165	C	0.668406	0.113023	0.617091
	C166	C	0.315519	0.883776	0.617375
	C167	C	0.313544	0.111968	0.378921
	C168	C	0.872196	0.384266	0.174065
	C169	C	0.110855	0.613143	0.174147
	C170	C	0.112153	0.384154	0.819458
	C171	C	0.870634	0.612219	0.819334
	C172	C	0.169161	0.878197	0.382760
	C173	C	0.166383	0.115538	0.613546
	C174	C	0.815259	0.116830	0.382518
	C175	C	0.816679	0.880854	0.612515
	C176	C	0.376200	0.175802	0.878077
	C177	C	0.606928	0.174468	0.116923
	C178	C	0.376443	0.822216	0.117327
	C179	C	0.605891	0.820042	0.876718
	C180	C	0.376538	0.880118	0.174230
	C181	C	0.607425	0.116443	0.173320
	C182	C	0.375794	0.117357	0.821896
	C183	C	0.606946	0.879302	0.821429
	C184	C	0.870283	0.176245	0.383266
	C185	C	0.111705	0.175858	0.612302
	C186	C	0.112722	0.819872	0.383076
	C187	C	0.872443	0.821589	0.611792
	C188	C	0.170046	0.384364	0.877544
	C189	C	0.167034	0.613843	0.114615
	C190	C	0.814961	0.383909	0.115491
	C191	C	0.813288	0.612364	0.878017
	C192	C	0.391390	0.091681	0.597784
	C193	C	0.592318	0.905152	0.597698
	C194	C	0.591233	0.092256	0.397253
	C195	C	0.393832	0.904721	0.397881
	C196	C	0.589954	0.398376	0.092045
	C197	C	0.588908	0.596941	0.902589
	C198	C	0.391142	0.599238	0.092355
	C199	C	0.393851	0.399010	0.903730
	C200	C	0.086689	0.596724	0.398328
	C201	C	0.897292	0.598116	0.594718
	C202	C	0.086124	0.398556	0.594472
	C203	C	0.896573	0.398463	0.398005
	C204	C	0.891126	0.592028	0.097149
	C205	C	0.091759	0.405457	0.096313
	C206	C	0.091633	0.592192	0.895881
	C207	C	0.892062	0.404564	0.896226
	C208	C	0.091228	0.897222	0.592762
	C209	C	0.089451	0.096702	0.403438
	C210	C	0.893194	0.098273	0.592235
	C211	C	0.893477	0.898279	0.402327
	C212	C	0.586423	0.097436	0.899299
	C213	C	0.396720	0.098401	0.096460
	C214	C	0.586613	0.897664	0.095618
	C215	C	0.396646	0.899894	0.899160
	Zn216	Zn	0.491612	-0.001393	0.748732
	Zn217	Zn	0.491994	-0.001417	0.246417
	Zn218	Zn	0.740224	0.497784	-0.002903
	Zn219	Zn	0.242609	0.498708	-0.002774
	Zn220	Zn	-0.007839	0.747743	0.497216
	Zn221	Zn	-0.008730	0.248028	0.497555
	Zn222	Zn	-0.008037	0.498218	0.745393
	Zn223	Zn	-0.008269	0.498393	0.247631
	Zn224	Zn	0.490850	0.748252	-0.002911
	Zn225	Zn	0.491865	0.247818	-0.002358
	Zn226	Zn	0.742896	-0.001293	0.497658
	Zn227	Zn	0.240848	-0.002678	0.498102
	N228	N	0.405667	0.961718	0.677562
	N229	N	0.577656	0.035546	0.677180
	N230	N	0.578332	0.961465	0.317838
	N231	N	0.406077	0.035593	0.319056
	N232	N	0.668664	0.412717	0.959848
	N233	N	0.667410	0.581883	0.034862
	N234	N	0.314849	0.582822	0.959397
	N235	N	0.314521	0.414232	0.035593
	N236	N	0.955460	0.677618	0.410070
	N237	N	0.029028	0.677478	0.583927
	N238	N	0.954040	0.320549	0.582534
	N239	N	0.028230	0.317761	0.409807
	N240	N	0.954507	0.413132	0.674124
	N241	N	0.029927	0.582327	0.673196
	N242	N	0.953605	0.582087	0.320908
	N243	N	0.029300	0.413217	0.319813
	N244	N	0.402755	0.679215	0.961353
	N245	N	0.577260	0.676775	0.033720
	N246	N	0.578758	0.318028	0.961189
	N247	N	0.405196	0.319099	0.034650
	N248	N	0.670554	0.961540	0.411931
	N249	N	0.670674	0.035975	0.583498
	N250	N	0.313455	0.960660	0.583561
	N251	N	0.312726	0.034777	0.412509
	N252	N	0.905187	0.461448	0.176284
	N253	N	0.078122	0.535837	0.176518
	N254	N	0.078180	0.461215	0.817410
	N255	N	0.904869	0.535194	0.817063
	N256	N	0.169887	0.911906	0.460433
	N257	N	0.166799	0.081022	0.536188
	N258	N	0.814941	0.082855	0.459970
	N259	N	0.815657	0.914386	0.534840
	N260	N	0.454534	0.177470	0.911394
	N261	N	0.528626	0.176937	0.083912
	N262	N	0.454503	0.819675	0.083463
	N263	N	0.527685	0.818378	0.910026
	N264	N	0.454462	0.913303	0.175034
	N265	N	0.529456	0.083250	0.174405
	N266	N	0.453696	0.083299	0.820992
	N267	N	0.529289	0.913930	0.820966
	N268	N	0.903645	0.178435	0.461247
	N269	N	0.078592	0.178022	0.534160
	N270	N	0.079296	0.817922	0.461082
	N271	N	0.905575	0.818868	0.533632
	N272	N	0.171600	0.461673	0.910677
	N273	N	0.169001	0.536820	0.080903
	N274	N	0.813489	0.460702	0.081499
	N275	N	0.811978	0.535050	0.911076
	O276	O	0.451606	0.459238	0.547847
	H277	H	0.452331	0.477845	0.548335
	H278	H	0.451296	0.464629	0.542932
	O279	O	0.387476	0.542150	0.524548
	H280	H	0.386582	0.525462	0.523806
	H281	H	0.388348	0.541939	0.527484
	O282	O	0.508012	0.536181	0.537836
	H283	H	0.504353	0.550102	0.531582
	H284	H	0.505665	0.530967	0.534620
	O285	O	-0.002917	1.120518	0.960454
	H286	H	-0.000709	1.121606	0.970015
	H287	H	0.001902	1.120395	0.966788
	O288	O	0.432672	0.516597	0.624330
	H289	H	0.428868	0.513393	0.630236
	H290	H	0.425976	0.510645	0.626622
	O291	O	0.403993	0.520804	1.532029
	H292	H	0.403408	0.519344	1.526213
	H293	H	0.394395	0.516321	1.532910
	O294	O	0.491795	0.454115	0.484202
	H295	H	0.497964	0.461462	0.474340
	H296	H	0.496075	0.459531	0.473645
	O297	O	0.489384	0.588972	0.487072
	H298	H	0.481127	0.599459	0.512516
	H299	H	0.479856	0.584269	0.483035
	O300	O	0.503389	0.473255	0.518297
	H301	H	0.506411	0.478720	0.522115
	H302	H	0.502544	0.463579	0.528355
	O303	O	0.467271	0.511864	0.476693
	H304	H	0.460393	0.505805	0.475415
	H305	H	0.456827	0.518311	0.480536
	O306	O	1.042168	0.074414	0.993848
	H307	H	1.041700	0.075825	0.989983
	H308	H	1.037946	0.072122	0.991129
	O309	O	0.512534	0.581895	0.519230
	H310	H	0.499410	0.579117	0.532870
	H311	H	0.520551	0.580313	0.511308
	O312	O	0.550403	0.489766	0.548591
	H313	H	0.546459	0.484640	0.549561
	H314	H	0.555976	0.480643	0.556530
	O315	O	1.045289	0.089005	1.020323
	H316	H	1.049696	0.084579	1.012016
	H317	H	1.036170	0.093988	1.014862
	O318	O	0.488959	-0.463045	-0.574015
	H319	H	0.492868	-0.463321	-0.584664
	H320	H	0.482664	-0.461999	-0.575753
	O321	O	0.573628	0.492496	0.485127
	H322	H	0.577597	0.500076	0.477412
	H323	H	0.572198	0.497196	0.491697
	O324	O	1.008456	0.095483	0.023804
	H325	H	1.009065	0.097675	0.032658
	H326	H	1.002453	0.102353	0.024027
	O327	O	0.995822	1.079657	-0.006379
	H328	H	1.007482	1.083670	-0.013882
	H329	H	0.995039	1.080396	0.000078
	O330	O	0.501066	0.492113	0.440487
	H331	H	0.509614	0.500049	0.450720
	H332	H	0.506100	0.486924	0.433931
	O333	O	0.480666	0.488706	0.515670
	H334	H	0.478727	0.482209	0.514257
	H335	H	0.488749	0.482147	0.517916
