data_Molecule from HDF5

_cell_length_a		16.193781
_cell_length_b		16.211901
_cell_length_c		16.388894
_cell_angle_alpha	89.820264
_cell_angle_beta	90.018491
_cell_angle_gamma	89.690643
_symmetry_space_group_name_H-M	'P 1'
_symmetry_Int_Tables_number		1

loop_
	_symmetry_equiv_pos_as_xyz
	x,y,z

loop_
	_atom_site_label
	_atom_site_type_symbol
	_atom_site_fract_x
	_atom_site_fract_y
	_atom_site_fract_z
	H0	H	0.401117	0.830833	0.724923
	H1	H	0.601505	0.157226	0.719594
	H2	H	0.607313	0.831427	0.288191
	H3	H	0.399906	0.155730	0.288193
	H4	H	0.720949	0.392622	0.844450
	H5	H	0.717851	0.591433	0.168657
	H6	H	0.285958	0.594500	0.844535
	H7	H	0.290319	0.392978	0.168543
	H8	H	0.841236	0.709585	0.405106
	H9	H	0.169072	0.705293	0.603349
	H10	H	0.840331	0.278549	0.606646
	H11	H	0.168555	0.278844	0.409625
	H12	H	0.841044	0.391479	0.724097
	H13	H	0.167088	0.595201	0.723965
	H14	H	0.841201	0.596225	0.289927
	H15	H	0.166877	0.390118	0.290048
	H16	H	0.401819	0.711732	0.843969
	H17	H	0.604701	0.709667	0.167681
	H18	H	0.603451	0.278257	0.843266
	H19	H	0.405383	0.277654	0.167723
	H20	H	0.721512	0.830663	0.405027
	H21	H	0.716309	0.157957	0.604304
	H22	H	0.292699	0.827161	0.603543
	H23	H	0.288219	0.156647	0.407988
	H24	H	0.902211	0.330629	0.224277
	H25	H	0.105950	0.655627	0.224047
	H26	H	0.107644	0.330602	0.789832
	H27	H	0.900041	0.655536	0.788505
	H28	H	0.220745	0.891711	0.344437
	H29	H	0.218419	0.089228	0.668735
	H30	H	0.786143	0.095466	0.344818
	H31	H	0.788293	0.893866	0.668839
	H32	H	0.339584	0.209578	0.906079
	H33	H	0.668371	0.203745	0.100810
	H34	H	0.340482	0.778178	0.105948
	H35	H	0.668116	0.778621	0.906006
	H36	H	0.340612	0.891337	0.223084
	H37	H	0.665435	0.096191	0.223250
	H38	H	0.339809	0.096608	0.789178
	H39	H	0.666620	0.891895	0.788273
	H40	H	0.902654	0.211377	0.345266
	H41	H	0.104366	0.206907	0.668954
	H42	H	0.105769	0.775933	0.343861
	H43	H	0.904376	0.775770	0.667824
	H44	H	0.218543	0.328237	0.909708
	H45	H	0.219349	0.656331	0.106297
	H46	H	0.791523	0.328772	0.104403
	H47	H	0.787399	0.656756	0.906343
	H48	H	0.407571	0.109070	0.594061
	H49	H	0.593312	0.878528	0.595107
	H50	H	0.589547	0.106272	0.419690
	H51	H	0.419319	0.877143	0.408087
	H52	H	0.600962	0.405475	0.120164
	H53	H	0.586922	0.588064	0.892402
	H54	H	0.411046	0.586588	0.121507
	H55	H	0.411567	0.401338	0.890429
	H56	H	0.123928	0.584740	0.406696
	H57	H	0.887369	0.588568	0.594418
	H58	H	0.120212	0.401984	0.598689
	H59	H	0.887280	0.397487	0.419853
	H60	H	0.121573	0.401527	0.602825
	H61	H	0.889777	0.579138	0.594753
	H62	H	0.121512	0.588418	0.419033
	H63	H	0.889531	0.409898	0.417110
	H64	H	0.411370	0.584853	0.120579
	H65	H	0.601429	0.590725	0.887205
	H66	H	0.590101	0.396204	0.120023
	H67	H	0.411624	0.401475	0.889677
	H68	H	0.600714	0.112090	0.413984
	H69	H	0.597955	0.876339	0.597602
	H70	H	0.408785	0.111284	0.602030
	H71	H	0.413673	0.878623	0.420857
	H72	H	0.911329	0.610282	0.098722
	H73	H	0.092615	0.377769	0.100672
	H74	H	0.095417	0.610256	0.913293
	H75	H	0.911808	0.375358	0.912944
	H76	H	0.090390	0.880535	0.624211
	H77	H	0.088614	0.079632	0.395267
	H78	H	0.912560	0.089736	0.622199
	H79	H	0.920183	0.900414	0.394061
	H80	H	0.619122	0.079151	0.911143
	H81	H	0.385081	0.081180	0.102500
	H82	H	0.620060	0.902718	0.096863
	H83	H	0.390001	0.908953	0.915736
	H84	H	0.619480	0.903671	0.098105
	H85	H	0.385247	0.090868	0.097894
	H86	H	0.622178	0.087619	0.906721
	H87	H	0.385259	0.902700	0.908718
	H88	H	0.905929	0.085617	0.623416
	H89	H	0.093276	0.095660	0.388056
	H90	H	0.114614	0.903135	0.625545
	H91	H	0.909009	0.896546	0.388333
	H92	H	0.091331	0.608445	0.913959
	H93	H	0.098178	0.376377	0.096465
	H94	H	0.911976	0.610332	0.099495
	H95	H	0.916190	0.377418	0.914602
	H96	H	0.414830	0.108011	0.598067
	H97	H	0.592938	0.877161	0.600388
	H98	H	0.589177	0.109953	0.407310
	H99	H	0.405984	0.873048	0.410442
	H100	H	0.602304	0.392579	0.125501
	H101	H	0.597730	0.576788	0.893495
	H102	H	0.413574	0.585744	0.121297
	H103	H	0.410852	0.400842	0.890518
	H104	H	0.118243	0.576328	0.415173
	H105	H	0.886642	0.582789	0.602409
	H106	H	0.121671	0.397648	0.599380
	H107	H	0.885134	0.402060	0.408238
	H108	H	0.911653	0.610056	0.098264
	H109	H	0.098659	0.375059	0.103000
	H110	H	0.094132	0.608748	0.917363
	H111	H	0.911734	0.377332	0.918008
	H112	H	0.084730	0.911132	0.614496
	H113	H	0.105763	0.082795	0.389382
	H114	H	0.911914	0.082242	0.620018
	H115	H	0.909534	0.909554	0.392556
	H116	H	0.619919	0.087902	0.916328
	H117	H	0.389271	0.082636	0.091565
	H118	H	0.620524	0.902403	0.097863
	H119	H	0.387341	0.899706	0.917978
	C120	C	0.381888	0.001172	0.627523
	C121	C	0.623987	0.985208	0.626853
	C122	C	0.624638	0.002222	0.384048
	C123	C	0.381929	0.983975	0.383776
	C124	C	0.627080	0.369605	0.014594
	C125	C	0.624901	0.614320	0.997659
	C126	C	0.381665	0.615956	0.014150
	C127	C	0.382622	0.371635	0.997527
	C128	C	0.013268	0.614162	0.384102
	C129	C	0.996031	0.613381	0.626982
	C130	C	0.012806	0.371004	0.629083
	C131	C	0.995450	0.372567	0.385937
	C132	C	0.882732	0.501750	0.128148
	C133	C	0.125713	0.484356	0.128957
	C134	C	0.124881	0.501394	0.885678
	C135	C	0.882293	0.484411	0.884905
	C136	C	0.126375	0.869438	0.514458
	C137	C	0.125378	0.114069	0.498065
	C138	C	0.880915	0.115946	0.515145
	C139	C	0.882395	0.871545	0.497903
	C140	C	0.511959	0.115342	0.883158
	C141	C	0.494693	0.114217	0.126183
	C142	C	0.512366	0.872316	0.127440
	C143	C	0.495149	0.872902	0.884227
	C144	C	0.382493	0.878871	0.685214
	C145	C	0.622283	0.108319	0.682296
	C146	C	0.625792	0.879936	0.327020
	C147	C	0.381088	0.107005	0.327103
	C148	C	0.683095	0.371989	0.892829
	C149	C	0.680337	0.612009	0.120082
	C150	C	0.324235	0.614979	0.892997
	C151	C	0.327853	0.372895	0.119738
	C152	C	0.890227	0.671650	0.385087
	C153	C	0.119447	0.668591	0.624546
	C154	C	0.889372	0.316178	0.626652
	C155	C	0.119089	0.316321	0.388436
	C156	C	0.889921	0.372091	0.685438
	C157	C	0.118526	0.613409	0.684375
	C158	C	0.890082	0.615030	0.327797
	C159	C	0.118162	0.371869	0.329082
	C160	C	0.382106	0.673134	0.892712
	C161	C	0.624155	0.670905	0.119359
	C162	C	0.624549	0.315157	0.892221
	C163	C	0.385043	0.315479	0.119415
	C164	C	0.682862	0.879708	0.385202
	C165	C	0.679248	0.108485	0.624777
	C166	C	0.328333	0.877219	0.624961
	C167	C	0.325288	0.107292	0.386388
	C168	C	0.883656	0.379315	0.185065
	C169	C	0.125390	0.606862	0.185273
	C170	C	0.126138	0.378960	0.828787
	C171	C	0.881439	0.606949	0.827508
	C172	C	0.182770	0.871421	0.392731
	C173	C	0.180830	0.110518	0.620283
	C174	C	0.824515	0.115448	0.393367
	C175	C	0.825881	0.872993	0.619851
	C176	C	0.388653	0.171750	0.885768
	C177	C	0.618825	0.167775	0.122681
	C178	C	0.389604	0.815622	0.126332
	C179	C	0.618704	0.816146	0.885534
	C180	C	0.389574	0.872173	0.184614
	C181	C	0.617115	0.114253	0.183668
	C182	C	0.388828	0.115479	0.827373
	C183	C	0.618122	0.872634	0.827049
	C184	C	0.882644	0.172911	0.393595
	C185	C	0.123745	0.168832	0.620299
	C186	C	0.125313	0.814128	0.392324
	C187	C	0.883634	0.814245	0.619405
	C188	C	0.181148	0.377834	0.888583
	C189	C	0.181538	0.607354	0.126592
	C190	C	0.828342	0.378335	0.125569
	C191	C	0.825315	0.607614	0.886134
	C192	C	0.403998	0.087094	0.604753
	C193	C	0.601166	0.899505	0.604330
	C194	C	0.600271	0.087629	0.407011
	C195	C	0.405901	0.898396	0.406714
	C196	C	0.604550	0.391544	0.099781
	C197	C	0.602078	0.591641	0.913115
	C198	C	0.405109	0.592756	0.099180
	C199	C	0.404721	0.394580	0.912272
	C200	C	0.098807	0.590134	0.406947
	C201	C	0.910217	0.590051	0.603916
	C202	C	0.098821	0.393800	0.606929
	C203	C	0.909588	0.396244	0.408508
	C204	C	0.905138	0.587934	0.105313
	C205	C	0.103076	0.398593	0.106609
	C206	C	0.100767	0.586916	0.908253
	C207	C	0.906439	0.398854	0.908284
	C208	C	0.103314	0.891729	0.599231
	C209	C	0.102658	0.092147	0.412803
	C210	C	0.903377	0.092620	0.599921
	C211	C	0.906000	0.895336	0.413304
	C212	C	0.598110	0.091850	0.904923
	C213	C	0.408624	0.091561	0.103873
	C214	C	0.597896	0.896140	0.104511
	C215	C	0.409769	0.896709	0.907427
	Zn216	Zn	0.503114	-0.006232	0.755381
	Zn217	Zn	0.503491	-0.006346	0.255336
	Zn218	Zn	0.754300	0.493021	0.006654
	Zn219	Zn	0.253561	0.492387	0.006728
	Zn220	Zn	0.004761	0.741494	0.505201
	Zn221	Zn	0.004039	0.243840	0.507215
	Zn222	Zn	0.003969	0.493260	0.757035
	Zn223	Zn	0.003997	0.493206	0.256871
	Zn224	Zn	0.504351	0.744576	0.005809
	Zn225	Zn	0.503601	0.242433	0.005588
	Zn226	Zn	0.752625	-0.006007	0.506399
	Zn227	Zn	0.253867	-0.008177	0.506467
	N228	N	0.414930	0.957110	0.687106
	N229	N	0.588711	0.030525	0.683930
	N230	N	0.590110	0.957174	0.326448
	N231	N	0.415463	0.029287	0.325149
	N232	N	0.684781	0.405016	0.969904
	N233	N	0.680951	0.577438	0.043537
	N234	N	0.323820	0.580278	0.969674
	N235	N	0.326364	0.407094	0.042951
	N236	N	0.967726	0.671501	0.419213
	N237	N	0.042243	0.668659	0.589486
	N238	N	0.966941	0.315358	0.592432
	N239	N	0.041645	0.316297	0.422877
	N240	N	0.967823	0.405342	0.687370
	N241	N	0.040684	0.579771	0.685887
	N242	N	0.967614	0.580108	0.326984
	N243	N	0.040230	0.406077	0.327388
	N244	N	0.417076	0.673776	0.969185
	N245	N	0.590260	0.672301	0.042475
	N246	N	0.590539	0.313343	0.969069
	N247	N	0.418629	0.314699	0.042334
	N248	N	0.682144	0.956766	0.420066
	N249	N	0.680239	0.031076	0.590660
	N250	N	0.327740	0.954212	0.589900
	N251	N	0.325452	0.029785	0.420816
	N252	N	0.916556	0.457364	0.186794
	N253	N	0.091237	0.529453	0.186662
	N254	N	0.091605	0.456656	0.827111
	N255	N	0.915964	0.529357	0.826563
	N256	N	0.183389	0.905329	0.469524
	N257	N	0.181933	0.077219	0.543262
	N258	N	0.823337	0.080814	0.469961
	N259	N	0.824972	0.907816	0.543165
	N260	N	0.466264	0.171796	0.919603
	N261	N	0.541664	0.167810	0.087544
	N262	N	0.466848	0.815700	0.091519
	N263	N	0.541329	0.816183	0.920271
	N264	N	0.467059	0.906756	0.185602
	N265	N	0.539018	0.081440	0.185738
	N266	N	0.466571	0.080865	0.825660
	N267	N	0.540371	0.907091	0.825887
	N268	N	0.916983	0.173296	0.470325
	N269	N	0.089935	0.171241	0.543239
	N270	N	0.090914	0.812716	0.468968
	N271	N	0.917878	0.813194	0.542526
	N272	N	0.180639	0.455103	0.923207
	N273	N	0.182182	0.530002	0.092283
	N274	N	0.827645	0.455542	0.090716
	N275	N	0.825770	0.530384	0.921368
	O276	O	1.088409	0.051270	1.039073
	H277	H	1.104274	0.059516	1.047616
	H278	H	1.091020	0.038748	1.029090
	O279	O	0.093175	1.109572	-0.025077
	H280	H	0.097375	1.108358	-0.027104
	H281	H	0.110463	1.100363	-0.027589
	O282	O	0.564771	0.461276	0.500681
	H283	H	0.556173	0.465433	0.503794
	H284	H	0.561839	0.460624	0.499535
	O285	O	0.484959	0.562673	0.435410
	H286	H	0.477807	0.573062	0.442846
	H287	H	0.484292	0.572209	0.430352
	O288	O	0.371832	0.511918	0.562734
	H289	H	0.370017	0.517551	0.552435
	H290	H	0.374822	0.508857	0.562724
	O291	O	-0.030644	-0.064168	0.944259
	H292	H	-0.032953	-0.057169	0.948481
	H293	H	-0.039847	-0.053755	0.946974
	O294	O	0.829489	1.279137	0.227436
	H295	H	0.828811	1.279973	0.224869
	H296	H	0.825865	1.287595	0.233094
	O297	O	1.107585	0.912079	0.024337
	H298	H	1.108268	0.899770	0.022021
	H299	H	1.100513	0.902836	0.023537
	O300	O	0.523011	0.565274	0.581157
	H301	H	0.530642	0.557443	0.584287
	H302	H	0.519260	0.568459	0.587201
	O303	O	0.391104	0.482553	0.568403
	H304	H	0.394454	0.486808	0.557862
	H305	H	0.390784	0.489582	0.573179
	O306	O	0.397600	0.527186	0.514227
	H307	H	0.394995	0.531565	0.499928
	H308	H	0.396654	0.530519	0.511279
	O309	O	0.502535	0.551643	0.539453
	H310	H	0.494145	0.559432	0.540538
	H311	H	0.499410	0.546639	0.541339
	O312	O	1.134290	0.969872	0.859558
	H313	H	1.129254	0.962529	0.866402
	H314	H	1.141103	0.968212	0.853277
	O315	O	1.101526	0.866396	-0.063330
	H316	H	1.090988	0.861077	-0.064766
	H317	H	1.091824	0.863621	-0.053336
	O318	O	0.481600	0.573411	0.470997
	H319	H	0.477824	0.568174	0.471711
	H320	H	0.487138	0.572942	0.476899
	O321	O	0.529668	0.337343	0.531550
	H322	H	0.524925	0.333627	0.524668
	H323	H	0.523301	0.339411	0.537493
	O324	O	-0.036889	1.055643	0.881872
	H325	H	-0.051125	1.050545	0.888581
	H326	H	-0.053061	1.059305	0.885404
	O327	O	-0.046194	0.854582	1.179908
	H328	H	-0.050902	0.846346	1.185969
	H329	H	-0.051705	0.855822	1.184078
	O330	O	-0.002913	0.102337	0.073775
	H331	H	-0.001354	0.119864	0.080302
	H332	H	-0.001929	0.100935	0.072587
	O333	O	0.663859	0.471071	0.401027
	H334	H	0.671941	0.476659	0.403224
	H335	H	0.664541	0.463250	0.400244
	O336	O	-0.131658	-0.150043	0.103144
	H337	H	-0.147747	-0.148688	0.099192
	H338	H	-0.123205	-0.146919	0.106854
	O339	O	-0.084209	0.131252	0.046181
	H340	H	-0.079206	0.138947	0.041681
	H341	H	-0.082934	0.137443	0.043178
	O342	O	-0.046371	1.000104	0.050506
	H343	H	-0.048884	1.009274	0.043613
	H344	H	-0.048870	1.003135	0.056496
	O345	O	0.028919	0.850553	1.020141
	H346	H	0.039670	0.848982	1.023901
	H347	H	0.030183	0.860343	1.024568
	O348	O	0.593672	0.475775	0.402075
	H349	H	0.603110	0.479124	0.404109
	H350	H	0.607770	0.473111	0.398663
	O351	O	0.481895	0.518956	0.489886
	H352	H	0.487455	0.527059	0.493220
	H353	H	0.482849	0.523321	0.510138
	O354	O	-0.092868	1.062177	-0.023200
	H355	H	-0.090711	1.075706	-0.022018
	H356	H	-0.087084	1.074320	-0.031078
	O357	O	0.442005	0.367533	0.503427
	H358	H	0.440759	0.372288	0.509067
	H359	H	0.430547	0.366847	0.497432
	O360	O	0.536110	0.483712	0.570457
	H361	H	0.537352	0.480611	0.577997
	H362	H	0.542190	0.489332	0.572123
	O363	O	0.563235	0.470462	0.503978
	H364	H	0.563273	0.469205	0.505468
	H365	H	0.560840	0.462465	0.503073
	O366	O	0.526087	0.481956	0.550022
	H367	H	0.521527	0.479618	0.555893
	H368	H	0.525662	0.478858	0.551542
	O369	O	1.014017	0.002151	-0.006577
	H370	H	1.009576	-0.005339	0.001185
	H371	H	1.014792	0.019654	0.001565
	O372	O	0.556920	0.438081	0.463103
	H373	H	0.564072	0.432913	0.461976
	H374	H	0.551815	0.447748	0.465044
	O375	O	0.990929	-0.065974	1.030335
	H376	H	0.993133	-0.072434	1.027131
	H377	H	0.986153	-0.064033	1.015086
	O378	O	-0.062313	1.062154	0.156424
	H379	H	-0.048459	1.053631	0.152489
	H380	H	-0.057221	1.074742	0.158064
	O381	O	0.501418	0.462882	0.509459
	H382	H	0.508845	0.451573	0.491754
	H383	H	0.495161	0.464231	0.498052
	O384	O	1.046924	1.086270	-0.037930
	H385	H	1.048829	1.085610	-0.036232
	H386	H	1.039987	1.078206	-0.039006
	O387	O	1.069592	-0.033203	0.966732
	H388	H	1.061927	-0.042492	0.954879
	H389	H	1.065581	-0.029389	0.967314
	O390	O	0.895363	1.043119	-0.027268
	H391	H	0.907326	1.043633	-0.021220
	H392	H	0.896569	1.046371	-0.019901
	O393	O	0.606536	0.570759	0.594006
	H394	H	0.620199	0.560728	0.591679
	H395	H	0.605130	0.558012	0.600261
