data_Molecule from HDF5

_cell_length_a		16.255514
_cell_length_b		16.390700
_cell_length_c		16.133341
_cell_angle_alpha	89.764826
_cell_angle_beta	90.623641
_cell_angle_gamma	89.413971
_symmetry_space_group_name_H-M	'P 1'
_symmetry_Int_Tables_number		1

loop_
	_symmetry_equiv_pos_as_xyz
	x,y,z

loop_
	_atom_site_label
	_atom_site_type_symbol
	_atom_site_fract_x
	_atom_site_fract_y
	_atom_site_fract_z
	H0	H	0.412625	0.831119	0.725663
	H1	H	0.606106	0.157313	0.724184
	H2	H	0.606666	0.831972	0.291590
	H3	H	0.405085	0.157255	0.294724
	H4	H	0.714517	0.396707	0.841642
	H5	H	0.718460	0.594792	0.170210
	H6	H	0.283357	0.598502	0.843176
	H7	H	0.293682	0.400480	0.174073
	H8	H	0.844219	0.716306	0.401298
	H9	H	0.168172	0.702614	0.610336
	H10	H	0.841954	0.273784	0.609243
	H11	H	0.167020	0.274828	0.408039
	H12	H	0.837791	0.395917	0.718279
	H13	H	0.166505	0.587144	0.724203
	H14	H	0.838258	0.591114	0.295050
	H15	H	0.168044	0.395889	0.297092
	H16	H	0.396707	0.716418	0.844272
	H17	H	0.602789	0.708456	0.171578
	H18	H	0.602135	0.279932	0.843452
	H19	H	0.402114	0.280529	0.170822
	H20	H	0.722187	0.830008	0.410742
	H21	H	0.726035	0.153923	0.611867
	H22	H	0.295495	0.828776	0.609178
	H23	H	0.284329	0.152717	0.405390
	H24	H	0.904412	0.332026	0.222462
	H25	H	0.098711	0.657082	0.225151
	H26	H	0.101919	0.331656	0.795170
	H27	H	0.898816	0.656033	0.786256
	H28	H	0.219307	0.892545	0.342693
	H29	H	0.219899	0.084930	0.674188
	H30	H	0.788088	0.093440	0.345778
	H31	H	0.795557	0.890623	0.673066
	H32	H	0.340071	0.213896	0.903135
	H33	H	0.665559	0.213168	0.111478
	H34	H	0.341253	0.781228	0.109256
	H35	H	0.664023	0.773696	0.905718
	H36	H	0.339822	0.901184	0.218997
	H37	H	0.668447	0.091983	0.223171
	H38	H	0.342427	0.097600	0.788006
	H39	H	0.670691	0.898382	0.801191
	H40	H	0.901887	0.207850	0.344885
	H41	H	0.110032	0.206637	0.671827
	H42	H	0.107375	0.775586	0.344063
	H43	H	0.911387	0.777504	0.671963
	H44	H	0.220985	0.335025	0.909250
	H45	H	0.217065	0.658115	0.110543
	H46	H	0.787442	0.332869	0.105657
	H47	H	0.781775	0.656908	0.902138
	H48	H	0.412270	0.107038	0.597297
	H49	H	0.592030	0.882353	0.601431
	H50	H	0.605256	0.109922	0.418751
	H51	H	0.417524	0.879294	0.420535
	H52	H	0.593887	0.401575	0.123761
	H53	H	0.593070	0.590912	0.887405
	H54	H	0.399951	0.592240	0.128402
	H55	H	0.407902	0.409152	0.890978
	H56	H	0.118760	0.583869	0.421028
	H57	H	0.885117	0.587147	0.600041
	H58	H	0.117842	0.395607	0.590730
	H59	H	0.887338	0.399876	0.418370
	H60	H	0.118428	0.408204	0.605592
	H61	H	0.887348	0.592872	0.591099
	H62	H	0.119743	0.580716	0.414958
	H63	H	0.886957	0.400521	0.412266
	H64	H	0.413004	0.580542	0.121220
	H65	H	0.590608	0.583622	0.890761
	H66	H	0.597372	0.405140	0.124342
	H67	H	0.412808	0.405107	0.891718
	H68	H	0.595545	0.110226	0.409722
	H69	H	0.610009	0.877920	0.597802
	H70	H	0.410665	0.108874	0.597760
	H71	H	0.407898	0.875055	0.414115
	H72	H	0.912627	0.611866	0.107028
	H73	H	0.098297	0.377805	0.108023
	H74	H	0.090878	0.613216	0.906942
	H75	H	0.901685	0.379412	0.918397
	H76	H	0.107951	0.895508	0.627325
	H77	H	0.097587	0.087715	0.389483
	H78	H	0.914948	0.075589	0.624655
	H79	H	0.915206	0.900810	0.390924
	H80	H	0.618394	0.091925	0.924375
	H81	H	0.385236	0.094062	0.101089
	H82	H	0.621424	0.899234	0.101625
	H83	H	0.388327	0.903352	0.922392
	H84	H	0.619593	0.900542	0.096771
	H85	H	0.388155	0.090904	0.096119
	H86	H	0.619289	0.085510	0.916777
	H87	H	0.390321	0.914092	0.916484
	H88	H	0.925413	0.085295	0.624290
	H89	H	0.097453	0.079224	0.391471
	H90	H	0.099903	0.898718	0.624069
	H91	H	0.912327	0.903663	0.390366
	H92	H	0.082397	0.606732	0.918521
	H93	H	0.093114	0.382949	0.098560
	H94	H	0.912893	0.607259	0.092587
	H95	H	0.908950	0.377183	0.907478
	H96	H	0.412573	0.108168	0.599155
	H97	H	0.603849	0.874373	0.615312
	H98	H	0.593540	0.105478	0.421731
	H99	H	0.418563	0.876974	0.408252
	H100	H	0.593375	0.406489	0.123149
	H101	H	0.585205	0.589735	0.890329
	H102	H	0.417308	0.597416	0.124790
	H103	H	0.407163	0.404575	0.888495
	H104	H	0.121626	0.586793	0.415401
	H105	H	0.889644	0.582838	0.591521
	H106	H	0.124328	0.390288	0.609047
	H107	H	0.885604	0.395148	0.415010
	H108	H	0.899361	0.613024	0.098271
	H109	H	0.104037	0.378694	0.097661
	H110	H	0.097484	0.610999	0.921286
	H111	H	0.913956	0.382629	0.917195
	H112	H	0.100291	0.890507	0.627648
	H113	H	0.089870	0.084335	0.393258
	H114	H	0.911926	0.089224	0.629898
	H115	H	0.916140	0.905044	0.392478
	H116	H	0.623024	0.094316	0.916661
	H117	H	0.387406	0.087918	0.101586
	H118	H	0.619783	0.903256	0.100591
	H119	H	0.385643	0.903893	0.910520
	C120	C	0.385252	0.001105	0.629262
	C121	C	0.630552	0.985535	0.632839
	C122	C	0.627826	0.001374	0.387374
	C123	C	0.383556	0.984468	0.385328
	C124	C	0.623600	0.374853	0.015405
	C125	C	0.621315	0.616633	0.998138
	C126	C	0.378749	0.620074	0.016244
	C127	C	0.381347	0.376725	0.999108
	C128	C	0.012583	0.614809	0.386337
	C129	C	0.995263	0.613710	0.626708
	C130	C	0.012018	0.369820	0.629991
	C131	C	0.995060	0.370276	0.386477
	C132	C	0.880368	0.503192	0.128226
	C133	C	0.125433	0.486833	0.131026
	C134	C	0.121931	0.503626	0.887181
	C135	C	0.877797	0.486398	0.883163
	C136	C	0.129894	0.867652	0.517270
	C137	C	0.126088	0.111818	0.500007
	C138	C	0.885051	0.113620	0.518077
	C139	C	0.887349	0.872690	0.499678
	C140	C	0.512714	0.119613	0.886495
	C141	C	0.494847	0.118719	0.129808
	C142	C	0.512434	0.873854	0.128813
	C143	C	0.496021	0.875835	0.888098
	C144	C	0.390915	0.879165	0.686877
	C145	C	0.627301	0.108060	0.687136
	C146	C	0.626683	0.880099	0.330499
	C147	C	0.384755	0.107668	0.331547
	C148	C	0.678059	0.376249	0.891401
	C149	C	0.679562	0.614653	0.121509
	C150	C	0.321441	0.618873	0.892704
	C151	C	0.328909	0.379313	0.123672
	C152	C	0.891215	0.674670	0.384284
	C153	C	0.118780	0.666101	0.628658
	C154	C	0.889829	0.313607	0.628132
	C155	C	0.118171	0.313943	0.388638
	C156	C	0.887759	0.374099	0.682502
	C157	C	0.117948	0.608617	0.685416
	C158	C	0.888230	0.612700	0.331327
	C159	C	0.118700	0.374002	0.333119
	C160	C	0.378027	0.677089	0.893111
	C161	C	0.621768	0.670961	0.122242
	C162	C	0.621773	0.318619	0.892268
	C163	C	0.383039	0.319561	0.122243
	C164	C	0.684025	0.879010	0.389866
	C165	C	0.686857	0.106444	0.630977
	C166	C	0.332592	0.878007	0.628816
	C167	C	0.324406	0.105217	0.386551
	C168	C	0.883495	0.380749	0.184338
	C169	C	0.120649	0.608918	0.187068
	C170	C	0.121786	0.380795	0.832747
	C171	C	0.878531	0.607761	0.824797
	C172	C	0.183118	0.871270	0.392494
	C173	C	0.182411	0.106866	0.624428
	C174	C	0.826752	0.113001	0.394814
	C175	C	0.832977	0.871868	0.623708
	C176	C	0.389396	0.175654	0.885012
	C177	C	0.617162	0.174597	0.130408
	C178	C	0.389773	0.819311	0.128293
	C179	C	0.616989	0.815405	0.888559
	C180	C	0.389370	0.878734	0.183216
	C181	C	0.618833	0.114180	0.185883
	C182	C	0.390540	0.118034	0.827391
	C183	C	0.620214	0.877324	0.836121
	C184	C	0.883313	0.169834	0.394358
	C185	C	0.127606	0.167354	0.623445
	C186	C	0.127528	0.813063	0.393116
	C187	C	0.890578	0.815566	0.623238
	C188	C	0.181266	0.382724	0.889144
	C189	C	0.179094	0.609427	0.129773
	C190	C	0.825380	0.381268	0.126121
	C191	C	0.820454	0.608215	0.882691
	C192	C	0.405658	0.086028	0.605328
	C193	C	0.608422	0.900222	0.611170
	C194	C	0.604850	0.086589	0.410120
	C195	C	0.407815	0.899170	0.407740
	C196	C	0.601538	0.397693	0.101483
	C197	C	0.596652	0.594610	0.911758
	C198	C	0.402976	0.596914	0.102557
	C199	C	0.403023	0.399553	0.912722
	C200	C	0.097960	0.590810	0.410202
	C201	C	0.909594	0.593435	0.601629
	C202	C	0.097937	0.391489	0.608267
	C203	C	0.909079	0.392152	0.408615
	C204	C	0.901854	0.588364	0.105879
	C205	C	0.104640	0.401832	0.108213
	C206	C	0.097240	0.588275	0.909045
	C207	C	0.901252	0.401766	0.907278
	C208	C	0.108999	0.888677	0.603891
	C209	C	0.102084	0.090149	0.413751
	C210	C	0.910099	0.090351	0.603908
	C211	C	0.908504	0.896230	0.413623
	C212	C	0.598191	0.097043	0.911911
	C213	C	0.409190	0.097262	0.106466
	C214	C	0.597939	0.894683	0.106281
	C215	C	0.410299	0.900130	0.910097
	Zn216	Zn	0.506916	-0.004209	0.760068
	Zn217	Zn	0.505131	-0.005289	0.257091
	Zn218	Zn	0.750039	0.496020	0.006205
	Zn219	Zn	0.252935	0.497154	0.008083
	Zn220	Zn	0.006382	0.743150	0.507130
	Zn221	Zn	0.004558	0.241113	0.508840
	Zn222	Zn	0.001463	0.493539	0.755993
	Zn223	Zn	0.002471	0.493757	0.258715
	Zn224	Zn	0.502341	0.745639	0.007855
	Zn225	Zn	0.502224	0.248230	0.007463
	Zn226	Zn	0.758537	-0.007627	0.509845
	Zn227	Zn	0.254992	-0.010048	0.507431
	N228	N	0.422890	0.956583	0.687345
	N229	N	0.593094	0.031685	0.688406
	N230	N	0.592407	0.957071	0.328890
	N231	N	0.420975	0.031497	0.330795
	N232	N	0.679482	0.410384	0.969122
	N233	N	0.679376	0.581616	0.043360
	N234	N	0.321713	0.584373	0.970538
	N235	N	0.327776	0.414199	0.046006
	N236	N	0.969475	0.676190	0.417534
	N237	N	0.041638	0.669411	0.592641
	N238	N	0.968011	0.310754	0.596189
	N239	N	0.040101	0.311332	0.420955
	N240	N	0.964862	0.408137	0.684120
	N241	N	0.040198	0.576623	0.684199
	N242	N	0.964752	0.576061	0.332565
	N243	N	0.041089	0.408061	0.331384
	N244	N	0.412843	0.678078	0.971165
	N245	N	0.586411	0.672219	0.044369
	N246	N	0.588721	0.317473	0.970459
	N247	N	0.415016	0.317781	0.043686
	N248	N	0.684813	0.955698	0.424511
	N249	N	0.689192	0.029179	0.598302
	N250	N	0.329247	0.954431	0.593267
	N251	N	0.323553	0.027536	0.419208
	N252	N	0.917110	0.457518	0.185597
	N253	N	0.088261	0.531766	0.188256
	N254	N	0.085320	0.456859	0.831491
	N255	N	0.913445	0.531011	0.824877
	N256	N	0.184897	0.904191	0.470608
	N257	N	0.181462	0.072789	0.546597
	N258	N	0.827796	0.078746	0.472796
	N259	N	0.830984	0.906831	0.546168
	N260	N	0.466579	0.176885	0.920874
	N261	N	0.539294	0.177503	0.096154
	N262	N	0.467351	0.815906	0.095327
	N263	N	0.538664	0.814398	0.920124
	N264	N	0.466676	0.912049	0.183675
	N265	N	0.541773	0.080406	0.185825
	N266	N	0.468124	0.083917	0.828160
	N267	N	0.543837	0.914401	0.835891
	N268	N	0.919002	0.170426	0.472103
	N269	N	0.093339	0.170632	0.545033
	N270	N	0.095349	0.810382	0.471660
	N271	N	0.923901	0.816198	0.545182
	N272	N	0.181176	0.459844	0.922474
	N273	N	0.182241	0.532574	0.095705
	N274	N	0.823302	0.458352	0.092008
	N275	N	0.820135	0.531872	0.918463
	O276	O	0.853141	0.059234	0.960661
	H277	H	0.846642	0.064543	0.955625
	H278	H	0.864936	0.076465	0.968431
	O279	O	0.051009	0.955299	0.140058
	H280	H	0.048783	0.960770	0.140219
	H281	H	0.056658	0.951244	0.131893
	O282	O	0.457640	0.482039	0.443888
	H283	H	0.458160	0.479498	0.445360
	H284	H	0.447614	0.485382	0.446556
	O285	O	0.511786	0.412171	0.505506
	H286	H	0.516537	0.409332	0.498322
	H287	H	0.513407	0.392204	0.508374
	O288	O	0.459947	0.477088	0.476709
	H289	H	0.447649	0.483450	0.480582
	H290	H	0.457728	0.474903	0.461953
	O291	O	0.125511	-0.080742	0.988665
	H292	H	0.124581	-0.086872	0.978268
	H293	H	0.128583	-0.067401	0.984784
	O294	O	0.953808	1.016520	0.019242
	H295	H	0.964517	1.023672	0.019407
	H296	H	0.960080	1.023607	0.035566
	O297	O	1.120655	1.027607	0.126397
	H298	H	1.119576	1.013600	0.130209
	H299	H	1.131633	1.040169	0.116312
	O300	O	0.516841	0.560191	0.453788
	H301	H	0.521093	0.555035	0.448117
	H302	H	0.514730	0.569873	0.451703
	O303	O	0.467741	0.508982	0.418069
	H304	H	0.478022	0.518862	0.415480
	H305	H	0.473834	0.509624	0.431019
	O306	O	0.511130	0.555095	0.580013
	H307	H	0.514081	0.557321	0.576846
	H308	H	0.510161	0.562758	0.575920
	O309	O	0.439491	0.444953	0.534818
	H310	H	0.455725	0.448497	0.535799
	H311	H	0.446548	0.440599	0.538340
	O312	O	0.999036	0.939319	0.968951
	H313	H	0.993767	0.947016	0.968564
	H314	H	0.990870	0.935899	0.963336
	O315	O	1.041816	1.089898	0.125037
	H316	H	1.045669	1.080123	0.129480
	H317	H	1.054932	1.107691	0.135314
	O318	O	0.434462	0.393463	0.556321
	H319	H	0.431091	0.391998	0.555174
	H320	H	0.432297	0.385501	0.545238
	O321	O	0.437937	0.636201	0.337275
	H322	H	0.445215	0.621455	0.328408
	H323	H	0.444252	0.620371	0.334322
	O324	O	0.032414	0.939515	0.918657
	H325	H	0.036651	0.940315	0.913017
	H326	H	0.033667	0.929858	0.921950
	O327	O	0.045986	0.901808	0.957722
	H328	H	0.040302	0.903337	0.965439
	H329	H	0.044259	0.906222	0.951558
	O330	O	-0.060242	-0.007868	0.074022
	H331	H	-0.066246	-0.009699	0.077348
	H332	H	-0.056949	0.007205	0.063928
	O333	O	0.482150	0.608828	0.544352
	H334	H	0.474174	0.612449	0.537378
	H335	H	0.481376	0.608013	0.548882
	O336	O	0.064866	-0.053606	-0.050056
	H337	H	0.055602	-0.058124	-0.043772
	H338	H	0.058438	-0.048305	-0.051774
	O339	O	-0.081697	-0.012201	0.025504
	H340	H	-0.077689	-0.001549	0.028873
	H341	H	-0.095733	-0.012131	0.019427
	O342	O	0.004381	0.880565	0.098826
	H343	H	0.006570	0.872142	0.098105
	H344	H	0.011653	0.873408	0.087636
	O345	O	-0.065085	1.049050	1.128170
	H346	H	-0.059900	1.043780	1.128738
	H347	H	-0.076904	1.042453	1.133030
	O348	O	0.557228	0.403811	0.434022
	H349	H	0.546785	0.408696	0.427339
	H350	H	0.554960	0.406405	0.435669
	O351	O	0.601108	0.460320	0.554296
	H352	H	0.610173	0.458849	0.544596
	H353	H	0.603520	0.457963	0.564948
	O354	O	-0.119108	1.112513	-0.142978
	H355	H	-0.125107	1.122245	-0.129773
	H356	H	-0.098399	1.117621	-0.148336
	O357	O	0.594318	0.379701	0.423268
	H358	H	0.596068	0.367364	0.421363
	H359	H	0.591768	0.386569	0.418601
	O360	O	0.520778	0.405517	0.518444
	H361	H	0.519681	0.412323	0.515210
	H362	H	0.527304	0.404948	0.535164
	O363	O	0.472093	0.446044	0.579053
	H364	H	0.464725	0.452084	0.584873
	H365	H	0.484132	0.442287	0.587906
	O366	O	0.529074	0.602211	0.427771
	H367	H	0.527488	0.606398	0.419612
	H368	H	0.531482	0.591764	0.417351
	O369	O	1.118072	0.103221	-0.025846
	H370	H	1.108492	0.107164	-0.014626
	H371	H	1.116586	0.088763	-0.029007
	O372	O	0.477601	0.446170	0.574469
	H373	H	0.483107	0.450524	0.578951
	H374	H	0.470135	0.447489	0.581441
	O375	O	1.120908	0.110183	1.165478
	H376	H	1.132828	0.107620	1.163654
	H377	H	1.126584	0.106796	1.164224
	O378	O	0.023405	1.001763	0.055922
	H379	H	0.036297	0.996741	0.051088
	H380	H	0.010520	1.003229	0.056125
	O381	O	0.508637	0.532624	0.636949
	H382	H	0.516007	0.536496	0.636866
	H383	H	0.501126	0.529960	0.637742
	O384	O	1.038817	0.942369	0.016012
	H385	H	1.040792	0.934061	0.021416
	H386	H	1.033410	0.927487	0.002571
	O387	O	0.908887	-0.046062	0.939440
	H388	H	0.895904	-0.046072	0.939467
	H389	H	0.897781	-0.036455	0.938418
	O390	O	0.994350	1.028072	-0.087228
	H391	H	0.998271	1.029038	-0.086534
	H392	H	1.002676	1.029982	-0.092403
	O393	O	0.392600	0.554395	0.437555
	H394	H	0.395108	0.565902	0.450411
	H395	H	0.389992	0.553206	0.429171
