data_Molecule from HDF5

_cell_length_a		16.603734
_cell_length_b		16.483465
_cell_length_c		16.407028
_cell_angle_alpha	90.146415
_cell_angle_beta	89.911691
_cell_angle_gamma	89.794172
_symmetry_space_group_name_H-M	'P 1'
_symmetry_Int_Tables_number		1

loop_
	_symmetry_equiv_pos_as_xyz
	x,y,z

loop_
	_atom_site_label
	_atom_site_type_symbol
	_atom_site_fract_x
	_atom_site_fract_y
	_atom_site_fract_z
	H0	H	0.382774	0.855818	0.713053
	H1	H	0.594758	0.168818	0.716523
	H2	H	0.598459	0.858621	0.265101
	H3	H	0.383660	0.170660	0.271744
	H4	H	0.713561	0.401508	0.835042
	H5	H	0.710348	0.619442	0.147797
	H6	H	0.264345	0.619987	0.835599
	H7	H	0.265878	0.404912	0.148522
	H8	H	0.833689	0.738825	0.382690
	H9	H	0.143020	0.734446	0.597829
	H10	H	0.834964	0.284876	0.604651
	H11	H	0.144030	0.289838	0.386592
	H12	H	0.833014	0.403621	0.717845
	H13	H	0.142708	0.617280	0.714513
	H14	H	0.833427	0.620627	0.267525
	H15	H	0.143844	0.406863	0.270130
	H16	H	0.380859	0.735231	0.835219
	H17	H	0.595313	0.736504	0.147661
	H18	H	0.593823	0.289920	0.831420
	H19	H	0.383050	0.289679	0.147875
	H20	H	0.718206	0.860889	0.376806
	H21	H	0.714913	0.167138	0.604790
	H22	H	0.266083	0.856601	0.597774
	H23	H	0.262960	0.167983	0.382556
	H24	H	0.882003	0.356271	0.214980
	H25	H	0.094919	0.669345	0.216185
	H26	H	0.093078	0.354541	0.769983
	H27	H	0.881156	0.669994	0.770510
	H28	H	0.211183	0.904978	0.333376
	H29	H	0.212527	0.120105	0.648664
	H30	H	0.763516	0.124063	0.337511
	H31	H	0.760167	0.900585	0.645698
	H32	H	0.333026	0.237048	0.880742
	H33	H	0.644152	0.233785	0.095061
	H34	H	0.331716	0.790361	0.098570
	H35	H	0.642721	0.785164	0.880839
	H36	H	0.331297	0.907979	0.214155
	H37	H	0.642706	0.120728	0.215269
	H38	H	0.331329	0.117734	0.768473
	H39	H	0.642607	0.902423	0.765023
	H40	H	0.881288	0.235554	0.335687
	H41	H	0.096393	0.235330	0.649977
	H42	H	0.094362	0.790356	0.333299
	H43	H	0.880882	0.790908	0.649178
	H44	H	0.211845	0.355785	0.882534
	H45	H	0.212404	0.668782	0.102072
	H46	H	0.764534	0.355866	0.100488
	H47	H	0.760554	0.667027	0.881697
	H48	H	0.395766	0.126682	0.578219
	H49	H	0.578019	0.901853	0.574754
	H50	H	0.572931	0.122881	0.408950
	H51	H	0.397282	0.898468	0.399596
	H52	H	0.576952	0.429402	0.102379
	H53	H	0.577580	0.601372	0.876677
	H54	H	0.399484	0.596922	0.103748
	H55	H	0.394732	0.425863	0.876794
	H56	H	0.099700	0.604201	0.407518
	H57	H	0.874735	0.605458	0.576654
	H58	H	0.098197	0.420915	0.574347
	H59	H	0.878910	0.428038	0.406956
	H60	H	0.096253	0.431305	0.578561
	H61	H	0.877784	0.597769	0.578881
	H62	H	0.098502	0.597394	0.405318
	H63	H	0.874979	0.424755	0.399903
	H64	H	0.403873	0.601678	0.104026
	H65	H	0.576255	0.591095	0.880578
	H66	H	0.569791	0.420224	0.101963
	H67	H	0.401737	0.428219	0.880296
	H68	H	0.579391	0.126248	0.406179
	H69	H	0.574943	0.901288	0.578142
	H70	H	0.400385	0.126707	0.582431
	H71	H	0.403773	0.901143	0.402150
	H72	H	0.896676	0.625561	0.081169
	H73	H	0.083707	0.399733	0.075834
	H74	H	0.075992	0.625805	0.900907
	H75	H	0.899924	0.398644	0.901135
	H76	H	0.076311	0.920682	0.605449
	H77	H	0.074996	0.097080	0.381494
	H78	H	0.904478	0.095742	0.603088
	H79	H	0.903402	0.929411	0.381152
	H80	H	0.601062	0.104277	0.901426
	H81	H	0.376386	0.098636	0.082268
	H82	H	0.598686	0.927795	0.080143
	H83	H	0.374572	0.918271	0.902262
	H84	H	0.600199	0.920690	0.077630
	H85	H	0.374059	0.104815	0.081342
	H86	H	0.597077	0.098493	0.907843
	H87	H	0.380270	0.926120	0.909933
	H88	H	0.903470	0.101410	0.605117
	H89	H	0.073814	0.101901	0.379211
	H90	H	0.082335	0.925105	0.604342
	H91	H	0.904466	0.926644	0.381032
	H92	H	0.074430	0.623303	0.906533
	H93	H	0.076888	0.398874	0.086056
	H94	H	0.904669	0.621494	0.077326
	H95	H	0.903791	0.401889	0.905359
	H96	H	0.401087	0.123723	0.576904
	H97	H	0.573625	0.903161	0.573624
	H98	H	0.573453	0.125437	0.401693
	H99	H	0.397977	0.900759	0.406461
	H100	H	0.580653	0.419162	0.105781
	H101	H	0.568288	0.598174	0.880792
	H102	H	0.397584	0.602520	0.106336
	H103	H	0.401000	0.420713	0.877128
	H104	H	0.101445	0.601898	0.400571
	H105	H	0.873816	0.602551	0.584749
	H106	H	0.101406	0.423880	0.584503
	H107	H	0.875321	0.419733	0.406912
	H108	H	0.896356	0.622919	0.072176
	H109	H	0.072592	0.403497	0.075854
	H110	H	0.080472	0.625296	0.905486
	H111	H	0.897662	0.400532	0.907083
	H112	H	0.075117	0.927322	0.602809
	H113	H	0.078812	0.099903	0.378736
	H114	H	0.899549	0.096976	0.605539
	H115	H	0.901729	0.926869	0.379309
	H116	H	0.599352	0.095312	0.899017
	H117	H	0.377805	0.101796	0.076500
	H118	H	0.596241	0.925734	0.073041
	H119	H	0.377547	0.929401	0.899069
	C120	C	0.367048	0.021650	0.612053
	C121	C	0.609666	1.004542	0.611834
	C122	C	0.610661	0.022610	0.369675
	C123	C	0.366715	1.003692	0.370025
	C124	C	0.609675	0.389538	-0.000760
	C125	C	0.608222	0.631910	0.982446
	C126	C	0.366742	0.633648	0.000658
	C127	C	0.366606	0.390894	0.982017
	C128	C	-0.002978	0.634727	0.370152
	C129	C	0.978409	0.634623	0.613525
	C130	C	-0.003467	0.391172	0.613666
	C131	C	0.979227	0.390879	0.370833
	C132	C	0.866712	0.520278	0.111539
	C133	C	0.110214	0.504073	0.113564
	C134	C	0.109437	0.520853	0.870887
	C135	C	0.865668	0.503633	0.870267
	C136	C	0.110405	0.891008	0.499886
	C137	C	0.109872	0.133369	0.483664
	C138	C	0.868018	0.133411	0.501441
	C139	C	0.867644	0.892586	0.483264
	C140	C	0.496303	0.132988	0.868916
	C141	C	0.479157	0.134486	0.112231
	C142	C	0.495738	0.891786	0.111697
	C143	C	0.479574	0.889805	0.869015
	C144	C	0.364546	0.903180	0.672735
	C145	C	0.613069	0.121671	0.675890
	C146	C	0.616388	0.905901	0.305848
	C147	C	0.364411	0.122553	0.310231
	C148	C	0.672117	0.384946	0.881499
	C149	C	0.669906	0.636909	0.100683
	C150	C	0.305118	0.637487	0.882641
	C151	C	0.305953	0.387180	0.100904
	C152	C	0.880203	0.697314	0.365545
	C153	C	0.096141	0.694484	0.616099
	C154	C	0.880702	0.327131	0.620453
	C155	C	0.096894	0.330045	0.367961
	C156	C	0.879740	0.386424	0.676668
	C157	C	0.095886	0.636700	0.674326
	C158	C	0.880095	0.638785	0.308147
	C159	C	0.096890	0.388519	0.310311
	C160	C	0.362816	0.695015	0.882484
	C161	C	0.612885	0.695427	0.100143
	C162	C	0.612627	0.329252	0.879773
	C163	C	0.364228	0.329789	0.100526
	C164	C	0.675851	0.907050	0.361891
	C165	C	0.672580	0.121106	0.619768
	C166	C	0.306537	0.903383	0.615621
	C167	C	0.304298	0.121289	0.365581
	C168	C	0.863676	0.403124	0.174382
	C169	C	0.113061	0.622009	0.175720
	C170	C	0.111551	0.402288	0.809946
	C171	C	0.862407	0.622102	0.809773
	C172	C	0.170791	0.887430	0.380886
	C173	C	0.171629	0.137366	0.601651
	C174	C	0.804931	0.140015	0.384208
	C175	C	0.802666	0.885361	0.599362
	C176	C	0.379421	0.195648	0.864097
	C177	C	0.596925	0.194485	0.114244
	C178	C	0.378652	0.830756	0.116267
	C179	C	0.596148	0.826629	0.864075
	C180	C	0.378632	0.889324	0.173956
	C181	C	0.596227	0.138107	0.173823
	C182	C	0.378761	0.136483	0.807761
	C183	C	0.596235	0.885144	0.806456
	C184	C	0.863694	0.195792	0.383451
	C185	C	0.113683	0.194920	0.602213
	C186	C	0.112372	0.830583	0.380776
	C187	C	0.862948	0.830412	0.601185
	C188	C	0.170747	0.402780	0.866179
	C189	C	0.171724	0.621790	0.118848
	C190	C	0.805354	0.402899	0.117133
	C191	C	0.802363	0.620428	0.865226
	C192	C	0.391871	0.104020	0.586355
	C193	C	0.583159	0.923493	0.583592
	C194	C	0.583038	0.103635	0.397804
	C195	C	0.392308	0.921575	0.395505
	C196	C	0.583400	0.415395	0.081655
	C197	C	0.581686	0.604569	0.900686
	C198	C	0.392771	0.607876	0.083130
	C199	C	0.391820	0.417168	0.899566
	C200	C	0.078389	0.608390	0.396756
	C201	C	0.896733	0.609192	0.587670
	C202	C	0.077373	0.417611	0.586758
	C203	C	0.897667	0.416682	0.397080
	C204	C	0.892257	0.602036	0.084690
	C205	C	0.084973	0.422098	0.086877
	C206	C	0.084362	0.603306	0.897085
	C207	C	0.892669	0.421612	0.896837
	C208	C	0.085339	0.917035	0.582577
	C209	C	0.083523	0.107069	0.401287
	C210	C	0.894746	0.105882	0.583129
	C211	C	0.895248	0.919901	0.401779
	C212	C	0.577814	0.106829	0.895251
	C213	C	0.397510	0.109279	0.087039
	C214	C	0.577144	0.917444	0.084704
	C215	C	0.398723	0.916912	0.896111
	Zn216	Zn	0.488009	0.012102	0.740285
	Zn217	Zn	0.488414	0.013358	0.241750
	Zn218	Zn	0.737064	0.511310	-0.008545
	Zn219	Zn	0.238612	0.512636	-0.008272
	Zn220	Zn	-0.011922	0.763602	0.491604
	Zn221	Zn	-0.011707	0.261841	0.493149
	Zn222	Zn	-0.012376	0.512337	0.742506
	Zn223	Zn	-0.012270	0.512535	0.241448
	Zn224	Zn	0.487740	0.761348	-0.008970
	Zn225	Zn	0.488172	0.262504	-0.010779
	Zn226	Zn	0.738886	0.014012	0.491977
	Zn227	Zn	0.238374	0.012283	0.491357
	N228	N	0.401281	0.977680	0.670637
	N229	N	0.574815	0.048057	0.671113
	N230	N	0.576456	0.978708	0.310702
	N231	N	0.402462	0.048377	0.312736
	N232	N	0.670544	0.421391	0.956944
	N233	N	0.667110	0.598140	0.026530
	N234	N	0.307310	0.600132	0.957390
	N235	N	0.307231	0.424466	0.026099
	N236	N	0.953921	0.695026	0.403190
	N237	N	0.021836	0.693542	0.579148
	N238	N	0.954163	0.329774	0.582024
	N239	N	0.022705	0.331268	0.404993
	N240	N	0.952421	0.425925	0.672405
	N241	N	0.021547	0.600686	0.673244
	N242	N	0.953904	0.600796	0.310833
	N243	N	0.022681	0.425422	0.311976
	N244	N	0.400269	0.692703	0.956985
	N245	N	0.575270	0.692593	0.025645
	N246	N	0.574400	0.331949	0.954054
	N247	N	0.400953	0.331771	0.025508
	N248	N	0.672627	0.980980	0.400840
	N249	N	0.670657	0.047332	0.580793
	N250	N	0.307685	0.978113	0.578658
	N251	N	0.305408	0.046348	0.401779
	N252	N	0.901236	0.477227	0.171104
	N253	N	0.075686	0.547893	0.172648
	N254	N	0.074074	0.476795	0.812581
	N255	N	0.901091	0.548243	0.812719
	N256	N	0.169856	0.924464	0.455986
	N257	N	0.169416	0.099867	0.526798
	N258	N	0.807341	0.102163	0.458709
	N259	N	0.805377	0.923401	0.525000
	N260	N	0.453484	0.193503	0.901383
	N261	N	0.522955	0.192586	0.076784
	N262	N	0.452459	0.832007	0.078498
	N263	N	0.522488	0.829430	0.902217
	N264	N	0.452793	0.926436	0.171551
	N265	N	0.522083	0.101580	0.172905
	N266	N	0.452495	0.098402	0.810421
	N267	N	0.522769	0.923664	0.809246
	N268	N	0.902305	0.191953	0.457491
	N269	N	0.076076	0.192749	0.527567
	N270	N	0.075648	0.832557	0.455774
	N271	N	0.902895	0.834964	0.527922
	N272	N	0.169695	0.477588	0.903315
	N273	N	0.170220	0.547352	0.080719
	N274	N	0.807241	0.476726	0.078815
	N275	N	0.804436	0.545532	0.901972
	O276	O	1.159437	-0.034963	0.028266
	H277	H	1.156566	-0.008855	0.022553
	H278	H	1.152550	-0.011288	0.047267
	O279	O	0.700178	0.301909	0.475149
	H280	H	0.717751	0.294162	0.482461
	H281	H	0.711183	0.316181	0.471829
	O282	O	0.486358	1.702825	0.277704
	H283	H	0.474951	1.726004	0.259819
	H284	H	0.458720	1.695867	0.282172
	O285	O	0.279602	0.558402	0.582854
	H286	H	0.264049	0.560856	0.616515
	H287	H	0.280566	0.550363	0.571802
	O288	O	-0.228899	0.029462	-0.228700
	H289	H	-0.253011	0.046307	-0.253861
	H290	H	-0.226075	0.071219	-0.226220
	O291	O	0.975024	0.818349	-0.185897
	H292	H	0.968906	0.827118	-0.180684
	H293	H	0.971150	0.803846	-0.193603
	O294	O	-0.298544	0.728837	-0.487759
	H295	H	-0.320339	0.743626	-0.509013
	H296	H	-0.279755	0.753932	-0.479579
	O297	O	0.280932	0.305913	0.539720
	H298	H	0.289153	0.317914	0.576979
	H299	H	0.255556	0.285996	0.543375
	O300	O	0.283127	0.437518	0.452679
	H301	H	0.279978	0.409321	0.454850
	H302	H	0.286308	0.452501	0.460554
	O303	O	0.508803	0.724797	0.704516
	H304	H	0.508828	0.752834	0.715131
	H305	H	0.538473	0.725748	0.697166
	O306	O	0.003298	1.037114	0.959020
	H307	H	0.014585	1.037437	0.954923
	H308	H	-0.007725	1.033285	0.961783
	O309	O	1.025603	1.042327	0.765061
	H310	H	1.002262	1.014099	0.754805
	H311	H	1.044148	1.037083	0.765237
	O312	O	0.277497	0.495248	0.693892
	H313	H	0.266147	0.502672	0.720592
	H314	H	0.306011	0.510003	0.695312
	O315	O	-0.034617	0.218268	0.786603
	H316	H	-0.013185	0.186850	0.777608
	H317	H	-0.023821	0.240203	0.779728
	O318	O	-0.203114	0.822672	0.183824
	H319	H	-0.169183	0.821233	0.178573
	H320	H	-0.200442	0.822690	0.151632
	O321	O	1.178634	0.206900	1.181552
	H322	H	1.191140	0.163025	1.182994
	H323	H	1.197996	0.222334	1.157827
	O324	O	1.559614	0.517333	0.348340
	H325	H	1.565249	0.529057	0.346448
	H326	H	1.559473	0.525018	0.331433
	O327	O	0.938883	-0.021311	0.807308
	H328	H	0.917294	-0.022810	0.809710
	H329	H	0.934613	-0.031644	0.799923
	O330	O	0.690166	-0.497238	0.490946
	H331	H	0.707045	-0.492695	0.497407
	H332	H	0.666240	-0.489034	0.497736
	O333	O	1.530834	0.732861	0.458497
	H334	H	1.506317	0.718584	0.466503
	H335	H	1.531993	0.733995	0.449741
	O336	O	1.196564	-0.136333	0.964577
	H337	H	1.210881	-0.120862	0.973047
	H338	H	1.205643	-0.150792	0.968306
	O339	O	0.545469	0.477505	0.671365
	H340	H	0.552978	0.475770	0.665785
	H341	H	0.531738	0.467779	0.646947
	O342	O	0.785147	-0.199192	1.021374
	H343	H	0.769321	-0.188243	1.001907
	H344	H	0.766267	-0.193726	1.010107
	O345	O	0.201577	-0.009749	-0.218571
	H346	H	0.210208	-0.017611	-0.234094
	H347	H	0.209096	-0.034631	-0.218428
	O348	O	0.935961	-0.201933	0.928234
	H349	H	0.917577	-0.191727	0.930550
	H350	H	0.924175	-0.199823	0.938515
	O351	O	0.888525	0.941533	0.065439
	H352	H	0.891725	0.939208	0.088556
	H353	H	0.887423	0.949657	0.056673
	O354	O	0.274186	0.534366	0.278629
	H355	H	0.261515	0.532843	0.275995
	H356	H	0.272838	0.519544	0.272847
	O357	O	0.996704	1.010562	0.977949
	H358	H	0.981195	1.029918	0.986198
	H359	H	0.992940	1.007638	0.948167
	O360	O	0.669096	0.692806	0.671304
	H361	H	0.671382	0.659831	0.680133
	H362	H	0.673529	0.695199	0.636728
	O363	O	0.482067	0.300359	0.484302
	H364	H	0.486841	0.309551	0.486498
	H365	H	0.475706	0.303885	0.491975
	O366	O	0.911161	0.125251	1.163695
	H367	H	0.919918	0.139545	1.181145
	H368	H	0.915280	0.131609	1.155771
	O369	O	0.807272	0.187231	0.805764
	H370	H	0.853902	0.196054	0.807499
	H371	H	0.799029	0.200419	0.851345
	O372	O	0.516832	0.328637	0.309040
	H373	H	0.504183	0.337324	0.313917
	H374	H	0.509714	0.312026	0.309247
	O375	O	0.042677	1.226831	0.950869
	H376	H	0.052657	1.225541	0.944230
	H377	H	0.039007	1.234450	0.967735
	O378	O	1.088005	-0.197499	0.032604
	H379	H	1.096986	-0.201975	0.019770
	H380	H	1.086563	-0.186218	0.027280
	O381	O	1.131522	-0.174963	-0.198940
	H382	H	1.098837	-0.174273	-0.193422
	H383	H	1.137918	-0.187448	-0.177340
	O384	O	0.384745	0.305835	1.357200
	H385	H	0.397837	0.311693	1.378394
	H386	H	0.385254	0.306939	1.364664
	O387	O	0.262870	0.729527	0.708472
	H388	H	0.267503	0.733148	0.722802
	H389	H	0.257302	0.733234	0.715595
	O390	O	-0.174908	0.108761	1.022904
	H391	H	-0.184872	0.120162	1.054784
	H392	H	-0.165471	0.130101	1.019970
	O393	O	0.804343	1.022912	0.201022
	H394	H	0.788395	1.011966	0.221481
	H395	H	0.824994	1.010485	0.204988
	O396	O	0.828017	0.162823	1.107310
	H397	H	0.836034	0.152742	1.113742
	H398	H	0.826324	0.174347	1.141169
	O399	O	0.017413	1.230836	1.211496
	H400	H	0.033515	1.253614	1.235549
	H401	H	0.054698	1.233087	1.210695
	O402	O	0.205436	0.041891	1.202835
	H403	H	0.192884	0.024056	1.220273
	H404	H	0.209199	0.041476	1.224237
	O405	O	-0.680386	0.688981	0.316473
	H406	H	-0.684236	0.676086	0.348066
	H407	H	-0.682434	0.663769	0.315219
	O408	O	0.458432	0.449478	0.315505
	H409	H	0.465551	0.450439	0.313506
	H410	H	0.471714	0.455541	0.320917
	O411	O	0.648999	0.524641	0.279987
	H412	H	0.643096	0.512805	0.272992
	H413	H	0.658051	0.520670	0.268547
	O414	O	-0.029441	0.803696	0.203560
	H415	H	-0.016312	0.798816	0.179136
	H416	H	-0.025279	0.780276	0.224611
	O417	O	0.348296	0.344124	0.675477
	H418	H	0.381812	0.328993	0.686577
	H419	H	0.351001	0.380810	0.680502
	O420	O	0.421157	0.507279	0.512674
	H421	H	0.411666	0.508962	0.511409
	H422	H	0.428835	0.497870	0.505137
	O423	O	0.053938	0.980263	0.205304
	H424	H	0.034808	0.956738	0.200976
	H425	H	0.037887	0.999152	0.196988
	O426	O	0.627641	1.567085	1.409712
	H427	H	0.621376	1.588514	1.417780
	H428	H	0.634205	1.566690	1.392236
	O429	O	0.418613	0.665875	0.527903
	H430	H	0.415118	0.663907	0.542966
	H431	H	0.419951	0.650941	0.521666
	O432	O	0.276131	0.725924	0.468276
	H433	H	0.275845	0.725473	0.481549
	H434	H	0.266219	0.736285	0.466392
	O435	O	0.573717	-0.505241	0.503470
	H436	H	0.592096	-0.497604	0.494437
	H437	H	0.578008	-0.502312	0.503745
	O438	O	1.188256	0.046511	-0.034955
	H439	H	1.177450	0.046918	-0.041195
	H440	H	1.189816	0.041759	-0.048271
	O441	O	0.415949	0.572985	0.684805
	H442	H	0.430633	0.581742	0.680378
	H443	H	0.435804	0.590065	0.685564
	O444	O	0.479218	0.298947	0.680626
	H445	H	0.482025	0.280138	0.685369
	H446	H	0.496250	0.292925	0.672006
	O447	O	0.639832	0.428121	0.645654
	H448	H	0.633211	0.438471	0.623214
	H449	H	0.677692	0.426438	0.658404
	O450	O	0.685739	0.317314	0.298919
	H451	H	0.683590	0.334654	0.318740
	H452	H	0.651066	0.311753	0.310600
	O453	O	0.205167	0.228156	0.014129
	H454	H	0.207860	0.221454	0.001627
	H455	H	0.231369	0.240168	0.014354
	O456	O	0.778781	-0.061637	-0.025246
	H457	H	0.768252	-0.040380	-0.037992
	H458	H	0.782449	-0.048480	-0.014812
	O459	O	0.611377	0.708995	0.323364
	H460	H	0.591426	0.725254	0.329101
	H461	H	0.623004	0.724096	0.304334
	O462	O	0.693202	0.425044	0.597541
	H463	H	0.710498	0.421594	0.618948
	H464	H	0.692192	0.448630	0.567047
	O465	O	0.777222	0.220591	-0.036784
	H466	H	0.771035	0.248739	-0.021849
	H467	H	0.788452	0.224025	-0.016277
