data_Molecule from HDF5

_cell_length_a		16.189161
_cell_length_b		16.336330
_cell_length_c		16.268943
_cell_angle_alpha	90.014438
_cell_angle_beta	89.885501
_cell_angle_gamma	90.125299
_symmetry_space_group_name_H-M	'P 1'
_symmetry_Int_Tables_number		1

loop_
	_symmetry_equiv_pos_as_xyz
	x,y,z

loop_
	_atom_site_label
	_atom_site_type_symbol
	_atom_site_fract_x
	_atom_site_fract_y
	_atom_site_fract_z
	H0	H	0.400845	0.835357	0.716365
	H1	H	0.600062	0.161850	0.716801
	H2	H	0.599828	0.836073	0.284385
	H3	H	0.401798	0.162129	0.286178
	H4	H	0.714266	0.400786	0.837629
	H5	H	0.711827	0.595262	0.167112
	H6	H	0.286703	0.596562	0.838119
	H7	H	0.285225	0.399534	0.165013
	H8	H	0.835921	0.712395	0.402450
	H9	H	0.164515	0.713583	0.600630
	H10	H	0.837360	0.282420	0.602154
	H11	H	0.164337	0.285096	0.401412
	H12	H	0.835857	0.399883	0.714877
	H13	H	0.164199	0.598156	0.717084
	H14	H	0.835375	0.595390	0.288577
	H15	H	0.163597	0.400497	0.286258
	H16	H	0.399591	0.714817	0.838844
	H17	H	0.600826	0.715374	0.164155
	H18	H	0.600321	0.283256	0.837944
	H19	H	0.399698	0.282742	0.164454
	H20	H	0.714840	0.835438	0.401996
	H21	H	0.715696	0.162764	0.598563
	H22	H	0.285400	0.835109	0.599118
	H23	H	0.286906	0.162427	0.403694
	H24	H	0.900888	0.335132	0.217398
	H25	H	0.099728	0.661341	0.216930
	H26	H	0.099472	0.335391	0.785077
	H27	H	0.900598	0.660640	0.786358
	H28	H	0.213193	0.902759	0.336250
	H29	H	0.215200	0.098321	0.664807
	H30	H	0.788694	0.096025	0.336074
	H31	H	0.785646	0.901138	0.663685
	H32	H	0.335699	0.212154	0.902163
	H33	H	0.663500	0.213499	0.099851
	H34	H	0.336673	0.781971	0.102423
	H35	H	0.664645	0.783755	0.901659
	H36	H	0.336113	0.899083	0.215780
	H37	H	0.665093	0.097564	0.213418
	H38	H	0.335733	0.096155	0.787532
	H39	H	0.665461	0.900736	0.787440
	H40	H	0.902316	0.214485	0.337490
	H41	H	0.100494	0.214857	0.664257
	H42	H	0.101692	0.783057	0.338028
	H43	H	0.898561	0.783124	0.663445
	H44	H	0.214227	0.334201	0.902727
	H45	H	0.215277	0.661373	0.099731
	H46	H	0.784683	0.335125	0.100531
	H47	H	0.787004	0.661961	0.905316
	H48	H	0.403408	0.117067	0.598104
	H49	H	0.601844	0.879759	0.596860
	H50	H	0.598970	0.118425	0.400082
	H51	H	0.400076	0.882292	0.412192
	H52	H	0.597912	0.401235	0.121241
	H53	H	0.598057	0.592109	0.883785
	H54	H	0.408400	0.586207	0.117431
	H55	H	0.407408	0.402073	0.883962
	H56	H	0.116406	0.593283	0.412829
	H57	H	0.887501	0.585342	0.585362
	H58	H	0.116277	0.413031	0.594405
	H59	H	0.879921	0.404403	0.404204
	H60	H	0.120332	0.402224	0.598815
	H61	H	0.881868	0.586155	0.602975
	H62	H	0.116380	0.587558	0.408599
	H63	H	0.882443	0.400705	0.413796
	H64	H	0.410919	0.594119	0.117540
	H65	H	0.592125	0.586310	0.887763
	H66	H	0.591744	0.411878	0.116107
	H67	H	0.405080	0.404938	0.884134
	H68	H	0.585275	0.113184	0.405853
	H69	H	0.587130	0.883011	0.600517
	H70	H	0.413444	0.113649	0.596965
	H71	H	0.406850	0.879791	0.398763
	H72	H	0.897332	0.616680	0.094788
	H73	H	0.087160	0.384169	0.090696
	H74	H	0.094905	0.612900	0.912139
	H75	H	0.906113	0.379653	0.903336
	H76	H	0.089048	0.905086	0.616493
	H77	H	0.084006	0.094815	0.386530
	H78	H	0.908752	0.090503	0.616254
	H79	H	0.907919	0.897933	0.381658
	H80	H	0.619458	0.087400	0.898447
	H81	H	0.380997	0.094223	0.093815
	H82	H	0.615689	0.908025	0.089332
	H83	H	0.381515	0.896936	0.909730
	H84	H	0.616696	0.908679	0.094302
	H85	H	0.383379	0.088628	0.091440
	H86	H	0.620740	0.102822	0.910084
	H87	H	0.387571	0.909939	0.915949
	H88	H	0.909535	0.092401	0.616611
	H89	H	0.099300	0.099457	0.381052
	H90	H	0.093876	0.902745	0.618907
	H91	H	0.903093	0.907622	0.382552
	H92	H	0.094571	0.615754	0.905725
	H93	H	0.097610	0.381746	0.092303
	H94	H	0.910304	0.615764	0.104738
	H95	H	0.912809	0.383872	0.909753
	H96	H	0.407249	0.113156	0.588759
	H97	H	0.591728	0.885749	0.585854
	H98	H	0.597974	0.113584	0.414770
	H99	H	0.414550	0.885739	0.410843
	H100	H	0.585300	0.400257	0.117204
	H101	H	0.589348	0.595008	0.885134
	H102	H	0.403721	0.591778	0.119299
	H103	H	0.409145	0.406106	0.885038
	H104	H	0.118766	0.593681	0.406090
	H105	H	0.880669	0.600972	0.592469
	H106	H	0.116613	0.403091	0.587321
	H107	H	0.884172	0.410528	0.410096
	H108	H	0.911481	0.611793	0.089347
	H109	H	0.090610	0.380993	0.100622
	H110	H	0.089337	0.612589	0.908564
	H111	H	0.903025	0.382453	0.913015
	H112	H	0.093792	0.908262	0.617215
	H113	H	0.096329	0.083824	0.386426
	H114	H	0.907738	0.092025	0.617389
	H115	H	0.913524	0.906435	0.385565
	H116	H	0.612853	0.085955	0.917161
	H117	H	0.382359	0.089179	0.097141
	H118	H	0.617959	0.904280	0.091975
	H119	H	0.381825	0.909727	0.901124
	C120	C	0.378811	0.006818	0.623108
	C121	C	0.622386	0.990663	0.622796
	C122	C	0.622322	0.007390	0.378353
	C123	C	0.379124	0.990802	0.379437
	C124	C	0.621415	0.376431	0.010151
	C125	C	0.621434	0.619629	0.993524
	C126	C	0.378817	0.619579	0.009926
	C127	C	0.378100	0.376054	0.992536
	C128	C	0.008619	0.619844	0.380502
	C129	C	0.991790	0.619929	0.622846
	C130	C	0.009434	0.376993	0.622718
	C131	C	0.991001	0.376947	0.380242
	C132	C	0.877587	0.506775	0.124300
	C133	C	0.121314	0.490028	0.123190
	C134	C	0.121740	0.505908	0.879663
	C135	C	0.878382	0.489800	0.880162
	C136	C	0.121703	0.877032	0.509146
	C137	C	0.122367	0.121409	0.492786
	C138	C	0.879650	0.120371	0.508955
	C139	C	0.878925	0.876354	0.491664
	C140	C	0.508663	0.119915	0.879906
	C141	C	0.491486	0.119600	0.122310
	C142	C	0.508487	0.877418	0.121916
	C143	C	0.492265	0.876927	0.879825
	C144	C	0.380646	0.883992	0.678284
	C145	C	0.620412	0.113440	0.678319
	C146	C	0.620060	0.884590	0.322839
	C147	C	0.381418	0.113374	0.324240
	C148	C	0.676577	0.379912	0.886682
	C149	C	0.675746	0.616856	0.117469
	C150	C	0.323648	0.617557	0.887059
	C151	C	0.322514	0.378704	0.116016
	C152	C	0.884861	0.674376	0.382672
	C153	C	0.115339	0.675723	0.621182
	C154	C	0.885839	0.321137	0.621565
	C155	C	0.115179	0.322791	0.381805
	C156	C	0.885371	0.379257	0.677879
	C157	C	0.115387	0.617928	0.678529
	C158	C	0.884573	0.616279	0.326071
	C159	C	0.114823	0.380034	0.324759
	C160	C	0.379783	0.676211	0.887446
	C161	C	0.619999	0.676071	0.116256
	C162	C	0.620291	0.321148	0.886842
	C163	C	0.379183	0.320372	0.115623
	C164	C	0.677162	0.884382	0.380986
	C165	C	0.677862	0.113839	0.619789
	C166	C	0.323261	0.883946	0.620214
	C167	C	0.324140	0.113418	0.382495
	C168	C	0.880144	0.383897	0.179490
	C169	C	0.119911	0.612702	0.178814
	C170	C	0.119575	0.383812	0.823718
	C171	C	0.879969	0.612152	0.824371
	C172	C	0.176355	0.880957	0.385755
	C173	C	0.177672	0.118710	0.615661
	C174	C	0.825477	0.117348	0.385343
	C175	C	0.823158	0.879835	0.614795
	C176	C	0.384798	0.174501	0.882155
	C177	C	0.614855	0.175117	0.119577
	C178	C	0.385399	0.821111	0.121144
	C179	C	0.615673	0.821654	0.881535
	C180	C	0.385092	0.879245	0.177752
	C181	C	0.615366	0.117868	0.176639
	C182	C	0.384707	0.116715	0.825332
	C183	C	0.616226	0.880130	0.825115
	C184	C	0.881900	0.176050	0.386014
	C185	C	0.120451	0.176601	0.615540
	C186	C	0.120753	0.821608	0.386711
	C187	C	0.879383	0.821211	0.614552
	C188	C	0.176365	0.383142	0.882487
	C189	C	0.177214	0.612575	0.120453
	C190	C	0.822744	0.383663	0.121335
	C191	C	0.823655	0.612838	0.883682
	C192	C	0.401399	0.092557	0.601150
	C193	C	0.600081	0.905061	0.600794
	C194	C	0.600557	0.092761	0.400496
	C195	C	0.400877	0.904758	0.401011
	C196	C	0.598435	0.398065	0.095891
	C197	C	0.599493	0.597639	0.907837
	C198	C	0.401273	0.597518	0.095694
	C199	C	0.400578	0.397725	0.906692
	C200	C	0.095102	0.597969	0.402505
	C201	C	0.905683	0.597222	0.600399
	C202	C	0.095601	0.399412	0.600016
	C203	C	0.904625	0.398701	0.402822
	C204	C	0.899801	0.592573	0.102741
	C205	C	0.098514	0.404554	0.101096
	C206	C	0.099433	0.591644	0.902140
	C207	C	0.900798	0.404262	0.902221
	C208	C	0.099013	0.899055	0.595398
	C209	C	0.099804	0.099242	0.406764
	C210	C	0.902012	0.098120	0.594619
	C211	C	0.901668	0.897821	0.405562
	C212	C	0.595225	0.098410	0.902024
	C213	C	0.404572	0.097167	0.100486
	C214	C	0.594576	0.900301	0.098813
	C215	C	0.405995	0.899083	0.902472
	Zn216	Zn	0.500567	-0.001746	0.752004
	Zn217	Zn	0.500351	-0.001200	0.249918
	Zn218	Zn	0.749730	0.498245	0.002399
	Zn219	Zn	0.250315	0.497804	0.001268
	Zn220	Zn	0.000329	0.748052	0.501052
	Zn221	Zn	0.000450	0.249539	0.501205
	Zn222	Zn	0.000106	0.498307	0.750781
	Zn223	Zn	-0.000104	0.498247	0.252581
	Zn224	Zn	0.500449	0.748263	0.001345
	Zn225	Zn	0.499879	0.247519	0.001110
	Zn226	Zn	0.751062	-0.001284	0.500041
	Zn227	Zn	0.249959	-0.001379	0.501313
	N228	N	0.414523	0.961419	0.680182
	N229	N	0.586778	0.036075	0.680264
	N230	N	0.586741	0.961921	0.321021
	N231	N	0.414843	0.036026	0.322196
	N232	N	0.677330	0.413452	0.964113
	N233	N	0.676763	0.582361	0.040320
	N234	N	0.322928	0.583083	0.964076
	N235	N	0.321490	0.412583	0.038579
	N236	N	0.963012	0.676543	0.415712
	N237	N	0.037551	0.677023	0.587297
	N238	N	0.963857	0.319478	0.588074
	N239	N	0.037103	0.320792	0.415558
	N240	N	0.963209	0.413291	0.678727
	N241	N	0.037476	0.584342	0.679904
	N242	N	0.962712	0.583125	0.324476
	N243	N	0.036878	0.412889	0.323591
	N244	N	0.413411	0.677733	0.965129
	N245	N	0.587073	0.678126	0.038337
	N246	N	0.586461	0.318973	0.964483
	N247	N	0.413302	0.318823	0.038089
	N248	N	0.678677	0.961585	0.415086
	N249	N	0.678946	0.036645	0.585620
	N250	N	0.321880	0.961270	0.586769
	N251	N	0.322713	0.036177	0.416280
	N252	N	0.913739	0.461364	0.181289
	N253	N	0.085681	0.535544	0.180493
	N254	N	0.086170	0.461216	0.822159
	N255	N	0.913321	0.534780	0.822199
	N256	N	0.176949	0.914835	0.463207
	N257	N	0.178491	0.084574	0.538309
	N258	N	0.824090	0.083253	0.462654
	N259	N	0.822532	0.913241	0.537275
	N260	N	0.462799	0.176586	0.915224
	N261	N	0.536480	0.176563	0.086766
	N262	N	0.463189	0.819871	0.087000
	N263	N	0.537489	0.819536	0.914951
	N264	N	0.462733	0.913510	0.178261
	N265	N	0.537600	0.083814	0.177941
	N266	N	0.462816	0.083375	0.823712
	N267	N	0.538405	0.913591	0.823844
	N268	N	0.914794	0.178000	0.463815
	N269	N	0.086834	0.178505	0.538031
	N270	N	0.087284	0.819296	0.464484
	N271	N	0.913341	0.818905	0.536962
	N272	N	0.177728	0.460321	0.916425
	N273	N	0.177990	0.535409	0.086463
	N274	N	0.821189	0.460920	0.087812
	N275	N	0.822420	0.535691	0.917474
	O276	O	0.977157	0.958506	-0.128948
	H277	H	0.990483	0.964388	-0.126608
	H278	H	0.978638	0.945300	-0.136991
	O279	O	-0.026340	-0.001544	-0.015272
	H280	H	-0.023798	-0.009035	-0.022241
	H281	H	-0.023825	0.007608	-0.028733
	O282	O	0.044832	0.000136	0.918231
	H283	H	0.046939	0.003451	0.911843
	H284	H	0.050803	-0.003406	0.916518
	O285	O	0.528322	0.522311	0.539717
	H286	H	0.524692	0.518448	0.530838
	H287	H	0.530845	0.525152	0.543648
	O288	O	0.512683	0.508499	0.520157
	H289	H	0.504133	0.515928	0.513475
	H290	H	0.517343	0.508822	0.516606
	O291	O	0.533804	0.518001	0.548668
	H292	H	0.529378	0.520948	0.549493
	H293	H	0.524572	0.514687	0.550713
	O294	O	0.005112	-0.035930	-0.046937
	H295	H	0.005248	-0.030828	-0.039824
	H296	H	0.005036	-0.030245	-0.049608
	O297	O	0.510903	0.508820	0.519026
	H298	H	0.510349	0.511747	0.527708
	H299	H	0.509337	0.514260	0.519719
	O300	O	0.028472	0.969830	1.015677
	H301	H	0.006779	0.970584	1.018082
	H302	H	0.035689	0.973427	1.021273
	O303	O	0.483138	0.492953	0.529500
	H304	H	0.478591	0.485160	0.531498
	H305	H	0.484186	0.487042	0.526636
	O306	O	-0.007641	-0.012863	1.006104
	H307	H	-0.002503	-0.016394	1.003616
	H308	H	-0.001939	-0.012993	1.009284
	O309	O	0.975445	1.015493	0.907864
	H310	H	0.965657	1.020358	0.897024
	H311	H	0.966775	1.009054	0.909719
	O312	O	0.471765	0.488085	0.499782
	H313	H	0.476541	0.485427	0.500881
	H314	H	0.481296	0.483050	0.502549
	O315	O	0.540461	0.516607	0.519144
	H316	H	0.556168	0.518461	0.522872
	H317	H	0.539424	0.520553	0.524704
	O318	O	0.073763	0.938440	-0.019387
	H319	H	0.081913	0.934930	-0.016136
	H320	H	0.080034	0.938513	-0.008625
	O321	O	0.973744	0.994331	-0.054655
	H322	H	0.974301	0.994183	-0.053148
	H323	H	0.970020	0.989847	-0.048878
