data_Molecule from HDF5

_cell_length_a		16.237231
_cell_length_b		16.217091
_cell_length_c		16.416492
_cell_angle_alpha	89.997198
_cell_angle_beta	89.848312
_cell_angle_gamma	90.113141
_symmetry_space_group_name_H-M	'P 1'
_symmetry_Int_Tables_number		1

loop_
	_symmetry_equiv_pos_as_xyz
	x,y,z

loop_
	_atom_site_label
	_atom_site_type_symbol
	_atom_site_fract_x
	_atom_site_fract_y
	_atom_site_fract_z
	H0	H	0.400642	0.842751	0.711972
	H1	H	0.602965	0.169548	0.712747
	H2	H	0.601633	0.842512	0.280590
	H3	H	0.401319	0.169784	0.280527
	H4	H	0.716859	0.406875	0.833022
	H5	H	0.716368	0.604550	0.157883
	H6	H	0.285529	0.606406	0.832984
	H7	H	0.284153	0.406754	0.158428
	H8	H	0.835778	0.719839	0.397038
	H9	H	0.163923	0.719518	0.591536
	H10	H	0.835836	0.293869	0.590776
	H11	H	0.165103	0.292756	0.395681
	H12	H	0.837036	0.405708	0.711293
	H13	H	0.163112	0.607550	0.710078
	H14	H	0.836531	0.606749	0.279278
	H15	H	0.163761	0.406350	0.278069
	H16	H	0.404085	0.721343	0.833375
	H17	H	0.598891	0.720516	0.159463
	H18	H	0.598824	0.291814	0.832885
	H19	H	0.400975	0.290596	0.158812
	H20	H	0.712604	0.840979	0.399986
	H21	H	0.715251	0.170296	0.594027
	H22	H	0.287248	0.841871	0.594458
	H23	H	0.288099	0.170493	0.398361
	H24	H	0.901044	0.342368	0.210119
	H25	H	0.101078	0.669869	0.210657
	H26	H	0.100501	0.342755	0.778479
	H27	H	0.901880	0.670022	0.780549
	H28	H	0.216460	0.907854	0.333032
	H29	H	0.214902	0.104853	0.658387
	H30	H	0.786867	0.103114	0.333139
	H31	H	0.784436	0.907425	0.657917
	H32	H	0.336300	0.219416	0.899032
	H33	H	0.665815	0.219656	0.092016
	H34	H	0.336141	0.792890	0.092816
	H35	H	0.665901	0.794505	0.899434
	H36	H	0.336830	0.905973	0.211734
	H37	H	0.665181	0.105144	0.210123
	H38	H	0.337497	0.105555	0.781697
	H39	H	0.664624	0.906989	0.780429
	H40	H	0.904005	0.219553	0.332055
	H41	H	0.099015	0.222428	0.657693
	H42	H	0.099034	0.791056	0.332325
	H43	H	0.901819	0.791088	0.658192
	H44	H	0.214327	0.341570	0.897463
	H45	H	0.213455	0.670810	0.091453
	H46	H	0.787346	0.341553	0.092481
	H47	H	0.788631	0.671071	0.898470
	H48	H	0.401798	0.125424	0.589829
	H49	H	0.600886	0.885828	0.595365
	H50	H	0.589602	0.121037	0.405450
	H51	H	0.416341	0.891798	0.404432
	H52	H	0.596299	0.417711	0.110868
	H53	H	0.591132	0.598196	0.881849
	H54	H	0.408451	0.604435	0.112462
	H55	H	0.407451	0.412645	0.881366
	H56	H	0.115142	0.596279	0.405398
	H57	H	0.885080	0.594488	0.585466
	H58	H	0.121097	0.408677	0.595045
	H59	H	0.884137	0.412067	0.404155
	H60	H	0.115138	0.411769	0.578067
	H61	H	0.881834	0.596164	0.594927
	H62	H	0.116479	0.595155	0.399311
	H63	H	0.884231	0.416117	0.400278
	H64	H	0.401505	0.597685	0.111864
	H65	H	0.594975	0.605411	0.878612
	H66	H	0.589274	0.414051	0.109112
	H67	H	0.407963	0.414515	0.881133
	H68	H	0.598502	0.124035	0.403734
	H69	H	0.582008	0.891196	0.594068
	H70	H	0.413769	0.123090	0.595446
	H71	H	0.403492	0.889471	0.408964
	H72	H	0.918542	0.620350	0.089703
	H73	H	0.086673	0.390541	0.088477
	H74	H	0.100599	0.623719	0.906144
	H75	H	0.912135	0.389137	0.898982
	H76	H	0.095483	0.913403	0.610955
	H77	H	0.095330	0.093790	0.381734
	H78	H	0.903078	0.098166	0.611839
	H79	H	0.903072	0.910424	0.378004
	H80	H	0.619570	0.104177	0.900080
	H81	H	0.384714	0.090750	0.095623
	H82	H	0.621274	0.903641	0.091481
	H83	H	0.382478	0.909280	0.902546
	H84	H	0.614107	0.917310	0.080883
	H85	H	0.380955	0.106971	0.092796
	H86	H	0.616479	0.099090	0.907418
	H87	H	0.386446	0.916476	0.908062
	H88	H	0.911098	0.097182	0.608975
	H89	H	0.090252	0.102449	0.380962
	H90	H	0.092302	0.912547	0.610246
	H91	H	0.906671	0.917968	0.381856
	H92	H	0.093680	0.625376	0.892679
	H93	H	0.094690	0.389942	0.084089
	H94	H	0.904322	0.621958	0.080036
	H95	H	0.908903	0.390844	0.906484
	H96	H	0.411893	0.120101	0.582381
	H97	H	0.593744	0.892300	0.578219
	H98	H	0.591096	0.124389	0.397393
	H99	H	0.407095	0.886649	0.395650
	H100	H	0.595196	0.409622	0.112148
	H101	H	0.599447	0.598045	0.880089
	H102	H	0.410157	0.595894	0.108755
	H103	H	0.409449	0.412888	0.881860
	H104	H	0.116751	0.601527	0.401472
	H105	H	0.880894	0.603458	0.588000
	H106	H	0.114321	0.425427	0.590305
	H107	H	0.882527	0.410636	0.399197
	H108	H	0.904572	0.627373	0.096269
	H109	H	0.094631	0.387241	0.092631
	H110	H	0.085842	0.620388	0.904855
	H111	H	0.904043	0.387340	0.900447
	H112	H	0.094350	0.910387	0.611078
	H113	H	0.099674	0.102150	0.377985
	H114	H	0.908505	0.104394	0.612008
	H115	H	0.911633	0.910504	0.380613
	H116	H	0.618018	0.095089	0.899000
	H117	H	0.387429	0.097437	0.080736
	H118	H	0.617950	0.920695	0.098375
	H119	H	0.383903	0.918168	0.898507
	C120	C	0.379706	0.014775	0.617982
	C121	C	0.621766	0.997953	0.617584
	C122	C	0.621888	0.014327	0.374478
	C123	C	0.380042	0.997873	0.374466
	C124	C	0.622487	0.384661	0.003351
	C125	C	0.623216	0.628675	0.987785
	C126	C	0.378544	0.628073	0.003735
	C127	C	0.378847	0.384237	0.988385
	C128	C	0.008126	0.627138	0.373357
	C129	C	0.991073	0.627216	0.616920
	C130	C	0.008501	0.385927	0.616174
	C131	C	0.992223	0.384711	0.372643
	C132	C	0.879876	0.514512	0.116903
	C133	C	0.121064	0.497878	0.116639
	C134	C	0.122201	0.514651	0.873228
	C135	C	0.880184	0.497999	0.873943
	C136	C	0.122658	0.883659	0.503511
	C137	C	0.123484	0.128499	0.487096
	C138	C	0.879008	0.128043	0.503762
	C139	C	0.878423	0.884241	0.487266
	C140	C	0.509537	0.128034	0.874408
	C141	C	0.492728	0.127290	0.117468
	C142	C	0.509203	0.884439	0.118322
	C143	C	0.492772	0.885457	0.874626
	C144	C	0.381120	0.891504	0.673599
	C145	C	0.621322	0.121043	0.673634
	C146	C	0.620764	0.891271	0.319070
	C147	C	0.381959	0.120964	0.319139
	C148	C	0.678076	0.387124	0.881442
	C149	C	0.678047	0.625486	0.109886
	C150	C	0.323487	0.626366	0.881564
	C151	C	0.322463	0.386240	0.110129
	C152	C	0.884771	0.682252	0.376410
	C153	C	0.114660	0.682334	0.612926
	C154	C	0.885034	0.330877	0.612559
	C155	C	0.115922	0.330287	0.375156
	C156	C	0.885559	0.386716	0.672248
	C157	C	0.114462	0.626374	0.671554
	C158	C	0.885337	0.626348	0.317473
	C159	C	0.115078	0.386563	0.316531
	C160	C	0.382299	0.683405	0.881622
	C161	C	0.619725	0.683156	0.110526
	C162	C	0.619893	0.329423	0.881505
	C163	C	0.380700	0.328656	0.110284
	C164	C	0.676198	0.890513	0.378240
	C165	C	0.677554	0.121330	0.614826
	C166	C	0.324620	0.891038	0.615220
	C167	C	0.325410	0.121476	0.377740
	C168	C	0.881158	0.391306	0.172140
	C169	C	0.120587	0.620979	0.172588
	C170	C	0.120368	0.391288	0.817272
	C171	C	0.881984	0.621283	0.818848
	C172	C	0.178239	0.886804	0.381384
	C173	C	0.177689	0.125830	0.609679
	C174	C	0.824474	0.124380	0.381334
	C175	C	0.823054	0.886527	0.609621
	C176	C	0.385736	0.182386	0.878022
	C177	C	0.616716	0.182093	0.113715
	C178	C	0.385313	0.830014	0.114358
	C179	C	0.616681	0.831457	0.878059
	C180	C	0.385689	0.886087	0.173465
	C181	C	0.616122	0.125483	0.172530
	C182	C	0.386240	0.126089	0.819466
	C183	C	0.615822	0.887450	0.819027
	C184	C	0.882962	0.181735	0.380585
	C185	C	0.120200	0.184297	0.609315
	C186	C	0.120130	0.828690	0.381073
	C187	C	0.881274	0.829027	0.609772
	C188	C	0.176596	0.390619	0.876408
	C189	C	0.176198	0.621575	0.113109
	C190	C	0.824852	0.390751	0.113446
	C191	C	0.825812	0.621700	0.877569
	C192	C	0.402524	0.100778	0.595668
	C193	C	0.598891	0.911890	0.595647
	C194	C	0.599669	0.100877	0.396015
	C195	C	0.402344	0.911486	0.396608
	C196	C	0.600183	0.407330	0.088728
	C197	C	0.601481	0.607068	0.902341
	C198	C	0.400106	0.605563	0.088743
	C199	C	0.401577	0.406674	0.903466
	C200	C	0.093948	0.604299	0.395572
	C201	C	0.904720	0.604788	0.595729
	C202	C	0.094668	0.408564	0.594319
	C203	C	0.905927	0.406497	0.394749
	C204	C	0.902482	0.600984	0.094901
	C205	C	0.098469	0.411557	0.094909
	C206	C	0.099931	0.600844	0.894864
	C207	C	0.902046	0.411368	0.895602
	C208	C	0.100618	0.905686	0.588711
	C209	C	0.101627	0.106160	0.402077
	C210	C	0.900996	0.106480	0.588765
	C211	C	0.900527	0.906462	0.402284
	C212	C	0.595759	0.105970	0.895917
	C213	C	0.406544	0.105047	0.096012
	C214	C	0.595422	0.907056	0.096536
	C215	C	0.406480	0.907778	0.896656
	Zn216	Zn	0.500895	0.006989	0.746186
	Zn217	Zn	0.501077	0.006066	0.246155
	Zn218	Zn	0.752088	0.506462	-0.004790
	Zn219	Zn	0.249517	0.505583	-0.004662
	Zn220	Zn	-0.000189	0.755025	0.495195
	Zn221	Zn	0.001041	0.257197	0.494687
	Zn222	Zn	0.000432	0.506713	0.745267
	Zn223	Zn	0.000076	0.506659	0.244963
	Zn224	Zn	0.500811	0.757343	-0.003909
	Zn225	Zn	0.500766	0.255566	-0.003840
	Zn226	Zn	0.749393	0.006171	0.496037
	Zn227	Zn	0.252135	0.006039	0.496054
	N228	N	0.414778	0.969459	0.675384
	N229	N	0.587355	0.043274	0.675376
	N230	N	0.587652	0.969379	0.316508
	N231	N	0.414979	0.042963	0.317023
	N232	N	0.679772	0.420823	0.958397
	N233	N	0.680401	0.592482	0.032683
	N234	N	0.321107	0.592561	0.958414
	N235	N	0.321269	0.420286	0.033412
	N236	N	0.962025	0.682825	0.410489
	N237	N	0.037017	0.682673	0.579345
	N238	N	0.962347	0.330586	0.578194
	N239	N	0.038478	0.329025	0.409346
	N240	N	0.963441	0.420306	0.674422
	N241	N	0.036644	0.592919	0.674318
	N242	N	0.963135	0.592847	0.315460
	N243	N	0.037284	0.419999	0.315210
	N244	N	0.415882	0.684692	0.958417
	N245	N	0.586246	0.685158	0.033637
	N246	N	0.586165	0.327936	0.958420
	N247	N	0.415158	0.327572	0.033679
	N248	N	0.677026	0.968157	0.411956
	N249	N	0.677738	0.043929	0.580661
	N250	N	0.323715	0.968649	0.581283
	N251	N	0.324416	0.043863	0.411663
	N252	N	0.914648	0.469187	0.174001
	N253	N	0.087163	0.542987	0.174832
	N254	N	0.087273	0.469503	0.815177
	N255	N	0.914934	0.543281	0.816627
	N256	N	0.180229	0.919927	0.458498
	N257	N	0.180054	0.092039	0.532771
	N258	N	0.821837	0.091807	0.458671
	N259	N	0.821111	0.920191	0.532888
	N260	N	0.463537	0.183737	0.911298
	N261	N	0.539166	0.183320	0.080278
	N262	N	0.463111	0.828684	0.081068
	N263	N	0.539121	0.830366	0.912141
	N264	N	0.463727	0.919374	0.175712
	N265	N	0.538095	0.092071	0.174786
	N266	N	0.464114	0.093070	0.817119
	N267	N	0.537771	0.920372	0.816864
	N268	N	0.916064	0.184371	0.457592
	N269	N	0.087296	0.186176	0.532253
	N270	N	0.085933	0.826918	0.457941
	N271	N	0.914919	0.827308	0.532633
	N272	N	0.177947	0.468139	0.910148
	N273	N	0.176520	0.544172	0.078877
	N274	N	0.823905	0.468587	0.079881
	N275	N	0.824832	0.543987	0.911322
	O276	O	-0.570902	-0.548179	1.536911
	H277	H	-0.557791	-0.555924	1.542367
	H278	H	-0.567910	-0.550169	1.536161
	O279	O	0.428780	0.510750	0.480264
	H280	H	0.420536	0.531343	0.468860
	H281	H	0.414723	0.511900	0.490589
	O282	O	0.439963	0.431171	0.485366
	H283	H	0.454280	0.428042	0.487754
	H284	H	0.445360	0.421084	0.484049
	O285	O	0.446785	0.444178	0.484190
	H286	H	0.442019	0.435379	0.475665
	H287	H	0.445497	0.449640	0.483088
	O288	O	0.475419	0.492052	0.485264
	H289	H	0.472273	0.492319	0.489149
	H290	H	0.470490	0.492616	0.487660
	O291	O	0.486193	1.479891	1.474729
	H292	H	0.487036	1.480562	1.459936
	H293	H	0.500571	1.497509	1.479071
	O294	O	0.377746	0.584680	0.512693
	H295	H	0.362947	0.579830	0.510638
	H296	H	0.368322	0.569777	0.525397
	O297	O	1.469292	-0.534645	-0.493324
	H298	H	1.469397	-0.539217	-0.502530
	H299	H	1.458848	-0.530439	-0.489304
