data_Molecule from HDF5

_cell_length_a		16.313923
_cell_length_b		16.275046
_cell_length_c		16.276730
_cell_angle_alpha	90.185767
_cell_angle_beta	90.155061
_cell_angle_gamma	90.097087
_symmetry_space_group_name_H-M	'P 1'
_symmetry_Int_Tables_number		1

loop_
	_symmetry_equiv_pos_as_xyz
	x,y,z

loop_
	_atom_site_label
	_atom_site_type_symbol
	_atom_site_fract_x
	_atom_site_fract_y
	_atom_site_fract_z
	H0	H	0.406071	0.841103	0.713321
	H1	H	0.602775	0.168647	0.714951
	H2	H	0.601368	0.841159	0.285152
	H3	H	0.406519	0.169008	0.285594
	H4	H	0.719828	0.404957	0.837292
	H5	H	0.719717	0.604536	0.164021
	H6	H	0.289021	0.602953	0.836898
	H7	H	0.291054	0.406788	0.164839
	H8	H	0.841100	0.719163	0.401069
	H9	H	0.167353	0.721156	0.600708
	H10	H	0.840655	0.290384	0.597622
	H11	H	0.168425	0.291347	0.403393
	H12	H	0.840478	0.407353	0.713960
	H13	H	0.167628	0.604436	0.716617
	H14	H	0.840706	0.602851	0.285557
	H15	H	0.167912	0.407447	0.286696
	H16	H	0.406642	0.717038	0.835836
	H17	H	0.603273	0.720290	0.163937
	H18	H	0.601513	0.290778	0.836638
	H19	H	0.407346	0.291477	0.164644
	H20	H	0.717157	0.841194	0.401557
	H21	H	0.718442	0.169219	0.598803
	H22	H	0.288915	0.841399	0.597635
	H23	H	0.289838	0.168914	0.400879
	H24	H	0.906346	0.340492	0.213548
	H25	H	0.102080	0.668697	0.215488
	H26	H	0.100924	0.341208	0.785967
	H27	H	0.905859	0.669279	0.786391
	H28	H	0.217981	0.905909	0.335634
	H29	H	0.220424	0.105374	0.663230
	H30	H	0.788837	0.103456	0.336826
	H31	H	0.791009	0.907543	0.664235
	H32	H	0.341206	0.218805	0.902163
	H33	H	0.667536	0.219917	0.099308
	H34	H	0.340721	0.790115	0.096624
	H35	H	0.667427	0.789476	0.900925
	H36	H	0.339530	0.908082	0.212055
	H37	H	0.667592	0.103244	0.214604
	H38	H	0.340150	0.100943	0.786934
	H39	H	0.667762	0.906689	0.785986
	H40	H	0.907326	0.217497	0.335877
	H41	H	0.102937	0.219856	0.663919
	H42	H	0.101024	0.790647	0.336139
	H43	H	0.907319	0.791607	0.664256
	H44	H	0.218030	0.340674	0.902493
	H45	H	0.219660	0.669004	0.100607
	H46	H	0.789494	0.340676	0.098116
	H47	H	0.789707	0.669157	0.902517
	H48	H	0.404860	0.123605	0.594633
	H49	H	0.595334	0.890746	0.587965
	H50	H	0.612842	0.125118	0.410989
	H51	H	0.414989	0.889841	0.405209
	H52	H	0.601830	0.417769	0.115964
	H53	H	0.606151	0.603396	0.879245
	H54	H	0.411431	0.595737	0.115945
	H55	H	0.413206	0.408668	0.883774
	H56	H	0.119282	0.601967	0.415355
	H57	H	0.893301	0.588970	0.586473
	H58	H	0.118459	0.416168	0.591632
	H59	H	0.886914	0.410911	0.400428
	H60	H	0.121511	0.412915	0.599439
	H61	H	0.886064	0.595811	0.603163
	H62	H	0.117384	0.589561	0.408496
	H63	H	0.887242	0.405503	0.410024
	H64	H	0.413767	0.599458	0.116423
	H65	H	0.599347	0.584643	0.887423
	H66	H	0.591487	0.413793	0.114851
	H67	H	0.406341	0.409681	0.882459
	H68	H	0.592137	0.124510	0.391978
	H69	H	0.602541	0.886925	0.593031
	H70	H	0.417089	0.121232	0.598580
	H71	H	0.407665	0.889074	0.409695
	H72	H	0.912587	0.619159	0.089921
	H73	H	0.092089	0.391408	0.090580
	H74	H	0.092595	0.619583	0.907181
	H75	H	0.915415	0.390762	0.907892
	H76	H	0.097495	0.920806	0.614177
	H77	H	0.102093	0.105860	0.379816
	H78	H	0.915523	0.102914	0.616277
	H79	H	0.916703	0.903838	0.383011
	H80	H	0.621329	0.094847	0.901586
	H81	H	0.388869	0.095655	0.092265
	H82	H	0.624914	0.903185	0.100213
	H83	H	0.384489	0.900980	0.903480
	H84	H	0.617247	0.909403	0.080696
	H85	H	0.386595	0.098859	0.096331
	H86	H	0.622470	0.104428	0.908348
	H87	H	0.391264	0.911972	0.915835
	H88	H	0.905841	0.099959	0.618952
	H89	H	0.102974	0.090200	0.383500
	H90	H	0.091807	0.908370	0.616018
	H91	H	0.900749	0.909393	0.380427
	H92	H	0.099165	0.619887	0.913753
	H93	H	0.105329	0.387880	0.089575
	H94	H	0.907762	0.621989	0.094780
	H95	H	0.908416	0.389061	0.910286
	H96	H	0.413872	0.118417	0.585876
	H97	H	0.594069	0.888330	0.597096
	H98	H	0.587387	0.115114	0.418290
	H99	H	0.408043	0.887129	0.402102
	H100	H	0.599376	0.407347	0.119279
	H101	H	0.586215	0.601287	0.885711
	H102	H	0.409135	0.599714	0.117995
	H103	H	0.410660	0.415214	0.884974
	H104	H	0.123051	0.600932	0.401241
	H105	H	0.887013	0.607673	0.587631
	H106	H	0.120943	0.407809	0.592089
	H107	H	0.890188	0.416350	0.409424
	H108	H	0.914875	0.621499	0.096760
	H109	H	0.098546	0.385925	0.100995
	H110	H	0.101240	0.624239	0.905230
	H111	H	0.910051	0.387468	0.902867
	H112	H	0.105544	0.910475	0.618641
	H113	H	0.089260	0.098904	0.386024
	H114	H	0.912320	0.092867	0.615317
	H115	H	0.912256	0.920333	0.386762
	H116	H	0.617889	0.094988	0.912491
	H117	H	0.387293	0.100536	0.091454
	H118	H	0.618060	0.923827	0.097384
	H119	H	0.388316	0.918080	0.899497
	C120	C	0.383091	0.013292	0.620969
	C121	C	0.625950	0.996808	0.621752
	C122	C	0.625576	0.013401	0.378229
	C123	C	0.382226	0.996918	0.377691
	C124	C	0.625965	0.383793	0.008889
	C125	C	0.626133	0.625998	0.992168
	C126	C	0.383218	0.626034	0.008337
	C127	C	0.382587	0.383164	0.992336
	C128	C	0.012339	0.626030	0.379079
	C129	C	0.996368	0.626751	0.621934
	C130	C	0.012194	0.383462	0.622025
	C131	C	0.995949	0.382754	0.378406
	C132	C	0.883216	0.512491	0.121396
	C133	C	0.126577	0.496879	0.122545
	C134	C	0.125383	0.512794	0.879890
	C135	C	0.882563	0.497214	0.878843
	C136	C	0.126018	0.884169	0.507776
	C137	C	0.126320	0.126928	0.491607
	C138	C	0.882915	0.126368	0.508745
	C139	C	0.882395	0.883596	0.492027
	C140	C	0.512771	0.126361	0.878874
	C141	C	0.495652	0.127002	0.121982
	C142	C	0.512066	0.883663	0.120816
	C143	C	0.496097	0.882341	0.878058
	C144	C	0.385408	0.889899	0.675725
	C145	C	0.623157	0.119945	0.676943
	C146	C	0.622165	0.890065	0.322972
	C147	C	0.385518	0.120236	0.323021
	C148	C	0.681224	0.385306	0.885833
	C149	C	0.681585	0.624753	0.115135
	C150	C	0.327271	0.623319	0.885602
	C151	C	0.328430	0.386107	0.115817
	C152	C	0.889754	0.681322	0.380736
	C153	C	0.118956	0.682469	0.620414
	C154	C	0.889368	0.328333	0.618516
	C155	C	0.119317	0.328696	0.381957
	C156	C	0.889099	0.386558	0.676088
	C157	C	0.119058	0.624522	0.678049
	C158	C	0.889489	0.623239	0.323448
	C159	C	0.119158	0.386043	0.323901
	C160	C	0.385661	0.679952	0.884980
	C161	C	0.623896	0.682419	0.114950
	C162	C	0.622515	0.328645	0.885551
	C163	C	0.386312	0.328870	0.115632
	C164	C	0.679971	0.890171	0.380610
	C165	C	0.680421	0.120315	0.618919
	C166	C	0.327596	0.890026	0.617899
	C167	C	0.327524	0.120050	0.380281
	C168	C	0.885909	0.389118	0.175340
	C169	C	0.123347	0.620003	0.177762
	C170	C	0.121899	0.389872	0.824161
	C171	C	0.885028	0.620401	0.823867
	C172	C	0.180152	0.885890	0.384561
	C173	C	0.181521	0.124780	0.614871
	C174	C	0.827828	0.123234	0.385286
	C175	C	0.828349	0.886598	0.615237
	C176	C	0.389614	0.180744	0.881644
	C177	C	0.618735	0.182226	0.119890
	C178	C	0.389026	0.828414	0.117604
	C179	C	0.619021	0.827825	0.880813
	C180	C	0.388712	0.886863	0.174992
	C181	C	0.618711	0.124399	0.177298
	C182	C	0.389183	0.122420	0.824404
	C183	C	0.618994	0.885752	0.823481
	C184	C	0.886353	0.179868	0.384891
	C185	C	0.123473	0.182009	0.614990
	C186	C	0.122025	0.828653	0.384908
	C187	C	0.886410	0.829206	0.615331
	C188	C	0.179593	0.389401	0.882353
	C189	C	0.182029	0.619957	0.120774
	C190	C	0.827804	0.389375	0.118346
	C191	C	0.827427	0.620316	0.881710
	C192	C	0.405536	0.098994	0.599397
	C193	C	0.603903	0.910896	0.599221
	C194	C	0.603900	0.099369	0.400608
	C195	C	0.403850	0.910806	0.399375
	C196	C	0.604166	0.406139	0.094656
	C197	C	0.603808	0.603176	0.906213
	C198	C	0.404986	0.604635	0.094628
	C199	C	0.403815	0.404702	0.906052
	C200	C	0.097809	0.603853	0.401717
	C201	C	0.910955	0.604083	0.599231
	C202	C	0.097954	0.405671	0.600693
	C203	C	0.910237	0.404433	0.400168
	C204	C	0.905072	0.598706	0.100105
	C205	C	0.104833	0.410574	0.100315
	C206	C	0.103939	0.599010	0.902212
	C207	C	0.904721	0.411346	0.900623
	C208	C	0.104536	0.906563	0.594193
	C209	C	0.104615	0.104772	0.405444
	C210	C	0.904814	0.104867	0.594588
	C211	C	0.903561	0.904953	0.405544
	C212	C	0.598566	0.104660	0.900964
	C213	C	0.409738	0.104894	0.099739
	C214	C	0.597910	0.905639	0.099236
	C215	C	0.410069	0.903947	0.899831
	Zn216	Zn	0.504213	0.004797	0.750108
	Zn217	Zn	0.503771	0.005247	0.250026
	Zn218	Zn	0.754502	0.505196	0.000633
	Zn219	Zn	0.254728	0.504887	0.000818
	Zn220	Zn	0.004090	0.755373	0.500282
	Zn221	Zn	0.004488	0.254489	0.500141
	Zn222	Zn	0.004002	0.505450	0.750346
	Zn223	Zn	0.003941	0.504214	0.250151
	Zn224	Zn	0.504357	0.754153	-0.000451
	Zn225	Zn	0.504407	0.255361	0.000020
	Zn226	Zn	0.754049	0.005032	0.500347
	Zn227	Zn	0.254491	0.005499	0.499200
	N228	N	0.419434	0.967274	0.677481
	N229	N	0.589777	0.042272	0.678733
	N230	N	0.589038	0.967667	0.321390
	N231	N	0.419132	0.042760	0.321681
	N232	N	0.683326	0.419132	0.963354
	N233	N	0.682897	0.590434	0.037923
	N234	N	0.325722	0.590484	0.963257
	N235	N	0.325893	0.419176	0.038187
	N236	N	0.966972	0.683152	0.414616
	N237	N	0.041683	0.684200	0.586391
	N238	N	0.966951	0.326351	0.585676
	N239	N	0.041903	0.326604	0.415149
	N240	N	0.966489	0.420229	0.678216
	N241	N	0.041791	0.590660	0.679036
	N242	N	0.966735	0.589507	0.322262
	N243	N	0.041458	0.418768	0.321480
	N244	N	0.419819	0.681712	0.962247
	N245	N	0.590016	0.683219	0.037388
	N246	N	0.588725	0.327787	0.962869
	N247	N	0.419311	0.327010	0.037955
	N248	N	0.681881	0.967673	0.414552
	N249	N	0.682179	0.042617	0.585343
	N250	N	0.325927	0.967548	0.584703
	N251	N	0.325499	0.042518	0.413573
	N252	N	0.919666	0.466536	0.177363
	N253	N	0.089851	0.542552	0.178794
	N254	N	0.089059	0.467687	0.822630
	N255	N	0.918635	0.543051	0.822007
	N256	N	0.182653	0.919625	0.462150
	N257	N	0.183460	0.091383	0.537225
	N258	N	0.825391	0.090723	0.463256
	N259	N	0.825836	0.919497	0.537689
	N260	N	0.467180	0.183204	0.914785
	N261	N	0.541314	0.183830	0.086078
	N262	N	0.466593	0.826387	0.084790
	N263	N	0.541481	0.825451	0.913655
	N264	N	0.466064	0.920489	0.177097
	N265	N	0.541430	0.090734	0.178561
	N266	N	0.466845	0.089468	0.822315
	N267	N	0.541626	0.919070	0.821717
	N268	N	0.919996	0.181935	0.462344
	N269	N	0.090019	0.183579	0.537342
	N270	N	0.089202	0.827561	0.462545
	N271	N	0.919358	0.827374	0.537484
	N272	N	0.182151	0.466994	0.915966
	N273	N	0.183956	0.542254	0.087078
	N274	N	0.826264	0.467178	0.085468
	N275	N	0.825659	0.542670	0.915019
	O276	O	0.461963	-0.444608	0.526108
	H277	H	0.460282	-0.445110	0.533897
	H278	H	0.452153	-0.446303	0.526406
	O279	O	0.470653	0.543534	0.534799
	H280	H	0.468835	0.548902	0.532090
	H281	H	0.483019	0.536868	0.533155
	O282	O	0.445189	0.550405	0.544867
	H283	H	0.447365	0.542677	0.539872
	H284	H	0.443563	0.559870	0.552440
	O285	O	0.485151	0.549568	0.516517
	H286	H	0.479708	0.550276	0.522190
	H287	H	0.486628	0.555004	0.511361
