data_Molecule from HDF5

_cell_length_a		16.563828
_cell_length_b		16.613875
_cell_length_c		16.603057
_cell_angle_alpha	89.906133
_cell_angle_beta	90.059026
_cell_angle_gamma	89.995022
_symmetry_space_group_name_H-M	'P 1'
_symmetry_Int_Tables_number		1

loop_
	_symmetry_equiv_pos_as_xyz
	x,y,z

loop_
	_atom_site_label
	_atom_site_type_symbol
	_atom_site_fract_x
	_atom_site_fract_y
	_atom_site_fract_z
	H0	H	0.398534	0.844448	0.712323
	H1	H	0.609629	0.155706	0.712380
	H2	H	0.611041	0.846468	0.268783
	H3	H	0.397764	0.154967	0.266928
	H4	H	0.727864	0.393679	0.835923
	H5	H	0.724083	0.602769	0.147339
	H6	H	0.284139	0.604313	0.834136
	H7	H	0.287185	0.397970	0.147872
	H8	H	0.848704	0.722082	0.385739
	H9	H	0.159161	0.724257	0.598767
	H10	H	0.849576	0.277253	0.599068
	H11	H	0.161097	0.280473	0.388384
	H12	H	0.850299	0.392177	0.715545
	H13	H	0.159537	0.607651	0.713934
	H14	H	0.847864	0.604130	0.270782
	H15	H	0.161802	0.397670	0.273142
	H16	H	0.401383	0.719721	0.833279
	H17	H	0.609385	0.721024	0.145904
	H18	H	0.610948	0.277764	0.835526
	H19	H	0.400021	0.278129	0.144965
	H20	H	0.724325	0.844460	0.387758
	H21	H	0.725453	0.156604	0.595659
	H22	H	0.281554	0.845238	0.596519
	H23	H	0.281720	0.154682	0.383296
	H24	H	0.898101	0.343961	0.214852
	H25	H	0.104931	0.657730	0.208529
	H26	H	0.110603	0.345540	0.769044
	H27	H	0.898839	0.655354	0.768658
	H28	H	0.226152	0.894415	0.335116
	H29	H	0.225666	0.104160	0.645981
	H30	H	0.783398	0.105766	0.333870
	H31	H	0.788935	0.901859	0.649123
	H32	H	0.346918	0.219896	0.885906
	H33	H	0.661665	0.223178	0.096278
	H34	H	0.349809	0.779287	0.096740
	H35	H	0.660780	0.780538	0.886954
	H36	H	0.349899	0.896155	0.211474
	H37	H	0.661762	0.107337	0.211902
	H38	H	0.347686	0.103862	0.769519
	H39	H	0.660997	0.897414	0.770925
	H40	H	0.898351	0.223216	0.334607
	H41	H	0.109135	0.220209	0.646717
	H42	H	0.108223	0.779612	0.334861
	H43	H	0.903214	0.781970	0.648170
	H44	H	0.224547	0.343781	0.887640
	H45	H	0.221954	0.657790	0.092284
	H46	H	0.782726	0.343096	0.098372
	H47	H	0.783172	0.655433	0.886535
	H48	H	0.420226	0.110234	0.581026
	H49	H	0.597713	0.886926	0.581764
	H50	H	0.597129	0.113516	0.403533
	H51	H	0.420019	0.889393	0.399458
	H52	H	0.593132	0.419146	0.099417
	H53	H	0.593581	0.587836	0.879106
	H54	H	0.412004	0.588823	0.102318
	H55	H	0.407729	0.411274	0.875400
	H56	H	0.118295	0.595176	0.400730
	H57	H	0.894825	0.583402	0.580024
	H58	H	0.114345	0.415213	0.579930
	H59	H	0.894997	0.417487	0.404334
	H60	H	0.118115	0.410803	0.582724
	H61	H	0.890541	0.591130	0.582588
	H62	H	0.115951	0.589207	0.404241
	H63	H	0.889384	0.411025	0.396567
	H64	H	0.417468	0.592343	0.102135
	H65	H	0.593529	0.590795	0.878988
	H66	H	0.584921	0.408459	0.100956
	H67	H	0.416151	0.417111	0.880590
	H68	H	0.593167	0.114258	0.398938
	H69	H	0.593663	0.887407	0.583224
	H70	H	0.416159	0.111002	0.574596
	H71	H	0.416584	0.891416	0.405635
	H72	H	0.914659	0.608976	0.073854
	H73	H	0.100061	0.384175	0.089140
	H74	H	0.095591	0.612914	0.901652
	H75	H	0.917454	0.389550	0.904854
	H76	H	0.094308	0.908802	0.603708
	H77	H	0.093600	0.093044	0.377570
	H78	H	0.913561	0.094958	0.604821
	H79	H	0.917790	0.907383	0.377761
	H80	H	0.613461	0.087031	0.907009
	H81	H	0.394947	0.088788	0.075615
	H82	H	0.619624	0.907878	0.081181
	H83	H	0.391966	0.909428	0.900949
	H84	H	0.616274	0.911472	0.076031
	H85	H	0.394075	0.086125	0.080966
	H86	H	0.616180	0.085720	0.896413
	H87	H	0.391199	0.910804	0.902194
	H88	H	0.911072	0.085995	0.602181
	H89	H	0.095374	0.087141	0.378736
	H90	H	0.095411	0.914844	0.601516
	H91	H	0.910740	0.909910	0.376894
	H92	H	0.091954	0.611878	0.900629
	H93	H	0.089173	0.389137	0.084395
	H94	H	0.908805	0.613255	0.083841
	H95	H	0.917077	0.389118	0.903470
	H96	H	0.413616	0.112503	0.581130
	H97	H	0.594845	0.889373	0.579331
	H98	H	0.591416	0.110993	0.403264
	H99	H	0.413294	0.887997	0.400504
	H100	H	0.597726	0.408030	0.105169
	H101	H	0.595406	0.589628	0.878080
	H102	H	0.412263	0.594399	0.105388
	H103	H	0.418433	0.406278	0.877410
	H104	H	0.118374	0.588143	0.397346
	H105	H	0.894022	0.590408	0.573957
	H106	H	0.116283	0.410142	0.576433
	H107	H	0.892737	0.406495	0.406300
	H108	H	0.921053	0.609612	0.084705
	H109	H	0.099454	0.387427	0.077304
	H110	H	0.092701	0.610623	0.904009
	H111	H	0.918396	0.389544	0.903257
	H112	H	0.089486	0.912290	0.601045
	H113	H	0.089415	0.088986	0.380124
	H114	H	0.919782	0.089036	0.600533
	H115	H	0.915794	0.914947	0.380354
	H116	H	0.618397	0.095291	0.901650
	H117	H	0.393187	0.091791	0.080310
	H118	H	0.617827	0.914223	0.082101
	H119	H	0.391921	0.911389	0.900633
	C120	C	0.383700	0.008300	0.611260
	C121	C	0.626406	0.991677	0.612786
	C122	C	0.625624	0.009626	0.370282
	C123	C	0.383456	0.991828	0.368782
	C124	C	0.625363	0.378929	-0.000668
	C125	C	0.625453	0.620676	0.982122
	C126	C	0.382759	0.622790	-0.000741
	C127	C	0.382972	0.379261	0.981369
	C128	C	0.013491	0.622260	0.369405
	C129	C	0.995977	0.621233	0.611799
	C130	C	0.013271	0.379073	0.612854
	C131	C	0.996099	0.380115	0.371054
	C132	C	0.882476	0.507620	0.113438
	C133	C	0.126102	0.491518	0.113154
	C134	C	0.125833	0.508976	0.869966
	C135	C	0.884188	0.492078	0.870783
	C136	C	0.125313	0.879280	0.499173
	C137	C	0.125287	0.121380	0.481873
	C138	C	0.882330	0.122583	0.499308
	C139	C	0.883627	0.879548	0.482333
	C140	C	0.512703	0.121458	0.869131
	C141	C	0.497169	0.121926	0.111453
	C142	C	0.514379	0.879607	0.111667
	C143	C	0.495497	0.879372	0.869470
	C144	C	0.380411	0.891354	0.671985
	C145	C	0.628250	0.109078	0.672517
	C146	C	0.628473	0.892495	0.309815
	C147	C	0.379694	0.108391	0.307478
	C148	C	0.687227	0.375452	0.882442
	C149	C	0.684524	0.621782	0.100229
	C150	C	0.324116	0.623240	0.881227
	C151	C	0.325576	0.378582	0.100223
	C152	C	0.895557	0.681888	0.367383
	C153	C	0.112728	0.683098	0.615838
	C154	C	0.896530	0.317688	0.616716
	C155	C	0.114167	0.320464	0.369629
	C156	C	0.896756	0.375012	0.674635
	C157	C	0.112887	0.625032	0.673064
	C158	C	0.895268	0.623582	0.310162
	C159	C	0.114675	0.378903	0.312545
	C160	C	0.382094	0.680973	0.880895
	C161	C	0.627352	0.680256	0.099533
	C162	C	0.628916	0.318231	0.882109
	C163	C	0.381698	0.319188	0.098809
	C164	C	0.684920	0.891570	0.368739
	C165	C	0.685663	0.109440	0.614386
	C166	C	0.322231	0.891750	0.614523
	C167	C	0.322062	0.108292	0.365329
	C168	C	0.879949	0.390613	0.174350
	C169	C	0.124852	0.610334	0.169783
	C170	C	0.128473	0.391790	0.809745
	C171	C	0.880910	0.608932	0.809787
	C172	C	0.185535	0.876404	0.381794
	C173	C	0.185691	0.123094	0.599241
	C174	C	0.822878	0.124614	0.381172
	C175	C	0.827059	0.880920	0.601654
	C176	C	0.394468	0.180310	0.867406
	C177	C	0.614507	0.182529	0.114031
	C178	C	0.396738	0.819453	0.114568
	C179	C	0.613961	0.820404	0.868208
	C180	C	0.396936	0.877563	0.171728
	C181	C	0.614700	0.125099	0.171942
	C182	C	0.394581	0.122742	0.809479
	C183	C	0.613993	0.878192	0.810610
	C184	C	0.880033	0.182996	0.381607
	C185	C	0.127268	0.180233	0.599813
	C186	C	0.127182	0.819298	0.381533
	C187	C	0.883368	0.821447	0.600967
	C188	C	0.185242	0.391067	0.868486
	C189	C	0.183028	0.610306	0.112408
	C190	C	0.822528	0.390238	0.116164
	C191	C	0.823627	0.608980	0.868223
	C192	C	0.409338	0.089917	0.585994
	C193	C	0.602199	0.909348	0.588247
	C194	C	0.600969	0.091407	0.394896
	C195	C	0.409272	0.910684	0.394607
	C196	C	0.599271	0.404590	0.080537
	C197	C	0.601183	0.596239	0.900055
	C198	C	0.407006	0.598751	0.081894
	C199	C	0.407231	0.404332	0.899267
	C200	C	0.096068	0.597804	0.393804
	C201	C	0.914478	0.595543	0.586107
	C202	C	0.094962	0.404841	0.586972
	C203	C	0.913817	0.404678	0.395470
	C204	C	0.907552	0.589372	0.087934
	C205	C	0.102911	0.408511	0.090155
	C206	C	0.100620	0.590683	0.895021
	C207	C	0.910249	0.410592	0.896437
	C208	C	0.100232	0.904576	0.580754
	C209	C	0.100033	0.096888	0.400056
	C210	C	0.907526	0.097233	0.581290
	C211	C	0.907746	0.903800	0.399665
	C212	C	0.594774	0.096399	0.894406
	C213	C	0.415382	0.096270	0.086167
	C214	C	0.596444	0.904059	0.086917
	C215	C	0.413235	0.903880	0.894040
	Zn216	Zn	0.504410	0.000295	0.740660
	Zn217	Zn	0.505837	0.001363	0.240575
	Zn218	Zn	0.754434	0.499277	-0.008459
	Zn219	Zn	0.254302	0.500361	-0.009103
	Zn220	Zn	0.004446	0.749951	0.491221
	Zn221	Zn	0.004079	0.250480	0.491185
	Zn222	Zn	0.004711	0.500788	0.740924
	Zn223	Zn	0.004362	0.500041	0.241465
	Zn224	Zn	0.504911	0.750814	-0.009606
	Zn225	Zn	0.504293	0.250417	-0.010160
	Zn226	Zn	0.754438	0.000507	0.490762
	Zn227	Zn	0.254162	0.000299	0.490099
	N228	N	0.418117	0.964893	0.670069
	N229	N	0.592298	0.034750	0.671748
	N230	N	0.592402	0.966875	0.310532
	N231	N	0.417431	0.035040	0.309517
	N232	N	0.685051	0.412525	0.956164
	N233	N	0.683665	0.585526	0.026082
	N234	N	0.324357	0.587748	0.955877
	N235	N	0.326033	0.414977	0.025989
	N236	N	0.970199	0.681189	0.403417
	N237	N	0.039101	0.680858	0.578190
	N238	N	0.970079	0.320086	0.578828
	N239	N	0.039350	0.320899	0.405075
	N240	N	0.970449	0.412622	0.672333
	N241	N	0.039375	0.587092	0.670560
	N242	N	0.969660	0.587098	0.311309
	N243	N	0.040071	0.415048	0.312996
	N244	N	0.417752	0.680997	0.955642
	N245	N	0.591381	0.679931	0.025028
	N246	N	0.591346	0.319989	0.955781
	N247	N	0.416269	0.319043	0.023736
	N248	N	0.683535	0.965435	0.405468
	N249	N	0.684790	0.035320	0.578008
	N250	N	0.324280	0.965527	0.577275
	N251	N	0.324259	0.034834	0.402851
	N252	N	0.916478	0.464635	0.172890
	N253	N	0.090489	0.535177	0.170667
	N254	N	0.092051	0.465988	0.810607
	N255	N	0.917753	0.535070	0.811266
	N256	N	0.184629	0.912990	0.455877
	N257	N	0.184654	0.087266	0.524790
	N258	N	0.823992	0.087885	0.455387
	N259	N	0.826665	0.915942	0.526522
	N260	N	0.469097	0.179905	0.903536
	N261	N	0.540254	0.180920	0.077233
	N262	N	0.470891	0.820322	0.078014
	N263	N	0.539251	0.820788	0.903917
	N264	N	0.471131	0.914172	0.170265
	N265	N	0.540400	0.088291	0.170812
	N266	N	0.469280	0.087072	0.810228
	N267	N	0.539331	0.913987	0.811129
	N268	N	0.916037	0.182124	0.456253
	N269	N	0.090509	0.179448	0.525812
	N270	N	0.090627	0.820695	0.455662
	N271	N	0.917465	0.820408	0.525607
	N272	N	0.183757	0.464948	0.905246
	N273	N	0.184098	0.535158	0.078046
	N274	N	0.824014	0.464166	0.078858
	N275	N	0.825610	0.535189	0.905553
	O276	O	-0.025309	1.019575	0.217484
	H277	H	-0.026200	1.015022	0.218314
	H278	H	-0.036383	1.021910	0.213284
	O279	O	0.521113	0.564005	0.542839
	H280	H	0.524672	0.556458	0.548865
	H281	H	0.521725	0.570534	0.539732
	O282	O	0.742576	-0.261725	1.249223
	H283	H	0.711637	-0.282320	1.261277
	H284	H	0.747038	-0.271678	1.266988
	O285	O	0.545336	0.714035	0.707315
	H286	H	0.534422	0.717065	0.694429
	H287	H	0.534457	0.727782	0.720312
	O288	O	0.302326	0.516786	0.489947
	H289	H	0.299226	0.514083	0.501453
	H290	H	0.316671	0.528796	0.474440
	O291	O	0.566169	0.469167	0.697913
	H292	H	0.581823	0.462575	0.694023
	H293	H	0.562570	0.450610	0.703669
	O294	O	1.075941	0.194635	0.819211
	H295	H	1.077511	0.188028	0.817837
	H296	H	1.092977	0.208639	0.805991
	O297	O	0.281801	0.493380	0.457587
	H298	H	0.287357	0.496446	0.470196
	H299	H	0.281565	0.501525	0.451312
	O300	O	-0.187432	-0.185455	0.801976
	H301	H	-0.170886	-0.171624	0.826711
	H302	H	-0.165540	-0.165251	0.813795
	O303	O	0.729062	0.722951	0.526867
	H304	H	0.730723	0.719723	0.560142
	H305	H	0.757335	0.745044	0.543916
	O306	O	0.542595	0.280373	0.441935
	H307	H	0.550293	0.282822	0.457465
	H308	H	0.565769	0.272376	0.437064
	O309	O	0.374282	0.696967	0.614003
	H310	H	0.368973	0.708154	0.610983
	H311	H	0.377795	0.698613	0.603024
	O312	O	0.303924	0.549348	0.693148
	H313	H	0.304436	0.551695	0.680624
	H314	H	0.307978	0.555062	0.690285
	O315	O	0.984797	1.225792	1.010404
	H316	H	0.974721	1.226284	1.011369
	H317	H	0.997401	1.227330	1.019343
	O318	O	0.716206	0.709192	0.697123
	H319	H	0.744832	0.742820	0.729901
	H320	H	0.673404	0.704314	0.705022
	O321	O	0.037601	1.220004	1.209739
	H322	H	0.038115	1.246987	1.230769
	H323	H	0.054570	1.203783	1.214918
	O324	O	0.785664	0.786788	0.016808
	H325	H	0.768376	0.768896	0.042131
	H326	H	0.792045	0.785574	0.032550
	O327	O	-0.207801	0.209540	0.783384
	H328	H	-0.199360	0.187832	0.803075
	H329	H	-0.182050	0.202386	0.791865
	O330	O	0.302171	0.357164	0.612245
	H331	H	0.298316	0.359624	0.602702
	H332	H	0.309145	0.354315	0.593403
	O333	O	0.312180	0.308174	0.296080
	H334	H	0.330275	0.326190	0.321557
	H335	H	0.337399	0.319917	0.307217
	O336	O	0.701557	0.299503	0.292326
	H337	H	0.707758	0.340514	0.280646
	H338	H	0.704132	0.299561	0.328980
	O339	O	1.225397	-0.066970	1.070553
	H340	H	1.234671	-0.061192	1.097488
	H341	H	1.222904	-0.057695	1.065433
	O342	O	-0.175156	-0.143567	0.126241
	H343	H	-0.149038	-0.144471	0.136160
	H344	H	-0.190189	-0.160260	0.147570
	O345	O	-0.042168	0.768815	0.926576
	H346	H	-0.042551	0.761588	0.938350
	H347	H	-0.046606	0.764706	0.918445
	O348	O	0.349850	0.296848	0.544161
	H349	H	0.360144	0.326436	0.545814
	H350	H	0.360484	0.283542	0.534129
	O351	O	0.469125	0.478954	0.289730
	H352	H	0.477471	0.459768	0.287687
	H353	H	0.468012	0.487699	0.289002
	O354	O	-0.419718	0.442427	0.444779
	H355	H	-0.418543	0.451514	0.443134
	H356	H	-0.421705	0.445077	0.462688
	O357	O	0.208532	0.209670	0.200020
	H358	H	0.242271	0.242883	0.230167
	H359	H	0.196875	0.216197	0.165912
	O360	O	0.172263	0.054122	1.087822
	H361	H	0.164931	0.071455	1.099251
	H362	H	0.185580	0.061425	1.094281
	O363	O	0.081088	-0.078816	0.141111
	H364	H	0.089536	-0.068458	0.138902
	H365	H	0.086424	-0.059735	0.140385
	O366	O	0.578977	0.614179	0.304629
	H367	H	0.568415	0.596182	0.306012
	H368	H	0.560122	0.615116	0.311878
	O369	O	0.993783	0.133816	-0.226817
	H370	H	0.992124	0.138787	-0.229205
	H371	H	0.994825	0.145579	-0.224591
	O372	O	1.182393	1.249104	-0.190186
	H373	H	1.188285	1.238926	-0.205864
	H374	H	1.183711	1.281941	-0.178749
	O375	O	0.790482	0.051953	0.047780
	H376	H	0.792266	0.032775	0.063911
	H377	H	0.787230	0.060175	0.049265
	O378	O	0.724831	0.531612	0.707059
	H379	H	0.717151	0.546536	0.710512
	H380	H	0.745009	0.547841	0.725586
	O381	O	-0.208437	1.213623	0.960022
	H382	H	-0.208347	1.213360	0.963458
	H383	H	-0.220284	1.223622	0.964174
	O384	O	1.101793	-0.001978	0.838460
	H385	H	1.094925	-0.007677	0.849240
	H386	H	1.100085	-0.000338	0.841577
	O387	O	1.191633	0.799860	-0.071172
	H388	H	1.190627	0.797657	-0.063027
	H389	H	1.200578	0.795978	-0.082021
	O390	O	0.645764	0.631224	0.416850
	H391	H	0.631225	0.635929	0.441653
	H392	H	0.663755	0.624439	0.431164
	O393	O	0.666270	0.519566	0.496666
	H394	H	0.671019	0.521268	0.499822
	H395	H	0.668458	0.512076	0.514853
	O396	O	-0.169310	1.035423	0.825027
	H397	H	-0.174469	1.036494	0.838813
	H398	H	-0.182266	1.037172	0.812226
	O399	O	0.223729	0.218028	1.032463
	H400	H	0.234809	0.221546	1.024246
	H401	H	0.232214	0.221620	1.032406
	O402	O	0.290900	0.715900	0.456462
	H403	H	0.291185	0.720244	0.434827
	H404	H	0.281829	0.733614	0.449081
	O405	O	1.024139	-0.208617	1.099937
	H406	H	1.015069	-0.207399	1.100019
	H407	H	1.025569	-0.206015	1.116253
	O408	O	0.206291	-0.130822	-0.210340
	H409	H	0.231533	-0.146444	-0.213208
	H410	H	0.188829	-0.111195	-0.220232
	O411	O	0.554501	0.452241	0.459524
	H412	H	0.560402	0.458562	0.469165
	H413	H	0.561844	0.448710	0.465130
	O414	O	0.457468	0.289418	0.709161
	H415	H	0.452854	0.279179	0.725398
	H416	H	0.423620	0.292118	0.704976
	O417	O	0.476249	0.718115	0.272383
	H418	H	0.468309	0.711929	0.272030
	H419	H	0.467510	0.734619	0.256794
	O420	O	0.285250	0.539232	0.270629
	H421	H	0.272712	0.541536	0.262538
	H422	H	0.274227	0.523209	0.273128
	O423	O	0.024280	-0.107758	0.780071
	H424	H	0.024890	-0.102462	0.790799
	H425	H	0.021129	-0.108577	0.786877
	O426	O	0.450589	0.676270	0.551526
	H427	H	0.452875	0.679915	0.542634
	H428	H	0.466107	0.672626	0.547362
	O429	O	0.788925	0.970523	1.204368
	H430	H	0.785090	0.958608	1.210294
	H431	H	0.778517	0.951655	1.217227
	O432	O	0.712807	0.468419	0.281299
	H433	H	0.731056	0.480794	0.281582
	H434	H	0.711146	0.484543	0.289167
	O435	O	0.181264	0.992663	-0.068477
	H436	H	0.190061	0.993441	-0.081678
	H437	H	0.176626	0.984636	-0.083799
	O438	O	0.384632	0.384407	0.570073
	H439	H	0.381813	0.379775	0.570915
	H440	H	0.386571	0.373510	0.584612
	O441	O	-0.054467	-0.003475	-0.034794
	H442	H	-0.053615	-0.001948	-0.027425
	H443	H	-0.060820	0.001680	-0.040947
	O444	O	0.726526	0.320518	0.487658
	H445	H	0.726804	0.312441	0.497305
	H446	H	0.735337	0.312897	0.487647
	O447	O	0.041124	0.861249	1.200126
	H448	H	0.062111	0.884759	1.210315
	H449	H	0.035352	0.863586	1.205498
	O450	O	-0.144975	1.031489	1.011402
	H451	H	-0.137127	1.037341	1.021783
	H452	H	-0.144576	1.031376	1.016192
	O453	O	0.113078	0.013570	0.780619
	H454	H	0.105539	0.025925	0.790293
	H455	H	0.109658	0.008249	0.776020
	O456	O	0.068275	-0.033808	1.007120
	H457	H	0.063623	-0.040221	0.992350
	H458	H	0.071302	-0.045180	1.017560
	O459	O	0.947625	1.086210	0.002364
	H460	H	0.956914	1.087522	0.022899
	H461	H	0.961622	1.090462	0.002860
	O462	O	0.294139	0.708288	0.285800
	H463	H	0.287202	0.695832	0.281706
	H464	H	0.297676	0.707644	0.272227
	O465	O	0.975646	0.028900	0.037488
	H466	H	0.991043	0.025790	0.038601
	H467	H	0.970895	0.035984	0.038877
	O468	O	0.702600	0.357177	0.642109
	H469	H	0.723593	0.327806	0.667924
	H470	H	0.688369	0.367075	0.645720
	O471	O	0.549190	0.281684	0.580789
	H472	H	0.547231	0.290837	0.592664
	H473	H	0.549988	0.276676	0.601651
	O474	O	0.482182	0.548183	0.691675
	H475	H	0.494140	0.544539	0.696165
	H476	H	0.496344	0.544879	0.693886
	O477	O	0.500423	0.609228	1.472071
	H478	H	0.512134	0.613297	1.456886
	H479	H	0.506778	0.604663	1.461257
	O480	O	0.591245	0.453339	0.336989
	H481	H	0.575772	0.434966	0.332719
	H482	H	0.602390	0.458544	0.360563
	O483	O	0.538143	0.281686	0.334121
	H484	H	0.562303	0.292190	0.353886
	H485	H	0.548174	0.255084	0.320733
	O486	O	0.995810	-0.105220	0.856345
	H487	H	1.002032	-0.098967	0.875665
	H488	H	0.996309	-0.112130	0.847365
	O489	O	1.196627	0.818043	0.181033
	H490	H	1.199285	0.824230	0.173618
	H491	H	1.176424	0.839845	0.173247
