data_Molecule from HDF5

_cell_length_a		16.567903
_cell_length_b		16.576739
_cell_length_c		16.618858
_cell_angle_alpha	89.964357
_cell_angle_beta	89.884893
_cell_angle_gamma	90.010128
_symmetry_space_group_name_H-M	'P 1'
_symmetry_Int_Tables_number		1

loop_
	_symmetry_equiv_pos_as_xyz
	x,y,z

loop_
	_atom_site_label
	_atom_site_type_symbol
	_atom_site_fract_x
	_atom_site_fract_y
	_atom_site_fract_z
	H0	H	0.407426	0.859379	0.700390
	H1	H	0.618635	0.171362	0.697531
	H2	H	0.621815	0.861160	0.254383
	H3	H	0.408227	0.172321	0.255091
	H4	H	0.736322	0.410433	0.820455
	H5	H	0.734624	0.616233	0.134122
	H6	H	0.294447	0.619409	0.822817
	H7	H	0.292330	0.407945	0.132588
	H8	H	0.860303	0.737543	0.370333
	H9	H	0.170569	0.737242	0.583001
	H10	H	0.861419	0.291547	0.586008
	H11	H	0.172428	0.294280	0.372979
	H12	H	0.860235	0.408173	0.701175
	H13	H	0.171343	0.620269	0.699086
	H14	H	0.859236	0.620391	0.255740
	H15	H	0.169446	0.406212	0.252881
	H16	H	0.411785	0.736266	0.822372
	H17	H	0.618508	0.732902	0.135031
	H18	H	0.619665	0.295051	0.820495
	H19	H	0.408216	0.291370	0.132181
	H20	H	0.737175	0.860597	0.370553
	H21	H	0.734911	0.171584	0.580086
	H22	H	0.293572	0.858595	0.583065
	H23	H	0.291847	0.170987	0.370656
	H24	H	0.911216	0.357540	0.197027
	H25	H	0.120464	0.669907	0.200178
	H26	H	0.123634	0.360239	0.754081
	H27	H	0.910968	0.671134	0.755521
	H28	H	0.233429	0.913978	0.319416
	H29	H	0.235287	0.117332	0.634677
	H30	H	0.795034	0.120148	0.322430
	H31	H	0.793415	0.908957	0.633804
	H32	H	0.358374	0.236721	0.870857
	H33	H	0.670904	0.236027	0.080246
	H34	H	0.359179	0.794876	0.081914
	H35	H	0.674063	0.796883	0.875262
	H36	H	0.358334	0.911774	0.197518
	H37	H	0.671834	0.119236	0.195492
	H38	H	0.358750	0.119459	0.755979
	H39	H	0.672367	0.911478	0.756464
	H40	H	0.913048	0.235856	0.322204
	H41	H	0.121201	0.235659	0.634312
	H42	H	0.117017	0.796643	0.320089
	H43	H	0.910405	0.794032	0.633831
	H44	H	0.238442	0.359847	0.871282
	H45	H	0.236127	0.671097	0.083059
	H46	H	0.797077	0.357251	0.078760
	H47	H	0.796014	0.672000	0.872860
	H48	H	0.422175	0.127616	0.566387
	H49	H	0.607927	0.900503	0.568884
	H50	H	0.608119	0.129673	0.387167
	H51	H	0.424197	0.902323	0.384128
	H52	H	0.603230	0.426422	0.087668
	H53	H	0.609719	0.604153	0.864132
	H54	H	0.427692	0.603352	0.089663
	H55	H	0.425498	0.428585	0.865642
	H56	H	0.128110	0.604553	0.387480
	H57	H	0.906650	0.601178	0.560813
	H58	H	0.127017	0.426794	0.564428
	H59	H	0.903814	0.426058	0.389535
	H60	H	0.127568	0.428732	0.567153
	H61	H	0.903859	0.598951	0.570707
	H62	H	0.126259	0.603772	0.389219
	H63	H	0.903859	0.426135	0.390521
	H64	H	0.426180	0.605206	0.089743
	H65	H	0.603782	0.604894	0.865775
	H66	H	0.604904	0.423174	0.089612
	H67	H	0.429310	0.428022	0.867606
	H68	H	0.603231	0.129039	0.385225
	H69	H	0.599445	0.903762	0.568688
	H70	H	0.429982	0.126303	0.569689
	H71	H	0.432345	0.906456	0.386806
	H72	H	0.928548	0.625860	0.066491
	H73	H	0.105811	0.402710	0.065555
	H74	H	0.106207	0.627843	0.888184
	H75	H	0.932182	0.407588	0.895006
	H76	H	0.108861	0.924629	0.590370
	H77	H	0.098719	0.104410	0.368123
	H78	H	0.924596	0.103774	0.589720
	H79	H	0.927020	0.921406	0.365311
	H80	H	0.625845	0.103132	0.891526
	H81	H	0.401481	0.102939	0.071064
	H82	H	0.627411	0.923897	0.063403
	H83	H	0.401108	0.923431	0.883724
	H84	H	0.626975	0.929857	0.069209
	H85	H	0.401912	0.108493	0.062949
	H86	H	0.627296	0.102319	0.884762
	H87	H	0.404260	0.922438	0.894213
	H88	H	0.927873	0.102136	0.589015
	H89	H	0.107383	0.111474	0.363535
	H90	H	0.104855	0.929166	0.588424
	H91	H	0.921632	0.928072	0.365323
	H92	H	0.101330	0.626503	0.885919
	H93	H	0.102225	0.402479	0.067913
	H94	H	0.922865	0.626525	0.065486
	H95	H	0.919514	0.401241	0.890353
	H96	H	0.428334	0.124297	0.561386
	H97	H	0.604769	0.904530	0.561314
	H98	H	0.604649	0.127156	0.390349
	H99	H	0.425230	0.905824	0.392375
	H100	H	0.607100	0.426789	0.089029
	H101	H	0.606893	0.609811	0.863376
	H102	H	0.425466	0.602664	0.089694
	H103	H	0.427180	0.425027	0.865780
	H104	H	0.126781	0.602234	0.387172
	H105	H	0.901683	0.608428	0.566509
	H106	H	0.128541	0.425364	0.567183
	H107	H	0.904835	0.426973	0.389928
	H108	H	0.925679	0.628245	0.071054
	H109	H	0.102073	0.404546	0.063794
	H110	H	0.102646	0.625586	0.891464
	H111	H	0.930901	0.401459	0.881182
	H112	H	0.102195	0.923401	0.589858
	H113	H	0.109681	0.100032	0.366521
	H114	H	0.927578	0.105199	0.590008
	H115	H	0.929425	0.929205	0.368297
	H116	H	0.627518	0.108740	0.887816
	H117	H	0.405066	0.099274	0.062929
	H118	H	0.630307	0.922501	0.070854
	H119	H	0.406135	0.931804	0.889191
	C120	C	0.394207	0.023134	0.598464
	C121	C	0.635651	1.006433	0.598100
	C122	C	0.637294	0.025088	0.355191
	C123	C	0.393916	1.007600	0.355476
	C124	C	0.636831	0.393910	-0.014577
	C125	C	0.637858	0.636836	0.968486
	C126	C	0.394259	0.636357	-0.013039
	C127	C	0.393803	0.394045	0.968721
	C128	C	0.023972	0.636143	0.355438
	C129	C	1.007269	0.635196	0.598063
	C130	C	0.024904	0.393517	0.599874
	C131	C	1.007021	0.393624	0.356999
	C132	C	0.894138	0.522976	0.098628
	C133	C	0.135944	0.506312	0.098587
	C134	C	0.136794	0.523676	0.856198
	C135	C	0.895202	0.506746	0.856008
	C136	C	0.136587	0.894116	0.485809
	C137	C	0.137401	0.136504	0.469479
	C138	C	0.895112	0.136140	0.486400
	C139	C	0.893779	0.893693	0.469407
	C140	C	0.523499	0.136836	0.855586
	C141	C	0.506110	0.136414	0.097610
	C142	C	0.524501	0.894004	0.099343
	C143	C	0.507616	0.893967	0.856896
	C144	C	0.390405	0.906144	0.659559
	C145	C	0.637252	0.124365	0.657526
	C146	C	0.639759	0.907953	0.294736
	C147	C	0.390401	0.125164	0.295067
	C148	C	0.696514	0.391908	0.867708
	C149	C	0.695741	0.636244	0.087063
	C150	C	0.334806	0.638251	0.869251
	C151	C	0.332448	0.390041	0.085746
	C152	C	0.906886	0.696880	0.352897
	C153	C	0.124372	0.696235	0.600948
	C154	C	0.907812	0.331950	0.603645
	C155	C	0.124950	0.333634	0.354082
	C156	C	0.907666	0.389840	0.661159
	C157	C	0.124547	0.638379	0.658760
	C158	C	0.906385	0.638497	0.295905
	C159	C	0.123646	0.389471	0.294564
	C160	C	0.392917	0.696113	0.869102
	C161	C	0.637973	0.694162	0.087368
	C162	C	0.638093	0.334772	0.867585
	C163	C	0.390211	0.332161	0.085459
	C164	C	0.697399	0.907585	0.352493
	C165	C	0.694793	0.124738	0.599313
	C166	C	0.333506	0.905795	0.601186
	C167	C	0.332460	0.124539	0.352847
	C168	C	0.893011	0.404554	0.157010
	C169	C	0.138340	0.623444	0.159238
	C170	C	0.140876	0.406719	0.794987
	C171	C	0.892416	0.624164	0.795522
	C172	C	0.194605	0.894121	0.367023
	C173	C	0.196584	0.137317	0.587386
	C174	C	0.835187	0.138869	0.369232
	C175	C	0.833602	0.891239	0.586774
	C176	C	0.405562	0.196655	0.852991
	C177	C	0.623995	0.196209	0.098881
	C178	C	0.406329	0.834727	0.100658
	C179	C	0.626458	0.835827	0.855874
	C180	C	0.405783	0.892993	0.157947
	C181	C	0.624391	0.138098	0.156148
	C182	C	0.405744	0.138302	0.795840
	C183	C	0.625598	0.892560	0.796822
	C184	C	0.893651	0.196333	0.369114
	C185	C	0.139292	0.195687	0.587311
	C186	C	0.136762	0.835983	0.367240
	C187	C	0.891792	0.833775	0.586780
	C188	C	0.197972	0.406715	0.853295
	C189	C	0.195672	0.624029	0.100910
	C190	C	0.836249	0.404411	0.098377
	C191	C	0.835606	0.624641	0.854223
	C192	C	0.419744	0.104743	0.572972
	C193	C	0.610979	0.924268	0.573333
	C194	C	0.612430	0.107277	0.380277
	C195	C	0.420003	0.926147	0.380584
	C196	C	0.612262	0.418521	0.067463
	C197	C	0.613833	0.613209	0.885969
	C198	C	0.419178	0.611127	0.068465
	C199	C	0.419827	0.419716	0.887433
	C200	C	0.105743	0.610721	0.380702
	C201	C	0.925449	0.610088	0.573119
	C202	C	0.106480	0.419553	0.573813
	C203	C	0.925669	0.419144	0.382814
	C204	C	0.918679	0.605438	0.074572
	C205	C	0.110626	0.424608	0.073023
	C206	C	0.110760	0.605389	0.881479
	C207	C	0.920567	0.424782	0.881377
	C208	C	0.112278	0.918421	0.568244
	C209	C	0.112495	0.112225	0.387463
	C210	C	0.919559	0.110906	0.568305
	C211	C	0.918899	0.918823	0.387625
	C212	C	0.605548	0.111974	0.880649
	C213	C	0.424095	0.110959	0.072711
	C214	C	0.606939	0.918347	0.074935
	C215	C	0.425237	0.918752	0.881856
	Zn216	Zn	0.515042	0.014629	0.727601
	Zn217	Zn	0.515175	0.016473	0.227104
	Zn218	Zn	0.766081	0.514576	-0.023245
	Zn219	Zn	0.265246	0.514962	-0.022185
	Zn220	Zn	0.015202	0.764785	0.477330
	Zn221	Zn	0.016191	0.265442	0.478484
	Zn222	Zn	0.015988	0.515123	0.727609
	Zn223	Zn	0.014790	0.514060	0.227862
	Zn224	Zn	0.516492	0.765378	-0.022054
	Zn225	Zn	0.514850	0.265305	-0.023438
	Zn226	Zn	0.765162	0.015229	0.477640
	Zn227	Zn	0.265773	0.014798	0.477380
	N228	N	0.427366	0.980133	0.658201
	N229	N	0.601496	0.049756	0.656940
	N230	N	0.602938	0.982022	0.296351
	N231	N	0.428116	0.051486	0.296712
	N232	N	0.695762	0.428156	0.941980
	N233	N	0.696045	0.601433	0.011965
	N234	N	0.335248	0.602211	0.943599
	N235	N	0.334413	0.427645	0.012080
	N236	N	0.981062	0.695559	0.389445
	N237	N	0.050464	0.694385	0.563814
	N238	N	0.981950	0.333827	0.566439
	N239	N	0.051526	0.336049	0.392261
	N240	N	0.981394	0.427502	0.658699
	N241	N	0.050808	0.600849	0.656781
	N242	N	0.980261	0.601387	0.297396
	N243	N	0.049208	0.425797	0.295889
	N244	N	0.429107	0.695337	0.943307
	N245	N	0.603041	0.695008	0.012491
	N246	N	0.601634	0.335672	0.941903
	N247	N	0.427707	0.334619	0.011863
	N248	N	0.695988	0.981439	0.389607
	N249	N	0.694153	0.050192	0.563149
	N250	N	0.335597	0.979627	0.563681
	N251	N	0.334576	0.050593	0.389921
	N252	N	0.928291	0.479435	0.157473
	N253	N	0.101989	0.549038	0.158112
	N254	N	0.103383	0.480472	0.796752
	N255	N	0.928470	0.549684	0.796417
	N256	N	0.194948	0.929164	0.441878
	N257	N	0.195744	0.101467	0.512919
	N258	N	0.835989	0.102093	0.443263
	N259	N	0.834381	0.927608	0.512561
	N260	N	0.479976	0.196021	0.889288
	N261	N	0.549320	0.195454	0.063259
	N262	N	0.481172	0.835125	0.065004
	N263	N	0.552039	0.836625	0.892289
	N264	N	0.480622	0.928774	0.157773
	N265	N	0.549856	0.101913	0.155709
	N266	N	0.480201	0.102001	0.797020
	N267	N	0.550505	0.927875	0.797065
	N268	N	0.930193	0.194793	0.443110
	N269	N	0.103603	0.195688	0.512853
	N270	N	0.101814	0.835539	0.442193
	N271	N	0.928158	0.834842	0.512429
	N272	N	0.195624	0.480578	0.890676
	N273	N	0.194233	0.550067	0.063883
	N274	N	0.836615	0.479175	0.062977
	N275	N	0.836957	0.550429	0.891085
	O276	O	-0.201321	0.791958	0.010712
	H277	H	-0.210804	0.786572	0.028152
	H278	H	-0.217186	0.778725	0.026489
	O279	O	0.558667	0.742820	0.427019
	H280	H	0.551964	0.749166	0.421108
	H281	H	0.557269	0.738755	0.431467
	O282	O	0.514396	-0.624834	1.431979
	H283	H	0.504590	-0.626486	1.442928
	H284	H	0.501340	-0.626063	1.423373
	O285	O	0.711524	0.300230	0.673089
	H286	H	0.691883	0.320569	0.650707
	H287	H	0.709767	0.305433	0.658213
	O288	O	0.408502	0.660997	0.659622
	H289	H	0.416402	0.652006	0.657454
	H290	H	0.425130	0.658578	0.643172
	O291	O	0.564794	0.454321	0.372126
	H292	H	0.559629	0.467568	0.377210
	H293	H	0.564063	0.456991	0.374438
	O294	O	0.798194	0.048991	0.757797
	H295	H	0.798636	0.071625	0.764894
	H296	H	0.778622	0.063759	0.736182
	O297	O	0.512014	0.523168	0.628409
	H298	H	0.510745	0.522405	0.627386
	H299	H	0.528706	0.527692	0.611654
	O300	O	-0.282908	-0.279324	0.679040
	H301	H	-0.259726	-0.280883	0.703831
	H302	H	-0.271931	-0.309443	0.666289
	O303	O	0.417148	0.359276	0.387658
	H304	H	0.423051	0.359242	0.374874
	H305	H	0.409395	0.352420	0.397610
	O306	O	0.587749	0.582297	0.514281
	H307	H	0.595611	0.576150	0.521235
	H308	H	0.588753	0.575126	0.506681
	O309	O	0.606425	0.464963	0.504989
	H310	H	0.612683	0.483518	0.492792
	H311	H	0.614303	0.453318	0.500292
	O312	O	0.544249	0.740270	0.700808
	H313	H	0.569137	0.756722	0.715573
	H314	H	0.571492	0.753234	0.704337
	O315	O	0.920450	1.147756	1.007722
	H316	H	0.931360	1.155695	0.997504
	H317	H	0.910995	1.128021	1.004776
	O318	O	0.683405	0.579131	0.411844
	H319	H	0.687280	0.577691	0.401911
	H320	H	0.674154	0.599030	0.417281
	O321	O	0.109111	1.194771	0.846981
	H322	H	0.103677	1.196636	0.844926
	H323	H	0.119048	1.187528	0.841685
	O324	O	1.117626	1.210141	0.179880
	H325	H	1.117548	1.208907	0.170134
	H326	H	1.113236	1.202112	0.193809
	O327	O	-0.485255	0.510696	0.688504
	H328	H	-0.487670	0.512475	0.681950
	H329	H	-0.473842	0.529884	0.692613
	O330	O	0.021871	0.199911	0.765828
	H331	H	0.019587	0.219018	0.750650
	H332	H	0.019387	0.190563	0.784878
	O333	O	0.321033	0.320422	0.665932
	H334	H	0.303151	0.331481	0.681704
	H335	H	0.350591	0.335064	0.673635
	O336	O	1.021260	0.213890	-0.006624
	H337	H	1.031511	0.220679	-0.014534
	H338	H	1.034781	0.203684	-0.010672
	O339	O	0.802865	-0.015667	1.193994
	H340	H	0.800268	-0.006605	1.202776
	H341	H	0.793716	-0.015502	1.200766
	O342	O	-0.293255	-0.292154	0.286283
	H343	H	-0.300530	-0.312837	0.286057
	H344	H	-0.315438	-0.304477	0.306754
	O345	O	0.234258	0.961056	1.029691
	H346	H	0.231902	0.950244	1.014712
	H347	H	0.234596	0.971526	1.023449
	O348	O	-0.128167	-0.010906	0.965592
	H349	H	-0.131540	-0.026412	0.974305
	H350	H	-0.117788	-0.014736	0.949174
	O351	O	0.525413	0.453379	0.531015
	H352	H	0.525692	0.445161	0.531577
	H353	H	0.520913	0.450761	0.532124
	O354	O	-0.262541	0.725282	0.499316
	H355	H	-0.259002	0.729045	0.519081
	H356	H	-0.253902	0.746042	0.498314
	O357	O	0.041978	0.090202	0.190356
	H358	H	0.039896	0.097164	0.174247
	H359	H	0.039744	0.108881	0.203720
	O360	O	-0.190768	-0.190607	1.180000
	H361	H	-0.216647	-0.217497	1.196194
	H362	H	-0.175527	-0.157081	1.189443
	O363	O	0.224005	0.044236	0.185534
	H364	H	0.233741	0.034171	0.187572
	H365	H	0.229903	0.052512	0.187143
	O366	O	0.465265	0.457548	0.270721
	H367	H	0.452423	0.468857	0.282284
	H368	H	0.464988	0.465115	0.267620
	O369	O	0.836970	0.008000	0.001941
	H370	H	0.837002	0.001659	-0.003939
	H371	H	0.841835	-0.000125	0.000454
	O372	O	0.827936	1.198600	0.165531
	H373	H	0.849417	1.183459	0.156634
	H374	H	0.835861	1.189483	0.142182
	O375	O	0.912837	-0.063397	-0.087697
	H376	H	0.905445	-0.069366	-0.085038
	H377	H	0.908359	-0.064014	-0.065367
	O378	O	0.732781	0.303548	0.268094
	H379	H	0.685437	0.300829	0.264894
	H380	H	0.754001	0.275985	0.245028
	O381	O	-0.004962	0.909436	0.845237
	H382	H	-0.003598	0.913895	0.848379
	H383	H	-0.012733	0.912647	0.853352
	O384	O	0.832586	0.196052	0.797803
	H385	H	0.807225	0.217360	0.783227
	H386	H	0.865562	0.200495	0.809077
	O387	O	1.155514	1.152881	0.015425
	H388	H	1.163532	1.151841	0.007935
	H389	H	1.160450	1.157213	0.007672
	O390	O	0.227276	0.805325	0.904524
	H391	H	0.254996	0.772208	0.891221
	H392	H	0.215820	0.813773	0.874605
	O393	O	0.729227	0.496522	0.266582
	H394	H	0.739900	0.469059	0.251593
	H395	H	0.728371	0.482136	0.267966
	O396	O	0.228843	0.758126	0.724168
	H397	H	0.223802	0.752535	0.713896
	H398	H	0.240263	0.730631	0.704472
	O399	O	0.254466	-0.210886	1.208471
	H400	H	0.229757	-0.187525	1.179167
	H401	H	0.254413	-0.223200	1.210422
	O402	O	0.284779	0.735660	0.391581
	H403	H	0.267947	0.754800	0.401560
	H404	H	0.280871	0.737504	0.382113
	O405	O	1.021076	-0.000722	1.200293
	H406	H	1.023058	-0.019953	1.204883
	H407	H	1.009719	0.004983	1.194791
	O408	O	-0.138828	-0.121330	-0.138133
	H409	H	-0.130158	-0.104898	-0.130014
	H410	H	-0.130712	-0.108842	-0.133915
	O411	O	0.454823	0.715729	0.544982
	H412	H	0.469827	0.715576	0.548973
	H413	H	0.467224	0.720807	0.552257
	O414	O	0.708234	0.430403	0.600609
	H415	H	0.697072	0.426386	0.579324
	H416	H	0.703392	0.434414	0.574661
	O417	O	0.743083	0.559684	0.602503
	H418	H	0.761242	0.543581	0.606221
	H419	H	0.738195	0.549832	0.586619
	O420	O	0.323233	0.477756	0.446026
	H421	H	0.331040	0.467216	0.449422
	H422	H	0.328187	0.479292	0.437782
	O423	O	-0.009530	-0.180149	0.915750
	H424	H	-0.014159	-0.187066	0.927798
	H425	H	-0.003482	-0.176684	0.929353
	O426	O	0.435167	0.440739	0.484953
	H427	H	0.433015	0.438187	0.479611
	H428	H	0.438845	0.442445	0.486706
	O429	O	1.483206	0.739295	1.257284
	H430	H	1.474462	0.753913	1.246476
	H431	H	1.460571	0.751686	1.249611
	O432	O	0.734441	0.308903	0.451426
	H433	H	0.737817	0.293480	0.435448
	H434	H	0.732483	0.299921	0.431040
	O435	O	0.237823	1.084806	-0.086726
	H436	H	0.241706	1.079858	-0.106392
	H437	H	0.239122	1.080995	-0.090005
	O438	O	0.483580	0.298623	0.691812
	H439	H	0.489625	0.280686	0.714042
	H440	H	0.481357	0.309848	0.689389
	O441	O	0.225792	0.228868	0.097960
	H442	H	0.231289	0.237836	0.113448
	H443	H	0.233728	0.234143	0.085272
	O444	O	0.517782	0.592068	0.280863
	H445	H	0.509857	0.592989	0.269065
	H446	H	0.510130	0.595070	0.291793
	O447	O	0.311655	1.429100	1.271988
	H448	H	0.295945	1.429551	1.269963
	H449	H	0.317959	1.430197	1.285355
	O450	O	-0.019479	0.800513	1.191563
	H451	H	-0.022189	0.779963	1.212785
	H452	H	-0.037078	0.801047	1.176239
	O453	O	0.191927	-0.180836	1.092295
	H454	H	0.192544	-0.178750	1.075605
	H455	H	0.172621	-0.164922	1.070365
	O456	O	0.018483	0.070896	1.109458
	H457	H	0.021381	0.072461	1.119226
	H458	H	0.035267	0.077698	1.111867
	O459	O	1.023996	0.808565	-0.070310
	H460	H	1.016808	0.817403	-0.055759
	H461	H	1.036850	0.800395	-0.073462
	O462	O	0.340686	0.609503	0.497531
	H463	H	0.349525	0.602676	0.485715
	H464	H	0.332410	0.621637	0.477796
	O465	O	0.801112	0.224021	-0.045626
	H466	H	0.790546	0.230535	-0.059291
	H467	H	0.799247	0.223225	-0.060752
	O468	O	0.329161	0.495344	0.689853
	H469	H	0.317632	0.506869	0.690569
	H470	H	0.333718	0.512996	0.674742
	O471	O	0.324499	0.530429	0.366136
	H472	H	0.325432	0.542990	0.372659
	H473	H	0.318325	0.534408	0.371833
	O474	O	0.542716	0.307082	0.261482
	H475	H	0.527825	0.313155	0.245879
	H476	H	0.529963	0.306236	0.257598
	O477	O	0.293572	0.289683	1.507296
	H478	H	0.269786	0.263299	1.511815
	H479	H	0.292480	0.289359	1.550910
	O480	O	0.224278	0.103394	0.775707
	H481	H	0.220706	0.086219	0.786641
	H482	H	0.220373	0.086489	0.771156
	O483	O	0.009117	-0.057189	0.777846
	H484	H	-0.013584	-0.052922	0.769802
	H485	H	0.008004	-0.044352	0.788442
	O486	O	1.215414	-0.095571	0.780787
	H487	H	1.187936	-0.108210	0.774762
	H488	H	1.233684	-0.121006	0.754065
	O489	O	1.008590	1.093600	-0.191476
	H490	H	1.017345	1.098854	-0.195473
	H491	H	1.007516	1.102476	-0.194043
