data_Molecule from HDF5

_cell_length_a		16.142000
_cell_length_b		16.535408
_cell_length_c		16.104101
_cell_angle_alpha	89.712511
_cell_angle_beta	89.922669
_cell_angle_gamma	89.765355
_symmetry_space_group_name_H-M	'P 1'
_symmetry_Int_Tables_number		1

loop_
	_symmetry_equiv_pos_as_xyz
	x,y,z

loop_
	_atom_site_label
	_atom_site_type_symbol
	_atom_site_fract_x
	_atom_site_fract_y
	_atom_site_fract_z
	H0	H	0.398343	0.838600	0.718025
	H1	H	0.594131	0.161362	0.716802
	H2	H	0.597191	0.837984	0.287538
	H3	H	0.396964	0.160313	0.284437
	H4	H	0.709598	0.402392	0.835938
	H5	H	0.705686	0.592036	0.167448
	H6	H	0.283623	0.596503	0.835991
	H7	H	0.285311	0.403017	0.168394
	H8	H	0.835067	0.720087	0.395073
	H9	H	0.160362	0.716460	0.604460
	H10	H	0.834425	0.281307	0.607333
	H11	H	0.159789	0.280318	0.396156
	H12	H	0.831842	0.402901	0.715131
	H13	H	0.161681	0.595326	0.713996
	H14	H	0.830979	0.596802	0.289924
	H15	H	0.162106	0.403319	0.289107
	H16	H	0.391200	0.719338	0.839080
	H17	H	0.600867	0.715477	0.164246
	H18	H	0.600724	0.281445	0.837715
	H19	H	0.392682	0.279986	0.164801
	H20	H	0.715251	0.839309	0.401760
	H21	H	0.713561	0.160311	0.603167
	H22	H	0.280020	0.838939	0.604070
	H23	H	0.279190	0.160702	0.401508
	H24	H	0.896575	0.338797	0.220774
	H25	H	0.094355	0.661436	0.215557
	H26	H	0.098749	0.338685	0.784780
	H27	H	0.896107	0.659893	0.784308
	H28	H	0.208931	0.903802	0.336401
	H29	H	0.207090	0.093809	0.668385
	H30	H	0.782342	0.098735	0.336928
	H31	H	0.785026	0.902804	0.667405
	H32	H	0.333441	0.218533	0.896661
	H33	H	0.659196	0.215809	0.104930
	H34	H	0.333281	0.781417	0.105656
	H35	H	0.658790	0.781809	0.897947
	H36	H	0.331669	0.902285	0.215068
	H37	H	0.662188	0.093523	0.213180
	H38	H	0.329716	0.097274	0.790129
	H39	H	0.661502	0.904169	0.790168
	H40	H	0.892030	0.219315	0.338842
	H41	H	0.102539	0.217806	0.664263
	H42	H	0.100637	0.782956	0.337445
	H43	H	0.892679	0.779918	0.663986
	H44	H	0.214827	0.338714	0.901629
	H45	H	0.214615	0.659775	0.103267
	H46	H	0.779388	0.337836	0.104227
	H47	H	0.778265	0.659616	0.900451
	H48	H	0.400243	0.113756	0.592202
	H49	H	0.588968	0.886784	0.592054
	H50	H	0.589635	0.117285	0.397493
	H51	H	0.401667	0.882197	0.398840
	H52	H	0.581057	0.407586	0.116502
	H53	H	0.581286	0.585143	0.886778
	H54	H	0.416198	0.595319	0.117186
	H55	H	0.401563	0.403998	0.882098
	H56	H	0.110297	0.583142	0.415708
	H57	H	0.883557	0.581566	0.591429
	H58	H	0.116345	0.403407	0.594069
	H59	H	0.883549	0.413276	0.415668
	H60	H	0.112585	0.403853	0.586274
	H61	H	0.875909	0.598050	0.599850
	H62	H	0.117856	0.592652	0.396895
	H63	H	0.877249	0.407204	0.405938
	H64	H	0.398462	0.596066	0.123261
	H65	H	0.581027	0.599911	0.882391
	H66	H	0.586093	0.397822	0.120190
	H67	H	0.405726	0.411986	0.886201
	H68	H	0.579038	0.110044	0.411894
	H69	H	0.593679	0.884436	0.597358
	H70	H	0.398634	0.115674	0.596293
	H71	H	0.413524	0.889089	0.414328
	H72	H	0.897375	0.614519	0.092698
	H73	H	0.085784	0.387595	0.092965
	H74	H	0.086156	0.612805	0.907132
	H75	H	0.902933	0.383984	0.906008
	H76	H	0.082458	0.899938	0.619137
	H77	H	0.083752	0.093777	0.385498
	H78	H	0.896213	0.089296	0.621486
	H79	H	0.913096	0.906457	0.385064
	H80	H	0.610022	0.089173	0.918967
	H81	H	0.380727	0.084226	0.094734
	H82	H	0.611181	0.904138	0.082960
	H83	H	0.377780	0.907503	0.910955
	H84	H	0.613770	0.911901	0.098889
	H85	H	0.376469	0.097225	0.096160
	H86	H	0.613592	0.086207	0.902660
	H87	H	0.377985	0.905416	0.910916
	H88	H	0.913000	0.085564	0.614210
	H89	H	0.087944	0.093190	0.383937
	H90	H	0.091790	0.903064	0.621538
	H91	H	0.902215	0.903380	0.380767
	H92	H	0.088497	0.612444	0.911513
	H93	H	0.094769	0.384676	0.092686
	H94	H	0.900779	0.613777	0.097290
	H95	H	0.906906	0.385657	0.910725
	H96	H	0.403203	0.114741	0.596216
	H97	H	0.587168	0.885604	0.598173
	H98	H	0.597246	0.114235	0.415272
	H99	H	0.393482	0.884525	0.416814
	H100	H	0.592224	0.407659	0.119937
	H101	H	0.593977	0.592401	0.881261
	H102	H	0.404783	0.580880	0.116243
	H103	H	0.411675	0.403572	0.885004
	H104	H	0.115903	0.604309	0.415266
	H105	H	0.881538	0.598469	0.580133
	H106	H	0.112796	0.409925	0.591928
	H107	H	0.879398	0.401570	0.416940
	H108	H	0.903599	0.612211	0.092840
	H109	H	0.090001	0.384351	0.100337
	H110	H	0.091101	0.614443	0.907798
	H111	H	0.900190	0.384344	0.911991
	H112	H	0.085541	0.909133	0.617195
	H113	H	0.086082	0.089662	0.384951
	H114	H	0.910360	0.101415	0.621019
	H115	H	0.904407	0.913339	0.385305
	H116	H	0.616495	0.101511	0.908743
	H117	H	0.381136	0.092755	0.084140
	H118	H	0.618238	0.895377	0.096935
	H119	H	0.378568	0.906065	0.912994
	C120	C	0.372841	0.007992	0.624582
	C121	C	0.618710	0.991753	0.624548
	C122	C	0.618681	0.007742	0.379732
	C123	C	0.373569	0.991436	0.379655
	C124	C	0.617315	0.376383	0.010058
	C125	C	0.615942	0.619931	0.992433
	C126	C	0.375546	0.620730	0.010568
	C127	C	0.375960	0.377627	0.992955
	C128	C	0.005981	0.622213	0.379413
	C129	C	0.988549	0.620537	0.620917
	C130	C	0.005690	0.377350	0.622031
	C131	C	0.988432	0.378272	0.381270
	C132	C	0.872483	0.507268	0.124559
	C133	C	0.119057	0.491574	0.124491
	C134	C	0.119452	0.507684	0.879191
	C135	C	0.873422	0.490952	0.879519
	C136	C	0.117402	0.876785	0.510368
	C137	C	0.116610	0.120443	0.493356
	C138	C	0.875836	0.121671	0.510566
	C139	C	0.876129	0.878067	0.492566
	C140	C	0.504671	0.121468	0.880120
	C141	C	0.488064	0.119469	0.121498
	C142	C	0.505588	0.875975	0.123309
	C143	C	0.486973	0.878252	0.881231
	C144	C	0.376822	0.886886	0.680517
	C145	C	0.615388	0.112989	0.679330
	C146	C	0.617742	0.886397	0.324750
	C147	C	0.375847	0.112176	0.322796
	C148	C	0.672817	0.380648	0.885548
	C149	C	0.670188	0.614614	0.117259
	C150	C	0.320561	0.617987	0.885830
	C151	C	0.321340	0.381148	0.118244
	C152	C	0.883154	0.679924	0.377505
	C153	C	0.111713	0.677001	0.621975
	C154	C	0.883060	0.320495	0.624645
	C155	C	0.111220	0.320535	0.378848
	C156	C	0.881699	0.381010	0.678325
	C157	C	0.112510	0.616577	0.676451
	C158	C	0.881228	0.618688	0.325403
	C159	C	0.112295	0.381477	0.325274
	C160	C	0.374006	0.678896	0.887438
	C161	C	0.617595	0.675891	0.115833
	C162	C	0.618253	0.320686	0.886403
	C163	C	0.374909	0.320144	0.116484
	C164	C	0.675851	0.886950	0.382197
	C165	C	0.674667	0.112548	0.622790
	C166	C	0.318394	0.886841	0.623279
	C167	C	0.317235	0.112339	0.381035
	C168	C	0.875866	0.386563	0.181881
	C169	C	0.115802	0.612856	0.178998
	C170	C	0.118569	0.386847	0.823268
	C171	C	0.875548	0.611904	0.823089
	C172	C	0.172638	0.881894	0.386012
	C173	C	0.171297	0.116358	0.618150
	C174	C	0.819838	0.119664	0.386417
	C175	C	0.821519	0.881247	0.617245
	C176	C	0.381846	0.178859	0.879035
	C177	C	0.610953	0.176230	0.122637
	C178	C	0.382251	0.820123	0.124032
	C179	C	0.610287	0.821532	0.880420
	C180	C	0.381182	0.880203	0.178482
	C181	C	0.612423	0.115468	0.176506
	C182	C	0.380055	0.118520	0.825849
	C183	C	0.611640	0.882472	0.826650
	C184	C	0.874414	0.179595	0.387344
	C185	C	0.118972	0.177706	0.616227
	C186	C	0.118781	0.821696	0.386525
	C187	C	0.875161	0.820192	0.615576
	C188	C	0.176459	0.386845	0.881206
	C189	C	0.175452	0.612185	0.122623
	C190	C	0.817156	0.386358	0.124304
	C191	C	0.817019	0.611677	0.880843
	C192	C	0.394258	0.092698	0.601588
	C193	C	0.596631	0.907429	0.602271
	C194	C	0.595267	0.091937	0.401577
	C195	C	0.396360	0.907176	0.403163
	C196	C	0.593393	0.397922	0.096510
	C197	C	0.592384	0.598744	0.906004
	C198	C	0.399481	0.597515	0.096663
	C199	C	0.399506	0.400008	0.906692
	C200	C	0.092234	0.599934	0.402442
	C201	C	0.902614	0.598936	0.597339
	C202	C	0.091594	0.399283	0.597859
	C203	C	0.902298	0.400700	0.405673
	C204	C	0.894143	0.591556	0.101239
	C205	C	0.096859	0.407285	0.101874
	C206	C	0.095654	0.591485	0.902028
	C207	C	0.896640	0.406689	0.902743
	C208	C	0.093510	0.897690	0.596841
	C209	C	0.092973	0.098711	0.407255
	C210	C	0.899443	0.098866	0.596582
	C211	C	0.899634	0.901059	0.406027
	C212	C	0.591064	0.098787	0.903216
	C213	C	0.401805	0.097660	0.098448
	C214	C	0.592005	0.897464	0.099762
	C215	C	0.400466	0.899988	0.904636
	Zn216	Zn	0.495663	0.000395	0.753531
	Zn217	Zn	0.496869	-0.001796	0.249949
	Zn218	Zn	0.743407	0.498833	0.001537
	Zn219	Zn	0.248529	0.499179	0.001854
	Zn220	Zn	-0.002969	0.749407	0.500301
	Zn221	Zn	-0.002992	0.249284	0.501870
	Zn222	Zn	-0.003409	0.499284	0.749664
	Zn223	Zn	-0.003755	0.500478	0.253712
	Zn224	Zn	0.496255	0.748833	0.001866
	Zn225	Zn	0.496163	0.248530	0.001183
	Zn226	Zn	0.748359	-0.000001	0.502091
	Zn227	Zn	0.243261	-0.000584	0.502711
	N228	N	0.410009	0.963250	0.681377
	N229	N	0.581273	0.037019	0.680692
	N230	N	0.582628	0.962377	0.323228
	N231	N	0.410095	0.035881	0.321838
	N232	N	0.672420	0.414516	0.963406
	N233	N	0.669223	0.580368	0.039686
	N234	N	0.321397	0.582496	0.963227
	N235	N	0.321619	0.416169	0.040548
	N236	N	0.961676	0.682417	0.410368
	N237	N	0.033550	0.679534	0.588022
	N238	N	0.961231	0.317932	0.590398
	N239	N	0.033056	0.318324	0.412924
	N240	N	0.958952	0.415607	0.677017
	N241	N	0.035006	0.582232	0.675998
	N242	N	0.958588	0.583338	0.326425
	N243	N	0.034988	0.416738	0.326780
	N244	N	0.407596	0.680709	0.965969
	N245	N	0.584643	0.679550	0.037127
	N246	N	0.584839	0.317686	0.965080
	N247	N	0.407980	0.317777	0.037694
	N248	N	0.676998	0.963387	0.415339
	N249	N	0.676703	0.036112	0.589224
	N250	N	0.315790	0.963193	0.589192
	N251	N	0.315456	0.036148	0.415468
	N252	N	0.909548	0.462805	0.182205
	N253	N	0.081096	0.537060	0.179930
	N254	N	0.083714	0.462874	0.821731
	N255	N	0.909937	0.535816	0.822042
	N256	N	0.172273	0.915202	0.464196
	N257	N	0.169867	0.081369	0.540928
	N258	N	0.820216	0.084704	0.464012
	N259	N	0.821783	0.916476	0.539611
	N260	N	0.460344	0.180880	0.912072
	N261	N	0.532646	0.178792	0.089277
	N262	N	0.460658	0.817599	0.090471
	N263	N	0.531589	0.818775	0.913587
	N264	N	0.458859	0.914240	0.178178
	N265	N	0.535021	0.080797	0.176050
	N266	N	0.457612	0.083610	0.826207
	N267	N	0.534032	0.916981	0.826857
	N268	N	0.908930	0.180783	0.465439
	N269	N	0.085539	0.180384	0.537603
	N270	N	0.085069	0.818509	0.464752
	N271	N	0.908345	0.818188	0.536910
	N272	N	0.177077	0.462959	0.915351
	N273	N	0.177373	0.535816	0.089231
	N274	N	0.815115	0.462299	0.089061
	N275	N	0.815669	0.535294	0.915123
	O276	O	0.912090	-0.167268	1.021487
	H277	H	0.916285	-0.164235	1.026578
	H278	H	0.910225	-0.180303	1.006340
	O279	O	0.427588	0.578933	0.510136
	H280	H	0.435023	0.581777	0.505604
	H281	H	0.416643	0.576179	0.524682
	O282	O	0.486312	0.447411	0.524958
	H283	H	0.492686	0.463040	0.523381
	H284	H	0.490697	0.438173	0.517517
	O285	O	0.540882	0.538881	0.530154
	H286	H	0.553335	0.536151	0.522689
	H287	H	0.544304	0.548052	0.531315
	O288	O	0.494340	0.481309	0.592414
	H289	H	0.502911	0.485962	0.596873
	H290	H	0.501378	0.488425	0.595255
	O291	O	0.011726	-0.068375	0.999723
	H292	H	-0.000176	-0.066266	1.000800
	H293	H	0.030583	-0.072284	1.009119
	O294	O	1.127730	1.062094	-0.085245
	H295	H	1.129720	1.053337	-0.089333
	H296	H	1.138745	1.060455	-0.071906
	O297	O	1.102381	0.925450	-0.105988
	H298	H	1.101025	0.913658	-0.110490
	H299	H	1.098881	0.924348	-0.094087
	O300	O	0.586275	0.505688	0.448940
	H301	H	0.591279	0.503619	0.443192
	H302	H	0.583272	0.502331	0.439131
	O303	O	0.453038	0.440191	0.496283
	H304	H	0.453368	0.429151	0.497720
	H305	H	0.454125	0.447995	0.504064
	O306	O	0.532065	0.379742	0.562837
	H307	H	0.538158	0.383377	0.563070
	H308	H	0.543904	0.391923	0.556114
	O309	O	0.573277	0.334801	0.442025
	H310	H	0.569050	0.332358	0.444520
	H311	H	0.575137	0.331367	0.435620
	O312	O	1.014866	0.953896	1.034474
	H313	H	1.013119	0.965427	1.036231
	H314	H	1.020641	0.941761	1.035482
	O315	O	1.099855	1.085078	0.079533
	H316	H	1.098021	1.086777	0.087796
	H317	H	1.093715	1.090305	0.055517
	O318	O	0.591999	0.520022	0.488699
	H319	H	0.590935	0.508996	0.488698
	H320	H	0.581566	0.511796	0.489263
	O321	O	0.440673	0.502038	0.523206
	H322	H	0.447327	0.504882	0.518187
	H323	H	0.456255	0.497211	0.529148
	O324	O	0.136581	0.982509	1.121375
	H325	H	0.144120	0.994431	1.118634
	H326	H	0.151483	1.003425	1.124295
	O327	O	-0.124672	1.027014	0.939137
	H328	H	-0.126097	1.031383	0.938538
	H329	H	-0.127204	1.030905	0.934204
	O330	O	-0.015516	-0.071479	-0.047527
	H331	H	-0.008120	-0.076667	-0.035319
	H332	H	-0.011762	-0.052121	-0.039686
	O333	O	0.469160	0.429252	0.659901
	H334	H	0.468077	0.416462	0.655285
	H335	H	0.472289	0.430504	0.653998
	O336	O	-0.047815	0.059819	0.012017
	H337	H	-0.056594	0.050824	0.008835
	H338	H	-0.051690	0.054499	-0.009216
	O339	O	-0.077586	0.027060	-0.005345
	H340	H	-0.088525	0.022296	-0.007046
	H341	H	-0.074903	0.027942	0.005571
	O342	O	0.268429	0.885310	0.227385
	H343	H	0.270944	0.904619	0.221127
	H344	H	0.254885	0.886947	0.233635
	O345	O	0.055419	0.946739	1.018213
	H346	H	0.054808	0.928173	1.025880
	H347	H	0.061841	0.953895	1.020649
	O348	O	0.444483	0.574181	0.498277
	H349	H	0.433122	0.570101	0.512964
	H350	H	0.445299	0.571238	0.493740
	O351	O	0.489385	0.584795	0.440052
	H352	H	0.478663	0.580624	0.441757
	H353	H	0.497562	0.572893	0.431454
	O354	O	-0.042063	1.065726	-0.090816
	H355	H	-0.042822	1.065624	-0.086900
	H356	H	-0.038816	1.070897	-0.080013
	O357	O	0.619623	0.590254	0.577583
	H358	H	0.627827	0.585808	0.580301
	H359	H	0.619595	0.598827	0.563541
	O360	O	0.958597	-0.089782	1.014791
	H361	H	0.952449	-0.089732	1.021032
	H362	H	0.972050	-0.071126	1.012336
	O363	O	0.402007	0.430382	0.490660
	H364	H	0.396298	0.439028	0.490945
	H365	H	0.395650	0.418666	0.499372
	O366	O	0.573702	0.532931	0.454893
	H367	H	0.573924	0.542991	0.454097
	H368	H	0.558961	0.537149	0.459263
	O369	O	1.025669	-0.025782	0.081246
	H370	H	1.012891	-0.028403	0.073900
	H371	H	1.014667	-0.030529	0.072571
	O372	O	0.477625	0.551149	0.345067
	H373	H	0.482926	0.553355	0.356561
	H374	H	0.464635	0.551850	0.340792
	O375	O	0.946397	0.136441	0.841626
	H376	H	0.948796	0.125627	0.844839
	H377	H	0.943213	0.131452	0.818633
	O378	O	-0.060631	0.923132	0.081034
	H379	H	-0.064239	0.916784	0.074863
	H380	H	-0.055971	0.922918	0.093700
	O381	O	0.496464	0.509379	0.542732
	H382	H	0.486893	0.511582	0.543329
	H383	H	0.496184	0.506829	0.548421
	O384	O	0.991927	0.991788	0.113516
	H385	H	0.975757	0.999209	0.118012
	H386	H	0.997613	0.992435	0.119542
	O387	O	0.957361	0.179518	1.089763
	H388	H	0.952455	0.172999	1.097824
	H389	H	0.967393	0.181602	1.077300
	O390	O	0.910236	1.146534	-0.127676
	H391	H	0.905026	1.151660	-0.133845
	H392	H	0.909168	1.158540	-0.130639
	O393	O	0.461130	0.592524	0.452217
	H394	H	0.446019	0.599848	0.452170
	H395	H	0.464205	0.605846	0.453847
