data_Molecule from HDF5

_cell_length_a		16.447859
_cell_length_b		16.475184
_cell_length_c		16.557551
_cell_angle_alpha	90.136677
_cell_angle_beta	90.091371
_cell_angle_gamma	90.077291
_symmetry_space_group_name_H-M	'P 1'
_symmetry_Int_Tables_number		1

loop_
	_symmetry_equiv_pos_as_xyz
	x,y,z

loop_
	_atom_site_label
	_atom_site_type_symbol
	_atom_site_fract_x
	_atom_site_fract_y
	_atom_site_fract_z
	H0	H	0.386108	0.848902	0.709647
	H1	H	0.601764	0.161635	0.713322
	H2	H	0.593581	0.846252	0.267933
	H3	H	0.382521	0.161592	0.262169
	H4	H	0.714425	0.397502	0.830834
	H5	H	0.714073	0.608842	0.144599
	H6	H	0.268579	0.608340	0.832507
	H7	H	0.267528	0.394182	0.144278
	H8	H	0.833719	0.719865	0.387734
	H9	H	0.150669	0.725160	0.594543
	H10	H	0.834259	0.281387	0.593271
	H11	H	0.148492	0.278252	0.380240
	H12	H	0.833412	0.398124	0.708771
	H13	H	0.149561	0.609924	0.710977
	H14	H	0.835848	0.607772	0.267624
	H15	H	0.148574	0.392610	0.263025
	H16	H	0.384085	0.726001	0.832330
	H17	H	0.596872	0.725887	0.144366
	H18	H	0.599443	0.280365	0.831632
	H19	H	0.384451	0.279361	0.144840
	H20	H	0.708255	0.845416	0.386800
	H21	H	0.714051	0.163457	0.593642
	H22	H	0.272417	0.847728	0.590934
	H23	H	0.267375	0.162182	0.379086
	H24	H	0.883154	0.347946	0.212303
	H25	H	0.099497	0.659672	0.210835
	H26	H	0.101473	0.347621	0.761881
	H27	H	0.886181	0.660786	0.765967
	H28	H	0.215341	0.897970	0.331833
	H29	H	0.220761	0.116165	0.642214
	H30	H	0.768269	0.110563	0.331104
	H31	H	0.771478	0.901738	0.645075
	H32	H	0.335250	0.227753	0.880507
	H33	H	0.648538	0.228249	0.095364
	H34	H	0.334408	0.780411	0.094834
	H35	H	0.648569	0.782994	0.883629
	H36	H	0.333798	0.897809	0.209671
	H37	H	0.648960	0.111429	0.210580
	H38	H	0.335964	0.114930	0.762447
	H39	H	0.648824	0.899227	0.766822
	H40	H	0.884752	0.227185	0.331520
	H41	H	0.102689	0.230391	0.642671
	H42	H	0.098323	0.781348	0.331892
	H43	H	0.890311	0.786022	0.646201
	H44	H	0.215391	0.345950	0.880534
	H45	H	0.213696	0.660056	0.092861
	H46	H	0.770230	0.346152	0.092311
	H47	H	0.772076	0.661396	0.883973
	H48	H	0.408524	0.115260	0.568777
	H49	H	0.582771	0.893402	0.574729
	H50	H	0.585268	0.119627	0.398681
	H51	H	0.410610	0.896026	0.395458
	H52	H	0.581199	0.410083	0.100738
	H53	H	0.578946	0.595273	0.875142
	H54	H	0.405750	0.587810	0.098078
	H55	H	0.406524	0.414805	0.877931
	H56	H	0.108492	0.592510	0.395590
	H57	H	0.879134	0.596859	0.574965
	H58	H	0.103795	0.416143	0.574469
	H59	H	0.883562	0.416979	0.407716
	H60	H	0.102266	0.418648	0.574113
	H61	H	0.879697	0.590932	0.578249
	H62	H	0.108103	0.597411	0.399941
	H63	H	0.881500	0.422583	0.397829
	H64	H	0.406635	0.595409	0.100075
	H65	H	0.584542	0.594335	0.873849
	H66	H	0.584665	0.420128	0.100030
	H67	H	0.403207	0.414345	0.876737
	H68	H	0.576033	0.118914	0.393803
	H69	H	0.584407	0.890108	0.580975
	H70	H	0.402740	0.118862	0.575420
	H71	H	0.401897	0.895373	0.405291
	H72	H	0.909908	0.614737	0.079936
	H73	H	0.083661	0.388293	0.078290
	H74	H	0.075362	0.611769	0.903143
	H75	H	0.908247	0.391210	0.894300
	H76	H	0.077124	0.919842	0.597549
	H77	H	0.078369	0.086987	0.380126
	H78	H	0.901517	0.090099	0.599410
	H79	H	0.897435	0.916175	0.374975
	H80	H	0.603039	0.090837	0.902052
	H81	H	0.381810	0.085970	0.074400
	H82	H	0.603617	0.913747	0.074082
	H83	H	0.379384	0.917287	0.899874
	H84	H	0.603484	0.919097	0.077478
	H85	H	0.377819	0.093095	0.078774
	H86	H	0.603937	0.090607	0.898616
	H87	H	0.378190	0.915958	0.895874
	H88	H	0.906743	0.089740	0.597226
	H89	H	0.074917	0.091869	0.377749
	H90	H	0.080194	0.909256	0.601935
	H91	H	0.905991	0.911702	0.375511
	H92	H	0.085383	0.615817	0.902612
	H93	H	0.073636	0.391301	0.079759
	H94	H	0.902017	0.614877	0.072706
	H95	H	0.905733	0.392227	0.903852
	H96	H	0.412031	0.116556	0.578148
	H97	H	0.577697	0.893366	0.580070
	H98	H	0.577555	0.114802	0.403465
	H99	H	0.399103	0.889859	0.393864
	H100	H	0.574919	0.417985	0.096994
	H101	H	0.581368	0.590591	0.876508
	H102	H	0.399357	0.591557	0.101372
	H103	H	0.403846	0.417162	0.877674
	H104	H	0.106195	0.591399	0.401371
	H105	H	0.877534	0.596122	0.581538
	H106	H	0.103603	0.418662	0.576502
	H107	H	0.878135	0.411201	0.398765
	H108	H	0.900421	0.618889	0.082477
	H109	H	0.078019	0.392879	0.069947
	H110	H	0.078731	0.616527	0.894090
	H111	H	0.899101	0.388456	0.897010
	H112	H	0.087955	0.917966	0.601536
	H113	H	0.081283	0.091777	0.376772
	H114	H	0.904868	0.094620	0.599702
	H115	H	0.897872	0.906990	0.372521
	H116	H	0.604990	0.093743	0.900692
	H117	H	0.380611	0.094251	0.070196
	H118	H	0.605680	0.913173	0.079977
	H119	H	0.377348	0.913717	0.899743
	C120	C	0.373477	0.013502	0.607208
	C121	C	0.614502	0.996540	0.610769
	C122	C	0.611528	0.013158	0.366935
	C123	C	0.369798	0.997042	0.364850
	C124	C	0.613459	0.382539	-0.004244
	C125	C	0.613684	0.625564	0.979186
	C126	C	0.370457	0.624292	-0.003282
	C127	C	0.370615	0.381710	0.980528
	C128	C	0.002459	0.624447	0.367993
	C129	C	0.983375	0.626279	0.610691
	C130	C	-0.000254	0.383660	0.608358
	C131	C	0.984015	0.382122	0.366977
	C132	C	0.870516	0.512328	0.110277
	C133	C	0.112925	0.494110	0.109446
	C134	C	0.113478	0.511469	0.866147
	C135	C	0.871453	0.494744	0.866578
	C136	C	0.114272	0.882796	0.496672
	C137	C	0.113732	0.125568	0.480042
	C138	C	0.871323	0.124539	0.495639
	C139	C	0.869887	0.881813	0.479139
	C140	C	0.500265	0.125281	0.867184
	C141	C	0.483098	0.125487	0.108808
	C142	C	0.499973	0.882513	0.109492
	C143	C	0.482625	0.883342	0.866530
	C144	C	0.369118	0.895684	0.668566
	C145	C	0.618812	0.114619	0.672214
	C146	C	0.612590	0.893672	0.308070
	C147	C	0.365407	0.114787	0.303326
	C148	C	0.674368	0.379195	0.878250
	C149	C	0.673897	0.627637	0.097368
	C150	C	0.309149	0.626757	0.879159
	C151	C	0.308487	0.377379	0.097440
	C152	C	0.882104	0.682092	0.367638
	C153	C	0.102548	0.685870	0.613049
	C154	C	0.881273	0.322146	0.611125
	C155	C	0.101688	0.319307	0.362765
	C156	C	0.881054	0.380303	0.668671
	C157	C	0.102274	0.628019	0.670633
	C158	C	0.883097	0.625933	0.308292
	C159	C	0.101635	0.376466	0.304394
	C160	C	0.366775	0.685102	0.879140
	C161	C	0.615770	0.685914	0.097393
	C162	C	0.616924	0.320754	0.878522
	C163	C	0.366810	0.319906	0.097672
	C164	C	0.669496	0.893354	0.367090
	C165	C	0.674746	0.115425	0.612507
	C166	C	0.312517	0.895008	0.609551
	C167	C	0.307785	0.114911	0.361346
	C168	C	0.865916	0.394658	0.171460
	C169	C	0.117231	0.612407	0.170495
	C170	C	0.118439	0.394386	0.803271
	C171	C	0.868622	0.613528	0.806755
	C172	C	0.175186	0.879549	0.378958
	C173	C	0.178141	0.132091	0.595971
	C174	C	0.809174	0.128713	0.378153
	C175	C	0.811161	0.882068	0.597772
	C176	C	0.382229	0.187435	0.862938
	C177	C	0.601381	0.187651	0.113352
	C178	C	0.381638	0.821218	0.112540
	C179	C	0.601425	0.823186	0.864955
	C180	C	0.381355	0.879578	0.169890
	C181	C	0.601605	0.129307	0.170382
	C182	C	0.382974	0.131064	0.803854
	C183	C	0.601358	0.880886	0.806915
	C184	C	0.867189	0.186647	0.378439
	C185	C	0.119508	0.189285	0.596437
	C186	C	0.116788	0.821761	0.378894
	C187	C	0.870331	0.824877	0.598669
	C188	C	0.175343	0.393699	0.862238
	C189	C	0.174177	0.612628	0.111943
	C190	C	0.809777	0.393818	0.111704
	C191	C	0.811421	0.613594	0.865015
	C192	C	0.400182	0.095461	0.581430
	C193	C	0.588771	0.913887	0.585705
	C194	C	0.586775	0.096239	0.391438
	C195	C	0.396413	0.915071	0.390709
	C196	C	0.587623	0.408579	0.077869
	C197	C	0.588643	0.600613	0.896682
	C198	C	0.396418	0.598744	0.078518
	C199	C	0.396990	0.408069	0.898832
	C200	C	0.085764	0.600479	0.391946
	C201	C	0.900353	0.601569	0.585702
	C202	C	0.081870	0.410236	0.582552
	C203	C	0.902494	0.409188	0.393676
	C204	C	0.896676	0.594704	0.085481
	C205	C	0.086113	0.412313	0.083420
	C206	C	0.087296	0.593309	0.892634
	C207	C	0.896987	0.412316	0.891215
	C208	C	0.089070	0.908509	0.578757
	C209	C	0.086009	0.098014	0.399325
	C210	C	0.897168	0.098984	0.577329
	C211	C	0.893550	0.904925	0.395906
	C212	C	0.582479	0.099216	0.893157
	C213	C	0.401385	0.098758	0.082231
	C214	C	0.582609	0.908127	0.084325
	C215	C	0.399830	0.908429	0.891403
	Zn216	Zn	0.492343	0.005772	0.738311
	Zn217	Zn	0.491280	0.005134	0.237157
	Zn218	Zn	0.742597	0.503626	-0.012552
	Zn219	Zn	0.241422	0.502722	-0.011381
	Zn220	Zn	-0.006988	0.753845	0.488600
	Zn221	Zn	-0.008024	0.254251	0.488186
	Zn222	Zn	-0.008395	0.503282	0.737810
	Zn223	Zn	-0.007105	0.502928	0.239030
	Zn224	Zn	0.491029	0.754238	-0.012110
	Zn225	Zn	0.492340	0.253450	-0.012114
	Zn226	Zn	0.741497	0.005056	0.487731
	Zn227	Zn	0.243085	0.005229	0.487705
	N228	N	0.406167	0.970426	0.667317
	N229	N	0.582057	0.039664	0.671130
	N230	N	0.577435	0.969273	0.307781
	N231	N	0.402905	0.040429	0.305279
	N232	N	0.672411	0.416730	0.952234
	N233	N	0.672840	0.591126	0.022761
	N234	N	0.311314	0.589704	0.953280
	N235	N	0.310736	0.415026	0.023472
	N236	N	0.957371	0.681503	0.403866
	N237	N	0.027641	0.684880	0.576379
	N238	N	0.956229	0.323941	0.574595
	N239	N	0.027821	0.322890	0.401023
	N240	N	0.955997	0.417377	0.667207
	N241	N	0.027027	0.591783	0.669555
	N242	N	0.958844	0.590902	0.308169
	N243	N	0.027466	0.414931	0.307088
	N244	N	0.404089	0.683856	0.953341
	N245	N	0.579101	0.684800	0.022733
	N246	N	0.579864	0.322711	0.952930
	N247	N	0.404770	0.322530	0.023893
	N248	N	0.669160	0.968775	0.402779
	N249	N	0.672150	0.040888	0.574849
	N250	N	0.314933	0.969380	0.572354
	N251	N	0.310591	0.040580	0.399074
	N252	N	0.903103	0.469441	0.170844
	N253	N	0.080277	0.537649	0.169396
	N254	N	0.080716	0.468670	0.805487
	N255	N	0.905018	0.538599	0.807408
	N256	N	0.173533	0.917036	0.453193
	N257	N	0.174835	0.093467	0.522565
	N258	N	0.811453	0.091019	0.452017
	N259	N	0.810681	0.916694	0.522353
	N260	N	0.456121	0.183873	0.901752
	N261	N	0.526789	0.185622	0.076019
	N262	N	0.456441	0.822748	0.075894
	N263	N	0.526359	0.824371	0.901182
	N264	N	0.455924	0.917334	0.168010
	N265	N	0.527164	0.091431	0.167738
	N266	N	0.457234	0.093022	0.806555
	N267	N	0.526278	0.917317	0.807612
	N268	N	0.905102	0.184259	0.452572
	N269	N	0.080045	0.185411	0.523268
	N270	N	0.079843	0.823592	0.453146
	N271	N	0.905789	0.824357	0.523578
	N272	N	0.172364	0.467632	0.900624
	N273	N	0.171539	0.538059	0.074636
	N274	N	0.812338	0.468222	0.074668
	N275	N	0.812978	0.538787	0.901483
	O276	O	1.164535	0.185160	0.170519
	H277	H	1.178847	0.175955	0.143369
	H278	H	1.149261	0.179956	0.150333
	O279	O	0.419117	0.299266	0.435234
	H280	H	0.422109	0.330759	0.433671
	H281	H	0.417293	0.289174	0.414336
	O282	O	0.661234	1.521621	0.661262
	H283	H	0.675197	1.537363	0.670573
	H284	H	0.664299	1.550117	0.667031
	O285	O	0.662550	0.672957	0.296183
	H286	H	0.634633	0.655538	0.311502
	H287	H	0.657737	0.647705	0.309783
	O288	O	0.106690	-0.135232	-0.141365
	H289	H	0.122152	-0.118193	-0.159013
	H290	H	0.083910	-0.147517	-0.154015
	O291	O	1.205155	1.191836	0.002295
	H292	H	1.207728	1.193759	-0.016863
	H293	H	1.218693	1.200394	-0.005508
	O294	O	-0.309491	0.704378	-0.310325
	H295	H	-0.298569	0.701838	-0.342844
	H296	H	-0.290916	0.730968	-0.300159
	O297	O	0.298977	0.552700	0.543232
	H298	H	0.314192	0.566467	0.537579
	H299	H	0.289446	0.550051	0.540105
	O300	O	0.526667	0.536102	0.277748
	H301	H	0.542119	0.511886	0.275150
	H302	H	0.525270	0.512194	0.287791
	O303	O	0.311867	0.318418	0.672882
	H304	H	0.304624	0.325959	0.639798
	H305	H	0.310280	0.327201	0.688376
	O306	O	0.043627	1.035412	0.804856
	H307	H	0.044164	1.044814	0.810032
	H308	H	0.053145	1.031587	0.811706
	O309	O	0.862662	0.843609	0.797074
	H310	H	0.874508	0.841709	0.817559
	H311	H	0.860754	0.865358	0.802770
	O312	O	0.286291	0.482793	0.701474
	H313	H	0.290223	0.488177	0.705171
	H314	H	0.269631	0.483091	0.710532
	O315	O	-0.186667	0.182510	0.802681
	H316	H	-0.183518	0.171277	0.811189
	H317	H	-0.198316	0.171261	0.834584
	O318	O	-0.080817	1.094450	0.019037
	H319	H	-0.086045	1.101604	0.016946
	H320	H	-0.098110	1.078785	0.012750
	O321	O	0.990171	-0.145962	0.927740
	H322	H	0.994516	-0.149105	0.942727
	H323	H	1.003767	-0.148003	0.921646
	O324	O	1.517952	0.717029	0.708911
	H325	H	1.527245	0.724312	0.719694
	H326	H	1.550558	0.728818	0.721935
	O327	O	1.084115	-0.148332	0.779855
	H328	H	1.079629	-0.159916	0.771652
	H329	H	1.086714	-0.150387	0.779047
	O330	O	0.697336	-0.614320	0.459466
	H331	H	0.685136	-0.637160	0.473790
	H332	H	0.704678	-0.601114	0.483539
	O333	O	1.285242	0.709376	0.409863
	H334	H	1.284043	0.715048	0.390930
	H335	H	1.286741	0.726003	0.405064
	O336	O	1.092726	0.178985	0.925114
	H337	H	1.091696	0.158344	0.937637
	H338	H	1.079421	0.177971	0.914042
	O339	O	0.274951	0.458835	0.424936
	H340	H	0.267762	0.466979	0.436531
	H341	H	0.267255	0.446913	0.419235
	O342	O	0.789133	-0.198107	1.192699
	H343	H	0.819551	-0.205654	1.185650
	H344	H	0.767093	-0.217064	1.221002
	O345	O	-0.158491	-0.088176	0.090051
	H346	H	-0.174411	-0.090327	0.115689
	H347	H	-0.159572	-0.124533	0.083753
	O348	O	1.207882	0.030271	1.201561
	H349	H	1.208344	0.032850	1.216649
	H350	H	1.224514	0.045177	1.204585
	O351	O	0.877894	1.160153	0.099724
	H352	H	0.883816	1.162424	0.102279
	H353	H	0.884458	1.166684	0.113202
	O354	O	0.315769	0.679309	0.613828
	H355	H	0.326169	0.672095	0.610344
	H356	H	0.317498	0.665099	0.600701
	O357	O	1.054618	0.914876	1.030476
	H358	H	1.048532	0.928580	1.038804
	H359	H	1.056594	0.916369	1.020577
	O360	O	0.470740	0.706392	0.282012
	H361	H	0.470177	0.705894	0.265514
	H362	H	0.485985	0.681569	0.269269
	O363	O	0.439984	0.398261	0.280772
	H364	H	0.427448	0.420254	0.280574
	H365	H	0.434597	0.399982	0.302627
	O366	O	1.026520	0.103987	1.198134
	H367	H	1.066488	0.110630	1.200011
	H368	H	1.021535	0.122966	1.208643
	O369	O	1.101506	0.035269	0.979741
	H370	H	1.109509	0.020713	0.987216
	H371	H	1.098833	0.031363	0.980510
	O372	O	0.059218	0.860782	0.093707
	H373	H	0.048523	0.858492	0.095685
	H374	H	0.035582	0.872537	0.099105
	O375	O	-0.178282	1.033518	0.970592
	H376	H	-0.182535	1.041809	0.993474
	H377	H	-0.190814	1.024625	0.982199
	O378	O	0.929418	0.060924	0.017187
	H379	H	0.926494	0.058704	0.016431
	H380	H	0.923985	0.067047	0.029156
	O381	O	0.855836	0.080929	-0.008685
	H382	H	0.871025	0.093944	-0.000356
	H383	H	0.857804	0.066133	-0.006374
	O384	O	0.665875	0.519055	1.391701
	H385	H	0.682928	0.507650	1.373356
	H386	H	0.673871	0.505137	1.416960
	O387	O	0.694385	0.303300	0.357943
	H388	H	0.680101	0.286473	0.355273
	H389	H	0.676006	0.297292	0.393550
	O390	O	0.206528	0.027925	0.834799
	H391	H	0.211777	0.036491	0.833439
	H392	H	0.210777	0.023365	0.806802
	O393	O	0.957412	0.786094	0.207119
	H394	H	0.967383	0.778751	0.218592
	H395	H	0.964740	0.779413	0.209738
	O396	O	0.696677	0.421551	1.278106
	H397	H	0.725388	0.423714	1.264257
	H398	H	0.684101	0.392096	1.297207
	O399	O	0.558522	1.462488	1.666763
	H400	H	0.562785	1.475241	1.665003
	H401	H	0.554225	1.460564	1.669194
	O402	O	-0.042735	0.169425	1.055470
	H403	H	-0.034169	0.163074	1.058954
	H404	H	-0.052492	0.176255	1.043099
	O405	O	-1.193488	0.961302	-0.028380
	H406	H	-1.189882	0.951129	-0.015374
	H407	H	-1.183777	0.974429	-0.004267
	O408	O	0.294289	0.313408	0.515421
	H409	H	0.280996	0.293918	0.507578
	H410	H	0.315203	0.307832	0.516827
	O411	O	0.700494	0.708571	0.522490
	H412	H	0.688587	0.720411	0.507803
	H413	H	0.697150	0.715677	0.504208
	O414	O	-0.220332	0.791934	0.018535
	H415	H	-0.232586	0.767922	0.021165
	H416	H	-0.216112	0.787528	0.045893
	O417	O	1.054257	0.085189	1.024287
	H418	H	1.029283	0.086318	1.030515
	H419	H	1.051599	0.070767	1.023700
	O420	O	0.201250	0.795016	0.869394
	H421	H	0.212571	0.783237	0.843657
	H422	H	0.194287	0.787703	0.874171
	O423	O	0.016278	0.943280	0.173280
	H424	H	0.020762	0.956586	0.163343
	H425	H	0.013139	0.962592	0.175796
	O426	O	0.554911	1.712249	1.439385
	H427	H	0.533404	1.712887	1.416091
	H428	H	0.533500	1.699991	1.446106
	O429	O	0.554174	0.290551	0.539553
	H430	H	0.526974	0.283880	0.530221
	H431	H	0.535786	0.293944	0.560785
	O432	O	0.657251	0.493856	0.574804
	H433	H	0.670809	0.510453	0.589940
	H434	H	0.643969	0.482941	0.595840
	O435	O	0.278541	-0.473343	0.270921
	H436	H	0.256762	-0.472567	0.267200
	H437	H	0.270667	-0.444373	0.266702
	O438	O	1.160960	-0.085816	0.035153
	H439	H	1.152431	-0.069255	0.023445
	H440	H	1.171950	-0.090657	0.044155
	O441	O	0.482289	0.497187	0.485863
	H442	H	0.481828	0.500885	0.499977
	H443	H	0.495100	0.503637	0.496435
	O444	O	0.450722	0.539895	0.658247
	H445	H	0.457370	0.555618	0.667982
	H446	H	0.453521	0.545134	0.648404
	O447	O	0.475497	0.298834	0.689722
	H448	H	0.456430	0.323450	0.689129
	H449	H	0.470173	0.278978	0.709708
	O450	O	0.368338	0.652540	0.328871
	H451	H	0.383516	0.667155	0.323845
	H452	H	0.370642	0.641427	0.337795
	O453	O	-0.214293	0.018560	-0.220356
	H454	H	-0.215504	0.011623	-0.205437
	H455	H	-0.232115	0.022623	-0.221311
	O456	O	0.913395	-0.051673	-0.105310
	H457	H	0.918846	-0.042796	-0.091461
	H458	H	0.894771	-0.030947	-0.103879
	O459	O	0.428407	0.720835	0.560064
	H460	H	0.425235	0.723334	0.556051
	H461	H	0.428807	0.727085	0.582865
	O462	O	0.546064	0.314933	0.312928
	H463	H	0.532642	0.324168	0.299094
	H464	H	0.534189	0.309719	0.301794
	O465	O	0.968437	0.225626	-0.235037
	H466	H	0.929745	0.223143	-0.236150
	H467	H	0.971509	0.241720	-0.266636
