data_Molecule from HDF5

_cell_length_a		16.285143
_cell_length_b		16.346999
_cell_length_c		16.351069
_cell_angle_alpha	90.067485
_cell_angle_beta	89.842869
_cell_angle_gamma	90.193671
_symmetry_space_group_name_H-M	'P 1'
_symmetry_Int_Tables_number		1

loop_
	_symmetry_equiv_pos_as_xyz
	x,y,z

loop_
	_atom_site_label
	_atom_site_type_symbol
	_atom_site_fract_x
	_atom_site_fract_y
	_atom_site_fract_z
	H0	H	0.393885	0.834330	0.726286
	H1	H	0.600230	0.156577	0.725765
	H2	H	0.598481	0.834026	0.289456
	H3	H	0.394515	0.157153	0.288866
	H4	H	0.715391	0.397491	0.846090
	H5	H	0.715286	0.599147	0.169140
	H6	H	0.279281	0.598040	0.845891
	H7	H	0.279378	0.394448	0.168713
	H8	H	0.835401	0.711900	0.407900
	H9	H	0.158853	0.714250	0.610410
	H10	H	0.836025	0.276146	0.614946
	H11	H	0.157393	0.275545	0.404613
	H12	H	0.835825	0.395023	0.727748
	H13	H	0.159347	0.599088	0.725154
	H14	H	0.836316	0.598459	0.291085
	H15	H	0.158869	0.392506	0.289896
	H16	H	0.395275	0.714258	0.846439
	H17	H	0.598688	0.713781	0.168857
	H18	H	0.599692	0.279738	0.844670
	H19	H	0.393816	0.276182	0.167997
	H20	H	0.714073	0.833807	0.407205
	H21	H	0.714864	0.156881	0.609717
	H22	H	0.278401	0.833687	0.609258
	H23	H	0.278748	0.156811	0.405785
	H24	H	0.891322	0.335951	0.229535
	H25	H	0.101185	0.656589	0.227801
	H26	H	0.100601	0.335517	0.788098
	H27	H	0.895069	0.657376	0.790327
	H28	H	0.215103	0.893320	0.347769
	H29	H	0.217194	0.100824	0.669083
	H30	H	0.781765	0.095000	0.346454
	H31	H	0.778053	0.894050	0.670177
	H32	H	0.337543	0.215183	0.902559
	H33	H	0.660075	0.212953	0.106566
	H34	H	0.336536	0.776134	0.111491
	H35	H	0.660333	0.779552	0.905177
	H36	H	0.335692	0.893855	0.225855
	H37	H	0.659678	0.099165	0.224683
	H38	H	0.337219	0.099264	0.787555
	H39	H	0.659918	0.893893	0.788777
	H40	H	0.890811	0.216597	0.349263
	H41	H	0.099481	0.215094	0.669770
	H42	H	0.099936	0.776724	0.347909
	H43	H	0.891992	0.775751	0.669836
	H44	H	0.216640	0.335479	0.902527
	H45	H	0.216033	0.656883	0.109973
	H46	H	0.777574	0.335246	0.111125
	H47	H	0.782382	0.658261	0.910090
	H48	H	0.399439	0.113283	0.602081
	H49	H	0.592623	0.879818	0.597161
	H50	H	0.592073	0.109611	0.421287
	H51	H	0.401450	0.878829	0.414842
	H52	H	0.585007	0.405323	0.121260
	H53	H	0.589711	0.581376	0.894560
	H54	H	0.409013	0.585027	0.120577
	H55	H	0.419057	0.399104	0.894858
	H56	H	0.116125	0.592473	0.415408
	H57	H	0.879072	0.586610	0.607805
	H58	H	0.110320	0.406499	0.593226
	H59	H	0.883212	0.410108	0.418448
	H60	H	0.111752	0.409743	0.601003
	H61	H	0.881490	0.592820	0.596707
	H62	H	0.110386	0.587775	0.424983
	H63	H	0.881500	0.403288	0.418081
	H64	H	0.407982	0.588165	0.122160
	H65	H	0.585356	0.591226	0.893287
	H66	H	0.586480	0.400776	0.122733
	H67	H	0.397937	0.398751	0.887632
	H68	H	0.592469	0.113324	0.410954
	H69	H	0.584832	0.879286	0.603390
	H70	H	0.416032	0.108558	0.603313
	H71	H	0.410291	0.882240	0.412851
	H72	H	0.908732	0.611336	0.103202
	H73	H	0.087876	0.378391	0.107787
	H74	H	0.083880	0.607341	0.921308
	H75	H	0.908439	0.383222	0.923562
	H76	H	0.089022	0.908956	0.623429
	H77	H	0.085498	0.078400	0.398263
	H78	H	0.912815	0.092676	0.623283
	H79	H	0.906473	0.904957	0.395650
	H80	H	0.612999	0.081822	0.908855
	H81	H	0.384069	0.083560	0.095855
	H82	H	0.615470	0.908035	0.108825
	H83	H	0.381037	0.904628	0.912490
	H84	H	0.614589	0.894762	0.094847
	H85	H	0.382119	0.084551	0.100564
	H86	H	0.615794	0.093988	0.916008
	H87	H	0.383530	0.900323	0.920697
	H88	H	0.897507	0.087843	0.626176
	H89	H	0.080192	0.090661	0.394696
	H90	H	0.082241	0.906774	0.621540
	H91	H	0.907688	0.901804	0.394459
	H92	H	0.093697	0.611993	0.920077
	H93	H	0.077276	0.385169	0.096261
	H94	H	0.908050	0.609609	0.098529
	H95	H	0.901334	0.379672	0.916444
	H96	H	0.407413	0.106969	0.588037
	H97	H	0.584074	0.883239	0.594887
	H98	H	0.582638	0.108989	0.415512
	H99	H	0.406748	0.883913	0.421448
	H100	H	0.590565	0.404625	0.122328
	H101	H	0.595264	0.590193	0.890331
	H102	H	0.405325	0.585310	0.121436
	H103	H	0.406373	0.417060	0.895795
	H104	H	0.112832	0.580484	0.414874
	H105	H	0.884220	0.580750	0.598391
	H106	H	0.113880	0.401431	0.599450
	H107	H	0.883800	0.405930	0.423974
	H108	H	0.903801	0.611362	0.101047
	H109	H	0.093977	0.381276	0.092000
	H110	H	0.086747	0.612001	0.912436
	H111	H	0.910909	0.382018	0.913184
	H112	H	0.086334	0.901883	0.624438
	H113	H	0.093178	0.087749	0.391785
	H114	H	0.908502	0.077346	0.620477
	H115	H	0.904943	0.903196	0.393885
	H116	H	0.610158	0.082671	0.922582
	H117	H	0.382018	0.087963	0.096877
	H118	H	0.608391	0.912901	0.091265
	H119	H	0.385273	0.909012	0.919000
	C120	C	0.376017	0.003268	0.628926
	C121	C	0.618134	0.987389	0.628878
	C122	C	0.619082	0.003819	0.385638
	C123	C	0.375285	0.987632	0.386001
	C124	C	0.618653	0.374397	0.015458
	C125	C	0.619468	0.617826	0.999507
	C126	C	0.376333	0.617162	0.015313
	C127	C	0.376251	0.373670	0.998913
	C128	C	0.006136	0.617107	0.387945
	C129	C	0.988543	0.618166	0.630893
	C130	C	0.005362	0.374970	0.629956
	C131	C	0.988552	0.374298	0.387875
	C132	C	0.875463	0.504588	0.131375
	C133	C	0.118285	0.487438	0.129633
	C134	C	0.118870	0.504357	0.886140
	C135	C	0.876699	0.488018	0.887655
	C136	C	0.117249	0.874707	0.517051
	C137	C	0.118318	0.117527	0.500726
	C138	C	0.874958	0.117132	0.517136
	C139	C	0.874842	0.872843	0.500669
	C140	C	0.506481	0.116765	0.884973
	C141	C	0.489478	0.116720	0.127973
	C142	C	0.506106	0.874117	0.129408
	C143	C	0.489790	0.874426	0.886056
	C144	C	0.375090	0.882346	0.686946
	C145	C	0.618838	0.108577	0.686686
	C146	C	0.618081	0.882206	0.328714
	C147	C	0.375188	0.108746	0.328159
	C148	C	0.676716	0.376613	0.894190
	C149	C	0.676252	0.617881	0.121087
	C150	C	0.318196	0.617272	0.894412
	C151	C	0.317671	0.373781	0.120100
	C152	C	0.884104	0.673653	0.388485
	C153	C	0.110450	0.675685	0.630156
	C154	C	0.884094	0.316188	0.632461
	C155	C	0.109353	0.315266	0.386108
	C156	C	0.884099	0.374989	0.689024
	C157	C	0.110711	0.617982	0.686936
	C158	C	0.884586	0.617405	0.330098
	C159	C	0.109971	0.373257	0.328724
	C160	C	0.375758	0.675224	0.894672
	C161	C	0.618631	0.675252	0.120835
	C162	C	0.619188	0.318085	0.893531
	C163	C	0.375043	0.315338	0.119725
	C164	C	0.675570	0.882196	0.387213
	C165	C	0.676036	0.108702	0.629067
	C166	C	0.317276	0.882225	0.628986
	C167	C	0.317390	0.108586	0.386214
	C168	C	0.873266	0.383766	0.189862
	C169	C	0.119756	0.608396	0.188077
	C170	C	0.119689	0.383818	0.827107
	C171	C	0.876386	0.609248	0.829800
	C172	C	0.175899	0.874174	0.395736
	C173	C	0.177453	0.118935	0.621091
	C174	C	0.818809	0.115905	0.395481
	C175	C	0.816754	0.873997	0.621896
	C176	C	0.385480	0.175486	0.883969
	C177	C	0.611560	0.174469	0.127078
	C178	C	0.384844	0.815482	0.130443
	C179	C	0.611777	0.817684	0.885795
	C180	C	0.384454	0.873939	0.187463
	C181	C	0.611327	0.117757	0.185642
	C182	C	0.385472	0.117908	0.826590
	C183	C	0.611440	0.874717	0.827968
	C184	C	0.873389	0.176248	0.396896
	C185	C	0.119074	0.176106	0.621437
	C186	C	0.118462	0.816319	0.396041
	C187	C	0.873521	0.815156	0.621769
	C188	C	0.177213	0.383433	0.884465
	C189	C	0.177459	0.608398	0.129860
	C190	C	0.816635	0.383411	0.130888
	C191	C	0.820016	0.609857	0.889167
	C192	C	0.400450	0.087593	0.604727
	C193	C	0.593997	0.902658	0.605300
	C194	C	0.595745	0.088632	0.408942
	C195	C	0.399181	0.903380	0.409635
	C196	C	0.594361	0.397112	0.100188
	C197	C	0.596838	0.594371	0.914770
	C198	C	0.400420	0.593055	0.099532
	C199	C	0.400727	0.397985	0.914652
	C200	C	0.090953	0.593821	0.411424
	C201	C	0.903638	0.593978	0.607709
	C202	C	0.089921	0.398848	0.605033
	C203	C	0.904754	0.399307	0.412736
	C204	C	0.899904	0.588930	0.107839
	C205	C	0.093519	0.403409	0.105581
	C206	C	0.095076	0.588500	0.910819
	C207	C	0.900300	0.403517	0.910936
	C208	C	0.092978	0.898808	0.601257
	C209	C	0.093684	0.092824	0.416815
	C210	C	0.899144	0.092955	0.601430
	C211	C	0.899265	0.896283	0.416510
	C212	C	0.590984	0.093013	0.908869
	C213	C	0.404709	0.092441	0.104644
	C214	C	0.590822	0.898224	0.105326
	C215	C	0.405088	0.897809	0.910330
	Zn216	Zn	0.497867	-0.004912	0.757436
	Zn217	Zn	0.497891	-0.003791	0.257068
	Zn218	Zn	0.747533	0.496435	0.008915
	Zn219	Zn	0.247076	0.495250	0.007357
	Zn220	Zn	-0.002767	0.745128	0.509229
	Zn221	Zn	-0.003639	0.245769	0.509221
	Zn222	Zn	-0.002324	0.496640	0.758040
	Zn223	Zn	-0.002851	0.495881	0.259578
	Zn224	Zn	0.498467	0.745939	0.007021
	Zn225	Zn	0.497615	0.244513	0.006570
	Zn226	Zn	0.747069	-0.004330	0.508515
	Zn227	Zn	0.246626	-0.004301	0.508166
	N228	N	0.410858	0.958559	0.686872
	N229	N	0.583537	0.032056	0.686528
	N230	N	0.583987	0.958867	0.327563
	N231	N	0.410560	0.032543	0.327782
	N232	N	0.676459	0.410809	0.971034
	N233	N	0.676816	0.582621	0.044803
	N234	N	0.318441	0.581718	0.970531
	N235	N	0.318154	0.409106	0.043905
	N236	N	0.960770	0.673778	0.423634
	N237	N	0.033355	0.675908	0.596140
	N238	N	0.960571	0.316022	0.596458
	N239	N	0.033039	0.315511	0.421961
	N240	N	0.960385	0.410818	0.687397
	N241	N	0.033850	0.582999	0.687559
	N242	N	0.961416	0.582914	0.329588
	N243	N	0.033595	0.409091	0.329557
	N244	N	0.410961	0.675599	0.971059
	N245	N	0.584203	0.675374	0.044318
	N246	N	0.584105	0.316349	0.970041
	N247	N	0.410260	0.314751	0.043197
	N248	N	0.676017	0.958834	0.422040
	N249	N	0.675455	0.032536	0.593611
	N250	N	0.317741	0.958650	0.593722
	N251	N	0.317177	0.032251	0.421306
	N252	N	0.908940	0.460089	0.190406
	N253	N	0.083870	0.532169	0.188240
	N254	N	0.084164	0.459961	0.828033
	N255	N	0.910724	0.532516	0.828654
	N256	N	0.175190	0.909944	0.471873
	N257	N	0.177088	0.083175	0.544935
	N258	N	0.819592	0.080211	0.471357
	N259	N	0.817150	0.908891	0.545498
	N260	N	0.461513	0.174783	0.919707
	N261	N	0.534947	0.173831	0.092068
	N262	N	0.461564	0.815377	0.095020
	N263	N	0.534990	0.817223	0.921285
	N264	N	0.460948	0.909494	0.186922
	N265	N	0.534423	0.082510	0.186485
	N266	N	0.461685	0.082076	0.827151
	N267	N	0.534667	0.909069	0.827929
	N268	N	0.907611	0.177358	0.473759
	N269	N	0.082838	0.175269	0.545564
	N270	N	0.082901	0.816393	0.472437
	N271	N	0.909100	0.814333	0.545446
	N272	N	0.176763	0.459339	0.920617
	N273	N	0.176577	0.532282	0.093969
	N274	N	0.817663	0.459542	0.095454
	N275	N	0.820116	0.533616	0.924529
	O276	O	0.326862	0.491941	0.507899
	H277	H	0.320490	0.480749	0.498121
	H278	H	0.315152	0.499679	0.487905
	O279	O	0.384159	0.572776	0.598021
	H280	H	0.383132	0.552574	0.589272
	H281	H	0.387142	0.575423	0.610510
	O282	O	0.964113	0.171816	0.942404
	H283	H	0.981754	0.175470	0.951774
	H284	H	0.960911	0.162182	0.958282
	O285	O	0.353374	0.348373	0.644183
	H286	H	0.362133	0.349948	0.637355
	H287	H	0.363694	0.357035	0.652009
	O288	O	1.122952	1.056573	1.006373
	H289	H	1.113449	1.064684	1.025173
	H290	H	1.128922	1.072467	1.020574
	O291	O	-0.581806	0.483441	0.399600
	H292	H	-0.579757	0.494969	0.398949
	H293	H	-0.572033	0.489184	0.392869
	O294	O	0.570327	0.330018	0.546191
	H295	H	0.585554	0.312970	0.543773
	H296	H	0.558620	0.336911	0.523475
	O297	O	0.582221	0.485319	0.477668
	H298	H	0.579619	0.488155	0.488977
	H299	H	0.581986	0.483553	0.482412
	O300	O	0.552031	0.553964	0.577426
	H301	H	0.566260	0.539627	0.574701
	H302	H	0.555125	0.554066	0.597838
	O303	O	1.187605	-0.050591	0.137648
	H304	H	1.192853	-0.064800	0.123656
	H305	H	1.192181	-0.042761	0.147512
	O306	O	0.497780	0.379591	0.639895
	H307	H	0.500104	0.378915	0.646746
	H308	H	0.502889	0.379134	0.632887
	O309	O	0.451639	0.510277	0.510189
	H310	H	0.456448	0.508162	0.512479
	H311	H	0.443853	0.505916	0.515147
	O312	O	-0.138577	-0.021763	-0.161923
	H313	H	-0.126869	-0.010199	-0.164226
	H314	H	-0.127568	-0.013069	-0.174727
	O315	O	0.466974	0.576331	0.435072
	H316	H	0.466587	0.572541	0.435180
	H317	H	0.460428	0.577112	0.439668
	O318	O	-0.088392	0.975367	1.158361
	H319	H	-0.090765	0.976117	1.153811
	H320	H	-0.090725	0.975901	1.151742
	O321	O	0.509516	0.513109	0.467329
	H322	H	0.500244	0.507438	0.470475
	H323	H	0.511820	0.512654	0.465109
	O324	O	-0.169479	0.808074	0.092261
	H325	H	-0.164386	0.803842	0.076169
	H326	H	-0.165579	0.794076	0.080365
	O327	O	0.957215	1.090743	0.122188
	H328	H	0.958818	1.089897	0.120181
	H329	H	0.951154	1.070494	0.136287
	O330	O	-0.162131	-0.024945	1.167899
	H331	H	-0.175734	-0.038468	1.181851
	H332	H	-0.167876	-0.043894	1.158278
	O333	O	-0.043952	-0.108417	0.955981
	H334	H	-0.049900	-0.097382	0.941373
	H335	H	-0.031581	-0.111264	0.956052
	O336	O	0.437953	0.560555	0.333723
	H337	H	0.437920	0.565736	0.334251
	H338	H	0.425225	0.566374	0.330469
	O339	O	1.114968	0.177096	0.044083
	H340	H	1.106189	0.166249	0.067596
	H341	H	1.118923	0.185203	0.044348
	O342	O	0.047985	-0.034676	0.160432
	H343	H	0.053944	-0.034116	0.147928
	H344	H	0.054031	-0.027332	0.151360
	O345	O	1.017893	0.055236	0.906976
	H346	H	1.020674	0.053364	0.919580
	H347	H	1.022427	0.068193	0.904230
	O348	O	1.077085	1.185274	0.203515
	H349	H	1.072927	1.183604	0.226002
	H350	H	1.071794	1.176368	0.204445
	O351	O	0.338736	0.398351	0.416324
	H352	H	0.335635	0.406746	0.421646
	H353	H	0.333643	0.398836	0.421564
	O354	O	0.950112	0.126029	0.836907
	H355	H	0.952100	0.147731	0.843339
	H356	H	0.941198	0.133087	0.844461
	O357	O	0.529985	0.687248	0.527294
	H358	H	0.552821	0.692782	0.540218
	H359	H	0.533120	0.677893	0.540354
	O360	O	0.600845	0.331993	0.363378
	H361	H	0.606511	0.344046	0.361821
	H362	H	0.589761	0.323008	0.362008
	O363	O	0.123779	1.007608	0.846080
	H364	H	0.110819	1.014014	0.860404
	H365	H	0.118793	1.020633	0.851902
	O366	O	0.623732	0.395197	0.535905
	H367	H	0.629960	0.404028	0.524690
	H368	H	0.621517	0.391090	0.524955
	O369	O	-0.140141	1.011018	0.049871
	H370	H	-0.143590	0.989834	0.056052
	H371	H	-0.139422	0.998267	0.047451
	O372	O	0.525392	0.512549	0.651107
	H373	H	0.541754	0.520863	0.645212
	H374	H	0.508297	0.519307	0.645942
	O375	O	0.486859	0.540395	0.384774
	H376	H	0.484129	0.546160	0.387541
	H377	H	0.488979	0.540657	0.388421
	O378	O	1.189572	1.134616	0.140736
	H379	H	1.185111	1.127670	0.148369
	H380	H	1.185569	1.125429	0.160916
	O381	O	0.965238	-0.164053	0.161286
	H382	H	0.945539	-0.182478	0.164858
	H383	H	0.985210	-0.157980	0.154827
	O384	O	0.509072	1.631816	-0.519905
	H385	H	0.530309	1.641005	-0.517610
	H386	H	0.509984	1.632136	-0.514436
	O387	O	-0.173233	0.165748	-0.010802
	H388	H	-0.179139	0.156972	0.003862
	H389	H	-0.177610	0.170430	-0.014245
	O390	O	-0.029581	0.942152	-0.030356
	H391	H	-0.026335	0.944327	-0.015146
	H392	H	-0.026212	0.955355	-0.037529
	O393	O	1.519739	0.567973	0.528473
	H394	H	1.521536	0.574242	0.522180
	H395	H	1.520843	0.570272	0.521314
	O396	O	0.526565	0.392188	0.476196
	H397	H	0.539165	0.382121	0.463174
	H398	H	0.515316	0.408062	0.483399
	O399	O	-0.040615	0.856684	0.846602
	H400	H	-0.021882	0.843050	0.829628
	H401	H	-0.021878	0.868143	0.850420
	O402	O	0.630714	0.439449	0.353543
	H403	H	0.628210	0.432012	0.352516
	H404	H	0.630303	0.448432	0.345361
	O405	O	1.167533	0.821139	-0.115017
	H406	H	1.184994	0.820452	-0.117496
	H407	H	1.166693	0.847813	-0.121867
	O408	O	1.175038	0.905719	-0.122271
	H409	H	1.172633	0.927938	-0.131141
	H410	H	1.174609	0.906075	-0.141003
	O411	O	0.921955	-0.110654	0.990115
	H412	H	0.934488	-0.112465	0.968397
	H413	H	0.927035	-0.116228	0.975117
	O414	O	0.106802	-0.077133	1.096773
	H415	H	0.115605	-0.069550	1.086341
	H416	H	0.096735	-0.071527	1.084981
	O417	O	0.619196	0.586737	0.624412
	H418	H	0.619163	0.574911	0.622162
	H419	H	0.622201	0.573174	0.620817
