data_Molecule from HDF5

_cell_length_a		16.465276
_cell_length_b		16.482846
_cell_length_c		16.529966
_cell_angle_alpha	90.029042
_cell_angle_beta	89.985412
_cell_angle_gamma	89.925562
_symmetry_space_group_name_H-M	'P 1'
_symmetry_Int_Tables_number		1

loop_
	_symmetry_equiv_pos_as_xyz
	x,y,z

loop_
	_atom_site_label
	_atom_site_type_symbol
	_atom_site_fract_x
	_atom_site_fract_y
	_atom_site_fract_z
	H0	H	0.387601	0.845068	0.707944
	H1	H	0.600221	0.159262	0.708282
	H2	H	0.600940	0.846009	0.262669
	H3	H	0.387704	0.158368	0.264475
	H4	H	0.717209	0.394036	0.828665
	H5	H	0.714508	0.607433	0.142468
	H6	H	0.272957	0.606386	0.827678
	H7	H	0.270708	0.396240	0.140458
	H8	H	0.838576	0.725611	0.379527
	H9	H	0.152127	0.721777	0.591052
	H10	H	0.836494	0.279716	0.589841
	H11	H	0.152406	0.281942	0.381265
	H12	H	0.835838	0.394277	0.707750
	H13	H	0.151032	0.606282	0.708214
	H14	H	0.836948	0.609381	0.262999
	H15	H	0.149966	0.396181	0.262961
	H16	H	0.388250	0.723159	0.828090
	H17	H	0.598437	0.723908	0.142144
	H18	H	0.603422	0.277342	0.829634
	H19	H	0.389271	0.281171	0.141759
	H20	H	0.715570	0.845040	0.380491
	H21	H	0.718130	0.157784	0.593744
	H22	H	0.272710	0.844167	0.591707
	H23	H	0.272476	0.158507	0.381694
	H24	H	0.885343	0.345364	0.209129
	H25	H	0.101673	0.658113	0.210730
	H26	H	0.100417	0.345326	0.763921
	H27	H	0.886417	0.659339	0.763584
	H28	H	0.217543	0.894159	0.328239
	H29	H	0.214403	0.103891	0.642960
	H30	H	0.770768	0.108531	0.330013
	H31	H	0.770687	0.892685	0.641756
	H32	H	0.337734	0.225359	0.879901
	H33	H	0.651647	0.225528	0.093336
	H34	H	0.334933	0.782027	0.091004
	H35	H	0.650866	0.778398	0.879210
	H36	H	0.335900	0.896743	0.208145
	H37	H	0.650552	0.110183	0.210696
	H38	H	0.337917	0.108645	0.763274
	H39	H	0.651587	0.894284	0.762527
	H40	H	0.888507	0.222569	0.328348
	H41	H	0.101400	0.223958	0.641934
	H42	H	0.104088	0.776724	0.329367
	H43	H	0.888106	0.778502	0.642310
	H44	H	0.215637	0.345298	0.880462
	H45	H	0.216665	0.659144	0.094323
	H46	H	0.770707	0.345356	0.091320
	H47	H	0.773923	0.660476	0.882725
	H48	H	0.403069	0.116605	0.577857
	H49	H	0.582165	0.891360	0.569520
	H50	H	0.579927	0.116729	0.389684
	H51	H	0.413122	0.888613	0.389147
	H52	H	0.581435	0.411386	0.097718
	H53	H	0.578997	0.583800	0.876395
	H54	H	0.397349	0.597523	0.101847
	H55	H	0.413189	0.412068	0.874139
	H56	H	0.103255	0.582755	0.401311
	H57	H	0.883136	0.585969	0.573640
	H58	H	0.108625	0.412503	0.581199
	H59	H	0.880189	0.409792	0.398901
	H60	H	0.106873	0.408686	0.571071
	H61	H	0.879551	0.590710	0.578441
	H62	H	0.107514	0.586296	0.392467
	H63	H	0.881252	0.415096	0.398128
	H64	H	0.401973	0.584612	0.097226
	H65	H	0.577791	0.598733	0.871376
	H66	H	0.584824	0.416641	0.096682
	H67	H	0.400814	0.410000	0.869277
	H68	H	0.575191	0.110111	0.404105
	H69	H	0.586852	0.887278	0.576352
	H70	H	0.409286	0.112016	0.575226
	H71	H	0.409783	0.891647	0.405449
	H72	H	0.907955	0.613406	0.074239
	H73	H	0.085392	0.389232	0.072713
	H74	H	0.079422	0.615178	0.892804
	H75	H	0.910566	0.389027	0.889074
	H76	H	0.083556	0.913300	0.596789
	H77	H	0.077100	0.095043	0.373910
	H78	H	0.903807	0.090755	0.599622
	H79	H	0.906067	0.913158	0.374019
	H80	H	0.608977	0.090461	0.892283
	H81	H	0.379233	0.095910	0.078848
	H82	H	0.604986	0.916661	0.074625
	H83	H	0.384227	0.914361	0.902927
	H84	H	0.606911	0.912953	0.076015
	H85	H	0.383614	0.092628	0.068882
	H86	H	0.607247	0.094203	0.902721
	H87	H	0.381930	0.919854	0.891996
	H88	H	0.907127	0.087670	0.596671
	H89	H	0.089561	0.094375	0.369969
	H90	H	0.082367	0.912242	0.596451
	H91	H	0.906608	0.914836	0.375243
	H92	H	0.079428	0.612513	0.900352
	H93	H	0.079235	0.390299	0.077262
	H94	H	0.902682	0.615168	0.073268
	H95	H	0.908339	0.392926	0.904076
	H96	H	0.402751	0.113221	0.570650
	H97	H	0.578169	0.890235	0.577797
	H98	H	0.590635	0.116293	0.402401
	H99	H	0.397589	0.885389	0.395440
	H100	H	0.578987	0.416522	0.095098
	H101	H	0.591424	0.590846	0.870340
	H102	H	0.410347	0.596052	0.096522
	H103	H	0.403726	0.421959	0.874734
	H104	H	0.106473	0.592925	0.401113
	H105	H	0.881387	0.593249	0.571419
	H106	H	0.103948	0.419135	0.573399
	H107	H	0.879926	0.411979	0.393440
	H108	H	0.905463	0.615186	0.078219
	H109	H	0.079266	0.392523	0.069953
	H110	H	0.085592	0.616485	0.897671
	H111	H	0.897129	0.386272	0.895972
	H112	H	0.083426	0.911990	0.597549
	H113	H	0.084018	0.083767	0.374851
	H114	H	0.908203	0.092567	0.597442
	H115	H	0.908136	0.913529	0.374447
	H116	H	0.603761	0.083873	0.899863
	H117	H	0.383757	0.085425	0.077268
	H118	H	0.605264	0.913069	0.071947
	H119	H	0.378666	0.907872	0.893281
	C120	C	0.372853	0.009938	0.606877
	C121	C	0.615885	0.993304	0.607558
	C122	C	0.615245	0.011022	0.365204
	C123	C	0.373203	0.992528	0.364656
	C124	C	0.616126	0.380386	-0.006050
	C125	C	0.614764	0.623770	0.976641
	C126	C	0.371431	0.624428	-0.005627
	C127	C	0.373303	0.381990	0.976325
	C128	C	0.002549	0.622344	0.364707
	C129	C	0.985445	0.622661	0.607210
	C130	C	0.002306	0.380163	0.607324
	C131	C	0.984899	0.380194	0.364374
	C132	C	0.871842	0.510984	0.107786
	C133	C	0.114521	0.493920	0.107180
	C134	C	0.114419	0.510834	0.864712
	C135	C	0.872139	0.493313	0.864306
	C136	C	0.116670	0.879137	0.493587
	C137	C	0.116141	0.122938	0.476799
	C138	C	0.873205	0.123083	0.494530
	C139	C	0.873552	0.880440	0.477654
	C140	C	0.503017	0.123183	0.864982
	C141	C	0.485769	0.124568	0.108052
	C142	C	0.501647	0.881472	0.106881
	C143	C	0.485698	0.880689	0.863783
	C144	C	0.369898	0.892150	0.667945
	C145	C	0.618901	0.111643	0.668346
	C146	C	0.618754	0.893098	0.303681
	C147	C	0.369865	0.111440	0.304771
	C148	C	0.677315	0.376575	0.876125
	C149	C	0.674703	0.626181	0.095083
	C150	C	0.312096	0.625686	0.875271
	C151	C	0.311761	0.378393	0.093987
	C152	C	0.885064	0.684931	0.361320
	C153	C	0.104475	0.682203	0.609380
	C154	C	0.883684	0.319716	0.608704
	C155	C	0.104201	0.321025	0.362174
	C156	C	0.883641	0.376856	0.667442
	C157	C	0.103964	0.625005	0.667933
	C158	C	0.884335	0.626919	0.303753
	C159	C	0.103054	0.377753	0.303321
	C160	C	0.369580	0.683708	0.875470
	C161	C	0.617049	0.684174	0.094971
	C162	C	0.620413	0.318214	0.876540
	C163	C	0.370714	0.321383	0.094555
	C164	C	0.675860	0.892607	0.362094
	C165	C	0.677728	0.110853	0.611657
	C166	C	0.312580	0.891684	0.609919
	C167	C	0.312670	0.111208	0.363049
	C168	C	0.867946	0.392534	0.168494
	C169	C	0.118859	0.611144	0.169938
	C170	C	0.117939	0.392485	0.804155
	C171	C	0.868953	0.612025	0.803884
	C172	C	0.177495	0.876142	0.375722
	C173	C	0.175267	0.123788	0.595575
	C174	C	0.811730	0.126127	0.376736
	C175	C	0.811318	0.875716	0.594774
	C176	C	0.384805	0.184626	0.861775
	C177	C	0.604125	0.185524	0.111344
	C178	C	0.382645	0.822057	0.108968
	C179	C	0.603736	0.819015	0.861129
	C180	C	0.383126	0.879277	0.167503
	C181	C	0.603505	0.128385	0.170001
	C182	C	0.384877	0.126602	0.804050
	C183	C	0.604165	0.876726	0.803008
	C184	C	0.869953	0.183375	0.376144
	C185	C	0.119025	0.183305	0.594923
	C186	C	0.120861	0.817513	0.376300
	C187	C	0.870026	0.818713	0.595169
	C188	C	0.175235	0.392496	0.862225
	C189	C	0.176200	0.611766	0.111725
	C190	C	0.810874	0.392572	0.109841
	C191	C	0.812868	0.612699	0.863080
	C192	C	0.397848	0.092638	0.581770
	C193	C	0.590022	0.911069	0.581865
	C194	C	0.589350	0.093138	0.391196
	C195	C	0.399412	0.910016	0.389528
	C196	C	0.589404	0.407072	0.075225
	C197	C	0.589868	0.598310	0.894166
	C198	C	0.396103	0.599727	0.077072
	C199	C	0.398623	0.407459	0.894142
	C200	C	0.084508	0.595071	0.390799
	C201	C	0.902885	0.597497	0.581787
	C202	C	0.084934	0.405959	0.582217
	C203	C	0.902065	0.404971	0.389657
	C204	C	0.897874	0.593137	0.082574
	C205	C	0.088936	0.412023	0.080719
	C206	C	0.088838	0.593320	0.889874
	C207	C	0.897770	0.410843	0.889275
	C208	C	0.090487	0.905174	0.575648
	C209	C	0.090942	0.098189	0.394439
	C210	C	0.898906	0.097601	0.576542
	C211	C	0.899513	0.906531	0.396031
	C212	C	0.585205	0.097078	0.890918
	C213	C	0.403607	0.098782	0.082122
	C214	C	0.584139	0.906863	0.081452
	C215	C	0.403113	0.906636	0.888919
	Zn216	Zn	0.494554	0.002069	0.735500
	Zn217	Zn	0.494271	0.002507	0.236326
	Zn218	Zn	0.743759	0.502816	-0.014692
	Zn219	Zn	0.243403	0.502758	-0.014437
	Zn220	Zn	-0.005108	0.751194	0.485560
	Zn221	Zn	-0.005424	0.251767	0.485611
	Zn222	Zn	-0.006782	0.501777	0.736143
	Zn223	Zn	-0.006771	0.501796	0.235877
	Zn224	Zn	0.493052	0.752204	-0.014558
	Zn225	Zn	0.494636	0.252617	-0.014357
	Zn226	Zn	0.744268	0.001823	0.486094
	Zn227	Zn	0.244625	0.000836	0.485470
	N228	N	0.406761	0.966931	0.666314
	N229	N	0.581444	0.037435	0.666055
	N230	N	0.581962	0.967809	0.305402
	N231	N	0.406623	0.036589	0.305560
	N232	N	0.675064	0.414424	0.950146
	N233	N	0.673364	0.589385	0.020609
	N234	N	0.312771	0.589866	0.950370
	N235	N	0.313439	0.415393	0.019709
	N236	N	0.959678	0.682032	0.398451
	N237	N	0.029569	0.680981	0.572625
	N238	N	0.958691	0.321466	0.572401
	N239	N	0.029660	0.322303	0.399355
	N240	N	0.958453	0.413854	0.666611
	N241	N	0.028950	0.588766	0.666784
	N242	N	0.958401	0.588813	0.305751
	N243	N	0.027678	0.413493	0.304258
	N244	N	0.405493	0.683091	0.950390
	N245	N	0.580489	0.682916	0.020187
	N246	N	0.583107	0.320368	0.950788
	N247	N	0.408193	0.323332	0.020330
	N248	N	0.673880	0.966986	0.399670
	N249	N	0.676148	0.036059	0.574864
	N250	N	0.314177	0.965935	0.572666
	N251	N	0.314510	0.036183	0.399203
	N252	N	0.904979	0.467206	0.167570
	N253	N	0.080969	0.537048	0.166963
	N254	N	0.080660	0.467115	0.805489
	N255	N	0.904816	0.536643	0.804102
	N256	N	0.174892	0.913797	0.449745
	N257	N	0.173759	0.087105	0.520994
	N258	N	0.813164	0.089669	0.451490
	N259	N	0.813347	0.913292	0.520753
	N260	N	0.459275	0.182465	0.899003
	N261	N	0.529856	0.183310	0.073615
	N262	N	0.457387	0.823286	0.071915
	N263	N	0.529031	0.821484	0.898222
	N264	N	0.458330	0.915535	0.166498
	N265	N	0.528895	0.091193	0.168219
	N266	N	0.459350	0.089187	0.805783
	N267	N	0.529734	0.914417	0.804499
	N268	N	0.907557	0.181615	0.450334
	N269	N	0.082996	0.182892	0.520129
	N270	N	0.083848	0.819096	0.450877
	N271	N	0.908126	0.821414	0.521348
	N272	N	0.172983	0.467142	0.899088
	N273	N	0.173843	0.537846	0.073227
	N274	N	0.813084	0.467121	0.072971
	N275	N	0.814573	0.537874	0.899661
	O276	O	1.195811	0.205082	0.187167
	H277	H	1.186789	0.208045	0.175365
	H278	H	1.202667	0.201236	0.206450
	O279	O	0.300410	0.304753	0.677481
	H280	H	0.330228	0.299157	0.669898
	H281	H	0.278256	0.301490	0.703457
	O282	O	0.711794	1.529712	0.703383
	H283	H	0.733057	1.542547	0.721022
	H284	H	0.714566	1.519436	0.694731
	O285	O	0.696761	0.429387	0.562726
	H286	H	0.696529	0.436427	0.563497
	H287	H	0.697529	0.441331	0.541599
	O288	O	0.120112	-0.203221	-0.225269
	H289	H	0.140642	-0.217319	-0.248646
	H290	H	0.137633	-0.196900	-0.203653
	O291	O	1.025947	1.217069	0.197224
	H292	H	1.030045	1.232698	0.212990
	H293	H	1.027148	1.219791	0.197618
	O294	O	-0.322975	0.689130	-0.327624
	H295	H	-0.335818	0.700649	-0.325206
	H296	H	-0.325012	0.663142	-0.331438
	O297	O	0.549920	0.312040	0.537857
	H298	H	0.543218	0.325272	0.560123
	H299	H	0.559060	0.315949	0.516605
	O300	O	0.364093	0.688078	0.511450
	H301	H	0.363127	0.689039	0.505167
	H302	H	0.351231	0.692455	0.504540
	O303	O	0.284351	0.585410	0.468738
	H304	H	0.294056	0.584464	0.456355
	H305	H	0.267505	0.578972	0.477142
	O306	O	-0.218776	0.984335	1.196386
	H307	H	-0.206990	0.984319	1.185051
	H308	H	-0.242452	0.970130	1.216113
	O309	O	0.972804	0.934511	0.829725
	H310	H	0.991533	0.924000	0.824240
	H311	H	0.986554	0.938878	0.850642
	O312	O	0.345817	0.472649	0.697064
	H313	H	0.339416	0.482581	0.713853
	H314	H	0.337342	0.476826	0.681137
	O315	O	-0.190547	0.189681	0.799357
	H316	H	-0.203783	0.136229	0.789367
	H317	H	-0.206680	0.203423	0.828749
	O318	O	0.001759	0.873515	-0.168709
	H319	H	0.015964	0.866095	-0.175576
	H320	H	0.009759	0.862078	-0.169563
	O321	O	1.143752	0.194089	0.832040
	H322	H	1.126249	0.175069	0.834648
	H323	H	1.120213	0.184909	0.840898
	O324	O	1.513462	0.711905	0.695506
	H325	H	1.510764	0.720655	0.711271
	H326	H	1.519394	0.715709	0.682433
	O327	O	1.090697	-0.020310	0.940908
	H328	H	1.090119	-0.019554	0.939420
	H329	H	1.099833	-0.016321	0.952487
	O330	O	0.542979	-0.533943	0.559171
	H331	H	0.549752	-0.538743	0.547995
	H332	H	0.538924	-0.526723	0.573427
	O333	O	1.618301	0.692111	0.305220
	H334	H	1.612531	0.701990	0.295712
	H335	H	1.605632	0.668147	0.290590
	O336	O	0.932916	-0.007034	0.992749
	H337	H	0.922174	0.002581	0.981890
	H338	H	0.947718	-0.035912	0.993322
	O339	O	0.369930	0.488331	0.473061
	H340	H	0.370100	0.489763	0.467534
	H341	H	0.376997	0.497008	0.461810
	O342	O	0.917313	-0.199711	1.185848
	H343	H	0.919507	-0.226558	1.193755
	H344	H	0.918980	-0.210146	1.173966
	O345	O	0.082470	0.022995	-0.025502
	H346	H	0.089345	0.025963	-0.028325
	H347	H	0.080566	0.010166	-0.020990
	O348	O	1.009546	-0.048432	1.197769
	H349	H	1.017568	-0.049223	1.200344
	H350	H	1.001443	-0.048348	1.188266
	O351	O	1.008930	1.175485	0.031304
	H352	H	1.014957	1.173487	0.012800
	H353	H	0.994608	1.156361	0.021308
	O354	O	0.489393	0.511034	0.688760
	H355	H	0.485178	0.519962	0.693633
	H356	H	0.500151	0.521361	0.688539
	O357	O	0.710804	1.466919	1.273171
	H358	H	0.732045	1.456566	1.257542
	H359	H	0.714154	1.439617	1.278078
	O360	O	0.680469	0.565900	0.437011
	H361	H	0.683477	0.571474	0.440864
	H362	H	0.678048	0.588673	0.432315
	O363	O	0.352199	0.367452	0.283895
	H364	H	0.346237	0.387947	0.297331
	H365	H	0.374799	0.373039	0.298361
	O366	O	1.175555	-0.032165	1.038120
	H367	H	1.159726	-0.030389	1.054927
	H368	H	1.180079	-0.020781	1.030934
	O369	O	1.174582	0.026353	1.028396
	H370	H	1.178679	0.052025	1.030385
	H371	H	1.172779	0.031482	1.051884
	O372	O	0.171508	0.976839	-0.193518
	H373	H	0.179669	0.983429	-0.201943
	H374	H	0.165748	0.972300	-0.183164
	O375	O	0.129251	1.195301	0.992109
	H376	H	0.126394	1.213229	0.985064
	H377	H	0.115091	1.198304	0.982886
	O378	O	0.779848	0.213091	-0.037526
	H379	H	0.762644	0.238851	-0.034929
	H380	H	0.787128	0.211128	-0.031964
	O381	O	1.042712	0.048444	-0.229153
	H382	H	1.052474	0.048888	-0.235482
	H383	H	1.023457	0.056117	-0.214301
	O384	O	0.516449	0.290304	1.275194
	H385	H	0.512123	0.293719	1.287142
	H386	H	0.516696	0.266157	1.263361
	O387	O	0.542007	0.557917	0.363417
	H388	H	0.539032	0.555470	0.365915
	H389	H	0.564791	0.551099	0.360638
	O390	O	0.196206	-0.200549	0.890897
	H391	H	0.203120	-0.177765	0.886594
	H392	H	0.213643	-0.203271	0.910747
	O393	O	0.845597	0.795721	0.196316
	H394	H	0.846893	0.811577	0.179719
	H395	H	0.859173	0.798309	0.209479
	O396	O	0.714866	0.648100	1.487748
	H397	H	0.706845	0.654735	1.498563
	H398	H	0.732193	0.675843	1.477660
	O399	O	0.515798	1.660557	1.476121
	H400	H	0.521116	1.669594	1.462956
	H401	H	0.512555	1.662702	1.473995
	O402	O	0.064872	-0.194062	1.004458
	H403	H	0.070408	-0.185234	1.001320
	H404	H	0.075836	-0.208944	0.999388
	O405	O	-1.225110	1.057833	0.039047
	H406	H	-1.215852	1.063877	0.035890
	H407	H	-1.230981	1.067421	0.039360
	O408	O	0.403349	0.503552	0.685399
	H409	H	0.400841	0.478105	0.694943
	H410	H	0.398585	0.503627	0.685415
	O411	O	0.563752	0.703603	0.379354
	H412	H	0.550195	0.698629	0.376804
	H413	H	0.579860	0.709440	0.372322
	O414	O	-0.214222	0.799475	0.013801
	H415	H	-0.230222	0.792008	0.021699
	H416	H	-0.221887	0.815684	0.003314
	O417	O	0.880967	0.197178	1.106623
	H418	H	0.900096	0.186056	1.104818
	H419	H	0.898954	0.188603	1.107485
	O420	O	0.192535	1.022358	1.202337
	H421	H	0.187637	1.017529	1.211533
	H422	H	0.200257	1.030906	1.215663
	O423	O	-0.018896	0.990136	0.138271
	H424	H	-0.041682	0.992961	0.132393
	H425	H	-0.006198	0.993376	0.148722
	O426	O	0.395984	1.415538	1.341055
	H427	H	0.402699	1.393522	1.333406
	H428	H	0.397681	1.417674	1.341366
	O429	O	0.681572	0.312193	0.306389
	H430	H	0.663546	0.306425	0.333695
	H431	H	0.678647	0.305082	0.299017
	O432	O	0.436511	0.285391	0.429827
	H433	H	0.440658	0.294822	0.442208
	H434	H	0.432542	0.283264	0.442329
	O435	O	0.473922	-0.381674	0.275418
	H436	H	0.483323	-0.400587	0.274320
	H437	H	0.463736	-0.383989	0.280903
	O438	O	0.945968	-0.200782	-0.072446
	H439	H	0.954512	-0.202363	-0.092213
	H440	H	0.944561	-0.198167	-0.055084
	O441	O	0.281954	0.289521	0.510270
	H442	H	0.265261	0.278053	0.529217
	H443	H	0.285030	0.281441	0.520368
	O444	O	0.691842	0.292119	0.464536
	H445	H	0.700022	0.275017	0.473291
	H446	H	0.699945	0.302995	0.464825
	O447	O	0.292139	0.510115	0.286397
	H448	H	0.270701	0.521743	0.273900
	H449	H	0.307120	0.492261	0.305710
	O450	O	0.467669	0.292929	0.696610
	H451	H	0.480015	0.285358	0.707215
	H452	H	0.464372	0.297982	0.700769
	O453	O	-0.222124	0.027763	-0.231728
	H454	H	-0.191802	0.006119	-0.243368
	H455	H	-0.242304	0.020271	-0.265247
	O456	O	0.812265	-0.060366	-0.116637
	H457	H	0.836758	-0.038010	-0.105481
	H458	H	0.810433	-0.055675	-0.134949
	O459	O	0.304332	0.684187	0.347636
	H460	H	0.320104	0.693380	0.344634
	H461	H	0.296337	0.657015	0.360050
	O462	O	0.329467	0.639098	0.593708
	H463	H	0.325085	0.623849	0.586479
	H464	H	0.342456	0.628780	0.588627
	O465	O	0.970797	0.220680	-0.232148
	H466	H	0.952226	0.250566	-0.260785
	H467	H	0.933462	0.207205	-0.228362
