data_Molecule from HDF5

_cell_length_a		16.283597
_cell_length_b		16.320791
_cell_length_c		16.274793
_cell_angle_alpha	89.985609
_cell_angle_beta	89.983219
_cell_angle_gamma	90.133012
_symmetry_space_group_name_H-M	'P 1'
_symmetry_Int_Tables_number		1

loop_
	_symmetry_equiv_pos_as_xyz
	x,y,z

loop_
	_atom_site_label
	_atom_site_type_symbol
	_atom_site_fract_x
	_atom_site_fract_y
	_atom_site_fract_z
	H0	H	0.402382	0.836196	0.713254
	H1	H	0.598326	0.163537	0.714949
	H2	H	0.595420	0.835797	0.287994
	H3	H	0.403165	0.163880	0.286195
	H4	H	0.713546	0.402564	0.835891
	H5	H	0.714220	0.597709	0.164045
	H6	H	0.287249	0.596291	0.836036
	H7	H	0.285414	0.400410	0.163495
	H8	H	0.836639	0.714014	0.401845
	H9	H	0.163625	0.714739	0.597968
	H10	H	0.836720	0.285226	0.598522
	H11	H	0.163637	0.287641	0.402992
	H12	H	0.835490	0.403911	0.712570
	H13	H	0.164175	0.597638	0.713176
	H14	H	0.835737	0.597058	0.286614
	H15	H	0.163703	0.403335	0.286739
	H16	H	0.403430	0.712936	0.836184
	H17	H	0.598725	0.714044	0.163810
	H18	H	0.596658	0.287327	0.835529
	H19	H	0.401234	0.284303	0.163185
	H20	H	0.713533	0.836516	0.402493
	H21	H	0.714594	0.163816	0.598145
	H22	H	0.285574	0.836351	0.597166
	H23	H	0.287865	0.164881	0.404033
	H24	H	0.901616	0.336378	0.214294
	H25	H	0.096780	0.663945	0.212971
	H26	H	0.096565	0.336348	0.785804
	H27	H	0.903294	0.663803	0.786648
	H28	H	0.213400	0.903789	0.336400
	H29	H	0.212892	0.096884	0.664249
	H30	H	0.788182	0.096988	0.334958
	H31	H	0.785473	0.902088	0.663988
	H32	H	0.335540	0.213969	0.901312
	H33	H	0.663900	0.214135	0.096990
	H34	H	0.336486	0.786416	0.097289
	H35	H	0.663711	0.785866	0.901431
	H36	H	0.336206	0.902428	0.213481
	H37	H	0.664258	0.096737	0.212188
	H38	H	0.335657	0.096711	0.786801
	H39	H	0.663700	0.903131	0.786139
	H40	H	0.903025	0.214158	0.336234
	H41	H	0.098102	0.214787	0.663972
	H42	H	0.098955	0.785853	0.337087
	H43	H	0.901335	0.785289	0.663611
	H44	H	0.213642	0.336123	0.901876
	H45	H	0.214932	0.662863	0.098085
	H46	H	0.786320	0.335819	0.096847
	H47	H	0.785783	0.663056	0.902014
	H48	H	0.414048	0.115544	0.599607
	H49	H	0.594725	0.884995	0.590589
	H50	H	0.590894	0.112789	0.416046
	H51	H	0.406079	0.885922	0.412211
	H52	H	0.594714	0.404231	0.117371
	H53	H	0.596995	0.593980	0.882458
	H54	H	0.412340	0.594476	0.115729
	H55	H	0.416989	0.412714	0.887975
	H56	H	0.119514	0.595650	0.398444
	H57	H	0.885289	0.586622	0.595141
	H58	H	0.115624	0.411780	0.595398
	H59	H	0.883998	0.409185	0.407890
	H60	H	0.118818	0.403214	0.597029
	H61	H	0.881003	0.597762	0.598961
	H62	H	0.116461	0.600370	0.412233
	H63	H	0.882223	0.405992	0.403650
	H64	H	0.403403	0.596722	0.119386
	H65	H	0.592390	0.590522	0.884754
	H66	H	0.594752	0.409037	0.116720
	H67	H	0.407587	0.394068	0.879755
	H68	H	0.606126	0.120313	0.404384
	H69	H	0.594398	0.882889	0.595602
	H70	H	0.407343	0.113567	0.585392
	H71	H	0.400608	0.882364	0.404579
	H72	H	0.886900	0.622180	0.094303
	H73	H	0.094374	0.382764	0.093960
	H74	H	0.099169	0.616160	0.911411
	H75	H	0.905594	0.380074	0.895074
	H76	H	0.103971	0.910016	0.620165
	H77	H	0.095906	0.102173	0.380454
	H78	H	0.914519	0.096473	0.614992
	H79	H	0.913707	0.901857	0.384426
	H80	H	0.612468	0.090431	0.913366
	H81	H	0.379484	0.109097	0.089811
	H82	H	0.618181	0.902501	0.092502
	H83	H	0.387338	0.910354	0.916008
	H84	H	0.615743	0.908506	0.091501
	H85	H	0.389701	0.083086	0.080817
	H86	H	0.617385	0.089994	0.899231
	H87	H	0.382421	0.911784	0.898060
	H88	H	0.900195	0.097607	0.619446
	H89	H	0.099988	0.090535	0.382792
	H90	H	0.086414	0.914328	0.612789
	H91	H	0.899949	0.901989	0.380715
	H92	H	0.096389	0.619104	0.899479
	H93	H	0.091336	0.383390	0.094105
	H94	H	0.918609	0.617846	0.110389
	H95	H	0.914763	0.386472	0.909661
	H96	H	0.398803	0.119538	0.597296
	H97	H	0.590254	0.885231	0.593197
	H98	H	0.587244	0.117749	0.396475
	H99	H	0.409873	0.884204	0.403158
	H100	H	0.590162	0.405986	0.115687
	H101	H	0.591331	0.596259	0.882990
	H102	H	0.404948	0.587854	0.115853
	H103	H	0.395100	0.412762	0.882279
	H104	H	0.114494	0.586160	0.408558
	H105	H	0.884136	0.595906	0.586580
	H106	H	0.116567	0.405745	0.588544
	H107	H	0.883296	0.404003	0.408695
	H108	H	0.914140	0.608423	0.075852
	H109	H	0.092945	0.384234	0.091412
	H110	H	0.087643	0.614216	0.907053
	H111	H	0.896756	0.382677	0.911784
	H112	H	0.090090	0.896181	0.619465
	H113	H	0.088222	0.092606	0.385535
	H114	H	0.905353	0.084646	0.614693
	H115	H	0.906150	0.914101	0.385214
	H116	H	0.618621	0.102532	0.907069
	H117	H	0.381182	0.086046	0.108535
	H118	H	0.617854	0.906958	0.097350
	H119	H	0.380133	0.895322	0.906772
	C120	C	0.378046	0.008377	0.622082
	C121	C	0.621394	0.992130	0.621570
	C122	C	0.622555	0.008677	0.377934
	C123	C	0.378065	0.992155	0.378534
	C124	C	0.621184	0.378346	0.008301
	C125	C	0.621848	0.621314	0.991882
	C126	C	0.378703	0.621010	0.008750
	C127	C	0.378124	0.377916	0.991409
	C128	C	0.008310	0.621652	0.378550
	C129	C	0.991716	0.621691	0.621623
	C130	C	0.008696	0.378627	0.621653
	C131	C	0.991470	0.378996	0.378804
	C132	C	0.878211	0.507879	0.121585
	C133	C	0.121336	0.491463	0.121614
	C134	C	0.121891	0.508191	0.877981
	C135	C	0.878195	0.491809	0.878217
	C136	C	0.121495	0.879281	0.509086
	C137	C	0.121957	0.122285	0.491633
	C138	C	0.878821	0.121508	0.507953
	C139	C	0.878141	0.878116	0.491897
	C140	C	0.507699	0.121806	0.878336
	C141	C	0.491673	0.121231	0.121076
	C142	C	0.508593	0.878044	0.121477
	C143	C	0.491651	0.878189	0.878703
	C144	C	0.381039	0.885211	0.676307
	C145	C	0.618451	0.115138	0.676626
	C146	C	0.617669	0.885078	0.324571
	C147	C	0.381857	0.115201	0.323798
	C148	C	0.675608	0.381816	0.884848
	C149	C	0.676633	0.618209	0.115128
	C150	C	0.324467	0.617644	0.885254
	C151	C	0.323128	0.380123	0.114738
	C152	C	0.885209	0.676266	0.381386
	C153	C	0.115087	0.676480	0.618663
	C154	C	0.885322	0.323408	0.618920
	C155	C	0.114930	0.324908	0.381961
	C156	C	0.884603	0.382369	0.675402
	C157	C	0.115177	0.618791	0.676035
	C158	C	0.884960	0.618063	0.324207
	C159	C	0.114881	0.382374	0.324412
	C160	C	0.382144	0.675540	0.885080
	C161	C	0.619351	0.676189	0.115060
	C162	C	0.617886	0.324403	0.884583
	C163	C	0.380697	0.322479	0.114584
	C164	C	0.676115	0.885277	0.381486
	C165	C	0.676485	0.114963	0.618888
	C166	C	0.323285	0.885215	0.618494
	C167	C	0.324654	0.115656	0.382422
	C168	C	0.881218	0.384775	0.176019
	C169	C	0.118215	0.614838	0.175783
	C170	C	0.117655	0.384998	0.823652
	C171	C	0.881816	0.614777	0.823888
	C172	C	0.176045	0.882551	0.385433
	C173	C	0.175736	0.118386	0.615318
	C174	C	0.825191	0.118076	0.384417
	C175	C	0.823452	0.881349	0.615127
	C176	C	0.384639	0.176194	0.880588
	C177	C	0.615109	0.176082	0.117746
	C178	C	0.385222	0.823557	0.118494
	C179	C	0.614866	0.823424	0.880949
	C180	C	0.385213	0.881503	0.175898
	C181	C	0.615229	0.118028	0.175143
	C182	C	0.384350	0.117574	0.824183
	C183	C	0.614924	0.881701	0.823855
	C184	C	0.882441	0.175954	0.384735
	C185	C	0.118817	0.176861	0.614972
	C186	C	0.119167	0.824186	0.385699
	C187	C	0.880493	0.822994	0.614886
	C188	C	0.175691	0.384936	0.881324
	C189	C	0.176318	0.614419	0.118482
	C190	C	0.823968	0.384800	0.117910
	C191	C	0.823515	0.614392	0.881323
	C192	C	0.400246	0.094149	0.600387
	C193	C	0.599490	0.906296	0.599717
	C194	C	0.601109	0.094824	0.399281
	C195	C	0.399334	0.906361	0.400208
	C196	C	0.599425	0.399839	0.094437
	C197	C	0.600111	0.599997	0.905637
	C198	C	0.400614	0.599512	0.094793
	C199	C	0.400032	0.400045	0.905526
	C200	C	0.094619	0.600379	0.400080
	C201	C	0.905655	0.599824	0.600003
	C202	C	0.094541	0.400404	0.600153
	C203	C	0.905427	0.400171	0.400388
	C204	C	0.900154	0.594011	0.099943
	C205	C	0.099369	0.405693	0.099697
	C206	C	0.100781	0.594395	0.899646
	C207	C	0.899514	0.405265	0.899236
	C208	C	0.099819	0.900614	0.595339
	C209	C	0.100829	0.101226	0.405191
	C210	C	0.900377	0.099475	0.594219
	C211	C	0.900069	0.899529	0.405519
	C212	C	0.594052	0.100598	0.900139
	C213	C	0.405593	0.099349	0.099467
	C214	C	0.594882	0.899488	0.100000
	C215	C	0.405468	0.899524	0.900642
	Zn216	Zn	0.499896	0.000124	0.750537
	Zn217	Zn	0.499993	0.000104	0.249505
	Zn218	Zn	0.749540	0.499700	-0.000055
	Zn219	Zn	0.250078	0.499385	0.000336
	Zn220	Zn	0.000362	0.750312	0.500214
	Zn221	Zn	0.000068	0.250101	0.499828
	Zn222	Zn	-0.000137	0.500192	0.749845
	Zn223	Zn	-0.000362	0.499879	0.250046
	Zn224	Zn	0.500312	0.749752	0.000251
	Zn225	Zn	0.499558	0.250178	-0.000481
	Zn226	Zn	0.750698	0.000073	0.499717
	Zn227	Zn	0.249836	0.000629	0.500514
	N228	N	0.414694	0.962603	0.678314
	N229	N	0.584741	0.037772	0.678302
	N230	N	0.584907	0.962792	0.322270
	N231	N	0.414501	0.037519	0.321439
	N232	N	0.677698	0.414633	0.962613
	N233	N	0.678138	0.584843	0.037550
	N234	N	0.322394	0.584281	0.962927
	N235	N	0.321458	0.413949	0.037322
	N236	N	0.962988	0.678678	0.414382
	N237	N	0.037432	0.678391	0.585378
	N238	N	0.963288	0.320817	0.586213
	N239	N	0.037301	0.322727	0.415202
	N240	N	0.962126	0.415844	0.677354
	N241	N	0.037544	0.585219	0.677803
	N242	N	0.962310	0.584514	0.322529
	N243	N	0.037141	0.415156	0.322131
	N244	N	0.415195	0.677778	0.962827
	N245	N	0.585925	0.678133	0.037448
	N246	N	0.584589	0.322233	0.962417
	N247	N	0.414185	0.321078	0.037048
	N248	N	0.679177	0.963147	0.413973
	N249	N	0.678473	0.037570	0.585445
	N250	N	0.321334	0.962847	0.585649
	N251	N	0.322091	0.038111	0.415632
	N252	N	0.914255	0.462448	0.178485
	N253	N	0.084678	0.537498	0.177630
	N254	N	0.084969	0.462571	0.821642
	N255	N	0.914939	0.537329	0.821925
	N256	N	0.177672	0.915948	0.463040
	N257	N	0.177662	0.085183	0.537678
	N258	N	0.823149	0.084647	0.462155
	N259	N	0.821925	0.914829	0.537529
	N260	N	0.462312	0.178779	0.913654
	N261	N	0.537207	0.178264	0.084816
	N262	N	0.462822	0.821359	0.085466
	N263	N	0.537220	0.821370	0.914605
	N264	N	0.462987	0.914555	0.177987
	N265	N	0.537618	0.084631	0.177255
	N266	N	0.462158	0.084615	0.822504
	N267	N	0.537425	0.914979	0.822367
	N268	N	0.915039	0.178226	0.462637
	N269	N	0.086323	0.179492	0.536961
	N270	N	0.085747	0.822153	0.463535
	N271	N	0.913831	0.820960	0.537131
	N272	N	0.178536	0.462588	0.914341
	N273	N	0.178255	0.536727	0.085419
	N274	N	0.822160	0.462359	0.084780
	N275	N	0.821522	0.536816	0.914362
