data_Molecule from HDF5

_cell_length_a		16.309578
_cell_length_b		16.288115
_cell_length_c		16.184661
_cell_angle_alpha	89.766772
_cell_angle_beta	90.031825
_cell_angle_gamma	90.161231
_symmetry_space_group_name_H-M	'P 1'
_symmetry_Int_Tables_number		1

loop_
	_symmetry_equiv_pos_as_xyz
	x,y,z

loop_
	_atom_site_label
	_atom_site_type_symbol
	_atom_site_fract_x
	_atom_site_fract_y
	_atom_site_fract_z
	H0	H	0.393227	0.838089	0.712968
	H1	H	0.589767	0.166125	0.712442
	H2	H	0.587399	0.837639	0.287195
	H3	H	0.391799	0.165302	0.282475
	H4	H	0.706737	0.402913	0.834925
	H5	H	0.705369	0.599296	0.164347
	H6	H	0.277387	0.600989	0.834181
	H7	H	0.275517	0.401028	0.162980
	H8	H	0.827957	0.717944	0.398219
	H9	H	0.154265	0.717704	0.596951
	H10	H	0.828819	0.285290	0.600118
	H11	H	0.154189	0.288530	0.399509
	H12	H	0.827067	0.403951	0.712418
	H13	H	0.154418	0.601406	0.713786
	H14	H	0.827305	0.600012	0.285053
	H15	H	0.155018	0.406953	0.286549
	H16	H	0.394866	0.715765	0.834078
	H17	H	0.591115	0.715522	0.164453
	H18	H	0.589715	0.289228	0.833524
	H19	H	0.390384	0.284784	0.162353
	H20	H	0.706097	0.838873	0.400392
	H21	H	0.706975	0.165215	0.598530
	H22	H	0.275448	0.839100	0.599061
	H23	H	0.276171	0.165979	0.398320
	H24	H	0.892655	0.338641	0.214820
	H25	H	0.088055	0.667071	0.210769
	H26	H	0.087425	0.338839	0.784998
	H27	H	0.891972	0.665865	0.784065
	H28	H	0.205343	0.905544	0.335727
	H29	H	0.207554	0.102676	0.663614
	H30	H	0.776943	0.101561	0.335069
	H31	H	0.776224	0.902437	0.663629
	H32	H	0.328417	0.217780	0.897088
	H33	H	0.654203	0.217886	0.097403
	H34	H	0.327726	0.785574	0.098648
	H35	H	0.655349	0.788125	0.901126
	H36	H	0.327579	0.901635	0.213829
	H37	H	0.655651	0.099938	0.213009
	H38	H	0.327175	0.097709	0.784631
	H39	H	0.655722	0.904832	0.786153
	H40	H	0.893812	0.217544	0.334891
	H41	H	0.091377	0.217450	0.664048
	H42	H	0.089693	0.790888	0.334202
	H43	H	0.892172	0.786634	0.662890
	H44	H	0.206413	0.338933	0.898496
	H45	H	0.206971	0.665087	0.098244
	H46	H	0.775907	0.338309	0.099292
	H47	H	0.777244	0.665580	0.900605
	H48	H	0.399839	0.118823	0.591998
	H49	H	0.586269	0.886077	0.588814
	H50	H	0.577738	0.116748	0.402346
	H51	H	0.393054	0.884119	0.403753
	H52	H	0.589275	0.414053	0.115961
	H53	H	0.579522	0.585924	0.887060
	H54	H	0.392741	0.589806	0.116629
	H55	H	0.402040	0.415071	0.884404
	H56	H	0.105796	0.591683	0.408155
	H57	H	0.874325	0.593320	0.593825
	H58	H	0.108437	0.405143	0.589515
	H59	H	0.872485	0.406901	0.400542
	H60	H	0.104565	0.415036	0.588682
	H61	H	0.874046	0.598414	0.591817
	H62	H	0.109342	0.598616	0.398744
	H63	H	0.874743	0.404481	0.412510
	H64	H	0.403750	0.590123	0.114218
	H65	H	0.577367	0.604902	0.881268
	H66	H	0.575720	0.411143	0.113188
	H67	H	0.400952	0.403305	0.881201
	H68	H	0.584748	0.115963	0.414335
	H69	H	0.585514	0.884571	0.594792
	H70	H	0.400234	0.117829	0.590801
	H71	H	0.400613	0.886826	0.405419
	H72	H	0.897200	0.620477	0.096844
	H73	H	0.081731	0.386791	0.090385
	H74	H	0.089595	0.619774	0.907559
	H75	H	0.896259	0.385617	0.908157
	H76	H	0.075553	0.908775	0.614638
	H77	H	0.079866	0.097921	0.383704
	H78	H	0.903638	0.105831	0.618684
	H79	H	0.892804	0.907007	0.379803
	H80	H	0.608095	0.096320	0.906428
	H81	H	0.374213	0.095816	0.093313
	H82	H	0.610133	0.904715	0.100663
	H83	H	0.372806	0.903060	0.902340
	H84	H	0.607362	0.902780	0.086573
	H85	H	0.376925	0.095197	0.086238
	H86	H	0.606576	0.094602	0.906550
	H87	H	0.376326	0.905858	0.911583
	H88	H	0.886868	0.091530	0.619908
	H89	H	0.087799	0.100841	0.380526
	H90	H	0.087764	0.903185	0.619440
	H91	H	0.897221	0.916356	0.382934
	H92	H	0.082020	0.619088	0.900985
	H93	H	0.088147	0.384924	0.092798
	H94	H	0.901911	0.617045	0.089285
	H95	H	0.896221	0.385396	0.905771
	H96	H	0.398948	0.118627	0.590875
	H97	H	0.580891	0.886515	0.591428
	H98	H	0.590113	0.121170	0.402692
	H99	H	0.394986	0.886632	0.411090
	H100	H	0.583876	0.401170	0.117728
	H101	H	0.595057	0.595443	0.878876
	H102	H	0.398366	0.599610	0.117631
	H103	H	0.391875	0.411201	0.879840
	H104	H	0.107580	0.603149	0.409705
	H105	H	0.875952	0.594940	0.588449
	H106	H	0.108645	0.411722	0.597361
	H107	H	0.876820	0.415699	0.408542
	H108	H	0.892493	0.619183	0.088699
	H109	H	0.082233	0.384951	0.097487
	H110	H	0.081054	0.616349	0.911472
	H111	H	0.898921	0.385929	0.906263
	H112	H	0.087278	0.916881	0.615374
	H113	H	0.086531	0.091962	0.383250
	H114	H	0.906546	0.085354	0.611394
	H115	H	0.902929	0.907540	0.382711
	H116	H	0.607379	0.095602	0.904941
	H117	H	0.376413	0.088701	0.091082
	H118	H	0.605465	0.916126	0.092597
	H119	H	0.376611	0.912782	0.904022
	C120	C	0.370465	0.010494	0.620294
	C121	C	0.613361	0.993472	0.620899
	C122	C	0.612348	0.010279	0.378119
	C123	C	0.368510	0.993856	0.377057
	C124	C	0.612317	0.380602	0.007023
	C125	C	0.612709	0.623459	0.991438
	C126	C	0.370367	0.622817	0.007379
	C127	C	0.369297	0.380416	0.990226
	C128	C	-0.000614	0.625189	0.376839
	C129	C	0.982631	0.624162	0.620083
	C130	C	-0.000442	0.380962	0.621029
	C131	C	0.982540	0.381262	0.378347
	C132	C	0.868734	0.510648	0.121027
	C133	C	0.112677	0.493886	0.121540
	C134	C	0.112499	0.510616	0.877602
	C135	C	0.868744	0.493560	0.877354
	C136	C	0.112477	0.881549	0.508086
	C137	C	0.113288	0.124666	0.491477
	C138	C	0.870290	0.123787	0.507809
	C139	C	0.869271	0.881011	0.490473
	C140	C	0.499565	0.123777	0.876533
	C141	C	0.483382	0.122986	0.119790
	C142	C	0.499475	0.879065	0.121402
	C143	C	0.483353	0.879674	0.877761
	C144	C	0.372525	0.887015	0.675254
	C145	C	0.610557	0.116861	0.675447
	C146	C	0.608840	0.886781	0.324168
	C147	C	0.371443	0.116587	0.320766
	C148	C	0.668188	0.383086	0.883642
	C149	C	0.667794	0.620124	0.115043
	C150	C	0.315113	0.621270	0.883431
	C151	C	0.313619	0.381300	0.113932
	C152	C	0.876708	0.680041	0.378370
	C153	C	0.105543	0.679601	0.617863
	C154	C	0.877030	0.324410	0.619379
	C155	C	0.105445	0.326360	0.379591
	C156	C	0.876324	0.382945	0.675545
	C157	C	0.105557	0.621804	0.675688
	C158	C	0.876122	0.620911	0.322507
	C159	C	0.105890	0.385065	0.323273
	C160	C	0.373293	0.678272	0.883341
	C161	C	0.610800	0.677859	0.115159
	C162	C	0.610207	0.326430	0.882882
	C163	C	0.370819	0.323495	0.113626
	C164	C	0.667778	0.887518	0.380388
	C165	C	0.668863	0.116530	0.618890
	C166	C	0.314214	0.887547	0.618503
	C167	C	0.313756	0.116979	0.378223
	C168	C	0.872042	0.387250	0.176479
	C169	C	0.109098	0.617643	0.174542
	C170	C	0.108807	0.387489	0.822763
	C171	C	0.871268	0.616800	0.821821
	C172	C	0.167481	0.884842	0.384280
	C173	C	0.169156	0.122578	0.614796
	C174	C	0.814787	0.122137	0.384400
	C175	C	0.814537	0.882796	0.614502
	C176	C	0.376745	0.179028	0.877786
	C177	C	0.605883	0.179458	0.118294
	C178	C	0.376554	0.823592	0.118681
	C179	C	0.606609	0.825639	0.880351
	C180	C	0.376326	0.881400	0.175981
	C181	C	0.606615	0.120458	0.175079
	C182	C	0.376210	0.119423	0.822032
	C183	C	0.606774	0.883783	0.823408
	C184	C	0.872855	0.179490	0.384156
	C185	C	0.111325	0.179491	0.615078
	C186	C	0.109859	0.827829	0.383692
	C187	C	0.871929	0.825150	0.614077
	C188	C	0.167908	0.387649	0.879020
	C189	C	0.168269	0.616735	0.118519
	C190	C	0.813951	0.387351	0.119221
	C191	C	0.814076	0.616731	0.879540
	C192	C	0.393023	0.096124	0.597812
	C193	C	0.590754	0.907758	0.598500
	C194	C	0.590725	0.095882	0.399929
	C195	C	0.389749	0.908101	0.400074
	C196	C	0.589635	0.402341	0.093351
	C197	C	0.590382	0.601763	0.904619
	C198	C	0.392153	0.600072	0.093863
	C199	C	0.391641	0.403182	0.904076
	C200	C	0.085393	0.604011	0.398915
	C201	C	0.897028	0.602039	0.597844
	C202	C	0.085021	0.403921	0.598580
	C203	C	0.896861	0.402699	0.400618
	C204	C	0.890780	0.596682	0.098332
	C205	C	0.090533	0.407742	0.099907
	C206	C	0.090656	0.596291	0.900047
	C207	C	0.890548	0.407875	0.900043
	C208	C	0.090086	0.903223	0.594390
	C209	C	0.091320	0.103150	0.404902
	C210	C	0.892592	0.101005	0.594356
	C211	C	0.891268	0.903550	0.403927
	C212	C	0.585346	0.101988	0.899324
	C213	C	0.397890	0.100150	0.097038
	C214	C	0.585483	0.901278	0.099627
	C215	C	0.397441	0.900924	0.899666
	Zn216	Zn	0.491577	0.001306	0.748653
	Zn217	Zn	0.490976	0.001409	0.249044
	Zn218	Zn	0.740507	0.501732	-0.001134
	Zn219	Zn	0.241228	0.502000	-0.000943
	Zn220	Zn	-0.008889	0.753519	0.498479
	Zn221	Zn	-0.008107	0.252505	0.499844
	Zn222	Zn	-0.009493	0.502158	0.749260
	Zn223	Zn	-0.009436	0.502375	0.249477
	Zn224	Zn	0.491785	0.751092	-0.000358
	Zn225	Zn	0.491109	0.252371	-0.001805
	Zn226	Zn	0.741168	0.002493	0.499902
	Zn227	Zn	0.241040	0.002888	0.499738
	N228	N	0.406690	0.964189	0.676434
	N229	N	0.576742	0.039141	0.676866
	N230	N	0.574904	0.963965	0.322671
	N231	N	0.404715	0.039043	0.319876
	N232	N	0.669387	0.416244	0.961687
	N233	N	0.668970	0.586854	0.036948
	N234	N	0.313089	0.587440	0.961578
	N235	N	0.312447	0.415920	0.036296
	N236	N	0.954389	0.682730	0.411572
	N237	N	0.028305	0.681152	0.583992
	N238	N	0.954681	0.322896	0.586282
	N239	N	0.027996	0.323921	0.413196
	N240	N	0.953414	0.417540	0.676599
	N241	N	0.028005	0.588029	0.677289
	N242	N	0.953359	0.587545	0.321345
	N243	N	0.028388	0.418409	0.322272
	N244	N	0.406706	0.679326	0.961273
	N245	N	0.576990	0.679708	0.037226
	N246	N	0.576085	0.324652	0.960668
	N247	N	0.404908	0.322955	0.035806
	N248	N	0.670189	0.965281	0.413304
	N249	N	0.670681	0.038944	0.585971
	N250	N	0.312470	0.965512	0.585223
	N251	N	0.311775	0.039666	0.412568
	N252	N	0.905563	0.464932	0.177673
	N253	N	0.075245	0.540164	0.176477
	N254	N	0.075135	0.464802	0.821701
	N255	N	0.904427	0.539215	0.820151
	N256	N	0.169287	0.917528	0.462454
	N257	N	0.170095	0.088783	0.536917
	N258	N	0.813200	0.088270	0.462395
	N259	N	0.812898	0.916835	0.536641
	N260	N	0.454516	0.181588	0.911042
	N261	N	0.528362	0.181007	0.084714
	N262	N	0.454258	0.822011	0.085486
	N263	N	0.529027	0.822850	0.913409
	N264	N	0.453690	0.915062	0.177973
	N265	N	0.529228	0.086177	0.176254
	N266	N	0.453471	0.085757	0.821156
	N267	N	0.529142	0.916694	0.821555
	N268	N	0.906620	0.180649	0.462056
	N269	N	0.077404	0.180933	0.537356
	N270	N	0.076125	0.825842	0.461622
	N271	N	0.905389	0.824161	0.536070
	N272	N	0.170203	0.465163	0.912553
	N273	N	0.170706	0.538702	0.086334
	N274	N	0.811866	0.464983	0.085616
	N275	N	0.812138	0.539087	0.913097
	O276	O	0.525263	0.411281	0.494835
	H277	H	0.526639	0.413268	0.493796
	H278	H	0.513695	0.402271	0.495309
	O279	O	0.506767	0.501035	0.480716
	H280	H	0.504112	0.502856	0.474657
	H281	H	0.516273	0.493389	0.473821
	O282	O	0.477650	0.487746	0.439760
	H283	H	0.458143	0.481946	0.437737
	H284	H	0.485257	0.485935	0.427463
	O285	O	0.037494	1.026477	0.988446
	H286	H	0.041502	1.027801	0.992845
	H287	H	0.035835	1.035556	0.991006
	O288	O	0.478820	0.565543	0.436065
	H289	H	0.479946	0.574984	0.441446
	H290	H	0.480007	0.569458	0.442919
	O291	O	0.357204	0.419652	1.633895
	H292	H	0.367288	0.422894	1.636545
	H293	H	0.363444	0.410381	1.642858
	O294	O	0.495711	0.588460	0.482140
	H295	H	0.499248	0.588330	0.479498
	H296	H	0.499739	0.583638	0.485714
	O297	O	0.509639	0.481724	0.541054
	H298	H	0.513936	0.477590	0.536593
	H299	H	0.513275	0.479808	0.530899
	O300	O	0.459439	0.483592	0.448794
	H301	H	0.456282	0.487900	0.454120
	H302	H	0.462273	0.488933	0.454901
	O303	O	0.531537	0.424150	0.545987
	H304	H	0.521566	0.430738	0.542943
	H305	H	0.540067	0.416834	0.539361
	O306	O	1.010648	0.032743	1.002468
	H307	H	1.001741	0.034296	1.003924
	H308	H	1.021769	0.038105	1.006007
	O309	O	0.547090	0.536264	0.416133
	H310	H	0.546666	0.532029	0.421388
	H311	H	0.537231	0.534208	0.413399
	O312	O	0.522685	0.497953	0.464049
	H313	H	0.524769	0.519913	0.468328
	H314	H	0.517011	0.506112	0.463012
	O315	O	1.019667	0.014768	0.987661
	H316	H	1.019769	0.008695	0.985739
	H317	H	1.020013	0.014577	0.990152
	O318	O	0.404970	-0.494561	-0.496524
	H319	H	0.402201	-0.501175	-0.503273
	H320	H	0.408872	-0.484286	-0.487503
	O321	O	0.518185	0.543373	0.485999
	H322	H	0.504814	0.543349	0.470162
	H323	H	0.517045	0.530896	0.488032
	O324	O	1.038565	0.039107	0.013827
	H325	H	1.041040	0.030263	0.003268
	H326	H	1.039019	0.031783	0.012316
	O327	O	1.030019	1.042580	0.006307
	H328	H	1.029524	1.046553	0.006207
	H329	H	1.030355	1.051047	0.001473
	O330	O	0.434598	0.431082	0.496946
	H331	H	0.442598	0.428406	0.493312
	H332	H	0.434564	0.435291	0.512568
	O333	O	0.500116	0.514666	0.519100
	H334	H	0.500074	0.511820	0.520014
	H335	H	0.502018	0.502483	0.513800
