data_Molecule from HDF5

_cell_length_a		16.015967
_cell_length_b		16.349252
_cell_length_c		16.369460
_cell_angle_alpha	90.219427
_cell_angle_beta	89.897600
_cell_angle_gamma	89.764476
_symmetry_space_group_name_H-M	'P 1'
_symmetry_Int_Tables_number		1

loop_
	_symmetry_equiv_pos_as_xyz
	x,y,z

loop_
	_atom_site_label
	_atom_site_type_symbol
	_atom_site_fract_x
	_atom_site_fract_y
	_atom_site_fract_z
	H0	H	0.388617	0.834060	0.712547
	H1	H	0.592808	0.158104	0.716361
	H2	H	0.595779	0.834680	0.277729
	H3	H	0.387319	0.158023	0.277130
	H4	H	0.706497	0.397319	0.832022
	H5	H	0.703784	0.591359	0.159640
	H6	H	0.280248	0.590540	0.831167
	H7	H	0.278074	0.400493	0.159204
	H8	H	0.825811	0.713650	0.398034
	H9	H	0.157173	0.712219	0.595444
	H10	H	0.826217	0.285323	0.595926
	H11	H	0.156720	0.282658	0.394681
	H12	H	0.826001	0.400263	0.709670
	H13	H	0.157004	0.597922	0.710540
	H14	H	0.826264	0.600086	0.281741
	H15	H	0.157261	0.397655	0.281225
	H16	H	0.389670	0.712429	0.833245
	H17	H	0.594473	0.714472	0.156747
	H18	H	0.596486	0.275156	0.834070
	H19	H	0.389397	0.278838	0.157927
	H20	H	0.708445	0.834536	0.398089
	H21	H	0.702195	0.161427	0.593497
	H22	H	0.279404	0.833115	0.590337
	H23	H	0.279000	0.161799	0.400969
	H24	H	0.889195	0.335428	0.215376
	H25	H	0.093429	0.659326	0.214603
	H26	H	0.096431	0.335878	0.775314
	H27	H	0.890195	0.660300	0.781861
	H28	H	0.204407	0.901145	0.332299
	H29	H	0.202989	0.093532	0.660548
	H30	H	0.776155	0.096280	0.332609
	H31	H	0.779447	0.903926	0.660270
	H32	H	0.327368	0.209902	0.897248
	H33	H	0.657319	0.209803	0.096532
	H34	H	0.326215	0.782860	0.094333
	H35	H	0.657365	0.781084	0.894334
	H36	H	0.326242	0.896183	0.210162
	H37	H	0.656446	0.095417	0.211186
	H38	H	0.326158	0.094269	0.785023
	H39	H	0.656584	0.894508	0.779216
	H40	H	0.888864	0.215687	0.334298
	H41	H	0.092534	0.216575	0.658096
	H42	H	0.094706	0.778974	0.335069
	H43	H	0.888889	0.782357	0.657559
	H44	H	0.203409	0.331811	0.900275
	H45	H	0.203277	0.661146	0.090629
	H46	H	0.781547	0.331061	0.090839
	H47	H	0.778186	0.660119	0.901822
	H48	H	0.396506	0.112602	0.591366
	H49	H	0.586876	0.879889	0.588584
	H50	H	0.572573	0.108293	0.405878
	H51	H	0.403520	0.882650	0.400342
	H52	H	0.590712	0.410539	0.109918
	H53	H	0.579787	0.587727	0.880975
	H54	H	0.391647	0.596301	0.115476
	H55	H	0.403716	0.404368	0.881807
	H56	H	0.107223	0.587257	0.407397
	H57	H	0.872141	0.594894	0.588014
	H58	H	0.109672	0.413102	0.591427
	H59	H	0.875469	0.410879	0.407924
	H60	H	0.112744	0.400245	0.589061
	H61	H	0.874099	0.588556	0.587046
	H62	H	0.110765	0.588295	0.401734
	H63	H	0.872438	0.410079	0.399919
	H64	H	0.399052	0.580835	0.108473
	H65	H	0.584306	0.593725	0.877571
	H66	H	0.573144	0.401971	0.107618
	H67	H	0.402587	0.395985	0.879283
	H68	H	0.587847	0.113217	0.408094
	H69	H	0.581343	0.881829	0.591720
	H70	H	0.399393	0.113838	0.595725
	H71	H	0.399060	0.881251	0.405236
	H72	H	0.898172	0.612783	0.092260
	H73	H	0.086578	0.379698	0.095162
	H74	H	0.088282	0.613525	0.906483
	H75	H	0.904461	0.380770	0.899700
	H76	H	0.089628	0.909161	0.612771
	H77	H	0.082226	0.091729	0.381295
	H78	H	0.896205	0.104433	0.615656
	H79	H	0.903494	0.897450	0.379577
	H80	H	0.610628	0.081995	0.901895
	H81	H	0.378382	0.081145	0.078902
	H82	H	0.611609	0.904631	0.092257
	H83	H	0.368032	0.893854	0.897235
	H84	H	0.610738	0.898980	0.083387
	H85	H	0.371175	0.083407	0.097564
	H86	H	0.612595	0.088366	0.903191
	H87	H	0.375949	0.902131	0.914373
	H88	H	0.890913	0.087383	0.611971
	H89	H	0.083839	0.096186	0.379357
	H90	H	0.077276	0.906549	0.609840
	H91	H	0.893306	0.908747	0.379116
	H92	H	0.086427	0.614736	0.896115
	H93	H	0.077226	0.382084	0.090681
	H94	H	0.900032	0.611609	0.090060
	H95	H	0.899336	0.380519	0.901863
	H96	H	0.401891	0.112324	0.590955
	H97	H	0.582099	0.882640	0.585024
	H98	H	0.580936	0.115047	0.394014
	H99	H	0.397360	0.879632	0.398731
	H100	H	0.588492	0.391534	0.115483
	H101	H	0.588006	0.586684	0.879539
	H102	H	0.408876	0.596130	0.109543
	H103	H	0.396443	0.401527	0.878906
	H104	H	0.109812	0.592546	0.405783
	H105	H	0.872059	0.590668	0.593004
	H106	H	0.107561	0.407994	0.578894
	H107	H	0.872565	0.402849	0.405092
	H108	H	0.897422	0.612551	0.089421
	H109	H	0.085981	0.382006	0.084942
	H110	H	0.078931	0.611009	0.902702
	H111	H	0.900318	0.379200	0.897078
	H112	H	0.085486	0.897917	0.614541
	H113	H	0.087421	0.091894	0.379448
	H114	H	0.908373	0.092391	0.608219
	H115	H	0.907890	0.910347	0.384052
	H116	H	0.609812	0.085294	0.908441
	H117	H	0.371063	0.098276	0.084774
	H118	H	0.607768	0.909222	0.083762
	H119	H	0.374586	0.913853	0.898190
	C120	C	0.369703	0.004942	0.619343
	C121	C	0.612432	0.988563	0.618283
	C122	C	0.612337	0.005032	0.373778
	C123	C	0.369455	0.988711	0.373232
	C124	C	0.613979	0.372426	0.003514
	C125	C	0.613698	0.617950	0.986813
	C126	C	0.370290	0.618483	0.003713
	C127	C	0.370651	0.373088	0.987441
	C128	C	0.000141	0.619669	0.375752
	C129	C	0.982495	0.619853	0.617719
	C130	C	0.000375	0.378453	0.615787
	C131	C	0.982870	0.377733	0.374641
	C132	C	0.869397	0.504776	0.118784
	C133	C	0.112962	0.488845	0.118194
	C134	C	0.113966	0.505161	0.873118
	C135	C	0.871041	0.488351	0.873261
	C136	C	0.113682	0.875449	0.505043
	C137	C	0.113010	0.120758	0.487895
	C138	C	0.868455	0.122412	0.504628
	C139	C	0.870956	0.877313	0.487824
	C140	C	0.501343	0.115092	0.875985
	C141	C	0.482708	0.116953	0.116803
	C142	C	0.500648	0.875520	0.115935
	C143	C	0.482478	0.873728	0.873373
	C144	C	0.370287	0.882766	0.673860
	C145	C	0.611556	0.110159	0.676222
	C146	C	0.613969	0.883118	0.317156
	C147	C	0.369252	0.110236	0.316963
	C148	C	0.669250	0.375886	0.880864
	C149	C	0.667635	0.613553	0.110068
	C150	C	0.316397	0.612880	0.880495
	C151	C	0.315328	0.378213	0.110126
	C152	C	0.875344	0.675690	0.377632
	C153	C	0.107537	0.675012	0.615765
	C154	C	0.875679	0.323430	0.614949
	C155	C	0.107075	0.320921	0.375395
	C156	C	0.875575	0.380709	0.671478
	C157	C	0.107348	0.618275	0.673200
	C158	C	0.875640	0.619245	0.319863
	C159	C	0.107567	0.378348	0.319018
	C160	C	0.370841	0.673624	0.881526
	C161	C	0.613300	0.674754	0.108772
	C162	C	0.614378	0.315232	0.881940
	C163	C	0.370552	0.317518	0.109367
	C164	C	0.670009	0.883260	0.377083
	C165	C	0.666261	0.111992	0.615516
	C166	C	0.315697	0.882093	0.613271
	C167	C	0.315318	0.112158	0.378542
	C168	C	0.870498	0.383286	0.175592
	C169	C	0.111983	0.611230	0.174517
	C170	C	0.114337	0.383767	0.815484
	C171	C	0.870975	0.611215	0.819584
	C172	C	0.167611	0.879470	0.381507
	C173	C	0.166729	0.115986	0.611279
	C174	C	0.813112	0.118273	0.381843
	C175	C	0.816144	0.881995	0.611095
	C176	C	0.376652	0.171616	0.877372
	C177	C	0.607592	0.172253	0.116115
	C178	C	0.375823	0.820623	0.114176
	C179	C	0.607864	0.818874	0.874994
	C180	C	0.375841	0.876913	0.171733
	C181	C	0.607334	0.115249	0.172894
	C182	C	0.376156	0.114253	0.821770
	C183	C	0.607200	0.875157	0.817491
	C184	C	0.869531	0.177355	0.382552
	C185	C	0.111751	0.177075	0.610134
	C186	C	0.113102	0.818751	0.382988
	C187	C	0.870548	0.821410	0.609788
	C188	C	0.168001	0.381704	0.877304
	C189	C	0.166800	0.612073	0.113249
	C190	C	0.816533	0.381136	0.114001
	C191	C	0.815226	0.611320	0.879150
	C192	C	0.392402	0.090772	0.598692
	C193	C	0.590118	0.903403	0.595259
	C194	C	0.587507	0.090303	0.395975
	C195	C	0.392846	0.903145	0.394910
	C196	C	0.590948	0.394754	0.088834
	C197	C	0.590886	0.595806	0.901455
	C198	C	0.393139	0.597318	0.089033
	C199	C	0.394150	0.394231	0.902119
	C200	C	0.086877	0.596580	0.398331
	C201	C	0.895450	0.597858	0.595609
	C202	C	0.087529	0.400529	0.593053
	C203	C	0.895815	0.401035	0.397633
	C204	C	0.891661	0.590127	0.097178
	C205	C	0.090118	0.403425	0.096670
	C206	C	0.091235	0.590810	0.895300
	C207	C	0.894441	0.402481	0.893499
	C208	C	0.090890	0.897824	0.590259
	C209	C	0.090902	0.099523	0.402296
	C210	C	0.891593	0.100934	0.589999
	C211	C	0.894539	0.899162	0.402782
	C212	C	0.588402	0.092013	0.898127
	C213	C	0.395964	0.094281	0.093833
	C214	C	0.587694	0.897962	0.093346
	C215	C	0.395440	0.896510	0.896619
	Zn216	Zn	0.491357	-0.004273	0.748269
	Zn217	Zn	0.491274	-0.003677	0.243789
	Zn218	Zn	0.741960	0.495167	-0.004558
	Zn219	Zn	0.241953	0.496347	-0.004609
	Zn220	Zn	-0.008620	0.747148	0.497036
	Zn221	Zn	-0.008788	0.250733	0.495336
	Zn222	Zn	-0.007843	0.498097	0.744092
	Zn223	Zn	-0.008606	0.498007	0.248045
	Zn224	Zn	0.492024	0.747581	-0.004995
	Zn225	Zn	0.492387	0.243143	-0.004243
	Zn226	Zn	0.741477	-0.001545	0.496608
	Zn227	Zn	0.241950	-0.002186	0.496420
	N228	N	0.403117	0.960312	0.677648
	N229	N	0.578731	0.032517	0.677887
	N230	N	0.579079	0.960163	0.314781
	N231	N	0.402360	0.032347	0.313665
	N232	N	0.669087	0.410648	0.957452
	N233	N	0.667876	0.578947	0.033325
	N234	N	0.316264	0.579053	0.957351
	N235	N	0.315304	0.412124	0.033489
	N236	N	0.953834	0.676184	0.411536
	N237	N	0.028736	0.676261	0.582142
	N238	N	0.954247	0.321881	0.580899
	N239	N	0.028365	0.320489	0.409342
	N240	N	0.954150	0.414233	0.671979
	N241	N	0.028854	0.584737	0.674405
	N242	N	0.954253	0.585034	0.318505
	N243	N	0.029263	0.413026	0.318619
	N244	N	0.403738	0.677370	0.959082
	N245	N	0.580351	0.677520	0.031277
	N246	N	0.580751	0.312867	0.959440
	N247	N	0.404071	0.314033	0.031741
	N248	N	0.669036	0.960106	0.411672
	N249	N	0.666816	0.035651	0.579805
	N250	N	0.315401	0.959174	0.579856
	N251	N	0.315191	0.035321	0.412649
	N252	N	0.902777	0.461164	0.178716
	N253	N	0.079305	0.533627	0.177695
	N254	N	0.081358	0.461673	0.812895
	N255	N	0.904910	0.533843	0.815731
	N256	N	0.168240	0.914066	0.458350
	N257	N	0.167674	0.081732	0.534428
	N258	N	0.812400	0.084576	0.458732
	N259	N	0.816130	0.915942	0.534378
	N260	N	0.455559	0.172317	0.910557
	N261	N	0.529096	0.173391	0.082019
	N262	N	0.454405	0.819512	0.080068
	N263	N	0.529298	0.817691	0.908972
	N264	N	0.454518	0.910269	0.172988
	N265	N	0.528638	0.081769	0.173694
	N266	N	0.454601	0.079751	0.820752
	N267	N	0.528247	0.908249	0.816339
	N268	N	0.903260	0.179890	0.459875
	N269	N	0.079102	0.180220	0.532573
	N270	N	0.080345	0.816121	0.460647
	N271	N	0.904220	0.818507	0.532343
	N272	N	0.167957	0.458235	0.912093
	N273	N	0.167521	0.535041	0.079059
	N274	N	0.815741	0.457611	0.079313
	N275	N	0.815064	0.533974	0.911913
	O276	O	-0.065592	-0.030439	0.003501
	H277	H	-0.081710	-0.028942	0.007338
	H278	H	-0.067296	-0.031014	0.000105
	O279	O	0.488372	0.497393	0.418549
	H280	H	0.505907	0.508455	0.428505
	H281	H	0.478387	0.502521	0.414574
	O282	O	0.494733	0.547393	0.479842
	H283	H	0.491548	0.552387	0.487567
	H284	H	0.496523	0.551614	0.469170
	O285	O	0.554158	1.567505	0.484537
	H286	H	0.567940	1.562047	0.490157
	H287	H	0.558737	1.573386	0.490887
	O288	O	0.439296	0.453249	0.580331
	H289	H	0.427914	0.458793	0.593384
	H290	H	0.430501	0.450551	0.581251
	O291	O	1.017887	0.965442	1.050503
	H292	H	1.011162	0.960154	1.044410
	H293	H	1.008878	0.967122	1.052731
	O294	O	1.006644	1.022679	0.988423
	H295	H	0.995462	1.029390	0.990672
	H296	H	1.003596	1.024390	0.986348
	O297	O	1.444378	0.593675	1.485142
	H298	H	1.438551	0.599725	1.481297
	H299	H	1.446272	0.585756	1.486697
	O300	O	0.523771	0.498516	0.478352
	H301	H	0.521777	0.510585	0.470232
	H302	H	0.516902	0.491324	0.479947
	O303	O	0.996709	-0.002700	-0.006481
	H304	H	1.006001	-0.005768	-0.005607
	H305	H	1.003523	-0.007564	-0.006696
	O306	O	0.029504	0.993828	1.044107
	H307	H	0.021858	0.988908	1.047310
	H308	H	0.023304	1.000404	1.042180
	O309	O	0.507204	0.523824	0.539045
	H310	H	0.506191	0.525183	0.532765
	H311	H	0.506665	0.515634	0.531002
	O312	O	0.962534	-0.030269	0.970983
	H313	H	0.960369	-0.027849	0.960205
	H314	H	0.965193	-0.027444	0.973614
	O315	O	0.477737	0.364319	0.446853
	H316	H	0.477032	0.359937	0.445283
	H317	H	0.475055	0.357591	0.456990
	O318	O	0.488961	0.512684	0.491410
	H319	H	0.475856	0.509199	0.490804
	H320	H	0.494154	0.509863	0.492186
	O321	O	0.977471	0.957911	0.977252
	H322	H	0.979392	0.955103	0.970223
	H323	H	0.978627	0.951458	0.969278
	O324	O	0.459101	0.462047	0.519924
	H325	H	0.451015	0.463786	0.529467
	H326	H	0.459778	0.455784	0.526591
	O327	O	0.466388	0.381613	0.498713
	H328	H	0.462405	0.382718	0.486303
	H329	H	0.463047	0.380905	0.492165
	O330	O	0.981288	0.015258	1.013194
	H331	H	0.979302	0.003685	1.023752
	H332	H	0.988180	0.017669	1.004857
	O333	O	1.006590	1.009754	0.003189
	H334	H	1.006186	1.007651	0.005370
	H335	H	1.014223	1.010126	0.009729
	O336	O	0.543279	0.527692	0.457706
	H337	H	0.539481	0.523487	0.451041
	H338	H	0.543925	0.515069	0.459104
	O339	O	0.429194	0.537486	0.430050
	H340	H	0.431366	0.529661	0.430416
	H341	H	0.429248	0.543198	0.418024
	O342	O	-0.100480	0.941179	0.046240
	H343	H	-0.102620	0.944669	0.050777
	H344	H	-0.098018	0.944368	0.047391
	O345	O	0.027140	-0.004831	0.069519
	H346	H	0.031972	-0.005214	0.073806
	H347	H	0.028604	0.005157	0.076412
	O348	O	0.429067	0.541783	0.458138
	H349	H	0.429244	0.538006	0.451044
	H350	H	0.432757	0.545271	0.450983
	O351	O	0.484079	0.435623	0.444321
	H352	H	0.499501	0.438297	0.434781
	H353	H	0.490929	0.444581	0.455925
	O354	O	0.585684	0.568142	0.508587
	H355	H	0.584313	0.572984	0.512732
	H356	H	0.595043	0.566697	0.516945
	O357	O	0.500741	0.503356	0.428979
	H358	H	0.502535	0.504451	0.434252
	H359	H	0.495251	0.508934	0.437318
	O360	O	0.033712	0.034042	0.020405
	H361	H	0.040493	0.027198	0.024410
	H362	H	0.033092	0.031606	0.032435
	O363	O	0.583213	0.413732	0.593555
	H364	H	0.591216	0.419947	0.593692
	H365	H	0.575034	0.407041	0.595010
	O366	O	-0.024815	-0.032498	1.042339
	H367	H	-0.022434	-0.028497	1.035660
	H368	H	-0.025874	-0.029987	1.049766
	O369	O	0.491925	0.508312	0.524456
	H370	H	0.495898	0.506344	0.515306
	H371	H	0.484366	0.506717	0.518324
