data_Molecule from HDF5

_cell_length_a		16.378552
_cell_length_b		16.403414
_cell_length_c		16.398848
_cell_angle_alpha	89.711160
_cell_angle_beta	90.094966
_cell_angle_gamma	90.046813
_symmetry_space_group_name_H-M	'P 1'
_symmetry_Int_Tables_number		1

loop_
	_symmetry_equiv_pos_as_xyz
	x,y,z

loop_
	_atom_site_label
	_atom_site_type_symbol
	_atom_site_fract_x
	_atom_site_fract_y
	_atom_site_fract_z
	H0	H	0.391645	0.846239	0.712212
	H1	H	0.601734	0.164505	0.708094
	H2	H	0.599960	0.844721	0.273353
	H3	H	0.393250	0.163098	0.268939
	H4	H	0.717409	0.401537	0.830346
	H5	H	0.714803	0.605496	0.150363
	H6	H	0.272292	0.613353	0.832719
	H7	H	0.279054	0.400618	0.148939
	H8	H	0.836192	0.723637	0.386707
	H9	H	0.154187	0.725050	0.597600
	H10	H	0.836979	0.281917	0.596043
	H11	H	0.156353	0.285772	0.389575
	H12	H	0.835933	0.396892	0.711691
	H13	H	0.154189	0.607646	0.712974
	H14	H	0.835495	0.605491	0.272337
	H15	H	0.155448	0.399444	0.271738
	H16	H	0.392763	0.725100	0.829924
	H17	H	0.600922	0.722717	0.149939
	H18	H	0.603305	0.283767	0.829921
	H19	H	0.392638	0.281906	0.147233
	H20	H	0.715391	0.844854	0.389135
	H21	H	0.715204	0.165177	0.590614
	H22	H	0.275551	0.846118	0.598356
	H23	H	0.277357	0.162969	0.386086
	H24	H	0.892433	0.343146	0.210775
	H25	H	0.100249	0.662208	0.211813
	H26	H	0.103066	0.344728	0.769217
	H27	H	0.887772	0.660728	0.767181
	H28	H	0.214963	0.902346	0.331498
	H29	H	0.220071	0.110514	0.649112
	H30	H	0.777957	0.109245	0.330495
	H31	H	0.775248	0.899618	0.649505
	H32	H	0.336943	0.226795	0.881717
	H33	H	0.657817	0.222637	0.089710
	H34	H	0.338399	0.783700	0.093160
	H35	H	0.657593	0.786850	0.887344
	H36	H	0.338539	0.899889	0.209656
	H37	H	0.657357	0.109604	0.208811
	H38	H	0.337366	0.110410	0.766676
	H39	H	0.656401	0.901313	0.769715
	H40	H	0.893400	0.224677	0.331635
	H41	H	0.101754	0.223957	0.650462
	H42	H	0.099462	0.785693	0.331807
	H43	H	0.886985	0.779791	0.648507
	H44	H	0.219993	0.345757	0.884275
	H45	H	0.218891	0.661921	0.097150
	H46	H	0.777221	0.343388	0.094013
	H47	H	0.777893	0.663332	0.887555
	H48	H	0.407080	0.117624	0.573868
	H49	H	0.583527	0.892194	0.578150
	H50	H	0.591042	0.122546	0.393224
	H51	H	0.403857	0.889709	0.401589
	H52	H	0.593302	0.408949	0.106644
	H53	H	0.581924	0.598049	0.876611
	H54	H	0.403836	0.587537	0.103307
	H55	H	0.410990	0.418800	0.877289
	H56	H	0.111894	0.592854	0.393204
	H57	H	0.884014	0.591731	0.574617
	H58	H	0.109129	0.413440	0.580207
	H59	H	0.882297	0.412864	0.403353
	H60	H	0.108648	0.415613	0.580970
	H61	H	0.883123	0.588382	0.581128
	H62	H	0.112335	0.601725	0.403439
	H63	H	0.882263	0.415591	0.400730
	H64	H	0.416459	0.591428	0.099597
	H65	H	0.591903	0.600051	0.872679
	H66	H	0.586452	0.422308	0.100259
	H67	H	0.408626	0.414117	0.875217
	H68	H	0.580907	0.117656	0.397216
	H69	H	0.589360	0.890490	0.577814
	H70	H	0.406729	0.118870	0.579478
	H71	H	0.406118	0.888530	0.397352
	H72	H	0.902154	0.617496	0.077917
	H73	H	0.084641	0.390926	0.080431
	H74	H	0.081086	0.614791	0.902016
	H75	H	0.907879	0.393203	0.911576
	H76	H	0.087241	0.918135	0.604314
	H77	H	0.088824	0.096994	0.376294
	H78	H	0.900131	0.093149	0.607260
	H79	H	0.900038	0.909118	0.372845
	H80	H	0.611175	0.094173	0.893397
	H81	H	0.386531	0.083119	0.080560
	H82	H	0.610769	0.917055	0.079740
	H83	H	0.383991	0.919315	0.899131
	H84	H	0.614137	0.912942	0.085132
	H85	H	0.379360	0.099749	0.084654
	H86	H	0.611303	0.100067	0.900557
	H87	H	0.381030	0.912448	0.897724
	H88	H	0.908777	0.088320	0.601955
	H89	H	0.086304	0.090261	0.378675
	H90	H	0.081273	0.913486	0.603264
	H91	H	0.903940	0.923531	0.379486
	H92	H	0.082981	0.614427	0.905307
	H93	H	0.089596	0.389441	0.081109
	H94	H	0.905105	0.619956	0.087036
	H95	H	0.897731	0.385224	0.899324
	H96	H	0.411783	0.116841	0.577646
	H97	H	0.586116	0.889895	0.582890
	H98	H	0.590761	0.118949	0.404378
	H99	H	0.409218	0.890959	0.400925
	H100	H	0.578032	0.408808	0.101773
	H101	H	0.589331	0.590130	0.877134
	H102	H	0.407581	0.600331	0.104947
	H103	H	0.405577	0.418711	0.875044
	H104	H	0.106560	0.588781	0.405278
	H105	H	0.880681	0.594888	0.579745
	H106	H	0.109836	0.414278	0.582599
	H107	H	0.880593	0.411785	0.400007
	H108	H	0.911065	0.615222	0.080401
	H109	H	0.085970	0.388102	0.084574
	H110	H	0.084127	0.615904	0.901899
	H111	H	0.914440	0.390155	0.895662
	H112	H	0.087716	0.911226	0.606759
	H113	H	0.081794	0.096399	0.378854
	H114	H	0.909598	0.098753	0.605918
	H115	H	0.915073	0.911581	0.378489
	H116	H	0.607528	0.090900	0.901390
	H117	H	0.386192	0.096662	0.067875
	H118	H	0.612837	0.909701	0.078428
	H119	H	0.384900	0.913695	0.904520
	C120	C	0.376200	0.013079	0.610774
	C121	C	0.617970	0.996361	0.610768
	C122	C	0.618672	0.013815	0.368405
	C123	C	0.375234	0.995232	0.368110
	C124	C	0.618381	0.382641	-0.002375
	C125	C	0.618779	0.625985	0.981500
	C126	C	0.375623	0.626248	-0.001886
	C127	C	0.376447	0.383807	0.980723
	C128	C	0.004357	0.625038	0.369243
	C129	C	0.987322	0.624383	0.612046
	C130	C	0.004090	0.381439	0.613281
	C131	C	0.987442	0.382417	0.370332
	C132	C	0.874465	0.511972	0.113087
	C133	C	0.118214	0.494752	0.113335
	C134	C	0.116303	0.511021	0.870385
	C135	C	0.874430	0.494615	0.869852
	C136	C	0.117105	0.883332	0.499797
	C137	C	0.118245	0.125945	0.482747
	C138	C	0.875194	0.125347	0.499472
	C139	C	0.874005	0.882606	0.482148
	C140	C	0.504774	0.127097	0.866369
	C141	C	0.489555	0.124896	0.109055
	C142	C	0.506591	0.882202	0.111791
	C143	C	0.488597	0.883997	0.868772
	C144	C	0.373433	0.893934	0.672236
	C145	C	0.619615	0.116671	0.668685
	C146	C	0.619378	0.892811	0.311474
	C147	C	0.374411	0.115307	0.308917
	C148	C	0.678049	0.382158	0.877914
	C149	C	0.676340	0.625147	0.102234
	C150	C	0.313558	0.630259	0.879728
	C151	C	0.318103	0.381521	0.100899
	C152	C	0.884103	0.684085	0.367585
	C153	C	0.106615	0.684399	0.614793
	C154	C	0.884702	0.321339	0.614653
	C155	C	0.108314	0.324690	0.370288
	C156	C	0.884024	0.378869	0.672342
	C157	C	0.106483	0.626107	0.672732
	C158	C	0.883634	0.625286	0.310895
	C159	C	0.107700	0.380986	0.311376
	C160	C	0.373560	0.686154	0.878343
	C161	C	0.619579	0.683523	0.101791
	C162	C	0.620913	0.323825	0.877677
	C163	C	0.374219	0.322349	0.099848
	C164	C	0.676620	0.892919	0.369287
	C165	C	0.676467	0.117025	0.610360
	C166	C	0.315480	0.893786	0.615348
	C167	C	0.316438	0.115116	0.366831
	C168	C	0.873506	0.391270	0.171441
	C169	C	0.119323	0.614526	0.172184
	C170	C	0.120494	0.392147	0.809422
	C171	C	0.871038	0.613759	0.808424
	C172	C	0.175688	0.883016	0.379513
	C173	C	0.179319	0.128081	0.601878
	C174	C	0.816922	0.127701	0.378856
	C175	C	0.814540	0.880878	0.601783
	C176	C	0.384838	0.186497	0.864080
	C177	C	0.609640	0.183871	0.109531
	C178	C	0.386271	0.823226	0.112386
	C179	C	0.609325	0.825599	0.868007
	C180	C	0.386383	0.880847	0.170434
	C181	C	0.609390	0.127080	0.168508
	C182	C	0.385024	0.128966	0.806351
	C183	C	0.608690	0.882776	0.809529
	C184	C	0.874341	0.185287	0.379264
	C185	C	0.120505	0.184669	0.602574
	C186	C	0.118152	0.824924	0.379618
	C187	C	0.870330	0.821173	0.601204
	C188	C	0.178914	0.392767	0.866646
	C189	C	0.178349	0.614296	0.115162
	C190	C	0.816168	0.391508	0.113384
	C191	C	0.816236	0.615001	0.868324
	C192	C	0.401421	0.096166	0.584568
	C193	C	0.593357	0.912642	0.586646
	C194	C	0.594514	0.097693	0.391421
	C195	C	0.399449	0.911576	0.392693
	C196	C	0.592948	0.406485	0.081016
	C197	C	0.594839	0.602579	0.897294
	C198	C	0.401612	0.600378	0.081137
	C199	C	0.401127	0.409715	0.897535
	C200	C	0.088232	0.601242	0.393495
	C201	C	0.903959	0.598843	0.586012
	C202	C	0.087585	0.406997	0.588533
	C203	C	0.903519	0.406470	0.394423
	C204	C	0.898910	0.595843	0.088809
	C205	C	0.093753	0.411300	0.088994
	C206	C	0.090247	0.593383	0.895765
	C207	C	0.899679	0.411131	0.894948
	C208	C	0.092444	0.907407	0.583101
	C209	C	0.092855	0.101570	0.399441
	C210	C	0.899264	0.100595	0.583210
	C211	C	0.899113	0.907536	0.398643
	C212	C	0.588312	0.102278	0.891222
	C213	C	0.405607	0.100068	0.084762
	C214	C	0.590572	0.906354	0.088098
	C215	C	0.405088	0.908342	0.893227
	Zn216	Zn	0.497058	0.004769	0.738921
	Zn217	Zn	0.498132	0.004818	0.239708
	Zn218	Zn	0.746956	0.503877	-0.009450
	Zn219	Zn	0.246858	0.504206	-0.009523
	Zn220	Zn	-0.004577	0.753935	0.490412
	Zn221	Zn	-0.003341	0.253357	0.491327
	Zn222	Zn	-0.005287	0.502679	0.741420
	Zn223	Zn	-0.004569	0.503052	0.241624
	Zn224	Zn	0.497846	0.754391	-0.010666
	Zn225	Zn	0.496892	0.254813	-0.011786
	Zn226	Zn	0.746680	0.004798	0.489969
	Zn227	Zn	0.247094	0.003924	0.491248
	N228	N	0.410044	0.969259	0.669686
	N229	N	0.583970	0.040762	0.669015
	N230	N	0.584104	0.968836	0.310747
	N231	N	0.409918	0.039532	0.309227
	N232	N	0.676588	0.418109	0.953529
	N233	N	0.675959	0.589994	0.026295
	N234	N	0.314645	0.593759	0.955346
	N235	N	0.319130	0.418927	0.025792
	N236	N	0.960143	0.684237	0.403027
	N237	N	0.031271	0.683374	0.577906
	N238	N	0.960498	0.322758	0.578874
	N239	N	0.032584	0.325420	0.406091
	N240	N	0.959379	0.415628	0.671535
	N241	N	0.031000	0.589440	0.670801
	N242	N	0.959558	0.589575	0.311634
	N243	N	0.031464	0.416065	0.311172
	N244	N	0.411282	0.683834	0.953194
	N245	N	0.584639	0.684270	0.025621
	N246	N	0.584366	0.324180	0.952970
	N247	N	0.409613	0.323612	0.023985
	N248	N	0.676809	0.969248	0.403468
	N249	N	0.675728	0.041126	0.575319
	N250	N	0.317093	0.968989	0.577737
	N251	N	0.316642	0.039273	0.402778
	N252	N	0.908918	0.467248	0.171462
	N253	N	0.082760	0.539074	0.171352
	N254	N	0.082390	0.466683	0.811331
	N255	N	0.906571	0.537870	0.809224
	N256	N	0.175349	0.918452	0.455202
	N257	N	0.178253	0.092297	0.526321
	N258	N	0.817342	0.091327	0.454414
	N259	N	0.817024	0.918587	0.526805
	N260	N	0.460548	0.185791	0.900325
	N261	N	0.533966	0.182535	0.073113
	N262	N	0.462035	0.823818	0.076850
	N263	N	0.533657	0.826096	0.903900
	N264	N	0.462259	0.916670	0.170351
	N265	N	0.533404	0.091274	0.168416
	N266	N	0.460632	0.092926	0.807527
	N267	N	0.532740	0.918592	0.809925
	N268	N	0.909856	0.184120	0.455408
	N269	N	0.083179	0.183263	0.527535
	N270	N	0.082830	0.824551	0.455560
	N271	N	0.906882	0.822216	0.525741
	N272	N	0.176688	0.467763	0.903685
	N273	N	0.177770	0.538788	0.079249
	N274	N	0.816746	0.467507	0.077809
	N275	N	0.818153	0.539868	0.905512
	O276	O	-0.110636	0.807436	-0.021699
	H277	H	-0.098519	0.799073	-0.030604
	H278	H	-0.119793	0.807555	-0.020864
	O279	O	0.617516	0.425664	0.480430
	H280	H	0.628061	0.429984	0.497974
	H281	H	0.631703	0.417078	0.473352
	O282	O	0.290662	0.469639	0.323603
	H283	H	0.280571	0.488807	0.323585
	H284	H	0.299985	0.476802	0.325595
	O285	O	0.835560	1.026736	0.159974
	H286	H	0.848348	1.035843	0.169052
	H287	H	0.836072	1.019173	0.171833
	O288	O	0.307003	0.696913	0.295636
	H289	H	0.286888	0.716228	0.306706
	H290	H	0.326842	0.684815	0.289930
	O291	O	0.315445	0.468732	0.600905
	H292	H	0.316826	0.477217	0.571389
	H293	H	0.309730	0.486036	0.596508
	O294	O	1.069377	1.037137	1.149929
	H295	H	1.065955	1.041581	1.155675
	H296	H	1.069074	1.029218	1.137141
	O297	O	0.568226	0.424955	0.518819
	H298	H	0.564759	0.436927	0.534326
	H299	H	0.561108	0.430989	0.533189
	O300	O	0.480420	0.686624	0.479781
	H301	H	0.463033	0.697756	0.477699
	H302	H	0.465238	0.696256	0.469735
	O303	O	0.863551	0.014720	1.060122
	H304	H	0.863632	0.014586	1.060160
	H305	H	0.874206	0.018774	1.059749
	O306	O	0.177304	0.108414	0.891000
	H307	H	0.172479	0.118812	0.904534
	H308	H	0.185852	0.114222	0.880019
	O309	O	0.695097	-0.244335	0.276920
	H310	H	0.693891	-0.240064	0.279135
	H311	H	0.676282	-0.243355	0.260256
	O312	O	0.399979	0.353059	0.687667
	H313	H	0.370811	0.353797	0.675701
	H314	H	0.390601	0.361130	0.703084
	O315	O	0.497548	0.335496	0.295203
	H316	H	0.512140	0.328667	0.284399
	H317	H	0.513069	0.349109	0.290717
	O318	O	0.056330	-0.114031	0.154615
	H319	H	0.058236	-0.120606	0.152186
	H320	H	0.050739	-0.109046	0.141055
	O321	O	0.682281	0.573960	0.634769
	H322	H	0.673191	0.571295	0.649753
	H323	H	0.688195	0.588553	0.643607
	O324	O	0.998064	0.154516	0.986410
	H325	H	0.997104	0.171425	0.993852
	H326	H	1.001477	0.138214	0.999637
	O327	O	1.193484	-0.102822	1.059808
	H328	H	1.196418	-0.095446	1.057067
	H329	H	1.167995	-0.094410	1.048333
	O330	O	0.101980	1.075413	0.999304
	H331	H	0.100387	1.080761	1.012520
	H332	H	0.110238	1.070770	0.985051
	O333	O	-0.021352	1.000975	-0.179060
	H334	H	-0.030467	1.013562	-0.186607
	H335	H	-0.021592	1.002178	-0.178515
	O336	O	1.094218	1.018984	0.162145
	H337	H	1.117441	1.014281	0.170755
	H338	H	1.098661	1.040755	0.159309
	O339	O	0.140748	1.018844	0.924577
	H340	H	0.130771	1.032998	0.927783
	H341	H	0.138143	1.020291	0.920503
	O342	O	0.520391	0.437676	0.587422
	H343	H	0.510623	0.425137	0.587376
	H344	H	0.517738	0.459657	0.577192
	O345	O	0.063300	0.203281	1.140959
	H346	H	0.058412	0.215313	1.140582
	H347	H	0.081628	0.220455	1.146053
	O348	O	0.571955	0.387319	0.573440
	H349	H	0.565017	0.387096	0.573419
	H350	H	0.554864	0.375451	0.569028
	O351	O	0.966556	1.215189	-0.217945
	H352	H	0.952424	1.209282	-0.222201
	H353	H	0.956849	1.234713	-0.234410
	O354	O	0.891722	1.063699	1.023913
	H355	H	0.884128	1.057675	1.008200
	H356	H	0.902150	1.061486	1.014016
	O357	O	0.161488	-0.183286	-0.197313
	H358	H	0.176735	-0.147899	-0.207381
	H359	H	0.166517	-0.193052	-0.161490
	O360	O	0.477297	0.620121	0.603507
	H361	H	0.480640	0.620938	0.606141
	H362	H	0.484405	0.619206	0.584689
	O363	O	0.804784	-0.007342	0.005461
	H364	H	0.808703	-0.004844	0.021360
	H365	H	0.806323	-0.014246	0.000220
	O366	O	-0.626915	-0.606296	1.405688
	H367	H	-0.616004	-0.603680	1.405412
	H368	H	-0.636382	-0.601591	1.401716
	O369	O	1.185805	0.141510	1.186006
	H370	H	1.190016	0.139166	1.183895
	H371	H	1.193730	0.136453	1.179950
	O372	O	0.448436	0.315313	0.496192
	H373	H	0.449466	0.301301	0.486857
	H374	H	0.463488	0.310715	0.495845
	O375	O	0.062620	0.142082	0.961555
	H376	H	0.081368	0.140906	0.949419
	H377	H	0.054032	0.134700	0.969624
	O378	O	0.559058	0.569806	0.316091
	H379	H	0.554779	0.565510	0.306067
	H380	H	0.562790	0.567936	0.328430
	O381	O	0.299665	0.557965	0.627471
	H382	H	0.301573	0.553015	0.621383
	H383	H	0.306742	0.554655	0.631146
	O384	O	0.624555	0.538880	0.366461
	H385	H	0.630708	0.530792	0.378430
	H386	H	0.627805	0.537872	0.371867
	O387	O	0.505441	0.556155	0.472321
	H388	H	0.516467	0.538797	0.486004
	H389	H	0.494163	0.552082	0.446995
	O390	O	0.807413	1.019768	-0.197175
	H391	H	0.820843	1.012498	-0.189654
	H392	H	0.784837	1.011075	-0.208279
	O393	O	1.204436	-0.201520	0.971098
	H394	H	1.210617	-0.209181	0.974418
	H395	H	1.189382	-0.220207	0.985997
	O396	O	0.613368	0.606402	0.667478
	H397	H	0.599072	0.609292	0.648010
	H398	H	0.618123	0.609576	0.664518
	O399	O	0.410137	0.366502	0.348701
	H400	H	0.412704	0.357121	0.331756
	H401	H	0.424866	0.385082	0.353149
	O402	O	1.009990	0.791056	-0.203498
	H403	H	1.017342	0.782682	-0.216490
	H404	H	1.037150	0.784690	-0.210458
	O405	O	0.287238	0.607880	0.561787
	H406	H	0.282055	0.618356	0.554481
	H407	H	0.280055	0.614507	0.555664
	O408	O	0.366086	0.492307	0.584378
	H409	H	0.330420	0.503353	0.583186
	H410	H	0.358623	0.463676	0.605156
	O411	O	1.019461	0.936837	1.160067
	H412	H	1.009329	0.932659	1.146533
	H413	H	1.013791	0.938407	1.170103
	O414	O	0.666376	0.661111	0.596409
	H415	H	0.634423	0.660888	0.594164
	H416	H	0.673962	0.655602	0.603235
	O417	O	0.095186	0.960404	0.832098
	H418	H	0.097176	0.967728	0.846976
	H419	H	0.103843	0.966790	0.810489
	O420	O	-0.113958	0.856449	1.135404
	H421	H	-0.119828	0.841686	1.166697
	H422	H	-0.145680	0.855711	1.129194
	O423	O	-0.189727	1.181472	-0.177417
	H424	H	-0.208811	1.157886	-0.181182
	H425	H	-0.182757	1.179237	-0.166072
	O426	O	0.659325	0.373214	0.374775
	H427	H	0.678245	0.367832	0.382157
	H428	H	0.671102	0.367445	0.382726
	O429	O	0.554140	0.439001	0.516901
	H430	H	0.557493	0.441288	0.519997
	H431	H	0.544205	0.427177	0.531314
	O432	O	0.812364	0.278008	0.167579
	H433	H	0.811981	0.289074	0.153555
	H434	H	0.828404	0.278084	0.159416
	O435	O	-0.031404	-0.153099	-0.085084
	H436	H	-0.041393	-0.151423	-0.090828
	H437	H	-0.032105	-0.168728	-0.075581
	O438	O	-0.429375	1.612140	1.417093
	H439	H	-0.429643	1.593717	1.430765
	H440	H	-0.432153	1.609841	1.412380
	O441	O	0.387105	0.624360	0.393224
	H442	H	0.380441	0.613422	0.395518
	H443	H	0.386279	0.615938	0.381181
