data_Molecule from HDF5

_cell_length_a		16.464471
_cell_length_b		16.344997
_cell_length_c		16.516015
_cell_angle_alpha	89.909082
_cell_angle_beta	90.081026
_cell_angle_gamma	90.138295
_symmetry_space_group_name_H-M	'P 1'
_symmetry_Int_Tables_number		1

loop_
	_symmetry_equiv_pos_as_xyz
	x,y,z

loop_
	_atom_site_label
	_atom_site_type_symbol
	_atom_site_fract_x
	_atom_site_fract_y
	_atom_site_fract_z
	H0	H	0.394975	0.860024	0.736613
	H1	H	0.617390	0.172714	0.734831
	H2	H	0.615085	0.858685	0.283931
	H3	H	0.395966	0.173170	0.285440
	H4	H	0.729164	0.406448	0.852902
	H5	H	0.733810	0.626849	0.163549
	H6	H	0.279548	0.625785	0.854533
	H7	H	0.279271	0.405851	0.164691
	H8	H	0.846723	0.738607	0.400325
	H9	H	0.161748	0.740378	0.616248
	H10	H	0.848619	0.290821	0.616638
	H11	H	0.162512	0.293159	0.402897
	H12	H	0.849156	0.406234	0.732573
	H13	H	0.161923	0.625427	0.732114
	H14	H	0.850119	0.627251	0.280458
	H15	H	0.160126	0.405605	0.283573
	H16	H	0.397898	0.740649	0.853098
	H17	H	0.613475	0.737892	0.166736
	H18	H	0.611900	0.291553	0.853457
	H19	H	0.398083	0.292565	0.166076
	H20	H	0.730937	0.859282	0.398188
	H21	H	0.728723	0.173785	0.615554
	H22	H	0.281654	0.858205	0.618738
	H23	H	0.281967	0.172548	0.401360
	H24	H	0.893541	0.358809	0.234385
	H25	H	0.116662	0.671002	0.236669
	H26	H	0.112415	0.356518	0.786483
	H27	H	0.897121	0.672197	0.783586
	H28	H	0.232560	0.903884	0.354610
	H29	H	0.229738	0.122903	0.665738
	H30	H	0.779016	0.127302	0.353970
	H31	H	0.777973	0.904650	0.664945
	H32	H	0.346982	0.237952	0.903552
	H33	H	0.662383	0.240782	0.118092
	H34	H	0.348685	0.791611	0.118275
	H35	H	0.662329	0.790995	0.901868
	H36	H	0.349189	0.907804	0.233375
	H37	H	0.660725	0.127632	0.236128
	H38	H	0.350307	0.128118	0.782053
	H39	H	0.660967	0.905114	0.783549
	H40	H	0.897321	0.240492	0.353759
	H41	H	0.112491	0.238282	0.666577
	H42	H	0.112257	0.791867	0.352467
	H43	H	0.896174	0.790373	0.665602
	H44	H	0.227908	0.356653	0.902707
	H45	H	0.229669	0.673107	0.118759
	H46	H	0.781438	0.358435	0.116067
	H47	H	0.780208	0.672623	0.897640
	H48	H	0.419529	0.127022	0.591947
	H49	H	0.588253	0.905279	0.594641
	H50	H	0.594400	0.128171	0.424195
	H51	H	0.425457	0.904871	0.422809
	H52	H	0.590785	0.434344	0.117708
	H53	H	0.594014	0.602613	0.898003
	H54	H	0.418645	0.597482	0.119417
	H55	H	0.414329	0.424350	0.894907
	H56	H	0.118455	0.603345	0.415606
	H57	H	0.891311	0.607428	0.597089
	H58	H	0.118435	0.431784	0.601456
	H59	H	0.891647	0.423973	0.421326
	H60	H	0.120640	0.422354	0.599963
	H61	H	0.895561	0.599830	0.592892
	H62	H	0.115116	0.607834	0.428694
	H63	H	0.894889	0.429852	0.426588
	H64	H	0.421350	0.605597	0.121528
	H65	H	0.591748	0.601546	0.898772
	H66	H	0.591153	0.424178	0.122317
	H67	H	0.413322	0.431673	0.896928
	H68	H	0.591001	0.127785	0.420816
	H69	H	0.594021	0.902392	0.596137
	H70	H	0.416205	0.130069	0.597357
	H71	H	0.414525	0.903099	0.426911
	H72	H	0.924272	0.623628	0.085528
	H73	H	0.096301	0.400575	0.096310
	H74	H	0.090912	0.626964	0.921075
	H75	H	0.920317	0.403718	0.921525
	H76	H	0.087128	0.927130	0.618538
	H77	H	0.098845	0.102239	0.395832
	H78	H	0.917490	0.102857	0.621506
	H79	H	0.911171	0.929645	0.396799
	H80	H	0.614651	0.099410	0.924554
	H81	H	0.392471	0.109282	0.093688
	H82	H	0.619756	0.930213	0.102560
	H83	H	0.394937	0.928155	0.925574
	H84	H	0.618931	0.923862	0.096384
	H85	H	0.395843	0.097168	0.096793
	H86	H	0.617677	0.102799	0.919815
	H87	H	0.396126	0.933453	0.924109
	H88	H	0.916111	0.101320	0.620913
	H89	H	0.091225	0.097782	0.399646
	H90	H	0.095614	0.923741	0.623653
	H91	H	0.920118	0.933358	0.401431
	H92	H	0.094075	0.628150	0.921395
	H93	H	0.087268	0.403107	0.100256
	H94	H	0.912634	0.630530	0.094557
	H95	H	0.915380	0.402697	0.923194
	H96	H	0.422575	0.128018	0.598173
	H97	H	0.589324	0.903083	0.600924
	H98	H	0.589676	0.126488	0.424844
	H99	H	0.417792	0.900317	0.416438
	H100	H	0.599697	0.430634	0.122712
	H101	H	0.591914	0.603789	0.897692
	H102	H	0.413003	0.602883	0.123331
	H103	H	0.419915	0.428070	0.898821
	H104	H	0.111991	0.594609	0.424685
	H105	H	0.892028	0.598897	0.601617
	H106	H	0.115694	0.427698	0.593516
	H107	H	0.892884	0.432057	0.418604
	H108	H	0.927203	0.627356	0.101190
	H109	H	0.089885	0.406099	0.090493
	H110	H	0.092513	0.628665	0.918833
	H111	H	0.917296	0.401370	0.918218
	H112	H	0.095603	0.933516	0.619336
	H113	H	0.090788	0.107424	0.397001
	H114	H	0.918391	0.100956	0.620934
	H115	H	0.919607	0.923392	0.396948
	H116	H	0.616601	0.106221	0.925757
	H117	H	0.389933	0.104904	0.105587
	H118	H	0.615960	0.931481	0.095041
	H119	H	0.394010	0.929571	0.920676
	C120	C	0.385032	0.024269	0.630450
	C121	C	0.626065	1.007508	0.630972
	C122	C	0.626895	0.024129	0.387858
	C123	C	0.385029	1.006943	0.388431
	C124	C	0.626688	0.394956	0.017727
	C125	C	0.627684	0.637372	1.000800
	C126	C	0.383546	0.637249	0.018346
	C127	C	0.383047	0.394452	1.000723
	C128	C	0.012593	0.636405	0.388058
	C129	C	0.996537	0.637166	0.630794
	C130	C	0.014370	0.393450	0.631170
	C131	C	0.996424	0.394270	0.388165
	C132	C	0.885448	0.523813	0.128753
	C133	C	0.126336	0.506759	0.130775
	C134	C	0.126311	0.523369	0.887743
	C135	C	0.883776	0.506569	0.886648
	C136	C	0.126755	0.893690	0.517638
	C137	C	0.127145	0.136350	0.501152
	C138	C	0.883969	0.136177	0.517815
	C139	C	0.882628	0.893861	0.501019
	C140	C	0.513370	0.137828	0.888366
	C141	C	0.496693	0.138092	0.131885
	C142	C	0.514600	0.894357	0.131737
	C143	C	0.497288	0.895250	0.888676
	C144	C	0.378874	0.906778	0.694544
	C145	C	0.633097	0.125343	0.693800
	C146	C	0.631784	0.906258	0.325020
	C147	C	0.379584	0.125392	0.326066
	C148	C	0.688153	0.389799	0.899929
	C149	C	0.692340	0.643554	0.116946
	C150	C	0.320823	0.642753	0.901066
	C151	C	0.320613	0.389234	0.118111
	C152	C	0.894444	0.698800	0.382933
	C153	C	0.114190	0.699828	0.634309
	C154	C	0.896122	0.331343	0.634406
	C155	C	0.114503	0.332500	0.384576
	C156	C	0.896280	0.389095	0.692209
	C157	C	0.114615	0.642145	0.692108
	C158	C	0.895954	0.643093	0.323271
	C159	C	0.113534	0.388945	0.325142
	C160	C	0.379695	0.700151	0.900690
	C161	C	0.631837	0.698740	0.118818
	C162	C	0.629651	0.332566	0.900220
	C163	C	0.379763	0.332757	0.118835
	C164	C	0.689655	0.906387	0.382308
	C165	C	0.688961	0.125853	0.634502
	C166	C	0.322129	0.905937	0.635854
	C167	C	0.322390	0.125258	0.383914
	C168	C	0.878154	0.406069	0.192820
	C169	C	0.132455	0.624383	0.194512
	C170	C	0.130160	0.404107	0.826984
	C171	C	0.879511	0.624962	0.824027
	C172	C	0.190559	0.887644	0.401134
	C173	C	0.189349	0.140699	0.618658
	C174	C	0.820571	0.142748	0.400877
	C175	C	0.819466	0.887897	0.618059
	C176	C	0.394889	0.198609	0.885063
	C177	C	0.614693	0.200608	0.135553
	C178	C	0.396321	0.832155	0.135620
	C179	C	0.615142	0.831916	0.884012
	C180	C	0.396333	0.890094	0.193078
	C181	C	0.614161	0.143874	0.194383
	C182	C	0.396723	0.143938	0.824184
	C183	C	0.614391	0.889042	0.825093
	C184	C	0.879332	0.199675	0.400708
	C185	C	0.130515	0.197900	0.619150
	C186	C	0.130402	0.831923	0.399889
	C187	C	0.878377	0.831061	0.618368
	C188	C	0.187842	0.404385	0.884770
	C189	C	0.189086	0.625157	0.135775
	C190	C	0.822074	0.405765	0.133741
	C191	C	0.821240	0.624994	0.881180
	C192	C	0.411772	0.106822	0.603493
	C193	C	0.598671	0.925092	0.604650
	C194	C	0.599434	0.106013	0.415418
	C195	C	0.411631	0.924225	0.414710
	C196	C	0.601326	0.421916	0.099412
	C197	C	0.600335	0.610467	0.919313
	C198	C	0.410055	0.609968	0.099987
	C199	C	0.408579	0.420509	0.918466
	C200	C	0.093819	0.609819	0.415181
	C201	C	0.914302	0.609851	0.604792
	C202	C	0.096834	0.419778	0.605728
	C203	C	0.914460	0.421073	0.414598
	C204	C	0.913348	0.605754	0.101391
	C205	C	0.098910	0.424570	0.103672
	C206	C	0.100085	0.606107	0.913158
	C207	C	0.910210	0.424171	0.913395
	C208	C	0.100341	0.920508	0.599112
	C209	C	0.101059	0.110104	0.418966
	C210	C	0.909979	0.109292	0.599783
	C211	C	0.909148	0.921094	0.419669
	C212	C	0.595093	0.110541	0.915594
	C213	C	0.414313	0.111435	0.106072
	C214	C	0.596775	0.920961	0.105608
	C215	C	0.416409	0.922487	0.915680
	Zn216	Zn	0.505297	0.016938	0.759528
	Zn217	Zn	0.505468	0.016101	0.259667
	Zn218	Zn	0.756074	0.515855	0.008641
	Zn219	Zn	0.254361	0.515332	0.009166
	Zn220	Zn	0.004269	0.764973	0.508666
	Zn221	Zn	0.005238	0.265135	0.509444
	Zn222	Zn	0.005862	0.515123	0.758826
	Zn223	Zn	0.004572	0.515405	0.258914
	Zn224	Zn	0.505957	0.765987	0.010298
	Zn225	Zn	0.504667	0.266499	0.009601
	Zn226	Zn	0.754163	0.015881	0.509448
	Zn227	Zn	0.256596	0.015231	0.509076
	N228	N	0.417052	0.981454	0.691342
	N229	N	0.594914	0.050390	0.692027
	N230	N	0.593574	0.980846	0.328222
	N231	N	0.417805	0.050811	0.328800
	N232	N	0.686512	0.427964	0.973959
	N233	N	0.690218	0.606522	0.042229
	N234	N	0.322962	0.604614	0.975226
	N235	N	0.322406	0.426910	0.043575
	N236	N	0.967775	0.694781	0.422643
	N237	N	0.039596	0.697107	0.597233
	N238	N	0.970524	0.333982	0.596958
	N239	N	0.040441	0.335640	0.422981
	N240	N	0.970776	0.427159	0.690049
	N241	N	0.040114	0.603899	0.690031
	N242	N	0.970211	0.605043	0.326139
	N243	N	0.039056	0.426362	0.327138
	N244	N	0.417855	0.696976	0.974813
	N245	N	0.592436	0.695150	0.045418
	N246	N	0.592419	0.335519	0.974442
	N247	N	0.417624	0.335878	0.044875
	N248	N	0.686706	0.980893	0.420627
	N249	N	0.684693	0.051416	0.596278
	N250	N	0.325782	0.980256	0.596735
	N251	N	0.325539	0.050478	0.421977
	N252	N	0.916690	0.480759	0.189947
	N253	N	0.094286	0.549670	0.191583
	N254	N	0.092803	0.479313	0.828275
	N255	N	0.917435	0.550276	0.827162
	N256	N	0.188437	0.925495	0.475369
	N257	N	0.187253	0.103077	0.544311
	N258	N	0.823551	0.103795	0.474694
	N259	N	0.821752	0.926256	0.543938
	N260	N	0.468434	0.194934	0.924209
	N261	N	0.540539	0.197065	0.097242
	N262	N	0.470808	0.834693	0.098218
	N263	N	0.541411	0.835367	0.922725
	N264	N	0.471046	0.927842	0.191106
	N265	N	0.539727	0.105952	0.192337
	N266	N	0.471747	0.107112	0.825982
	N267	N	0.540334	0.927700	0.827819
	N268	N	0.918169	0.195656	0.474303
	N269	N	0.092891	0.195532	0.544828
	N270	N	0.091443	0.835421	0.473290
	N271	N	0.916693	0.834517	0.544647
	N272	N	0.185449	0.479636	0.921576
	N273	N	0.185495	0.550764	0.096949
	N274	N	0.826458	0.479821	0.094460
	N275	N	0.823377	0.550105	0.919162
	O276	O	0.330564	0.691730	0.334421
	H277	H	0.351009	0.673488	0.325478
	H278	H	0.316977	0.685758	0.367458
	O279	O	0.936537	-0.199712	0.942710
	H280	H	0.952540	-0.186928	0.921472
	H281	H	0.969432	-0.204103	0.943099
	O282	O	0.685678	0.692415	0.684016
	H283	H	0.646294	0.707574	0.686210
	H284	H	0.689818	0.665597	0.667836
	O285	O	0.329680	0.348023	0.676509
	H286	H	0.340685	0.337595	0.652040
	H287	H	0.352032	0.363118	0.688139
	O288	O	0.820910	1.179122	-0.174868
	H289	H	0.828230	1.155802	-0.188706
	H290	H	0.844784	1.189860	-0.161336
	O291	O	0.543463	0.479217	0.726909
	H292	H	0.541897	0.453345	0.733088
	H293	H	0.561256	0.466961	0.718468
	O294	O	-0.068374	0.086872	1.226505
	H295	H	-0.055580	0.118849	1.212928
	H296	H	-0.045142	0.060731	1.228988
	O297	O	1.001455	0.221561	-0.156894
	H298	H	1.002670	0.230969	-0.157055
	H299	H	1.019971	0.206802	-0.171738
	O300	O	0.990353	1.135773	-0.067242
	H301	H	0.990405	1.114335	-0.060898
	H302	H	1.004873	1.139033	-0.068824
	O303	O	0.489858	0.303319	0.483480
	H304	H	0.492776	0.315257	0.493428
	H305	H	0.479346	0.311734	0.474926
	O306	O	0.297424	0.467622	0.452030
	H307	H	0.288206	0.481324	0.459174
	H308	H	0.295893	0.462493	0.453961
	O309	O	0.487821	0.305216	0.723001
	H310	H	0.495480	0.287249	0.709859
	H311	H	0.499067	0.281256	0.723897
	O312	O	0.190168	1.194587	1.194352
	H313	H	0.145441	1.207067	1.196992
	H314	H	0.194445	1.179834	1.162496
	O315	O	0.292878	0.727011	0.490305
	H316	H	0.288171	0.742567	0.483525
	H317	H	0.301461	0.748381	0.501566
	O318	O	0.982673	0.008912	-0.205353
	H319	H	0.964341	0.015838	-0.200321
	H320	H	0.992334	0.015079	-0.194151
	O321	O	-0.210285	0.228298	-0.012519
	H322	H	-0.210485	0.233525	-0.037717
	H323	H	-0.227759	0.240445	-0.009199
	O324	O	0.303900	0.504617	0.728429
	H325	H	0.313391	0.490796	0.709615
	H326	H	0.275597	0.497021	0.759048
	O327	O	0.708831	0.350191	0.511588
	H328	H	0.709027	0.347892	0.512528
	H329	H	0.723210	0.367260	0.511465
	O330	O	-0.199063	0.806126	0.029222
	H331	H	-0.222513	0.770202	0.024047
	H332	H	-0.163215	0.796045	0.005476
	O333	O	0.217881	0.802450	0.986548
	H334	H	0.226269	0.788411	0.993138
	H335	H	0.235092	0.806704	0.992607
	O336	O	0.113300	-0.005158	0.064286
	H337	H	0.110540	0.003125	0.078507
	H338	H	0.100283	-0.004537	0.071787
	O339	O	-0.215123	1.000141	0.983487
	H340	H	-0.212525	0.988053	0.993470
	H341	H	-0.218539	0.984414	1.001815
	O342	O	0.126885	1.009016	1.114209
	H343	H	0.118770	1.001765	1.116216
	H344	H	0.143977	1.002371	1.123406
	O345	O	1.490089	0.723034	-0.701329
	H346	H	1.470794	0.732931	-0.710255
	H347	H	1.495092	0.723079	-0.717924
	O348	O	0.215624	0.030389	0.218033
	H349	H	0.241111	0.046749	0.247411
	H350	H	0.197639	0.040931	0.204637
	O351	O	0.209071	1.214320	1.029399
	H352	H	0.214439	1.208404	1.026289
	H353	H	0.205949	1.222358	1.025017
	O354	O	-0.473708	0.301400	0.295741
	H355	H	-0.494187	0.300695	0.301413
	H356	H	-0.481945	0.280639	0.275062
	O357	O	-0.469028	-0.441954	0.417418
	H358	H	-0.480424	-0.454078	0.425883
	H359	H	-0.456845	-0.453833	0.414728
	O360	O	0.498803	0.405660	0.347356
	H361	H	0.487332	0.417888	0.331446
	H362	H	0.520572	0.382067	0.341218
	O363	O	-0.711454	-0.465154	1.295771
	H364	H	-0.728012	-0.451604	1.288025
	H365	H	-0.714969	-0.478873	1.287857
	O366	O	0.795078	0.038380	1.021789
	H367	H	0.791651	0.022164	1.031344
	H368	H	0.793443	0.065646	1.009801
	O369	O	0.638869	0.464879	0.547942
	H370	H	0.634978	0.487834	0.543584
	H371	H	0.635655	0.484298	0.564590
	O372	O	0.989935	-0.114664	0.951846
	H373	H	0.999605	-0.101509	0.956234
	H374	H	0.971771	-0.120493	0.963598
	O375	O	0.006125	0.104945	-0.004216
	H376	H	-0.014871	0.109621	0.003976
	H377	H	0.008864	0.097762	-0.004179
	O378	O	0.720963	0.734203	0.526199
	H379	H	0.730312	0.763627	0.521257
	H380	H	0.718297	0.737365	0.541384
	O381	O	0.295536	0.299331	0.527043
	H382	H	0.285398	0.294540	0.532340
	H383	H	0.286578	0.293192	0.525334
	O384	O	0.526540	0.729111	0.716188
	H385	H	0.516321	0.731507	0.730990
	H386	H	0.519241	0.726529	0.730455
	O387	O	0.075680	-0.119932	1.150097
	H388	H	0.081531	-0.129226	1.147075
	H389	H	0.079474	-0.117706	1.159803
	O390	O	-0.432001	-0.655239	0.588365
	H391	H	-0.438584	-0.638408	0.568137
	H392	H	-0.402815	-0.651534	0.577955
	O393	O	0.834393	0.840437	1.181872
	H394	H	0.818606	0.891407	1.194956
	H395	H	0.816805	0.827008	1.132599
	O396	O	1.487313	0.731685	-0.487777
	H397	H	1.521702	0.734794	-0.484607
	H398	H	1.494802	0.729883	-0.482654
	O399	O	1.187753	-0.011412	1.003495
	H400	H	1.191859	-0.012711	1.004766
	H401	H	1.188094	-0.026449	0.987781
	O402	O	1.187824	0.837133	0.828887
	H403	H	1.194763	0.838287	0.866523
	H404	H	1.145183	0.827604	0.820831
	O405	O	0.989653	0.802316	0.225081
	H406	H	0.985456	0.768811	0.249291
	H407	H	0.940136	0.815194	0.213693
	O408	O	1.026469	-0.199480	-0.206524
	H409	H	1.027775	-0.221320	-0.244626
	H410	H	1.009539	-0.166877	-0.216802
	O411	O	1.202347	1.017585	-0.170892
	H412	H	1.228850	1.006538	-0.188620
	H413	H	1.195472	0.985874	-0.155908
	O414	O	0.515019	0.727063	0.504072
	H415	H	0.497229	0.701322	0.499909
	H416	H	0.517389	0.735466	0.481768
	O417	O	0.523744	0.530650	0.301479
	H418	H	0.512147	0.553659	0.293545
	H419	H	0.520129	0.515721	0.312296
	O420	O	0.029276	0.229215	0.221242
	H421	H	0.011671	0.231513	0.206575
	H422	H	0.027193	0.254417	0.237521
	O423	O	0.720590	0.562877	0.465341
	H424	H	0.722200	0.592928	0.462609
	H425	H	0.709119	0.569675	0.454837
	O426	O	0.791235	0.996069	0.222179
	H427	H	0.765632	0.997951	0.257698
	H428	H	0.819826	1.024009	0.221525
	O429	O	0.403539	0.524986	0.543682
	H430	H	0.397535	0.532824	0.545621
	H431	H	0.396243	0.543494	0.546405
	O432	O	0.714948	0.535305	0.724036
	H433	H	0.718931	0.537714	0.735481
	H434	H	0.723154	0.545425	0.728592
	O435	O	0.410802	0.588915	0.699804
	H436	H	0.414626	0.563227	0.711592
	H437	H	0.403437	0.581909	0.695024
	O438	O	0.014185	0.190745	0.011338
	H439	H	-0.006720	0.179674	0.005475
	H440	H	0.020291	0.192133	-0.011908
	O441	O	1.061832	0.063808	-0.105837
	H442	H	1.065679	0.058621	-0.109838
	H443	H	1.052156	0.049668	-0.096907
	O444	O	-0.185426	1.029125	0.792451
	H445	H	-0.200213	1.023448	0.812212
	H446	H	-0.209236	1.046322	0.777877
	O447	O	0.715862	0.503405	0.301210
	H448	H	0.720401	0.495592	0.297205
	H449	H	0.725418	0.486147	0.298000
	O450	O	0.385465	0.475720	0.479292
	H451	H	0.389543	0.489885	0.497321
	H452	H	0.385583	0.480268	0.478130
	O453	O	0.688154	0.339028	0.328493
	H454	H	0.650010	0.343296	0.317359
	H455	H	0.680905	0.330273	0.361390
