data_Molecule from HDF5

_cell_length_a		16.296140
_cell_length_b		16.373103
_cell_length_c		16.218546
_cell_angle_alpha	90.072476
_cell_angle_beta	90.055311
_cell_angle_gamma	90.037040
_symmetry_space_group_name_H-M	'P 1'
_symmetry_Int_Tables_number		1

loop_
	_symmetry_equiv_pos_as_xyz
	x,y,z

loop_
	_atom_site_label
	_atom_site_type_symbol
	_atom_site_fract_x
	_atom_site_fract_y
	_atom_site_fract_z
	H0	H	0.398285	0.836781	0.714744
	H1	H	0.593510	0.163557	0.713526
	H2	H	0.592828	0.835862	0.287051
	H3	H	0.398500	0.163363	0.287065
	H4	H	0.709407	0.401926	0.836065
	H5	H	0.709776	0.597671	0.165539
	H6	H	0.283929	0.596693	0.835799
	H7	H	0.283030	0.401789	0.165081
	H8	H	0.832644	0.713400	0.402358
	H9	H	0.158903	0.715575	0.601124
	H10	H	0.833753	0.283927	0.600825
	H11	H	0.159720	0.284699	0.401607
	H12	H	0.832776	0.402807	0.713672
	H13	H	0.160622	0.595902	0.713621
	H14	H	0.832617	0.596098	0.287130
	H15	H	0.160441	0.403057	0.287658
	H16	H	0.397119	0.714550	0.836925
	H17	H	0.595975	0.715509	0.164159
	H18	H	0.595848	0.285003	0.836880
	H19	H	0.398944	0.286053	0.164772
	H20	H	0.711160	0.836229	0.402062
	H21	H	0.712173	0.161638	0.599795
	H22	H	0.280547	0.837243	0.598811
	H23	H	0.280814	0.162322	0.402182
	H24	H	0.899730	0.336457	0.214339
	H25	H	0.094457	0.663066	0.215355
	H26	H	0.093537	0.336193	0.786459
	H27	H	0.898735	0.662498	0.786560
	H28	H	0.209027	0.902211	0.336370
	H29	H	0.210041	0.097686	0.664387
	H30	H	0.783370	0.096084	0.335795
	H31	H	0.783638	0.903853	0.665509
	H32	H	0.332707	0.214131	0.901757
	H33	H	0.660567	0.214174	0.100104
	H34	H	0.333555	0.784343	0.100204
	H35	H	0.659127	0.783852	0.900454
	H36	H	0.332537	0.902952	0.212985
	H37	H	0.660769	0.095605	0.213683
	H38	H	0.331990	0.096005	0.787902
	H39	H	0.660680	0.903970	0.787828
	H40	H	0.897014	0.214042	0.337112
	H41	H	0.096259	0.215006	0.663593
	H42	H	0.095057	0.784602	0.337129
	H43	H	0.895862	0.785237	0.665035
	H44	H	0.211205	0.336700	0.901345
	H45	H	0.212664	0.662411	0.099831
	H46	H	0.781406	0.336721	0.099218
	H47	H	0.781265	0.662609	0.901911
	H48	H	0.397402	0.119716	0.602620
	H49	H	0.592590	0.881828	0.596038
	H50	H	0.584819	0.113506	0.408337
	H51	H	0.406763	0.884878	0.405971
	H52	H	0.586914	0.407486	0.116107
	H53	H	0.587994	0.592992	0.884023
	H54	H	0.396008	0.592984	0.120103
	H55	H	0.397275	0.405930	0.880945
	H56	H	0.115428	0.596711	0.402127
	H57	H	0.878982	0.588259	0.600745
	H58	H	0.111052	0.414230	0.594956
	H59	H	0.879381	0.404704	0.404498
	H60	H	0.116136	0.401385	0.598559
	H61	H	0.877210	0.601166	0.593925
	H62	H	0.112584	0.597137	0.413915
	H63	H	0.880101	0.403166	0.409895
	H64	H	0.408449	0.585569	0.114087
	H65	H	0.588682	0.592273	0.883665
	H66	H	0.589717	0.403730	0.119533
	H67	H	0.407055	0.411186	0.886327
	H68	H	0.593317	0.114295	0.412780
	H69	H	0.587639	0.884105	0.595401
	H70	H	0.411953	0.112962	0.593624
	H71	H	0.400361	0.884782	0.411775
	H72	H	0.902644	0.613982	0.088778
	H73	H	0.087002	0.385353	0.092891
	H74	H	0.086682	0.615416	0.905695
	H75	H	0.906910	0.383743	0.900759
	H76	H	0.083431	0.912105	0.615426
	H77	H	0.089467	0.094421	0.382082
	H78	H	0.916220	0.089434	0.613217
	H79	H	0.904993	0.900294	0.382204
	H80	H	0.617358	0.094686	0.891874
	H81	H	0.378557	0.098879	0.094348
	H82	H	0.612417	0.905017	0.088244
	H83	H	0.382591	0.907278	0.915647
	H84	H	0.611793	0.911521	0.093404
	H85	H	0.382144	0.093053	0.090250
	H86	H	0.614374	0.106984	0.916925
	H87	H	0.380063	0.912494	0.901123
	H88	H	0.901828	0.104530	0.622001
	H89	H	0.089296	0.090453	0.382943
	H90	H	0.086594	0.898330	0.619734
	H91	H	0.898506	0.905683	0.382334
	H92	H	0.090999	0.614097	0.911960
	H93	H	0.093879	0.384057	0.091699
	H94	H	0.898564	0.617218	0.095849
	H95	H	0.905212	0.386662	0.914434
	H96	H	0.396159	0.114927	0.585372
	H97	H	0.591148	0.884546	0.591043
	H98	H	0.592459	0.117098	0.403706
	H99	H	0.399775	0.882197	0.403380
	H100	H	0.591977	0.408087	0.117866
	H101	H	0.588402	0.591791	0.884846
	H102	H	0.409557	0.600491	0.118583
	H103	H	0.407633	0.399891	0.882896
	H104	H	0.111049	0.587001	0.408058
	H105	H	0.883194	0.590066	0.586281
	H106	H	0.111286	0.403404	0.584997
	H107	H	0.880873	0.408961	0.409043
	H108	H	0.907157	0.614779	0.096144
	H109	H	0.091449	0.382931	0.097610
	H110	H	0.094150	0.616405	0.905346
	H111	H	0.894702	0.381408	0.906275
	H112	H	0.097280	0.908660	0.619543
	H113	H	0.086509	0.093038	0.383647
	H114	H	0.894741	0.083093	0.617702
	H115	H	0.906522	0.908224	0.385175
	H116	H	0.606504	0.079904	0.913634
	H117	H	0.379831	0.092122	0.097814
	H118	H	0.614531	0.903712	0.096975
	H119	H	0.376762	0.898157	0.904963
	C120	C	0.374118	0.008202	0.621794
	C121	C	0.618656	0.991128	0.622503
	C122	C	0.618516	0.007527	0.379059
	C123	C	0.373967	0.991696	0.378674
	C124	C	0.617985	0.377830	0.009048
	C125	C	0.617343	0.621066	0.992645
	C126	C	0.375844	0.620892	0.008967
	C127	C	0.375481	0.377854	0.992073
	C128	C	0.004666	0.621351	0.379625
	C129	C	0.987738	0.621245	0.622500
	C130	C	0.004937	0.378074	0.621688
	C131	C	0.988290	0.377681	0.379147
	C132	C	0.874853	0.508020	0.122190
	C133	C	0.118821	0.491930	0.122533
	C134	C	0.118294	0.507538	0.878973
	C135	C	0.874382	0.491403	0.878760
	C136	C	0.117316	0.878295	0.509499
	C137	C	0.117241	0.120846	0.491445
	C138	C	0.875218	0.120702	0.509185
	C139	C	0.874921	0.877912	0.492387
	C140	C	0.504394	0.121702	0.879138
	C141	C	0.488358	0.122051	0.122574
	C142	C	0.504685	0.878890	0.121171
	C143	C	0.488153	0.878198	0.878997
	C144	C	0.377494	0.885387	0.676623
	C145	C	0.614544	0.114348	0.676225
	C146	C	0.614570	0.884765	0.324236
	C147	C	0.377555	0.114352	0.324337
	C148	C	0.671999	0.381081	0.885266
	C149	C	0.672515	0.618474	0.116171
	C150	C	0.320997	0.617763	0.885153
	C151	C	0.320839	0.381376	0.115966
	C152	C	0.881490	0.675637	0.381857
	C153	C	0.110907	0.676359	0.620503
	C154	C	0.882154	0.322432	0.620256
	C155	C	0.111004	0.322297	0.381119
	C156	C	0.881652	0.381369	0.676388
	C157	C	0.111372	0.617670	0.677039
	C158	C	0.881372	0.617095	0.324926
	C159	C	0.111367	0.381145	0.324665
	C160	C	0.377384	0.676101	0.885540
	C161	C	0.615971	0.676966	0.115615
	C162	C	0.615622	0.322772	0.885783
	C163	C	0.378387	0.323915	0.116033
	C164	C	0.673315	0.884864	0.381336
	C165	C	0.673914	0.113506	0.620187
	C166	C	0.318880	0.885604	0.619431
	C167	C	0.319003	0.114003	0.381612
	C168	C	0.878606	0.385004	0.176782
	C169	C	0.115523	0.614375	0.177516
	C170	C	0.114494	0.384997	0.824163
	C171	C	0.877514	0.614017	0.824016
	C172	C	0.171626	0.881259	0.385537
	C173	C	0.172572	0.118329	0.615169
	C174	C	0.820310	0.117322	0.385303
	C175	C	0.820555	0.881967	0.616239
	C176	C	0.381492	0.176641	0.881273
	C177	C	0.611672	0.176308	0.120363
	C178	C	0.382095	0.822715	0.119912
	C179	C	0.610766	0.822553	0.880781
	C180	C	0.381454	0.881835	0.175758
	C181	C	0.611756	0.117877	0.177088
	C182	C	0.381156	0.117653	0.825033
	C183	C	0.611548	0.882286	0.824865
	C184	C	0.876870	0.175726	0.385640
	C185	C	0.115757	0.176246	0.615021
	C186	C	0.114896	0.823064	0.385870
	C187	C	0.876903	0.823604	0.616180
	C188	C	0.173031	0.385270	0.881242
	C189	C	0.174273	0.614093	0.120305
	C190	C	0.820156	0.385048	0.119399
	C191	C	0.819187	0.613915	0.881378
	C192	C	0.395625	0.093873	0.600269
	C193	C	0.596991	0.905603	0.600482
	C194	C	0.596773	0.092871	0.401736
	C195	C	0.395841	0.905988	0.400516
	C196	C	0.595921	0.399907	0.095658
	C197	C	0.595024	0.598866	0.906640
	C198	C	0.398154	0.599365	0.095157
	C199	C	0.397454	0.399287	0.905683
	C200	C	0.090939	0.599976	0.401689
	C201	C	0.902095	0.599717	0.600329
	C202	C	0.090673	0.400120	0.599373
	C203	C	0.902135	0.399225	0.401262
	C204	C	0.896569	0.593240	0.100260
	C205	C	0.097267	0.406236	0.100464
	C206	C	0.096834	0.593309	0.901074
	C207	C	0.896059	0.406079	0.900699
	C208	C	0.095494	0.899921	0.595841
	C209	C	0.095095	0.098982	0.405109
	C210	C	0.897635	0.098950	0.595326
	C211	C	0.896889	0.898680	0.405628
	C212	C	0.590547	0.100335	0.901107
	C213	C	0.402327	0.100876	0.100629
	C214	C	0.590641	0.900512	0.099298
	C215	C	0.402052	0.899533	0.900843
	Zn216	Zn	0.496188	-0.000125	0.750655
	Zn217	Zn	0.496357	-0.000381	0.250009
	Zn218	Zn	0.745505	0.499308	0.000784
	Zn219	Zn	0.248048	0.499629	0.000295
	Zn220	Zn	-0.004040	0.749995	0.501569
	Zn221	Zn	-0.003656	0.248859	0.500608
	Zn222	Zn	-0.003537	0.499567	0.750308
	Zn223	Zn	-0.003446	0.499577	0.251344
	Zn224	Zn	0.496210	0.749782	0.000729
	Zn225	Zn	0.496915	0.249896	0.000772
	Zn226	Zn	0.747324	-0.000611	0.500768
	Zn227	Zn	0.245070	-0.000366	0.500742
	N228	N	0.411113	0.962491	0.678229
	N229	N	0.580828	0.037211	0.677884
	N230	N	0.581149	0.961906	0.322724
	N231	N	0.410940	0.037124	0.322371
	N232	N	0.673735	0.414478	0.963054
	N233	N	0.673639	0.584491	0.038568
	N234	N	0.320180	0.583800	0.962630
	N235	N	0.319039	0.414404	0.037899
	N236	N	0.959016	0.678267	0.415157
	N237	N	0.033066	0.679122	0.587672
	N238	N	0.959783	0.320354	0.586797
	N239	N	0.033256	0.320053	0.414302
	N240	N	0.958887	0.415083	0.677567
	N241	N	0.034074	0.583937	0.678148
	N242	N	0.959221	0.584335	0.323268
	N243	N	0.034099	0.414741	0.323364
	N244	N	0.410705	0.678321	0.963675
	N245	N	0.582225	0.678509	0.037875
	N246	N	0.582727	0.320993	0.963890
	N247	N	0.411273	0.321300	0.038060
	N248	N	0.675652	0.962067	0.414829
	N249	N	0.676269	0.036179	0.587199
	N250	N	0.316838	0.962762	0.586016
	N251	N	0.316728	0.036699	0.414661
	N252	N	0.912006	0.462263	0.178510
	N253	N	0.081751	0.537390	0.179047
	N254	N	0.081210	0.462247	0.822694
	N255	N	0.911204	0.537075	0.822517
	N256	N	0.173234	0.914816	0.463305
	N257	N	0.173480	0.084606	0.537426
	N258	N	0.819202	0.083832	0.463181
	N259	N	0.819501	0.915191	0.538458
	N260	N	0.459258	0.179059	0.914426
	N261	N	0.533971	0.179133	0.087190
	N262	N	0.459762	0.820830	0.086591
	N263	N	0.532898	0.819872	0.913631
	N264	N	0.458482	0.915921	0.176614
	N265	N	0.534206	0.084846	0.178503
	N266	N	0.458552	0.084373	0.823427
	N267	N	0.534354	0.916114	0.823671
	N268	N	0.910211	0.178150	0.463543
	N269	N	0.082115	0.177934	0.537196
	N270	N	0.081868	0.820940	0.463967
	N271	N	0.910022	0.820984	0.538045
	N272	N	0.175423	0.462514	0.914711
	N273	N	0.176306	0.537016	0.086675
	N274	N	0.817415	0.462318	0.086413
	N275	N	0.816873	0.536608	0.914544
	O276	O	0.990304	-0.025533	1.021401
	H277	H	0.991214	-0.028121	1.022743
	H278	H	0.987492	-0.021536	1.026956
	O279	O	0.539385	0.521732	0.502909
	H280	H	0.543883	0.524796	0.505005
	H281	H	0.539832	0.523633	0.504606
	O282	O	1.015019	0.989534	0.051597
	H283	H	1.018375	0.993596	0.056861
	H284	H	1.010866	0.988584	0.055577
	O285	O	0.508546	0.520672	0.469899
	H286	H	0.513413	0.523593	0.466846
	H287	H	0.506706	0.517814	0.472170
