data_Molecule from HDF5

_cell_length_a		16.213049
_cell_length_b		16.265825
_cell_length_c		16.400948
_cell_angle_alpha	89.886408
_cell_angle_beta	90.125706
_cell_angle_gamma	89.897210
_symmetry_space_group_name_H-M	'P 1'
_symmetry_Int_Tables_number		1

loop_
	_symmetry_equiv_pos_as_xyz
	x,y,z

loop_
	_atom_site_label
	_atom_site_type_symbol
	_atom_site_fract_x
	_atom_site_fract_y
	_atom_site_fract_z
	H0	H	0.392646	0.837451	0.720654
	H1	H	0.600971	0.159343	0.719901
	H2	H	0.601300	0.835893	0.283378
	H3	H	0.393935	0.158625	0.281105
	H4	H	0.716910	0.396591	0.842655
	H5	H	0.716728	0.599186	0.165586
	H6	H	0.280881	0.597814	0.842655
	H7	H	0.285180	0.397840	0.166994
	H8	H	0.835058	0.712782	0.403116
	H9	H	0.162382	0.715028	0.603258
	H10	H	0.836277	0.282214	0.604746
	H11	H	0.161855	0.281845	0.403125
	H12	H	0.838452	0.394530	0.723132
	H13	H	0.162442	0.600518	0.721521
	H14	H	0.837560	0.603843	0.283366
	H15	H	0.161780	0.397471	0.287241
	H16	H	0.396134	0.714623	0.841823
	H17	H	0.600326	0.715517	0.165110
	H18	H	0.600865	0.280319	0.841981
	H19	H	0.396428	0.276601	0.163968
	H20	H	0.714076	0.834818	0.401390
	H21	H	0.712720	0.160623	0.601777
	H22	H	0.282778	0.835029	0.600651
	H23	H	0.281213	0.160515	0.398831
	H24	H	0.898916	0.336304	0.221041
	H25	H	0.099619	0.661876	0.219451
	H26	H	0.104990	0.336186	0.786528
	H27	H	0.896564	0.659706	0.786030
	H28	H	0.213556	0.898777	0.339203
	H29	H	0.218929	0.099900	0.661519
	H30	H	0.780340	0.099156	0.339982
	H31	H	0.780640	0.896774	0.662392
	H32	H	0.335800	0.215311	0.901270
	H33	H	0.662112	0.210685	0.101372
	H34	H	0.335051	0.782210	0.102922
	H35	H	0.661536	0.782204	0.903640
	H36	H	0.335728	0.895853	0.219068
	H37	H	0.659654	0.100262	0.220612
	H38	H	0.334721	0.101284	0.784243
	H39	H	0.660233	0.893212	0.782808
	H40	H	0.896019	0.217741	0.341505
	H41	H	0.102104	0.215208	0.663234
	H42	H	0.098997	0.781110	0.339921
	H43	H	0.896962	0.780703	0.663041
	H44	H	0.212795	0.333527	0.909050
	H45	H	0.215271	0.661271	0.104575
	H46	H	0.785749	0.334192	0.103875
	H47	H	0.782514	0.660399	0.904288
	H48	H	0.407159	0.114853	0.596697
	H49	H	0.594312	0.877860	0.601843
	H50	H	0.589231	0.115020	0.407733
	H51	H	0.410368	0.879630	0.398333
	H52	H	0.593268	0.398851	0.120377
	H53	H	0.584336	0.594570	0.889780
	H54	H	0.407921	0.591014	0.119024
	H55	H	0.419504	0.402560	0.892106
	H56	H	0.113470	0.586941	0.414847
	H57	H	0.882131	0.594996	0.594933
	H58	H	0.115276	0.410929	0.598991
	H59	H	0.883220	0.408753	0.412809
	H60	H	0.118197	0.401261	0.596955
	H61	H	0.886996	0.584754	0.590459
	H62	H	0.116343	0.587839	0.407591
	H63	H	0.883080	0.409968	0.412838
	H64	H	0.407542	0.590548	0.119505
	H65	H	0.597015	0.591863	0.886373
	H66	H	0.594030	0.409161	0.117661
	H67	H	0.397927	0.398386	0.883907
	H68	H	0.583840	0.112264	0.409372
	H69	H	0.576053	0.885368	0.595034
	H70	H	0.412530	0.111562	0.590898
	H71	H	0.414696	0.886974	0.417336
	H72	H	0.903026	0.612690	0.085347
	H73	H	0.090968	0.380305	0.104200
	H74	H	0.088507	0.611874	0.917355
	H75	H	0.915424	0.385780	0.916184
	H76	H	0.087904	0.902006	0.617238
	H77	H	0.085296	0.098729	0.384829
	H78	H	0.909684	0.081092	0.612438
	H79	H	0.904199	0.907555	0.386358
	H80	H	0.613892	0.095853	0.917947
	H81	H	0.381432	0.090354	0.090125
	H82	H	0.612593	0.907442	0.085664
	H83	H	0.379774	0.903528	0.907211
	H84	H	0.613740	0.913975	0.097815
	H85	H	0.383561	0.084617	0.089669
	H86	H	0.610848	0.077495	0.909809
	H87	H	0.383843	0.905819	0.914205
	H88	H	0.911940	0.097829	0.617586
	H89	H	0.095875	0.088464	0.385210
	H90	H	0.094209	0.908829	0.617055
	H91	H	0.908827	0.907791	0.388624
	H92	H	0.093785	0.615123	0.910813
	H93	H	0.086998	0.384255	0.095012
	H94	H	0.903244	0.618509	0.103236
	H95	H	0.901893	0.380913	0.917077
	H96	H	0.404287	0.113746	0.589305
	H97	H	0.592802	0.884208	0.581924
	H98	H	0.588396	0.111685	0.413111
	H99	H	0.395871	0.879599	0.412910
	H100	H	0.584233	0.403920	0.116960
	H101	H	0.589363	0.582925	0.891864
	H102	H	0.407232	0.589856	0.118838
	H103	H	0.403053	0.419215	0.892556
	H104	H	0.116129	0.593642	0.412663
	H105	H	0.883348	0.584641	0.601260
	H106	H	0.113959	0.407538	0.589908
	H107	H	0.882898	0.409389	0.412074
	H108	H	0.918968	0.610957	0.096201
	H109	H	0.097193	0.380634	0.095638
	H110	H	0.085458	0.612812	0.909626
	H111	H	0.908730	0.379525	0.904748
	H112	H	0.086337	0.910608	0.613411
	H113	H	0.083236	0.085655	0.390722
	H114	H	0.896553	0.090035	0.619921
	H115	H	0.907525	0.903143	0.385843
	H116	H	0.618616	0.092300	0.898959
	H117	H	0.381668	0.086436	0.095657
	H118	H	0.616771	0.900305	0.096240
	H119	H	0.382668	0.911628	0.908183
	C120	C	0.376589	0.006505	0.622397
	C121	C	0.618677	0.989213	0.623153
	C122	C	0.618184	0.005868	0.380284
	C123	C	0.376401	0.989116	0.378850
	C124	C	0.620826	0.374693	0.011867
	C125	C	0.620341	0.619537	0.996034
	C126	C	0.376750	0.620042	0.012430
	C127	C	0.377506	0.375954	0.995992
	C128	C	0.007786	0.619875	0.381501
	C129	C	0.991379	0.619498	0.625175
	C130	C	0.008484	0.376014	0.625579
	C131	C	0.990516	0.378553	0.382474
	C132	C	0.878448	0.506585	0.125020
	C133	C	0.121166	0.489722	0.126888
	C134	C	0.120455	0.506043	0.883549
	C135	C	0.878002	0.489320	0.882741
	C136	C	0.119206	0.877016	0.509164
	C137	C	0.120100	0.120370	0.493091
	C138	C	0.875474	0.120542	0.510325
	C139	C	0.876182	0.876001	0.493105
	C140	C	0.506576	0.119042	0.879623
	C141	C	0.489640	0.117871	0.122670
	C142	C	0.507004	0.876681	0.123541
	C143	C	0.489429	0.876001	0.879663
	C144	C	0.375099	0.885318	0.680628
	C145	C	0.619753	0.110861	0.680830
	C146	C	0.619252	0.884094	0.322831
	C147	C	0.375330	0.110684	0.320619
	C148	C	0.678234	0.376410	0.890882
	C149	C	0.677794	0.618801	0.117190
	C150	C	0.319200	0.618366	0.890941
	C151	C	0.322465	0.377286	0.118041
	C152	C	0.884564	0.675847	0.382683
	C153	C	0.113580	0.676763	0.623894
	C154	C	0.885458	0.319671	0.625101
	C155	C	0.113034	0.320794	0.383470
	C156	C	0.886748	0.375527	0.683773
	C157	C	0.113653	0.619556	0.682389
	C158	C	0.885685	0.621115	0.323376
	C159	C	0.113014	0.378065	0.325614
	C160	C	0.376748	0.676270	0.890475
	C161	C	0.619968	0.677005	0.116825
	C162	C	0.620249	0.318602	0.890376
	C163	C	0.377873	0.316978	0.116465
	C164	C	0.675800	0.883596	0.381228
	C165	C	0.675331	0.111558	0.621812
	C166	C	0.320083	0.884294	0.620946
	C167	C	0.319090	0.111431	0.378894
	C168	C	0.879280	0.384604	0.182425
	C169	C	0.119900	0.612780	0.181893
	C170	C	0.122131	0.384090	0.826550
	C171	C	0.877536	0.611104	0.825191
	C172	C	0.175394	0.878507	0.387626
	C173	C	0.179093	0.119465	0.613765
	C174	C	0.818712	0.119760	0.388710
	C175	C	0.819016	0.876483	0.614298
	C176	C	0.384085	0.176427	0.881153
	C177	C	0.612831	0.173450	0.121640
	C178	C	0.384033	0.820221	0.122572
	C179	C	0.612305	0.819532	0.882160
	C180	C	0.384323	0.876961	0.180169
	C181	C	0.611610	0.118736	0.181034
	C182	C	0.383798	0.119338	0.823132
	C183	C	0.611683	0.875141	0.822426
	C184	C	0.876289	0.178575	0.389530
	C185	C	0.120976	0.176683	0.614693
	C186	C	0.118363	0.819762	0.388219
	C187	C	0.876992	0.818798	0.614433
	C188	C	0.176218	0.382933	0.887046
	C189	C	0.177335	0.612582	0.124912
	C190	C	0.822712	0.383712	0.124220
	C191	C	0.820776	0.611639	0.883992
	C192	C	0.400790	0.091596	0.599037
	C193	C	0.594658	0.904465	0.599723
	C194	C	0.594268	0.090856	0.403500
	C195	C	0.400194	0.904111	0.402478
	C196	C	0.597291	0.397257	0.096373
	C197	C	0.597001	0.596437	0.911244
	C198	C	0.400598	0.597039	0.097063
	C199	C	0.400351	0.399734	0.911508
	C200	C	0.093221	0.596122	0.404764
	C201	C	0.906164	0.595269	0.602313
	C202	C	0.093448	0.399662	0.602259
	C203	C	0.905240	0.402442	0.405698
	C204	C	0.901590	0.591838	0.101810
	C205	C	0.098500	0.404127	0.104816
	C206	C	0.096328	0.591184	0.906033
	C207	C	0.901722	0.404174	0.906033
	C208	C	0.096169	0.900304	0.593844
	C209	C	0.095392	0.097626	0.408747
	C210	C	0.898991	0.096277	0.594630
	C211	C	0.899873	0.899506	0.408795
	C212	C	0.592298	0.095476	0.902298
	C213	C	0.404326	0.094042	0.098857
	C214	C	0.592156	0.900348	0.100039
	C215	C	0.404287	0.899942	0.902893
	Zn216	Zn	0.497756	-0.002135	0.751050
	Zn217	Zn	0.497667	-0.002159	0.251199
	Zn218	Zn	0.749282	0.497396	0.004676
	Zn219	Zn	0.248526	0.497810	0.005155
	Zn220	Zn	-0.001379	0.747221	0.501899
	Zn221	Zn	-0.001213	0.249340	0.502988
	Zn222	Zn	0.000199	0.497419	0.754147
	Zn223	Zn	-0.000849	0.499307	0.253922
	Zn224	Zn	0.498457	0.748856	0.003199
	Zn225	Zn	0.498686	0.245765	0.002620
	Zn226	Zn	0.746873	-0.002477	0.501403
	Zn227	Zn	0.248582	-0.001674	0.500540
	N228	N	0.409420	0.962527	0.681641
	N229	N	0.585316	0.033747	0.681874
	N230	N	0.583927	0.961061	0.322097
	N231	N	0.410209	0.033668	0.320615
	N232	N	0.678829	0.410590	0.967550
	N233	N	0.677912	0.583438	0.041151
	N234	N	0.318996	0.584262	0.967799
	N235	N	0.322127	0.413290	0.042147
	N236	N	0.961425	0.675167	0.418209
	N237	N	0.036434	0.676983	0.589219
	N238	N	0.962198	0.319670	0.589579
	N239	N	0.035920	0.321058	0.418123
	N240	N	0.964077	0.409933	0.684290
	N241	N	0.036547	0.584609	0.683428
	N242	N	0.963352	0.587045	0.322390
	N243	N	0.035802	0.413287	0.324855
	N244	N	0.411692	0.677643	0.967054
	N245	N	0.585261	0.677735	0.040179
	N246	N	0.585407	0.317363	0.966649
	N247	N	0.411499	0.316024	0.039491
	N248	N	0.675133	0.960220	0.416237
	N249	N	0.674879	0.034866	0.586503
	N250	N	0.321022	0.960806	0.585327
	N251	N	0.319765	0.034938	0.414701
	N252	N	0.912982	0.462073	0.183020
	N253	N	0.086222	0.535463	0.183642
	N254	N	0.088561	0.461679	0.823854
	N255	N	0.912430	0.533949	0.824244
	N256	N	0.176155	0.913370	0.463937
	N257	N	0.178654	0.085166	0.537200
	N258	N	0.818010	0.084467	0.464928
	N259	N	0.818346	0.911304	0.537887
	N260	N	0.461493	0.176502	0.915461
	N261	N	0.535975	0.172775	0.085931
	N262	N	0.461084	0.820077	0.088004
	N263	N	0.535358	0.819840	0.916937
	N264	N	0.461814	0.911417	0.180968
	N265	N	0.534022	0.084937	0.181753
	N266	N	0.461136	0.084515	0.822086
	N267	N	0.534032	0.909396	0.820602
	N268	N	0.910444	0.179511	0.466365
	N269	N	0.085018	0.177456	0.538620
	N270	N	0.084430	0.818709	0.464968
	N271	N	0.911848	0.818532	0.538143
	N272	N	0.175353	0.459808	0.921780
	N273	N	0.178356	0.535080	0.091230
	N274	N	0.822081	0.460578	0.089318
	N275	N	0.821018	0.534876	0.919163
	O276	O	-0.006317	-0.099095	0.061377
	H277	H	-0.001755	-0.108935	0.063254
	H278	H	0.000627	-0.090780	0.058203
	O279	O	0.446575	0.602824	0.449764
	H280	H	0.448500	0.588908	0.442280
	H281	H	0.433510	0.607494	0.438981
	O282	O	0.888183	0.158380	-0.096111
	H283	H	0.876218	0.172066	-0.099172
	H284	H	0.895472	0.162503	-0.107117
	O285	O	-0.010114	0.973237	0.113173
	H286	H	-0.015731	0.966176	0.120601
	H287	H	-0.008423	0.969617	0.103986
	O288	O	0.467045	0.458548	0.525160
	H289	H	0.477045	0.460244	0.529283
	H290	H	0.472072	0.465965	0.519730
	O291	O	1.051285	0.027863	1.117740
	H292	H	1.048636	0.038265	1.110790
	H293	H	1.057960	0.031315	1.117869
	O294	O	0.901766	0.937582	1.002988
	H295	H	0.896676	0.937630	1.008829
	H296	H	0.903189	0.930597	1.000887
	O297	O	0.086514	-0.035754	-0.076271
	H298	H	0.074576	-0.022270	-0.075979
	H299	H	0.074635	-0.033620	-0.074254
	O300	O	0.563741	0.646110	0.705445
	H301	H	0.567487	0.644430	0.712265
	H302	H	0.559494	0.650900	0.718685
	O303	O	0.033664	1.031155	1.116847
	H304	H	0.029387	1.024084	1.117020
	H305	H	0.024765	1.037146	1.124181
	O306	O	0.520808	0.519523	0.396057
	H307	H	0.529088	0.519905	0.384767
	H308	H	0.540088	0.522369	0.410801
	O309	O	0.986208	0.047192	0.103219
	H310	H	1.001879	0.050922	0.108344
	H311	H	0.992634	0.055002	0.111395
	O312	O	0.059456	0.028716	1.004250
	H313	H	0.065911	0.029094	0.997041
	H314	H	0.053672	0.027993	1.016632
	O315	O	0.350657	0.520851	0.479470
	H316	H	0.354343	0.520569	0.483982
	H317	H	0.349362	0.518472	0.477174
	O318	O	0.447169	0.454726	0.546875
	H319	H	0.450648	0.472437	0.537281
	H320	H	0.446778	0.448658	0.538587
	O321	O	0.353060	0.392831	0.617369
	H322	H	0.346629	0.385312	0.598554
	H323	H	0.357174	0.396641	0.627698
	O324	O	0.537581	0.499944	0.501343
	H325	H	0.542689	0.512639	0.505707
	H326	H	0.530060	0.498019	0.507788
	O327	O	0.108369	1.005015	0.940660
	H328	H	0.107216	1.004609	0.933190
	H329	H	0.105879	0.994663	0.947456
	O330	O	0.537194	0.611408	0.523184
	H331	H	0.547400	0.615157	0.516411
	H332	H	0.516694	0.603475	0.512638
	O333	O	0.103816	0.964090	0.881333
	H334	H	0.093117	0.969651	0.873354
	H335	H	0.100564	0.976046	0.878058
	O336	O	1.097175	0.914420	0.934310
	H337	H	1.112532	0.899931	0.922490
	H338	H	1.100527	0.922113	0.920147
	O339	O	0.390147	0.426589	0.599757
	H340	H	0.395631	0.439936	0.589200
	H341	H	0.400153	0.417603	0.605745
	O342	O	0.903330	0.073616	-0.116412
	H343	H	0.899239	0.069408	-0.099352
	H344	H	0.891525	0.063438	-0.121321
	O345	O	-0.104247	0.883109	0.045764
	H346	H	-0.099085	0.884755	0.034991
	H347	H	-0.099417	0.881500	0.045435
	O348	O	1.079345	0.992797	1.009740
	H349	H	1.089758	0.980377	1.006276
	H350	H	1.065446	0.992389	1.013470
	O351	O	0.972456	0.929799	-0.126708
	H352	H	0.981124	0.933729	-0.142956
	H353	H	0.967956	0.936874	-0.130237
	O354	O	0.496701	0.385686	0.521956
	H355	H	0.501860	0.398236	0.524759
	H356	H	0.498449	0.377024	0.540105
	O357	O	0.315057	0.554203	0.469585
	H358	H	0.317396	0.547684	0.471850
	H359	H	0.314540	0.557799	0.466139
	O360	O	-0.067983	0.048072	0.011215
	H361	H	-0.084211	0.052144	0.006198
	H362	H	-0.067583	0.050969	0.005305
	O363	O	0.648275	0.484778	0.502754
	H364	H	0.660091	0.487201	0.505912
	H365	H	0.646579	0.499056	0.504989
	O366	O	0.488973	0.362881	0.653107
	H367	H	0.476203	0.346121	0.667664
	H368	H	0.463505	0.379325	0.659234
	O369	O	0.700221	0.439291	0.369556
	H370	H	0.713314	0.426418	0.362792
	H371	H	0.700672	0.434262	0.358432
	O372	O	0.505050	0.550271	0.405954
	H373	H	0.528582	0.540396	0.408115
	H374	H	0.496492	0.554474	0.393555
	O375	O	0.599122	0.502153	0.580996
	H376	H	0.592468	0.505596	0.566462
	H377	H	0.608537	0.503744	0.589210
	O378	O	0.371952	0.514308	0.443348
	H379	H	0.375920	0.509612	0.430990
	H380	H	0.371873	0.514182	0.441041
	O381	O	0.578514	0.458797	0.486111
	H382	H	0.575603	0.458292	0.492212
	H383	H	0.562701	0.448484	0.494436
	O384	O	-0.173032	0.906449	-0.032732
	H385	H	-0.157509	0.916165	-0.025151
	H386	H	-0.169030	0.895606	-0.023059
	O387	O	0.906738	0.031100	1.094821
	H388	H	0.909775	0.031137	1.098074
	H389	H	0.904125	0.024516	1.083037
	O390	O	0.462705	0.406325	-0.591333
	H391	H	0.451641	0.421248	-0.581717
	H392	H	0.454695	0.395371	-0.602862
	O393	O	0.704368	1.450400	-0.365515
	H394	H	0.708115	1.458136	-0.352400
	H395	H	0.696859	1.455517	-0.359926
	O396	O	0.685535	0.620822	0.529130
	H397	H	0.703039	0.628536	0.538710
	H398	H	0.668894	0.616693	0.527733
	O399	O	-0.047261	1.125735	0.926639
	H400	H	-0.046689	1.100255	0.925372
	H401	H	-0.039408	1.132483	0.929145
	O402	O	1.039710	1.104990	0.900249
	H403	H	1.046394	1.110281	0.909085
	H404	H	1.036505	1.096869	0.905042
	O405	O	0.490458	0.470627	0.518818
	H406	H	0.481758	0.464743	0.522902
	H407	H	0.491890	0.460048	0.509309
