data_Molecule from HDF5

_cell_length_a		16.397647
_cell_length_b		16.485898
_cell_length_c		16.434821
_cell_angle_alpha	89.979399
_cell_angle_beta	90.022594
_cell_angle_gamma	90.141610
_symmetry_space_group_name_H-M	'P 1'
_symmetry_Int_Tables_number		1

loop_
	_symmetry_equiv_pos_as_xyz
	x,y,z

loop_
	_atom_site_label
	_atom_site_type_symbol
	_atom_site_fract_x
	_atom_site_fract_y
	_atom_site_fract_z
	H0	H	0.399957	0.857746	0.724705
	H1	H	0.616950	0.170838	0.722910
	H2	H	0.616026	0.857697	0.274978
	H3	H	0.398053	0.170518	0.273939
	H4	H	0.731130	0.410015	0.843013
	H5	H	0.734430	0.626605	0.156232
	H6	H	0.284455	0.622946	0.842849
	H7	H	0.284407	0.407427	0.158519
	H8	H	0.851943	0.739537	0.390594
	H9	H	0.166716	0.736650	0.606091
	H10	H	0.851372	0.290190	0.609661
	H11	H	0.165689	0.291255	0.393185
	H12	H	0.851336	0.406562	0.724647
	H13	H	0.166705	0.621234	0.721719
	H14	H	0.850850	0.622115	0.277014
	H15	H	0.164218	0.404057	0.275235
	H16	H	0.399350	0.739730	0.843489
	H17	H	0.619369	0.742647	0.155511
	H18	H	0.616561	0.292155	0.844005
	H19	H	0.400011	0.291409	0.158143
	H20	H	0.731924	0.856693	0.391092
	H21	H	0.731830	0.170484	0.605537
	H22	H	0.285613	0.856649	0.606238
	H23	H	0.283204	0.170669	0.390425
	H24	H	0.897363	0.358834	0.225375
	H25	H	0.116972	0.671321	0.225952
	H26	H	0.115907	0.359230	0.776806
	H27	H	0.901473	0.672170	0.776085
	H28	H	0.233025	0.904791	0.342562
	H29	H	0.230349	0.118613	0.656736
	H30	H	0.784496	0.120807	0.342700
	H31	H	0.785795	0.906470	0.657911
	H32	H	0.350926	0.237411	0.892126
	H33	H	0.664855	0.240851	0.108672
	H34	H	0.352278	0.789259	0.108737
	H35	H	0.664224	0.788226	0.887768
	H36	H	0.352271	0.904793	0.223668
	H37	H	0.666113	0.122435	0.222839
	H38	H	0.351419	0.120426	0.776948
	H39	H	0.667148	0.908473	0.777924
	H40	H	0.896283	0.240528	0.344489
	H41	H	0.116243	0.237081	0.656049
	H42	H	0.117210	0.788917	0.343605
	H43	H	0.900492	0.790009	0.656890
	H44	H	0.229853	0.358489	0.894800
	H45	H	0.231318	0.672779	0.108243
	H46	H	0.780533	0.360049	0.109864
	H47	H	0.786621	0.673327	0.892978
	H48	H	0.418812	0.125547	0.584097
	H49	H	0.592816	0.899342	0.596009
	H50	H	0.601695	0.125472	0.417521
	H51	H	0.420933	0.903469	0.413975
	H52	H	0.598331	0.428433	0.113938
	H53	H	0.596057	0.607103	0.886175
	H54	H	0.426369	0.602655	0.110276
	H55	H	0.419347	0.426817	0.888214
	H56	H	0.121509	0.605600	0.414426
	H57	H	0.899356	0.596543	0.581329
	H58	H	0.120223	0.432592	0.591758
	H59	H	0.894504	0.428553	0.408774
	H60	H	0.123795	0.420550	0.591027
	H61	H	0.893748	0.599432	0.596627
	H62	H	0.118806	0.599581	0.417289
	H63	H	0.894456	0.422190	0.414931
	H64	H	0.419438	0.606828	0.114109
	H65	H	0.599252	0.600058	0.887366
	H66	H	0.593336	0.432850	0.111215
	H67	H	0.419463	0.425277	0.888480
	H68	H	0.597181	0.128824	0.405135
	H69	H	0.593764	0.904989	0.583682
	H70	H	0.419732	0.127866	0.590532
	H71	H	0.420503	0.903018	0.410827
	H72	H	0.920050	0.629995	0.095153
	H73	H	0.098284	0.402492	0.086595
	H74	H	0.096149	0.627290	0.915466
	H75	H	0.914079	0.400065	0.908973
	H76	H	0.097238	0.921961	0.613714
	H77	H	0.098258	0.102313	0.384967
	H78	H	0.924863	0.099113	0.609743
	H79	H	0.920271	0.925078	0.387236
	H80	H	0.622712	0.106640	0.911226
	H81	H	0.392896	0.110571	0.085079
	H82	H	0.621859	0.926480	0.085257
	H83	H	0.395361	0.931259	0.906643
	H84	H	0.618844	0.930870	0.082580
	H85	H	0.399319	0.098295	0.080627
	H86	H	0.621713	0.104084	0.914892
	H87	H	0.394086	0.920951	0.914412
	H88	H	0.921927	0.107250	0.613858
	H89	H	0.093897	0.097323	0.388787
	H90	H	0.100073	0.928061	0.612983
	H91	H	0.920907	0.929811	0.389104
	H92	H	0.101281	0.631074	0.909798
	H93	H	0.093041	0.403642	0.091287
	H94	H	0.929148	0.623091	0.087202
	H95	H	0.928696	0.404984	0.909217
	H96	H	0.425209	0.124569	0.587417
	H97	H	0.603988	0.898651	0.588721
	H98	H	0.589351	0.122470	0.413678
	H99	H	0.422917	0.903255	0.411952
	H100	H	0.591633	0.425727	0.112380
	H101	H	0.591870	0.601681	0.889508
	H102	H	0.418838	0.598347	0.111666
	H103	H	0.418537	0.426345	0.886934
	H104	H	0.120947	0.599758	0.410333
	H105	H	0.892413	0.611684	0.585062
	H106	H	0.118613	0.426087	0.580866
	H107	H	0.898613	0.429935	0.417060
	H108	H	0.916597	0.626560	0.082343
	H109	H	0.092454	0.405997	0.084654
	H110	H	0.093580	0.628969	0.907558
	H111	H	0.919617	0.406847	0.921951
	H112	H	0.094331	0.927204	0.610600
	H113	H	0.090479	0.104796	0.387255
	H114	H	0.915866	0.099708	0.612952
	H115	H	0.924344	0.925923	0.388742
	H116	H	0.621261	0.102885	0.910825
	H117	H	0.394370	0.099380	0.094061
	H118	H	0.620402	0.931837	0.088664
	H119	H	0.400468	0.931562	0.918866
	C120	C	0.387462	0.022256	0.620790
	C121	C	0.630422	1.005039	0.621817
	C122	C	0.629979	0.022293	0.377978
	C123	C	0.386319	1.005867	0.377312
	C124	C	0.628703	0.395282	0.008990
	C125	C	0.629972	0.637413	0.991238
	C126	C	0.387423	0.636373	0.008249
	C127	C	0.385921	0.392887	0.992058
	C128	C	0.016654	0.635570	0.379669
	C129	C	1.000007	0.635761	0.620849
	C130	C	0.016882	0.393143	0.621952
	C131	C	0.999113	0.392558	0.378934
	C132	C	0.885909	0.523785	0.122501
	C133	C	0.128969	0.507271	0.122081
	C134	C	0.130022	0.524725	0.878434
	C135	C	0.887908	0.507475	0.879624
	C136	C	0.130511	0.892110	0.508401
	C137	C	0.128732	0.134727	0.490711
	C138	C	0.886273	0.135864	0.508941
	C139	C	0.887428	0.892769	0.491761
	C140	C	0.517548	0.136975	0.878868
	C141	C	0.499687	0.136707	0.120969
	C142	C	0.517217	0.894207	0.120485
	C143	C	0.500251	0.893627	0.878777
	C144	C	0.383109	0.904584	0.683262
	C145	C	0.634319	0.123473	0.682423
	C146	C	0.633885	0.904703	0.315550
	C147	C	0.381056	0.123158	0.314247
	C148	C	0.690536	0.391651	0.890414
	C149	C	0.692805	0.642887	0.109264
	C150	C	0.325305	0.640187	0.890171
	C151	C	0.324807	0.389815	0.110931
	C152	C	0.898884	0.698095	0.374101
	C153	C	0.119177	0.696830	0.624033
	C154	C	0.898662	0.331127	0.626577
	C155	C	0.117547	0.330661	0.374797
	C156	C	0.898844	0.389158	0.684125
	C157	C	0.119120	0.639052	0.681469
	C158	C	0.898191	0.639422	0.317533
	C159	C	0.116992	0.387188	0.316044
	C160	C	0.382562	0.698663	0.890495
	C161	C	0.635716	0.701029	0.108650
	C162	C	0.633393	0.333094	0.890925
	C163	C	0.382666	0.332074	0.110802
	C164	C	0.691633	0.904363	0.373607
	C165	C	0.691666	0.123430	0.624144
	C166	C	0.325901	0.904203	0.624405
	C167	C	0.323674	0.123323	0.372593
	C168	C	0.880518	0.406154	0.184533
	C169	C	0.134204	0.624443	0.185175
	C170	C	0.133279	0.406448	0.817287
	C171	C	0.883950	0.625418	0.817195
	C172	C	0.192346	0.887663	0.390031
	C173	C	0.190474	0.137631	0.609334
	C174	C	0.824633	0.139277	0.390363
	C175	C	0.825813	0.888942	0.610213
	C176	C	0.398658	0.197346	0.874682
	C177	C	0.617938	0.199506	0.125822
	C178	C	0.399482	0.830646	0.125613
	C179	C	0.617608	0.830194	0.872402
	C180	C	0.399224	0.888315	0.182873
	C181	C	0.618500	0.140388	0.182485
	C182	C	0.398954	0.139213	0.817121
	C183	C	0.619081	0.889989	0.817186
	C184	C	0.880701	0.198670	0.391186
	C185	C	0.133375	0.195944	0.609079
	C186	C	0.134296	0.830061	0.390418
	C187	C	0.882794	0.830521	0.609645
	C188	C	0.190037	0.405920	0.876297
	C189	C	0.191018	0.625122	0.126171
	C190	C	0.822051	0.406977	0.127037
	C191	C	0.826503	0.625900	0.875295
	C192	C	0.413588	0.104363	0.594689
	C193	C	0.604549	0.922464	0.596547
	C194	C	0.603650	0.104115	0.404518
	C195	C	0.413598	0.924431	0.404432
	C196	C	0.602140	0.421503	0.091046
	C197	C	0.603344	0.610654	0.909294
	C198	C	0.414068	0.610017	0.090593
	C199	C	0.411801	0.418826	0.909552
	C200	C	0.098854	0.609007	0.406163
	C201	C	0.916989	0.609899	0.595008
	C202	C	0.099436	0.418959	0.595523
	C203	C	0.917235	0.419132	0.405685
	C204	C	0.913904	0.605321	0.095902
	C205	C	0.102137	0.425355	0.095303
	C206	C	0.104474	0.607393	0.903912
	C207	C	0.913557	0.425444	0.905828
	C208	C	0.104653	0.918164	0.590913
	C209	C	0.101962	0.108834	0.408562
	C210	C	0.913026	0.109602	0.590902
	C211	C	0.913929	0.919402	0.409836
	C212	C	0.600411	0.111871	0.905075
	C213	C	0.417226	0.110268	0.094271
	C214	C	0.598910	0.921986	0.093442
	C215	C	0.418072	0.920287	0.905619
	Zn216	Zn	0.508968	0.014042	0.750609
	Zn217	Zn	0.508721	0.014766	0.249183
	Zn218	Zn	0.757934	0.516515	-0.000354
	Zn219	Zn	0.258308	0.515588	0.000889
	Zn220	Zn	0.008573	0.764156	0.500062
	Zn221	Zn	0.007933	0.264264	0.500272
	Zn222	Zn	0.008050	0.515653	0.750052
	Zn223	Zn	0.008009	0.514603	0.251418
	Zn224	Zn	0.508496	0.765776	-0.000133
	Zn225	Zn	0.507902	0.265553	-0.000036
	Zn226	Zn	0.758453	0.013426	0.499825
	Zn227	Zn	0.257999	0.014250	0.498891
	N228	N	0.420853	0.978974	0.681173
	N229	N	0.597106	0.048774	0.681304
	N230	N	0.596325	0.979109	0.318104
	N231	N	0.419047	0.048894	0.316809
	N232	N	0.687988	0.429524	0.964872
	N233	N	0.689524	0.604204	0.035170
	N234	N	0.328339	0.602172	0.964578
	N235	N	0.326512	0.426836	0.035936
	N236	N	0.973580	0.696007	0.411814
	N237	N	0.043967	0.694868	0.586977
	N238	N	0.973090	0.333588	0.588434
	N239	N	0.043091	0.333684	0.413175
	N240	N	0.973469	0.427051	0.681329
	N241	N	0.044032	0.601868	0.679625
	N242	N	0.972453	0.601030	0.320973
	N243	N	0.042309	0.424738	0.318234
	N244	N	0.420713	0.696217	0.964934
	N245	N	0.597335	0.697802	0.034371
	N246	N	0.595833	0.335224	0.965714
	N247	N	0.419754	0.333709	0.035757
	N248	N	0.689452	0.978620	0.411619
	N249	N	0.689461	0.048587	0.587402
	N250	N	0.328654	0.978267	0.585989
	N251	N	0.326688	0.049284	0.410894
	N252	N	0.919428	0.480030	0.181986
	N253	N	0.096348	0.549983	0.182989
	N254	N	0.096910	0.481537	0.818413
	N255	N	0.921221	0.550865	0.819688
	N256	N	0.189953	0.925634	0.464358
	N257	N	0.187754	0.100208	0.534722
	N258	N	0.828215	0.100615	0.464272
	N259	N	0.828679	0.927065	0.535825
	N260	N	0.473608	0.196238	0.912150
	N261	N	0.542945	0.197526	0.088558
	N262	N	0.473969	0.834023	0.087595
	N263	N	0.542622	0.832128	0.909724
	N264	N	0.473300	0.927365	0.179628
	N265	N	0.543830	0.102264	0.179688
	N266	N	0.474065	0.102642	0.819317
	N267	N	0.545096	0.928870	0.821154
	N268	N	0.918270	0.196813	0.465989
	N269	N	0.095736	0.194325	0.534377
	N270	N	0.096440	0.832989	0.464932
	N271	N	0.920387	0.832733	0.535000
	N272	N	0.188090	0.480516	0.913514
	N273	N	0.187941	0.551086	0.087968
	N274	N	0.825122	0.481413	0.089519
	N275	N	0.828965	0.551875	0.913737
	O276	O	0.296667	0.530859	0.288502
	H277	H	0.284249	0.540384	0.291392
	H278	H	0.274786	0.539977	0.284059
	O279	O	0.801147	0.078490	1.061989
	H280	H	0.797558	0.081282	1.066095
	H281	H	0.795066	0.091646	1.069433
	O282	O	0.528435	0.485301	0.711320
	H283	H	0.537259	0.467515	0.715910
	H284	H	0.541019	0.486753	0.702535
	O285	O	0.330293	0.694719	0.316306
	H286	H	0.352733	0.678618	0.308884
	H287	H	0.319812	0.703249	0.366860
	O288	O	0.820930	1.167719	-0.185875
	H289	H	0.809991	1.150856	-0.177995
	H290	H	0.818956	1.146358	-0.190228
	O291	O	0.606308	0.582912	0.309804
	H292	H	0.588868	0.609842	0.312494
	H293	H	0.612781	0.578177	0.317184
	O294	O	-0.122122	-0.063636	1.022282
	H295	H	-0.111335	-0.056925	1.024550
	H296	H	-0.122925	-0.066971	1.012142
	O297	O	1.002361	0.078598	-0.074434
	H298	H	0.998112	0.082317	-0.073519
	H299	H	1.000803	0.075535	-0.062081
	O300	O	0.991237	1.220505	-0.202936
	H301	H	0.985309	1.226442	-0.212925
	H302	H	0.980552	1.225288	-0.209466
	O303	O	0.322130	0.329466	0.689036
	H304	H	0.330333	0.317984	0.654403
	H305	H	0.316230	0.332596	0.686775
	O306	O	0.719012	0.727011	0.517035
	H307	H	0.742789	0.742487	0.514314
	H308	H	0.727924	0.700202	0.496051
	O309	O	0.300299	0.569164	0.530043
	H310	H	0.296210	0.578606	0.544252
	H311	H	0.315319	0.566206	0.532145
	O312	O	-0.021912	1.230028	1.030274
	H313	H	-0.025670	1.224250	1.007800
	H314	H	-0.011700	1.235905	1.022729
	O315	O	0.673828	0.413122	0.628378
	H316	H	0.681893	0.405904	0.635666
	H317	H	0.668608	0.404806	0.613759
	O318	O	1.011427	-0.106700	-0.200740
	H319	H	1.002629	-0.104878	-0.200174
	H320	H	1.006922	-0.106075	-0.198467
	O321	O	-0.203116	0.229531	-0.014816
	H322	H	-0.214999	0.241091	-0.036249
	H323	H	-0.206377	0.231583	-0.022393
	O324	O	0.423098	0.617928	0.657031
	H325	H	0.399058	0.605126	0.658319
	H326	H	0.438053	0.587684	0.666551
	O327	O	0.529354	0.297134	0.284271
	H328	H	0.522145	0.292295	0.257909
	H329	H	0.555107	0.294132	0.275268
	O330	O	-0.160950	1.043833	-0.165155
	H331	H	-0.177243	1.045108	-0.193636
	H332	H	-0.148208	1.022285	-0.151685
	O333	O	0.226471	0.800527	0.957746
	H334	H	0.219158	0.792094	0.938083
	H335	H	0.228465	0.782182	0.944845
	O336	O	-0.001553	0.219539	0.176875
	H337	H	-0.015261	0.248342	0.189844
	H338	H	-0.015033	0.208605	0.146332
	O339	O	-0.149890	0.853535	1.155762
	H340	H	-0.156075	0.874759	1.149938
	H341	H	-0.106518	0.852495	1.160224
	O342	O	-0.085205	0.874071	0.882799
	H343	H	-0.093275	0.885956	0.881069
	H344	H	-0.099972	0.856072	0.913867
	O345	O	1.190309	0.832559	-0.182408
	H346	H	1.187020	0.862678	-0.193072
	H347	H	1.153217	0.827300	-0.183301
	O348	O	0.481140	0.495026	0.331764
	H349	H	0.475930	0.517564	0.319147
	H350	H	0.470010	0.488745	0.337426
	O351	O	0.221170	1.024352	1.000921
	H352	H	0.217824	1.033366	1.001776
	H353	H	0.228304	1.017509	1.001491
	O354	O	-0.280015	0.563621	0.461520
	H355	H	-0.302496	0.554177	0.459233
	H356	H	-0.277107	0.538198	0.450667
	O357	O	-0.443266	-0.699486	0.551728
	H358	H	-0.455977	-0.699636	0.541814
	H359	H	-0.444017	-0.698617	0.567442
	O360	O	0.704380	0.315029	0.480681
	H361	H	0.711501	0.304567	0.485060
	H362	H	0.697336	0.317375	0.493641
	O363	O	-0.634929	-0.533483	1.391245
	H364	H	-0.632208	-0.522924	1.409778
	H365	H	-0.631251	-0.550503	1.388863
	O366	O	0.985388	0.109671	1.197253
	H367	H	0.963825	0.124584	1.204479
	H368	H	0.987034	0.133741	1.178793
	O369	O	0.296506	0.490013	0.718470
	H370	H	0.262176	0.488682	0.742439
	H371	H	0.299976	0.463240	0.702676
	O372	O	1.206298	-0.002045	0.801805
	H373	H	1.213862	0.002700	0.805498
	H374	H	1.206441	0.005583	0.805348
	O375	O	0.186592	0.196741	0.177322
	H376	H	0.133070	0.206418	0.191514
	H377	H	0.197560	0.143547	0.191950
	O378	O	0.687618	0.690989	0.678542
	H379	H	0.637813	0.705826	0.685815
	H380	H	0.697769	0.706783	0.633581
	O381	O	0.489933	0.721318	0.284527
	H382	H	0.500279	0.729594	0.283069
	H383	H	0.469099	0.730350	0.277339
	O384	O	0.502779	0.510143	0.534797
	H385	H	0.507583	0.501258	0.537751
	H386	H	0.523441	0.516223	0.530960
	O387	O	-0.195274	0.001786	1.198703
	H388	H	-0.182632	-0.003956	1.200002
	H389	H	-0.211084	0.007765	1.220067
	O390	O	-0.356087	-0.389311	0.457603
	H391	H	-0.342268	-0.373265	0.454923
	H392	H	-0.362256	-0.391414	0.466371
	O393	O	0.795827	0.801634	1.018807
	H394	H	0.787403	0.805191	1.022412
	H395	H	0.775537	0.786983	1.031752
	O396	O	1.019418	-0.188914	0.161892
	H397	H	1.023347	-0.168699	0.170368
	H398	H	1.023517	-0.195785	0.174250
	O399	O	1.099186	0.211829	0.903112
	H400	H	1.127291	0.221205	0.915589
	H401	H	1.098743	0.204895	0.882398
	O402	O	0.994720	0.922672	0.943388
	H403	H	0.989891	0.922230	0.956488
	H404	H	0.994862	0.932684	0.944799
	O405	O	1.077173	0.938864	0.212755
	H406	H	1.061579	0.952918	0.210856
	H407	H	1.099235	0.945199	0.210814
	O408	O	0.996473	-0.030366	-0.122811
	H409	H	1.007032	-0.015747	-0.117689
	H410	H	1.013690	-0.039219	-0.112496
	O411	O	1.223366	1.231757	0.021379
	H412	H	1.238582	1.256569	0.038083
	H413	H	1.224279	1.229226	0.062939
	O414	O	0.305616	0.317241	0.525268
	H415	H	0.320141	0.307572	0.504230
	H416	H	0.295558	0.310304	0.513593
	O417	O	0.474952	0.694251	0.685247
	H418	H	0.473995	0.707015	0.712678
	H419	H	0.457284	0.655602	0.691326
	O420	O	0.109657	-0.040391	0.079076
	H421	H	0.117663	-0.061594	0.071403
	H422	H	0.121267	-0.038367	0.071034
	O423	O	0.476771	0.607309	0.455006
	H424	H	0.481800	0.613843	0.438868
	H425	H	0.469742	0.618865	0.467215
	O426	O	0.481935	0.676474	0.517712
	H427	H	0.494367	0.694474	0.529421
	H428	H	0.493330	0.669295	0.512495
	O429	O	0.370198	0.724277	0.539669
	H430	H	0.380449	0.746764	0.562498
	H431	H	0.358757	0.721855	0.550692
	O432	O	0.715694	0.531156	0.710041
	H433	H	0.730662	0.546123	0.707935
	H434	H	0.720321	0.566980	0.716886
	O435	O	0.452250	0.320797	0.431647
	H436	H	0.462804	0.321972	0.427253
	H437	H	0.458122	0.318123	0.410669
	O438	O	0.000327	-0.184710	-0.028763
	H439	H	-0.005911	-0.179246	-0.009029
	H440	H	-0.004988	-0.188820	-0.022140
	O441	O	1.221307	0.036998	0.217346
	H442	H	1.233223	0.018674	0.215468
	H443	H	1.248302	0.025573	0.222288
	O444	O	0.179826	1.126484	0.885566
	H445	H	0.178307	1.133710	0.896124
	H446	H	0.179047	1.127207	0.883927
	O447	O	0.722808	0.495457	0.284289
	H448	H	0.748492	0.498819	0.261536
	H449	H	0.706097	0.492921	0.278249
	O450	O	0.486110	0.298089	0.711808
	H451	H	0.476040	0.313097	0.711515
	H452	H	0.478343	0.274024	0.740624
	O453	O	0.688725	0.335116	0.317165
	H454	H	0.670980	0.324008	0.343038
	H455	H	0.699824	0.367452	0.327852
