data_Molecule from HDF5

_cell_length_a		16.297842
_cell_length_b		16.296221
_cell_length_c		16.303511
_cell_angle_alpha	89.911881
_cell_angle_beta	89.908779
_cell_angle_gamma	90.110305
_symmetry_space_group_name_H-M	'P 1'
_symmetry_Int_Tables_number		1

loop_
	_symmetry_equiv_pos_as_xyz
	x,y,z

loop_
	_atom_site_label
	_atom_site_type_symbol
	_atom_site_fract_x
	_atom_site_fract_y
	_atom_site_fract_z
	H0	H	0.398828	0.837424	0.714767
	H1	H	0.596227	0.164598	0.712948
	H2	H	0.596587	0.837626	0.284883
	H3	H	0.400302	0.164399	0.285689
	H4	H	0.710647	0.404181	0.836061
	H5	H	0.712735	0.599092	0.162857
	H6	H	0.283537	0.599324	0.835945
	H7	H	0.282182	0.401990	0.163331
	H8	H	0.834411	0.716528	0.400901
	H9	H	0.161902	0.714570	0.597162
	H10	H	0.834366	0.285387	0.598075
	H11	H	0.161388	0.287557	0.401277
	H12	H	0.833136	0.402096	0.713170
	H13	H	0.161608	0.598415	0.712828
	H14	H	0.833301	0.599491	0.286112
	H15	H	0.161230	0.403693	0.285746
	H16	H	0.400417	0.715034	0.835863
	H17	H	0.595218	0.714661	0.163577
	H18	H	0.595570	0.287105	0.836085
	H19	H	0.398006	0.286209	0.163030
	H20	H	0.713451	0.837421	0.401074
	H21	H	0.713051	0.163939	0.596887
	H22	H	0.283032	0.837514	0.598583
	H23	H	0.284665	0.164589	0.401945
	H24	H	0.898713	0.337610	0.214856
	H25	H	0.096038	0.664397	0.213289
	H26	H	0.095674	0.337127	0.784986
	H27	H	0.900560	0.664596	0.785594
	H28	H	0.212758	0.903178	0.336490
	H29	H	0.212084	0.099007	0.663404
	H30	H	0.783283	0.100038	0.336680
	H31	H	0.782642	0.901625	0.663010
	H32	H	0.333919	0.215214	0.902190
	H33	H	0.660604	0.216228	0.098321
	H34	H	0.334102	0.786265	0.098845
	H35	H	0.661137	0.786996	0.901709
	H36	H	0.334707	0.901101	0.215904
	H37	H	0.661363	0.099489	0.213710
	H38	H	0.333822	0.099384	0.785211
	H39	H	0.661311	0.903182	0.785975
	H40	H	0.900708	0.214237	0.335745
	H41	H	0.095622	0.215382	0.663205
	H42	H	0.096909	0.786597	0.336026
	H43	H	0.899972	0.786428	0.662887
	H44	H	0.211777	0.336751	0.901519
	H45	H	0.210572	0.664879	0.095652
	H46	H	0.783390	0.337114	0.097267
	H47	H	0.783174	0.663898	0.900189
	H48	H	0.401536	0.118097	0.593363
	H49	H	0.591822	0.885661	0.587623
	H50	H	0.598148	0.121150	0.398505
	H51	H	0.401917	0.888464	0.423875
	H52	H	0.591039	0.406501	0.115968
	H53	H	0.598090	0.596101	0.880628
	H54	H	0.406735	0.602077	0.117330
	H55	H	0.408349	0.407940	0.884737
	H56	H	0.111308	0.588313	0.407548
	H57	H	0.879701	0.597372	0.594956
	H58	H	0.113213	0.406127	0.589469
	H59	H	0.880922	0.413513	0.400377
	H60	H	0.112628	0.411407	0.592949
	H61	H	0.883212	0.594175	0.588123
	H62	H	0.116126	0.596077	0.400272
	H63	H	0.878789	0.398957	0.404986
	H64	H	0.395202	0.591263	0.117917
	H65	H	0.589357	0.586566	0.885978
	H66	H	0.590975	0.409752	0.115995
	H67	H	0.402684	0.404900	0.882123
	H68	H	0.581548	0.115111	0.404147
	H69	H	0.593800	0.882626	0.595993
	H70	H	0.406763	0.117902	0.596832
	H71	H	0.393303	0.878513	0.398388
	H72	H	0.901931	0.619837	0.100058
	H73	H	0.089122	0.381735	0.100661
	H74	H	0.085541	0.613342	0.910541
	H75	H	0.904090	0.382234	0.899194
	H76	H	0.089688	0.906634	0.616096
	H77	H	0.097680	0.089268	0.383739
	H78	H	0.899850	0.086545	0.615157
	H79	H	0.901086	0.912204	0.383267
	H80	H	0.614201	0.097562	0.907408
	H81	H	0.383450	0.087980	0.091600
	H82	H	0.613443	0.905688	0.088884
	H83	H	0.383088	0.912438	0.908139
	H84	H	0.611860	0.911497	0.092221
	H85	H	0.379806	0.094185	0.098411
	H86	H	0.612474	0.092785	0.908227
	H87	H	0.379968	0.906593	0.902860
	H88	H	0.913206	0.094072	0.613542
	H89	H	0.084998	0.092755	0.385350
	H90	H	0.092135	0.906207	0.616943
	H91	H	0.910404	0.911085	0.385705
	H92	H	0.098796	0.619094	0.908343
	H93	H	0.084311	0.387291	0.088486
	H94	H	0.912665	0.614675	0.091511
	H95	H	0.909242	0.386372	0.907950
	H96	H	0.407320	0.116147	0.590895
	H97	H	0.585693	0.885076	0.593554
	H98	H	0.595957	0.114273	0.416297
	H99	H	0.420518	0.887232	0.401913
	H100	H	0.588420	0.408397	0.115639
	H101	H	0.585326	0.600035	0.883765
	H102	H	0.409720	0.587286	0.112139
	H103	H	0.402780	0.411471	0.883690
	H104	H	0.113881	0.598811	0.410648
	H105	H	0.882731	0.589367	0.595145
	H106	H	0.115005	0.406028	0.595574
	H107	H	0.883715	0.409639	0.414846
	H108	H	0.899779	0.616700	0.086096
	H109	H	0.097605	0.383452	0.089422
	H110	H	0.089099	0.618858	0.897522
	H111	H	0.898553	0.383296	0.909238
	H112	H	0.091559	0.909125	0.615878
	H113	H	0.093489	0.101398	0.381361
	H114	H	0.900795	0.100939	0.619689
	H115	H	0.905645	0.903454	0.381644
	H116	H	0.614787	0.094228	0.903536
	H117	H	0.380923	0.097019	0.089174
	H118	H	0.615761	0.906189	0.095852
	H119	H	0.381111	0.904473	0.911175
	C120	C	0.376204	0.009169	0.621889
	C121	C	0.619288	0.992151	0.620848
	C122	C	0.620024	0.008919	0.377913
	C123	C	0.376980	0.992743	0.378943
	C124	C	0.618960	0.379458	0.008273
	C125	C	0.619316	0.622406	0.991559
	C126	C	0.376044	0.622153	0.007639
	C127	C	0.375725	0.379283	0.991602
	C128	C	0.005634	0.622954	0.378043
	C129	C	0.989881	0.622072	0.620956
	C130	C	0.005574	0.378882	0.621012
	C131	C	0.989167	0.379044	0.378197
	C132	C	0.876062	0.509278	0.121069
	C133	C	0.118824	0.492438	0.120828
	C134	C	0.119095	0.508740	0.877601
	C135	C	0.876268	0.492289	0.877751
	C136	C	0.119767	0.879281	0.508148
	C137	C	0.119940	0.122765	0.491635
	C138	C	0.876547	0.122328	0.507926
	C139	C	0.876585	0.879753	0.491140
	C140	C	0.505513	0.122812	0.878078
	C141	C	0.489359	0.122043	0.121317
	C142	C	0.505924	0.878847	0.121564
	C143	C	0.489498	0.879360	0.878707
	C144	C	0.378272	0.886259	0.677014
	C145	C	0.616944	0.115626	0.675357
	C146	C	0.617627	0.886188	0.322739
	C147	C	0.379424	0.115400	0.323117
	C148	C	0.673625	0.382540	0.885039
	C149	C	0.674637	0.619884	0.114235
	C150	C	0.321288	0.620041	0.884657
	C151	C	0.320064	0.381593	0.114427
	C152	C	0.882792	0.678003	0.380753
	C153	C	0.112832	0.677127	0.618189
	C154	C	0.882759	0.323704	0.618523
	C155	C	0.112505	0.325101	0.381040
	C156	C	0.882535	0.381348	0.676168
	C157	C	0.112742	0.619326	0.675556
	C158	C	0.882509	0.619841	0.323537
	C159	C	0.112439	0.382855	0.323446
	C160	C	0.379038	0.677609	0.884810
	C161	C	0.616261	0.677111	0.114475
	C162	C	0.616140	0.324666	0.885076
	C163	C	0.377653	0.323894	0.114267
	C164	C	0.675474	0.886154	0.380528
	C165	C	0.674892	0.115299	0.617847
	C166	C	0.320844	0.886364	0.619159
	C167	C	0.322127	0.115606	0.381123
	C168	C	0.878445	0.386063	0.176287
	C169	C	0.116369	0.615605	0.175474
	C170	C	0.116355	0.385831	0.822711
	C171	C	0.879793	0.615697	0.823287
	C172	C	0.174712	0.882444	0.385012
	C173	C	0.174623	0.119996	0.614554
	C174	C	0.821589	0.120143	0.385105
	C175	C	0.821030	0.881463	0.614246
	C176	C	0.382688	0.177681	0.881213
	C177	C	0.611967	0.178004	0.118776
	C178	C	0.382981	0.823847	0.119406
	C179	C	0.612267	0.824338	0.880718
	C180	C	0.383251	0.881218	0.177332
	C181	C	0.612525	0.119993	0.176012
	C182	C	0.382729	0.120101	0.822983
	C183	C	0.612397	0.882281	0.823503
	C184	C	0.879735	0.177092	0.384836
	C185	C	0.116914	0.177751	0.614557
	C186	C	0.117338	0.824199	0.385033
	C187	C	0.878971	0.824198	0.614123
	C188	C	0.174084	0.385688	0.880586
	C189	C	0.173384	0.615893	0.117040
	C190	C	0.820746	0.385998	0.118535
	C191	C	0.821521	0.615350	0.880442
	C192	C	0.398534	0.095289	0.600138
	C193	C	0.596990	0.906625	0.599074
	C194	C	0.598279	0.094840	0.399733
	C195	C	0.398887	0.906725	0.401436
	C196	C	0.596729	0.401598	0.093993
	C197	C	0.597589	0.600354	0.905654
	C198	C	0.397611	0.600070	0.093579
	C199	C	0.398037	0.401530	0.905595
	C200	C	0.091618	0.600849	0.399713
	C201	C	0.903955	0.600051	0.599076
	C202	C	0.091415	0.401148	0.599032
	C203	C	0.903325	0.400758	0.400330
	C204	C	0.898143	0.594799	0.098845
	C205	C	0.096831	0.406415	0.099241
	C206	C	0.097512	0.595006	0.899112
	C207	C	0.897493	0.406261	0.899321
	C208	C	0.097703	0.900904	0.594190
	C209	C	0.098365	0.100865	0.405559
	C210	C	0.898255	0.100272	0.594084
	C211	C	0.898934	0.902279	0.405761
	C212	C	0.591663	0.101017	0.899722
	C213	C	0.403486	0.099389	0.099577
	C214	C	0.591698	0.901327	0.098982
	C215	C	0.403471	0.901374	0.900942
	Zn216	Zn	0.498013	0.000729	0.749929
	Zn217	Zn	0.498159	0.000786	0.249668
	Zn218	Zn	0.747884	0.500458	-0.000706
	Zn219	Zn	0.247517	0.500874	-0.000693
	Zn220	Zn	-0.002085	0.751172	0.499687
	Zn221	Zn	-0.002248	0.250466	0.499544
	Zn222	Zn	-0.002544	0.500852	0.748983
	Zn223	Zn	-0.002674	0.500882	0.249506
	Zn224	Zn	0.497394	0.750580	-0.000145
	Zn225	Zn	0.497362	0.250932	0.000063
	Zn226	Zn	0.748405	0.000801	0.499715
	Zn227	Zn	0.248191	0.001330	0.499821
	N228	N	0.412155	0.963640	0.678671
	N229	N	0.582969	0.038235	0.677320
	N230	N	0.583987	0.963383	0.321277
	N231	N	0.412881	0.037886	0.321594
	N232	N	0.675341	0.415877	0.962486
	N233	N	0.676780	0.586792	0.036618
	N234	N	0.319558	0.586017	0.961972
	N235	N	0.318725	0.415228	0.036922
	N236	N	0.960383	0.680049	0.413853
	N237	N	0.035209	0.678879	0.584925
	N238	N	0.960166	0.322020	0.585107
	N239	N	0.034766	0.322670	0.414308
	N240	N	0.960004	0.415167	0.677723
	N241	N	0.035310	0.585738	0.677261
	N242	N	0.960043	0.586587	0.321447
	N243	N	0.034843	0.415853	0.321636
	N244	N	0.412189	0.679071	0.962314
	N245	N	0.582583	0.678663	0.037216
	N246	N	0.582846	0.322632	0.962804
	N247	N	0.411514	0.322439	0.036849
	N248	N	0.676975	0.963573	0.414397
	N249	N	0.676341	0.037774	0.584427
	N250	N	0.319548	0.963957	0.585632
	N251	N	0.320805	0.038323	0.415209
	N252	N	0.911670	0.463633	0.178293
	N253	N	0.083250	0.537831	0.178050
	N254	N	0.082841	0.463319	0.820881
	N255	N	0.913141	0.538181	0.821498
	N256	N	0.176119	0.915996	0.462533
	N257	N	0.176350	0.086452	0.537096
	N258	N	0.819432	0.086903	0.462754
	N259	N	0.819573	0.915414	0.536891
	N260	N	0.460133	0.179288	0.914742
	N261	N	0.534353	0.179508	0.085494
	N262	N	0.460297	0.822369	0.085367
	N263	N	0.534729	0.822466	0.914340
	N264	N	0.460841	0.914591	0.178864
	N265	N	0.535204	0.086068	0.177648
	N266	N	0.460315	0.087035	0.820799
	N267	N	0.535110	0.916149	0.822444
	N268	N	0.913153	0.178415	0.462386
	N269	N	0.083644	0.179584	0.537135
	N270	N	0.083845	0.822232	0.462615
	N271	N	0.912849	0.822940	0.536852
	N272	N	0.175977	0.463212	0.913789
	N273	N	0.174935	0.538352	0.083817
	N274	N	0.819233	0.463561	0.084872
	N275	N	0.819437	0.537815	0.913803
	O276	O	0.968886	-0.043820	1.071358
	H277	H	0.968079	-0.046668	1.072770
	H278	H	0.968111	-0.041171	1.066896
	O279	O	0.470465	0.453950	0.522202
	H280	H	0.469541	0.453406	0.522371
	H281	H	0.469415	0.452526	0.524429
	O282	O	0.962192	0.968398	0.072984
	H283	H	0.959482	0.960863	0.071046
	H284	H	0.956167	0.974523	0.076208
	O285	O	0.449715	0.443268	0.531360
	H286	H	0.445546	0.440351	0.533860
	H287	H	0.446777	0.440163	0.536479
