data_Molecule from HDF5

_cell_length_a		16.373844
_cell_length_b		16.299810
_cell_length_c		16.393519
_cell_angle_alpha	90.027881
_cell_angle_beta	89.670511
_cell_angle_gamma	89.912165
_symmetry_space_group_name_H-M	'P 1'
_symmetry_Int_Tables_number		1

loop_
	_symmetry_equiv_pos_as_xyz
	x,y,z

loop_
	_atom_site_label
	_atom_site_type_symbol
	_atom_site_fract_x
	_atom_site_fract_y
	_atom_site_fract_z
	H0	H	0.380585	0.855900	0.727248
	H1	H	0.591752	0.176023	0.725510
	H2	H	0.589069	0.853936	0.287590
	H3	H	0.386390	0.177775	0.289791
	H4	H	0.707435	0.410613	0.847475
	H5	H	0.700345	0.617289	0.168307
	H6	H	0.264051	0.623574	0.848074
	H7	H	0.265346	0.413076	0.166874
	H8	H	0.823182	0.732630	0.407446
	H9	H	0.144466	0.735213	0.610187
	H10	H	0.823804	0.297281	0.608353
	H11	H	0.146534	0.297663	0.403058
	H12	H	0.824371	0.412052	0.727255
	H13	H	0.144070	0.619433	0.727008
	H14	H	0.822870	0.616982	0.290531
	H15	H	0.144164	0.410235	0.284208
	H16	H	0.383239	0.734765	0.846709
	H17	H	0.587146	0.734927	0.167494
	H18	H	0.590495	0.296198	0.846366
	H19	H	0.382813	0.297933	0.167479
	H20	H	0.704219	0.853395	0.403094
	H21	H	0.705627	0.176222	0.607686
	H22	H	0.266637	0.855118	0.609356
	H23	H	0.267671	0.176562	0.401752
	H24	H	0.882903	0.352774	0.224318
	H25	H	0.085354	0.676862	0.227097
	H26	H	0.091116	0.356289	0.786287
	H27	H	0.878672	0.676569	0.789050
	H28	H	0.205452	0.911357	0.344761
	H29	H	0.207490	0.121406	0.663815
	H30	H	0.769359	0.116984	0.344077
	H31	H	0.762611	0.909655	0.663743
	H32	H	0.326116	0.236342	0.903788
	H33	H	0.646668	0.234429	0.107073
	H34	H	0.324633	0.797526	0.111784
	H35	H	0.646872	0.797571	0.904339
	H36	H	0.325967	0.912715	0.227861
	H37	H	0.647524	0.117051	0.222332
	H38	H	0.326839	0.123760	0.784544
	H39	H	0.644993	0.909720	0.782846
	H40	H	0.885020	0.233856	0.345248
	H41	H	0.091636	0.236226	0.664339
	H42	H	0.087321	0.795929	0.344909
	H43	H	0.879954	0.796712	0.665294
	H44	H	0.206717	0.357403	0.902061
	H45	H	0.204889	0.676600	0.113796
	H46	H	0.764326	0.354490	0.111611
	H47	H	0.767380	0.677688	0.908594
	H48	H	0.387483	0.131268	0.589062
	H49	H	0.578645	0.899496	0.596372
	H50	H	0.582213	0.132138	0.414536
	H51	H	0.397522	0.899197	0.412266
	H52	H	0.574312	0.434596	0.118130
	H53	H	0.583016	0.604831	0.890882
	H54	H	0.394742	0.599825	0.119002
	H55	H	0.397376	0.427411	0.893519
	H56	H	0.096418	0.597985	0.416206
	H57	H	0.872594	0.600909	0.594515
	H58	H	0.100090	0.418224	0.593676
	H59	H	0.868789	0.415009	0.422221
	H60	H	0.095076	0.432532	0.590984
	H61	H	0.868060	0.605005	0.605527
	H62	H	0.100933	0.606552	0.409715
	H63	H	0.875120	0.432692	0.421339
	H64	H	0.399822	0.611388	0.120846
	H65	H	0.572220	0.600888	0.896989
	H66	H	0.565588	0.420675	0.119347
	H67	H	0.395448	0.425716	0.892805
	H68	H	0.576656	0.131591	0.409664
	H69	H	0.569719	0.902968	0.596702
	H70	H	0.399213	0.132273	0.605043
	H71	H	0.399996	0.902583	0.417342
	H72	H	0.895642	0.629310	0.098865
	H73	H	0.078317	0.400920	0.093259
	H74	H	0.067148	0.629286	0.914722
	H75	H	0.898462	0.402107	0.915233
	H76	H	0.074773	0.923344	0.619947
	H77	H	0.085041	0.102311	0.390404
	H78	H	0.897529	0.101547	0.617835
	H79	H	0.895340	0.923741	0.390327
	H80	H	0.599675	0.102736	0.912801
	H81	H	0.371519	0.105201	0.097816
	H82	H	0.601174	0.923392	0.097938
	H83	H	0.371133	0.923077	0.916324
	H84	H	0.598808	0.925132	0.093213
	H85	H	0.370737	0.107070	0.099544
	H86	H	0.600712	0.107287	0.915510
	H87	H	0.374382	0.928910	0.920558
	H88	H	0.896882	0.109253	0.619923
	H89	H	0.071376	0.101283	0.394563
	H90	H	0.078869	0.926622	0.619680
	H91	H	0.895501	0.924879	0.390971
	H92	H	0.073407	0.628491	0.924194
	H93	H	0.072747	0.401379	0.100173
	H94	H	0.888956	0.630722	0.097019
	H95	H	0.895747	0.402346	0.922182
	H96	H	0.406147	0.124387	0.588123
	H97	H	0.574385	0.903523	0.588609
	H98	H	0.576251	0.129205	0.416492
	H99	H	0.393334	0.900269	0.417531
	H100	H	0.581553	0.421108	0.124097
	H101	H	0.573161	0.612542	0.892173
	H102	H	0.387600	0.609432	0.124243
	H103	H	0.394534	0.428161	0.893277
	H104	H	0.098338	0.608528	0.420776
	H105	H	0.868580	0.612685	0.595366
	H106	H	0.100405	0.428661	0.604485
	H107	H	0.867184	0.424829	0.406140
	H108	H	0.890633	0.631731	0.104240
	H109	H	0.070539	0.404996	0.091455
	H110	H	0.078005	0.633429	0.915169
	H111	H	0.891716	0.399116	0.916852
	H112	H	0.074291	0.927651	0.617449
	H113	H	0.075884	0.113220	0.388492
	H114	H	0.890899	0.103913	0.620461
	H115	H	0.897002	0.923704	0.391493
	H116	H	0.598279	0.103295	0.917390
	H117	H	0.371989	0.107793	0.097305
	H118	H	0.599185	0.928403	0.097614
	H119	H	0.371880	0.930107	0.913525
	C120	C	0.364819	0.024015	0.626637
	C121	C	0.606904	1.007300	0.625735
	C122	C	0.608394	0.024108	0.383154
	C123	C	0.366199	1.007135	0.384707
	C124	C	0.606885	0.393849	0.015229
	C125	C	0.606133	0.637091	0.999123
	C126	C	0.362918	0.638957	0.015797
	C127	C	0.363992	0.395227	0.998565
	C128	C	-0.007726	0.635834	0.385855
	C129	C	0.975706	0.637563	0.629169
	C130	C	-0.006921	0.393985	0.628419
	C131	C	0.976638	0.393358	0.384448
	C132	C	0.861594	0.523843	0.130020
	C133	C	0.105029	0.508192	0.127768
	C134	C	0.105789	0.524889	0.885828
	C135	C	0.863433	0.507356	0.887245
	C136	C	0.107474	0.893904	0.513433
	C137	C	0.108620	0.137428	0.496524
	C138	C	0.865336	0.135841	0.513343
	C139	C	0.863621	0.893199	0.496577
	C140	C	0.494296	0.137403	0.884228
	C141	C	0.477932	0.137071	0.127702
	C142	C	0.493803	0.894622	0.128127
	C143	C	0.477704	0.894894	0.884489
	C144	C	0.362488	0.903775	0.687073
	C145	C	0.609160	0.128126	0.685312
	C146	C	0.608323	0.902295	0.325988
	C147	C	0.366569	0.129149	0.327770
	C148	C	0.667191	0.392326	0.895160
	C149	C	0.662348	0.636768	0.120154
	C150	C	0.303793	0.641104	0.895777
	C151	C	0.305258	0.394555	0.119067
	C152	C	0.871427	0.693900	0.387212
	C153	C	0.096305	0.696101	0.629338
	C154	C	0.872249	0.335873	0.628229
	C155	C	0.097758	0.336097	0.383604
	C156	C	0.872534	0.393001	0.687424
	C157	C	0.096051	0.638404	0.687453
	C158	C	0.871070	0.636285	0.329199
	C159	C	0.096691	0.392094	0.324414
	C160	C	0.363189	0.696664	0.894963
	C161	C	0.605980	0.695490	0.119602
	C162	C	0.608820	0.335572	0.894407
	C163	C	0.363498	0.336780	0.119239
	C164	C	0.665504	0.901882	0.383550
	C165	C	0.666266	0.128027	0.626931
	C166	C	0.305612	0.903523	0.628630
	C167	C	0.307523	0.128547	0.383646
	C168	C	0.862712	0.401613	0.186302
	C169	C	0.105320	0.628642	0.187937
	C170	C	0.108472	0.404332	0.826415
	C171	C	0.861305	0.628597	0.829024
	C172	C	0.165840	0.892500	0.392790
	C173	C	0.167875	0.139381	0.616158
	C174	C	0.808100	0.136485	0.392401
	C175	C	0.802878	0.891391	0.616264
	C176	C	0.374092	0.197193	0.883890
	C177	C	0.598696	0.195239	0.126651
	C178	C	0.372764	0.836975	0.129823
	C179	C	0.598422	0.835856	0.884126
	C180	C	0.373554	0.894088	0.187948
	C181	C	0.599077	0.137014	0.184075
	C182	C	0.374432	0.140821	0.824781
	C183	C	0.597625	0.892023	0.823945
	C184	C	0.865904	0.194379	0.392860
	C185	C	0.109928	0.196684	0.616523
	C186	C	0.107259	0.834896	0.392973
	C187	C	0.861393	0.835322	0.617200
	C188	C	0.166413	0.404839	0.883810
	C189	C	0.164395	0.628763	0.131166
	C190	C	0.803874	0.402526	0.130260
	C191	C	0.805570	0.629056	0.888243
	C192	C	0.390259	0.107650	0.601386
	C193	C	0.581672	0.923618	0.601170
	C194	C	0.585260	0.108883	0.406734
	C195	C	0.389972	0.922622	0.408786
	C196	C	0.581331	0.418423	0.098839
	C197	C	0.582920	0.613202	0.915054
	C198	C	0.386840	0.614252	0.099380
	C199	C	0.388553	0.419854	0.914790
	C200	C	0.076498	0.611575	0.408873
	C201	C	0.891635	0.613274	0.605552
	C202	C	0.076874	0.419198	0.603706
	C203	C	0.892230	0.417386	0.409250
	C204	C	0.884933	0.608632	0.106703
	C205	C	0.080892	0.424351	0.102187
	C206	C	0.080280	0.608685	0.910888
	C207	C	0.888250	0.423319	0.911132
	C208	C	0.083131	0.918739	0.597318
	C209	C	0.084272	0.112567	0.412790
	C210	C	0.888282	0.111676	0.597199
	C211	C	0.888872	0.917233	0.412661
	C212	C	0.577728	0.111801	0.908249
	C213	C	0.393342	0.113679	0.104751
	C214	C	0.577827	0.918601	0.103395
	C215	C	0.394224	0.920148	0.909563
	Zn216	Zn	0.485964	0.016527	0.755344
	Zn217	Zn	0.486864	0.015910	0.256292
	Zn218	Zn	0.734562	0.515265	0.008010
	Zn219	Zn	0.234911	0.517016	0.007048
	Zn220	Zn	-0.014923	0.765515	0.506597
	Zn221	Zn	-0.014202	0.265630	0.505892
	Zn222	Zn	-0.015954	0.516213	0.758078
	Zn223	Zn	-0.016422	0.514711	0.256674
	Zn224	Zn	0.485019	0.766285	0.006975
	Zn225	Zn	0.485786	0.265876	0.006276
	Zn226	Zn	0.735799	0.014750	0.504474
	Zn227	Zn	0.236796	0.015572	0.504740
	N228	N	0.398469	0.979954	0.686368
	N229	N	0.572968	0.052144	0.684783
	N230	N	0.573611	0.979029	0.325700
	N231	N	0.402168	0.052684	0.328104
	N232	N	0.666144	0.427723	0.971256
	N233	N	0.662618	0.601147	0.044235
	N234	N	0.303178	0.606181	0.972127
	N235	N	0.305378	0.430004	0.043101
	N236	N	0.947902	0.693814	0.421704
	N237	N	0.020362	0.695939	0.594100
	N238	N	0.948610	0.335947	0.592847
	N239	N	0.022072	0.336950	0.420159
	N240	N	0.948925	0.428027	0.687991
	N241	N	0.019929	0.603114	0.687662
	N242	N	0.947232	0.600797	0.328317
	N243	N	0.020160	0.427086	0.325000
	N244	N	0.399005	0.695663	0.970545
	N245	N	0.571630	0.695766	0.043301
	N246	N	0.571981	0.336509	0.969887
	N247	N	0.399408	0.337214	0.043172
	N248	N	0.665775	0.978573	0.418439
	N249	N	0.664972	0.051979	0.590595
	N250	N	0.306921	0.979233	0.591952
	N251	N	0.307250	0.051762	0.418431
	N252	N	0.897491	0.478310	0.186680
	N253	N	0.069039	0.552773	0.185808
	N254	N	0.071525	0.480063	0.827543
	N255	N	0.896431	0.551921	0.828079
	N256	N	0.166186	0.928201	0.468695
	N257	N	0.167047	0.103278	0.540460
	N258	N	0.807445	0.100778	0.468245
	N259	N	0.804232	0.926841	0.540286
	N260	N	0.449521	0.195294	0.919934
	N261	N	0.522310	0.195247	0.092089
	N262	N	0.448432	0.837236	0.093247
	N263	N	0.522764	0.837611	0.921111
	N264	N	0.449839	0.929268	0.186885
	N265	N	0.522937	0.101786	0.184860
	N266	N	0.450121	0.104156	0.824845
	N267	N	0.521703	0.927839	0.824013
	N268	N	0.900624	0.194190	0.469057
	N269	N	0.073722	0.195718	0.541033
	N270	N	0.071807	0.835530	0.469223
	N271	N	0.898499	0.836364	0.541886
	N272	N	0.165130	0.480948	0.919955
	N273	N	0.164254	0.552973	0.094274
	N274	N	0.802967	0.479483	0.096177
	N275	N	0.806614	0.552676	0.923774
	O276	O	0.279662	0.649504	0.431014
	H277	H	0.267348	0.653828	0.417177
	H278	H	0.280196	0.648893	0.421743
	O279	O	0.343077	0.388483	0.535193
	H280	H	0.350793	0.372924	0.543254
	H281	H	0.328082	0.394934	0.551853
	O282	O	0.743674	0.772438	0.279642
	H283	H	0.740536	0.782369	0.270649
	H284	H	0.740370	0.752508	0.263800
	O285	O	0.663489	0.394823	0.454333
	H286	H	0.645693	0.400841	0.462578
	H287	H	0.669056	0.379147	0.441409
	O288	O	-0.127062	-0.019180	0.817837
	H289	H	-0.118816	-0.029248	0.813100
	H290	H	-0.120649	-0.013801	0.816383
	O291	O	0.468068	0.417015	0.660788
	H292	H	0.457751	0.417917	0.662577
	H293	H	0.460442	0.411937	0.669363
	O294	O	0.670876	0.389729	0.501247
	H295	H	0.663420	0.377117	0.517961
	H296	H	0.663396	0.394797	0.494711
	O297	O	1.013217	1.050263	0.853641
	H298	H	1.000062	1.073984	0.853927
	H299	H	1.012846	1.043396	0.846620
	O300	O	-0.110041	-0.147544	0.001871
	H301	H	-0.100234	-0.164922	-0.019115
	H302	H	-0.098174	-0.139569	-0.001047
	O303	O	0.336888	0.574610	0.360344
	H304	H	0.363544	0.571610	0.361172
	H305	H	0.329087	0.559427	0.351929
	O306	O	0.972314	0.111942	0.047424
	H307	H	0.970369	0.092397	0.047686
	H308	H	0.985885	0.123167	0.033342
	O309	O	0.513874	0.495010	0.393486
	H310	H	0.519310	0.492287	0.397817
	H311	H	0.514187	0.483639	0.390015
	O312	O	1.192332	0.808784	-0.021800
	H313	H	1.210273	0.795824	-0.014334
	H314	H	1.185367	0.799150	0.001602
	O315	O	0.600188	0.614768	0.585992
	H316	H	0.596566	0.609921	0.595872
	H317	H	0.592245	0.605136	0.579626
	O318	O	0.377459	0.471342	0.678034
	H319	H	0.396495	0.484485	0.691247
	H320	H	0.384455	0.487590	0.682636
	O321	O	0.930981	0.086711	1.041939
	H322	H	0.928745	0.087171	1.045961
	H323	H	0.924993	0.083630	1.048253
	O324	O	0.143138	-0.166022	0.816213
	H325	H	0.152482	-0.141025	0.812469
	H326	H	0.162909	-0.169098	0.846014
	O327	O	0.974140	-0.186049	-0.191730
	H328	H	0.985004	-0.213236	-0.211209
	H329	H	1.009746	-0.175844	-0.196295
	O330	O	0.402783	0.429414	0.532047
	H331	H	0.397286	0.440733	0.524640
	H332	H	0.425219	0.434550	0.521856
	O333	O	1.523532	0.542216	1.542818
	H334	H	1.536264	0.538568	1.548719
	H335	H	1.523548	0.550121	1.541276
	O336	O	0.503447	0.481887	0.607768
	H337	H	0.511163	0.487584	0.611897
	H338	H	0.503981	0.459352	0.616560
	O339	O	0.902886	-0.126849	1.138421
	H340	H	0.900896	-0.133694	1.144619
	H341	H	0.888112	-0.112324	1.130074
	O342	O	0.134864	0.949339	0.855191
	H343	H	0.162456	0.949389	0.829379
	H344	H	0.131536	0.957416	0.865426
	O345	O	-0.215257	1.060787	0.891181
	H346	H	-0.203392	1.043293	0.896039
	H347	H	-0.226537	1.046643	0.874600
	O348	O	0.343681	0.373072	0.481618
	H349	H	0.347391	0.359495	0.500023
	H350	H	0.324443	0.395527	0.483735
	O351	O	-0.090714	0.032552	0.186659
	H352	H	-0.078708	0.045500	0.183042
	H353	H	-0.085060	0.023161	0.182943
	O354	O	0.928666	1.107907	0.149917
	H355	H	0.950445	1.118562	0.156829
	H356	H	0.920231	1.100086	0.131777
	O357	O	0.065774	1.076573	0.180807
	H358	H	0.055019	1.074594	0.189436
	H359	H	0.059804	1.064344	0.178072
	O360	O	0.631644	0.416753	0.380469
	H361	H	0.611812	0.408352	0.385655
	H362	H	0.646374	0.409142	0.361069
	O363	O	0.570630	0.640442	0.415299
	H364	H	0.584825	0.638447	0.414352
	H365	H	0.571080	0.640184	0.411373
	O366	O	1.181400	0.103128	0.979802
	H367	H	1.175103	0.120769	0.979828
	H368	H	1.183051	0.080359	0.971232
	O369	O	-0.009006	0.083832	0.158011
	H370	H	-0.024104	0.097456	0.151690
	H371	H	0.000799	0.087528	0.167340
	O372	O	0.374166	0.557478	0.700729
	H373	H	0.386557	0.559845	0.704111
	H374	H	0.387728	0.565795	0.700420
	O375	O	1.037670	0.046999	0.087245
	H376	H	1.025616	0.041396	0.096105
	H377	H	1.037203	0.048582	0.096956
	O378	O	0.294237	0.421298	0.559288
	H379	H	0.290315	0.422267	0.568551
	H380	H	0.291067	0.413949	0.559564
	O381	O	0.661230	0.531719	0.483391
	H382	H	0.664527	0.543882	0.473606
	H383	H	0.645246	0.534193	0.474826
	O384	O	0.165134	1.025849	0.927129
	H385	H	0.152952	1.032810	0.927694
	H386	H	0.163165	1.017358	0.930538
	O387	O	1.076967	1.150880	-0.057910
	H388	H	1.076499	1.151610	-0.070641
	H389	H	1.071957	1.156137	-0.054602
	O390	O	0.377116	0.639916	0.630719
	H391	H	0.375590	0.652561	0.635667
	H392	H	0.383556	0.651996	0.612973
	O393	O	1.679418	-0.439415	0.609323
	H394	H	1.682128	-0.416953	0.612252
	H395	H	1.695589	-0.435317	0.606980
	O396	O	0.014957	1.165656	1.067321
	H397	H	0.024105	1.152011	1.067436
	H398	H	0.022156	1.169635	1.062457
	O399	O	0.571479	0.667971	0.409020
	H400	H	0.573184	0.668246	0.409711
	H401	H	0.577951	0.654796	0.406983
	O402	O	1.148579	0.027386	1.056192
	H403	H	1.146323	0.021278	1.049989
	H404	H	1.145853	0.034709	1.076384
	O405	O	0.394749	-0.414231	-0.405870
	H406	H	0.410907	-0.408521	-0.406759
	H407	H	0.390464	-0.425084	-0.402321
	O408	O	0.867621	1.075465	1.007201
	H409	H	0.869498	1.066918	1.009082
	H410	H	0.889687	1.069141	1.011714
	O411	O	0.829077	1.190795	-0.128123
	H412	H	0.815218	1.201013	-0.101791
	H413	H	0.833593	1.167575	-0.127234
	O414	O	-0.038247	0.226010	0.795428
	H415	H	-0.044525	0.250698	0.779759
	H416	H	-0.059328	0.226961	0.803056
	O417	O	0.514770	0.354963	0.334514
	H418	H	0.509775	0.358193	0.334778
	H419	H	0.509584	0.355393	0.334224
	O420	O	-0.152313	0.903677	0.074857
	H421	H	-0.163821	0.900998	0.061175
	H422	H	-0.150921	0.908729	0.068709
	O423	O	1.470530	-0.407967	-0.472880
	H424	H	1.467225	-0.417663	-0.480217
	H425	H	1.461906	-0.411094	-0.468259
	O426	O	0.005331	-0.180564	1.045134
	H427	H	0.004681	-0.190502	1.044557
	H428	H	-0.000070	-0.174719	1.051667
	O429	O	0.421442	0.590006	0.315369
	H430	H	0.403857	0.595983	0.306666
	H431	H	0.411717	0.589852	0.332981
