data_Molecule from HDF5

_cell_length_a		16.236420
_cell_length_b		16.244870
_cell_length_c		16.414335
_cell_angle_alpha	89.950301
_cell_angle_beta	89.412698
_cell_angle_gamma	89.931608
_symmetry_space_group_name_H-M	'P 1'
_symmetry_Int_Tables_number		1

loop_
	_symmetry_equiv_pos_as_xyz
	x,y,z

loop_
	_atom_site_label
	_atom_site_type_symbol
	_atom_site_fract_x
	_atom_site_fract_y
	_atom_site_fract_z
	H0	H	0.395343	0.838975	0.716653
	H1	H	0.600917	0.162509	0.713282
	H2	H	0.602396	0.838232	0.277387
	H3	H	0.394135	0.161513	0.277994
	H4	H	0.718041	0.398393	0.836272
	H5	H	0.712060	0.602523	0.157531
	H6	H	0.280355	0.602605	0.835264
	H7	H	0.277477	0.399558	0.157421
	H8	H	0.834623	0.716205	0.398380
	H9	H	0.161094	0.714204	0.595497
	H10	H	0.833678	0.283976	0.599276
	H11	H	0.159745	0.282842	0.394886
	H12	H	0.835319	0.396134	0.716849
	H13	H	0.160039	0.600485	0.712100
	H14	H	0.835782	0.604601	0.279283
	H15	H	0.158566	0.395915	0.276501
	H16	H	0.396442	0.719299	0.835305
	H17	H	0.595584	0.717924	0.157430
	H18	H	0.600562	0.283679	0.835025
	H19	H	0.391086	0.280249	0.156259
	H20	H	0.714469	0.836863	0.396868
	H21	H	0.711895	0.163022	0.593782
	H22	H	0.282851	0.836574	0.597687
	H23	H	0.280867	0.162421	0.396728
	H24	H	0.892369	0.338465	0.217478
	H25	H	0.099049	0.661808	0.212820
	H26	H	0.100016	0.337228	0.778683
	H27	H	0.895387	0.662017	0.779063
	H28	H	0.219036	0.895902	0.336364
	H29	H	0.214211	0.100924	0.658655
	H30	H	0.781667	0.102397	0.336497
	H31	H	0.778930	0.898783	0.658592
	H32	H	0.335036	0.216335	0.896241
	H33	H	0.661070	0.216369	0.092599
	H34	H	0.333789	0.785728	0.097328
	H35	H	0.660390	0.783491	0.893315
	H36	H	0.336876	0.896558	0.217372
	H37	H	0.660450	0.104175	0.212525
	H38	H	0.336143	0.104400	0.779243
	H39	H	0.660860	0.900016	0.778510
	H40	H	0.896263	0.218215	0.337264
	H41	H	0.098625	0.217872	0.658830
	H42	H	0.101312	0.780445	0.335820
	H43	H	0.896731	0.783110	0.659091
	H44	H	0.215638	0.337284	0.893932
	H45	H	0.209945	0.663093	0.093939
	H46	H	0.779631	0.336995	0.097863
	H47	H	0.783092	0.663456	0.898140
	H48	H	0.398524	0.117478	0.587031
	H49	H	0.579380	0.888291	0.585381
	H50	H	0.595141	0.115870	0.409373
	H51	H	0.407881	0.885596	0.411183
	H52	H	0.586393	0.405295	0.111327
	H53	H	0.586338	0.586646	0.884099
	H54	H	0.402798	0.594008	0.111239
	H55	H	0.405721	0.407135	0.880082
	H56	H	0.117194	0.593505	0.396180
	H57	H	0.883352	0.589008	0.585665
	H58	H	0.114490	0.410081	0.591722
	H59	H	0.881433	0.412878	0.403845
	H60	H	0.113397	0.403792	0.584479
	H61	H	0.881550	0.587372	0.594261
	H62	H	0.112097	0.593550	0.411377
	H63	H	0.880246	0.405898	0.407621
	H64	H	0.402022	0.591410	0.111079
	H65	H	0.587141	0.598820	0.881074
	H66	H	0.589490	0.410810	0.111557
	H67	H	0.405191	0.412706	0.882698
	H68	H	0.590047	0.118548	0.395546
	H69	H	0.595380	0.882875	0.582607
	H70	H	0.408677	0.117716	0.595683
	H71	H	0.405735	0.882393	0.402864
	H72	H	0.910456	0.613726	0.088327
	H73	H	0.090356	0.381806	0.087719
	H74	H	0.092903	0.617416	0.905387
	H75	H	0.908112	0.384814	0.907802
	H76	H	0.083578	0.902588	0.611759
	H77	H	0.087437	0.093615	0.383282
	H78	H	0.902804	0.097706	0.614562
	H79	H	0.906924	0.907687	0.383320
	H80	H	0.614771	0.093144	0.901769
	H81	H	0.381085	0.091371	0.089966
	H82	H	0.608106	0.913787	0.073326
	H83	H	0.381100	0.907893	0.905984
	H84	H	0.614067	0.919026	0.097060
	H85	H	0.383110	0.090546	0.085060
	H86	H	0.614249	0.093084	0.903221
	H87	H	0.382209	0.912398	0.906557
	H88	H	0.898159	0.085974	0.612350
	H89	H	0.092285	0.089385	0.383618
	H90	H	0.094981	0.903599	0.614527
	H91	H	0.908052	0.908048	0.382463
	H92	H	0.087031	0.617165	0.898144
	H93	H	0.083591	0.383930	0.090777
	H94	H	0.901799	0.615259	0.085298
	H95	H	0.905489	0.383989	0.906252
	H96	H	0.410594	0.112712	0.582711
	H97	H	0.587941	0.881247	0.598039
	H98	H	0.581099	0.113401	0.405775
	H99	H	0.414002	0.885556	0.404549
	H100	H	0.583731	0.410155	0.109541
	H101	H	0.597046	0.591124	0.879986
	H102	H	0.404105	0.592498	0.110222
	H103	H	0.410724	0.409285	0.883452
	H104	H	0.110804	0.580600	0.402014
	H105	H	0.879644	0.595619	0.590614
	H106	H	0.109995	0.412611	0.584179
	H107	H	0.884025	0.411810	0.411998
	H108	H	0.904251	0.617358	0.093895
	H109	H	0.084902	0.385453	0.083422
	H110	H	0.084010	0.613427	0.906566
	H111	H	0.908421	0.384846	0.904746
	H112	H	0.089558	0.912948	0.608910
	H113	H	0.086184	0.087358	0.385243
	H114	H	0.910558	0.089042	0.609450
	H115	H	0.907781	0.907612	0.382287
	H116	H	0.614585	0.091148	0.902145
	H117	H	0.383757	0.086448	0.088217
	H118	H	0.618519	0.896680	0.087270
	H119	H	0.381262	0.910263	0.902546
	C120	C	0.376034	0.008695	0.619100
	C121	C	0.617929	0.991306	0.617339
	C122	C	0.619985	0.008638	0.374008
	C123	C	0.377428	0.991690	0.376053
	C124	C	0.618577	0.378398	0.004622
	C125	C	0.618608	0.622287	0.988000
	C126	C	0.374327	0.622889	0.004499
	C127	C	0.375041	0.378403	0.987829
	C128	C	0.005939	0.620592	0.374955
	C129	C	0.989199	0.620362	0.618345
	C130	C	0.005439	0.378106	0.618342
	C131	C	0.988552	0.378460	0.375781
	C132	C	0.874551	0.508388	0.119422
	C133	C	0.116667	0.491064	0.116730
	C134	C	0.118664	0.508263	0.873991
	C135	C	0.876896	0.491840	0.876230
	C136	C	0.120285	0.876216	0.505093
	C137	C	0.118780	0.120831	0.489860
	C138	C	0.874919	0.121609	0.506034
	C139	C	0.876142	0.877863	0.489110
	C140	C	0.507046	0.122839	0.873475
	C141	C	0.489682	0.121047	0.117075
	C142	C	0.506282	0.879063	0.117169
	C143	C	0.489343	0.879881	0.874670
	C144	C	0.376190	0.887189	0.677343
	C145	C	0.618693	0.114206	0.673654
	C146	C	0.621197	0.886548	0.316297
	C147	C	0.375826	0.113201	0.317584
	C148	C	0.678069	0.379201	0.884091
	C149	C	0.673886	0.622087	0.109279
	C150	C	0.318517	0.622043	0.883315
	C151	C	0.316256	0.379122	0.108893
	C152	C	0.883503	0.677930	0.377673
	C153	C	0.112016	0.676429	0.615750
	C154	C	0.882834	0.321608	0.618708
	C155	C	0.110776	0.320912	0.375260
	C156	C	0.883640	0.377508	0.677313
	C157	C	0.111594	0.619523	0.673819
	C158	C	0.883977	0.622136	0.318687
	C159	C	0.110277	0.377173	0.316250
	C160	C	0.376488	0.679969	0.883422
	C161	C	0.616139	0.679591	0.109147
	C162	C	0.619630	0.322077	0.883415
	C163	C	0.373100	0.320137	0.108362
	C164	C	0.676898	0.886011	0.375667
	C165	C	0.674206	0.114376	0.614506
	C166	C	0.320126	0.886067	0.618360
	C167	C	0.319094	0.113483	0.376522
	C168	C	0.873388	0.386582	0.177751
	C169	C	0.117213	0.613357	0.173779
	C170	C	0.119363	0.385900	0.817156
	C171	C	0.876480	0.613734	0.818541
	C172	C	0.179344	0.876562	0.384383
	C173	C	0.175705	0.120518	0.610562
	C174	C	0.819248	0.121763	0.384842
	C175	C	0.817962	0.878988	0.610359
	C176	C	0.384298	0.179010	0.875778
	C177	C	0.612130	0.178408	0.114098
	C178	C	0.383047	0.823115	0.117307
	C179	C	0.611739	0.822517	0.874526
	C180	C	0.384532	0.878270	0.177042
	C181	C	0.611748	0.122598	0.173680
	C182	C	0.384955	0.123379	0.817359
	C183	C	0.612022	0.880087	0.817116
	C184	C	0.876239	0.179567	0.385260
	C185	C	0.117917	0.178811	0.610644
	C186	C	0.120516	0.819218	0.384006
	C187	C	0.876539	0.821472	0.610747
	C188	C	0.176725	0.385984	0.874653
	C189	C	0.172368	0.614138	0.114582
	C190	C	0.817535	0.385849	0.118270
	C191	C	0.820689	0.614470	0.877754
	C192	C	0.399174	0.093940	0.595396
	C193	C	0.594227	0.906278	0.595195
	C194	C	0.595973	0.093631	0.396889
	C195	C	0.401904	0.906508	0.399379
	C196	C	0.593650	0.401854	0.089001
	C197	C	0.596487	0.598889	0.903494
	C198	C	0.396454	0.599450	0.088919
	C199	C	0.400078	0.402648	0.903822
	C200	C	0.091311	0.596352	0.396934
	C201	C	0.903616	0.597479	0.596456
	C202	C	0.090569	0.401921	0.593853
	C203	C	0.903918	0.403070	0.400498
	C204	C	0.898432	0.593231	0.096083
	C205	C	0.093135	0.405974	0.093864
	C206	C	0.094914	0.593736	0.896668
	C207	C	0.900645	0.406608	0.899493
	C208	C	0.096207	0.899625	0.589850
	C209	C	0.095412	0.097008	0.405899
	C210	C	0.897565	0.097775	0.590417
	C211	C	0.900512	0.900925	0.404525
	C212	C	0.592445	0.099322	0.895770
	C213	C	0.404692	0.096543	0.094444
	C214	C	0.591391	0.902929	0.092864
	C215	C	0.403999	0.903460	0.898091
	Zn216	Zn	0.498102	0.001225	0.746351
	Zn217	Zn	0.498949	-0.000107	0.245965
	Zn218	Zn	0.747182	0.500649	-0.002802
	Zn219	Zn	0.245521	0.500469	-0.003999
	Zn220	Zn	-0.002446	0.748069	0.496811
	Zn221	Zn	-0.003663	0.250055	0.497798
	Zn222	Zn	-0.002637	0.499233	0.746639
	Zn223	Zn	-0.003148	0.499485	0.246832
	Zn224	Zn	0.497008	0.751311	-0.003978
	Zn225	Zn	0.497033	0.249345	-0.004251
	Zn226	Zn	0.746922	-0.000231	0.496711
	Zn227	Zn	0.248110	-0.000634	0.497439
	N228	N	0.410090	0.964643	0.678008
	N229	N	0.584439	0.036976	0.675504
	N230	N	0.586757	0.963883	0.315003
	N231	N	0.411452	0.036364	0.317113
	N232	N	0.677391	0.413729	0.960673
	N233	N	0.675607	0.587251	0.032933
	N234	N	0.317204	0.586968	0.959646
	N235	N	0.317273	0.414759	0.033028
	N236	N	0.960485	0.677143	0.411990
	N237	N	0.034908	0.677051	0.582056
	N238	N	0.959636	0.321847	0.582759
	N239	N	0.034251	0.321646	0.411864
	N240	N	0.960944	0.411950	0.677158
	N241	N	0.034146	0.585465	0.675660
	N242	N	0.961178	0.587323	0.316935
	N243	N	0.033311	0.412200	0.316503
	N244	N	0.410355	0.680608	0.959558
	N245	N	0.582631	0.680024	0.032614
	N246	N	0.582980	0.321750	0.959270
	N247	N	0.408894	0.319632	0.032038
	N248	N	0.676404	0.962821	0.410753
	N249	N	0.673782	0.037185	0.580010
	N250	N	0.319797	0.962741	0.582954
	N251	N	0.320150	0.036878	0.412160
	N252	N	0.907923	0.463685	0.178828
	N253	N	0.082986	0.535807	0.175338
	N254	N	0.084210	0.462988	0.816404
	N255	N	0.910628	0.536247	0.817357
	N256	N	0.179227	0.911244	0.460883
	N257	N	0.176315	0.085299	0.534491
	N258	N	0.818187	0.086616	0.460938
	N259	N	0.817646	0.913241	0.533683
	N260	N	0.461250	0.179055	0.909795
	N261	N	0.535255	0.177550	0.079841
	N262	N	0.459716	0.823473	0.080892
	N263	N	0.534439	0.822149	0.909581
	N264	N	0.462077	0.912320	0.177097
	N265	N	0.534407	0.087795	0.175885
	N266	N	0.462380	0.089125	0.815647
	N267	N	0.534983	0.915050	0.817028
	N268	N	0.910259	0.179545	0.461684
	N269	N	0.083167	0.179318	0.534573
	N270	N	0.084689	0.819044	0.460189
	N271	N	0.911837	0.820510	0.534288
	N272	N	0.176551	0.463151	0.909139
	N273	N	0.172442	0.537279	0.079926
	N274	N	0.817987	0.462709	0.082880
	N275	N	0.820636	0.537652	0.912885
	O276	O	0.066365	0.073615	-0.138252
	H277	H	0.057657	0.067719	-0.138519
	H278	H	0.065992	0.080462	-0.145408
	O279	O	0.483193	0.484573	0.525909
	H280	H	0.491781	0.480815	0.533557
	H281	H	0.479241	0.485869	0.520058
	O282	O	1.035667	-0.074694	0.049117
	H283	H	1.043338	-0.062505	0.047319
	H284	H	1.041157	-0.079803	0.029110
	O285	O	0.050850	1.040692	0.085713
	H286	H	0.041203	1.043834	0.075834
	H287	H	0.055366	1.033255	0.090657
	O288	O	0.461200	0.510039	0.546807
	H289	H	0.459850	0.503718	0.543848
	H290	H	0.457346	0.501879	0.554274
	O291	O	0.424653	0.467794	0.515191
	H292	H	0.435897	0.466947	0.526850
	H293	H	0.431403	0.466930	0.516390
	O294	O	1.039133	1.005418	1.029708
	H295	H	1.040985	0.999245	1.034327
	H296	H	1.044547	1.026126	1.024392
	O297	O	0.094447	0.069024	0.045049
	H298	H	0.105148	0.067608	0.048789
	H299	H	0.104448	0.064349	0.051766
	O300	O	0.372595	0.453308	0.382076
	H301	H	0.373200	0.439617	0.390101
	H302	H	0.367900	0.455480	0.388770
	O303	O	0.070516	0.895608	1.033041
	H304	H	0.070312	0.891459	1.018564
	H305	H	0.073524	0.895264	1.025667
	O306	O	0.454247	0.484480	0.413333
	H307	H	0.472561	0.489215	0.423204
	H308	H	0.457657	0.486912	0.414357
	O309	O	1.060875	0.072599	-0.055174
	H310	H	1.050207	0.080213	-0.064268
	H311	H	1.058088	0.078200	-0.054724
	O312	O	0.011005	-0.087383	0.996396
	H313	H	0.006924	-0.085956	1.005632
	H314	H	0.019942	-0.084281	1.006777
	O315	O	0.533055	0.509312	0.531092
	H316	H	0.521352	0.516710	0.527515
	H317	H	0.541249	0.527085	0.531840
	O318	O	0.494787	0.465857	0.665873
	H319	H	0.503165	0.468477	0.672668
	H320	H	0.482593	0.463364	0.672463
	O321	O	0.544954	0.555545	0.437771
	H322	H	0.534209	0.561865	0.432057
	H323	H	0.550601	0.558254	0.429957
	O324	O	0.477292	0.589683	0.655737
	H325	H	0.464706	0.591930	0.662584
	H326	H	0.474298	0.586543	0.655078
	O327	O	0.188994	0.884718	0.895710
	H328	H	0.187279	0.896339	0.890459
	H329	H	0.197027	0.888236	0.889251
	O330	O	0.511281	0.351943	0.518909
	H331	H	0.515268	0.349830	0.529871
	H332	H	0.512173	0.357098	0.507745
	O333	O	-0.067389	0.942203	1.038118
	H334	H	-0.061252	0.952326	1.049534
	H335	H	-0.084818	0.923803	1.043260
	O336	O	0.920743	0.982855	0.977752
	H337	H	0.922797	0.983485	0.979586
	H338	H	0.914072	0.971605	0.974106
	O339	O	0.693239	0.421485	0.343880
	H340	H	0.688442	0.419116	0.346452
	H341	H	0.706417	0.407189	0.334043
	O342	O	0.908084	-0.065595	-0.007367
	H343	H	0.889231	-0.056558	-0.003453
	H344	H	0.918328	-0.071759	-0.001952
	O345	O	0.560431	0.417016	0.332436
	H346	H	0.552962	0.408785	0.343317
	H347	H	0.569905	0.390922	0.316536
	O348	O	0.890085	1.073684	0.917659
	H349	H	0.893401	1.069025	0.925883
	H350	H	0.890476	1.069624	0.915328
	O351	O	0.921852	0.939026	0.096134
	H352	H	0.918844	0.937566	0.102196
	H353	H	0.927314	0.928890	0.100187
	O354	O	0.586286	0.465426	0.665221
	H355	H	0.581745	0.474313	0.671174
	H356	H	0.587841	0.466837	0.665886
	O357	O	0.658517	0.353689	0.446580
	H358	H	0.637694	0.341576	0.437926
	H359	H	0.662383	0.360908	0.458719
	O360	O	-0.042963	0.058350	0.148755
	H361	H	-0.029351	0.043815	0.153422
	H362	H	-0.039227	0.061063	0.154939
	O363	O	0.379257	0.640682	0.571400
	H364	H	0.360471	0.635322	0.565276
	H365	H	0.386907	0.639237	0.569232
	O366	O	0.487682	0.598370	0.590669
	H367	H	0.492652	0.602319	0.587913
	H368	H	0.490588	0.605279	0.594520
	O369	O	0.416733	0.554608	0.398196
	H370	H	0.419230	0.556435	0.384787
	H371	H	0.434715	0.553459	0.391045
	O372	O	0.483803	0.659706	0.568318
	H373	H	0.480484	0.667962	0.569529
	H374	H	0.481009	0.659590	0.565010
	O375	O	0.575466	0.554105	0.440490
	H376	H	0.582348	0.539276	0.440458
	H377	H	0.570735	0.556574	0.442358
	O378	O	0.356421	0.378575	0.528509
	H379	H	0.358640	0.383348	0.524015
	H380	H	0.349875	0.387374	0.529166
	O381	O	0.517523	0.397602	0.328443
	H382	H	0.510479	0.393746	0.329428
	H383	H	0.519250	0.398103	0.321569
	O384	O	-0.115116	1.076789	-0.059601
	H385	H	-0.120414	1.091737	-0.058460
	H386	H	-0.105910	1.085994	-0.049253
	O387	O	1.030009	-0.107311	0.854954
	H388	H	1.029732	-0.102393	0.852079
	H389	H	1.028256	-0.109547	0.836330
	O390	O	0.056497	1.068396	0.152133
	H391	H	0.061967	1.071178	0.158690
	H392	H	0.054646	1.063570	0.159478
	O393	O	0.914436	0.943206	0.179643
	H394	H	0.912942	0.933069	0.170092
	H395	H	0.917462	0.942330	0.189392
	O396	O	0.493206	0.344272	0.606840
	H397	H	0.511027	0.352220	0.606953
	H398	H	0.486919	0.341059	0.603218
	O399	O	0.035970	0.942822	0.988095
	H400	H	0.037850	0.946372	0.997642
	H401	H	0.038433	0.934765	0.976357
	O402	O	1.051089	1.009764	0.961836
	H403	H	1.042416	1.011815	0.952810
	H404	H	1.058108	1.003685	0.968519
	O405	O	0.568218	0.668833	0.410839
	H406	H	0.561517	0.677676	0.407009
	H407	H	0.570265	0.655640	0.421236
