data_Molecule from HDF5

_cell_length_a		16.070281
_cell_length_b		16.449057
_cell_length_c		16.214976
_cell_angle_alpha	90.027826
_cell_angle_beta	90.039008
_cell_angle_gamma	90.279397
_symmetry_space_group_name_H-M	'P 1'
_symmetry_Int_Tables_number		1

loop_
	_symmetry_equiv_pos_as_xyz
	x,y,z

loop_
	_atom_site_label
	_atom_site_type_symbol
	_atom_site_fract_x
	_atom_site_fract_y
	_atom_site_fract_z
	H0	H	0.406730	0.838951	0.712513
	H1	H	0.610183	0.162742	0.711445
	H2	H	0.608711	0.838982	0.278255
	H3	H	0.409010	0.162802	0.277316
	H4	H	0.719402	0.405481	0.829606
	H5	H	0.720117	0.596134	0.160550
	H6	H	0.297570	0.596523	0.828573
	H7	H	0.293097	0.403485	0.157989
	H8	H	0.844014	0.715798	0.393347
	H9	H	0.172665	0.717711	0.595906
	H10	H	0.843474	0.283795	0.595095
	H11	H	0.172371	0.285002	0.391429
	H12	H	0.842344	0.402612	0.705938
	H13	H	0.175099	0.598016	0.705417
	H14	H	0.842092	0.596926	0.282363
	H15	H	0.173809	0.403341	0.280742
	H16	H	0.408008	0.717319	0.831685
	H17	H	0.612692	0.718440	0.157861
	H18	H	0.612098	0.282804	0.832447
	H19	H	0.403050	0.282629	0.156634
	H20	H	0.721086	0.837508	0.397723
	H21	H	0.725346	0.162824	0.594110
	H22	H	0.292021	0.837685	0.593913
	H23	H	0.294786	0.163497	0.396853
	H24	H	0.906217	0.339466	0.210657
	H25	H	0.109323	0.662576	0.209694
	H26	H	0.107300	0.338932	0.777861
	H27	H	0.909175	0.662527	0.776880
	H28	H	0.219573	0.905838	0.329577
	H29	H	0.221023	0.098074	0.659597
	H30	H	0.796511	0.094670	0.329150
	H31	H	0.795616	0.903453	0.659906
	H32	H	0.342987	0.215444	0.894333
	H33	H	0.671725	0.219703	0.097797
	H34	H	0.344478	0.784285	0.096670
	H35	H	0.672963	0.786924	0.895501
	H36	H	0.342726	0.902947	0.207024
	H37	H	0.675133	0.098420	0.206233
	H38	H	0.342711	0.097490	0.781354
	H39	H	0.675024	0.906119	0.784377
	H40	H	0.904893	0.217318	0.331166
	H41	H	0.111836	0.219761	0.655804
	H42	H	0.110053	0.784719	0.330921
	H43	H	0.906506	0.782587	0.657346
	H44	H	0.221528	0.338362	0.895672
	H45	H	0.222945	0.663691	0.090122
	H46	H	0.793047	0.338132	0.091323
	H47	H	0.795132	0.664444	0.897288
	H48	H	0.425276	0.111186	0.583058
	H49	H	0.597566	0.887103	0.585399
	H50	H	0.606304	0.117459	0.400588
	H51	H	0.423293	0.887952	0.399445
	H52	H	0.601475	0.406300	0.113196
	H53	H	0.600996	0.595464	0.877244
	H54	H	0.405434	0.593707	0.114730
	H55	H	0.420497	0.410602	0.880024
	H56	H	0.126566	0.596399	0.405236
	H57	H	0.894495	0.584251	0.580691
	H58	H	0.128162	0.402675	0.587742
	H59	H	0.891459	0.402084	0.413860
	H60	H	0.124252	0.408538	0.578421
	H61	H	0.887348	0.592188	0.594840
	H62	H	0.125700	0.590623	0.403035
	H63	H	0.892956	0.418802	0.401522
	H64	H	0.422058	0.585012	0.106858
	H65	H	0.598993	0.595268	0.877613
	H66	H	0.599414	0.412083	0.110756
	H67	H	0.419095	0.401551	0.875726
	H68	H	0.599593	0.115834	0.396327
	H69	H	0.605325	0.884960	0.588123
	H70	H	0.407707	0.116723	0.582814
	H71	H	0.411482	0.887161	0.407957
	H72	H	0.919895	0.615114	0.087617
	H73	H	0.098354	0.385897	0.085821
	H74	H	0.102897	0.616584	0.899441
	H75	H	0.916803	0.388258	0.904195
	H76	H	0.107944	0.911753	0.612674
	H77	H	0.106163	0.086544	0.377156
	H78	H	0.910157	0.099732	0.614704
	H79	H	0.920547	0.904935	0.378172
	H80	H	0.624294	0.093444	0.908342
	H81	H	0.389268	0.089447	0.090752
	H82	H	0.625318	0.911710	0.082725
	H83	H	0.389214	0.899786	0.908150
	H84	H	0.628379	0.910503	0.091899
	H85	H	0.388800	0.098603	0.085456
	H86	H	0.626097	0.092421	0.901161
	H87	H	0.393151	0.913967	0.908821
	H88	H	0.917276	0.084605	0.608423
	H89	H	0.090615	0.093286	0.379638
	H90	H	0.090120	0.910729	0.607588
	H91	H	0.912986	0.902886	0.375612
	H92	H	0.102574	0.616613	0.898884
	H93	H	0.102306	0.385419	0.087229
	H94	H	0.911716	0.616812	0.085234
	H95	H	0.907572	0.383327	0.899757
	H96	H	0.417610	0.118000	0.598146
	H97	H	0.599086	0.884561	0.594034
	H98	H	0.600991	0.114246	0.403830
	H99	H	0.411436	0.883100	0.394937
	H100	H	0.594832	0.407057	0.110658
	H101	H	0.599855	0.596650	0.877500
	H102	H	0.422711	0.604028	0.112980
	H103	H	0.411268	0.408275	0.875772
	H104	H	0.128236	0.594940	0.399236
	H105	H	0.889646	0.601039	0.579532
	H106	H	0.126039	0.413865	0.588903
	H107	H	0.885592	0.400643	0.393125
	H108	H	0.914242	0.618251	0.093783
	H109	H	0.099214	0.385000	0.089847
	H110	H	0.102315	0.616680	0.898612
	H111	H	0.916512	0.385008	0.894249
	H112	H	0.098345	0.896759	0.614682
	H113	H	0.103922	0.102942	0.374194
	H114	H	0.927392	0.098894	0.610305
	H115	H	0.913977	0.910352	0.378154
	H116	H	0.628090	0.099514	0.903685
	H117	H	0.393070	0.090610	0.080195
	H118	H	0.628094	0.902681	0.085465
	H119	H	0.388076	0.907753	0.895808
	C120	C	0.386339	0.008574	0.617299
	C121	C	0.630925	0.992506	0.617938
	C122	C	0.630617	0.008416	0.372165
	C123	C	0.386911	0.993105	0.372260
	C124	C	0.628386	0.379781	0.003222
	C125	C	0.629937	0.623590	0.986290
	C126	C	0.387867	0.622348	0.003124
	C127	C	0.386465	0.378551	0.985249
	C128	C	0.017306	0.621880	0.373561
	C129	C	0.999826	0.621440	0.614551
	C130	C	0.017062	0.379098	0.614695
	C131	C	0.999637	0.379220	0.373168
	C132	C	0.885986	0.509272	0.116416
	C133	C	0.129993	0.492387	0.115876
	C134	C	0.130863	0.509340	0.870646
	C135	C	0.885472	0.492733	0.871312
	C136	C	0.128980	0.878461	0.503222
	C137	C	0.129894	0.123045	0.485330
	C138	C	0.887844	0.122146	0.502791
	C139	C	0.886730	0.878098	0.485982
	C140	C	0.516941	0.122956	0.874569
	C141	C	0.499818	0.122104	0.115359
	C142	C	0.517723	0.879086	0.116259
	C143	C	0.499485	0.879646	0.874816
	C144	C	0.387006	0.887181	0.673898
	C145	C	0.630455	0.114138	0.673632
	C146	C	0.628524	0.887192	0.316585
	C147	C	0.388553	0.114583	0.315684
	C148	C	0.682993	0.383696	0.879150
	C149	C	0.684337	0.618907	0.110480
	C150	C	0.333983	0.618348	0.878473
	C151	C	0.330535	0.381983	0.108861
	C152	C	0.893133	0.677257	0.374217
	C153	C	0.123811	0.678560	0.614647
	C154	C	0.892930	0.322591	0.614022
	C155	C	0.123304	0.323582	0.373012
	C156	C	0.892241	0.381746	0.669185
	C157	C	0.124840	0.619255	0.669435
	C158	C	0.892125	0.618180	0.319040
	C159	C	0.124035	0.382381	0.317777
	C160	C	0.388585	0.678710	0.880154
	C161	C	0.630494	0.679465	0.109378
	C162	C	0.629274	0.322846	0.880652
	C163	C	0.385625	0.322216	0.108210
	C164	C	0.684358	0.886416	0.376270
	C165	C	0.687629	0.114211	0.615106
	C166	C	0.330153	0.886558	0.614405
	C167	C	0.331990	0.115087	0.375445
	C168	C	0.887621	0.387360	0.171458
	C169	C	0.128918	0.614335	0.171236
	C170	C	0.127688	0.387279	0.816006
	C171	C	0.888200	0.614461	0.815391
	C172	C	0.183260	0.883403	0.379015
	C173	C	0.184683	0.120068	0.609706
	C174	C	0.833100	0.117247	0.378664
	C175	C	0.832321	0.881837	0.610189
	C176	C	0.392516	0.177886	0.874676
	C177	C	0.623058	0.179944	0.116034
	C178	C	0.393619	0.822800	0.115717
	C179	C	0.623981	0.824941	0.875781
	C180	C	0.392630	0.881645	0.170589
	C181	C	0.624776	0.119656	0.170010
	C182	C	0.392104	0.119118	0.818849
	C183	C	0.624963	0.884124	0.820643
	C184	C	0.887153	0.178058	0.379705
	C185	C	0.130363	0.180296	0.607839
	C186	C	0.129227	0.822846	0.380115
	C187	C	0.887474	0.821792	0.608922
	C188	C	0.184557	0.387068	0.874511
	C189	C	0.185455	0.614935	0.111868
	C190	C	0.831000	0.386796	0.112237
	C191	C	0.831748	0.615392	0.875237
	C192	C	0.409902	0.093293	0.594743
	C193	C	0.607336	0.907493	0.595863
	C194	C	0.608724	0.093865	0.393981
	C195	C	0.408934	0.908187	0.394259
	C196	C	0.605281	0.401773	0.089234
	C197	C	0.606735	0.602233	0.899835
	C198	C	0.410070	0.600607	0.089203
	C199	C	0.409978	0.400515	0.899429
	C200	C	0.104316	0.600228	0.395981
	C201	C	0.913081	0.598998	0.591763
	C202	C	0.103845	0.401701	0.591776
	C203	C	0.912462	0.400883	0.396091
	C204	C	0.908725	0.594754	0.095054
	C205	C	0.106789	0.407297	0.093989
	C206	C	0.108991	0.594586	0.892526
	C207	C	0.907279	0.407665	0.893064
	C208	C	0.105688	0.900122	0.589446
	C209	C	0.107153	0.100702	0.399368
	C210	C	0.911411	0.100860	0.588760
	C211	C	0.909254	0.899820	0.399661
	C212	C	0.603711	0.101475	0.897487
	C213	C	0.412879	0.099486	0.092264
	C214	C	0.604725	0.901761	0.093459
	C215	C	0.412725	0.900964	0.897477
	Zn216	Zn	0.508904	0.000929	0.747162
	Zn217	Zn	0.508655	0.000682	0.242201
	Zn218	Zn	0.756692	0.501495	-0.005304
	Zn219	Zn	0.259050	0.500646	-0.006715
	Zn220	Zn	0.008568	0.749500	0.494211
	Zn221	Zn	0.008712	0.251293	0.493649
	Zn222	Zn	0.008490	0.500446	0.742005
	Zn223	Zn	0.008457	0.500635	0.246070
	Zn224	Zn	0.508694	0.751535	-0.004477
	Zn225	Zn	0.507969	0.251015	-0.004874
	Zn226	Zn	0.759196	0.000538	0.494704
	Zn227	Zn	0.256791	0.000645	0.494755
	N228	N	0.421132	0.964119	0.675897
	N229	N	0.595769	0.037508	0.675514
	N230	N	0.595603	0.964222	0.313959
	N231	N	0.421931	0.037789	0.313714
	N232	N	0.682281	0.418757	0.956193
	N233	N	0.683899	0.584790	0.032874
	N234	N	0.333270	0.583986	0.955772
	N235	N	0.330966	0.416382	0.031518
	N236	N	0.972012	0.679510	0.407425
	N237	N	0.045135	0.679870	0.581247
	N238	N	0.971787	0.320644	0.580927
	N239	N	0.044883	0.321668	0.406875
	N240	N	0.970274	0.416157	0.669505
	N241	N	0.046688	0.584224	0.669577
	N242	N	0.970316	0.584288	0.318538
	N243	N	0.045827	0.416129	0.317788
	N244	N	0.421403	0.681322	0.958601
	N245	N	0.597345	0.682499	0.031011
	N246	N	0.596358	0.320021	0.959007
	N247	N	0.419548	0.319900	0.030341
	N248	N	0.685830	0.963135	0.409873
	N249	N	0.688059	0.037513	0.581207
	N250	N	0.329403	0.963121	0.580078
	N251	N	0.330490	0.038462	0.409696
	N252	N	0.921097	0.464586	0.174197
	N253	N	0.095225	0.537267	0.173851
	N254	N	0.095090	0.464327	0.813546
	N255	N	0.920799	0.537315	0.812729
	N256	N	0.183451	0.917334	0.456660
	N257	N	0.184662	0.085231	0.532570
	N258	N	0.833395	0.083259	0.456076
	N259	N	0.831742	0.916129	0.532858
	N260	N	0.471117	0.180455	0.908231
	N261	N	0.544240	0.181478	0.082879
	N262	N	0.472489	0.821171	0.082642
	N263	N	0.545170	0.822100	0.908787
	N264	N	0.470867	0.915961	0.171003
	N265	N	0.546882	0.084422	0.169665
	N266	N	0.470500	0.085602	0.818766
	N267	N	0.546560	0.917402	0.819804
	N268	N	0.920507	0.181254	0.457980
	N269	N	0.097238	0.182477	0.529593
	N270	N	0.096170	0.819971	0.458342
	N271	N	0.920495	0.819314	0.530608
	N272	N	0.186469	0.464026	0.907795
	N273	N	0.186176	0.538132	0.078013
	N274	N	0.829928	0.463676	0.078839
	N275	N	0.829973	0.538735	0.909278
	O276	O	0.019716	0.061704	-0.008111
	H277	H	0.024995	0.059711	-0.008635
	H278	H	0.020507	0.060794	-0.005058
	O279	O	0.612052	0.606559	0.479551
	H280	H	0.619620	0.617695	0.483976
	H281	H	0.615419	0.600129	0.498216
	O282	O	0.445285	0.399266	0.615109
	H283	H	0.445134	0.404456	0.611560
	H284	H	0.428616	0.407463	0.615850
	O285	O	0.983539	0.007922	0.973303
	H286	H	0.985853	0.002349	0.967155
	H287	H	0.975401	0.002895	0.966866
	O288	O	0.529355	0.495394	0.424689
	H289	H	0.534267	0.492898	0.424349
	H290	H	0.527475	0.493436	0.426729
	O291	O	0.398336	0.424378	0.566350
	H292	H	0.403381	0.432390	0.566969
	H293	H	0.389798	0.429865	0.571820
	O294	O	0.469615	-0.347858	0.373342
	H295	H	0.478660	-0.347412	0.378681
	H296	H	0.472473	-0.329494	0.376415
	O297	O	0.008121	0.000957	0.034534
	H298	H	0.013982	0.000746	0.032732
	H299	H	0.002698	0.002825	0.041343
	O300	O	0.436719	0.391761	0.431719
	H301	H	0.434144	0.387936	0.441777
	H302	H	0.441233	0.397636	0.422146
	O303	O	0.526573	0.393687	0.386083
	H304	H	0.538192	0.397609	0.384282
	H305	H	0.537911	0.385549	0.382927
	O306	O	1.025332	0.001109	-0.091443
	H307	H	1.020495	0.000412	-0.084675
	H308	H	1.026045	-0.005642	-0.096150
	O309	O	0.026996	-0.003374	1.010415
	H310	H	0.023649	0.003285	1.011170
	H311	H	0.035493	-0.008048	1.013421
	O312	O	0.998857	1.103839	1.056717
	H313	H	0.999452	1.111842	1.066665
	H314	H	0.992310	1.110299	1.047615
	O315	O	0.416510	0.599932	0.411942
	H316	H	0.420003	0.610485	0.420768
	H317	H	0.411708	0.592663	0.408515
	O318	O	0.507850	0.586589	0.410041
	H319	H	0.511884	0.590896	0.395163
	H320	H	0.500883	0.595316	0.400272
	O321	O	0.599703	1.528383	1.572568
	H322	H	0.600994	1.530396	1.575561
	H323	H	0.599946	1.512987	1.583336
	O324	O	0.451992	0.368505	0.541305
	H325	H	0.451088	0.352522	0.561600
	H326	H	0.446711	0.365861	0.535255
	O327	O	0.540354	0.435110	0.500296
	H328	H	0.526266	0.436720	0.506549
	H329	H	0.542078	0.448034	0.491931
	O330	O	0.519360	0.577698	0.604809
	H331	H	0.515884	0.572381	0.613958
	H332	H	0.522762	0.580257	0.600318
	O333	O	0.544129	0.530045	0.531340
	H334	H	0.547940	0.528649	0.530481
	H335	H	0.560806	0.519647	0.531968
	O336	O	0.467930	0.515742	0.555067
	H337	H	0.464561	0.507051	0.552840
	H338	H	0.471438	0.524124	0.546561
	O339	O	0.990361	1.008133	0.031580
	H340	H	1.000290	1.010402	0.046110
	H341	H	0.994321	1.012896	0.025747
	O342	O	0.451666	0.421868	0.489218
	H343	H	0.451007	0.414943	0.493447
	H344	H	0.443799	0.420638	0.471415
	O345	O	0.572022	0.498139	0.494909
	H346	H	0.567523	0.496141	0.491216
	H347	H	0.553959	0.488271	0.507027
	O348	O	-0.039901	0.001373	0.026207
	H349	H	-0.037409	0.003370	0.022923
	H350	H	-0.043001	0.000901	0.027494
	O351	O	0.018550	1.100568	0.943979
	H352	H	0.005371	1.093332	0.949892
	H353	H	0.013207	1.111041	0.938722
	O354	O	0.531908	0.467378	0.453964
	H355	H	0.527214	0.477711	0.451345
	H356	H	0.529946	0.451813	0.462773
	O357	O	0.038498	1.026701	0.978666
	H358	H	0.036092	1.024368	0.976321
	H359	H	0.046006	1.020102	0.969873
