data_Molecule from HDF5

_cell_length_a		16.421892
_cell_length_b		16.463929
_cell_length_c		16.435800
_cell_angle_alpha	90.064981
_cell_angle_beta	90.161904
_cell_angle_gamma	89.905112
_symmetry_space_group_name_H-M	'P 1'
_symmetry_Int_Tables_number		1

loop_
	_symmetry_equiv_pos_as_xyz
	x,y,z

loop_
	_atom_site_label
	_atom_site_type_symbol
	_atom_site_fract_x
	_atom_site_fract_y
	_atom_site_fract_z
	H0	H	0.390887	0.854075	0.729678
	H1	H	0.608122	0.167153	0.728898
	H2	H	0.602930	0.852571	0.284801
	H3	H	0.393690	0.168820	0.284162
	H4	H	0.724252	0.400188	0.846968
	H5	H	0.723098	0.614867	0.160654
	H6	H	0.275796	0.620266	0.846320
	H7	H	0.282341	0.408453	0.162658
	H8	H	0.842671	0.732615	0.397239
	H9	H	0.157661	0.733820	0.612346
	H10	H	0.842615	0.288203	0.611802
	H11	H	0.157972	0.288559	0.400319
	H12	H	0.843837	0.402561	0.728627
	H13	H	0.158133	0.617618	0.726871
	H14	H	0.842748	0.615793	0.281619
	H15	H	0.158768	0.404169	0.283247
	H16	H	0.392558	0.735396	0.846231
	H17	H	0.606896	0.731081	0.161665
	H18	H	0.609807	0.282904	0.848764
	H19	H	0.396318	0.290977	0.162516
	H20	H	0.721527	0.853265	0.398678
	H21	H	0.721753	0.167728	0.610597
	H22	H	0.276526	0.852916	0.612547
	H23	H	0.277657	0.168852	0.400982
	H24	H	0.893900	0.353986	0.226998
	H25	H	0.104734	0.669073	0.223652
	H26	H	0.110231	0.354277	0.778394
	H27	H	0.893373	0.667888	0.781157
	H28	H	0.216982	0.908341	0.346566
	H29	H	0.222676	0.118295	0.663975
	H30	H	0.776354	0.117498	0.347443
	H31	H	0.775964	0.903786	0.661917
	H32	H	0.343242	0.234656	0.896583
	H33	H	0.657680	0.233198	0.112844
	H34	H	0.343601	0.788589	0.108744
	H35	H	0.659615	0.788673	0.898159
	H36	H	0.340399	0.907805	0.221216
	H37	H	0.656864	0.116830	0.228327
	H38	H	0.343256	0.118991	0.780310
	H39	H	0.658048	0.902062	0.780728
	H40	H	0.892557	0.232860	0.347393
	H41	H	0.106853	0.235084	0.662835
	H42	H	0.102730	0.790967	0.346823
	H43	H	0.890322	0.786108	0.661653
	H44	H	0.225374	0.353773	0.894600
	H45	H	0.221122	0.669162	0.107876
	H46	H	0.778937	0.353282	0.109591
	H47	H	0.774262	0.665903	0.892824
	H48	H	0.417615	0.116284	0.581817
	H49	H	0.584422	0.901024	0.587383
	H50	H	0.590368	0.123371	0.421493
	H51	H	0.403579	0.896025	0.415182
	H52	H	0.587844	0.420258	0.116481
	H53	H	0.583040	0.597642	0.892731
	H54	H	0.412498	0.595209	0.114258
	H55	H	0.411687	0.419038	0.888760
	H56	H	0.118616	0.608382	0.409835
	H57	H	0.888549	0.596119	0.591290
	H58	H	0.114481	0.422237	0.593556
	H59	H	0.882743	0.414090	0.411473
	H60	H	0.110598	0.421386	0.586451
	H61	H	0.886808	0.599332	0.594513
	H62	H	0.111492	0.602379	0.426073
	H63	H	0.889861	0.423357	0.422423
	H64	H	0.416752	0.602444	0.115187
	H65	H	0.587854	0.604249	0.888465
	H66	H	0.592682	0.423067	0.117457
	H67	H	0.411512	0.427079	0.891844
	H68	H	0.589975	0.126394	0.411050
	H69	H	0.591397	0.897024	0.590966
	H70	H	0.399728	0.126133	0.591007
	H71	H	0.408401	0.895795	0.409705
	H72	H	0.913545	0.622477	0.091571
	H73	H	0.091593	0.395067	0.097807
	H74	H	0.084374	0.620586	0.918226
	H75	H	0.912033	0.396032	0.912169
	H76	H	0.084521	0.923373	0.617867
	H77	H	0.087218	0.095462	0.394760
	H78	H	0.904921	0.097180	0.618795
	H79	H	0.914795	0.921594	0.393642
	H80	H	0.611372	0.096702	0.920017
	H81	H	0.388052	0.096311	0.091435
	H82	H	0.615069	0.919355	0.091907
	H83	H	0.386479	0.918352	0.915829
	H84	H	0.612917	0.924887	0.095070
	H85	H	0.384620	0.102448	0.099017
	H86	H	0.611818	0.094979	0.918064
	H87	H	0.391056	0.922867	0.922713
	H88	H	0.916536	0.094947	0.614827
	H89	H	0.084632	0.102884	0.393089
	H90	H	0.087161	0.918485	0.620502
	H91	H	0.908800	0.919127	0.390437
	H92	H	0.092608	0.622752	0.918973
	H93	H	0.090120	0.399050	0.091323
	H94	H	0.913091	0.622519	0.090536
	H95	H	0.919361	0.400673	0.915590
	H96	H	0.418186	0.123709	0.603043
	H97	H	0.584044	0.898012	0.595920
	H98	H	0.581709	0.121970	0.415973
	H99	H	0.410302	0.898627	0.415714
	H100	H	0.588285	0.426010	0.115003
	H101	H	0.591501	0.595861	0.890007
	H102	H	0.408511	0.602304	0.117795
	H103	H	0.418904	0.422883	0.892435
	H104	H	0.112129	0.590545	0.410861
	H105	H	0.887632	0.600288	0.589928
	H106	H	0.109943	0.428216	0.590656
	H107	H	0.887162	0.428659	0.407711
	H108	H	0.912568	0.623480	0.090741
	H109	H	0.096336	0.395221	0.092582
	H110	H	0.088316	0.624430	0.911867
	H111	H	0.911732	0.399527	0.920907
	H112	H	0.090274	0.923606	0.619352
	H113	H	0.092911	0.101073	0.391469
	H114	H	0.913476	0.106110	0.619598
	H115	H	0.908995	0.925926	0.393095
	H116	H	0.612127	0.097410	0.917534
	H117	H	0.385999	0.105558	0.089533
	H118	H	0.616208	0.920442	0.099010
	H119	H	0.388743	0.927250	0.914363
	C120	C	0.377931	0.018722	0.626382
	C121	C	0.620482	1.002097	0.625372
	C122	C	0.620145	0.019388	0.383569
	C123	C	0.375937	1.001478	0.382239
	C124	C	0.622962	0.387957	0.013040
	C125	C	0.621571	0.631583	0.994379
	C126	C	0.378748	0.633564	0.011821
	C127	C	0.381076	0.390537	0.995449
	C128	C	0.008855	0.631923	0.383227
	C129	C	0.991764	0.632019	0.625506
	C130	C	0.008460	0.390260	0.624903
	C131	C	0.991157	0.388915	0.381988
	C132	C	0.880060	0.518897	0.124143
	C133	C	0.123378	0.501645	0.125437
	C134	C	0.122256	0.518767	0.882360
	C135	C	0.878953	0.501730	0.881793
	C136	C	0.119651	0.889873	0.514319
	C137	C	0.120890	0.132784	0.497556
	C138	C	0.878880	0.131928	0.513203
	C139	C	0.877640	0.889170	0.496402
	C140	C	0.508611	0.131625	0.883861
	C141	C	0.490789	0.133124	0.126873
	C142	C	0.509656	0.889756	0.125942
	C143	C	0.492809	0.889467	0.883605
	C144	C	0.373698	0.901130	0.688690
	C145	C	0.624918	0.120096	0.687649
	C146	C	0.621629	0.900159	0.324306
	C147	C	0.374841	0.121095	0.323538
	C148	C	0.683851	0.383069	0.894447
	C149	C	0.682895	0.633680	0.113380
	C150	C	0.316822	0.637418	0.893683
	C151	C	0.321282	0.389308	0.114712
	C152	C	0.889961	0.692252	0.379714
	C153	C	0.110228	0.693393	0.629517
	C154	C	0.889977	0.328823	0.628938
	C155	C	0.110586	0.328717	0.381060
	C156	C	0.890612	0.385747	0.687314
	C157	C	0.110623	0.635255	0.686569
	C158	C	0.890111	0.633987	0.322157
	C159	C	0.111041	0.386635	0.323301
	C160	C	0.375392	0.694608	0.893356
	C161	C	0.625024	0.691437	0.113920
	C162	C	0.627198	0.324233	0.895592
	C163	C	0.378224	0.330948	0.114814
	C164	C	0.680885	0.900672	0.380966
	C165	C	0.681623	0.120494	0.628948
	C166	C	0.316378	0.900678	0.630307
	C167	C	0.316975	0.121164	0.381477
	C168	C	0.876553	0.400847	0.185778
	C169	C	0.123896	0.621428	0.184219
	C170	C	0.127154	0.401425	0.819491
	C171	C	0.874960	0.619973	0.820757
	C172	C	0.178370	0.888819	0.394571
	C173	C	0.181941	0.135809	0.616345
	C174	C	0.817202	0.135018	0.394710
	C175	C	0.816308	0.885741	0.614790
	C176	C	0.390649	0.194040	0.879472
	C177	C	0.610005	0.193173	0.130674
	C178	C	0.390556	0.829229	0.127051
	C179	C	0.611855	0.828573	0.880372
	C180	C	0.389155	0.888448	0.183231
	C181	C	0.609439	0.135266	0.188288
	C182	C	0.390723	0.136378	0.821323
	C183	C	0.610998	0.885339	0.822070
	C184	C	0.875076	0.192618	0.394662
	C185	C	0.124402	0.194179	0.616029
	C186	C	0.121345	0.830572	0.394701
	C187	C	0.873642	0.827262	0.614578
	C188	C	0.184584	0.401091	0.877534
	C189	C	0.182005	0.621228	0.126694
	C190	C	0.819094	0.400563	0.127368
	C191	C	0.815562	0.618994	0.876612
	C192	C	0.404257	0.100759	0.599614
	C193	C	0.594201	0.920124	0.599019
	C194	C	0.594802	0.102242	0.408926
	C195	C	0.400334	0.918347	0.406462
	C196	C	0.596882	0.415191	0.094941
	C197	C	0.595273	0.606373	0.911972
	C198	C	0.405006	0.607399	0.094324
	C199	C	0.406702	0.415576	0.912552
	C200	C	0.092284	0.607419	0.408412
	C201	C	0.909153	0.605993	0.599335
	C202	C	0.090447	0.416606	0.598088
	C203	C	0.908250	0.414424	0.406727
	C204	C	0.905795	0.601172	0.098253
	C205	C	0.099391	0.418260	0.101058
	C206	C	0.095940	0.601192	0.908693
	C207	C	0.906342	0.419975	0.908659
	C208	C	0.094671	0.914728	0.597489
	C209	C	0.095453	0.107195	0.414584
	C210	C	0.904420	0.106654	0.596238
	C211	C	0.903457	0.914822	0.413958
	C212	C	0.590414	0.104311	0.910682
	C213	C	0.407974	0.108520	0.100983
	C214	C	0.593060	0.914395	0.102092
	C215	C	0.410355	0.915482	0.909847
	Zn216	Zn	0.500447	0.010013	0.754744
	Zn217	Zn	0.498972	0.010547	0.254563
	Zn218	Zn	0.750464	0.510099	0.002832
	Zn219	Zn	0.251475	0.510739	0.002973
	Zn220	Zn	-0.000676	0.760742	0.505151
	Zn221	Zn	-0.000475	0.261054	0.504827
	Zn222	Zn	0.000855	0.510531	0.753689
	Zn223	Zn	0.000926	0.510925	0.254013
	Zn224	Zn	0.501179	0.761433	0.003780
	Zn225	Zn	0.500746	0.261017	0.004948
	Zn226	Zn	0.749779	0.010869	0.504626
	Zn227	Zn	0.248888	0.010847	0.505621
	N228	N	0.411196	0.975601	0.686377
	N229	N	0.587640	0.045348	0.685611
	N230	N	0.584900	0.975113	0.325639
	N231	N	0.410754	0.045712	0.323856
	N232	N	0.681328	0.422014	0.968321
	N233	N	0.681092	0.597374	0.038149
	N234	N	0.318910	0.600114	0.968512
	N235	N	0.322947	0.425551	0.039411
	N236	N	0.964842	0.691143	0.416986
	N237	N	0.035135	0.691571	0.592332
	N238	N	0.964166	0.331707	0.590614
	N239	N	0.035075	0.329920	0.416772
	N240	N	0.965279	0.423270	0.684768
	N241	N	0.035911	0.597813	0.684284
	N242	N	0.965147	0.597180	0.324316
	N243	N	0.035680	0.423082	0.323509
	N244	N	0.413158	0.692394	0.967997
	N245	N	0.587699	0.690448	0.038955
	N246	N	0.590128	0.327173	0.970360
	N247	N	0.414449	0.331350	0.039447
	N248	N	0.680126	0.975977	0.417079
	N249	N	0.679135	0.046175	0.591123
	N250	N	0.319140	0.974893	0.592160
	N251	N	0.317418	0.045832	0.417307
	N252	N	0.913877	0.475309	0.183731
	N253	N	0.088542	0.545810	0.183949
	N254	N	0.089025	0.475657	0.822564
	N255	N	0.913757	0.545916	0.823640
	N256	N	0.177690	0.924814	0.470091
	N257	N	0.179848	0.098337	0.541521
	N258	N	0.819590	0.097878	0.469470
	N259	N	0.818725	0.923409	0.540405
	N260	N	0.465030	0.191286	0.917607
	N261	N	0.535220	0.192085	0.093142
	N262	N	0.466581	0.829765	0.092255
	N263	N	0.537231	0.831198	0.918054
	N264	N	0.464147	0.925154	0.182831
	N265	N	0.534252	0.098843	0.186246
	N266	N	0.465138	0.098154	0.823857
	N267	N	0.535979	0.922461	0.823940
	N268	N	0.912708	0.190815	0.469438
	N269	N	0.087428	0.192498	0.540963
	N270	N	0.085888	0.830966	0.470296
	N271	N	0.911090	0.829352	0.539976
	N272	N	0.181694	0.475171	0.915885
	N273	N	0.181891	0.545677	0.090911
	N274	N	0.821225	0.474836	0.089637
	N275	N	0.817944	0.544375	0.913647
	O276	O	0.283822	0.539280	0.287208
	H277	H	0.255372	0.553190	0.259751
	H278	H	0.287661	0.580971	0.293439
	O279	O	0.970738	0.227167	1.037043
	H280	H	0.957082	0.242128	1.040443
	H281	H	0.974437	0.208772	1.046425
	O282	O	0.707256	0.516892	0.679829
	H283	H	0.689716	0.494766	0.687015
	H284	H	0.727278	0.520297	0.695543
	O285	O	0.312587	0.702777	0.309625
	H286	H	0.302653	0.714319	0.361774
	H287	H	0.310922	0.728698	0.290697
	O288	O	0.813588	1.196189	-0.185783
	H289	H	0.868535	1.201684	-0.194317
	H290	H	0.805624	1.204808	-0.132248
	O291	O	0.365211	0.329511	0.688533
	H292	H	0.367869	0.335910	0.687886
	H293	H	0.401568	0.336950	0.698286
	O294	O	-0.200150	-0.186934	1.147691
	H295	H	-0.215211	-0.187245	1.148792
	H296	H	-0.196039	-0.168213	1.134684
	O297	O	1.093636	0.008140	0.081233
	H298	H	1.073535	0.011203	0.083283
	H299	H	1.109213	-0.001688	0.061898
	O300	O	1.015296	1.019940	-0.092592
	H301	H	1.025696	1.015121	-0.091706
	H302	H	1.028690	1.011188	-0.099199
	O303	O	0.298815	0.450538	0.706676
	H304	H	0.317260	0.447012	0.699358
	H305	H	0.279387	0.459362	0.726366
	O306	O	0.488773	0.602294	0.555181
	H307	H	0.489319	0.621569	0.551654
	H308	H	0.482410	0.613853	0.551560
	O309	O	0.424112	0.601748	0.466925
	H310	H	0.438832	0.600860	0.467274
	H311	H	0.411281	0.583449	0.471008
	O312	O	0.125497	1.078014	0.864387
	H313	H	0.136915	1.073572	0.855235
	H314	H	0.135212	1.058381	0.874652
	O315	O	0.533642	0.728476	0.533075
	H316	H	0.519178	0.731390	0.532618
	H317	H	0.548771	0.728770	0.534403
	O318	O	1.020521	0.014547	-0.125060
	H319	H	1.040038	0.030545	-0.128089
	H320	H	1.003139	0.012460	-0.137196
	O321	O	-0.199773	0.158990	0.090749
	H322	H	-0.195178	0.147049	0.089228
	H323	H	-0.203236	0.155765	0.102127
	O324	O	0.334179	0.558768	0.497001
	H325	H	0.335255	0.560504	0.505722
	H326	H	0.325786	0.538197	0.482379
	O327	O	0.519897	0.304721	0.294765
	H328	H	0.516462	0.309382	0.305546
	H329	H	0.521716	0.283832	0.274879
	O330	O	-0.217020	1.035441	-0.204123
	H331	H	-0.206273	1.088152	-0.192618
	H332	H	-0.249597	1.036773	-0.234788
	O333	O	0.520860	0.718961	0.713308
	H334	H	0.547978	0.720547	0.719319
	H335	H	0.512834	0.728333	0.720081
	O336	O	0.014432	0.179983	0.207295
	H337	H	0.029456	0.176788	0.195099
	H338	H	0.020766	0.206347	0.218839
	O339	O	-0.156245	1.006938	1.000799
	H340	H	-0.155372	1.009063	0.975992
	H341	H	-0.156541	0.979382	0.996777
	O342	O	-0.011260	0.804881	1.152775
	H343	H	-0.016794	0.820177	1.164532
	H344	H	-0.046749	0.803235	1.165215
	O345	O	1.145464	0.948627	-0.190207
	H346	H	1.132099	0.939580	-0.198448
	H347	H	1.157434	0.956751	-0.156319
	O348	O	0.527375	0.379311	0.567453
	H349	H	0.524533	0.384081	0.564511
	H350	H	0.528136	0.382726	0.539597
	O351	O	0.215485	0.925912	0.909448
	H352	H	0.192559	0.933464	0.934391
	H353	H	0.242240	0.906999	0.906170
	O354	O	-0.406279	0.462398	0.390468
	H355	H	-0.396802	0.463107	0.392196
	H356	H	-0.391968	0.441698	0.387333
	O357	O	-0.519840	-0.562543	0.379521
	H358	H	-0.537490	-0.567288	0.388621
	H359	H	-0.527754	-0.534110	0.379676
	O360	O	0.655623	0.458966	0.501766
	H361	H	0.674768	0.456085	0.503694
	H362	H	0.643967	0.457196	0.514055
	O363	O	-0.147144	0.020618	1.145245
	H364	H	-0.151879	0.017520	1.136031
	H365	H	-0.138822	0.021062	1.148512
	O366	O	0.830135	-0.087008	1.016242
	H367	H	0.844677	-0.093796	1.017757
	H368	H	0.819003	-0.095051	1.012183
	O369	O	0.333885	0.343091	0.482813
	H370	H	0.342409	0.352528	0.511175
	H371	H	0.311579	0.335049	0.473989
	O372	O	1.072551	-0.185972	0.890211
	H373	H	1.069220	-0.163329	0.878504
	H374	H	1.053500	-0.187716	0.874661
	O375	O	0.543179	0.307975	0.418675
	H376	H	0.556835	0.310574	0.417769
	H377	H	0.559717	0.322474	0.427775
	O378	O	0.680506	0.695532	0.684760
	H379	H	0.663752	0.702796	0.663843
	H380	H	0.691270	0.647858	0.694924
	O381	O	0.493111	0.698256	0.362608
	H382	H	0.491214	0.699728	0.365492
	H383	H	0.473504	0.706009	0.340958
	O384	O	0.653365	0.604560	0.375079
	H385	H	0.659358	0.585717	0.376937
	H386	H	0.640939	0.593149	0.368348
	O387	O	0.052806	0.081892	1.151473
	H388	H	0.054712	0.085087	1.143024
	H389	H	0.069551	0.082639	1.156167
	O390	O	0.156463	0.156841	0.024447
	H391	H	0.159007	0.160219	0.020625
	H392	H	0.153962	0.167609	0.032681
	O393	O	0.969095	0.912025	0.960548
	H394	H	0.984731	0.915970	0.967968
	H395	H	0.970288	0.916399	0.953111
	O396	O	1.161362	0.202193	0.114384
	H397	H	1.170777	0.213607	0.104290
	H398	H	1.153062	0.217950	0.142809
	O399	O	0.805184	0.154086	0.958718
	H400	H	0.784444	0.143981	0.974138
	H401	H	0.787712	0.152061	0.963512
	O402	O	1.027038	0.797644	0.791075
	H403	H	1.005824	0.801249	0.776811
	H404	H	1.009528	0.793056	0.773515
	O405	O	1.200562	0.874963	0.143309
	H406	H	1.195554	0.859821	0.115906
	H407	H	1.187811	0.897363	0.158361
	O408	O	1.120160	-0.012021	0.211886
	H409	H	1.102708	0.015314	0.207220
	H410	H	1.132240	-0.014985	0.222831
	O411	O	1.108760	1.068376	0.119901
	H412	H	1.123937	1.068211	0.124906
	H413	H	1.121999	1.047097	0.124120
	O414	O	0.317045	0.404313	0.499410
	H415	H	0.328636	0.413701	0.487408
	H416	H	0.306411	0.381799	0.496034
	O417	O	0.514602	0.323217	0.706720
	H418	H	0.524280	0.328232	0.720202
	H419	H	0.532157	0.310396	0.686589
	O420	O	0.133924	-0.185673	0.024255
	H421	H	0.132926	-0.188070	-0.007162
	H422	H	0.101249	-0.191314	0.040101
	O423	O	0.433912	0.473614	0.475490
	H424	H	0.415889	0.489024	0.456587
	H425	H	0.444648	0.472869	0.475603
	O426	O	0.465172	0.499067	0.722802
	H427	H	0.448897	0.518482	0.713136
	H428	H	0.435956	0.481444	0.723283
	O429	O	0.288869	0.722050	0.474156
	H430	H	0.263391	0.737581	0.484368
	H431	H	0.307549	0.712903	0.502368
	O432	O	0.652736	0.448643	0.658464
	H433	H	0.646967	0.460034	0.648242
	H434	H	0.658220	0.454593	0.668567
	O435	O	0.618912	0.509004	0.304892
	H436	H	0.613845	0.513450	0.306531
	H437	H	0.608513	0.504063	0.286690
	O438	O	-0.152983	-0.116399	0.213438
	H439	H	-0.174560	-0.105429	0.228788
	H440	H	-0.150092	-0.115401	0.217908
	O441	O	1.036251	-0.006428	-0.003662
	H442	H	1.045656	-0.000363	-0.005932
	H443	H	1.018578	-0.001706	-0.015269
	O444	O	-0.014179	1.200524	0.804067
	H445	H	0.009809	1.195336	0.824388
	H446	H	-0.003545	1.219040	0.802250
	O447	O	0.694520	0.703356	0.471085
	H448	H	0.693348	0.697653	0.481179
	H449	H	0.703403	0.725928	0.456591
	O450	O	0.601132	0.478916	0.491694
	H451	H	0.603479	0.466956	0.509664
	H452	H	0.592118	0.467383	0.481624
	O453	O	0.685091	0.331038	0.320887
	H454	H	0.669262	0.340758	0.328912
	H455	H	0.679481	0.334901	0.333908
