data_Molecule from HDF5

_cell_length_a		16.426206
_cell_length_b		16.216258
_cell_length_c		16.460309
_cell_angle_alpha	89.867173
_cell_angle_beta	89.890645
_cell_angle_gamma	89.999664
_symmetry_space_group_name_H-M	'P 1'
_symmetry_Int_Tables_number		1

loop_
	_symmetry_equiv_pos_as_xyz
	x,y,z

loop_
	_atom_site_label
	_atom_site_type_symbol
	_atom_site_fract_x
	_atom_site_fract_y
	_atom_site_fract_z
	H0	H	0.374914	0.855551	0.725573
	H1	H	0.586243	0.176650	0.724312
	H2	H	0.586707	0.854489	0.285454
	H3	H	0.379609	0.178751	0.284885
	H4	H	0.705668	0.410300	0.846175
	H5	H	0.704128	0.621950	0.163486
	H6	H	0.261848	0.621847	0.846071
	H7	H	0.261853	0.409861	0.164060
	H8	H	0.822824	0.736995	0.400905
	H9	H	0.143615	0.735514	0.605186
	H10	H	0.822909	0.296674	0.609992
	H11	H	0.143264	0.300035	0.404184
	H12	H	0.824979	0.408555	0.730143
	H13	H	0.142408	0.623278	0.725018
	H14	H	0.824629	0.625933	0.281044
	H15	H	0.141477	0.412701	0.285190
	H16	H	0.377899	0.738255	0.846601
	H17	H	0.583222	0.733144	0.166403
	H18	H	0.585722	0.297519	0.844658
	H19	H	0.383335	0.297828	0.166098
	H20	H	0.704107	0.855106	0.398470
	H21	H	0.702561	0.176019	0.609094
	H22	H	0.261756	0.855470	0.606983
	H23	H	0.264163	0.179790	0.400269
	H24	H	0.877759	0.356040	0.225972
	H25	H	0.087380	0.677828	0.223531
	H26	H	0.088574	0.356403	0.783736
	H27	H	0.876223	0.677594	0.782728
	H28	H	0.202264	0.914765	0.344279
	H29	H	0.204211	0.123940	0.662340
	H30	H	0.762395	0.120716	0.345742
	H31	H	0.757372	0.905963	0.661114
	H32	H	0.322381	0.233388	0.905184
	H33	H	0.643539	0.234551	0.107110
	H34	H	0.321751	0.797353	0.108446
	H35	H	0.642467	0.798047	0.903941
	H36	H	0.322329	0.912130	0.225510
	H37	H	0.642036	0.119539	0.225124
	H38	H	0.324413	0.122937	0.783970
	H39	H	0.638792	0.905149	0.780344
	H40	H	0.880877	0.235959	0.345237
	H41	H	0.084563	0.235812	0.664168
	H42	H	0.085310	0.798611	0.343760
	H43	H	0.878302	0.795473	0.663511
	H44	H	0.201610	0.354511	0.902098
	H45	H	0.202476	0.677334	0.107461
	H46	H	0.762791	0.355527	0.109411
	H47	H	0.761448	0.678130	0.899771
	H48	H	0.399324	0.129120	0.596813
	H49	H	0.570639	0.902972	0.586783
	H50	H	0.575100	0.130426	0.418147
	H51	H	0.391216	0.900875	0.410501
	H52	H	0.569683	0.424583	0.116837
	H53	H	0.567876	0.601231	0.895976
	H54	H	0.384689	0.610853	0.122829
	H55	H	0.390024	0.425949	0.892008
	H56	H	0.097239	0.610870	0.415452
	H57	H	0.868893	0.601927	0.598888
	H58	H	0.096927	0.430498	0.600187
	H59	H	0.868413	0.425671	0.417699
	H60	H	0.097147	0.422564	0.594387
	H61	H	0.869063	0.609467	0.594785
	H62	H	0.093862	0.602715	0.416106
	H63	H	0.870062	0.432102	0.416392
	H64	H	0.388650	0.594140	0.115147
	H65	H	0.569912	0.610763	0.891482
	H66	H	0.576589	0.424056	0.120049
	H67	H	0.392341	0.426104	0.891687
	H68	H	0.572711	0.132448	0.411700
	H69	H	0.573602	0.898623	0.596775
	H70	H	0.391471	0.130041	0.588557
	H71	H	0.397387	0.904652	0.416421
	H72	H	0.896037	0.630107	0.094004
	H73	H	0.071492	0.400989	0.096771
	H74	H	0.073345	0.630594	0.918385
	H75	H	0.892049	0.404116	0.921707
	H76	H	0.073038	0.926358	0.617899
	H77	H	0.072423	0.100576	0.392951
	H78	H	0.895617	0.101257	0.615687
	H79	H	0.900552	0.926462	0.393882
	H80	H	0.595390	0.105047	0.916691
	H81	H	0.369355	0.105382	0.097344
	H82	H	0.594924	0.929061	0.094940
	H83	H	0.368606	0.928758	0.915342
	H84	H	0.597181	0.926805	0.100561
	H85	H	0.368306	0.106536	0.096321
	H86	H	0.596882	0.102255	0.911151
	H87	H	0.368994	0.927717	0.916364
	H88	H	0.892935	0.110399	0.619378
	H89	H	0.067600	0.113228	0.391210
	H90	H	0.073589	0.928535	0.617347
	H91	H	0.887390	0.922642	0.387875
	H92	H	0.074707	0.632373	0.913525
	H93	H	0.072164	0.401007	0.094631
	H94	H	0.893388	0.630380	0.090619
	H95	H	0.893479	0.401250	0.912902
	H96	H	0.389150	0.134662	0.598508
	H97	H	0.563486	0.902798	0.594357
	H98	H	0.568612	0.128705	0.415935
	H99	H	0.388208	0.902027	0.419388
	H100	H	0.574490	0.431040	0.116881
	H101	H	0.577789	0.603193	0.891126
	H102	H	0.401347	0.608109	0.115696
	H103	H	0.391603	0.424438	0.890865
	H104	H	0.096876	0.604592	0.408635
	H105	H	0.871978	0.602883	0.591111
	H106	H	0.092599	0.431222	0.591549
	H107	H	0.867743	0.427839	0.411263
	H108	H	0.892162	0.632251	0.094235
	H109	H	0.073491	0.400760	0.096404
	H110	H	0.069522	0.630774	0.914108
	H111	H	0.900367	0.405102	0.917753
	H112	H	0.071257	0.927601	0.616607
	H113	H	0.080463	0.110225	0.387070
	H114	H	0.886410	0.102472	0.619621
	H115	H	0.890052	0.936439	0.392624
	H116	H	0.598782	0.108510	0.912006
	H117	H	0.368942	0.104836	0.096021
	H118	H	0.596029	0.922286	0.095244
	H119	H	0.369365	0.929285	0.916165
	C120	C	0.360183	0.025240	0.626265
	C121	C	0.602338	1.007280	0.625034
	C122	C	0.603589	0.024121	0.383443
	C123	C	0.361227	1.009409	0.383468
	C124	C	0.605436	0.394662	0.012890
	C125	C	0.603341	0.637468	0.997439
	C126	C	0.359892	0.638004	0.013488
	C127	C	0.361062	0.393911	0.996982
	C128	C	-0.009096	0.638871	0.381997
	C129	C	0.975305	0.637453	0.625706
	C130	C	-0.009010	0.395165	0.627824
	C131	C	0.974181	0.396439	0.384036
	C132	C	0.861712	0.525101	0.125760
	C133	C	0.103877	0.507704	0.126379
	C134	C	0.104292	0.525148	0.883604
	C135	C	0.862489	0.509313	0.884167
	C136	C	0.103991	0.896251	0.511783
	C137	C	0.104484	0.139564	0.495571
	C138	C	0.860360	0.137588	0.513340
	C139	C	0.860194	0.894600	0.495507
	C140	C	0.491235	0.137201	0.883254
	C141	C	0.474640	0.137212	0.126730
	C142	C	0.490552	0.894441	0.128082
	C143	C	0.473727	0.894941	0.883844
	C144	C	0.357181	0.903969	0.685691
	C145	C	0.604829	0.128101	0.684982
	C146	C	0.605149	0.902798	0.324655
	C147	C	0.360714	0.130582	0.324424
	C148	C	0.665347	0.392357	0.893503
	C149	C	0.663376	0.639443	0.116399
	C150	C	0.300795	0.640699	0.894215
	C151	C	0.302183	0.392025	0.116805
	C152	C	0.870903	0.698087	0.381664
	C153	C	0.095389	0.696875	0.625430
	C154	C	0.871073	0.335475	0.629261
	C155	C	0.094761	0.338274	0.384410
	C156	C	0.872218	0.391501	0.688968
	C157	C	0.094834	0.640792	0.685024
	C158	C	0.871901	0.642600	0.321840
	C159	C	0.093941	0.394478	0.325098
	C160	C	0.358831	0.698705	0.894487
	C161	C	0.603311	0.695225	0.117770
	C162	C	0.605597	0.336282	0.892566
	C163	C	0.362468	0.336240	0.117685
	C164	C	0.663543	0.903163	0.381055
	C165	C	0.662474	0.127932	0.627273
	C166	C	0.300555	0.904073	0.626809
	C167	C	0.303078	0.131016	0.381846
	C168	C	0.859455	0.404045	0.185863
	C169	C	0.105641	0.629329	0.184440
	C170	C	0.106542	0.404238	0.823902
	C171	C	0.859218	0.629741	0.823314
	C172	C	0.162707	0.895593	0.391925
	C173	C	0.163845	0.141583	0.615006
	C174	C	0.802034	0.139277	0.393426
	C175	C	0.798847	0.889612	0.614249
	C176	C	0.370953	0.195553	0.884468
	C177	C	0.595403	0.195344	0.126585
	C178	C	0.369730	0.836631	0.127708
	C179	C	0.593778	0.836093	0.883664
	C180	C	0.370111	0.893446	0.186242
	C181	C	0.594581	0.138588	0.185494
	C182	C	0.371822	0.140110	0.824328
	C183	C	0.591953	0.889670	0.821957
	C184	C	0.860682	0.196944	0.393228
	C185	C	0.104468	0.197528	0.616051
	C186	C	0.104810	0.837377	0.391886
	C187	C	0.858813	0.834074	0.615171
	C188	C	0.163052	0.403517	0.882438
	C189	C	0.162864	0.629254	0.126476
	C190	C	0.802110	0.403806	0.127957
	C191	C	0.801718	0.629891	0.881325
	C192	C	0.385853	0.109325	0.601666
	C193	C	0.576780	0.923239	0.600062
	C194	C	0.579072	0.108509	0.408064
	C195	C	0.385281	0.924565	0.408361
	C196	C	0.580889	0.419474	0.096150
	C197	C	0.578942	0.612283	0.914355
	C198	C	0.384466	0.611846	0.096531
	C199	C	0.384517	0.418398	0.913324
	C200	C	0.074434	0.613313	0.406385
	C201	C	0.891812	0.612147	0.601957
	C202	C	0.073990	0.420692	0.602570
	C203	C	0.890418	0.421367	0.408107
	C204	C	0.886763	0.609031	0.100334
	C205	C	0.079467	0.422981	0.102735
	C206	C	0.079524	0.609377	0.908169
	C207	C	0.888080	0.425298	0.909994
	C208	C	0.079574	0.920517	0.595420
	C209	C	0.080506	0.115027	0.412145
	C210	C	0.884636	0.112135	0.596577
	C211	C	0.885377	0.920693	0.413053
	C212	C	0.575347	0.112302	0.906598
	C213	C	0.390758	0.112853	0.103217
	C214	C	0.574280	0.919035	0.104021
	C215	C	0.390461	0.920952	0.908786
	Zn216	Zn	0.481953	0.015571	0.754610
	Zn217	Zn	0.482477	0.016154	0.255953
	Zn218	Zn	0.733541	0.516911	0.004256
	Zn219	Zn	0.231734	0.515392	0.005197
	Zn220	Zn	-0.017230	0.766943	0.504097
	Zn221	Zn	-0.018074	0.266990	0.505185
	Zn222	Zn	-0.016529	0.517438	0.755745
	Zn223	Zn	-0.017590	0.517014	0.254466
	Zn224	Zn	0.482094	0.766918	0.006128
	Zn225	Zn	0.483829	0.265875	0.004907
	Zn226	Zn	0.731335	0.015125	0.504379
	Zn227	Zn	0.232813	0.018105	0.503929
	N228	N	0.393463	0.980392	0.685645
	N229	N	0.568099	0.052027	0.683620
	N230	N	0.568312	0.978885	0.326151
	N231	N	0.396107	0.053880	0.325452
	N232	N	0.665318	0.427757	0.969280
	N233	N	0.663504	0.604236	0.040593
	N234	N	0.301141	0.603716	0.969376
	N235	N	0.300973	0.427059	0.040553
	N236	N	0.946037	0.696038	0.418284
	N237	N	0.020023	0.695193	0.589477
	N238	N	0.945903	0.337661	0.591902
	N239	N	0.019132	0.339277	0.420288
	N240	N	0.947830	0.427760	0.688187
	N241	N	0.018906	0.604931	0.685401
	N242	N	0.947693	0.606698	0.321841
	N243	N	0.017858	0.429816	0.324744
	N244	N	0.394662	0.697072	0.969822
	N245	N	0.566579	0.694018	0.042853
	N246	N	0.569054	0.337483	0.967702
	N247	N	0.398145	0.337226	0.042285
	N248	N	0.662590	0.979665	0.417065
	N249	N	0.660979	0.051777	0.590766
	N250	N	0.302135	0.980502	0.590616
	N251	N	0.303422	0.054400	0.417974
	N252	N	0.895732	0.480399	0.184736
	N253	N	0.069461	0.552960	0.184348
	N254	N	0.070807	0.480836	0.824506
	N255	N	0.896146	0.553559	0.824923
	N256	N	0.162630	0.930927	0.467728
	N257	N	0.163914	0.106282	0.539083
	N258	N	0.801487	0.103452	0.469228
	N259	N	0.799504	0.926324	0.538965
	N260	N	0.446413	0.193640	0.920589
	N261	N	0.519890	0.194591	0.090964
	N262	N	0.445535	0.837098	0.092415
	N263	N	0.519031	0.839026	0.921246
	N264	N	0.446322	0.928474	0.186774
	N265	N	0.518530	0.103148	0.185724
	N266	N	0.447687	0.104493	0.823582
	N267	N	0.516026	0.925333	0.822030
	N268	N	0.896185	0.195957	0.468680
	N269	N	0.068341	0.196443	0.540896
	N270	N	0.069126	0.837525	0.467524
	N271	N	0.896350	0.836899	0.540520
	N272	N	0.161985	0.479705	0.918739
	N273	N	0.161994	0.552437	0.091249
	N274	N	0.803364	0.479974	0.091183
	N275	N	0.803919	0.554045	0.918569
	O276	O	0.392791	0.479315	0.610728
	H277	H	0.384365	0.468947	0.616210
	H278	H	0.399352	0.486499	0.604517
	O279	O	0.464791	0.354263	0.461854
	H280	H	0.455778	0.330163	0.463965
	H281	H	0.463801	0.361734	0.449997
	O282	O	0.360919	0.680617	0.310572
	H283	H	0.350337	0.696118	0.316197
	H284	H	0.364262	0.657000	0.304596
	O285	O	1.071805	0.010173	0.108861
	H286	H	1.069986	0.025600	0.119814
	H287	H	1.073117	-0.002988	0.100088
	O288	O	0.013097	-0.191350	0.808115
	H289	H	0.006790	-0.179152	0.794704
	H290	H	0.017123	-0.204732	0.796423
	O291	O	0.686924	0.499901	0.302129
	H292	H	0.695893	0.499531	0.270379
	H293	H	0.679196	0.460627	0.313450
	O294	O	0.486510	0.462832	0.401876
	H295	H	0.480124	0.482351	0.395272
	H296	H	0.495370	0.464832	0.394198
	O297	O	0.820896	1.195470	0.976734
	H298	H	0.815088	1.198636	0.981787
	H299	H	0.820982	1.201782	0.986806
	O300	O	-0.023141	0.135286	0.011398
	H301	H	-0.028788	0.143928	0.008038
	H302	H	-0.029888	0.127417	0.008081
	O303	O	0.496488	0.683458	0.535135
	H304	H	0.499746	0.688522	0.541023
	H305	H	0.503233	0.686000	0.509735
	O306	O	1.143386	0.023473	0.159392
	H307	H	1.146330	0.022559	0.154401
	H308	H	1.142595	0.020902	0.158181
	O309	O	0.562815	0.588320	0.655587
	H310	H	0.561234	0.592815	0.637305
	H311	H	0.561038	0.607992	0.666123
	O312	O	1.171093	1.065633	-0.047743
	H313	H	1.188559	1.060420	-0.058768
	H314	H	1.176730	1.051424	-0.039620
	O315	O	0.658827	0.348131	0.343881
	H316	H	0.652793	0.352001	0.373359
	H317	H	0.628399	0.347596	0.334489
	O318	O	0.398779	0.392260	0.504842
	H319	H	0.398535	0.400785	0.528826
	H320	H	0.387869	0.381026	0.504087
	O321	O	0.842807	-0.031460	0.927260
	H322	H	0.846392	-0.015832	0.927987
	H323	H	0.838271	-0.017435	0.908091
	O324	O	-0.192046	0.196540	0.857620
	H325	H	-0.196709	0.189389	0.876412
	H326	H	-0.173253	0.205587	0.867446
	O327	O	0.964555	0.033509	0.084315
	H328	H	0.957856	0.040602	0.090675
	H329	H	0.975161	0.031164	0.083739
	O330	O	0.632451	0.500512	0.492188
	H331	H	0.655140	0.493734	0.492046
	H332	H	0.614295	0.514621	0.471716
	O333	O	1.615522	0.483341	1.500562
	H334	H	1.624056	0.461815	1.493814
	H335	H	1.602511	0.477249	1.492936
	O336	O	0.531102	0.627718	0.690938
	H337	H	0.548341	0.628651	0.697243
	H338	H	0.538347	0.632188	0.672724
	O339	O	0.821255	0.061904	0.870126
	H340	H	0.819383	0.074272	0.860868
	H341	H	0.814633	0.075527	0.869970
	O342	O	0.011923	0.965212	0.834498
	H343	H	0.018803	0.965127	0.828688
	H344	H	0.018181	0.971202	0.836739
	O345	O	-0.193235	0.917410	0.902131
	H346	H	-0.176769	0.909693	0.900832
	H347	H	-0.210328	0.928957	0.888614
	O348	O	0.412699	0.496232	0.613146
	H349	H	0.434602	0.514100	0.618701
	H350	H	0.393220	0.489209	0.640283
	O351	O	-0.138236	0.055510	0.117699
	H352	H	-0.125423	0.070484	0.106196
	H353	H	-0.141466	0.047928	0.131248
	O354	O	1.056671	1.115227	-0.015546
	H355	H	1.056691	1.111556	0.002321
	H356	H	1.052030	1.120645	-0.012066
	O357	O	0.002982	0.963966	0.106628
	H358	H	0.001290	0.955967	0.115281
	H359	H	0.011036	0.954636	0.104672
	O360	O	0.486794	0.620604	0.338652
	H361	H	0.493913	0.638475	0.323407
	H362	H	0.469714	0.610161	0.342742
	O363	O	0.293318	0.658029	0.486667
	H364	H	0.295419	0.651300	0.485739
	H365	H	0.296812	0.659390	0.499145
	O366	O	0.959418	-0.170084	1.169439
	H367	H	0.952378	-0.170296	1.155414
	H368	H	0.943435	-0.181384	1.175861
	O369	O	0.282280	0.635409	0.361910
	H370	H	0.266334	0.615240	0.364191
	H371	H	0.266667	0.653335	0.372404
	O372	O	0.411916	0.471571	0.684895
	H373	H	0.412403	0.483485	0.694888
	H374	H	0.423612	0.451528	0.678717
	O375	O	0.856063	0.001493	0.143608
	H376	H	0.872180	-0.009868	0.148023
	H377	H	0.852121	0.002436	0.160443
	O378	O	0.467963	0.403291	0.654742
	H379	H	0.467193	0.409132	0.655325
	H380	H	0.485819	0.406223	0.658286
	O381	O	0.342141	0.418357	0.439614
	H382	H	0.330610	0.417940	0.434512
	H383	H	0.345658	0.413859	0.470513
	O384	O	-0.066388	1.121441	1.112947
	H385	H	-0.053508	1.105272	1.111998
	H386	H	-0.074545	1.121554	1.128555
	O387	O	1.073308	0.842562	-0.039826
	H388	H	1.068661	0.839414	-0.036629
	H389	H	1.054771	0.829098	-0.025352
	O390	O	0.589491	0.496362	0.640049
	H391	H	0.583436	0.484930	0.643168
	H392	H	0.583215	0.513438	0.651174
	O393	O	1.614572	-0.293906	0.554481
	H394	H	1.628297	-0.286505	0.554219
	H395	H	1.608852	-0.290762	0.576393
	O396	O	-0.010801	1.188602	0.848520
	H397	H	-0.014349	1.206256	0.843389
	H398	H	-0.007448	1.190061	0.847289
	O399	O	0.322298	0.534898	0.536782
	H400	H	0.325063	0.525413	0.552157
	H401	H	0.334668	0.533638	0.536091
	O402	O	1.131538	-0.056120	0.842832
	H403	H	1.140910	-0.059764	0.845440
	H404	H	1.118217	-0.067766	0.856455
	O405	O	0.659147	-0.394912	-0.520033
	H406	H	0.656411	-0.380910	-0.526609
	H407	H	0.668925	-0.397783	-0.540603
	O408	O	1.068061	1.104880	0.838506
	H409	H	1.078286	1.098897	0.828084
	H410	H	1.064025	1.115822	0.846131
	O411	O	1.149913	1.006033	0.061871
	H412	H	1.148987	0.984078	0.064098
	H413	H	1.152174	1.006710	0.068140
	O414	O	0.030137	0.094747	1.068233
	H415	H	0.048067	0.099585	1.057438
	H416	H	0.020559	0.084756	1.053957
	O417	O	0.546174	0.389331	0.615917
	H418	H	0.552778	0.387445	0.609274
	H419	H	0.573968	0.399320	0.608917
	O420	O	-0.077929	0.831802	0.108854
	H421	H	-0.085324	0.831058	0.104014
	H422	H	-0.090839	0.836000	0.092159
	O423	O	1.455011	-0.485043	-0.384968
	H424	H	1.443480	-0.493243	-0.387384
	H425	H	1.454163	-0.490719	-0.376731
	O426	O	-0.060512	-0.100650	0.988091
	H427	H	-0.066767	-0.089368	0.975644
	H428	H	-0.060472	-0.114716	0.984918
	O429	O	0.416036	0.462015	0.334204
	H430	H	0.404559	0.469893	0.349316
	H431	H	0.402403	0.484364	0.332264
