data_Molecule from HDF5

_cell_length_a		16.442576
_cell_length_b		16.304444
_cell_length_c		16.245199
_cell_angle_alpha	89.811767
_cell_angle_beta	90.413688
_cell_angle_gamma	90.171321
_symmetry_space_group_name_H-M	'P 1'
_symmetry_Int_Tables_number		1

loop_
	_symmetry_equiv_pos_as_xyz
	x,y,z

loop_
	_atom_site_label
	_atom_site_type_symbol
	_atom_site_fract_x
	_atom_site_fract_y
	_atom_site_fract_z
	H0	H	0.398200	0.835217	0.724232
	H1	H	0.601392	0.159276	0.724709
	H2	H	0.601431	0.835424	0.292519
	H3	H	0.397286	0.157817	0.285498
	H4	H	0.719934	0.392819	0.846166
	H5	H	0.725152	0.604388	0.166264
	H6	H	0.282142	0.598208	0.844566
	H7	H	0.282926	0.389503	0.167818
	H8	H	0.841546	0.719148	0.400664
	H9	H	0.159972	0.719773	0.615180
	H10	H	0.841545	0.277193	0.611208
	H11	H	0.161302	0.280997	0.406859
	H12	H	0.840555	0.394113	0.725249
	H13	H	0.161603	0.600192	0.727907
	H14	H	0.843002	0.604729	0.282843
	H15	H	0.161444	0.396327	0.291103
	H16	H	0.400455	0.712072	0.843057
	H17	H	0.608324	0.716470	0.166867
	H18	H	0.600284	0.280845	0.844408
	H19	H	0.398623	0.275730	0.167094
	H20	H	0.720430	0.838596	0.402727
	H21	H	0.720469	0.158760	0.612565
	H22	H	0.278168	0.838901	0.613262
	H23	H	0.282845	0.160135	0.402860
	H24	H	0.901773	0.336268	0.225551
	H25	H	0.105197	0.659301	0.224404
	H26	H	0.099254	0.333772	0.792063
	H27	H	0.898285	0.657842	0.788144
	H28	H	0.217296	0.895628	0.346396
	H29	H	0.222360	0.104217	0.668289
	H30	H	0.779877	0.103416	0.346856
	H31	H	0.781286	0.894121	0.668752
	H32	H	0.340724	0.214934	0.902263
	H33	H	0.660243	0.218188	0.113702
	H34	H	0.343550	0.773842	0.108595
	H35	H	0.661254	0.778186	0.901498
	H36	H	0.341450	0.891829	0.224133
	H37	H	0.660900	0.099063	0.227604
	H38	H	0.340804	0.098102	0.787714
	H39	H	0.660059	0.894666	0.788640
	H40	H	0.899283	0.215761	0.344982
	H41	H	0.101536	0.214158	0.670674
	H42	H	0.100408	0.781266	0.346154
	H43	H	0.896191	0.778132	0.668618
	H44	H	0.217867	0.333796	0.905690
	H45	H	0.223393	0.656604	0.110692
	H46	H	0.781814	0.337112	0.113194
	H47	H	0.779715	0.656430	0.898865
	H48	H	0.412085	0.110081	0.590418
	H49	H	0.582301	0.886361	0.594958
	H50	H	0.586921	0.111085	0.419562
	H51	H	0.410628	0.883213	0.415831
	H52	H	0.593211	0.411289	0.121086
	H53	H	0.587523	0.592351	0.890778
	H54	H	0.413715	0.587740	0.121588
	H55	H	0.413753	0.410612	0.893495
	H56	H	0.116781	0.585704	0.409566
	H57	H	0.886817	0.587459	0.599954
	H58	H	0.114512	0.404809	0.595212
	H59	H	0.885748	0.406529	0.414283
	H60	H	0.113753	0.413192	0.600766
	H61	H	0.887149	0.591522	0.595992
	H62	H	0.116201	0.600776	0.421833
	H63	H	0.887742	0.406307	0.419163
	H64	H	0.410463	0.583709	0.121479
	H65	H	0.597780	0.584420	0.889591
	H66	H	0.588149	0.406794	0.121417
	H67	H	0.410068	0.398986	0.889082
	H68	H	0.592568	0.112772	0.420567
	H69	H	0.599024	0.882588	0.590558
	H70	H	0.406071	0.114933	0.599254
	H71	H	0.405507	0.883562	0.420384
	H72	H	0.903190	0.613027	0.089799
	H73	H	0.094451	0.380477	0.103338
	H74	H	0.094665	0.614016	0.912236
	H75	H	0.913036	0.385654	0.925036
	H76	H	0.087284	0.911816	0.621175
	H77	H	0.086495	0.087882	0.394626
	H78	H	0.907117	0.088285	0.624729
	H79	H	0.918843	0.914625	0.397629
	H80	H	0.612342	0.081551	0.919424
	H81	H	0.387677	0.090699	0.091018
	H82	H	0.613697	0.910209	0.097643
	H83	H	0.386618	0.902947	0.918048
	H84	H	0.617234	0.905755	0.102855
	H85	H	0.390414	0.080952	0.092809
	H86	H	0.617846	0.089288	0.910145
	H87	H	0.387559	0.906660	0.916014
	H88	H	0.911233	0.086326	0.621938
	H89	H	0.091766	0.097825	0.388565
	H90	H	0.090369	0.907977	0.623596
	H91	H	0.908838	0.899876	0.388979
	H92	H	0.086396	0.608311	0.920879
	H93	H	0.088624	0.382561	0.099523
	H94	H	0.914982	0.614367	0.104017
	H95	H	0.901274	0.379162	0.918104
	H96	H	0.416655	0.111366	0.600688
	H97	H	0.592848	0.879844	0.606838
	H98	H	0.589756	0.113362	0.414488
	H99	H	0.404550	0.880400	0.414137
	H100	H	0.594371	0.405066	0.122946
	H101	H	0.586614	0.580621	0.894592
	H102	H	0.415598	0.583615	0.120225
	H103	H	0.401541	0.408609	0.888874
	H104	H	0.109382	0.583049	0.427329
	H105	H	0.888211	0.586012	0.594487
	H106	H	0.117414	0.404953	0.604988
	H107	H	0.888291	0.410993	0.416602
	H108	H	0.920432	0.607230	0.087605
	H109	H	0.095553	0.382221	0.096684
	H110	H	0.099220	0.610670	0.923603
	H111	H	0.913983	0.380567	0.911011
	H112	H	0.093147	0.912857	0.621809
	H113	H	0.098579	0.087267	0.390620
	H114	H	0.911350	0.090835	0.624215
	H115	H	0.900111	0.916686	0.392670
	H116	H	0.614997	0.093995	0.921865
	H117	H	0.385998	0.086087	0.100735
	H118	H	0.616204	0.903364	0.096069
	H119	H	0.385210	0.903507	0.914194
	C120	C	0.379586	0.006252	0.628373
	C121	C	0.622647	0.989194	0.629435
	C122	C	0.620803	0.006247	0.387351
	C123	C	0.377307	0.989100	0.384760
	C124	C	0.621974	0.376432	0.015329
	C125	C	0.623675	0.618344	0.997583
	C126	C	0.381405	0.616455	0.014264
	C127	C	0.378943	0.374261	0.997500
	C128	C	0.009157	0.620926	0.386098
	C129	C	0.992681	0.619959	0.630005
	C130	C	0.009183	0.376076	0.629823
	C131	C	0.992709	0.377372	0.386534
	C132	C	0.881300	0.505819	0.127221
	C133	C	0.124280	0.488310	0.129869
	C134	C	0.122295	0.504144	0.887494
	C135	C	0.878985	0.488251	0.885609
	C136	C	0.120351	0.879274	0.515743
	C137	C	0.122725	0.121117	0.498525
	C138	C	0.879071	0.119801	0.516521
	C139	C	0.878313	0.877825	0.499179
	C140	C	0.509321	0.118599	0.885235
	C141	C	0.492867	0.118054	0.127862
	C142	C	0.510615	0.873844	0.129098
	C143	C	0.492364	0.874465	0.884913
	C144	C	0.378779	0.884402	0.686230
	C145	C	0.621444	0.110784	0.686486
	C146	C	0.620490	0.884293	0.330569
	C147	C	0.377955	0.110029	0.325361
	C148	C	0.680080	0.374563	0.894065
	C149	C	0.684773	0.621651	0.118047
	C150	C	0.321703	0.617196	0.893016
	C151	C	0.321828	0.371866	0.119361
	C152	C	0.889121	0.679499	0.383047
	C153	C	0.112443	0.679572	0.632795
	C154	C	0.889052	0.316954	0.629760
	C155	C	0.113280	0.319870	0.387400
	C156	C	0.888664	0.375082	0.686629
	C157	C	0.113104	0.619817	0.689133
	C158	C	0.890016	0.622585	0.324042
	C159	C	0.113401	0.377501	0.329776
	C160	C	0.380568	0.674007	0.891984
	C161	C	0.626224	0.677416	0.118501
	C162	C	0.620702	0.318836	0.893203
	C163	C	0.379300	0.315063	0.119105
	C164	C	0.679888	0.886013	0.385479
	C165	C	0.680955	0.110464	0.630748
	C166	C	0.319189	0.886143	0.630618
	C167	C	0.321114	0.111191	0.383721
	C168	C	0.881425	0.384729	0.186566
	C169	C	0.124600	0.610416	0.186232
	C170	C	0.119888	0.382277	0.830404
	C171	C	0.878746	0.609260	0.826584
	C172	C	0.177965	0.877642	0.394543
	C173	C	0.182280	0.122285	0.620239
	C174	C	0.819923	0.121609	0.394749
	C175	C	0.820101	0.875604	0.620335
	C176	C	0.388781	0.176031	0.883615
	C177	C	0.612606	0.177943	0.131188
	C178	C	0.390978	0.813858	0.128260
	C179	C	0.613024	0.817166	0.883834
	C180	C	0.389814	0.872481	0.185719
	C181	C	0.613005	0.118767	0.187955
	C182	C	0.388800	0.117690	0.826750
	C183	C	0.612548	0.875136	0.827259
	C184	C	0.879263	0.177455	0.393870
	C185	C	0.122445	0.177145	0.621322
	C186	C	0.119984	0.820424	0.394505
	C187	C	0.877235	0.817671	0.620242
	C188	C	0.178602	0.382147	0.887036
	C189	C	0.183616	0.608932	0.129821
	C190	C	0.821991	0.385021	0.130491
	C191	C	0.819446	0.608402	0.881854
	C192	C	0.404499	0.090219	0.603796
	C193	C	0.598697	0.904801	0.604508
	C194	C	0.596675	0.090545	0.411339
	C195	C	0.400234	0.904539	0.409689
	C196	C	0.598684	0.400697	0.099793
	C197	C	0.598151	0.593093	0.913425
	C198	C	0.406117	0.592155	0.099089
	C199	C	0.401826	0.398771	0.912548
	C200	C	0.092417	0.596697	0.412159
	C201	C	0.909016	0.595534	0.604189
	C202	C	0.093478	0.400534	0.606847
	C203	C	0.909009	0.401277	0.409898
	C204	C	0.905758	0.589721	0.101431
	C205	C	0.099946	0.403762	0.106717
	C206	C	0.099827	0.588922	0.911737
	C207	C	0.902689	0.403826	0.910894
	C208	C	0.097019	0.903825	0.600314
	C209	C	0.099248	0.097768	0.413553
	C210	C	0.902937	0.095583	0.601332
	C211	C	0.902279	0.903089	0.414909
	C212	C	0.593294	0.095127	0.910086
	C213	C	0.409725	0.093037	0.102454
	C214	C	0.593976	0.898991	0.105840
	C215	C	0.408275	0.897516	0.908945
	Zn216	Zn	0.500929	-0.003776	0.757397
	Zn217	Zn	0.500716	-0.003451	0.258172
	Zn218	Zn	0.750984	0.497121	0.006502
	Zn219	Zn	0.252252	0.495546	0.007611
	Zn220	Zn	0.000228	0.749504	0.508232
	Zn221	Zn	0.000730	0.248094	0.507971
	Zn222	Zn	0.000555	0.496711	0.758494
	Zn223	Zn	0.001809	0.498655	0.257326
	Zn224	Zn	0.502249	0.745989	0.005163
	Zn225	Zn	0.500646	0.247648	0.006110
	Zn226	Zn	0.750007	-0.001152	0.507377
	Zn227	Zn	0.250165	-0.000424	0.507505
	N228	N	0.415678	0.960084	0.684873
	N229	N	0.586052	0.034312	0.685921
	N230	N	0.584331	0.960300	0.331401
	N231	N	0.411913	0.033116	0.325568
	N232	N	0.681163	0.409578	0.970826
	N233	N	0.683401	0.585714	0.041549
	N234	N	0.322291	0.582187	0.970180
	N235	N	0.321532	0.407996	0.042718
	N236	N	0.964148	0.678553	0.420932
	N237	N	0.036341	0.679905	0.596886
	N238	N	0.965183	0.317305	0.595342
	N239	N	0.037357	0.319638	0.422141
	N240	N	0.964268	0.411313	0.686604
	N241	N	0.037460	0.583641	0.687633
	N242	N	0.965662	0.586984	0.325631
	N243	N	0.037534	0.412738	0.329238
	N244	N	0.416991	0.673757	0.968541
	N245	N	0.589087	0.675728	0.042513
	N246	N	0.585392	0.319703	0.969636
	N247	N	0.414037	0.316400	0.042419
	N248	N	0.680032	0.962694	0.420228
	N249	N	0.681708	0.033748	0.596063
	N250	N	0.319409	0.962836	0.595267
	N251	N	0.320290	0.034824	0.419743
	N252	N	0.917335	0.460924	0.184804
	N253	N	0.088689	0.534244	0.186417
	N254	N	0.085501	0.459076	0.830672
	N255	N	0.915040	0.533617	0.829000
	N256	N	0.178353	0.913623	0.471037
	N257	N	0.182595	0.088034	0.542854
	N258	N	0.819438	0.086804	0.471972
	N259	N	0.820570	0.912136	0.544147
	N260	N	0.464755	0.176755	0.919241
	N261	N	0.537021	0.177645	0.094532
	N262	N	0.467039	0.814355	0.094049
	N263	N	0.537151	0.816741	0.919013
	N264	N	0.465244	0.908917	0.186655
	N265	N	0.537480	0.082323	0.186248
	N266	N	0.464734	0.082573	0.827600
	N267	N	0.536611	0.910041	0.827904
	N268	N	0.915376	0.176541	0.470571
	N269	N	0.086480	0.176947	0.544726
	N270	N	0.084975	0.821402	0.470964
	N271	N	0.912639	0.818710	0.543868
	N272	N	0.180354	0.458940	0.921944
	N273	N	0.183705	0.531939	0.095808
	N274	N	0.821459	0.461507	0.094517
	N275	N	0.819502	0.532131	0.918100
	O276	O	0.445034	0.498076	0.527966
	H277	H	0.442014	0.500678	0.527203
	H278	H	0.442633	0.493392	0.532445
	O279	O	0.342523	0.520543	0.423892
	H280	H	0.318062	0.516136	0.411235
	H281	H	0.345758	0.538005	0.422960
	O282	O	0.989748	-0.047699	1.023812
	H283	H	0.963655	-0.044797	1.023099
	H284	H	0.993175	-0.054536	1.029041
	O285	O	0.478312	0.477090	0.596037
	H286	H	0.488221	0.481790	0.595263
	H287	H	0.464254	0.478786	0.589381
	O288	O	1.071120	0.905939	1.010214
	H289	H	1.080895	0.900423	1.015765
	H290	H	1.076837	0.906157	1.006504
	O291	O	-0.403513	0.370940	0.476869
	H292	H	-0.417692	0.366529	0.479756
	H293	H	-0.389701	0.357693	0.480989
	O294	O	0.622260	0.452825	0.685012
	H295	H	0.600912	0.468343	0.688724
	H296	H	0.635966	0.461319	0.698916
	O297	O	0.299599	0.623993	0.505093
	H298	H	0.299279	0.623969	0.495327
	H299	H	0.297013	0.625126	0.515329
	O300	O	0.670979	0.575747	0.530057
	H301	H	0.679616	0.588741	0.539915
	H302	H	0.679134	0.565781	0.532065
	O303	O	1.153868	-0.111181	-0.030269
	H304	H	1.148988	-0.115487	-0.007128
	H305	H	1.137229	-0.118130	-0.026110
	O306	O	0.489541	0.644936	0.332785
	H307	H	0.496172	0.666313	0.301454
	H308	H	0.512813	0.628587	0.339246
	O309	O	0.578845	0.410182	0.535502
	H310	H	0.573308	0.424010	0.536052
	H311	H	0.580214	0.414083	0.540143
	O312	O	-0.125327	-0.069564	-0.077818
	H313	H	-0.132293	-0.069685	-0.076435
	H314	H	-0.132009	-0.070870	-0.081251
	O315	O	0.698775	0.545584	0.413606
	H316	H	0.698266	0.522406	0.425881
	H317	H	0.713993	0.535319	0.406535
	O318	O	0.155537	1.128151	0.967505
	H319	H	0.162318	1.095480	0.946680
	H320	H	0.171962	1.139925	0.981037
	O321	O	0.525503	0.316892	0.484270
	H322	H	0.525174	0.319863	0.478269
	H323	H	0.510234	0.311859	0.482562
	O324	O	-0.044741	0.938144	-0.105777
	H325	H	-0.039470	0.926051	-0.090671
	H326	H	-0.051221	0.936877	-0.097930
	O327	O	0.960190	1.090599	0.122405
	H328	H	0.954810	1.085849	0.116514
	H329	H	0.955775	1.096547	0.116332
	O330	O	0.106146	-0.030092	0.956191
	H331	H	0.095768	-0.027519	0.968176
	H332	H	0.111293	-0.044907	0.967710
	O333	O	-0.056817	0.023084	1.117248
	H334	H	-0.048459	0.030787	1.123233
	H335	H	-0.062537	0.010035	1.106477
	O336	O	0.568214	0.603798	0.601103
	H337	H	0.574276	0.611778	0.583868
	H338	H	0.553649	0.605541	0.586826
	O339	O	1.136339	-0.084119	0.005795
	H340	H	1.144445	-0.095191	0.019565
	H341	H	1.137113	-0.071571	0.003430
	O342	O	0.150034	0.037141	0.129845
	H343	H	0.140891	0.039208	0.139315
	H344	H	0.160641	0.049748	0.133146
	O345	O	1.078366	-0.050241	0.834991
	H346	H	1.079604	-0.068319	0.825292
	H347	H	1.079133	-0.053158	0.835014
	O348	O	0.963827	0.991170	0.068376
	H349	H	0.967578	1.012550	0.076620
	H350	H	0.965713	0.990374	0.058732
	O351	O	0.591415	0.507938	0.560796
	H352	H	0.586641	0.496720	0.566817
	H353	H	0.599586	0.502136	0.555644
	O354	O	0.878317	0.094703	1.072934
	H355	H	0.875815	0.114261	1.067418
	H356	H	0.876111	0.090650	1.056024
	O357	O	0.367974	0.391807	0.613017
	H358	H	0.369636	0.401936	0.602866
	H359	H	0.363928	0.395078	0.613127
	O360	O	0.353509	0.468473	0.584362
	H361	H	0.341997	0.454660	0.579310
	H362	H	0.350755	0.473445	0.581690
	O363	O	0.184115	0.938941	1.056466
	H364	H	0.175262	0.938271	1.066083
	H365	H	0.189855	0.931958	1.065489
	O366	O	0.483900	0.470626	0.454684
	H367	H	0.472055	0.485032	0.456775
	H368	H	0.480691	0.483888	0.446292
	O369	O	-0.631954	0.391293	0.541134
	H370	H	-0.624790	0.394103	0.541674
	H371	H	-0.642788	0.369699	0.540331
	O372	O	0.433257	0.486009	0.340249
	H373	H	0.422198	0.485031	0.346439
	H374	H	0.451994	0.484240	0.342370
	O375	O	0.564310	0.566970	0.394385
	H376	H	0.568577	0.549963	0.386279
	H377	H	0.567657	0.564774	0.389624
	O378	O	0.890197	1.037567	-0.182210
	H379	H	0.909418	1.040174	-0.180976
	H380	H	0.875648	1.044830	-0.199071
	O381	O	0.828557	0.031699	0.052213
	H382	H	0.833855	0.036884	0.035684
	H383	H	0.810065	0.042624	0.040074
	O384	O	0.426228	1.617897	-0.523882
	H385	H	0.433726	1.620813	-0.540934
	H386	H	0.433553	1.627042	-0.522689
	O387	O	-0.139460	-0.118981	-0.002012
	H388	H	-0.122426	-0.115170	-0.019157
	H389	H	-0.154525	-0.119134	-0.007493
	O390	O	-0.069687	1.037065	0.110026
	H391	H	-0.074426	1.044945	0.096104
	H392	H	-0.065631	1.027471	0.127503
	O393	O	1.558461	0.650027	0.620116
	H394	H	1.560610	0.650501	0.620306
	H395	H	1.558365	0.653199	0.613296
	O396	O	0.695631	0.394784	0.502949
	H397	H	0.693981	0.390950	0.511114
	H398	H	0.694334	0.395433	0.520679
	O399	O	0.060575	1.147731	1.057976
	H400	H	0.067368	1.150868	1.059942
	H401	H	0.062217	1.154554	1.056788
	O402	O	0.314241	0.626044	0.316743
	H403	H	0.303687	0.631697	0.340882
	H404	H	0.350380	0.642578	0.309829
	O405	O	0.907898	1.178675	-0.131789
	H406	H	0.909017	1.162397	-0.131844
	H407	H	0.930246	1.176677	-0.139508
	O408	O	0.912978	0.861695	-0.034794
	H409	H	0.924133	0.861452	-0.036314
	H410	H	0.925651	0.872283	-0.027026
	O411	O	1.001853	-0.185164	1.077868
	H412	H	1.001556	-0.182267	1.086563
	H413	H	0.994126	-0.195968	1.070244
	O414	O	-0.032564	0.097396	1.107593
	H415	H	-0.035513	0.107394	1.102783
	H416	H	-0.028048	0.089731	1.101904
	O417	O	0.586486	0.476123	0.309067
	H418	H	0.596247	0.477906	0.304573
	H419	H	0.592498	0.447470	0.312237
