data_Molecule from HDF5

_cell_length_a		16.331568
_cell_length_b		16.161219
_cell_length_c		16.193573
_cell_angle_alpha	89.666164
_cell_angle_beta	89.925540
_cell_angle_gamma	90.109784
_symmetry_space_group_name_H-M	'P 1'
_symmetry_Int_Tables_number		1

loop_
	_symmetry_equiv_pos_as_xyz
	x,y,z

loop_
	_atom_site_label
	_atom_site_type_symbol
	_atom_site_fract_x
	_atom_site_fract_y
	_atom_site_fract_z
	H0	H	0.401622	0.838141	0.709639
	H1	H	0.598255	0.167634	0.705024
	H2	H	0.597815	0.837768	0.283162
	H3	H	0.404414	0.168319	0.280798
	H4	H	0.719663	0.402693	0.831152
	H5	H	0.718662	0.602843	0.157958
	H6	H	0.288141	0.603024	0.830850
	H7	H	0.287501	0.399715	0.159008
	H8	H	0.838905	0.715561	0.396542
	H9	H	0.165864	0.716443	0.591735
	H10	H	0.838569	0.286481	0.594456
	H11	H	0.166163	0.288671	0.398011
	H12	H	0.838621	0.401822	0.711403
	H13	H	0.165626	0.600841	0.709404
	H14	H	0.839608	0.602544	0.278922
	H15	H	0.166021	0.404266	0.280327
	H16	H	0.405682	0.717148	0.830403
	H17	H	0.601088	0.714901	0.159617
	H18	H	0.600580	0.291492	0.829354
	H19	H	0.405073	0.287439	0.159554
	H20	H	0.715833	0.838473	0.394487
	H21	H	0.716982	0.165899	0.594138
	H22	H	0.286007	0.838571	0.595815
	H23	H	0.287270	0.167854	0.394278
	H24	H	0.904825	0.337481	0.209770
	H25	H	0.099678	0.667737	0.205620
	H26	H	0.099916	0.336288	0.783311
	H27	H	0.905448	0.667028	0.781448
	H28	H	0.216781	0.904207	0.330334
	H29	H	0.216924	0.101637	0.658611
	H30	H	0.787856	0.103253	0.331137
	H31	H	0.784367	0.899008	0.658168
	H32	H	0.339004	0.218178	0.895485
	H33	H	0.666524	0.216584	0.090781
	H34	H	0.338905	0.785348	0.095302
	H35	H	0.666524	0.790931	0.897978
	H36	H	0.337766	0.904197	0.210071
	H37	H	0.665527	0.103447	0.209627
	H38	H	0.337995	0.102080	0.779709
	H39	H	0.664604	0.905086	0.779505
	H40	H	0.904926	0.215965	0.330736
	H41	H	0.098919	0.213641	0.660097
	H42	H	0.098723	0.791679	0.328698
	H43	H	0.904248	0.787265	0.659586
	H44	H	0.216597	0.337084	0.896761
	H45	H	0.217931	0.666372	0.094018
	H46	H	0.786536	0.338629	0.096901
	H47	H	0.788945	0.666504	0.894494
	H48	H	0.405864	0.121592	0.588748
	H49	H	0.594400	0.884251	0.582775
	H50	H	0.603719	0.124210	0.398923
	H51	H	0.417464	0.887700	0.400730
	H52	H	0.594909	0.411638	0.111739
	H53	H	0.599580	0.599458	0.875741
	H54	H	0.416798	0.594091	0.110956
	H55	H	0.407589	0.409829	0.876853
	H56	H	0.117727	0.598416	0.407414
	H57	H	0.885155	0.594045	0.593241
	H58	H	0.122416	0.399854	0.594743
	H59	H	0.887800	0.408023	0.408107
	H60	H	0.115162	0.407117	0.578995
	H61	H	0.884981	0.598195	0.586654
	H62	H	0.117979	0.590856	0.397808
	H63	H	0.886321	0.414673	0.399085
	H64	H	0.405869	0.598662	0.114695
	H65	H	0.598822	0.592102	0.877822
	H66	H	0.593927	0.408191	0.112330
	H67	H	0.409161	0.414564	0.878563
	H68	H	0.588656	0.120651	0.396171
	H69	H	0.596947	0.882850	0.590687
	H70	H	0.409929	0.119993	0.586443
	H71	H	0.405025	0.887963	0.413031
	H72	H	0.900212	0.623226	0.088163
	H73	H	0.101258	0.380545	0.094416
	H74	H	0.084823	0.614467	0.905495
	H75	H	0.904013	0.379450	0.893930
	H76	H	0.096498	0.911875	0.611414
	H77	H	0.099442	0.091197	0.377076
	H78	H	0.906385	0.095425	0.614330
	H79	H	0.918248	0.918124	0.382648
	H80	H	0.622490	0.097729	0.886339
	H81	H	0.384715	0.099800	0.089138
	H82	H	0.614572	0.915313	0.086386
	H83	H	0.386450	0.912833	0.899426
	H84	H	0.620455	0.908724	0.097595
	H85	H	0.387457	0.094302	0.082941
	H86	H	0.620149	0.108005	0.905558
	H87	H	0.383793	0.905145	0.901550
	H88	H	0.904957	0.092930	0.612972
	H89	H	0.089486	0.094799	0.379257
	H90	H	0.091570	0.910143	0.610105
	H91	H	0.910120	0.896362	0.373780
	H92	H	0.106792	0.619795	0.910858
	H93	H	0.087885	0.385828	0.090659
	H94	H	0.916369	0.620331	0.093489
	H95	H	0.921500	0.388330	0.903617
	H96	H	0.405266	0.120745	0.584433
	H97	H	0.589582	0.884872	0.588764
	H98	H	0.594376	0.118076	0.410593
	H99	H	0.401586	0.881518	0.396780
	H100	H	0.597395	0.409013	0.111763
	H101	H	0.592871	0.597112	0.877927
	H102	H	0.405717	0.586983	0.110841
	H103	H	0.412262	0.411201	0.878247
	H104	H	0.121647	0.602358	0.395933
	H105	H	0.887278	0.590994	0.586697
	H106	H	0.117703	0.417644	0.593488
	H107	H	0.883287	0.405155	0.398749
	H108	H	0.912662	0.616662	0.077673
	H109	H	0.099040	0.385822	0.080879
	H110	H	0.098578	0.624146	0.889673
	H111	H	0.903920	0.385824	0.914498
	H112	H	0.095053	0.906436	0.613123
	H113	H	0.097406	0.101535	0.375138
	H114	H	0.907926	0.093221	0.612666
	H115	H	0.894900	0.915280	0.374754
	H116	H	0.613866	0.087300	0.903335
	H117	H	0.386099	0.091823	0.091139
	H118	H	0.619577	0.902547	0.085670
	H119	H	0.386973	0.910604	0.907336
	C120	C	0.378741	0.011714	0.615970
	C121	C	0.622017	0.993163	0.615385
	C122	C	0.623199	0.011826	0.373354
	C123	C	0.379838	0.994750	0.373768
	C124	C	0.624172	0.381839	0.003281
	C125	C	0.625043	0.624164	0.985773
	C126	C	0.381042	0.623217	0.003743
	C127	C	0.380998	0.381204	0.986409
	C128	C	0.011113	0.624908	0.372103
	C129	C	0.993798	0.623254	0.616560
	C130	C	0.010233	0.379360	0.617925
	C131	C	0.994084	0.381036	0.373686
	C132	C	0.880941	0.511389	0.116350
	C133	C	0.124640	0.493386	0.116552
	C134	C	0.124597	0.510206	0.873618
	C135	C	0.881433	0.493483	0.874292
	C136	C	0.123481	0.880978	0.502866
	C137	C	0.123260	0.123946	0.486213
	C138	C	0.879722	0.123052	0.504371
	C139	C	0.879231	0.880372	0.485968
	C140	C	0.510613	0.125800	0.871280
	C141	C	0.493901	0.124538	0.116184
	C142	C	0.510261	0.879867	0.118501
	C143	C	0.493584	0.881543	0.873609
	C144	C	0.381491	0.887496	0.671605
	C145	C	0.618836	0.118106	0.668161
	C146	C	0.619289	0.887360	0.319427
	C147	C	0.383175	0.118827	0.318206
	C148	C	0.680468	0.383565	0.879764
	C149	C	0.680091	0.621878	0.109432
	C150	C	0.325674	0.622754	0.880103
	C151	C	0.325442	0.380906	0.109964
	C152	C	0.887753	0.678549	0.375510
	C153	C	0.116894	0.678966	0.613101
	C154	C	0.887356	0.324280	0.615281
	C155	C	0.117234	0.326344	0.377127
	C156	C	0.887609	0.381440	0.673579
	C157	C	0.116958	0.621051	0.671324
	C158	C	0.888331	0.622250	0.316835
	C159	C	0.117140	0.383598	0.318375
	C160	C	0.384235	0.679419	0.879722
	C161	C	0.621830	0.677886	0.110227
	C162	C	0.621366	0.328232	0.878756
	C163	C	0.384365	0.325196	0.110263
	C164	C	0.678024	0.887721	0.374756
	C165	C	0.677980	0.117041	0.613079
	C166	C	0.323827	0.887589	0.614946
	C167	C	0.324911	0.118583	0.374541
	C168	C	0.883574	0.386912	0.172205
	C169	C	0.121035	0.618082	0.169341
	C170	C	0.121070	0.385999	0.819899
	C171	C	0.884692	0.617703	0.818990
	C172	C	0.178775	0.883612	0.379348
	C173	C	0.178397	0.121520	0.609877
	C174	C	0.825424	0.122436	0.380344
	C175	C	0.823483	0.880560	0.609523
	C176	C	0.387476	0.180395	0.874901
	C177	C	0.617378	0.179267	0.112165
	C178	C	0.387541	0.823915	0.115805
	C179	C	0.616927	0.827418	0.876222
	C180	C	0.387019	0.883270	0.172632
	C181	C	0.616846	0.122937	0.171310
	C182	C	0.387056	0.122751	0.817245
	C183	C	0.616073	0.884423	0.817591
	C184	C	0.883690	0.178524	0.380072
	C185	C	0.119460	0.176934	0.610615
	C186	C	0.119900	0.827816	0.378582
	C187	C	0.882950	0.824792	0.610137
	C188	C	0.179198	0.386303	0.876213
	C189	C	0.179903	0.617212	0.113964
	C190	C	0.825067	0.387566	0.115899
	C191	C	0.826672	0.617413	0.875192
	C192	C	0.400536	0.098426	0.593162
	C193	C	0.600003	0.906461	0.593870
	C194	C	0.601872	0.098648	0.395426
	C195	C	0.401508	0.908170	0.396761
	C196	C	0.602015	0.403371	0.089655
	C197	C	0.603535	0.602578	0.899516
	C198	C	0.402997	0.600131	0.089936
	C199	C	0.403121	0.404854	0.900037
	C200	C	0.096938	0.603440	0.393884
	C201	C	0.908021	0.600897	0.595119
	C202	C	0.096141	0.401793	0.595741
	C203	C	0.908216	0.402920	0.395520
	C204	C	0.903176	0.597647	0.093281
	C205	C	0.102717	0.406465	0.094915
	C206	C	0.103132	0.597061	0.895518
	C207	C	0.903262	0.406853	0.897168
	C208	C	0.101084	0.903010	0.589339
	C209	C	0.101758	0.102099	0.399590
	C210	C	0.900398	0.100673	0.591095
	C211	C	0.901318	0.903269	0.399436
	C212	C	0.596618	0.104065	0.892112
	C213	C	0.408255	0.102001	0.094252
	C214	C	0.596226	0.902133	0.096273
	C215	C	0.407926	0.903163	0.896092
	Zn216	Zn	0.500844	0.003246	0.743168
	Zn217	Zn	0.501812	0.003417	0.246354
	Zn218	Zn	0.752850	0.502385	-0.005226
	Zn219	Zn	0.252272	0.501579	-0.004512
	Zn220	Zn	0.002088	0.752745	0.494188
	Zn221	Zn	0.001481	0.251200	0.495505
	Zn222	Zn	0.002310	0.501930	0.746423
	Zn223	Zn	0.002761	0.502705	0.243591
	Zn224	Zn	0.502980	0.751546	-0.004645
	Zn225	Zn	0.502718	0.253618	-0.005948
	Zn226	Zn	0.750979	0.002102	0.494450
	Zn227	Zn	0.251116	0.002495	0.494432
	N228	N	0.414848	0.965769	0.672511
	N229	N	0.584743	0.040320	0.669694
	N230	N	0.586009	0.965565	0.318337
	N231	N	0.416710	0.040972	0.317885
	N232	N	0.682411	0.415949	0.958004
	N233	N	0.682386	0.589352	0.031288
	N234	N	0.323680	0.588516	0.958185
	N235	N	0.323415	0.415133	0.031889
	N236	N	0.965053	0.680502	0.408987
	N237	N	0.039452	0.680414	0.579666
	N238	N	0.964520	0.322957	0.581387
	N239	N	0.039718	0.324471	0.410567
	N240	N	0.965273	0.415149	0.675284
	N241	N	0.039481	0.587348	0.673667
	N242	N	0.966103	0.589451	0.314702
	N243	N	0.039597	0.416838	0.316125
	N244	N	0.418086	0.679817	0.957507
	N245	N	0.588180	0.679673	0.032323
	N246	N	0.587037	0.326784	0.956620
	N247	N	0.418365	0.325339	0.032354
	N248	N	0.680668	0.966105	0.407355
	N249	N	0.680308	0.038274	0.580932
	N250	N	0.321941	0.965766	0.581104
	N251	N	0.322570	0.040257	0.408402
	N252	N	0.917649	0.464871	0.172669
	N253	N	0.087486	0.539989	0.171196
	N254	N	0.087951	0.464242	0.818085
	N255	N	0.917846	0.539602	0.818251
	N256	N	0.180972	0.915823	0.457669
	N257	N	0.180804	0.088971	0.531468
	N258	N	0.822681	0.088667	0.458496
	N259	N	0.821119	0.914433	0.531405
	N260	N	0.465269	0.182660	0.907695
	N261	N	0.539991	0.180518	0.078660
	N262	N	0.465159	0.822062	0.082515
	N263	N	0.539809	0.825536	0.910570
	N264	N	0.464384	0.917155	0.174567
	N265	N	0.539117	0.089870	0.174102
	N266	N	0.464488	0.089488	0.814856
	N267	N	0.538482	0.917431	0.815942
	N268	N	0.916907	0.179091	0.458121
	N269	N	0.086162	0.178541	0.532729
	N270	N	0.086345	0.825959	0.456718
	N271	N	0.916983	0.824556	0.532293
	N272	N	0.181445	0.464700	0.908965
	N273	N	0.182115	0.538573	0.081875
	N274	N	0.823383	0.465777	0.081848
	N275	N	0.824728	0.539043	0.909037
	O276	O	0.043658	0.041825	-0.006953
	H277	H	0.038235	0.039041	0.001864
	H278	H	0.040288	0.028720	-0.019312
	O279	O	0.554095	0.444961	0.448600
	H280	H	0.545683	0.445983	0.448336
	H281	H	0.555047	0.437482	0.447985
	O282	O	0.388504	0.528585	0.515902
	H283	H	0.386279	0.523655	0.516667
	H284	H	0.405816	0.523063	0.528558
	O285	O	1.069688	-0.023478	1.006538
	H286	H	1.075937	-0.026144	0.999593
	H287	H	1.075128	-0.027594	1.009589
	O288	O	1.030522	0.038724	-0.033698
	H289	H	1.030793	0.040705	-0.036608
	H290	H	1.033396	0.036195	-0.042769
	O291	O	0.500140	0.545343	0.502637
	H292	H	0.501187	0.543719	0.493025
	H293	H	0.488242	0.546810	0.496975
	O294	O	1.001397	-0.050530	0.995991
	H295	H	0.994097	-0.045340	1.002920
	H296	H	1.005578	-0.049308	1.000027
	O297	O	-0.061152	0.045556	-0.051107
	H298	H	-0.066440	0.053703	-0.052003
	H299	H	-0.061803	0.048009	-0.059418
	O300	O	0.499381	0.529215	0.511143
	H301	H	0.486713	0.531850	0.510976
	H302	H	0.497447	0.525178	0.507336
	O303	O	0.476074	0.580930	0.501635
	H304	H	0.467895	0.574989	0.512775
	H305	H	0.474203	0.592894	0.503513
	O306	O	0.968016	0.008103	0.001097
	H307	H	0.966763	0.006370	-0.000862
	H308	H	0.964322	0.013458	0.005244
	O309	O	0.074793	-0.077431	0.996655
	H310	H	0.074484	-0.080342	0.986771
	H311	H	0.075905	-0.087858	0.986633
	O312	O	0.963530	0.942956	1.010652
	H313	H	0.959037	0.936083	1.025055
	H314	H	0.964686	0.935567	1.004728
	O315	O	0.587027	0.497413	0.617004
	H316	H	0.592463	0.507593	0.625550
	H317	H	0.583494	0.490192	0.614079
	O318	O	0.461094	0.472768	0.448153
	H319	H	0.461030	0.474606	0.440023
	H320	H	0.461158	0.475551	0.432925
	O321	O	0.526821	1.395432	1.519782
	H322	H	0.527174	1.393365	1.519489
	H323	H	0.529071	1.396064	1.522180
	O324	O	0.439711	0.544093	0.393674
	H325	H	0.442038	0.552065	0.397902
	H326	H	0.430855	0.551278	0.390571
	O327	O	0.504088	0.459684	0.417795
	H328	H	0.499736	0.465748	0.417224
	H329	H	0.505997	0.458310	0.413261
	O330	O	0.463317	0.581310	0.549035
	H331	H	0.467196	0.571128	0.553933
	H332	H	0.461623	0.573916	0.554749
	O333	O	0.457137	0.559792	0.446983
	H334	H	0.450925	0.560642	0.455327
	H335	H	0.455981	0.570431	0.446846
	O336	O	0.576153	0.464472	0.504720
	H337	H	0.578893	0.478360	0.498725
	H338	H	0.582702	0.454797	0.496691
	O339	O	0.959171	1.009241	-0.060605
	H340	H	0.953264	1.009883	-0.060987
	H341	H	0.949896	1.007218	-0.055340
	O342	O	0.578743	0.464888	0.458754
	H343	H	0.581165	0.468855	0.447402
	H344	H	0.583122	0.463475	0.468060
	O345	O	0.466439	0.486149	0.484514
	H346	H	0.474490	0.488628	0.481271
	H347	H	0.463852	0.476843	0.488771
	O348	O	0.034808	-0.011548	0.038096
	H349	H	0.033880	-0.003684	0.046255
	H350	H	0.035044	-0.001626	0.034672
	O351	O	-0.005042	0.976466	0.966267
	H352	H	0.003732	0.977628	0.967018
	H353	H	-0.006699	0.986823	0.969545
	O354	O	0.499900	0.503211	0.539764
	H355	H	0.494169	0.498259	0.541356
	H356	H	0.490370	0.500504	0.544959
	O357	O	-0.014204	0.991516	1.010856
	H358	H	-0.005506	0.987048	1.006321
	H359	H	-0.014900	0.992497	1.017336
