data_Molecule from HDF5

_cell_length_a		16.238548
_cell_length_b		16.528437
_cell_length_c		16.230410
_cell_angle_alpha	89.482465
_cell_angle_beta	89.921863
_cell_angle_gamma	90.063205
_symmetry_space_group_name_H-M	'P 1'
_symmetry_Int_Tables_number		1

loop_
	_symmetry_equiv_pos_as_xyz
	x,y,z

loop_
	_atom_site_label
	_atom_site_type_symbol
	_atom_site_fract_x
	_atom_site_fract_y
	_atom_site_fract_z
	H0	H	0.394431	0.831552	0.725306
	H1	H	0.599478	0.151089	0.725740
	H2	H	0.599084	0.832546	0.288601
	H3	H	0.389507	0.148562	0.282491
	H4	H	0.712390	0.391560	0.843556
	H5	H	0.713083	0.593137	0.167515
	H6	H	0.282083	0.594804	0.841532
	H7	H	0.277188	0.391978	0.166977
	H8	H	0.834912	0.715454	0.395732
	H9	H	0.157442	0.710127	0.604620
	H10	H	0.835850	0.269095	0.613307
	H11	H	0.155235	0.272374	0.397130
	H12	H	0.834299	0.388852	0.724184
	H13	H	0.159295	0.592161	0.717944
	H14	H	0.833583	0.596791	0.285437
	H15	H	0.158435	0.396122	0.289438
	H16	H	0.392788	0.714657	0.845517
	H17	H	0.601317	0.710017	0.167558
	H18	H	0.604371	0.270000	0.848065
	H19	H	0.388235	0.271323	0.166827
	H20	H	0.715918	0.833382	0.403548
	H21	H	0.719767	0.149034	0.613125
	H22	H	0.276802	0.831973	0.609258
	H23	H	0.278139	0.151943	0.403777
	H24	H	0.889852	0.336044	0.229339
	H25	H	0.098295	0.654107	0.220643
	H26	H	0.099436	0.333026	0.785477
	H27	H	0.894163	0.652867	0.784191
	H28	H	0.211858	0.895805	0.343328
	H29	H	0.209387	0.090528	0.669152
	H30	H	0.775908	0.095269	0.344095
	H31	H	0.777140	0.886950	0.667379
	H32	H	0.335594	0.213122	0.900347
	H33	H	0.653855	0.214945	0.116644
	H34	H	0.334695	0.770346	0.113438
	H35	H	0.656629	0.774068	0.904287
	H36	H	0.332126	0.890055	0.223990
	H37	H	0.657263	0.091602	0.223340
	H38	H	0.332760	0.092388	0.791279
	H39	H	0.657020	0.889637	0.789108
	H40	H	0.886973	0.215470	0.345129
	H41	H	0.101134	0.211902	0.665421
	H42	H	0.099585	0.777947	0.341913
	H43	H	0.889768	0.768932	0.664072
	H44	H	0.216896	0.334018	0.900614
	H45	H	0.213745	0.653182	0.102813
	H46	H	0.772778	0.334852	0.113268
	H47	H	0.776794	0.653034	0.901328
	H48	H	0.400806	0.107644	0.601203
	H49	H	0.582340	0.879611	0.600570
	H50	H	0.586855	0.106337	0.413030
	H51	H	0.398783	0.877370	0.420716
	H52	H	0.582468	0.399793	0.121767
	H53	H	0.581732	0.580853	0.893201
	H54	H	0.402323	0.578628	0.121379
	H55	H	0.406659	0.403152	0.889892
	H56	H	0.111431	0.585388	0.413096
	H57	H	0.878488	0.583190	0.595827
	H58	H	0.107708	0.403758	0.587572
	H59	H	0.883340	0.408184	0.421681
	H60	H	0.111198	0.404837	0.597183
	H61	H	0.879945	0.585398	0.590692
	H62	H	0.112406	0.587537	0.411447
	H63	H	0.878828	0.405046	0.412684
	H64	H	0.409145	0.582853	0.120151
	H65	H	0.581315	0.590079	0.890090
	H66	H	0.585692	0.403376	0.120818
	H67	H	0.409861	0.402700	0.891593
	H68	H	0.578757	0.102712	0.415058
	H69	H	0.583025	0.880061	0.594685
	H70	H	0.405413	0.105631	0.599486
	H71	H	0.402998	0.876321	0.412472
	H72	H	0.894712	0.611326	0.098168
	H73	H	0.088301	0.380973	0.093031
	H74	H	0.088350	0.604110	0.918481
	H75	H	0.903522	0.377067	0.907745
	H76	H	0.080981	0.894910	0.621525
	H77	H	0.086115	0.082141	0.390140
	H78	H	0.914159	0.072164	0.613857
	H79	H	0.911944	0.898545	0.389602
	H80	H	0.608793	0.076039	0.916199
	H81	H	0.380705	0.077766	0.096499
	H82	H	0.612019	0.899314	0.099358
	H83	H	0.383402	0.903037	0.924917
	H84	H	0.610827	0.897993	0.096576
	H85	H	0.378396	0.085597	0.096658
	H86	H	0.613648	0.086954	0.913793
	H87	H	0.378975	0.905456	0.912671
	H88	H	0.914276	0.090187	0.621036
	H89	H	0.083769	0.086643	0.389359
	H90	H	0.087525	0.896466	0.622503
	H91	H	0.897593	0.902952	0.386617
	H92	H	0.094701	0.609871	0.905425
	H93	H	0.087103	0.378804	0.100524
	H94	H	0.915042	0.605141	0.098638
	H95	H	0.911416	0.383243	0.918052
	H96	H	0.400454	0.105629	0.596771
	H97	H	0.587286	0.878826	0.598221
	H98	H	0.585640	0.103016	0.421414
	H99	H	0.407497	0.880331	0.418890
	H100	H	0.580570	0.403956	0.120251
	H101	H	0.589739	0.584616	0.889422
	H102	H	0.402438	0.586561	0.123806
	H103	H	0.408139	0.400019	0.889402
	H104	H	0.111031	0.588161	0.414608
	H105	H	0.881001	0.580225	0.591863
	H106	H	0.112198	0.395703	0.592065
	H107	H	0.880145	0.398342	0.420708
	H108	H	0.902921	0.602043	0.081576
	H109	H	0.080787	0.381737	0.096084
	H110	H	0.080200	0.605500	0.905237
	H111	H	0.898429	0.379887	0.920349
	H112	H	0.083870	0.901465	0.620606
	H113	H	0.088424	0.085731	0.388544
	H114	H	0.898442	0.079015	0.622061
	H115	H	0.907962	0.912088	0.393399
	H116	H	0.609004	0.084254	0.925432
	H117	H	0.381811	0.082105	0.089258
	H118	H	0.610338	0.900972	0.097399
	H119	H	0.377731	0.894237	0.918252
	C120	C	0.372211	0.000627	0.630050
	C121	C	0.617432	0.983781	0.629313
	C122	C	0.615791	-0.000161	0.385406
	C123	C	0.372533	0.983175	0.385109
	C124	C	0.616229	0.370775	0.015049
	C125	C	0.615959	0.614192	0.997381
	C126	C	0.374575	0.614034	0.014548
	C127	C	0.374845	0.371156	0.996988
	C128	C	0.004342	0.616920	0.381760
	C129	C	0.987212	0.613375	0.623437
	C130	C	0.004211	0.369670	0.625772
	C131	C	0.987135	0.373248	0.385193
	C132	C	0.872291	0.501880	0.126998
	C133	C	0.116510	0.485807	0.125585
	C134	C	0.118681	0.501154	0.880387
	C135	C	0.873404	0.485163	0.882833
	C136	C	0.115799	0.870563	0.513785
	C137	C	0.116492	0.114070	0.496397
	C138	C	0.875009	0.113132	0.513368
	C139	C	0.873996	0.871190	0.496308
	C140	C	0.504136	0.113377	0.886246
	C141	C	0.486700	0.112561	0.127287
	C142	C	0.503911	0.868928	0.129173
	C143	C	0.486866	0.870766	0.887068
	C144	C	0.373868	0.879977	0.687188
	C145	C	0.618761	0.103144	0.687243
	C146	C	0.617465	0.880182	0.327365
	C147	C	0.371252	0.101901	0.323835
	C148	C	0.674668	0.371110	0.892958
	C149	C	0.674529	0.612895	0.119131
	C150	C	0.319205	0.614291	0.891091
	C151	C	0.316250	0.371899	0.118652
	C152	C	0.883005	0.675482	0.378644
	C153	C	0.109132	0.670847	0.623568
	C154	C	0.883730	0.309635	0.630152
	C155	C	0.107575	0.313379	0.380713
	C156	C	0.882963	0.369150	0.685491
	C157	C	0.109963	0.612293	0.680227
	C158	C	0.882272	0.616497	0.323519
	C159	C	0.109150	0.374713	0.326841
	C160	C	0.374534	0.673839	0.892982
	C161	C	0.618834	0.671037	0.119165
	C162	C	0.620811	0.310758	0.895182
	C163	C	0.371483	0.311850	0.118402
	C164	C	0.675850	0.880746	0.384566
	C165	C	0.678517	0.102231	0.631032
	C166	C	0.315339	0.880062	0.629411
	C167	C	0.315839	0.103455	0.384333
	C168	C	0.870729	0.383159	0.188796
	C169	C	0.117021	0.606067	0.181764
	C170	C	0.118972	0.381056	0.823891
	C171	C	0.874215	0.605034	0.823490
	C172	C	0.173348	0.874912	0.391576
	C173	C	0.172626	0.111871	0.619520
	C174	C	0.814818	0.114843	0.392581
	C175	C	0.816109	0.868798	0.618420
	C176	C	0.383463	0.172804	0.883067
	C177	C	0.606796	0.173110	0.131945
	C178	C	0.382659	0.810124	0.131070
	C179	C	0.608477	0.813205	0.885782
	C180	C	0.381369	0.869925	0.186056
	C181	C	0.608421	0.111918	0.185578
	C182	C	0.382013	0.112601	0.828714
	C183	C	0.608542	0.870642	0.828146
	C184	C	0.870465	0.174414	0.393047
	C185	C	0.118342	0.172029	0.617633
	C186	C	0.117477	0.816177	0.391026
	C187	C	0.871615	0.809608	0.616474
	C188	C	0.177204	0.381516	0.881577
	C189	C	0.174541	0.605754	0.123127
	C190	C	0.812672	0.382699	0.130604
	C191	C	0.815787	0.605063	0.881766
	C192	C	0.395585	0.084613	0.606191
	C193	C	0.591987	0.901061	0.604863
	C194	C	0.591029	0.082385	0.409451
	C195	C	0.396233	0.899851	0.410215
	C196	C	0.590502	0.395269	0.099072
	C197	C	0.591421	0.591725	0.912977
	C198	C	0.397700	0.589749	0.099474
	C199	C	0.400811	0.395006	0.912309
	C200	C	0.089428	0.593768	0.406149
	C201	C	0.902017	0.589867	0.599579
	C202	C	0.088605	0.394385	0.599807
	C203	C	0.902691	0.396900	0.410986
	C204	C	0.897173	0.584586	0.100623
	C205	C	0.092402	0.402232	0.103049
	C206	C	0.094625	0.584697	0.903072
	C207	C	0.897470	0.401717	0.908012
	C208	C	0.091176	0.891537	0.599336
	C209	C	0.092873	0.091437	0.411452
	C210	C	0.901461	0.087763	0.597385
	C211	C	0.898688	0.897080	0.411834
	C212	C	0.588496	0.089226	0.911304
	C213	C	0.402372	0.088653	0.101641
	C214	C	0.589154	0.892598	0.105004
	C215	C	0.401976	0.894158	0.911751
	Zn216	Zn	0.495227	-0.008068	0.758715
	Zn217	Zn	0.494579	-0.008691	0.255760
	Zn218	Zn	0.742773	0.493236	0.004809
	Zn219	Zn	0.246588	0.492865	0.003957
	Zn220	Zn	-0.004817	0.743130	0.503123
	Zn221	Zn	-0.004368	0.242128	0.504756
	Zn222	Zn	-0.004132	0.492554	0.751984
	Zn223	Zn	-0.004602	0.494506	0.256181
	Zn224	Zn	0.495607	0.742164	0.007575
	Zn225	Zn	0.495706	0.241976	0.006869
	Zn226	Zn	0.746086	-0.007832	0.506381
	Zn227	Zn	0.243267	-0.007852	0.506956
	N228	N	0.408089	0.956017	0.687704
	N229	N	0.581544	0.028438	0.686334
	N230	N	0.580869	0.955091	0.327511
	N231	N	0.405760	0.026165	0.324171
	N232	N	0.672256	0.407556	0.968770
	N233	N	0.672945	0.578093	0.042587
	N234	N	0.319233	0.577671	0.967476
	N235	N	0.318118	0.407952	0.042154
	N236	N	0.959873	0.675866	0.414155
	N237	N	0.031644	0.671721	0.589295
	N238	N	0.960209	0.309890	0.593771
	N239	N	0.030488	0.311983	0.416006
	N240	N	0.958984	0.405843	0.682828
	N241	N	0.033175	0.577115	0.680168
	N242	N	0.958626	0.580798	0.325372
	N243	N	0.033170	0.411210	0.329377
	N244	N	0.408035	0.673980	0.970714
	N245	N	0.582860	0.672069	0.042621
	N246	N	0.585462	0.310234	0.972154
	N247	N	0.407386	0.311397	0.041502
	N248	N	0.674919	0.955824	0.420315
	N249	N	0.677900	0.027005	0.595758
	N250	N	0.313787	0.956186	0.594716
	N251	N	0.316517	0.028518	0.421798
	N252	N	0.907092	0.458128	0.186637
	N253	N	0.081647	0.530597	0.183423
	N254	N	0.083274	0.456398	0.823012
	N255	N	0.909355	0.529250	0.823985
	N256	N	0.172336	0.908076	0.469045
	N257	N	0.171696	0.076359	0.543335
	N258	N	0.817483	0.077492	0.468461
	N259	N	0.817290	0.906361	0.542493
	N260	N	0.460553	0.173735	0.917819
	N261	N	0.530095	0.173484	0.096492
	N262	N	0.460027	0.809534	0.096412
	N263	N	0.531733	0.813248	0.921526
	N264	N	0.457887	0.905635	0.184980
	N265	N	0.532723	0.074645	0.182608
	N266	N	0.458308	0.076519	0.830306
	N267	N	0.531902	0.905742	0.828968
	N268	N	0.907225	0.173326	0.469289
	N269	N	0.084224	0.173497	0.540159
	N270	N	0.082387	0.813569	0.468113
	N271	N	0.906685	0.811014	0.539526
	N272	N	0.177385	0.457416	0.915677
	N273	N	0.174327	0.530010	0.088812
	N274	N	0.813470	0.457486	0.092781
	N275	N	0.815206	0.529435	0.917786
	O276	O	0.507547	0.424723	0.665022
	H277	H	0.491523	0.418577	0.677342
	H278	H	0.511310	0.420848	0.650720
	O279	O	0.428261	0.326635	0.465928
	H280	H	0.427014	0.322501	0.472691
	H281	H	0.439549	0.333712	0.467813
	O282	O	1.052478	0.119865	1.036526
	H283	H	1.057518	0.113806	1.043480
	H284	H	1.038807	0.099233	1.032265
	O285	O	0.569418	0.490338	0.476884
	H286	H	0.575803	0.485273	0.489136
	H287	H	0.573079	0.494240	0.487385
	O288	O	1.106906	0.961908	1.013494
	H289	H	1.119389	0.955121	1.011452
	H290	H	1.097801	0.965235	1.010120
	O291	O	-0.019688	0.987471	0.164452
	H292	H	-0.028894	0.978194	0.170067
	H293	H	-0.021037	0.992465	0.166439
	O294	O	0.549138	0.550524	0.414713
	H295	H	0.546930	0.558452	0.418540
	H296	H	0.538301	0.548904	0.422355
	O297	O	0.395072	0.508320	0.544505
	H298	H	0.383801	0.494435	0.547205
	H299	H	0.410203	0.511665	0.541658
	O300	O	0.659747	0.376645	0.437025
	H301	H	0.668527	0.399097	0.441726
	H302	H	0.664492	0.376803	0.436900
	O303	O	0.320775	0.490487	0.590440
	H304	H	0.313602	0.479497	0.595511
	H305	H	0.324386	0.478426	0.590660
	O306	O	0.613127	0.281820	0.391822
	H307	H	0.628854	0.260328	0.377966
	H308	H	0.628457	0.288171	0.378167
	O309	O	0.483618	0.572053	0.396864
	H310	H	0.491052	0.579730	0.387472
	H311	H	0.484134	0.560633	0.410336
	O312	O	-0.023841	-0.146734	0.111022
	H313	H	-0.041019	-0.131767	0.111799
	H314	H	-0.027381	-0.156231	0.122748
	O315	O	0.420591	0.642446	0.397052
	H316	H	0.414775	0.648809	0.382446
	H317	H	0.423905	0.649402	0.409245
	O318	O	0.064837	1.030286	1.017161
	H319	H	0.074993	1.039886	1.030562
	H320	H	0.094503	1.019153	1.018711
	O321	O	0.392656	0.596545	0.368738
	H322	H	0.394866	0.599118	0.365183
	H323	H	0.379663	0.603873	0.362840
	O324	O	0.019984	1.050200	-0.097982
	H325	H	0.034018	1.059220	-0.106553
	H326	H	0.010250	1.049634	-0.108883
	O327	O	0.377646	0.335628	0.655081
	H328	H	0.388941	0.345184	0.652920
	H329	H	0.368863	0.333528	0.636589
	O330	O	0.145084	-0.114813	0.903962
	H331	H	0.142188	-0.123512	0.909682
	H332	H	0.157853	-0.111489	0.904590
	O333	O	0.045295	-0.105663	1.014447
	H334	H	0.042935	-0.106487	1.014854
	H335	H	0.056455	-0.102197	1.020233
	O336	O	0.535945	0.468126	0.630690
	H337	H	0.537438	0.457066	0.634440
	H338	H	0.543152	0.474704	0.620062
	O339	O	0.850840	-0.138288	0.083081
	H340	H	0.852970	-0.134087	0.072856
	H341	H	0.836355	-0.133172	0.070711
	O342	O	-0.042654	0.184140	-0.140847
	H343	H	-0.063351	0.188104	-0.127194
	H344	H	-0.045937	0.177943	-0.154582
	O345	O	1.021828	-0.109787	0.957088
	H346	H	1.022359	-0.103340	0.957879
	H347	H	1.022329	-0.110885	0.957546
	O348	O	0.857922	1.098964	-0.011836
	H349	H	0.845086	1.103703	-0.024068
	H350	H	0.858513	1.104681	-0.017142
	O351	O	0.517612	0.650740	0.581239
	H352	H	0.520583	0.665445	0.583641
	H353	H	0.497811	0.648398	0.572486
	O354	O	0.980074	-0.120964	0.910766
	H355	H	0.976214	-0.116319	0.895311
	H356	H	0.994514	-0.133164	0.912475
	O357	O	0.617937	0.508426	0.649699
	H358	H	0.610154	0.507238	0.666335
	H359	H	0.619717	0.529608	0.655346
	O360	O	0.626062	0.592297	0.479607
	H361	H	0.623176	0.588782	0.483708
	H362	H	0.634701	0.599497	0.472381
	O363	O	0.018530	1.200580	1.098939
	H364	H	0.034492	1.206719	1.122641
	H365	H	0.037591	1.197098	1.106920
	O366	O	0.618477	0.658153	0.620985
	H367	H	0.599160	0.668067	0.620074
	H368	H	0.614496	0.647179	0.626309
	O369	O	0.123438	0.952528	-0.099593
	H370	H	0.117814	0.944288	-0.095415
	H371	H	0.111989	0.973304	-0.115193
	O372	O	0.380074	0.492027	0.583851
	H373	H	0.384061	0.484037	0.585284
	H374	H	0.384248	0.483123	0.568363
	O375	O	0.675667	0.412237	0.345672
	H376	H	0.681349	0.436288	0.342799
	H377	H	0.659052	0.399476	0.339330
	O378	O	0.843690	0.995854	-0.049428
	H379	H	0.841849	1.006646	-0.062688
	H380	H	0.837573	1.000296	-0.050723
	O381	O	1.057121	0.125157	0.074926
	H382	H	1.056989	0.126953	0.086273
	H383	H	1.059794	0.119587	0.070066
	O384	O	0.893509	0.930680	0.126180
	H385	H	0.868060	0.921590	0.118748
	H386	H	0.891598	0.927696	0.118620
	O387	O	0.107167	0.103877	0.085340
	H388	H	0.119185	0.106804	0.061861
	H389	H	0.111202	0.075050	0.086555
	O390	O	-0.063254	0.981309	-0.185237
	H391	H	-0.071401	0.991495	-0.180693
	H392	H	-0.055027	0.986579	-0.198373
	O393	O	1.389938	0.417344	0.556605
	H394	H	1.395352	0.408550	0.552778
	H395	H	1.381338	0.419711	0.558543
	O396	O	0.444711	0.640118	0.517677
	H397	H	0.446712	0.640285	0.515999
	H398	H	0.433391	0.628243	0.518661
	O399	O	-0.070410	0.931588	0.949374
	H400	H	-0.068950	0.935465	0.944018
	H401	H	-0.080655	0.945084	0.940166
	O402	O	0.350272	0.302846	0.518626
	H403	H	0.349050	0.296732	0.515941
	H404	H	0.361252	0.303712	0.514686
	O405	O	0.784058	1.203758	-0.021634
	H406	H	0.790804	1.214802	-0.002621
	H407	H	0.775735	1.233198	-0.011286
	O408	O	1.032010	0.891073	-0.013436
	H409	H	1.029706	0.869835	0.006910
	H410	H	1.030595	0.908386	-0.012736
	O411	O	1.051507	0.010089	1.136002
	H412	H	1.033058	0.015772	1.132124
	H413	H	1.049120	-0.004002	1.130455
	O414	O	0.626275	0.376201	0.542224
	H415	H	0.634716	0.372330	0.545241
	H416	H	0.636268	0.377239	0.549758
	O417	O	0.541094	0.547839	0.389509
	H418	H	0.538638	0.547663	0.394362
	H419	H	0.526302	0.554913	0.387971
