data_Molecule from HDF5

_cell_length_a		16.449600
_cell_length_b		16.275726
_cell_length_c		16.341996
_cell_angle_alpha	89.878937
_cell_angle_beta	90.020175
_cell_angle_gamma	89.973461
_symmetry_space_group_name_H-M	'P 1'
_symmetry_Int_Tables_number		1

loop_
	_symmetry_equiv_pos_as_xyz
	x,y,z

loop_
	_atom_site_label
	_atom_site_type_symbol
	_atom_site_fract_x
	_atom_site_fract_y
	_atom_site_fract_z
	H0	H	0.394871	0.841483	0.719971
	H1	H	0.596872	0.166002	0.715259
	H2	H	0.601027	0.843974	0.279807
	H3	H	0.390543	0.163073	0.281072
	H4	H	0.717465	0.396383	0.839612
	H5	H	0.718631	0.608082	0.157674
	H6	H	0.277267	0.608806	0.838886
	H7	H	0.277861	0.400153	0.159493
	H8	H	0.837801	0.721291	0.394414
	H9	H	0.157271	0.720689	0.600077
	H10	H	0.836436	0.282968	0.600016
	H11	H	0.157684	0.283202	0.395668
	H12	H	0.838730	0.393496	0.721629
	H13	H	0.156265	0.606139	0.718605
	H14	H	0.838645	0.604891	0.277858
	H15	H	0.158361	0.400640	0.280115
	H16	H	0.393840	0.724196	0.838670
	H17	H	0.599362	0.720701	0.159999
	H18	H	0.598962	0.283624	0.839300
	H19	H	0.395236	0.286087	0.161440
	H20	H	0.716255	0.843311	0.395499
	H21	H	0.717124	0.162918	0.606086
	H22	H	0.274848	0.842204	0.609205
	H23	H	0.276330	0.163193	0.397538
	H24	H	0.896736	0.340642	0.215366
	H25	H	0.100835	0.664676	0.215353
	H26	H	0.098534	0.340166	0.781622
	H27	H	0.893644	0.663715	0.777928
	H28	H	0.218898	0.896247	0.341227
	H29	H	0.214567	0.107023	0.660173
	H30	H	0.774804	0.108020	0.340349
	H31	H	0.775703	0.895196	0.659504
	H32	H	0.336088	0.221321	0.900202
	H33	H	0.656868	0.222072	0.103641
	H34	H	0.337739	0.782559	0.105276
	H35	H	0.656300	0.782656	0.895625
	H36	H	0.337845	0.897765	0.222061
	H37	H	0.655031	0.108194	0.223044
	H38	H	0.336902	0.107791	0.780569
	H39	H	0.656007	0.898177	0.778986
	H40	H	0.894145	0.218946	0.336863
	H41	H	0.097404	0.221500	0.659194
	H42	H	0.099212	0.786989	0.336899
	H43	H	0.893086	0.779745	0.658615
	H44	H	0.216327	0.341764	0.896236
	H45	H	0.215836	0.663891	0.101872
	H46	H	0.777944	0.341939	0.102938
	H47	H	0.775190	0.663184	0.891268
	H48	H	0.408992	0.116731	0.591302
	H49	H	0.586934	0.885715	0.597880
	H50	H	0.584720	0.117988	0.412307
	H51	H	0.405421	0.886605	0.410326
	H52	H	0.590435	0.421434	0.111989
	H53	H	0.580745	0.595367	0.885038
	H54	H	0.398227	0.601920	0.119446
	H55	H	0.413084	0.416154	0.887758
	H56	H	0.112136	0.592002	0.404604
	H57	H	0.884852	0.587101	0.589814
	H58	H	0.109374	0.416711	0.591008
	H59	H	0.886961	0.414885	0.415209
	H60	H	0.112635	0.407807	0.592778
	H61	H	0.883362	0.594285	0.586565
	H62	H	0.112686	0.596544	0.405588
	H63	H	0.883829	0.418634	0.398106
	H64	H	0.400609	0.581165	0.110657
	H65	H	0.590933	0.593021	0.882912
	H66	H	0.580798	0.411540	0.112238
	H67	H	0.406211	0.405621	0.882634
	H68	H	0.584038	0.116407	0.414874
	H69	H	0.579406	0.891221	0.587574
	H70	H	0.402668	0.116387	0.585566
	H71	H	0.409998	0.889150	0.411955
	H72	H	0.909733	0.616119	0.085623
	H73	H	0.089554	0.385806	0.092465
	H74	H	0.087524	0.615420	0.915290
	H75	H	0.911343	0.389302	0.907866
	H76	H	0.083108	0.914032	0.612343
	H77	H	0.092771	0.086842	0.384560
	H78	H	0.899695	0.084461	0.613045
	H79	H	0.903122	0.915252	0.385283
	H80	H	0.609830	0.088202	0.905549
	H81	H	0.380388	0.097581	0.096465
	H82	H	0.608060	0.912513	0.084639
	H83	H	0.383653	0.912686	0.910147
	H84	H	0.608211	0.920594	0.092865
	H85	H	0.383851	0.097232	0.085422
	H86	H	0.614146	0.099034	0.904540
	H87	H	0.385532	0.915045	0.912876
	H88	H	0.916053	0.090433	0.609708
	H89	H	0.081331	0.088886	0.387060
	H90	H	0.084819	0.907770	0.615335
	H91	H	0.906758	0.916501	0.386862
	H92	H	0.093848	0.621015	0.903980
	H93	H	0.083859	0.389655	0.086980
	H94	H	0.905721	0.617280	0.085148
	H95	H	0.906588	0.389301	0.914714
	H96	H	0.401406	0.119252	0.593720
	H97	H	0.591932	0.887504	0.584931
	H98	H	0.586413	0.117687	0.414246
	H99	H	0.405715	0.888735	0.415616
	H100	H	0.593727	0.409123	0.116468
	H101	H	0.584578	0.585875	0.887228
	H102	H	0.418056	0.595414	0.110472
	H103	H	0.399998	0.417913	0.884050
	H104	H	0.111841	0.593617	0.408540
	H105	H	0.885998	0.588543	0.582549
	H106	H	0.109026	0.409408	0.583737
	H107	H	0.880483	0.402347	0.404510
	H108	H	0.907554	0.617541	0.088867
	H109	H	0.092402	0.387726	0.084858
	H110	H	0.080566	0.617349	0.902850
	H111	H	0.903740	0.387281	0.907594
	H112	H	0.089191	0.912852	0.614650
	H113	H	0.087897	0.097276	0.383008
	H114	H	0.904686	0.101194	0.617645
	H115	H	0.905944	0.912574	0.385301
	H116	H	0.609112	0.095429	0.914403
	H117	H	0.384576	0.087688	0.092499
	H118	H	0.612895	0.910173	0.094894
	H119	H	0.383818	0.916359	0.909444
	C120	C	0.373856	0.011009	0.622558
	C121	C	0.617673	0.994554	0.621555
	C122	C	0.616636	0.011639	0.380808
	C123	C	0.375075	0.994095	0.380661
	C124	C	0.619218	0.381412	0.008095
	C125	C	0.617454	0.623392	0.990600
	C126	C	0.374544	0.625454	0.007659
	C127	C	0.375947	0.382505	0.991198
	C128	C	0.006501	0.624743	0.375148
	C129	C	0.989456	0.622330	0.618410
	C130	C	0.004792	0.379767	0.620029
	C131	C	0.989476	0.380848	0.375814
	C132	C	0.876363	0.510812	0.118632
	C133	C	0.119080	0.494236	0.119088
	C134	C	0.118319	0.511117	0.876962
	C135	C	0.875317	0.494530	0.877078
	C136	C	0.117709	0.880795	0.508171
	C137	C	0.117863	0.123139	0.490618
	C138	C	0.875065	0.123885	0.507675
	C139	C	0.874271	0.880913	0.491142
	C140	C	0.505249	0.125660	0.877991
	C141	C	0.488091	0.125517	0.122836
	C142	C	0.504874	0.882205	0.122693
	C143	C	0.489014	0.882276	0.878398
	C144	C	0.374566	0.889833	0.681295
	C145	C	0.617420	0.116577	0.678328
	C146	C	0.618992	0.891655	0.320231
	C147	C	0.372822	0.115055	0.321022
	C148	C	0.677723	0.378835	0.887453
	C149	C	0.677943	0.625643	0.110422
	C150	C	0.316274	0.627414	0.887096
	C151	C	0.317450	0.381532	0.111790
	C152	C	0.886013	0.682629	0.374965
	C153	C	0.109395	0.681305	0.619484
	C154	C	0.884693	0.321351	0.620034
	C155	C	0.109714	0.322105	0.376004
	C156	C	0.885752	0.376874	0.680139
	C157	C	0.108883	0.624162	0.678338
	C158	C	0.886359	0.624747	0.316972
	C159	C	0.110266	0.380462	0.318375
	C160	C	0.374468	0.684755	0.886982
	C161	C	0.618296	0.681523	0.111708
	C162	C	0.618611	0.322747	0.887299
	C163	C	0.375949	0.324763	0.112700
	C164	C	0.676337	0.891213	0.377780
	C165	C	0.677119	0.115228	0.623728
	C166	C	0.314957	0.890342	0.625784
	C167	C	0.315697	0.114965	0.378828
	C168	C	0.876741	0.389553	0.177214
	C169	C	0.119265	0.616074	0.176729
	C170	C	0.118141	0.388979	0.820249
	C171	C	0.874190	0.615392	0.817071
	C172	C	0.178048	0.879206	0.388290
	C173	C	0.175744	0.125125	0.611649
	C174	C	0.815177	0.125627	0.387674
	C175	C	0.815243	0.877210	0.611229
	C176	C	0.384353	0.183047	0.879646
	C177	C	0.608703	0.183464	0.123357
	C178	C	0.385501	0.822195	0.124020
	C179	C	0.608623	0.822299	0.876879
	C180	C	0.385519	0.879666	0.182204
	C181	C	0.607672	0.127026	0.182908
	C182	C	0.384646	0.126304	0.820301
	C183	C	0.608297	0.879781	0.818519
	C184	C	0.874705	0.181080	0.385956
	C185	C	0.117308	0.182055	0.611443
	C186	C	0.118397	0.824548	0.386066
	C187	C	0.873661	0.819587	0.610769
	C188	C	0.177117	0.390007	0.876682
	C189	C	0.177181	0.615569	0.120349
	C190	C	0.817796	0.389992	0.120717
	C191	C	0.815486	0.615201	0.873760
	C192	C	0.397581	0.095500	0.597536
	C193	C	0.593217	0.910097	0.597143
	C194	C	0.591875	0.095448	0.406618
	C195	C	0.399776	0.910068	0.405463
	C196	C	0.595424	0.406849	0.091790
	C197	C	0.592611	0.598562	0.906896
	C198	C	0.398653	0.600288	0.091691
	C199	C	0.399590	0.406504	0.906709
	C200	C	0.090371	0.600958	0.399267
	C201	C	0.906295	0.597350	0.593605
	C202	C	0.088591	0.404108	0.595900
	C203	C	0.905621	0.404910	0.399262
	C204	C	0.900615	0.595050	0.093622
	C205	C	0.095473	0.409604	0.094952
	C206	C	0.094120	0.595862	0.900526
	C207	C	0.900057	0.410477	0.902707
	C208	C	0.092743	0.904634	0.592073
	C209	C	0.094105	0.098306	0.406787
	C210	C	0.899765	0.099029	0.591649
	C211	C	0.898428	0.907168	0.407434
	C212	C	0.589119	0.101334	0.901467
	C213	C	0.404748	0.101330	0.098490
	C214	C	0.588078	0.907190	0.097912
	C215	C	0.405890	0.907493	0.903511
	Zn216	Zn	0.496596	0.003832	0.749171
	Zn217	Zn	0.495720	0.003417	0.251991
	Zn218	Zn	0.747096	0.503064	-0.002018
	Zn219	Zn	0.246706	0.503162	-0.001405
	Zn220	Zn	-0.002411	0.752779	0.497889
	Zn221	Zn	-0.003465	0.251935	0.497510
	Zn222	Zn	-0.003532	0.501488	0.748636
	Zn223	Zn	-0.001276	0.502465	0.246900
	Zn224	Zn	0.497204	0.753194	0.000172
	Zn225	Zn	0.496777	0.254254	0.000666
	Zn226	Zn	0.745605	0.003542	0.500684
	Zn227	Zn	0.246004	0.001512	0.500422
	N228	N	0.410434	0.965979	0.679288
	N229	N	0.581302	0.040421	0.677263
	N230	N	0.582496	0.967539	0.322211
	N231	N	0.408942	0.038980	0.321998
	N232	N	0.678143	0.414505	0.963556
	N233	N	0.677554	0.590241	0.034036
	N234	N	0.316224	0.591375	0.963223
	N235	N	0.317425	0.416724	0.035213
	N236	N	0.961876	0.682840	0.410189
	N237	N	0.034198	0.680370	0.582941
	N238	N	0.959785	0.323300	0.583026
	N239	N	0.033653	0.322271	0.410954
	N240	N	0.961446	0.412371	0.680273
	N241	N	0.033223	0.588179	0.677783
	N242	N	0.962438	0.589932	0.316767
	N243	N	0.034582	0.416377	0.318244
	N244	N	0.409955	0.683726	0.963083
	N245	N	0.581531	0.680181	0.036282
	N246	N	0.583105	0.323895	0.963338
	N247	N	0.411685	0.325394	0.036694
	N248	N	0.674937	0.966905	0.414859
	N249	N	0.677857	0.038146	0.589623
	N250	N	0.314088	0.967034	0.590321
	N251	N	0.316911	0.038897	0.415375
	N252	N	0.912597	0.465759	0.176082
	N253	N	0.083804	0.539618	0.175990
	N254	N	0.082664	0.465456	0.820014
	N255	N	0.910356	0.539145	0.818789
	N256	N	0.178001	0.913299	0.465194
	N257	N	0.176115	0.089006	0.535640
	N258	N	0.815232	0.090795	0.464363
	N259	N	0.815610	0.914701	0.535922
	N260	N	0.460342	0.182844	0.914619
	N261	N	0.533385	0.182899	0.087000
	N262	N	0.460805	0.823484	0.087667
	N263	N	0.533487	0.823808	0.913438
	N264	N	0.460766	0.916077	0.181727
	N265	N	0.531682	0.091954	0.182929
	N266	N	0.460830	0.091554	0.819147
	N267	N	0.532743	0.916237	0.819274
	N268	N	0.911288	0.180138	0.461639
	N269	N	0.082284	0.181087	0.535252
	N270	N	0.081535	0.825377	0.461528
	N271	N	0.909423	0.821511	0.534765
	N272	N	0.177388	0.467010	0.911177
	N273	N	0.177020	0.539045	0.084841
	N274	N	0.817401	0.466490	0.085124
	N275	N	0.816219	0.539085	0.910397
	O276	O	0.538855	0.385035	0.310994
	H277	H	0.557337	0.390660	0.316141
	H278	H	0.540116	0.377803	0.312812
	O279	O	0.663538	0.339380	0.500528
	H280	H	0.662936	0.350845	0.519624
	H281	H	0.671160	0.344853	0.495100
	O282	O	0.610982	0.596506	0.583049
	H283	H	0.611583	0.597083	0.572098
	H284	H	0.602991	0.583139	0.592997
	O285	O	1.095307	-0.002677	0.124929
	H286	H	1.100540	0.013383	0.113814
	H287	H	1.074517	-0.001798	0.121285
	O288	O	-0.036361	0.117016	0.849673
	H289	H	-0.035150	0.112580	0.859150
	H290	H	-0.040711	0.116056	0.862556
	O291	O	0.673342	0.506909	0.436371
	H292	H	0.661952	0.509403	0.441186
	H293	H	0.672767	0.504076	0.432117
	O294	O	0.660308	0.558997	0.560128
	H295	H	0.646501	0.558311	0.563864
	H296	H	0.668701	0.563177	0.557734
	O297	O	1.010184	1.049027	1.139961
	H298	H	1.004313	1.025471	1.128224
	H299	H	1.010665	1.036706	1.144164
	O300	O	0.001947	0.006603	0.095763
	H301	H	0.014926	-0.000229	0.093839
	H302	H	-0.003191	-0.005138	0.089505
	O303	O	0.525464	0.441663	0.373891
	H304	H	0.525930	0.434642	0.390903
	H305	H	0.511330	0.437262	0.376529
	O306	O	1.121109	0.123350	0.012819
	H307	H	1.125488	0.120762	0.030875
	H308	H	1.116241	0.115575	0.003629
	O309	O	0.669120	0.553183	0.384669
	H310	H	0.663892	0.540597	0.379372
	H311	H	0.670989	0.548538	0.388127
	O312	O	0.868196	0.952559	0.204133
	H313	H	0.881695	0.936062	0.214941
	H314	H	0.873199	0.947438	0.214388
	O315	O	0.350572	0.342813	0.601002
	H316	H	0.351414	0.322438	0.596372
	H317	H	0.359005	0.353000	0.595468
	O318	O	0.351904	0.678408	0.331510
	H319	H	0.350276	0.666209	0.331243
	H320	H	0.364542	0.669566	0.324666
	O321	O	0.789710	0.070736	0.963654
	H322	H	0.774272	0.073151	0.963319
	H323	H	0.789032	0.072239	0.976472
	O324	O	0.171788	0.044857	0.838898
	H325	H	0.165994	0.036297	0.831866
	H326	H	0.155311	0.055999	0.826575
	O327	O	0.705374	0.496064	0.675214
	H328	H	0.693190	0.507404	0.677985
	H329	H	0.710714	0.515323	0.695051
	O330	O	0.558853	0.493577	0.649498
	H331	H	0.543140	0.505983	0.643490
	H332	H	0.541420	0.492976	0.663789
	O333	O	1.177865	0.814825	0.831277
	H334	H	1.185675	0.829717	0.838223
	H335	H	1.141329	0.806026	0.830752
	O336	O	0.316243	0.453307	0.642809
	H337	H	0.305636	0.449495	0.623352
	H338	H	0.294099	0.452607	0.649569
	O339	O	0.971113	0.037648	1.096464
	H340	H	0.959689	0.018602	1.114450
	H341	H	0.972793	0.052135	1.092495
	O342	O	-0.040088	0.956146	1.023721
	H343	H	-0.039466	0.957484	1.041870
	H344	H	-0.057194	0.963941	1.013141
	O345	O	-0.006859	0.821467	1.142437
	H346	H	-0.000449	0.809595	1.151389
	H347	H	-0.000815	0.828323	1.122483
	O348	O	0.388878	0.484958	0.493830
	H349	H	0.379904	0.482892	0.499267
	H350	H	0.393386	0.481845	0.492405
	O351	O	-0.040667	0.154941	0.107317
	H352	H	-0.040381	0.160636	0.110999
	H353	H	-0.039484	0.152271	0.115193
	O354	O	0.913514	1.103137	0.082068
	H355	H	0.907404	1.100573	0.085885
	H356	H	0.928414	1.109820	0.087303
	O357	O	-0.103197	0.882156	-0.036013
	H358	H	-0.123268	0.897226	-0.035399
	H359	H	-0.086612	0.889152	-0.043948
	O360	O	0.339592	0.473821	0.455285
	H361	H	0.339839	0.483766	0.448405
	H362	H	0.336999	0.457031	0.452960
	O363	O	0.468882	0.638371	0.433361
	H364	H	0.455522	0.641179	0.443820
	H365	H	0.475246	0.653355	0.439476
	O366	O	0.394835	0.560432	0.359003
	H367	H	0.400314	0.559956	0.354276
	H368	H	0.400521	0.541228	0.379583
	O369	O	0.599812	0.593124	0.630955
	H370	H	0.585593	0.586939	0.625168
	H371	H	0.606017	0.603660	0.642666
	O372	O	0.440355	0.329897	0.701712
	H373	H	0.431143	0.328340	0.709946
	H374	H	0.445369	0.326779	0.707090
	O375	O	0.550093	0.696214	0.523762
	H376	H	0.548509	0.690141	0.529889
	H377	H	0.557713	0.704429	0.538713
	O378	O	0.471081	0.562844	0.577170
	H379	H	0.463536	0.553388	0.566110
	H380	H	0.456175	0.566784	0.580033
	O381	O	0.417674	0.534523	0.595156
	H382	H	0.414031	0.528586	0.607134
	H383	H	0.410178	0.518442	0.576189
	O384	O	0.010982	0.819471	0.836868
	H385	H	-0.000824	0.814300	0.819943
	H386	H	-0.001229	0.837287	0.848449
	O387	O	0.953650	0.904421	0.050061
	H388	H	0.947621	0.894307	0.055398
	H389	H	0.968722	0.898850	0.046784
	O390	O	0.383280	0.471572	0.404626
	H391	H	0.387382	0.477575	0.422578
	H392	H	0.393228	0.451874	0.401703
	O393	O	1.115924	0.048605	0.798774
	H394	H	1.117037	0.036004	0.778680
	H395	H	1.101822	0.034850	0.807395
	O396	O	0.202579	0.829157	1.004949
	H397	H	0.197832	0.817878	0.991041
	H398	H	0.206201	0.811135	1.008957
	O399	O	0.563580	0.324936	0.469400
	H400	H	0.590962	0.322228	0.461643
	H401	H	0.568087	0.339639	0.466259
	O402	O	0.838524	-0.158033	1.012015
	H403	H	0.837343	-0.154524	1.023464
	H404	H	0.832572	-0.161740	1.013236
	O405	O	0.067952	0.043747	0.078377
	H406	H	0.074965	0.053182	0.089886
	H407	H	0.083639	0.036391	0.069982
	O408	O	0.917715	0.951811	0.884297
	H409	H	0.929579	0.962030	0.881718
	H410	H	0.904309	0.952807	0.897437
	O411	O	1.146385	1.051775	-0.083951
	H412	H	1.154708	1.030894	-0.086803
	H413	H	1.145744	1.050886	-0.084270
	O414	O	-0.202237	0.059853	0.798609
	H415	H	-0.215614	0.065401	0.795254
	H416	H	-0.205749	0.074838	0.799141
	O417	O	0.482017	0.471635	0.449492
	H418	H	0.494675	0.476947	0.453722
	H419	H	0.485176	0.484129	0.445923
	O420	O	0.078443	1.012591	0.159492
	H421	H	0.084254	1.012555	0.147772
	H422	H	0.091471	1.007270	0.163511
	O423	O	1.293978	-0.353663	-0.537117
	H424	H	1.281104	-0.335762	-0.547548
	H425	H	1.295183	-0.359168	-0.570019
	O426	O	-0.161616	0.191617	0.851775
	H427	H	-0.170913	0.207873	0.860386
	H428	H	-0.151672	0.195389	0.864956
	O429	O	0.579351	0.460371	0.372999
	H430	H	0.583034	0.458412	0.370723
	H431	H	0.570819	0.466467	0.384753
