data_Molecule from HDF5

_cell_length_a		16.265556
_cell_length_b		16.339868
_cell_length_c		16.200396
_cell_angle_alpha	90.101417
_cell_angle_beta	89.886398
_cell_angle_gamma	90.039062
_symmetry_space_group_name_H-M	'P 1'
_symmetry_Int_Tables_number		1

loop_
	_symmetry_equiv_pos_as_xyz
	x,y,z

loop_
	_atom_site_label
	_atom_site_type_symbol
	_atom_site_fract_x
	_atom_site_fract_y
	_atom_site_fract_z
	H0	H	0.395838	0.837463	0.714529
	H1	H	0.592326	0.164745	0.712948
	H2	H	0.592207	0.838327	0.284012
	H3	H	0.398137	0.165037	0.286885
	H4	H	0.707998	0.403851	0.835580
	H5	H	0.707898	0.600686	0.164064
	H6	H	0.280615	0.598940	0.835662
	H7	H	0.279029	0.403108	0.163852
	H8	H	0.831253	0.715309	0.401564
	H9	H	0.158071	0.716064	0.599303
	H10	H	0.830810	0.284772	0.599550
	H11	H	0.157675	0.285792	0.400324
	H12	H	0.829683	0.403697	0.712556
	H13	H	0.158600	0.598430	0.713728
	H14	H	0.829823	0.596784	0.288421
	H15	H	0.157795	0.402908	0.286200
	H16	H	0.396293	0.715346	0.835564
	H17	H	0.592553	0.716225	0.164168
	H18	H	0.595984	0.285084	0.837538
	H19	H	0.394019	0.287629	0.164514
	H20	H	0.708416	0.837389	0.400856
	H21	H	0.711361	0.163535	0.599759
	H22	H	0.278914	0.837590	0.598220
	H23	H	0.280803	0.164611	0.401081
	H24	H	0.896531	0.336996	0.212905
	H25	H	0.091833	0.663869	0.214303
	H26	H	0.091866	0.336763	0.785718
	H27	H	0.897198	0.664596	0.786739
	H28	H	0.207622	0.903438	0.334179
	H29	H	0.208520	0.099849	0.663059
	H30	H	0.781710	0.098456	0.334456
	H31	H	0.779827	0.902116	0.663680
	H32	H	0.331385	0.218342	0.899339
	H33	H	0.657595	0.217373	0.099878
	H34	H	0.331224	0.785390	0.101393
	H35	H	0.657458	0.785896	0.899177
	H36	H	0.329306	0.905921	0.212242
	H37	H	0.658334	0.100518	0.213964
	H38	H	0.330519	0.100328	0.785741
	H39	H	0.658219	0.903056	0.785248
	H40	H	0.895485	0.215120	0.335163
	H41	H	0.092437	0.214239	0.664069
	H42	H	0.095316	0.785285	0.335803
	H43	H	0.895638	0.787590	0.663853
	H44	H	0.209775	0.337523	0.900930
	H45	H	0.208185	0.664131	0.098831
	H46	H	0.777452	0.339017	0.100094
	H47	H	0.780540	0.664315	0.902303
	H48	H	0.397541	0.118046	0.593842
	H49	H	0.583443	0.885807	0.594932
	H50	H	0.583278	0.112807	0.415495
	H51	H	0.402794	0.884196	0.402045
	H52	H	0.584816	0.416608	0.115347
	H53	H	0.592679	0.592272	0.881508
	H54	H	0.407951	0.606859	0.118535
	H55	H	0.405960	0.403284	0.882030
	H56	H	0.109770	0.588115	0.407441
	H57	H	0.880388	0.597283	0.582735
	H58	H	0.113158	0.398181	0.591598
	H59	H	0.876156	0.406902	0.402485
	H60	H	0.107702	0.410993	0.585737
	H61	H	0.879146	0.586010	0.596676
	H62	H	0.114235	0.596277	0.401395
	H63	H	0.876304	0.401434	0.410675
	H64	H	0.388305	0.594600	0.121259
	H65	H	0.582993	0.590135	0.885168
	H66	H	0.580883	0.404016	0.117462
	H67	H	0.396404	0.409431	0.881222
	H68	H	0.599625	0.120270	0.408474
	H69	H	0.587444	0.886642	0.587370
	H70	H	0.403867	0.116525	0.595399
	H71	H	0.403525	0.887144	0.409478
	H72	H	0.895901	0.618709	0.093982
	H73	H	0.081751	0.387383	0.088679
	H74	H	0.089415	0.614938	0.913824
	H75	H	0.900269	0.384310	0.903401
	H76	H	0.085042	0.908489	0.615937
	H77	H	0.089975	0.084148	0.384697
	H78	H	0.898315	0.100722	0.620118
	H79	H	0.899696	0.906555	0.381466
	H80	H	0.613787	0.105525	0.907495
	H81	H	0.379194	0.095799	0.086816
	H82	H	0.606653	0.917355	0.087646
	H83	H	0.375929	0.905143	0.905730
	H84	H	0.613285	0.908227	0.100530
	H85	H	0.377766	0.089819	0.097434
	H86	H	0.606658	0.090815	0.917230
	H87	H	0.379040	0.908098	0.911826
	H88	H	0.898175	0.083726	0.614665
	H89	H	0.077998	0.097442	0.383045
	H90	H	0.087792	0.907702	0.617041
	H91	H	0.902791	0.909713	0.382737
	H92	H	0.092747	0.619507	0.902594
	H93	H	0.094259	0.383376	0.089527
	H94	H	0.902263	0.618510	0.098816
	H95	H	0.903060	0.385111	0.906817
	H96	H	0.401156	0.115004	0.587887
	H97	H	0.591278	0.883640	0.594327
	H98	H	0.584507	0.119049	0.397342
	H99	H	0.396850	0.883823	0.407068
	H100	H	0.593915	0.408105	0.119592
	H101	H	0.585203	0.600108	0.882320
	H102	H	0.407266	0.583977	0.112394
	H103	H	0.405644	0.414073	0.886275
	H104	H	0.111530	0.598063	0.412022
	H105	H	0.874504	0.601658	0.597957
	H106	H	0.111840	0.410833	0.599906
	H107	H	0.878752	0.411199	0.410366
	H108	H	0.903303	0.615519	0.091135
	H109	H	0.085753	0.381966	0.100175
	H110	H	0.081107	0.614310	0.904520
	H111	H	0.898295	0.384284	0.907863
	H112	H	0.087235	0.910354	0.615635
	H113	H	0.095117	0.100758	0.377942
	H114	H	0.913279	0.093320	0.612484
	H115	H	0.904299	0.905134	0.381854
	H116	H	0.611694	0.088623	0.898800
	H117	H	0.375305	0.101570	0.096276
	H118	H	0.610895	0.901202	0.085100
	H119	H	0.378640	0.912189	0.905773
	C120	C	0.372314	0.008910	0.621538
	C121	C	0.616395	0.992735	0.621326
	C122	C	0.616670	0.009482	0.377959
	C123	C	0.373135	0.992781	0.378027
	C124	C	0.615776	0.380460	0.008925
	C125	C	0.615690	0.623302	0.991383
	C126	C	0.372873	0.623274	0.008734
	C127	C	0.373656	0.380609	0.991832
	C128	C	0.002975	0.622199	0.378994
	C129	C	0.986039	0.623062	0.621634
	C130	C	0.002716	0.378660	0.621382
	C131	C	0.985569	0.379024	0.378991
	C132	C	0.871710	0.509618	0.122717
	C133	C	0.115762	0.492205	0.121449
	C134	C	0.116322	0.508630	0.878154
	C135	C	0.872516	0.492454	0.878111
	C136	C	0.115963	0.879851	0.507712
	C137	C	0.116245	0.122625	0.490456
	C138	C	0.873889	0.121612	0.507430
	C139	C	0.873327	0.878951	0.490881
	C140	C	0.502557	0.123746	0.878826
	C141	C	0.485965	0.123908	0.121765
	C142	C	0.502407	0.880217	0.121047
	C143	C	0.486014	0.879931	0.878590
	C144	C	0.374909	0.886225	0.676899
	C145	C	0.613907	0.115598	0.676333
	C146	C	0.613180	0.886670	0.322056
	C147	C	0.376882	0.116311	0.324089
	C148	C	0.670895	0.383026	0.885096
	C149	C	0.670763	0.621433	0.114911
	C150	C	0.318237	0.619823	0.884728
	C151	C	0.317211	0.382553	0.115149
	C152	C	0.880064	0.677352	0.381461
	C153	C	0.109315	0.678086	0.619812
	C154	C	0.879448	0.323050	0.619783
	C155	C	0.108795	0.324084	0.380292
	C156	C	0.878987	0.382072	0.676000
	C157	C	0.109585	0.619502	0.676320
	C158	C	0.879165	0.618403	0.325220
	C159	C	0.108702	0.382064	0.323422
	C160	C	0.375243	0.677989	0.884735
	C161	C	0.613254	0.678546	0.115033
	C162	C	0.614852	0.324307	0.885904
	C163	C	0.374626	0.325535	0.115426
	C164	C	0.670752	0.886103	0.380173
	C165	C	0.672607	0.115117	0.619501
	C166	C	0.316637	0.886313	0.619442
	C167	C	0.318397	0.115810	0.380604
	C168	C	0.875043	0.386295	0.176256
	C169	C	0.112356	0.615154	0.176544
	C170	C	0.113180	0.385740	0.823195
	C171	C	0.875906	0.615660	0.823902
	C172	C	0.170690	0.882218	0.383814
	C173	C	0.170918	0.120078	0.614111
	C174	C	0.818987	0.119059	0.383642
	C175	C	0.817919	0.881609	0.614451
	C176	C	0.379778	0.179357	0.880462
	C177	C	0.608795	0.179419	0.119697
	C178	C	0.379667	0.824253	0.120392
	C179	C	0.608809	0.824242	0.879775
	C180	C	0.378775	0.884092	0.175528
	C181	C	0.609243	0.121189	0.176303
	C182	C	0.379465	0.120681	0.823711
	C183	C	0.609230	0.882317	0.823006
	C184	C	0.875496	0.177146	0.384115
	C185	C	0.113631	0.177373	0.614551
	C186	C	0.114695	0.823647	0.384740
	C187	C	0.875430	0.824569	0.614545
	C188	C	0.171865	0.386266	0.880360
	C189	C	0.170401	0.615202	0.119087
	C190	C	0.816348	0.387179	0.119527
	C191	C	0.818478	0.615586	0.881736
	C192	C	0.394388	0.094386	0.598946
	C193	C	0.593884	0.907268	0.598933
	C194	C	0.595317	0.095118	0.400400
	C195	C	0.394789	0.907210	0.399759
	C196	C	0.593174	0.402905	0.095209
	C197	C	0.593514	0.600685	0.905168
	C198	C	0.394844	0.601695	0.095110
	C199	C	0.396248	0.402368	0.905678
	C200	C	0.089578	0.600558	0.400648
	C201	C	0.900100	0.601241	0.599185
	C202	C	0.088581	0.400200	0.598994
	C203	C	0.899223	0.400322	0.401346
	C204	C	0.893940	0.595373	0.101104
	C205	C	0.093775	0.406264	0.099281
	C206	C	0.094365	0.594052	0.900211
	C207	C	0.894143	0.406889	0.899670
	C208	C	0.093476	0.902336	0.594091
	C209	C	0.094023	0.100881	0.404217
	C210	C	0.896416	0.099196	0.593516
	C211	C	0.895729	0.900758	0.404180
	C212	C	0.588346	0.101496	0.901291
	C213	C	0.399633	0.102070	0.100022
	C214	C	0.588247	0.902580	0.097945
	C215	C	0.400039	0.902037	0.901089
	Zn216	Zn	0.494646	0.001245	0.750287
	Zn217	Zn	0.494441	0.001928	0.249379
	Zn218	Zn	0.743841	0.501410	0.000526
	Zn219	Zn	0.245358	0.501041	0.000314
	Zn220	Zn	-0.005051	0.751444	0.499774
	Zn221	Zn	-0.005648	0.249984	0.499782
	Zn222	Zn	-0.005913	0.500684	0.749459
	Zn223	Zn	-0.006229	0.500370	0.250599
	Zn224	Zn	0.494070	0.751650	-0.000019
	Zn225	Zn	0.494002	0.252310	0.000777
	Zn226	Zn	0.745531	0.000756	0.499166
	Zn227	Zn	0.243815	0.000834	0.498661
	N228	N	0.408609	0.963471	0.678562
	N229	N	0.579516	0.038704	0.677363
	N230	N	0.580309	0.964243	0.320656
	N231	N	0.410280	0.038997	0.322299
	N232	N	0.671617	0.417114	0.962808
	N233	N	0.672482	0.587775	0.037062
	N234	N	0.316440	0.586820	0.962851
	N235	N	0.316752	0.416228	0.037490
	N236	N	0.958199	0.679873	0.413900
	N237	N	0.031642	0.680293	0.586436
	N238	N	0.957163	0.321129	0.586317
	N239	N	0.031289	0.322115	0.414308
	N240	N	0.956519	0.415946	0.677207
	N241	N	0.031937	0.586137	0.677632
	N242	N	0.956638	0.584893	0.323593
	N243	N	0.031128	0.415648	0.322742
	N244	N	0.408484	0.680135	0.962722
	N245	N	0.579806	0.679982	0.037090
	N246	N	0.581224	0.322736	0.963809
	N247	N	0.408794	0.323985	0.037540
	N248	N	0.673219	0.963319	0.413920
	N249	N	0.674271	0.037763	0.586035
	N250	N	0.314883	0.963569	0.585774
	N251	N	0.315861	0.038104	0.413303
	N252	N	0.908737	0.463472	0.178169
	N253	N	0.079061	0.537641	0.178129
	N254	N	0.079421	0.462793	0.821595
	N255	N	0.908964	0.538250	0.821709
	N256	N	0.171528	0.916378	0.461350
	N257	N	0.172645	0.086873	0.536078
	N258	N	0.817974	0.085204	0.461414
	N259	N	0.816525	0.914858	0.536433
	N260	N	0.457370	0.181211	0.914104
	N261	N	0.531167	0.180978	0.086351
	N262	N	0.457523	0.822055	0.086993
	N263	N	0.531098	0.822706	0.913708
	N264	N	0.456302	0.917980	0.176153
	N265	N	0.531765	0.087368	0.177735
	N266	N	0.456928	0.086990	0.822318
	N267	N	0.531969	0.916461	0.822372
	N268	N	0.909044	0.178784	0.461905
	N269	N	0.080077	0.178899	0.536579
	N270	N	0.081465	0.821963	0.462989
	N271	N	0.909424	0.823143	0.536723
	N272	N	0.173835	0.463666	0.913823
	N273	N	0.172592	0.537712	0.085725
	N274	N	0.814039	0.464925	0.087154
	N275	N	0.815928	0.537913	0.914678
	O276	O	0.941717	0.927180	0.018740
	H277	H	0.939997	0.931855	0.026986
	H278	H	0.947730	0.927151	0.011354
	O279	O	0.015474	-0.013136	-0.039955
	H280	H	0.005865	-0.018436	-0.048374
	H281	H	0.014444	-0.016949	-0.043395
	O282	O	-0.058381	-0.011174	0.962767
	H283	H	-0.060003	-0.016867	0.962668
	H284	H	-0.052916	-0.014308	0.965978
	O285	O	0.999530	0.938796	1.006345
	H286	H	0.999683	0.936250	1.006815
	H287	H	0.997404	0.942763	1.011532
	O288	O	0.499021	0.461045	0.510781
	H289	H	0.503607	0.453072	0.513273
	H290	H	0.495393	0.452481	0.510942
	O291	O	0.497662	0.464260	0.543492
	H292	H	0.490053	0.463200	0.552065
	H293	H	0.509623	0.465650	0.533134
	O294	O	0.027330	-0.024929	-0.023842
	H295	H	0.033335	-0.033976	-0.025231
	H296	H	0.020849	-0.015834	-0.025048
	O297	O	0.517116	0.454843	0.521153
	H298	H	0.509403	0.460103	0.522965
	H299	H	0.516459	0.450804	0.520039
	O300	O	0.034077	0.947473	0.954249
	H301	H	0.024451	0.937627	0.957670
	H302	H	0.046948	0.951948	0.943071
	O303	O	0.476280	0.406900	0.542022
	H304	H	0.485452	0.410218	0.550279
	H305	H	0.471889	0.402493	0.539325
	O306	O	0.003352	0.028708	1.029447
	H307	H	0.006943	0.035792	1.026775
	H308	H	-0.003138	0.036334	1.028245
	O309	O	0.970506	0.996248	1.003693
	H310	H	0.973406	1.002303	1.005962
	H311	H	0.976162	0.978165	1.002088
	O312	O	0.989380	-0.048327	-0.048333
	H313	H	0.981917	-0.046484	-0.049269
	H314	H	0.990410	-0.043735	-0.039975
	O315	O	0.514095	0.479954	0.555819
	H316	H	0.516347	0.486139	0.560098
	H317	H	0.508562	0.484594	0.556806
	O318	O	0.019489	0.974618	0.008237
	H319	H	0.014880	0.969658	-0.000045
	H320	H	0.019962	0.964298	0.005779
	O321	O	1.061390	0.988105	-0.077314
	H322	H	1.068012	0.990233	-0.088101
	H323	H	1.073863	0.989893	-0.072212
