data_Molecule from HDF5

_cell_length_a		16.329012
_cell_length_b		16.235811
_cell_length_c		16.104741
_cell_angle_alpha	90.224659
_cell_angle_beta	90.610095
_cell_angle_gamma	89.702893
_symmetry_space_group_name_H-M	'P 1'
_symmetry_Int_Tables_number		1

loop_
	_symmetry_equiv_pos_as_xyz
	x,y,z

loop_
	_atom_site_label
	_atom_site_type_symbol
	_atom_site_fract_x
	_atom_site_fract_y
	_atom_site_fract_z
	H0	H	0.393181	0.834603	0.708876
	H1	H	0.584800	0.163912	0.712581
	H2	H	0.584577	0.834709	0.285582
	H3	H	0.388518	0.164491	0.285969
	H4	H	0.700249	0.397298	0.832958
	H5	H	0.703599	0.599374	0.162279
	H6	H	0.268726	0.599795	0.833528
	H7	H	0.275208	0.400631	0.163843
	H8	H	0.825022	0.717136	0.393756
	H9	H	0.150241	0.714273	0.599799
	H10	H	0.823797	0.284916	0.596154
	H11	H	0.150330	0.281797	0.398762
	H12	H	0.822674	0.402511	0.709102
	H13	H	0.149743	0.598278	0.715517
	H14	H	0.823531	0.597703	0.281837
	H15	H	0.151398	0.400378	0.284868
	H16	H	0.385595	0.712822	0.831968
	H17	H	0.587346	0.713349	0.163204
	H18	H	0.585230	0.283543	0.832825
	H19	H	0.392170	0.286299	0.163825
	H20	H	0.704598	0.836662	0.397450
	H21	H	0.704140	0.162497	0.602356
	H22	H	0.274431	0.835799	0.596360
	H23	H	0.268514	0.162510	0.396618
	H24	H	0.892285	0.334695	0.208654
	H25	H	0.084548	0.664316	0.212893
	H26	H	0.082128	0.334749	0.785322
	H27	H	0.887538	0.664692	0.784856
	H28	H	0.200641	0.898638	0.332892
	H29	H	0.204049	0.099533	0.662563
	H30	H	0.768860	0.100842	0.334135
	H31	H	0.776123	0.900416	0.663201
	H32	H	0.325678	0.214874	0.895571
	H33	H	0.651805	0.212387	0.099489
	H34	H	0.325044	0.783957	0.097222
	H35	H	0.651251	0.782066	0.900183
	H36	H	0.323172	0.903154	0.208700
	H37	H	0.650593	0.097379	0.215804
	H38	H	0.324369	0.096511	0.782880
	H39	H	0.652547	0.899985	0.785981
	H40	H	0.887361	0.212234	0.332258
	H41	H	0.087983	0.214200	0.663411
	H42	H	0.085728	0.784588	0.332794
	H43	H	0.891999	0.786278	0.662485
	H44	H	0.202216	0.335947	0.897381
	H45	H	0.203814	0.662791	0.101003
	H46	H	0.774328	0.335495	0.096050
	H47	H	0.767715	0.662063	0.896078
	H48	H	0.397824	0.117148	0.595498
	H49	H	0.577076	0.885671	0.584291
	H50	H	0.574517	0.115148	0.409202
	H51	H	0.394851	0.881001	0.398518
	H52	H	0.585456	0.405336	0.117220
	H53	H	0.572927	0.587307	0.881465
	H54	H	0.385438	0.585077	0.116298
	H55	H	0.395883	0.402363	0.879642
	H56	H	0.103355	0.599730	0.416006
	H57	H	0.867330	0.604284	0.589823
	H58	H	0.104967	0.399909	0.590245
	H59	H	0.867945	0.404532	0.393673
	H60	H	0.100231	0.411137	0.586258
	H61	H	0.873722	0.591895	0.580160
	H62	H	0.100252	0.580419	0.406915
	H63	H	0.871204	0.399861	0.409212
	H64	H	0.406127	0.587368	0.111112
	H65	H	0.576455	0.594802	0.879030
	H66	H	0.581069	0.410400	0.114720
	H67	H	0.387289	0.407232	0.878505
	H68	H	0.581925	0.116111	0.410851
	H69	H	0.593532	0.879840	0.588127
	H70	H	0.396812	0.115035	0.584042
	H71	H	0.395173	0.884409	0.407573
	H72	H	0.881083	0.618739	0.083882
	H73	H	0.079632	0.384025	0.087843
	H74	H	0.075501	0.614582	0.910785
	H75	H	0.900903	0.380247	0.889777
	H76	H	0.088709	0.914416	0.615491
	H77	H	0.081560	0.098143	0.376708
	H78	H	0.898921	0.096074	0.616277
	H79	H	0.894663	0.905242	0.378717
	H80	H	0.606023	0.088890	0.900331
	H81	H	0.369406	0.100640	0.088114
	H82	H	0.605933	0.900212	0.093299
	H83	H	0.372981	0.906800	0.908372
	H84	H	0.601939	0.904720	0.086482
	H85	H	0.374320	0.088973	0.083907
	H86	H	0.607908	0.099683	0.905010
	H87	H	0.372581	0.909200	0.899231
	H88	H	0.892784	0.093823	0.618019
	H89	H	0.082748	0.083776	0.380315
	H90	H	0.074320	0.908036	0.612527
	H91	H	0.890943	0.910794	0.379174
	H92	H	0.082331	0.617689	0.909329
	H93	H	0.087037	0.381445	0.089329
	H94	H	0.894963	0.620109	0.101988
	H95	H	0.899699	0.387862	0.916377
	H96	H	0.387807	0.117854	0.589906
	H97	H	0.580433	0.879732	0.600452
	H98	H	0.579185	0.117764	0.403813
	H99	H	0.387094	0.880967	0.403731
	H100	H	0.578925	0.403826	0.116505
	H101	H	0.582168	0.587662	0.879283
	H102	H	0.395264	0.604353	0.119601
	H103	H	0.395400	0.411370	0.882514
	H104	H	0.107844	0.596972	0.395799
	H105	H	0.869745	0.589352	0.596517
	H106	H	0.103510	0.409130	0.597843
	H107	H	0.874958	0.415481	0.404594
	H108	H	0.902212	0.611469	0.082424
	H109	H	0.081689	0.382016	0.094916
	H110	H	0.077193	0.618117	0.903439
	H111	H	0.877206	0.377317	0.902963
	H112	H	0.086327	0.899646	0.619642
	H113	H	0.070394	0.090765	0.382458
	H114	H	0.896971	0.089169	0.615139
	H115	H	0.896751	0.910450	0.381969
	H116	H	0.603426	0.090231	0.911481
	H117	H	0.370288	0.091497	0.096236
	H118	H	0.604219	0.909453	0.095745
	H119	H	0.370187	0.901054	0.901711
	C120	C	0.367031	0.008119	0.618206
	C121	C	0.610963	0.990310	0.620632
	C122	C	0.607935	0.007994	0.378488
	C123	C	0.363646	0.990536	0.375062
	C124	C	0.609192	0.377717	0.006693
	C125	C	0.608072	0.619609	0.988705
	C126	C	0.365242	0.621092	0.006419
	C127	C	0.366056	0.378102	0.989630
	C128	C	-0.004067	0.621823	0.375527
	C129	C	0.978232	0.622837	0.619427
	C130	C	-0.005051	0.378442	0.618952
	C131	C	0.979283	0.377113	0.374713
	C132	C	0.865930	0.508032	0.117699
	C133	C	0.110610	0.490737	0.120815
	C134	C	0.106968	0.508285	0.877690
	C135	C	0.863392	0.490269	0.874342
	C136	C	0.110291	0.878067	0.506619
	C137	C	0.108518	0.120473	0.489156
	C138	C	0.865515	0.121698	0.507131
	C139	C	0.867078	0.879372	0.489097
	C140	C	0.496982	0.121035	0.875932
	C141	C	0.479553	0.121531	0.119813
	C142	C	0.496043	0.877382	0.119385
	C143	C	0.479967	0.876684	0.875637
	C144	C	0.371461	0.883910	0.672149
	C145	C	0.606388	0.114357	0.675732
	C146	C	0.605332	0.884038	0.323293
	C147	C	0.367170	0.114844	0.321806
	C148	C	0.663123	0.378318	0.882244
	C149	C	0.665015	0.618863	0.113044
	C150	C	0.307585	0.619455	0.882689
	C151	C	0.312567	0.380498	0.114132
	C152	C	0.873504	0.678107	0.375287
	C153	C	0.101343	0.676736	0.619234
	C154	C	0.872438	0.322884	0.616265
	C155	C	0.101687	0.320462	0.378179
	C156	C	0.871761	0.381805	0.672412
	C157	C	0.101105	0.619018	0.676767
	C158	C	0.872786	0.618893	0.319429
	C159	C	0.102248	0.379508	0.321453
	C160	C	0.365834	0.675832	0.882051
	C161	C	0.607239	0.675466	0.113583
	C162	C	0.605930	0.321713	0.882191
	C163	C	0.370388	0.323184	0.114097
	C164	C	0.665202	0.885199	0.378715
	C165	C	0.665623	0.113750	0.620900
	C166	C	0.312186	0.884649	0.616353
	C167	C	0.307892	0.114053	0.377409
	C168	C	0.871055	0.384092	0.171655
	C169	C	0.106204	0.614950	0.175360
	C170	C	0.103572	0.384308	0.822379
	C171	C	0.866059	0.614800	0.820849
	C172	C	0.163624	0.879086	0.382193
	C173	C	0.165680	0.119583	0.613325
	C174	C	0.807780	0.120384	0.383355
	C175	C	0.813441	0.880715	0.613529
	C176	C	0.374504	0.176462	0.876340
	C177	C	0.602410	0.175837	0.119467
	C178	C	0.373401	0.822544	0.116867
	C179	C	0.602569	0.820071	0.879235
	C180	C	0.372669	0.881740	0.172603
	C181	C	0.602092	0.118240	0.177118
	C182	C	0.373942	0.117993	0.819863
	C183	C	0.603607	0.879668	0.823223
	C184	C	0.866778	0.175786	0.382267
	C185	C	0.107972	0.176595	0.613586
	C186	C	0.106535	0.822246	0.382276
	C187	C	0.870984	0.823858	0.613193
	C188	C	0.162984	0.384575	0.878250
	C189	C	0.165473	0.614216	0.120004
	C190	C	0.812393	0.384330	0.115695
	C191	C	0.806743	0.613500	0.876301
	C192	C	0.387912	0.094298	0.596303
	C193	C	0.589916	0.904166	0.597740
	C194	C	0.585275	0.093952	0.401370
	C195	C	0.385666	0.904482	0.396809
	C196	C	0.588140	0.400181	0.093492
	C197	C	0.584224	0.596584	0.902253
	C198	C	0.388776	0.598775	0.093342
	C199	C	0.386638	0.400275	0.902609
	C200	C	0.081604	0.599134	0.399410
	C201	C	0.892629	0.601516	0.595735
	C202	C	0.080617	0.400295	0.597832
	C203	C	0.893469	0.399820	0.396144
	C204	C	0.886615	0.594382	0.095755
	C205	C	0.089376	0.404753	0.097554
	C206	C	0.084849	0.594184	0.900990
	C207	C	0.885959	0.404220	0.896380
	C208	C	0.089310	0.900684	0.593479
	C209	C	0.085039	0.097332	0.402402
	C210	C	0.889276	0.099656	0.593921
	C211	C	0.888116	0.902131	0.402149
	C212	C	0.583586	0.099227	0.899036
	C213	C	0.393455	0.100082	0.096211
	C214	C	0.581842	0.898528	0.098136
	C215	C	0.394022	0.899214	0.896588
	Zn216	Zn	0.488745	-0.000991	0.747207
	Zn217	Zn	0.486897	-0.000428	0.248513
	Zn218	Zn	0.736152	0.498708	-0.002748
	Zn219	Zn	0.237112	0.499468	-0.001627
	Zn220	Zn	-0.011988	0.751091	0.497034
	Zn221	Zn	-0.013004	0.248459	0.497845
	Zn222	Zn	-0.013923	0.500052	0.747626
	Zn223	Zn	-0.012344	0.499992	0.246670
	Zn224	Zn	0.487178	0.748028	-0.002232
	Zn225	Zn	0.488342	0.249817	-0.002102
	Zn226	Zn	0.738269	-0.000143	0.499442
	Zn227	Zn	0.236782	-0.000620	0.497565
	N228	N	0.404794	0.961526	0.673595
	N229	N	0.573077	0.036518	0.675848
	N230	N	0.570432	0.961414	0.322930
	N231	N	0.401266	0.037213	0.320172
	N232	N	0.665042	0.412651	0.960614
	N233	N	0.665682	0.584993	0.034523
	N234	N	0.306966	0.586159	0.961147
	N235	N	0.309612	0.413759	0.035702
	N236	N	0.951201	0.680244	0.409236
	N237	N	0.024011	0.679304	0.584380
	N238	N	0.950010	0.320847	0.583622
	N239	N	0.023989	0.319034	0.410705
	N240	N	0.949061	0.415434	0.674547
	N241	N	0.023474	0.586333	0.677248
	N242	N	0.950140	0.584793	0.319417
	N243	N	0.025119	0.413938	0.319135
	N244	N	0.400941	0.676898	0.960228
	N245	N	0.572287	0.676240	0.035372
	N246	N	0.572953	0.321115	0.960389
	N247	N	0.403068	0.321716	0.035549
	N248	N	0.667037	0.963417	0.412270
	N249	N	0.668752	0.035803	0.587290
	N250	N	0.309351	0.962824	0.583439
	N251	N	0.305476	0.035882	0.409760
	N252	N	0.903824	0.462156	0.173204
	N253	N	0.072949	0.537317	0.176009
	N254	N	0.069651	0.462081	0.821853
	N255	N	0.900504	0.537363	0.819240
	N256	N	0.166244	0.913032	0.460707
	N257	N	0.166177	0.085522	0.534900
	N258	N	0.806926	0.087548	0.462177
	N259	N	0.810953	0.914605	0.535345
	N260	N	0.452202	0.178375	0.910458
	N261	N	0.524962	0.177796	0.084485
	N262	N	0.451017	0.819535	0.084696
	N263	N	0.524570	0.818114	0.911044
	N264	N	0.450005	0.915372	0.174347
	N265	N	0.524636	0.085426	0.177666
	N266	N	0.451420	0.084112	0.819740
	N267	N	0.526422	0.913950	0.820703
	N268	N	0.902064	0.176760	0.460215
	N269	N	0.073231	0.177405	0.535375
	N270	N	0.073947	0.821384	0.460600
	N271	N	0.903525	0.822929	0.534704
	N272	N	0.165585	0.462650	0.911787
	N273	N	0.168323	0.535870	0.086729
	N274	N	0.809014	0.462372	0.083063
	N275	N	0.804960	0.535177	0.908939
	O276	O	0.049038	0.038789	0.076018
	H277	H	0.044620	0.024613	0.072985
	H278	H	0.056829	0.041626	0.083886
	O279	O	0.933825	-0.024835	0.053122
	H280	H	0.932667	-0.023624	0.050168
	H281	H	0.925399	-0.013781	0.053118
	O282	O	0.455456	0.478968	0.484676
	H283	H	0.455715	0.479948	0.476230
	H284	H	0.468005	0.467175	0.486913
	O285	O	0.562584	1.576345	0.598213
	H286	H	0.567925	1.569491	0.605255
	H287	H	0.561547	1.589071	0.603888
	O288	O	0.621126	0.439549	0.476412
	H289	H	0.607735	0.433313	0.479336
	H290	H	0.630045	0.429327	0.484375
	O291	O	1.008311	1.003591	1.110794
	H292	H	1.004698	1.007757	1.114141
	H293	H	1.013575	1.010650	1.112285
	O294	O	1.112397	0.982596	1.025416
	H295	H	1.109740	0.985960	1.029543
	H296	H	1.115343	0.967751	1.025031
	O297	O	1.410386	0.424264	1.503869
	H298	H	1.400000	0.419835	1.495534
	H299	H	1.417528	0.414187	1.503940
	O300	O	0.477537	0.447575	0.549653
	H301	H	0.461220	0.446516	0.551015
	H302	H	0.473773	0.443827	0.542587
	O303	O	0.999195	-0.064538	-0.001548
	H304	H	0.995638	-0.060888	0.002601
	H305	H	0.991119	-0.062282	0.003827
	O306	O	0.130901	0.894120	0.991784
	H307	H	0.137229	0.884049	0.982329
	H308	H	0.125763	0.895348	0.989736
	O309	O	0.500644	0.446079	0.512295
	H310	H	0.498540	0.447781	0.512889
	H311	H	0.501205	0.444460	0.509457
	O312	O	1.067835	-0.023786	0.999489
	H313	H	1.071183	-0.039573	0.994358
	H314	H	1.053665	-0.033802	1.000519
	O315	O	0.415552	0.511151	0.506668
	H316	H	0.414767	0.522553	0.507095
	H317	H	0.424031	0.507988	0.498244
	O318	O	0.464751	0.543380	0.455354
	H319	H	0.472234	0.544632	0.451058
	H320	H	0.466299	0.534627	0.463362
	O321	O	0.997266	0.966839	0.967270
	H322	H	1.004969	0.974284	0.971050
	H323	H	1.011026	0.965897	0.962110
	O324	O	0.496166	0.560537	0.496743
	H325	H	0.506764	0.566011	0.499049
	H326	H	0.489469	0.565989	0.501381
	O327	O	0.441961	0.513907	0.452617
	H328	H	0.450573	0.518419	0.450488
	H329	H	0.446557	0.525433	0.449353
	O330	O	0.994341	0.054296	0.956209
	H331	H	1.004265	0.062303	0.957958
	H332	H	1.008131	0.050259	0.951258
	O333	O	0.963483	0.930727	-0.037396
	H334	H	0.959937	0.928571	-0.036473
	H335	H	0.960585	0.934538	-0.043239
	O336	O	0.519231	0.456739	0.567639
	H337	H	0.513026	0.460034	0.565002
	H338	H	0.508864	0.454549	0.571664
	O339	O	0.502333	0.547877	0.507657
	H340	H	0.516806	0.548931	0.502067
	H341	H	0.498755	0.556449	0.504624
	O342	O	0.006194	1.003990	0.050718
	H343	H	0.005196	1.012848	0.053042
	H344	H	-0.002238	0.997102	0.053697
	O345	O	-0.030561	0.035168	-0.021835
	H346	H	-0.025260	0.037390	-0.023958
	H347	H	-0.015693	0.046489	-0.022188
	O348	O	0.554957	0.446449	0.492358
	H349	H	0.549272	0.452118	0.481265
	H350	H	0.559504	0.445357	0.505722
	O351	O	0.346758	0.582647	0.428127
	H352	H	0.342476	0.596750	0.424587
	H353	H	0.350455	0.588946	0.424744
	O354	O	0.451697	0.547741	0.502738
	H355	H	0.447149	0.543278	0.497055
	H356	H	0.447643	0.547854	0.503731
	O357	O	0.561635	0.502966	0.543395
	H358	H	0.556925	0.495147	0.540503
	H359	H	0.560259	0.504414	0.556788
	O360	O	-0.051390	0.052157	-0.013444
	H361	H	-0.043084	0.041701	-0.008658
	H362	H	-0.040938	0.043487	-0.004642
	O363	O	0.466025	0.502014	0.496560
	H364	H	0.464069	0.497540	0.486392
	H365	H	0.455571	0.500355	0.495610
	O366	O	-0.091497	-0.018957	1.024719
	H367	H	-0.085031	-0.014604	1.011273
	H368	H	-0.108231	-0.020337	1.024741
	O369	O	0.545888	0.559212	0.450300
	H370	H	0.555355	0.548994	0.452017
	H371	H	0.551395	0.553384	0.463109
