data_Molecule from HDF5

_cell_length_a		16.292391
_cell_length_b		16.296050
_cell_length_c		16.209133
_cell_angle_alpha	90.330382
_cell_angle_beta	89.995557
_cell_angle_gamma	90.187720
_symmetry_space_group_name_H-M	'P 1'
_symmetry_Int_Tables_number		1

loop_
	_symmetry_equiv_pos_as_xyz
	x,y,z

loop_
	_atom_site_label
	_atom_site_type_symbol
	_atom_site_fract_x
	_atom_site_fract_y
	_atom_site_fract_z
	H0	H	0.391915	0.838074	0.703508
	H1	H	0.589085	0.166486	0.709107
	H2	H	0.587154	0.839979	0.276673
	H3	H	0.390373	0.166393	0.279610
	H4	H	0.701830	0.403835	0.830102
	H5	H	0.701101	0.604499	0.157921
	H6	H	0.272076	0.599187	0.829346
	H7	H	0.272174	0.404136	0.157690
	H8	H	0.825026	0.717129	0.396259
	H9	H	0.152238	0.719139	0.594442
	H10	H	0.826028	0.286430	0.594252
	H11	H	0.152004	0.288424	0.393552
	H12	H	0.823778	0.406213	0.705931
	H13	H	0.151798	0.602068	0.710478
	H14	H	0.824626	0.601977	0.280451
	H15	H	0.150888	0.404006	0.277387
	H16	H	0.388935	0.715020	0.827825
	H17	H	0.588165	0.720612	0.156102
	H18	H	0.586882	0.287637	0.829731
	H19	H	0.386661	0.287805	0.156456
	H20	H	0.705190	0.840577	0.390373
	H21	H	0.705051	0.165933	0.594240
	H22	H	0.272848	0.839910	0.590896
	H23	H	0.275015	0.166883	0.394924
	H24	H	0.887420	0.339919	0.209267
	H25	H	0.086031	0.666419	0.208961
	H26	H	0.083854	0.339147	0.780358
	H27	H	0.889499	0.667416	0.780944
	H28	H	0.202355	0.903039	0.329150
	H29	H	0.203031	0.101801	0.657424
	H30	H	0.775118	0.101039	0.329798
	H31	H	0.773376	0.903972	0.657770
	H32	H	0.324663	0.215289	0.894083
	H33	H	0.651337	0.219868	0.093063
	H34	H	0.324492	0.789326	0.089814
	H35	H	0.651997	0.786699	0.892323
	H36	H	0.324420	0.904467	0.206071
	H37	H	0.652009	0.102414	0.208809
	H38	H	0.324736	0.097457	0.780102
	H39	H	0.653041	0.904831	0.777657
	H40	H	0.889570	0.217190	0.330499
	H41	H	0.088457	0.218122	0.658691
	H42	H	0.088066	0.786190	0.330375
	H43	H	0.890580	0.790348	0.658030
	H44	H	0.200438	0.338694	0.893838
	H45	H	0.204806	0.665179	0.096162
	H46	H	0.770579	0.339640	0.093641
	H47	H	0.772520	0.667240	0.897492
	H48	H	0.398848	0.120206	0.591736
	H49	H	0.580887	0.883612	0.594330
	H50	H	0.578428	0.120049	0.395731
	H51	H	0.398100	0.888984	0.402464
	H52	H	0.582024	0.414709	0.110357
	H53	H	0.587759	0.587713	0.875924
	H54	H	0.392920	0.600814	0.111529
	H55	H	0.392189	0.413300	0.877214
	H56	H	0.104754	0.597112	0.401325
	H57	H	0.875981	0.589234	0.580132
	H58	H	0.104314	0.415648	0.590781
	H59	H	0.872643	0.414942	0.396112
	H60	H	0.107560	0.406175	0.590090
	H61	H	0.869339	0.594906	0.599184
	H62	H	0.103743	0.595887	0.405003
	H63	H	0.870022	0.400450	0.402528
	H64	H	0.393398	0.592176	0.108799
	H65	H	0.571299	0.590390	0.879560
	H66	H	0.574526	0.412903	0.108451
	H67	H	0.397847	0.407289	0.877570
	H68	H	0.577894	0.115641	0.407811
	H69	H	0.572727	0.891707	0.579494
	H70	H	0.398314	0.117331	0.582259
	H71	H	0.389395	0.885572	0.400634
	H72	H	0.885639	0.621877	0.089725
	H73	H	0.078936	0.383885	0.094553
	H74	H	0.083942	0.623581	0.890966
	H75	H	0.885198	0.382400	0.891964
	H76	H	0.083753	0.920980	0.608389
	H77	H	0.071880	0.089922	0.381354
	H78	H	0.886580	0.093898	0.612949
	H79	H	0.907887	0.912373	0.381016
	H80	H	0.603418	0.095455	0.906688
	H81	H	0.368150	0.109722	0.083782
	H82	H	0.602036	0.919852	0.083967
	H83	H	0.368796	0.903046	0.891554
	H84	H	0.607687	0.907769	0.092509
	H85	H	0.378309	0.087007	0.074332
	H86	H	0.605658	0.092448	0.895805
	H87	H	0.373335	0.904971	0.906890
	H88	H	0.902469	0.088080	0.607016
	H89	H	0.079513	0.108192	0.373930
	H90	H	0.072014	0.907998	0.608831
	H91	H	0.894075	0.897334	0.372268
	H92	H	0.067814	0.614423	0.906062
	H93	H	0.071504	0.390086	0.081546
	H94	H	0.898585	0.620180	0.094378
	H95	H	0.903443	0.389487	0.896699
	H96	H	0.390335	0.120699	0.586574
	H97	H	0.590540	0.886223	0.578058
	H98	H	0.588001	0.120506	0.403424
	H99	H	0.395989	0.885803	0.394561
	H100	H	0.578780	0.407306	0.112100
	H101	H	0.581368	0.603261	0.873494
	H102	H	0.400196	0.597057	0.108229
	H103	H	0.390285	0.405889	0.874324
	H104	H	0.103853	0.593513	0.401749
	H105	H	0.870333	0.608711	0.583385
	H106	H	0.104608	0.410204	0.581342
	H107	H	0.875701	0.413416	0.411219
	H108	H	0.895797	0.616987	0.080985
	H109	H	0.087182	0.385745	0.081536
	H110	H	0.090048	0.619069	0.913711
	H111	H	0.888742	0.389405	0.911304
	H112	H	0.088314	0.904578	0.614879
	H113	H	0.092865	0.091596	0.374584
	H114	H	0.900874	0.104829	0.612416
	H115	H	0.887095	0.917430	0.376769
	H116	H	0.607682	0.103229	0.898947
	H117	H	0.369960	0.088581	0.099150
	H118	H	0.604025	0.905559	0.076849
	H119	H	0.374817	0.917567	0.896521
	C120	C	0.367305	0.011140	0.614166
	C121	C	0.610830	0.994644	0.614450
	C122	C	0.610424	0.011390	0.371728
	C123	C	0.366472	0.994738	0.371502
	C124	C	0.607479	0.382506	0.002043
	C125	C	0.608600	0.624199	0.984591
	C126	C	0.365865	0.624434	0.001275
	C127	C	0.364816	0.380580	0.984594
	C128	C	-0.003499	0.624008	0.373868
	C129	C	0.980052	0.626008	0.616853
	C130	C	-0.003061	0.382102	0.615384
	C131	C	0.980286	0.381221	0.372821
	C132	C	0.864204	0.511608	0.116777
	C133	C	0.108677	0.494560	0.115882
	C134	C	0.108705	0.511015	0.873485
	C135	C	0.864402	0.495007	0.872025
	C136	C	0.110287	0.881642	0.502502
	C137	C	0.110406	0.125250	0.485219
	C138	C	0.867680	0.124072	0.502214
	C139	C	0.867140	0.881175	0.485212
	C140	C	0.497212	0.124052	0.871807
	C141	C	0.480118	0.124871	0.114961
	C142	C	0.496693	0.882037	0.113323
	C143	C	0.480477	0.879857	0.869447
	C144	C	0.370365	0.887684	0.667580
	C145	C	0.609147	0.117644	0.671095
	C146	C	0.607969	0.888822	0.315012
	C147	C	0.369978	0.117707	0.317144
	C148	C	0.663847	0.383652	0.879048
	C149	C	0.663621	0.623916	0.108537
	C150	C	0.310321	0.620205	0.877989
	C151	C	0.309885	0.383631	0.108446
	C152	C	0.873761	0.679640	0.375704
	C153	C	0.103455	0.681062	0.614735
	C154	C	0.874507	0.325416	0.613817
	C155	C	0.102935	0.326143	0.373757
	C156	C	0.873319	0.385168	0.669092
	C157	C	0.103265	0.622979	0.672439
	C158	C	0.873603	0.622016	0.318337
	C159	C	0.102297	0.383582	0.315824
	C160	C	0.368085	0.678235	0.877370
	C161	C	0.607280	0.681605	0.107754
	C162	C	0.606227	0.326295	0.878510
	C163	C	0.366555	0.325489	0.107704
	C164	C	0.666362	0.889069	0.372052
	C165	C	0.666852	0.117412	0.613943
	C166	C	0.311608	0.888351	0.610838
	C167	C	0.312199	0.117751	0.374333
	C168	C	0.866598	0.388607	0.171402
	C169	C	0.106654	0.617417	0.171551
	C170	C	0.104859	0.387925	0.817718
	C171	C	0.868127	0.618358	0.818049
	C172	C	0.164641	0.883384	0.378420
	C173	C	0.165262	0.122465	0.608752
	C174	C	0.812702	0.121263	0.378792
	C175	C	0.811247	0.883862	0.608573
	C176	C	0.373785	0.177784	0.873879
	C177	C	0.602745	0.181517	0.113362
	C178	C	0.373464	0.826903	0.110605
	C179	C	0.603443	0.824636	0.871724
	C180	C	0.373481	0.884407	0.168378
	C181	C	0.603197	0.123066	0.170533
	C182	C	0.373978	0.119699	0.816831
	C183	C	0.603954	0.883103	0.814832
	C184	C	0.869754	0.179082	0.379174
	C185	C	0.108121	0.179818	0.609382
	C186	C	0.107938	0.825293	0.378823
	C187	C	0.869637	0.827241	0.608947
	C188	C	0.162780	0.387749	0.874250
	C189	C	0.165734	0.616658	0.115157
	C190	C	0.808796	0.388593	0.113704
	C191	C	0.810062	0.618284	0.875902
	C192	C	0.389345	0.097160	0.593060
	C193	C	0.588075	0.909343	0.590835
	C194	C	0.588010	0.096676	0.395232
	C195	C	0.388038	0.908887	0.393022
	C196	C	0.584732	0.404771	0.088195
	C197	C	0.586515	0.600873	0.898662
	C198	C	0.388690	0.602966	0.087284
	C199	C	0.386927	0.402292	0.898549
	C200	C	0.082055	0.601979	0.396087
	C201	C	0.894237	0.604100	0.594415
	C202	C	0.083095	0.404025	0.593593
	C203	C	0.894916	0.403295	0.396370
	C204	C	0.886617	0.597499	0.094856
	C205	C	0.085896	0.408730	0.092690
	C206	C	0.087003	0.596722	0.896789
	C207	C	0.886021	0.409268	0.893666
	C208	C	0.087898	0.904414	0.588279
	C209	C	0.087967	0.102988	0.398929
	C210	C	0.890306	0.102046	0.588572
	C211	C	0.889528	0.902726	0.398956
	C212	C	0.583441	0.103281	0.893917
	C213	C	0.394307	0.101962	0.092403
	C214	C	0.582504	0.904537	0.090934
	C215	C	0.394626	0.901941	0.891692
	Zn216	Zn	0.489474	0.002656	0.742682
	Zn217	Zn	0.488383	0.002902	0.243154
	Zn218	Zn	0.736108	0.503068	-0.005409
	Zn219	Zn	0.237053	0.501943	-0.005942
	Zn220	Zn	-0.011317	0.753517	0.494401
	Zn221	Zn	-0.010896	0.252381	0.494547
	Zn222	Zn	-0.011936	0.503461	0.744365
	Zn223	Zn	-0.012990	0.503118	0.244586
	Zn224	Zn	0.488357	0.752474	-0.008104
	Zn225	Zn	0.487544	0.253278	-0.006725
	Zn226	Zn	0.739317	0.003392	0.493277
	Zn227	Zn	0.237733	0.003815	0.492679
	N228	N	0.404385	0.965013	0.669638
	N229	N	0.574880	0.040264	0.671575
	N230	N	0.573591	0.965725	0.314770
	N231	N	0.402881	0.040108	0.315069
	N232	N	0.664356	0.418001	0.956649
	N233	N	0.664602	0.588809	0.031154
	N234	N	0.308687	0.587683	0.956068
	N235	N	0.308876	0.417324	0.030869
	N236	N	0.951103	0.681039	0.409634
	N237	N	0.025947	0.683067	0.581092
	N238	N	0.952419	0.323490	0.581074
	N239	N	0.025986	0.324429	0.408529
	N240	N	0.950458	0.419884	0.670111
	N241	N	0.025679	0.589547	0.673822
	N242	N	0.950760	0.588017	0.317156
	N243	N	0.024922	0.417125	0.315244
	N244	N	0.402121	0.680698	0.955005
	N245	N	0.573909	0.682101	0.029743
	N246	N	0.571836	0.325542	0.956026
	N247	N	0.400146	0.323345	0.029932
	N248	N	0.667746	0.966270	0.406780
	N249	N	0.668142	0.040121	0.579553
	N250	N	0.309337	0.966290	0.578565
	N251	N	0.309946	0.040236	0.407314
	N252	N	0.900319	0.466053	0.173513
	N253	N	0.071599	0.540565	0.171720
	N254	N	0.071906	0.465630	0.817063
	N255	N	0.901272	0.540783	0.815500
	N256	N	0.166241	0.917681	0.456125
	N257	N	0.166597	0.089022	0.530580
	N258	N	0.811471	0.087933	0.456451
	N259	N	0.809810	0.916778	0.530575
	N260	N	0.451431	0.180646	0.907367
	N261	N	0.525092	0.182760	0.079670
	N262	N	0.450950	0.825360	0.077065
	N263	N	0.525538	0.822106	0.904632
	N264	N	0.451240	0.917852	0.170356
	N265	N	0.525978	0.088713	0.171713
	N266	N	0.451801	0.087029	0.815422
	N267	N	0.526749	0.916825	0.813703
	N268	N	0.903177	0.180905	0.457142
	N269	N	0.074943	0.181733	0.531477
	N270	N	0.074494	0.824259	0.456806
	N271	N	0.903760	0.825474	0.531383
	N272	N	0.165374	0.465312	0.908195
	N273	N	0.167095	0.538977	0.081390
	N274	N	0.807154	0.466267	0.080817
	N275	N	0.807606	0.540669	0.908584
	O276	O	0.370583	0.489119	0.522782
	H277	H	0.368973	0.480438	0.517718
	H278	H	0.372412	0.490155	0.524129
	O279	O	0.487835	0.467908	0.536883
	H280	H	0.485669	0.476398	0.551116
	H281	H	0.489182	0.470660	0.533496
	O282	O	0.508329	0.529910	0.408718
	H283	H	0.505220	0.526474	0.408084
	H284	H	0.500057	0.532397	0.407241
	O285	O	0.115148	0.970443	0.995254
	H286	H	0.119209	0.967870	0.992636
	H287	H	0.121817	0.971768	0.997509
	O288	O	0.521597	0.570174	0.544189
	H289	H	0.514246	0.570928	0.535179
	H290	H	0.517172	0.565427	0.553550
	O291	O	0.483885	0.576134	1.450520
	H292	H	0.477590	0.576858	1.455633
	H293	H	0.475240	0.577262	1.450439
	O294	O	0.520819	0.549937	0.516437
	H295	H	0.523936	0.553528	0.517292
	H296	H	0.537594	0.532797	0.516009
	O297	O	0.402941	0.474896	0.498508
	H298	H	0.408689	0.482432	0.504459
	H299	H	0.402823	0.492400	0.501512
	O300	O	0.580616	0.476710	0.497004
	H301	H	0.571584	0.476583	0.495679
	H302	H	0.578704	0.496895	0.505526
	O303	O	0.521348	0.521664	0.479238
	H304	H	0.527064	0.519894	0.491303
	H305	H	0.514541	0.520530	0.475381
	O306	O	1.120137	-0.007064	1.027865
	H307	H	1.123925	-0.006647	1.030464
	H308	H	1.123616	-0.003952	1.030898
	O309	O	0.608700	0.408746	0.386623
	H310	H	0.607526	0.404512	0.389924
	H311	H	0.622305	0.402981	0.385334
	O312	O	0.487310	0.479969	0.473260
	H313	H	0.496957	0.473016	0.472103
	H314	H	0.485785	0.487226	0.468146
	O315	O	0.543866	0.461311	1.577842
	H316	H	0.543277	0.462904	1.575284
	H317	H	0.556329	0.462537	1.586801
	O318	O	0.539108	-0.496759	-0.558765
	H319	H	0.533527	-0.499414	-0.569177
	H320	H	0.547561	-0.510673	-0.561489
	O321	O	0.445729	0.559212	0.496865
	H322	H	0.446902	0.564502	0.482988
	H323	H	0.444259	0.558150	0.499621
	O324	O	1.428852	-0.513536	0.516097
	H325	H	1.430737	-0.510234	0.510680
	H326	H	1.434654	-0.511127	0.522708
	O327	O	1.091970	0.973586	0.011105
	H328	H	1.104380	0.978651	0.012267
	H329	H	1.102199	0.973792	0.010269
	O330	O	0.493792	0.471383	0.477579
	H331	H	0.485847	0.480093	0.473383
	H332	H	0.504141	0.466536	0.484730
	O333	O	0.597999	0.455853	0.365801
	H334	H	0.611557	0.460162	0.366486
	H335	H	0.601098	0.451258	0.357012
