data_Molecule from HDF5

_cell_length_a		16.362632
_cell_length_b		16.458097
_cell_length_c		16.493299
_cell_angle_alpha	89.945970
_cell_angle_beta	89.818549
_cell_angle_gamma	89.966652
_symmetry_space_group_name_H-M	'P 1'
_symmetry_Int_Tables_number		1

loop_
	_symmetry_equiv_pos_as_xyz
	x,y,z

loop_
	_atom_site_label
	_atom_site_type_symbol
	_atom_site_fract_x
	_atom_site_fract_y
	_atom_site_fract_z
	H0	H	0.393994	0.859880	0.735320
	H1	H	0.611662	0.172465	0.733724
	H2	H	0.614753	0.859094	0.285197
	H3	H	0.392359	0.169996	0.281690
	H4	H	0.728299	0.409726	0.851386
	H5	H	0.727364	0.621693	0.167081
	H6	H	0.280538	0.626983	0.853705
	H7	H	0.279472	0.407813	0.165673
	H8	H	0.847622	0.739886	0.400490
	H9	H	0.162266	0.739102	0.616008
	H10	H	0.847960	0.292111	0.619523
	H11	H	0.161877	0.291274	0.399643
	H12	H	0.849837	0.404649	0.736214
	H13	H	0.162692	0.623706	0.732014
	H14	H	0.847074	0.624771	0.286294
	H15	H	0.160296	0.404902	0.282543
	H16	H	0.399552	0.739031	0.852814
	H17	H	0.614147	0.740339	0.165772
	H18	H	0.616811	0.289588	0.854010
	H19	H	0.395436	0.291068	0.165888
	H20	H	0.728877	0.858941	0.402240
	H21	H	0.728073	0.173417	0.617725
	H22	H	0.280414	0.858235	0.617874
	H23	H	0.280482	0.172393	0.401108
	H24	H	0.894941	0.359887	0.235318
	H25	H	0.116547	0.670583	0.236501
	H26	H	0.118629	0.359674	0.782667
	H27	H	0.897043	0.670650	0.784527
	H28	H	0.229062	0.908153	0.352182
	H29	H	0.226964	0.121924	0.666880
	H30	H	0.780771	0.123841	0.352712
	H31	H	0.783689	0.912115	0.665818
	H32	H	0.349277	0.244849	0.898462
	H33	H	0.662119	0.238793	0.117418
	H34	H	0.347417	0.791091	0.119305
	H35	H	0.663636	0.796992	0.905119
	H36	H	0.347378	0.906332	0.234173
	H37	H	0.660848	0.123636	0.233420
	H38	H	0.346628	0.125849	0.786010
	H39	H	0.661201	0.909666	0.785755
	H40	H	0.896497	0.239984	0.353002
	H41	H	0.112380	0.239631	0.666336
	H42	H	0.115742	0.789946	0.353283
	H43	H	0.895655	0.792110	0.664030
	H44	H	0.234407	0.360938	0.898452
	H45	H	0.228930	0.672538	0.117861
	H46	H	0.782703	0.358263	0.115642
	H47	H	0.785470	0.673787	0.904763
	H48	H	0.415423	0.129297	0.600926
	H49	H	0.595282	0.903797	0.593830
	H50	H	0.589292	0.127752	0.420243
	H51	H	0.417753	0.902896	0.419125
	H52	H	0.598822	0.428161	0.122250
	H53	H	0.597512	0.604583	0.896376
	H54	H	0.418919	0.608520	0.123065
	H55	H	0.422470	0.430650	0.899285
	H56	H	0.117415	0.602241	0.422732
	H57	H	0.891136	0.602825	0.600299
	H58	H	0.118403	0.436290	0.602449
	H59	H	0.891206	0.431170	0.418746
	H60	H	0.121995	0.419754	0.598507
	H61	H	0.892384	0.604346	0.594779
	H62	H	0.117208	0.601787	0.421536
	H63	H	0.890774	0.424288	0.424446
	H64	H	0.412090	0.601566	0.122923
	H65	H	0.592566	0.604274	0.898413
	H66	H	0.589551	0.432433	0.119126
	H67	H	0.421134	0.430467	0.899086
	H68	H	0.590485	0.126797	0.422661
	H69	H	0.593729	0.901613	0.601915
	H70	H	0.419659	0.126226	0.596662
	H71	H	0.422185	0.904884	0.423186
	H72	H	0.916736	0.629280	0.098645
	H73	H	0.092759	0.405136	0.091474
	H74	H	0.092516	0.629288	0.914824
	H75	H	0.917507	0.401308	0.917419
	H76	H	0.085527	0.922678	0.620195
	H77	H	0.095590	0.109797	0.394101
	H78	H	0.917940	0.110457	0.623113
	H79	H	0.913734	0.927698	0.394155
	H80	H	0.618110	0.104207	0.919205
	H81	H	0.394076	0.098031	0.094562
	H82	H	0.618196	0.926456	0.094978
	H83	H	0.390736	0.928332	0.923485
	H84	H	0.617196	0.930616	0.097445
	H85	H	0.391232	0.102652	0.097134
	H86	H	0.616149	0.103012	0.923854
	H87	H	0.391090	0.928564	0.922245
	H88	H	0.910455	0.102379	0.622778
	H89	H	0.095741	0.096212	0.399373
	H90	H	0.097338	0.925486	0.624000
	H91	H	0.918547	0.932331	0.396924
	H92	H	0.084987	0.623847	0.922972
	H93	H	0.091500	0.402956	0.098881
	H94	H	0.916826	0.628589	0.098737
	H95	H	0.922456	0.404396	0.923039
	H96	H	0.413741	0.127406	0.594888
	H97	H	0.587941	0.905346	0.597145
	H98	H	0.592360	0.128595	0.420489
	H99	H	0.416357	0.903990	0.424914
	H100	H	0.590012	0.422158	0.122573
	H101	H	0.594033	0.608881	0.895797
	H102	H	0.421136	0.599870	0.119355
	H103	H	0.421529	0.431567	0.899501
	H104	H	0.117662	0.602935	0.421610
	H105	H	0.893602	0.598934	0.596662
	H106	H	0.114004	0.430063	0.586588
	H107	H	0.894620	0.431395	0.427091
	H108	H	0.916937	0.628690	0.098680
	H109	H	0.085768	0.406145	0.094826
	H110	H	0.095985	0.627071	0.926023
	H111	H	0.914552	0.402780	0.924732
	H112	H	0.090796	0.934182	0.618080
	H113	H	0.083478	0.104345	0.401204
	H114	H	0.920381	0.100218	0.619593
	H115	H	0.920889	0.925489	0.395506
	H116	H	0.615784	0.099214	0.920344
	H117	H	0.393164	0.103352	0.091456
	H118	H	0.618869	0.926835	0.099549
	H119	H	0.391035	0.928032	0.922703
	C120	C	0.381895	0.024465	0.631954
	C121	C	0.625159	1.007645	0.630661
	C122	C	0.625793	0.024550	0.387408
	C123	C	0.383415	1.006939	0.388041
	C124	C	0.627424	0.393998	0.017888
	C125	C	0.627575	0.638394	1.000587
	C126	C	0.383686	0.637999	0.018471
	C127	C	0.384943	0.395524	1.001623
	C128	C	0.013804	0.637111	0.387648
	C129	C	0.996425	0.636383	0.630433
	C130	C	0.014490	0.394003	0.631021
	C131	C	0.995855	0.394262	0.388205
	C132	C	0.883133	0.524856	0.131781
	C133	C	0.124906	0.507777	0.129818
	C134	C	0.127530	0.523916	0.886975
	C135	C	0.884413	0.506225	0.887878
	C136	C	0.126128	0.893763	0.517308
	C137	C	0.125882	0.137305	0.501415
	C138	C	0.882832	0.138136	0.518250
	C139	C	0.883994	0.895300	0.499433
	C140	C	0.513164	0.137914	0.887380
	C141	C	0.496318	0.135672	0.129202
	C142	C	0.513945	0.893367	0.131660
	C143	C	0.495683	0.895627	0.889110
	C144	C	0.376556	0.906905	0.694839
	C145	C	0.628899	0.125825	0.692456
	C146	C	0.631362	0.906437	0.325668
	C147	C	0.376637	0.123494	0.323550
	C148	C	0.688850	0.391202	0.899374
	C149	C	0.687670	0.640231	0.119490
	C150	C	0.321284	0.643604	0.901078
	C151	C	0.320951	0.390388	0.118775
	C152	C	0.895116	0.699426	0.383211
	C153	C	0.114708	0.698534	0.633773
	C154	C	0.895928	0.332004	0.636278
	C155	C	0.113916	0.331565	0.382372
	C156	C	0.896772	0.388060	0.694830
	C157	C	0.115197	0.640462	0.691347
	C158	C	0.894851	0.641678	0.326455
	C159	C	0.113226	0.388348	0.323836
	C160	C	0.380564	0.699871	0.900673
	C161	C	0.630970	0.699374	0.118817
	C162	C	0.632806	0.331511	0.900459
	C163	C	0.378708	0.332355	0.118871
	C164	C	0.688700	0.906323	0.383731
	C165	C	0.686913	0.126201	0.634550
	C166	C	0.320156	0.906088	0.635983
	C167	C	0.320785	0.124747	0.383382
	C168	C	0.878382	0.406689	0.193672
	C169	C	0.131709	0.624231	0.193894
	C170	C	0.134730	0.406900	0.823764
	C171	C	0.880157	0.624019	0.825867
	C172	C	0.188396	0.890418	0.399389
	C173	C	0.186989	0.140134	0.619678
	C174	C	0.821502	0.141755	0.399938
	C175	C	0.823317	0.893196	0.618250
	C176	C	0.395844	0.202468	0.882402
	C177	C	0.614684	0.198130	0.134459
	C178	C	0.395122	0.831259	0.136465
	C179	C	0.615608	0.836423	0.886649
	C180	C	0.395023	0.888971	0.193662
	C181	C	0.613915	0.140807	0.192442
	C182	C	0.394455	0.143156	0.826238
	C183	C	0.614445	0.892524	0.827427
	C184	C	0.878901	0.199995	0.400371
	C185	C	0.129998	0.199053	0.619068
	C186	C	0.131801	0.831411	0.399970
	C187	C	0.879447	0.833705	0.617362
	C188	C	0.192617	0.407417	0.881518
	C189	C	0.188002	0.625448	0.134532
	C190	C	0.822209	0.406122	0.134363
	C191	C	0.824285	0.625474	0.885470
	C192	C	0.408774	0.106256	0.605210
	C193	C	0.599530	0.925293	0.605001
	C194	C	0.598662	0.106262	0.413484
	C195	C	0.410854	0.925343	0.414984
	C196	C	0.600563	0.420162	0.099905
	C197	C	0.602105	0.613210	0.918317
	C198	C	0.410001	0.611076	0.100437
	C199	C	0.413506	0.422970	0.920666
	C200	C	0.095858	0.610079	0.414214
	C201	C	0.913972	0.609759	0.604609
	C202	C	0.096756	0.420964	0.603730
	C203	C	0.913498	0.421323	0.415714
	C204	C	0.909389	0.607334	0.106195
	C205	C	0.097856	0.426260	0.102739
	C206	C	0.099348	0.605393	0.913727
	C207	C	0.910641	0.424162	0.914133
	C208	C	0.098948	0.919812	0.599345
	C209	C	0.099308	0.110862	0.419554
	C210	C	0.908791	0.111929	0.600246
	C211	C	0.910212	0.921064	0.416961
	C212	C	0.595181	0.110082	0.913644
	C213	C	0.414232	0.108980	0.102074
	C214	C	0.596382	0.920179	0.105223
	C215	C	0.412667	0.921315	0.915149
	Zn216	Zn	0.503694	0.015830	0.759556
	Zn217	Zn	0.504693	0.015134	0.258965
	Zn218	Zn	0.755452	0.516216	0.009438
	Zn219	Zn	0.255286	0.516333	0.009444
	Zn220	Zn	0.004215	0.765170	0.508586
	Zn221	Zn	0.004967	0.266768	0.509820
	Zn222	Zn	0.005674	0.514669	0.758362
	Zn223	Zn	0.004536	0.516182	0.260196
	Zn224	Zn	0.505457	0.766596	0.009896
	Zn225	Zn	0.505553	0.265374	0.009945
	Zn226	Zn	0.753858	0.016304	0.508954
	Zn227	Zn	0.254952	0.014932	0.509328
	N228	N	0.413909	0.981652	0.692716
	N229	N	0.591384	0.051114	0.690303
	N230	N	0.592811	0.980721	0.328051
	N231	N	0.414703	0.048998	0.326108
	N232	N	0.685599	0.429344	0.973425
	N233	N	0.685647	0.602906	0.045034
	N234	N	0.322800	0.606159	0.975597
	N235	N	0.324725	0.428771	0.044806
	N236	N	0.970024	0.696935	0.420486
	N237	N	0.039535	0.696335	0.596754
	N238	N	0.970194	0.335560	0.597330
	N239	N	0.039805	0.335133	0.421572
	N240	N	0.971774	0.425519	0.691957
	N241	N	0.040398	0.602599	0.689472
	N242	N	0.969808	0.603813	0.328809
	N243	N	0.038486	0.426567	0.327400
	N244	N	0.418435	0.696645	0.974853
	N245	N	0.594279	0.698174	0.044012
	N246	N	0.595590	0.332925	0.975319
	N247	N	0.417705	0.335133	0.044779
	N248	N	0.685634	0.980751	0.421352
	N249	N	0.684594	0.051898	0.596539
	N250	N	0.323110	0.980236	0.597586
	N251	N	0.325009	0.051280	0.422694
	N252	N	0.915249	0.481652	0.192528
	N253	N	0.093170	0.550172	0.191198
	N254	N	0.094774	0.480431	0.827163
	N255	N	0.916738	0.548917	0.827173
	N256	N	0.184938	0.928405	0.473607
	N257	N	0.184721	0.102429	0.545303
	N258	N	0.823489	0.104188	0.474164
	N259	N	0.826020	0.930822	0.543921
	N260	N	0.470794	0.199371	0.919843
	N261	N	0.540557	0.195019	0.095878
	N262	N	0.470138	0.833833	0.098674
	N263	N	0.540632	0.838150	0.924071
	N264	N	0.469790	0.926936	0.190843
	N265	N	0.539263	0.102682	0.189461
	N266	N	0.468283	0.103605	0.829416
	N267	N	0.538734	0.928751	0.828923
	N268	N	0.916005	0.198118	0.475068
	N269	N	0.093031	0.197325	0.544431
	N270	N	0.093854	0.833436	0.474317
	N271	N	0.916336	0.834861	0.542377
	N272	N	0.188276	0.481182	0.920037
	N273	N	0.183841	0.551964	0.095148
	N274	N	0.824916	0.480669	0.096855
	N275	N	0.826625	0.551174	0.923381
	O276	O	0.321259	0.694045	0.330987
	H277	H	0.374744	0.705942	0.319547
	H278	H	0.312681	0.656049	0.333163
	O279	O	0.817072	-0.141467	0.847026
	H280	H	0.823311	-0.134504	0.865454
	H281	H	0.842741	-0.120998	0.847685
	O282	O	0.700146	0.710739	0.701560
	H283	H	0.645750	0.717590	0.710778
	H284	H	0.721668	0.718438	0.729855
	O285	O	0.327214	0.337999	0.680469
	H286	H	0.376722	0.326949	0.692497
	H287	H	0.319258	0.389213	0.691683
	O288	O	0.813825	1.035065	-0.194505
	H289	H	0.802632	1.054328	-0.215475
	H290	H	0.830382	1.040536	-0.188697
	O291	O	0.567126	0.494433	0.621460
	H292	H	0.582016	0.501715	0.604763
	H293	H	0.571854	0.490798	0.613528
	O294	O	0.021369	-0.054790	1.229660
	H295	H	0.026338	-0.050787	1.242615
	H296	H	0.019876	-0.069553	1.240294
	O297	O	0.840047	0.191535	-0.175469
	H298	H	0.889954	0.203107	-0.181908
	H299	H	0.831383	0.185290	-0.152717
	O300	O	0.998141	1.192726	-0.179015
	H301	H	1.017002	1.202853	-0.168345
	H302	H	1.004190	1.203538	-0.175507
	O303	O	0.533553	0.530865	0.339294
	H304	H	0.518708	0.517573	0.336428
	H305	H	0.541204	0.525630	0.335219
	O306	O	0.507051	0.304866	0.508361
	H307	H	0.496809	0.299604	0.529494
	H308	H	0.529053	0.301506	0.510676
	O309	O	0.536504	0.398067	0.717302
	H310	H	0.537590	0.418438	0.705252
	H311	H	0.552562	0.404957	0.725735
	O312	O	0.161796	1.180516	1.172773
	H313	H	0.172632	1.138354	1.183429
	H314	H	0.118268	1.185998	1.178069
	O315	O	0.291677	0.731532	0.489527
	H316	H	0.282900	0.734575	0.463113
	H317	H	0.270259	0.739971	0.478362
	O318	O	0.980691	-0.012913	-0.200424
	H319	H	0.989775	-0.023315	-0.210385
	H320	H	0.987443	-0.012707	-0.196980
	O321	O	-0.208173	0.233045	-0.015829
	H322	H	-0.241868	0.257406	-0.011788
	H323	H	-0.210578	0.215224	-0.020980
	O324	O	0.500944	0.533028	0.531223
	H325	H	0.493245	0.526482	0.524752
	H326	H	0.514206	0.539750	0.515986
	O327	O	0.513003	0.474344	0.377816
	H328	H	0.509913	0.483167	0.398018
	H329	H	0.516827	0.455641	0.373208
	O330	O	0.008968	0.995931	0.014017
	H331	H	0.014336	0.999140	0.016666
	H332	H	-0.012884	0.989006	0.011838
	O333	O	0.218845	0.802517	0.989372
	H334	H	0.182087	0.800988	1.015834
	H335	H	0.252943	0.761047	0.987509
	O336	O	0.180295	-0.049289	0.068987
	H337	H	0.168621	-0.058166	0.052429
	H338	H	0.182971	-0.046801	0.038637
	O339	O	-0.186275	0.999443	1.212694
	H340	H	-0.200242	1.005993	1.229612
	H341	H	-0.165839	1.016533	1.213038
	O342	O	0.215106	1.055124	0.980095
	H343	H	0.210189	1.058215	0.964002
	H344	H	0.213984	1.075404	0.988040
	O345	O	1.483057	0.730661	-0.702370
	H346	H	1.490821	0.752730	-0.729722
	H347	H	1.508783	0.705747	-0.703857
	O348	O	0.206004	0.043614	0.213797
	H349	H	0.225612	0.031916	0.214936
	H350	H	0.211357	0.027719	0.205778
	O351	O	0.221646	1.234341	1.023395
	H352	H	0.233580	1.252098	1.047461
	H353	H	0.228284	1.234846	1.057614
	O354	O	-0.477164	0.307421	0.300081
	H355	H	-0.480048	0.280345	0.287592
	H356	H	-0.493883	0.313650	0.322423
	O357	O	-0.486813	-0.331179	0.454565
	H358	H	-0.499624	-0.348002	0.442653
	H359	H	-0.476128	-0.346784	0.442316
	O360	O	0.715801	0.300093	0.487786
	H361	H	0.718261	0.304397	0.503691
	H362	H	0.742918	0.299487	0.494340
	O363	O	-0.665775	-0.420138	1.486290
	H364	H	-0.678593	-0.420196	1.468942
	H365	H	-0.662289	-0.429772	1.492969
	O366	O	0.925105	0.058370	1.192161
	H367	H	0.950454	0.043863	1.181513
	H368	H	0.939332	0.097128	1.186279
	O369	O	0.683030	0.567379	0.458898
	H370	H	0.687973	0.592801	0.447659
	H371	H	0.685955	0.576105	0.433354
	O372	O	0.864700	0.014565	1.003063
	H373	H	0.871696	0.012952	0.981634
	H374	H	0.864562	-0.006738	1.005787
	O375	O	-0.014173	0.214388	0.013395
	H376	H	-0.015787	0.201805	0.005370
	H377	H	-0.018328	0.208866	0.008538
	O378	O	0.717532	0.726682	0.527156
	H379	H	0.725650	0.747053	0.539439
	H380	H	0.717792	0.728705	0.563909
	O381	O	0.285559	0.296927	0.526417
	H382	H	0.297455	0.307380	0.575943
	H383	H	0.255186	0.261455	0.532135
	O384	O	0.534549	0.722038	0.715617
	H385	H	0.513683	0.731184	0.701441
	H386	H	0.516089	0.733204	0.712428
	O387	O	0.083335	-0.164478	1.102116
	H388	H	0.068525	-0.173159	1.070599
	H389	H	0.073851	-0.135951	1.103624
	O390	O	-0.484245	-0.701869	0.657074
	H391	H	-0.479663	-0.700048	0.683737
	H392	H	-0.464781	-0.689556	0.660794
	O393	O	0.802022	0.804359	1.025637
	H394	H	0.768994	0.774779	1.043474
	H395	H	0.808322	0.819804	1.058802
	O396	O	1.551812	0.667938	-0.517340
	H397	H	1.578266	0.672523	-0.519477
	H398	H	1.548601	0.664135	-0.541798
	O399	O	0.976099	-0.203719	0.985011
	H400	H	0.944967	-0.205138	0.984027
	H401	H	0.961877	-0.197532	0.963475
	O402	O	1.176426	0.833987	0.829688
	H403	H	1.191571	0.844664	0.861129
	H404	H	1.194437	0.858240	0.834652
	O405	O	0.982628	0.888891	0.134874
	H406	H	0.988012	0.853634	0.156331
	H407	H	1.007714	0.894906	0.103107
	O408	O	1.017565	-0.196738	-0.206111
	H409	H	1.054355	-0.188699	-0.199488
	H410	H	1.038239	-0.221160	-0.228794
	O411	O	0.989633	1.150606	0.011781
	H412	H	0.990460	1.147950	-0.005609
	H413	H	0.975839	1.144513	0.004457
	O414	O	0.439856	0.641144	0.666177
	H415	H	0.426499	0.635986	0.646948
	H416	H	0.452428	0.642492	0.646461
	O417	O	0.328650	0.517424	0.304407
	H418	H	0.331278	0.508714	0.303144
	H419	H	0.315541	0.512109	0.314268
	O420	O	0.014985	0.228782	0.209251
	H421	H	0.002358	0.241946	0.191865
	H422	H	0.011077	0.250916	0.214807
	O423	O	0.684965	0.466551	0.602285
	H424	H	0.689766	0.484071	0.620625
	H425	H	0.688973	0.496293	0.586941
	O426	O	0.825819	0.839522	0.180741
	H427	H	0.866964	0.841325	0.193766
	H428	H	0.825929	0.877137	0.195854
	O429	O	0.304146	0.505637	0.594431
	H430	H	0.300633	0.492809	0.622377
	H431	H	0.320917	0.497201	0.587145
	O432	O	0.719803	0.540299	0.722408
	H433	H	0.721754	0.558157	0.730751
	H434	H	0.740134	0.548950	0.731825
	O435	O	0.295208	0.527987	0.654235
	H436	H	0.289608	0.532127	0.680114
	H437	H	0.296242	0.556542	0.646484
	O438	O	0.211130	-0.006119	-0.202998
	H439	H	0.248789	-0.009051	-0.233844
	H440	H	0.201555	0.018889	-0.181300
	O441	O	1.105744	0.141685	-0.116076
	H442	H	1.113305	0.147220	-0.102455
	H443	H	1.086675	0.139521	-0.100693
	O444	O	-0.199685	1.083786	1.064909
	H445	H	-0.198180	1.056657	1.052007
	H446	H	-0.194104	1.080722	1.072160
	O447	O	0.720193	0.494947	0.290602
	H448	H	0.755972	0.487669	0.260476
	H449	H	0.710597	0.448654	0.303837
	O450	O	0.372971	0.367210	0.446447
	H451	H	0.379717	0.359905	0.468994
	H452	H	0.349131	0.360163	0.448666
	O453	O	0.689452	0.331846	0.320627
	H454	H	0.694686	0.323890	0.366689
	H455	H	0.651491	0.319084	0.314143
