data_Molecule from HDF5

_cell_length_a		16.361515
_cell_length_b		16.248431
_cell_length_c		16.267061
_cell_angle_alpha	89.914255
_cell_angle_beta	89.888013
_cell_angle_gamma	90.066972
_symmetry_space_group_name_H-M	'P 1'
_symmetry_Int_Tables_number		1

loop_
	_symmetry_equiv_pos_as_xyz
	x,y,z

loop_
	_atom_site_label
	_atom_site_type_symbol
	_atom_site_fract_x
	_atom_site_fract_y
	_atom_site_fract_z
	H0	H	0.407806	0.843004	0.715387
	H1	H	0.602474	0.170825	0.713008
	H2	H	0.603264	0.842029	0.287323
	H3	H	0.408014	0.171166	0.287033
	H4	H	0.721704	0.408773	0.837100
	H5	H	0.720594	0.605624	0.164489
	H6	H	0.291940	0.606517	0.835723
	H7	H	0.290318	0.407098	0.164393
	H8	H	0.841771	0.722064	0.402647
	H9	H	0.168763	0.721902	0.597083
	H10	H	0.842190	0.291930	0.598840
	H11	H	0.169161	0.293432	0.402862
	H12	H	0.842393	0.407532	0.716479
	H13	H	0.168952	0.604851	0.713799
	H14	H	0.842101	0.605534	0.285756
	H15	H	0.168629	0.410049	0.286411
	H16	H	0.410556	0.720535	0.836462
	H17	H	0.603266	0.719805	0.165257
	H18	H	0.604429	0.294070	0.836093
	H19	H	0.409171	0.293759	0.165777
	H20	H	0.721003	0.842794	0.402168
	H21	H	0.720765	0.170010	0.600427
	H22	H	0.291000	0.843110	0.600857
	H23	H	0.292086	0.170864	0.401309
	H24	H	0.908418	0.342377	0.213498
	H25	H	0.102499	0.671741	0.212926
	H26	H	0.102548	0.342537	0.787400
	H27	H	0.908573	0.670670	0.787117
	H28	H	0.222431	0.907484	0.337138
	H29	H	0.221103	0.106243	0.663997
	H30	H	0.791133	0.106421	0.337554
	H31	H	0.790759	0.907114	0.663776
	H32	H	0.342730	0.220708	0.905074
	H33	H	0.670084	0.221553	0.098360
	H34	H	0.342692	0.791728	0.100112
	H35	H	0.669975	0.793761	0.904135
	H36	H	0.342288	0.908954	0.215514
	H37	H	0.669806	0.104297	0.215433
	H38	H	0.342535	0.104530	0.787526
	H39	H	0.669412	0.909651	0.786327
	H40	H	0.909222	0.219771	0.336505
	H41	H	0.102698	0.220118	0.664939
	H42	H	0.102214	0.795554	0.335530
	H43	H	0.908516	0.794026	0.664530
	H44	H	0.220259	0.342605	0.901626
	H45	H	0.220422	0.671301	0.098462
	H46	H	0.791532	0.343127	0.099293
	H47	H	0.791152	0.670237	0.900516
	H48	H	0.416730	0.121479	0.590022
	H49	H	0.594815	0.891632	0.592090
	H50	H	0.602454	0.123930	0.406556
	H51	H	0.405518	0.890116	0.416543
	H52	H	0.594314	0.422047	0.113353
	H53	H	0.595287	0.600233	0.885954
	H54	H	0.408694	0.600528	0.118348
	H55	H	0.413215	0.412774	0.884217
	H56	H	0.119093	0.593181	0.405333
	H57	H	0.888089	0.601049	0.597576
	H58	H	0.122435	0.407034	0.591799
	H59	H	0.893810	0.416168	0.416660
	H60	H	0.117316	0.418446	0.588092
	H61	H	0.889058	0.603883	0.591815
	H62	H	0.124018	0.605309	0.400265
	H63	H	0.889357	0.420633	0.399512
	H64	H	0.412171	0.593482	0.115588
	H65	H	0.602554	0.604417	0.882303
	H66	H	0.595390	0.405499	0.118378
	H67	H	0.411498	0.414680	0.884245
	H68	H	0.596057	0.122789	0.406508
	H69	H	0.602606	0.889281	0.590066
	H70	H	0.407768	0.124131	0.591862
	H71	H	0.411812	0.887065	0.400059
	H72	H	0.916037	0.622459	0.094365
	H73	H	0.098754	0.392682	0.085336
	H74	H	0.106177	0.626197	0.906019
	H75	H	0.904419	0.389815	0.915587
	H76	H	0.107921	0.921903	0.617488
	H77	H	0.096685	0.104229	0.383148
	H78	H	0.911394	0.099199	0.618315
	H79	H	0.912499	0.925383	0.386331
	H80	H	0.624916	0.101920	0.897566
	H81	H	0.389345	0.109486	0.089648
	H82	H	0.621807	0.911538	0.095381
	H83	H	0.387302	0.903479	0.907156
	H84	H	0.621044	0.912726	0.092543
	H85	H	0.394480	0.093132	0.090090
	H86	H	0.622692	0.108584	0.912475
	H87	H	0.394607	0.916456	0.916788
	H88	H	0.912205	0.098501	0.616955
	H89	H	0.106027	0.101983	0.381447
	H90	H	0.089290	0.917479	0.612661
	H91	H	0.920655	0.908959	0.384413
	H92	H	0.095965	0.623777	0.902426
	H93	H	0.106809	0.387389	0.096337
	H94	H	0.910917	0.623323	0.090137
	H95	H	0.912162	0.386617	0.899049
	H96	H	0.414158	0.124727	0.598108
	H97	H	0.600178	0.888102	0.597754
	H98	H	0.599543	0.121766	0.411943
	H99	H	0.422837	0.895246	0.411545
	H100	H	0.609146	0.416155	0.119333
	H101	H	0.603102	0.595709	0.884282
	H102	H	0.416702	0.600283	0.116114
	H103	H	0.414152	0.414870	0.885502
	H104	H	0.119546	0.604488	0.413513
	H105	H	0.891307	0.597798	0.592972
	H106	H	0.122385	0.416817	0.599854
	H107	H	0.886167	0.403469	0.405612
	H108	H	0.910750	0.625174	0.096468
	H109	H	0.093395	0.391281	0.098741
	H110	H	0.098759	0.621378	0.913250
	H111	H	0.921568	0.393677	0.912523
	H112	H	0.100877	0.904096	0.620654
	H113	H	0.099252	0.095357	0.385683
	H114	H	0.911962	0.099911	0.617688
	H115	H	0.902689	0.910294	0.379131
	H116	H	0.618925	0.092370	0.909843
	H117	H	0.388007	0.100455	0.104294
	H118	H	0.621163	0.914711	0.095518
	H119	H	0.389760	0.918711	0.900259
	C120	C	0.384406	0.015230	0.622296
	C121	C	0.627376	0.998095	0.621885
	C122	C	0.627815	0.014616	0.379434
	C123	C	0.384845	0.999084	0.380229
	C124	C	0.628369	0.385858	0.009022
	C125	C	0.627924	0.628135	0.992350
	C126	C	0.384682	0.627555	0.008397
	C127	C	0.384347	0.385536	0.992988
	C128	C	0.013347	0.629444	0.377986
	C129	C	0.997395	0.629212	0.621769
	C130	C	0.013382	0.385053	0.622310
	C131	C	0.997386	0.385296	0.378829
	C132	C	0.884432	0.515215	0.122058
	C133	C	0.127639	0.498911	0.121632
	C134	C	0.128094	0.515116	0.878817
	C135	C	0.884991	0.498591	0.880238
	C136	C	0.127623	0.886156	0.508697
	C137	C	0.128226	0.128735	0.492082
	C138	C	0.884039	0.128047	0.509189
	C139	C	0.883939	0.885929	0.491991
	C140	C	0.514259	0.129023	0.879112
	C141	C	0.498517	0.128898	0.122612
	C142	C	0.514019	0.884587	0.123067
	C143	C	0.498365	0.885385	0.879575
	C144	C	0.386990	0.891864	0.677458
	C145	C	0.623809	0.121352	0.676278
	C146	C	0.624723	0.891278	0.324566
	C147	C	0.387290	0.121967	0.324595
	C148	C	0.683244	0.388601	0.885661
	C149	C	0.682717	0.625911	0.115841
	C150	C	0.329865	0.626372	0.884992
	C151	C	0.329053	0.387585	0.115793
	C152	C	0.890566	0.684228	0.381739
	C153	C	0.120450	0.683601	0.617933
	C154	C	0.890818	0.329831	0.619622
	C155	C	0.120308	0.330769	0.381705
	C156	C	0.890867	0.387564	0.677815
	C157	C	0.120296	0.625709	0.676001
	C158	C	0.890756	0.626476	0.323533
	C159	C	0.120039	0.388724	0.323945
	C160	C	0.388412	0.683218	0.885220
	C161	C	0.624472	0.682588	0.116188
	C162	C	0.625183	0.331459	0.885326
	C163	C	0.388079	0.331187	0.116531
	C164	C	0.683218	0.891668	0.381406
	C165	C	0.682388	0.121204	0.619922
	C166	C	0.328638	0.892155	0.620894
	C167	C	0.329423	0.121841	0.381387
	C168	C	0.887376	0.391518	0.176285
	C169	C	0.123573	0.622693	0.175476
	C170	C	0.124265	0.391654	0.824396
	C171	C	0.887893	0.621995	0.825053
	C172	C	0.183817	0.887652	0.385765
	C173	C	0.182826	0.126362	0.615378
	C174	C	0.829003	0.126452	0.386276
	C175	C	0.828794	0.887258	0.615047
	C176	C	0.391614	0.183889	0.882649
	C177	C	0.621537	0.183424	0.119539
	C178	C	0.391137	0.829613	0.120453
	C179	C	0.621166	0.830742	0.882455
	C180	C	0.391001	0.887895	0.177849
	C181	C	0.621179	0.125514	0.177670
	C182	C	0.391399	0.125713	0.824886
	C183	C	0.621006	0.888852	0.824569
	C184	C	0.887966	0.182484	0.385583
	C185	C	0.124285	0.183075	0.615727
	C186	C	0.124408	0.831963	0.384858
	C187	C	0.887522	0.831251	0.615485
	C188	C	0.182811	0.391850	0.881300
	C189	C	0.182316	0.622416	0.118758
	C190	C	0.829155	0.391845	0.119829
	C191	C	0.829747	0.621689	0.881558
	C192	C	0.406455	0.101188	0.600036
	C193	C	0.605678	0.911733	0.599790
	C194	C	0.605820	0.100662	0.401854
	C195	C	0.406854	0.912945	0.402940
	C196	C	0.606163	0.407934	0.094882
	C197	C	0.606509	0.606495	0.906466
	C198	C	0.406303	0.604889	0.094484
	C199	C	0.406582	0.407556	0.906734
	C200	C	0.098889	0.607392	0.399933
	C201	C	0.911656	0.607351	0.600490
	C202	C	0.098728	0.407475	0.599686
	C203	C	0.912011	0.406902	0.400953
	C204	C	0.906057	0.601315	0.100135
	C205	C	0.106125	0.412711	0.099776
	C206	C	0.106542	0.601614	0.900820
	C207	C	0.906372	0.412453	0.902449
	C208	C	0.105824	0.907924	0.594632
	C209	C	0.106844	0.107005	0.405719
	C210	C	0.905624	0.105876	0.595413
	C211	C	0.905657	0.908250	0.405607
	C212	C	0.600104	0.107274	0.900380
	C213	C	0.412837	0.107346	0.101018
	C214	C	0.599412	0.906631	0.101016
	C215	C	0.412617	0.906692	0.901654
	Zn216	Zn	0.505802	0.006638	0.750165
	Zn217	Zn	0.505839	0.006881	0.251713
	Zn218	Zn	0.756402	0.507111	0.001002
	Zn219	Zn	0.256182	0.506888	0.000217
	Zn220	Zn	0.005504	0.758288	0.499979
	Zn221	Zn	0.005609	0.256105	0.500444
	Zn222	Zn	0.005455	0.507122	0.751298
	Zn223	Zn	0.005538	0.506966	0.249516
	Zn224	Zn	0.506369	0.756065	0.001166
	Zn225	Zn	0.506598	0.257612	0.000989
	Zn226	Zn	0.755707	0.006780	0.500673
	Zn227	Zn	0.256457	0.006970	0.500697
	N228	N	0.420996	0.969253	0.678258
	N229	N	0.590414	0.043675	0.677613
	N230	N	0.590824	0.968787	0.323278
	N231	N	0.421099	0.044425	0.323862
	N232	N	0.685329	0.421539	0.963400
	N233	N	0.685058	0.592929	0.037996
	N234	N	0.327576	0.592578	0.962601
	N235	N	0.326605	0.420479	0.037867
	N236	N	0.967883	0.686043	0.414970
	N237	N	0.043145	0.686011	0.585171
	N238	N	0.967960	0.328003	0.585874
	N239	N	0.043147	0.328539	0.415203
	N240	N	0.968112	0.421194	0.679516
	N241	N	0.042855	0.592457	0.678463
	N242	N	0.967982	0.593085	0.321130
	N243	N	0.042773	0.421925	0.322111
	N244	N	0.421721	0.684059	0.962938
	N245	N	0.590911	0.684132	0.038627
	N246	N	0.591576	0.329778	0.962979
	N247	N	0.422061	0.330108	0.039033
	N248	N	0.684877	0.969393	0.414941
	N249	N	0.684483	0.043309	0.586780
	N250	N	0.326965	0.969875	0.587120
	N251	N	0.328104	0.044294	0.415396
	N252	N	0.921085	0.469128	0.177558
	N253	N	0.090087	0.544937	0.177183
	N254	N	0.090876	0.469285	0.822773
	N255	N	0.921487	0.544437	0.824024
	N256	N	0.185478	0.921012	0.463526
	N257	N	0.185398	0.093431	0.537566
	N258	N	0.826803	0.093024	0.463973
	N259	N	0.826439	0.920432	0.537297
	N260	N	0.469002	0.186179	0.915374
	N261	N	0.544328	0.185798	0.086287
	N262	N	0.468431	0.827444	0.086995
	N263	N	0.543977	0.828749	0.916237
	N264	N	0.468296	0.921145	0.179858
	N265	N	0.543764	0.092324	0.179693
	N266	N	0.468887	0.092525	0.822458
	N267	N	0.543649	0.921703	0.822562
	N268	N	0.921770	0.183482	0.462998
	N269	N	0.090922	0.184450	0.538039
	N270	N	0.090282	0.830775	0.462207
	N271	N	0.921127	0.830366	0.537877
	N272	N	0.185130	0.469843	0.914199
	N273	N	0.184765	0.544571	0.085952
	N274	N	0.827022	0.469756	0.086839
	N275	N	0.827978	0.544033	0.915416
	O276	O	0.370871	-0.523484	0.541594
	H277	H	0.370357	-0.526557	0.548426
	H278	H	0.377809	-0.533370	0.535181
	O279	O	0.429957	0.468340	0.481655
	H280	H	0.416223	0.476732	0.482101
	H281	H	0.428785	0.469426	0.485327
	O282	O	0.419507	0.455570	0.506987
	H283	H	0.421406	0.457526	0.497727
	H284	H	0.429039	0.450826	0.500738
	O285	O	0.381117	0.492698	0.514803
	H286	H	0.365044	0.491385	0.511434
	H287	H	0.380120	0.496297	0.530773
