data_Molecule from HDF5

_cell_length_a		16.472901
_cell_length_b		16.416321
_cell_length_c		16.438858
_cell_angle_alpha	89.909488
_cell_angle_beta	89.934964
_cell_angle_gamma	89.991250
_symmetry_space_group_name_H-M	'P 1'
_symmetry_Int_Tables_number		1

loop_
	_symmetry_equiv_pos_as_xyz
	x,y,z

loop_
	_atom_site_label
	_atom_site_type_symbol
	_atom_site_fract_x
	_atom_site_fract_y
	_atom_site_fract_z
	H0	H	0.392479	0.849002	0.723516
	H1	H	0.610536	0.161995	0.723691
	H2	H	0.606747	0.849143	0.275344
	H3	H	0.388056	0.162039	0.272509
	H4	H	0.724580	0.398801	0.843417
	H5	H	0.724888	0.617360	0.156437
	H6	H	0.274924	0.616958	0.844592
	H7	H	0.276788	0.396119	0.157043
	H8	H	0.844103	0.732228	0.391821
	H9	H	0.157877	0.729651	0.608644
	H10	H	0.844121	0.280468	0.610455
	H11	H	0.154947	0.280095	0.388598
	H12	H	0.843940	0.396178	0.726229
	H13	H	0.156920	0.615569	0.726379
	H14	H	0.844487	0.618035	0.273595
	H15	H	0.154376	0.394663	0.271904
	H16	H	0.395615	0.727867	0.841899
	H17	H	0.610923	0.734771	0.155732
	H18	H	0.610717	0.281927	0.843020
	H19	H	0.392139	0.279729	0.155079
	H20	H	0.727389	0.850033	0.386234
	H21	H	0.726912	0.161282	0.608383
	H22	H	0.272312	0.851166	0.612407
	H23	H	0.274631	0.163733	0.390136
	H24	H	0.887861	0.351393	0.227756
	H25	H	0.109447	0.662807	0.225294
	H26	H	0.107136	0.348496	0.778650
	H27	H	0.893359	0.664273	0.777385
	H28	H	0.223548	0.900898	0.342353
	H29	H	0.225619	0.116988	0.656386
	H30	H	0.776105	0.115392	0.343443
	H31	H	0.773000	0.892928	0.654658
	H32	H	0.344961	0.232389	0.888761
	H33	H	0.657998	0.227735	0.105191
	H34	H	0.344286	0.780584	0.110814
	H35	H	0.655188	0.779716	0.889213
	H36	H	0.343571	0.896709	0.225273
	H37	H	0.654553	0.117345	0.226649
	H38	H	0.344763	0.116367	0.773019
	H39	H	0.655231	0.895558	0.772438
	H40	H	0.892363	0.231766	0.344380
	H41	H	0.111663	0.234065	0.655930
	H42	H	0.111099	0.782099	0.344425
	H43	H	0.894447	0.783154	0.657925
	H44	H	0.223893	0.348843	0.893326
	H45	H	0.228774	0.660490	0.114197
	H46	H	0.775941	0.349023	0.108022
	H47	H	0.775720	0.663798	0.891760
	H48	H	0.412086	0.118390	0.583581
	H49	H	0.578878	0.899464	0.577908
	H50	H	0.592416	0.118931	0.415241
	H51	H	0.408804	0.895201	0.418799
	H52	H	0.588114	0.414618	0.113377
	H53	H	0.589264	0.589949	0.889194
	H54	H	0.424094	0.593757	0.109037
	H55	H	0.411080	0.422216	0.888067
	H56	H	0.113974	0.595029	0.407938
	H57	H	0.889341	0.596741	0.584599
	H58	H	0.111164	0.422946	0.590191
	H59	H	0.892585	0.425588	0.420166
	H60	H	0.113546	0.417229	0.590144
	H61	H	0.890748	0.589507	0.587344
	H62	H	0.111406	0.595821	0.416595
	H63	H	0.886990	0.423679	0.408140
	H64	H	0.410207	0.599922	0.116573
	H65	H	0.584766	0.593956	0.889158
	H66	H	0.590522	0.420233	0.112802
	H67	H	0.414613	0.421628	0.888578
	H68	H	0.586105	0.118644	0.409789
	H69	H	0.597769	0.891088	0.581586
	H70	H	0.412444	0.118710	0.587058
	H71	H	0.409683	0.891730	0.408122
	H72	H	0.910341	0.619661	0.087524
	H73	H	0.080485	0.396740	0.085041
	H74	H	0.085905	0.618586	0.911926
	H75	H	0.912810	0.393909	0.910926
	H76	H	0.094939	0.921729	0.614434
	H77	H	0.084582	0.091775	0.390666
	H78	H	0.912832	0.086943	0.610980
	H79	H	0.914210	0.921221	0.388665
	H80	H	0.614356	0.097453	0.910644
	H81	H	0.389751	0.091319	0.083362
	H82	H	0.607418	0.926722	0.082789
	H83	H	0.387840	0.916510	0.914337
	H84	H	0.612781	0.921962	0.092456
	H85	H	0.387327	0.091792	0.088198
	H86	H	0.610017	0.091639	0.915199
	H87	H	0.389922	0.922562	0.912960
	H88	H	0.918052	0.092183	0.610302
	H89	H	0.086139	0.096587	0.387678
	H90	H	0.082755	0.923336	0.609479
	H91	H	0.916399	0.918294	0.388335
	H92	H	0.087078	0.618362	0.915723
	H93	H	0.090734	0.395131	0.081072
	H94	H	0.916559	0.616991	0.087959
	H95	H	0.910406	0.395030	0.915365
	H96	H	0.415419	0.117470	0.585563
	H97	H	0.582815	0.891159	0.596692
	H98	H	0.585172	0.115001	0.417366
	H99	H	0.418448	0.896899	0.412666
	H100	H	0.584290	0.418919	0.111180
	H101	H	0.589532	0.596013	0.886864
	H102	H	0.410360	0.583804	0.110630
	H103	H	0.412877	0.419198	0.886703
	H104	H	0.110281	0.587942	0.412146
	H105	H	0.887469	0.594980	0.592395
	H106	H	0.110130	0.419638	0.584973
	H107	H	0.887318	0.413876	0.416863
	H108	H	0.913400	0.616764	0.081852
	H109	H	0.088004	0.392258	0.091918
	H110	H	0.089441	0.619461	0.913274
	H111	H	0.908433	0.392380	0.911296
	H112	H	0.086503	0.911543	0.614653
	H113	H	0.089975	0.092078	0.388010
	H114	H	0.911466	0.094230	0.613735
	H115	H	0.913244	0.917840	0.386788
	H116	H	0.612165	0.089554	0.907376
	H117	H	0.387603	0.095824	0.084850
	H118	H	0.611492	0.915215	0.082541
	H119	H	0.386194	0.918849	0.909087
	C120	C	0.378521	0.015057	0.620763
	C121	C	0.621746	0.996862	0.620315
	C122	C	0.621902	0.014353	0.378373
	C123	C	0.378266	0.998109	0.378709
	C124	C	0.621757	0.384708	0.008597
	C125	C	0.621912	0.628624	0.991582
	C126	C	0.379429	0.627305	0.008925
	C127	C	0.379223	0.385159	0.991095
	C128	C	0.008958	0.628433	0.378243
	C129	C	0.992518	0.627688	0.622114
	C130	C	0.008781	0.384649	0.622756
	C131	C	0.991574	0.385721	0.379306
	C132	C	0.878301	0.514937	0.121205
	C133	C	0.121684	0.497394	0.121717
	C134	C	0.120914	0.514682	0.880197
	C135	C	0.877500	0.497846	0.878898
	C136	C	0.122256	0.885472	0.508998
	C137	C	0.122066	0.128866	0.491652
	C138	C	0.879517	0.126565	0.508622
	C139	C	0.879653	0.883846	0.491066
	C140	C	0.509659	0.128361	0.875895
	C141	C	0.491431	0.127700	0.120482
	C142	C	0.507906	0.885767	0.120896
	C143	C	0.491471	0.885450	0.878260
	C144	C	0.374351	0.896572	0.683409
	C145	C	0.626917	0.114791	0.682682
	C146	C	0.625263	0.896590	0.315438
	C147	C	0.372294	0.115471	0.314524
	C148	C	0.683843	0.381321	0.890482
	C149	C	0.684375	0.634236	0.109413
	C150	C	0.316111	0.633575	0.891686
	C151	C	0.317140	0.379156	0.109148
	C152	C	0.891491	0.691583	0.374011
	C153	C	0.110663	0.689098	0.626060
	C154	C	0.891184	0.321708	0.627345
	C155	C	0.108228	0.321763	0.372761
	C156	C	0.891044	0.379558	0.685245
	C157	C	0.109995	0.632218	0.684856
	C158	C	0.891507	0.634601	0.315127
	C159	C	0.107882	0.379194	0.314329
	C160	C	0.376419	0.688765	0.890107
	C161	C	0.627545	0.692778	0.108784
	C162	C	0.627186	0.322843	0.890380
	C163	C	0.374810	0.321113	0.108228
	C164	C	0.685455	0.896987	0.370923
	C165	C	0.685154	0.114424	0.625260
	C166	C	0.314588	0.897771	0.627767
	C167	C	0.315333	0.116186	0.372945
	C168	C	0.871809	0.397882	0.185717
	C169	C	0.126760	0.615209	0.184759
	C170	C	0.124648	0.395938	0.818720
	C171	C	0.875112	0.616824	0.817735
	C172	C	0.183782	0.882391	0.390380
	C173	C	0.184947	0.134136	0.609139
	C174	C	0.816868	0.132392	0.390888
	C175	C	0.815340	0.877196	0.608052
	C176	C	0.392134	0.191486	0.871378
	C177	C	0.609824	0.188909	0.124217
	C178	C	0.391062	0.822090	0.126701
	C179	C	0.608701	0.821621	0.872841
	C180	C	0.390760	0.880043	0.184120
	C181	C	0.607887	0.133911	0.184977
	C182	C	0.391958	0.133616	0.813474
	C183	C	0.608680	0.879456	0.814555
	C184	C	0.874689	0.190428	0.391228
	C185	C	0.128051	0.192672	0.608802
	C186	C	0.127180	0.823606	0.390989
	C187	C	0.875911	0.822374	0.610003
	C188	C	0.183102	0.396279	0.876012
	C189	C	0.186718	0.613780	0.129472
	C190	C	0.815973	0.396728	0.126141
	C191	C	0.816412	0.616518	0.874530
	C192	C	0.405602	0.096711	0.593353
	C193	C	0.594467	0.915040	0.593164
	C194	C	0.595593	0.096130	0.406014
	C195	C	0.404724	0.916267	0.405649
	C196	C	0.595190	0.410473	0.090891
	C197	C	0.595434	0.601391	0.909895
	C198	C	0.406898	0.600121	0.090792
	C199	C	0.405464	0.412962	0.909191
	C200	C	0.090496	0.600996	0.404617
	C201	C	0.910594	0.601123	0.595511
	C202	C	0.090242	0.412029	0.596123
	C203	C	0.910121	0.413247	0.407043
	C204	C	0.905585	0.596418	0.093692
	C205	C	0.094132	0.415922	0.093900
	C206	C	0.094925	0.597124	0.906251
	C207	C	0.903211	0.415450	0.905096
	C208	C	0.095917	0.911248	0.591393
	C209	C	0.094785	0.101517	0.410004
	C210	C	0.906274	0.098851	0.590378
	C211	C	0.906748	0.911119	0.409260
	C212	C	0.590887	0.100996	0.903181
	C213	C	0.409634	0.100822	0.093333
	C214	C	0.589380	0.913395	0.093658
	C215	C	0.409570	0.911864	0.904783
	Zn216	Zn	0.499798	0.005599	0.748597
	Zn217	Zn	0.499181	0.006269	0.249860
	Zn218	Zn	0.749452	0.506936	0.000852
	Zn219	Zn	0.250247	0.506290	0.000502
	Zn220	Zn	0.001656	0.756611	0.500737
	Zn221	Zn	-0.000051	0.256631	0.500620
	Zn222	Zn	0.000043	0.506911	0.751248
	Zn223	Zn	-0.000087	0.506685	0.249671
	Zn224	Zn	0.499744	0.756232	0.000349
	Zn225	Zn	0.501146	0.256383	-0.001329
	Zn226	Zn	0.750889	0.004786	0.499313
	Zn227	Zn	0.249978	0.007166	0.499955
	N228	N	0.413245	0.970489	0.679168
	N229	N	0.588219	0.040555	0.679767
	N230	N	0.586578	0.970612	0.319778
	N231	N	0.410714	0.041284	0.317974
	N232	N	0.680502	0.419420	0.964931
	N233	N	0.681018	0.595104	0.035652
	N234	N	0.317591	0.596433	0.966763
	N235	N	0.319890	0.418421	0.035312
	N236	N	0.965696	0.688094	0.412116
	N237	N	0.036740	0.686299	0.587440
	N238	N	0.965474	0.324614	0.589334
	N239	N	0.034942	0.325995	0.412597
	N240	N	0.965203	0.417869	0.682740
	N241	N	0.035419	0.594847	0.682485
	N242	N	0.965592	0.596073	0.317423
	N243	N	0.034100	0.418276	0.318266
	N244	N	0.414850	0.685246	0.964202
	N245	N	0.589543	0.689495	0.034543
	N246	N	0.589173	0.324916	0.964713
	N247	N	0.412605	0.324579	0.033629
	N248	N	0.683544	0.971219	0.409430
	N249	N	0.682167	0.039923	0.587370
	N250	N	0.316851	0.972493	0.589722
	N251	N	0.319042	0.042379	0.412666
	N252	N	0.909777	0.472355	0.182888
	N253	N	0.086756	0.541873	0.179939
	N254	N	0.086818	0.470649	0.821119
	N255	N	0.912173	0.541941	0.820229
	N256	N	0.180924	0.920093	0.464972
	N257	N	0.181168	0.094977	0.535284
	N258	N	0.819810	0.093375	0.464934
	N259	N	0.817217	0.914486	0.533011
	N260	N	0.466475	0.188703	0.909391
	N261	N	0.536269	0.185308	0.084904
	N262	N	0.464982	0.825657	0.087683
	N263	N	0.534967	0.825257	0.912007
	N264	N	0.464476	0.919062	0.180546
	N265	N	0.533136	0.096778	0.182892
	N266	N	0.466084	0.095476	0.815928
	N267	N	0.535023	0.918523	0.818043
	N268	N	0.912731	0.187110	0.465547
	N269	N	0.089710	0.189444	0.534628
	N270	N	0.089842	0.825373	0.465704
	N271	N	0.915094	0.826513	0.536205
	N272	N	0.181101	0.471241	0.913236
	N273	N	0.183866	0.539418	0.091194
	N274	N	0.819887	0.470492	0.086787
	N275	N	0.817799	0.541645	0.911941
	O276	O	0.285585	0.525625	0.288981
	H277	H	0.283678	0.514781	0.258808
	H278	H	0.303434	0.508026	0.270876
	O279	O	1.013262	0.216867	1.212459
	H280	H	1.030476	0.228472	1.199632
	H281	H	1.041946	0.235296	1.226414
	O282	O	0.717911	0.721670	0.520059
	H283	H	0.678136	0.731143	0.497575
	H284	H	0.746141	0.758684	0.518753
	O285	O	0.320333	0.686628	0.326706
	H286	H	0.373235	0.694017	0.315232
	H287	H	0.308244	0.633346	0.313662
	O288	O	1.023854	1.020940	-0.028020
	H289	H	1.027034	1.018745	-0.036014
	H290	H	1.037457	0.997633	-0.033322
	O291	O	0.280707	0.487424	0.719268
	H292	H	0.265708	0.458888	0.734699
	H293	H	0.274319	0.458544	0.716997
	O294	O	-0.078339	0.057148	1.220688
	H295	H	-0.056066	0.092379	1.221761
	H296	H	-0.049124	0.043858	1.218748
	O297	O	0.520265	0.291185	0.285041
	H298	H	0.517795	0.277372	0.299310
	H299	H	0.513620	0.261968	0.280096
	O300	O	1.047325	0.947478	0.211956
	H301	H	1.034964	0.913219	0.205669
	H302	H	1.061929	0.946132	0.213251
	O303	O	0.520289	0.704867	0.697917
	H304	H	0.497717	0.695882	0.709460
	H305	H	0.502005	0.702096	0.695552
	O306	O	0.440931	0.687676	0.533607
	H307	H	0.421689	0.677082	0.541006
	H308	H	0.426536	0.681053	0.533609
	O309	O	0.287862	0.289577	0.518276
	H310	H	0.271750	0.323930	0.496403
	H311	H	0.247814	0.272376	0.515133
	O312	O	0.216228	0.987636	0.789334
	H313	H	0.176319	1.002703	0.782652
	H314	H	0.240411	0.988607	0.750920
	O315	O	0.282439	0.461446	0.462202
	H316	H	0.277078	0.500455	0.474790
	H317	H	0.296051	0.479091	0.437128
	O318	O	0.976451	0.006330	0.002592
	H319	H	0.975710	0.006094	0.022538
	H320	H	0.990942	-0.002084	-0.018188
	O321	O	-0.172843	-0.174789	0.176051
	H322	H	-0.186560	-0.185937	0.122524
	H323	H	-0.187519	-0.121920	0.184734
	O324	O	0.561045	0.292544	0.561293
	H325	H	0.580432	0.281528	0.551592
	H326	H	0.556419	0.318262	0.569401
	O327	O	0.714483	0.292242	0.484403
	H328	H	0.724330	0.275591	0.465395
	H329	H	0.709034	0.282429	0.463904
	O330	O	-0.017605	0.785329	0.219605
	H331	H	-0.030356	0.752406	0.251747
	H332	H	-0.064740	0.792513	0.210463
	O333	O	0.682290	0.681574	0.680090
	H334	H	0.694053	0.693888	0.626882
	H335	H	0.628310	0.691175	0.687669
	O336	O	-0.071051	-0.052795	-0.204033
	H337	H	-0.072222	-0.071780	-0.189359
	H338	H	-0.114566	-0.043741	-0.213373
	O339	O	-0.221903	1.024112	0.780636
	H340	H	-0.251482	1.036832	0.750116
	H341	H	-0.216289	1.070820	0.786546
	O342	O	0.219189	0.789765	0.981795
	H343	H	0.205931	0.765660	0.993353
	H344	H	0.222575	0.764235	0.972173
	O345	O	0.785148	0.989954	0.192766
	H346	H	0.762641	0.991727	0.228966
	H347	H	0.822442	1.017184	0.203631
	O348	O	0.422749	0.568911	0.705963
	H349	H	0.416449	0.547084	0.708185
	H350	H	0.404530	0.544170	0.711403
	O351	O	0.177378	0.827179	0.820897
	H352	H	0.193543	0.871213	0.817603
	H353	H	0.164264	0.816568	0.846064
	O354	O	-0.286340	0.486482	0.284811
	H355	H	-0.265496	0.500808	0.296153
	H356	H	-0.256310	0.495619	0.292004
	O357	O	-0.202566	-0.207188	1.013808
	H358	H	-0.211926	-0.164064	0.985521
	H359	H	-0.246730	-0.235177	1.014888
	O360	O	0.401709	0.441835	0.314932
	H361	H	0.416630	0.411924	0.318580
	H362	H	0.434329	0.471862	0.313245
	O363	O	0.064764	-0.213301	1.064059
	H364	H	0.035321	-0.207170	1.067867
	H365	H	0.045196	-0.220189	1.081702
	O366	O	0.818052	0.180428	0.817488
	H367	H	0.870718	0.193258	0.804254
	H368	H	0.812615	0.191574	0.870598
	O369	O	0.320822	0.330292	0.679417
	H370	H	0.311010	0.316007	0.625891
	H371	H	0.374207	0.317593	0.689415
	O372	O	1.212335	-0.055831	1.051416
	H373	H	1.184518	-0.072862	1.050017
	H374	H	1.216108	-0.090764	1.042421
	O375	O	0.678502	0.326960	0.325359
	H376	H	0.666033	0.347967	0.322075
	H377	H	0.661407	0.348002	0.316008
	O378	O	0.497621	0.480739	0.558296
	H379	H	0.492706	0.474277	0.550647
	H380	H	0.494686	0.473953	0.564354
	O381	O	0.712256	0.584471	0.433339
	H382	H	0.708147	0.561475	0.464685
	H383	H	0.706941	0.610766	0.456077
	O384	O	0.713779	0.464483	0.540841
	H385	H	0.715213	0.475145	0.590604
	H386	H	0.719045	0.417652	0.535907
	O387	O	-0.196904	0.196286	0.983422
	H388	H	-0.208643	0.194717	0.992012
	H389	H	-0.202885	0.182233	1.005639
	O390	O	0.212737	0.218585	0.021790
	H391	H	0.225275	0.175506	-0.003806
	H392	H	0.241716	0.246750	0.017320
	O393	O	1.015841	0.801474	0.796665
	H394	H	1.009922	0.792901	0.787015
	H395	H	1.036108	0.808302	0.795578
	O396	O	1.047680	0.218884	-0.063810
	H397	H	1.070679	0.206124	-0.046286
	H398	H	1.040060	0.220786	-0.033315
	O399	O	0.957643	0.218518	1.052347
	H400	H	0.942578	0.226564	1.052394
	H401	H	0.960278	0.210377	1.068049
	O402	O	0.954332	0.803351	0.957230
	H403	H	0.928851	0.802892	0.974373
	H404	H	0.947315	0.801624	0.932916
	O405	O	1.059300	1.053268	-0.222935
	H406	H	1.022551	1.046995	-0.222578
	H407	H	1.038155	1.073331	-0.218030
	O408	O	1.172783	0.185352	0.181037
	H409	H	1.179256	0.139985	0.190449
	H410	H	1.185845	0.197888	0.127981
	O411	O	0.788197	1.079435	0.076502
	H412	H	0.800877	1.070281	0.084141
	H413	H	0.796039	1.067243	0.101728
	O414	O	0.556486	0.560857	0.281060
	H415	H	0.582425	0.548065	0.293697
	H416	H	0.571016	0.571568	0.285903
	O417	O	0.508073	0.510076	0.417004
	H418	H	0.533711	0.507042	0.424704
	H419	H	0.495274	0.490367	0.422832
	O420	O	-0.221949	-0.064624	-0.058363
	H421	H	-0.213495	-0.041932	-0.069131
	H422	H	-0.220378	-0.036906	-0.074136
	O423	O	0.717623	0.524347	0.719052
	H424	H	0.747408	0.529081	0.755342
	H425	H	0.705546	0.577960	0.706549
	O426	O	0.321878	0.593974	0.547050
	H427	H	0.315467	0.620266	0.559325
	H428	H	0.306875	0.601145	0.569281
	O429	O	0.279834	0.728446	0.481212
	H430	H	0.240672	0.766889	0.474421
	H431	H	0.293889	0.713637	0.428012
	O432	O	0.508258	0.349299	0.711043
	H433	H	0.517674	0.338141	0.729849
	H434	H	0.525666	0.348987	0.722882
	O435	O	0.447163	0.289204	0.442177
	H436	H	0.412202	0.284378	0.465027
	H437	H	0.458046	0.294813	0.452779
	O438	O	0.204005	0.020872	0.201364
	H439	H	0.212100	0.015118	0.209050
	H440	H	0.210186	0.000414	0.180726
	O441	O	1.223937	0.071077	-0.055928
	H442	H	1.223769	0.045108	-0.067284
	H443	H	1.223881	0.036213	-0.054702
	O444	O	-0.022761	1.220189	0.779319
	H445	H	0.000892	1.228426	0.805242
	H446	H	-0.019487	1.256938	0.760660
	O447	O	0.561563	0.692330	0.458973
	H448	H	0.538305	0.685741	0.475397
	H449	H	0.539520	0.673430	0.462968
	O450	O	0.483525	0.708730	0.300500
	H451	H	0.490479	0.716874	0.285114
	H452	H	0.510126	0.696638	0.320146
	O453	O	0.545972	0.390280	0.696799
	H454	H	0.558078	0.401316	0.684741
	H455	H	0.548518	0.389160	0.694893
