data_Molecule from HDF5

_cell_length_a		16.267352
_cell_length_b		16.285854
_cell_length_c		16.343774
_cell_angle_alpha	90.089653
_cell_angle_beta	90.009350
_cell_angle_gamma	90.066834
_symmetry_space_group_name_H-M	'P 1'
_symmetry_Int_Tables_number		1

loop_
	_symmetry_equiv_pos_as_xyz
	x,y,z

loop_
	_atom_site_label
	_atom_site_type_symbol
	_atom_site_fract_x
	_atom_site_fract_y
	_atom_site_fract_z
	H0	H	0.401994	0.836151	0.714561
	H1	H	0.598670	0.163482	0.715442
	H2	H	0.598810	0.836701	0.284481
	H3	H	0.402048	0.164655	0.287406
	H4	H	0.714591	0.402458	0.836531
	H5	H	0.712897	0.597314	0.164368
	H6	H	0.285092	0.597824	0.836497
	H7	H	0.286109	0.402825	0.163896
	H8	H	0.836017	0.713359	0.402828
	H9	H	0.163584	0.713802	0.597995
	H10	H	0.835850	0.286281	0.596698
	H11	H	0.164067	0.286536	0.402344
	H12	H	0.835737	0.401173	0.713777
	H13	H	0.162407	0.599758	0.715327
	H14	H	0.835772	0.596864	0.286363
	H15	H	0.163815	0.401865	0.286057
	H16	H	0.403496	0.712988	0.836357
	H17	H	0.597197	0.713947	0.163322
	H18	H	0.597714	0.285397	0.836977
	H19	H	0.402433	0.286278	0.163792
	H20	H	0.713665	0.836159	0.402263
	H21	H	0.713375	0.164094	0.597363
	H22	H	0.286595	0.835907	0.597208
	H23	H	0.286750	0.164033	0.404819
	H24	H	0.900866	0.335773	0.213817
	H25	H	0.098496	0.663607	0.214756
	H26	H	0.098626	0.336602	0.783876
	H27	H	0.900157	0.662975	0.783694
	H28	H	0.213667	0.901858	0.336177
	H29	H	0.213162	0.097008	0.664013
	H30	H	0.785695	0.096889	0.336442
	H31	H	0.785096	0.900639	0.663213
	H32	H	0.336003	0.213442	0.902452
	H33	H	0.663892	0.214380	0.098054
	H34	H	0.336826	0.786164	0.097242
	H35	H	0.664262	0.787050	0.903459
	H36	H	0.336717	0.902710	0.213665
	H37	H	0.664090	0.099178	0.214529
	H38	H	0.336064	0.097673	0.786356
	H39	H	0.663992	0.902770	0.786524
	H40	H	0.902851	0.212492	0.336278
	H41	H	0.097136	0.214629	0.663406
	H42	H	0.096167	0.786428	0.336206
	H43	H	0.902466	0.785684	0.663309
	H44	H	0.214041	0.336450	0.901704
	H45	H	0.212389	0.664216	0.096682
	H46	H	0.784889	0.336037	0.097427
	H47	H	0.786691	0.664640	0.903073
	H48	H	0.408113	0.116364	0.594410
	H49	H	0.592243	0.881008	0.601116
	H50	H	0.592395	0.115932	0.408665
	H51	H	0.408054	0.884618	0.407817
	H52	H	0.580109	0.401187	0.114217
	H53	H	0.608824	0.590069	0.880652
	H54	H	0.416512	0.590222	0.112629
	H55	H	0.409754	0.403165	0.884530
	H56	H	0.119096	0.599865	0.404416
	H57	H	0.881683	0.601838	0.586378
	H58	H	0.115265	0.412268	0.597398
	H59	H	0.881925	0.401795	0.405551
	H60	H	0.117988	0.402629	0.593524
	H61	H	0.886983	0.583954	0.588843
	H62	H	0.114539	0.591773	0.412862
	H63	H	0.884708	0.407758	0.409738
	H64	H	0.404546	0.604824	0.119189
	H65	H	0.584497	0.583290	0.889381
	H66	H	0.603914	0.398417	0.121169
	H67	H	0.402224	0.405523	0.882901
	H68	H	0.595824	0.116876	0.406854
	H69	H	0.585888	0.886646	0.590514
	H70	H	0.406432	0.116609	0.592712
	H71	H	0.404212	0.882787	0.405692
	H72	H	0.907704	0.617672	0.099505
	H73	H	0.084337	0.388267	0.085210
	H74	H	0.093098	0.615379	0.910622
	H75	H	0.910541	0.384689	0.904583
	H76	H	0.099774	0.898857	0.619539
	H77	H	0.090008	0.089684	0.386239
	H78	H	0.911902	0.090163	0.613542
	H79	H	0.899890	0.907100	0.382789
	H80	H	0.615500	0.091091	0.908795
	H81	H	0.383403	0.094592	0.092922
	H82	H	0.619160	0.903191	0.094972
	H83	H	0.383182	0.907307	0.904743
	H84	H	0.616183	0.907420	0.089236
	H85	H	0.384229	0.092371	0.094502
	H86	H	0.617109	0.092809	0.904125
	H87	H	0.382384	0.904941	0.906127
	H88	H	0.907747	0.099821	0.618019
	H89	H	0.093151	0.099058	0.382248
	H90	H	0.097573	0.914810	0.614027
	H91	H	0.910169	0.910656	0.385911
	H92	H	0.094025	0.617035	0.904770
	H93	H	0.106036	0.380548	0.089347
	H94	H	0.909813	0.614794	0.092445
	H95	H	0.907589	0.385322	0.910311
	H96	H	0.406015	0.116817	0.595530
	H97	H	0.598670	0.882826	0.589067
	H98	H	0.592673	0.117120	0.404697
	H99	H	0.407756	0.883277	0.403505
	H100	H	0.596251	0.420894	0.112353
	H101	H	0.589488	0.608436	0.880895
	H102	H	0.397552	0.586494	0.116445
	H103	H	0.407134	0.411016	0.885582
	H104	H	0.116595	0.588481	0.400757
	H105	H	0.879452	0.593552	0.602811
	H106	H	0.113953	0.410117	0.586728
	H107	H	0.882656	0.408587	0.402339
	H108	H	0.902500	0.616980	0.093435
	H109	H	0.090626	0.380708	0.106469
	H110	H	0.089182	0.614940	0.906776
	H111	H	0.904035	0.382665	0.905941
	H112	H	0.084633	0.904182	0.614887
	H113	H	0.100033	0.091543	0.382708
	H114	H	0.900668	0.090407	0.616753
	H115	H	0.908927	0.900031	0.382267
	H116	H	0.617440	0.095962	0.907632
	H117	H	0.382547	0.095157	0.095411
	H118	H	0.617072	0.910690	0.096281
	H119	H	0.383822	0.907132	0.907267
	C120	C	0.378590	0.008337	0.622094
	C121	C	0.621041	0.991676	0.621521
	C122	C	0.621687	0.008374	0.378357
	C123	C	0.378651	0.991805	0.378359
	C124	C	0.622208	0.378094	0.008421
	C125	C	0.622336	0.621943	0.991866
	C126	C	0.377954	0.621681	0.008139
	C127	C	0.378356	0.378438	0.992364
	C128	C	0.008211	0.621521	0.378033
	C129	C	0.991113	0.621506	0.621349
	C130	C	0.007904	0.378917	0.621021
	C131	C	0.991546	0.377877	0.377879
	C132	C	0.878682	0.507790	0.121812
	C133	C	0.121736	0.491807	0.121612
	C134	C	0.120653	0.507884	0.878329
	C135	C	0.878474	0.492016	0.878271
	C136	C	0.121978	0.877964	0.508151
	C137	C	0.122111	0.121560	0.491790
	C138	C	0.878692	0.121237	0.508249
	C139	C	0.878219	0.877894	0.491786
	C140	C	0.508085	0.121595	0.878804
	C141	C	0.491852	0.122051	0.122229
	C142	C	0.509137	0.879133	0.121302
	C143	C	0.491412	0.878198	0.878152
	C144	C	0.381263	0.885072	0.676666
	C145	C	0.618822	0.114912	0.676736
	C146	C	0.618546	0.885301	0.323311
	C147	C	0.381570	0.115414	0.324459
	C148	C	0.676731	0.381148	0.885448
	C149	C	0.676111	0.618508	0.115144
	C150	C	0.323247	0.618544	0.885303
	C151	C	0.323678	0.381984	0.115205
	C152	C	0.884828	0.675616	0.381707
	C153	C	0.114510	0.676047	0.618381
	C154	C	0.884746	0.323762	0.617854
	C155	C	0.115056	0.323744	0.381267
	C156	C	0.884427	0.380893	0.675713
	C157	C	0.113945	0.619638	0.676863
	C158	C	0.884912	0.617949	0.323659
	C159	C	0.115058	0.381196	0.323662
	C160	C	0.381834	0.675877	0.885104
	C161	C	0.618548	0.676305	0.114833
	C162	C	0.618621	0.323398	0.885312
	C163	C	0.381758	0.324443	0.115290
	C164	C	0.676004	0.884936	0.381464
	C165	C	0.675909	0.115230	0.618385
	C166	C	0.324056	0.884780	0.618386
	C167	C	0.324563	0.115463	0.383099
	C168	C	0.880952	0.384606	0.176064
	C169	C	0.118609	0.614739	0.176189
	C170	C	0.118709	0.385166	0.822428
	C171	C	0.880661	0.614739	0.822717
	C172	C	0.176089	0.881364	0.384985
	C173	C	0.175865	0.118225	0.615193
	C174	C	0.824263	0.117552	0.385013
	C175	C	0.823282	0.880585	0.614708
	C176	C	0.384925	0.175906	0.881812
	C177	C	0.615284	0.176688	0.118713
	C178	C	0.385366	0.824389	0.118055
	C179	C	0.615345	0.824376	0.882167
	C180	C	0.385599	0.881972	0.175831
	C181	C	0.615186	0.119881	0.176819
	C182	C	0.385046	0.118547	0.824082
	C183	C	0.615302	0.881765	0.824224
	C184	C	0.881992	0.175332	0.385094
	C185	C	0.118547	0.176804	0.614656
	C186	C	0.117881	0.823979	0.384909
	C187	C	0.881377	0.823143	0.614663
	C188	C	0.176012	0.385136	0.880814
	C189	C	0.175631	0.615176	0.117935
	C190	C	0.823421	0.384723	0.118155
	C191	C	0.824192	0.615486	0.881926
	C192	C	0.400389	0.094508	0.600489
	C193	C	0.598940	0.905670	0.599946
	C194	C	0.600194	0.094484	0.400428
	C195	C	0.400177	0.905741	0.399342
	C196	C	0.600099	0.400115	0.093925
	C197	C	0.600792	0.600271	0.905871
	C198	C	0.399792	0.600236	0.094136
	C199	C	0.400052	0.400207	0.906539
	C200	C	0.094626	0.599964	0.399815
	C201	C	0.904819	0.599633	0.599181
	C202	C	0.093575	0.401650	0.599113
	C203	C	0.905248	0.399692	0.399535
	C204	C	0.900246	0.594238	0.101087
	C205	C	0.100012	0.405183	0.100087
	C206	C	0.098333	0.593776	0.900584
	C207	C	0.900755	0.406420	0.900369
	C208	C	0.100397	0.899354	0.593921
	C209	C	0.100804	0.099768	0.405960
	C210	C	0.900482	0.099736	0.593988
	C211	C	0.899883	0.899513	0.405971
	C212	C	0.594401	0.099798	0.900559
	C213	C	0.405479	0.100376	0.100800
	C214	C	0.595143	0.900497	0.099747
	C215	C	0.405441	0.899994	0.899696
	Zn216	Zn	0.500181	-0.000193	0.750398
	Zn217	Zn	0.500299	0.000939	0.249543
	Zn218	Zn	0.750348	0.500469	0.000209
	Zn219	Zn	0.249342	0.500154	-0.000026
	Zn220	Zn	0.000024	0.749450	0.500004
	Zn221	Zn	-0.000041	0.250313	0.499559
	Zn222	Zn	-0.000644	0.499925	0.748760
	Zn223	Zn	-0.000050	0.499233	0.250228
	Zn224	Zn	0.500358	0.750423	0.000003
	Zn225	Zn	0.500062	0.249777	0.000525
	Zn226	Zn	0.749859	-0.000003	0.500344
	Zn227	Zn	0.250566	-0.000543	0.500219
	N228	N	0.414529	0.962829	0.678906
	N229	N	0.585466	0.037306	0.678770
	N230	N	0.585669	0.963085	0.321310
	N231	N	0.414611	0.037705	0.321642
	N232	N	0.678737	0.414788	0.962596
	N233	N	0.678276	0.585325	0.037584
	N234	N	0.320946	0.585759	0.962849
	N235	N	0.321590	0.414935	0.037774
	N236	N	0.962624	0.677981	0.414654
	N237	N	0.036972	0.677430	0.584510
	N238	N	0.962423	0.322328	0.584568
	N239	N	0.037371	0.321861	0.414505
	N240	N	0.961956	0.414554	0.677697
	N241	N	0.036285	0.586250	0.678447
	N242	N	0.962681	0.584907	0.321550
	N243	N	0.037151	0.414009	0.321345
	N244	N	0.415113	0.677975	0.962607
	N245	N	0.585760	0.678509	0.037142
	N246	N	0.585423	0.321471	0.962798
	N247	N	0.414927	0.322094	0.037925
	N248	N	0.677862	0.962427	0.415150
	N249	N	0.677408	0.037667	0.584775
	N250	N	0.322325	0.962461	0.585360
	N251	N	0.322537	0.037676	0.415935
	N252	N	0.914620	0.462231	0.178420
	N253	N	0.085687	0.536805	0.178585
	N254	N	0.085129	0.462632	0.820793
	N255	N	0.913902	0.537022	0.820549
	N256	N	0.178680	0.914200	0.462637
	N257	N	0.178399	0.084589	0.537804
	N258	N	0.822014	0.084682	0.462598
	N259	N	0.821321	0.913890	0.537445
	N260	N	0.462454	0.177789	0.915215
	N261	N	0.537723	0.178009	0.085344
	N262	N	0.463024	0.822668	0.084513
	N263	N	0.537437	0.821973	0.914889
	N264	N	0.463310	0.915243	0.177940
	N265	N	0.537464	0.086641	0.178838
	N266	N	0.462862	0.085486	0.822059
	N267	N	0.537405	0.914375	0.821631
	N268	N	0.915101	0.177528	0.462576
	N269	N	0.085844	0.178746	0.537134
	N270	N	0.084786	0.821874	0.462269
	N271	N	0.914907	0.821357	0.537325
	N272	N	0.177089	0.462362	0.915025
	N273	N	0.177485	0.537519	0.084773
	N274	N	0.821996	0.462314	0.085155
	N275	N	0.822656	0.538195	0.915610
