data_Molecule from HDF5

_cell_length_a		16.145050
_cell_length_b		16.453153
_cell_length_c		16.268940
_cell_angle_alpha	90.488684
_cell_angle_beta	89.754663
_cell_angle_gamma	89.293785
_symmetry_space_group_name_H-M	'P 1'
_symmetry_Int_Tables_number		1

loop_
	_symmetry_equiv_pos_as_xyz
	x,y,z

loop_
	_atom_site_label
	_atom_site_type_symbol
	_atom_site_fract_x
	_atom_site_fract_y
	_atom_site_fract_z
	H0	H	0.397471	0.838508	0.716571
	H1	H	0.597873	0.159082	0.721969
	H2	H	0.601882	0.839498	0.281140
	H3	H	0.392169	0.160171	0.283642
	H4	H	0.713661	0.397756	0.838032
	H5	H	0.708517	0.599252	0.164964
	H6	H	0.280871	0.598406	0.836671
	H7	H	0.281741	0.406464	0.164538
	H8	H	0.833892	0.720665	0.401570
	H9	H	0.159865	0.716732	0.605383
	H10	H	0.833909	0.285547	0.605472
	H11	H	0.158041	0.278216	0.394690
	H12	H	0.833203	0.404535	0.716215
	H13	H	0.161004	0.598295	0.716036
	H14	H	0.831315	0.601655	0.289020
	H15	H	0.159345	0.396310	0.283089
	H16	H	0.393796	0.717443	0.837764
	H17	H	0.596870	0.719527	0.163058
	H18	H	0.603040	0.277159	0.840246
	H19	H	0.389116	0.282836	0.162307
	H20	H	0.716611	0.839202	0.399797
	H21	H	0.709501	0.162320	0.602582
	H22	H	0.283787	0.837439	0.598104
	H23	H	0.277248	0.159952	0.400840
	H24	H	0.892828	0.339793	0.220345
	H25	H	0.095564	0.660212	0.221282
	H26	H	0.103001	0.340695	0.780113
	H27	H	0.891986	0.661654	0.785193
	H28	H	0.212697	0.898040	0.337930
	H29	H	0.209793	0.097824	0.663940
	H30	H	0.780229	0.101373	0.339037
	H31	H	0.782685	0.906569	0.665609
	H32	H	0.333643	0.220155	0.897633
	H33	H	0.658283	0.217652	0.103903
	H34	H	0.332290	0.790062	0.099731
	H35	H	0.659143	0.778246	0.894640
	H36	H	0.333391	0.904591	0.215304
	H37	H	0.661323	0.098733	0.214437
	H38	H	0.332284	0.100518	0.786604
	H39	H	0.660800	0.896923	0.783918
	H40	H	0.890988	0.220361	0.340811
	H41	H	0.099470	0.219195	0.662147
	H42	H	0.102974	0.777759	0.340843
	H43	H	0.892971	0.785499	0.664239
	H44	H	0.216102	0.339515	0.897990
	H45	H	0.207971	0.662565	0.100894
	H46	H	0.780767	0.338386	0.100096
	H47	H	0.778007	0.661903	0.904787
	H48	H	0.399725	0.114680	0.592647
	H49	H	0.599283	0.882671	0.591702
	H50	H	0.592310	0.116935	0.407096
	H51	H	0.410938	0.884057	0.399873
	H52	H	0.587399	0.404237	0.118106
	H53	H	0.586741	0.588067	0.886183
	H54	H	0.400182	0.598907	0.117643
	H55	H	0.407270	0.410743	0.886247
	H56	H	0.114368	0.589916	0.406818
	H57	H	0.881977	0.591948	0.589571
	H58	H	0.113927	0.408879	0.591088
	H59	H	0.878856	0.408939	0.409928
	H60	H	0.113665	0.405302	0.588655
	H61	H	0.879086	0.593471	0.598677
	H62	H	0.111943	0.591899	0.415505
	H63	H	0.880082	0.408391	0.413616
	H64	H	0.402193	0.595749	0.116263
	H65	H	0.583459	0.591863	0.885584
	H66	H	0.589159	0.412417	0.115950
	H67	H	0.410254	0.408875	0.886525
	H68	H	0.584560	0.114765	0.403333
	H69	H	0.583763	0.884654	0.598157
	H70	H	0.404131	0.115431	0.596974
	H71	H	0.410876	0.887114	0.411767
	H72	H	0.903171	0.613285	0.093338
	H73	H	0.086214	0.385449	0.092626
	H74	H	0.087709	0.614053	0.913291
	H75	H	0.913161	0.388467	0.910371
	H76	H	0.087838	0.917098	0.614155
	H77	H	0.081699	0.089410	0.386628
	H78	H	0.905096	0.092021	0.616440
	H79	H	0.907144	0.907506	0.386318
	H80	H	0.616321	0.089759	0.901037
	H81	H	0.378872	0.088641	0.098346
	H82	H	0.617006	0.903137	0.094754
	H83	H	0.374953	0.903998	0.898314
	H84	H	0.612982	0.904175	0.082746
	H85	H	0.377291	0.099922	0.091019
	H86	H	0.612062	0.097439	0.920302
	H87	H	0.380037	0.901942	0.918638
	H88	H	0.907839	0.097742	0.617240
	H89	H	0.086966	0.091971	0.383957
	H90	H	0.080344	0.901433	0.617103
	H91	H	0.909410	0.911626	0.386935
	H92	H	0.090018	0.616876	0.906207
	H93	H	0.088968	0.386834	0.089231
	H94	H	0.900704	0.615263	0.095839
	H95	H	0.901196	0.385647	0.911217
	H96	H	0.405675	0.112531	0.591706
	H97	H	0.586914	0.888763	0.582472
	H98	H	0.586450	0.114258	0.411801
	H99	H	0.400550	0.882774	0.406833
	H100	H	0.580650	0.408211	0.114358
	H101	H	0.587724	0.592277	0.884507
	H102	H	0.404167	0.599123	0.116610
	H103	H	0.408000	0.407320	0.884807
	H104	H	0.110976	0.583965	0.412313
	H105	H	0.878080	0.600569	0.591734
	H106	H	0.112377	0.409858	0.587692
	H107	H	0.880697	0.411975	0.412570
	H108	H	0.903871	0.614099	0.096697
	H109	H	0.090266	0.384669	0.093097
	H110	H	0.082804	0.615078	0.907151
	H111	H	0.907571	0.384192	0.900390
	H112	H	0.097719	0.904298	0.621357
	H113	H	0.087393	0.086165	0.385769
	H114	H	0.902284	0.096471	0.619524
	H115	H	0.912156	0.907214	0.387143
	H116	H	0.607160	0.077846	0.915338
	H117	H	0.384222	0.089058	0.085284
	H118	H	0.612558	0.914540	0.090366
	H119	H	0.383551	0.920154	0.908276
	C120	C	0.374482	0.007955	0.622759
	C121	C	0.618566	0.991593	0.622406
	C122	C	0.620100	0.009106	0.377337
	C123	C	0.375228	0.990837	0.377596
	C124	C	0.617572	0.377421	0.009250
	C125	C	0.615905	0.621383	0.992517
	C126	C	0.372807	0.624997	0.009014
	C127	C	0.375957	0.379941	0.992919
	C128	C	0.004648	0.620765	0.381640
	C129	C	0.987958	0.623234	0.623235
	C130	C	0.005605	0.379827	0.620881
	C131	C	0.987267	0.377956	0.379450
	C132	C	0.872946	0.508096	0.124392
	C133	C	0.117190	0.492018	0.122443
	C134	C	0.118797	0.509194	0.878065
	C135	C	0.875190	0.492409	0.879039
	C136	C	0.119039	0.877018	0.510173
	C137	C	0.116641	0.120153	0.492077
	C138	C	0.874280	0.124208	0.510438
	C139	C	0.877609	0.880430	0.494062
	C140	C	0.504667	0.120325	0.880788
	C141	C	0.487733	0.121902	0.122089
	C142	C	0.505643	0.880052	0.119730
	C143	C	0.487708	0.877450	0.877894
	C144	C	0.377451	0.886689	0.678239
	C145	C	0.617395	0.111791	0.682000
	C146	C	0.621164	0.887741	0.320046
	C147	C	0.373717	0.111944	0.322143
	C148	C	0.675753	0.377746	0.887024
	C149	C	0.671500	0.620038	0.115558
	C150	C	0.318202	0.619992	0.885604
	C151	C	0.318843	0.384001	0.115208
	C152	C	0.882346	0.680515	0.382382
	C153	C	0.111010	0.678498	0.623973
	C154	C	0.882580	0.324369	0.622779
	C155	C	0.109532	0.317986	0.376683
	C156	C	0.882366	0.383256	0.678261
	C157	C	0.111643	0.619602	0.678912
	C158	C	0.881122	0.621348	0.326249
	C159	C	0.110150	0.377109	0.321501
	C160	C	0.374098	0.679469	0.886346
	C161	C	0.615721	0.679682	0.114824
	C162	C	0.620500	0.317778	0.888078
	C163	C	0.372692	0.322682	0.114124
	C164	C	0.678215	0.887813	0.379039
	C165	C	0.672647	0.113512	0.622163
	C166	C	0.320633	0.886077	0.619479
	C167	C	0.316154	0.111747	0.380442
	C168	C	0.873578	0.387741	0.181370
	C169	C	0.115552	0.612543	0.181465
	C170	C	0.120781	0.388461	0.819811
	C171	C	0.873738	0.613695	0.823789
	C172	C	0.175613	0.877503	0.387208
	C173	C	0.172808	0.118831	0.614842
	C174	C	0.817362	0.122124	0.388243
	C175	C	0.820232	0.884699	0.616333
	C176	C	0.382327	0.180180	0.879314
	C177	C	0.610025	0.178628	0.122526
	C178	C	0.381755	0.826926	0.119293
	C179	C	0.610593	0.818561	0.876836
	C180	C	0.382216	0.883583	0.176912
	C181	C	0.611366	0.119571	0.177738
	C182	C	0.381666	0.120426	0.823982
	C183	C	0.611372	0.877196	0.821092
	C184	C	0.873042	0.181041	0.388930
	C185	C	0.117899	0.179315	0.613797
	C186	C	0.121194	0.817476	0.388922
	C187	C	0.875352	0.824525	0.615787
	C188	C	0.177483	0.388074	0.878519
	C189	C	0.171442	0.613833	0.121576
	C190	C	0.817526	0.386881	0.121574
	C191	C	0.816635	0.613484	0.883026
	C192	C	0.396565	0.092310	0.600396
	C193	C	0.596311	0.907414	0.597988
	C194	C	0.595015	0.093357	0.400543
	C195	C	0.400166	0.906447	0.399697
	C196	C	0.592894	0.401475	0.094010
	C197	C	0.592677	0.597599	0.907622
	C198	C	0.395344	0.604065	0.094580
	C199	C	0.401301	0.402297	0.907832
	C200	C	0.090157	0.595849	0.404867
	C201	C	0.901973	0.601816	0.600081
	C202	C	0.091160	0.401693	0.596281
	C203	C	0.902075	0.402706	0.404715
	C204	C	0.895742	0.592372	0.101803
	C205	C	0.095042	0.407744	0.098495
	C206	C	0.093809	0.593513	0.901900
	C207	C	0.900044	0.407991	0.900861
	C208	C	0.095612	0.900832	0.595510
	C209	C	0.092496	0.096258	0.407560
	C210	C	0.898140	0.101962	0.595556
	C211	C	0.902502	0.902403	0.408872
	C212	C	0.589822	0.095627	0.905110
	C213	C	0.402370	0.099225	0.098424
	C214	C	0.591808	0.901110	0.096133
	C215	C	0.401816	0.901620	0.901475
	Zn216	Zn	0.496756	-0.000713	0.751193
	Zn217	Zn	0.497724	0.000245	0.248610
	Zn218	Zn	0.745162	0.499619	0.001031
	Zn219	Zn	0.246776	0.501311	0.000723
	Zn220	Zn	-0.002315	0.750081	0.502675
	Zn221	Zn	-0.003776	0.250852	0.501221
	Zn222	Zn	-0.002748	0.500771	0.749300
	Zn223	Zn	-0.004386	0.499595	0.252634
	Zn224	Zn	0.496195	0.751599	0.000063
	Zn225	Zn	0.496069	0.249588	0.001435
	Zn226	Zn	0.747760	0.001754	0.501109
	Zn227	Zn	0.246015	-0.001270	0.500193
	N228	N	0.409851	0.963529	0.680518
	N229	N	0.584406	0.035035	0.682194
	N230	N	0.585827	0.964193	0.318615
	N231	N	0.409920	0.035930	0.320417
	N232	N	0.673940	0.414292	0.963403
	N233	N	0.671858	0.584352	0.038833
	N234	N	0.316927	0.587063	0.963066
	N235	N	0.321022	0.419079	0.038834
	N236	N	0.960296	0.680239	0.416100
	N237	N	0.033015	0.681105	0.590383
	N238	N	0.960318	0.322003	0.587823
	N239	N	0.032114	0.318400	0.412195
	N240	N	0.959731	0.417076	0.677117
	N241	N	0.034090	0.585987	0.678813
	N242	N	0.958037	0.584521	0.325910
	N243	N	0.032998	0.413444	0.322870
	N244	N	0.407270	0.682728	0.964015
	N245	N	0.581981	0.680538	0.037379
	N246	N	0.585037	0.317287	0.964985
	N247	N	0.407750	0.320375	0.036895
	N248	N	0.677561	0.964251	0.413965
	N249	N	0.673522	0.037875	0.585779
	N250	N	0.318538	0.962429	0.585706
	N251	N	0.316905	0.035328	0.414126
	N252	N	0.907023	0.464120	0.183181
	N253	N	0.082585	0.535767	0.182264
	N254	N	0.085110	0.464777	0.819374
	N255	N	0.909499	0.537297	0.821268
	N256	N	0.174528	0.913760	0.463697
	N257	N	0.172353	0.082873	0.538279
	N258	N	0.818061	0.087669	0.464881
	N259	N	0.821470	0.918637	0.539432
	N260	N	0.459868	0.180152	0.913960
	N261	N	0.532144	0.180570	0.088976
	N262	N	0.459460	0.824808	0.084381
	N263	N	0.532546	0.818377	0.911008
	N264	N	0.460312	0.915846	0.177429
	N265	N	0.534170	0.085023	0.177459
	N266	N	0.458677	0.083925	0.824616
	N267	N	0.533908	0.913408	0.821579
	N268	N	0.907643	0.182574	0.466011
	N269	N	0.083660	0.180330	0.536424
	N270	N	0.086702	0.817055	0.466227
	N271	N	0.910400	0.821861	0.538532
	N272	N	0.176214	0.464146	0.914259
	N273	N	0.172536	0.538074	0.085476
	N274	N	0.816927	0.462944	0.086971
	N275	N	0.817495	0.537105	0.916592
	O276	O	-0.076632	-0.157487	0.039965
	H277	H	-0.074239	-0.165378	0.043659
	H278	H	-0.079473	-0.152200	0.040105
	O279	O	0.580649	0.656155	0.456349
	H280	H	0.568991	0.638846	0.452894
	H281	H	0.583130	0.656169	0.450984
	O282	O	1.034530	-0.085894	0.006128
	H283	H	1.033136	-0.091678	0.019641
	H284	H	1.026299	-0.088902	0.000199
	O285	O	-0.020034	0.967505	0.020652
	H286	H	-0.023694	0.953409	0.012192
	H287	H	-0.003964	0.974892	0.020531
	O288	O	0.562245	0.519012	0.491853
	H289	H	0.564356	0.511120	0.464068
	H290	H	0.561820	0.514739	0.498169
	O291	O	1.073863	-0.163778	0.873068
	H292	H	1.058120	-0.172293	0.854522
	H293	H	1.077838	-0.166061	0.875534
	O294	O	0.968712	1.044951	0.997658
	H295	H	0.965519	1.045298	0.997615
	H296	H	0.959344	1.057285	1.001203
	O297	O	0.005651	-0.159674	-0.023711
	H298	H	0.012552	-0.160709	-0.026545
	H299	H	0.017919	-0.155576	-0.028613
	O300	O	0.471936	0.469330	0.645682
	H301	H	0.476704	0.477618	0.636415
	H302	H	0.473319	0.483711	0.644976
	O303	O	0.074144	1.166520	1.177658
	H304	H	0.075919	1.173077	1.172168
	H305	H	0.079054	1.171318	1.183137
	O306	O	0.572262	0.493935	0.558888
	H307	H	0.569601	0.498238	0.567015
	H308	H	0.573737	0.487551	0.547174
	O309	O	0.850151	0.051210	0.001109
	H310	H	0.840732	0.059418	0.002420
	H311	H	0.864217	0.052322	-0.000273
	O312	O	-0.047074	0.162212	0.876261
	H313	H	-0.048351	0.157055	0.866151
	H314	H	-0.055470	0.162352	0.873932
	O315	O	0.656700	0.337252	0.340007
	H316	H	0.647528	0.337057	0.348447
	H317	H	0.642548	0.331621	0.357932
	O318	O	0.422452	0.596267	0.551069
	H319	H	0.414219	0.598574	0.548723
	H320	H	0.422560	0.580079	0.543608
	O321	O	0.666454	0.365384	0.547171
	H322	H	0.656342	0.369440	0.557313
	H323	H	0.669266	0.353102	0.546197
	O324	O	0.530270	0.478529	0.540519
	H325	H	0.524815	0.498551	0.546000
	H326	H	0.518730	0.488719	0.546559
	O327	O	0.030128	0.987237	1.036944
	H328	H	0.029870	0.998389	1.048694
	H329	H	0.027245	0.996445	1.040087
	O330	O	0.401367	0.650035	0.399692
	H331	H	0.407569	0.659373	0.402487
	H332	H	0.416295	0.645394	0.397558
	O333	O	-0.128883	1.120019	0.897984
	H334	H	-0.135705	1.116208	0.900161
	H335	H	-0.125698	1.115956	0.892336
	O336	O	0.950669	1.037248	1.147832
	H337	H	0.950200	1.045294	1.149879
	H338	H	0.940922	1.022619	1.150592
	O339	O	0.445626	0.356984	0.533673
	H340	H	0.444606	0.357954	0.534966
	H341	H	0.426642	0.352539	0.546745
	O342	O	1.125569	0.102125	-0.005533
	H343	H	1.129152	0.094026	-0.004116
	H344	H	1.133553	0.100515	-0.003683
	O345	O	-0.019888	0.922420	-0.049742
	H346	H	-0.023352	0.923612	-0.040293
	H347	H	-0.020310	0.932143	-0.053865
	O348	O	1.175527	1.057416	0.955304
	H349	H	1.185916	1.044604	0.953362
	H350	H	1.175801	1.053719	0.955692
	O351	O	0.868053	1.039998	-0.005805
	H352	H	0.867783	1.028389	-0.005986
	H353	H	0.875140	1.043324	-0.014013
	O354	O	0.649474	0.469338	0.336215
	H355	H	0.667692	0.463975	0.314755
	H356	H	0.641231	0.456338	0.344712
	O357	O	0.454077	0.373797	0.317446
	H358	H	0.454697	0.357843	0.308032
	H359	H	0.438156	0.368699	0.321567
	O360	O	0.049993	-0.048029	-0.053133
	H361	H	0.050574	-0.048221	-0.052230
	H362	H	0.061937	-0.058473	-0.053040
	O363	O	0.569024	0.506948	0.506211
	H364	H	0.572508	0.513965	0.503673
	H365	H	0.571535	0.509553	0.504325
	O366	O	0.447641	0.602334	0.658827
	H367	H	0.463458	0.609537	0.658444
	H368	H	0.454793	0.597973	0.659341
	O369	O	0.490443	0.574302	0.401271
	H370	H	0.493717	0.572265	0.406281
	H371	H	0.501637	0.553782	0.402235
	O372	O	0.325202	0.520601	0.487550
	H373	H	0.341691	0.533371	0.483191
	H374	H	0.321893	0.529712	0.489680
	O375	O	0.407705	0.435491	0.509461
	H376	H	0.410854	0.435996	0.508727
	H377	H	0.411435	0.450017	0.531933
	O378	O	0.418593	0.314597	0.434849
	H379	H	0.420920	0.329070	0.437689
	H380	H	0.419810	0.313206	0.439030
	O381	O	0.652744	0.562397	0.542152
	H382	H	0.654783	0.553973	0.530822
	H383	H	0.656325	0.563550	0.528361
	O384	O	-0.059259	0.955836	0.118235
	H385	H	-0.054538	0.961523	0.121043
	H386	H	-0.057570	0.956140	0.111208
	O387	O	1.046461	0.031673	0.900194
	H388	H	1.041279	0.023800	0.892615
	H389	H	1.039523	0.039297	0.897530
	O390	O	0.277224	0.693855	-0.249553
	H391	H	0.272982	0.694758	-0.238030
	H392	H	0.285664	0.702493	-0.253813
	O393	O	1.039853	0.978532	0.098507
	H394	H	1.026520	0.980536	0.105016
	H395	H	1.037369	0.971927	0.089763
	O396	O	0.526490	0.437510	0.479401
	H397	H	0.523020	0.429853	0.479971
	H398	H	0.520488	0.428744	0.460991
	O399	O	-0.022372	0.952272	1.012503
	H400	H	-0.033846	0.952575	1.010320
	H401	H	-0.025923	0.954290	1.018293
	O402	O	0.993268	1.027439	1.031739
	H403	H	0.992565	1.035628	1.032920
	H404	H	0.984942	1.034564	1.025389
	O405	O	0.350362	0.614329	0.424630
	H406	H	0.369774	0.614573	0.433584
	H407	H	0.339099	0.618972	0.409029
