data_Molecule from HDF5

_cell_length_a		16.380658
_cell_length_b		16.284557
_cell_length_c		16.282250
_cell_angle_alpha	90.143706
_cell_angle_beta	90.122228
_cell_angle_gamma	90.046736
_symmetry_space_group_name_H-M	'P 1'
_symmetry_Int_Tables_number		1

loop_
	_symmetry_equiv_pos_as_xyz
	x,y,z

loop_
	_atom_site_label
	_atom_site_type_symbol
	_atom_site_fract_x
	_atom_site_fract_y
	_atom_site_fract_z
	H0	H	0.392105	0.828847	0.719712
	H1	H	0.597517	0.151836	0.724244
	H2	H	0.593034	0.829229	0.287466
	H3	H	0.388966	0.152625	0.284897
	H4	H	0.713114	0.387082	0.844397
	H5	H	0.710953	0.593114	0.167959
	H6	H	0.272007	0.596345	0.843605
	H7	H	0.273724	0.386377	0.165459
	H8	H	0.830872	0.708076	0.404207
	H9	H	0.152492	0.711853	0.610752
	H10	H	0.831386	0.272555	0.608597
	H11	H	0.152461	0.271076	0.401193
	H12	H	0.830318	0.390843	0.723050
	H13	H	0.153092	0.593971	0.725149
	H14	H	0.831490	0.592255	0.287032
	H15	H	0.153103	0.385908	0.286215
	H16	H	0.392508	0.706342	0.841226
	H17	H	0.595516	0.709669	0.167187
	H18	H	0.596429	0.272078	0.843588
	H19	H	0.390129	0.272061	0.165404
	H20	H	0.711691	0.830375	0.399949
	H21	H	0.710468	0.152889	0.607044
	H22	H	0.272142	0.831623	0.609266
	H23	H	0.272632	0.152653	0.398595
	H24	H	0.894787	0.326878	0.219494
	H25	H	0.094986	0.653000	0.224581
	H26	H	0.092944	0.329301	0.788851
	H27	H	0.891826	0.653666	0.790164
	H28	H	0.208932	0.889594	0.342860
	H29	H	0.211561	0.095324	0.666330
	H30	H	0.773538	0.094643	0.343284
	H31	H	0.775932	0.891833	0.667225
	H32	H	0.332046	0.209159	0.901914
	H33	H	0.653694	0.211133	0.108548
	H34	H	0.331091	0.773967	0.103693
	H35	H	0.654778	0.774043	0.903544
	H36	H	0.331034	0.889202	0.221215
	H37	H	0.654306	0.093055	0.223478
	H38	H	0.331965	0.092254	0.785525
	H39	H	0.654900	0.890396	0.787714
	H40	H	0.892106	0.206759	0.341991
	H41	H	0.091622	0.207365	0.667641
	H42	H	0.091048	0.774225	0.342772
	H43	H	0.891679	0.777099	0.668135
	H44	H	0.209222	0.329314	0.903488
	H45	H	0.210833	0.653542	0.108253
	H46	H	0.773984	0.329539	0.109952
	H47	H	0.776287	0.653392	0.905102
	H48	H	0.397620	0.109807	0.596815
	H49	H	0.579213	0.876310	0.597980
	H50	H	0.583716	0.105941	0.414991
	H51	H	0.396169	0.874179	0.411508
	H52	H	0.580330	0.395995	0.120851
	H53	H	0.583706	0.582560	0.890070
	H54	H	0.403649	0.575039	0.116685
	H55	H	0.397952	0.405314	0.889929
	H56	H	0.108486	0.584755	0.416054
	H57	H	0.873104	0.580388	0.613742
	H58	H	0.106910	0.399816	0.596986
	H59	H	0.877787	0.397977	0.414307
	H60	H	0.105922	0.400686	0.595804
	H61	H	0.874671	0.598392	0.591594
	H62	H	0.105202	0.581546	0.418745
	H63	H	0.878887	0.401880	0.415751
	H64	H	0.408351	0.586688	0.118892
	H65	H	0.587643	0.581618	0.889940
	H66	H	0.590104	0.401811	0.121484
	H67	H	0.405724	0.402528	0.890717
	H68	H	0.582873	0.107153	0.414494
	H69	H	0.584568	0.877448	0.588675
	H70	H	0.408931	0.106051	0.597934
	H71	H	0.404458	0.876703	0.410611
	H72	H	0.905634	0.603683	0.093325
	H73	H	0.088297	0.376772	0.090063
	H74	H	0.088438	0.610186	0.911944
	H75	H	0.908512	0.374304	0.905044
	H76	H	0.088962	0.899964	0.623216
	H77	H	0.083612	0.081056	0.390527
	H78	H	0.902168	0.086236	0.621836
	H79	H	0.898591	0.896995	0.388265
	H80	H	0.607033	0.084432	0.917594
	H81	H	0.377708	0.086357	0.093791
	H82	H	0.606531	0.900294	0.093605
	H83	H	0.378376	0.900241	0.912116
	H84	H	0.607220	0.902678	0.096528
	H85	H	0.381732	0.078293	0.090162
	H86	H	0.604948	0.076939	0.915311
	H87	H	0.377257	0.898572	0.910630
	H88	H	0.897175	0.081944	0.621286
	H89	H	0.082346	0.082235	0.389198
	H90	H	0.083602	0.909623	0.617606
	H91	H	0.899081	0.904895	0.390371
	H92	H	0.077621	0.604942	0.914314
	H93	H	0.089975	0.372381	0.101828
	H94	H	0.896469	0.607754	0.096663
	H95	H	0.907212	0.381051	0.925120
	H96	H	0.402949	0.104258	0.587860
	H97	H	0.589044	0.873183	0.596937
	H98	H	0.583063	0.106425	0.415945
	H99	H	0.401036	0.877219	0.417792
	H100	H	0.580751	0.407055	0.117767
	H101	H	0.585126	0.579064	0.891147
	H102	H	0.396851	0.583815	0.121737
	H103	H	0.399405	0.397251	0.887825
	H104	H	0.106536	0.580645	0.414158
	H105	H	0.883669	0.571226	0.589060
	H106	H	0.106475	0.401091	0.597432
	H107	H	0.877890	0.400948	0.412227
	H108	H	0.905453	0.606714	0.102558
	H109	H	0.078344	0.378004	0.098496
	H110	H	0.085997	0.604804	0.922848
	H111	H	0.890685	0.371954	0.915615
	H112	H	0.077385	0.898929	0.619774
	H113	H	0.083722	0.081603	0.388919
	H114	H	0.902557	0.079950	0.618762
	H115	H	0.905215	0.899422	0.390249
	H116	H	0.608900	0.081785	0.910301
	H117	H	0.378789	0.078062	0.099338
	H118	H	0.608183	0.898295	0.097248
	H119	H	0.378310	0.897864	0.912346
	C120	C	0.372236	-0.000077	0.625318
	C121	C	0.614857	0.982390	0.625763
	C122	C	0.613940	-0.000254	0.383867
	C123	C	0.370636	0.983059	0.382391
	C124	C	0.614840	0.370203	0.013452
	C125	C	0.615634	0.612547	0.996903
	C126	C	0.372018	0.612453	0.012274
	C127	C	0.370995	0.370017	0.996033
	C128	C	0.000562	0.612418	0.384994
	C129	C	0.983755	0.613805	0.628532
	C130	C	0.000077	0.370072	0.626964
	C131	C	0.984163	0.368974	0.383674
	C132	C	0.872428	0.498840	0.127320
	C133	C	0.115357	0.482794	0.127674
	C134	C	0.113558	0.499677	0.885333
	C135	C	0.871618	0.482830	0.884947
	C136	C	0.113207	0.870962	0.513350
	C137	C	0.114193	0.113144	0.496133
	C138	C	0.870544	0.112976	0.513533
	C139	C	0.870888	0.870716	0.496847
	C140	C	0.501177	0.112321	0.882795
	C141	C	0.485092	0.112539	0.126134
	C142	C	0.501048	0.869414	0.126041
	C143	C	0.484507	0.868754	0.881928
	C144	C	0.372361	0.878077	0.682011
	C145	C	0.615900	0.103714	0.684760
	C146	C	0.613372	0.877845	0.325663
	C147	C	0.370412	0.104483	0.324359
	C148	C	0.673913	0.368382	0.892441
	C149	C	0.672713	0.613004	0.119147
	C150	C	0.312692	0.613681	0.891310
	C151	C	0.313449	0.368671	0.117398
	C152	C	0.879096	0.669398	0.384690
	C153	C	0.104533	0.672327	0.629343
	C154	C	0.879241	0.312025	0.627277
	C155	C	0.104560	0.310330	0.382926
	C156	C	0.878850	0.370629	0.684703
	C157	C	0.104751	0.613599	0.686310
	C158	C	0.879552	0.611812	0.326302
	C159	C	0.104930	0.367590	0.325608
	C160	C	0.372554	0.668877	0.890095
	C161	C	0.614939	0.670672	0.118699
	C162	C	0.615520	0.311344	0.891923
	C163	C	0.371061	0.311337	0.117201
	C164	C	0.672293	0.878543	0.381836
	C165	C	0.672057	0.104273	0.626434
	C166	C	0.312468	0.879403	0.627008
	C167	C	0.311969	0.104226	0.380639
	C168	C	0.874182	0.376186	0.182352
	C169	C	0.114446	0.604514	0.185592
	C170	C	0.112733	0.377747	0.827497
	C171	C	0.872263	0.605063	0.828381
	C172	C	0.169899	0.870555	0.391400
	C173	C	0.172299	0.114336	0.617932
	C174	C	0.812740	0.113558	0.391571
	C175	C	0.814039	0.871916	0.618723
	C176	C	0.380196	0.170558	0.882143
	C177	C	0.605734	0.171465	0.127128
	C178	C	0.379559	0.812170	0.124384
	C179	C	0.606381	0.812622	0.883743
	C180	C	0.379405	0.869700	0.182556
	C181	C	0.605820	0.113079	0.184720
	C182	C	0.380018	0.111998	0.824540
	C183	C	0.606447	0.870196	0.825954
	C184	C	0.871746	0.169510	0.390975
	C185	C	0.112472	0.169675	0.618770
	C186	C	0.111607	0.812938	0.391428
	C187	C	0.871567	0.814679	0.619210
	C188	C	0.170414	0.377710	0.884900
	C189	C	0.172165	0.604753	0.127860
	C190	C	0.814257	0.377375	0.127713
	C191	C	0.814668	0.604797	0.885394
	C192	C	0.396325	0.084684	0.601042
	C193	C	0.591120	0.897662	0.601626
	C194	C	0.590100	0.084314	0.407929
	C195	C	0.393830	0.898294	0.406409
	C196	C	0.590595	0.394413	0.097999
	C197	C	0.592274	0.588177	0.912214
	C198	C	0.396012	0.588707	0.096953
	C199	C	0.394364	0.394457	0.911485
	C200	C	0.084693	0.589001	0.409177
	C201	C	0.899222	0.590167	0.604963
	C202	C	0.084441	0.393791	0.603551
	C203	C	0.900124	0.393345	0.407386
	C204	C	0.895654	0.584159	0.104119
	C205	C	0.092359	0.397754	0.103774
	C206	C	0.090696	0.584593	0.909449
	C207	C	0.895243	0.397853	0.908394
	C208	C	0.089911	0.895546	0.598259
	C209	C	0.090349	0.088688	0.411526
	C210	C	0.893772	0.089617	0.598538
	C211	C	0.894272	0.893677	0.411661
	C212	C	0.585165	0.088068	0.907394
	C213	C	0.401158	0.088100	0.101513
	C214	C	0.585512	0.893394	0.102793
	C215	C	0.399961	0.892141	0.904966
	Zn216	Zn	0.493465	-0.009148	0.753268
	Zn217	Zn	0.492258	-0.009143	0.255536
	Zn218	Zn	0.743959	0.490870	0.006380
	Zn219	Zn	0.243332	0.491751	0.004863
	Zn220	Zn	-0.008557	0.741808	0.506244
	Zn221	Zn	-0.007975	0.241163	0.504815
	Zn222	Zn	-0.007520	0.491580	0.756692
	Zn223	Zn	-0.007302	0.490267	0.255903
	Zn224	Zn	0.492991	0.740359	0.004414
	Zn225	Zn	0.492917	0.242231	0.004089
	Zn226	Zn	0.742425	-0.008515	0.504534
	Zn227	Zn	0.243322	-0.007621	0.504673
	N228	N	0.408912	0.954224	0.680685
	N229	N	0.580944	0.027003	0.684442
	N230	N	0.577819	0.954307	0.326680
	N231	N	0.406161	0.028186	0.325353
	N232	N	0.673508	0.404188	0.968996
	N233	N	0.673372	0.577660	0.042507
	N234	N	0.312496	0.579164	0.968277
	N235	N	0.313211	0.404665	0.041085
	N236	N	0.955174	0.669804	0.420461
	N237	N	0.028189	0.672509	0.594048
	N238	N	0.955455	0.311518	0.592163
	N239	N	0.028523	0.311121	0.418512
	N240	N	0.955165	0.406103	0.684620
	N241	N	0.028586	0.578045	0.686080
	N242	N	0.956105	0.577263	0.326213
	N243	N	0.029110	0.403474	0.325842
	N244	N	0.408897	0.668161	0.966306
	N245	N	0.580202	0.670662	0.041658
	N246	N	0.579831	0.312094	0.968257
	N247	N	0.406294	0.312217	0.040728
	N248	N	0.672983	0.955342	0.416840
	N249	N	0.671499	0.027904	0.590365
	N250	N	0.312263	0.956262	0.592411
	N251	N	0.311990	0.027712	0.416299
	N252	N	0.909500	0.452887	0.182309
	N253	N	0.080093	0.527513	0.185799
	N254	N	0.077997	0.454549	0.827790
	N255	N	0.906757	0.528191	0.827820
	N256	N	0.171124	0.905832	0.468188
	N257	N	0.173648	0.080217	0.540720
	N258	N	0.811733	0.079278	0.468658
	N259	N	0.813299	0.905939	0.541474
	N260	N	0.456299	0.170586	0.917676
	N261	N	0.529532	0.171537	0.091565
	N262	N	0.456158	0.811886	0.090074
	N263	N	0.529480	0.811477	0.917677
	N264	N	0.456005	0.904495	0.183731
	N265	N	0.529918	0.077048	0.184148
	N266	N	0.456450	0.076854	0.824557
	N267	N	0.529814	0.904283	0.824569
	N268	N	0.906869	0.169411	0.467779
	N269	N	0.077282	0.169268	0.541972
	N270	N	0.077334	0.813055	0.468524
	N271	N	0.906112	0.813810	0.542294
	N272	N	0.170908	0.454591	0.920072
	N273	N	0.173259	0.527914	0.092935
	N274	N	0.813029	0.454795	0.094132
	N275	N	0.813818	0.527661	0.919734
	O276	O	-0.070872	0.036790	0.068609
	H277	H	-0.070475	0.025690	0.072840
	H278	H	-0.077685	0.052012	0.054354
	O279	O	0.544505	0.460089	0.350410
	H280	H	0.532523	0.474065	0.350900
	H281	H	0.544480	0.451775	0.349004
	O282	O	0.957848	-0.085880	0.025086
	H283	H	0.962067	-0.088352	0.036772
	H284	H	0.960792	-0.086261	0.019878
	O285	O	0.001101	0.962653	0.053927
	H286	H	0.009470	0.955820	0.046549
	H287	H	-0.004875	0.962223	0.056668
	O288	O	0.517980	0.354624	0.657994
	H289	H	0.512849	0.351539	0.648819
	H290	H	0.519552	0.350121	0.656020
	O291	O	1.056676	-0.014963	1.075217
	H292	H	1.052920	-0.001438	1.060832
	H293	H	1.043366	-0.011865	1.081676
	O294	O	0.922890	0.981548	0.943660
	H295	H	0.929293	0.989789	0.940690
	H296	H	0.924293	0.985974	0.952595
	O297	O	-0.123017	0.031364	-0.085852
	H298	H	-0.122284	0.028106	-0.098494
	H299	H	-0.120954	0.041797	-0.088949
	O300	O	0.505710	0.351763	0.375934
	H301	H	0.510562	0.349772	0.372031
	H302	H	0.524936	0.339591	0.375733
	O303	O	0.069749	1.018786	0.978028
	H304	H	0.070623	1.024026	0.975537
	H305	H	0.064237	1.007694	0.994177
	O306	O	0.444570	0.492966	0.702473
	H307	H	0.451017	0.499854	0.713436
	H308	H	0.460144	0.507442	0.700688
	O309	O	1.048522	-0.103262	0.068909
	H310	H	1.048825	-0.093269	0.068170
	H311	H	1.049895	-0.105090	0.071540
	O312	O	-0.008538	-0.067366	1.052308
	H313	H	-0.017392	-0.073455	1.048183
	H314	H	-0.007085	-0.068244	1.043785
	O315	O	0.476580	0.677631	0.311710
	H316	H	0.489138	0.689052	0.322819
	H317	H	0.477723	0.664377	0.299482
	O318	O	0.508249	0.503718	0.523613
	H319	H	0.506531	0.499957	0.529908
	H320	H	0.501639	0.511027	0.512693
	O321	O	0.484195	0.518141	0.553769
	H322	H	0.481955	0.530777	0.552581
	H323	H	0.485445	0.518467	0.558725
	O324	O	0.404468	0.666369	0.412858
	H325	H	0.412455	0.664893	0.403841
	H326	H	0.398755	0.652084	0.418185
	O327	O	0.039912	0.964385	1.025977
	H328	H	0.034829	0.956977	1.025377
	H329	H	0.040737	0.975889	1.036658
	O330	O	1.046675	1.077282	0.937989
	H331	H	1.048374	1.065853	0.935174
	H332	H	1.046473	1.075044	0.950742
	O333	O	-0.070748	1.001789	0.967217
	H334	H	-0.064188	1.000570	0.955970
	H335	H	-0.074817	0.993876	0.978221
	O336	O	1.031506	0.965556	0.995120
	H337	H	1.023366	0.955841	0.993975
	H338	H	1.023434	0.970370	1.003030
	O339	O	0.655827	0.300267	0.493146
	H340	H	0.652185	0.300995	0.508119
	H341	H	0.662558	0.284291	0.484908
	O342	O	1.619117	0.601877	-0.333628
	H343	H	1.617264	0.607058	-0.329383
	H344	H	1.611640	0.584604	-0.343496
	O345	O	0.032438	0.948363	0.049779
	H346	H	0.027696	0.948281	0.057233
	H347	H	0.043044	0.953378	0.045592
	O348	O	1.139727	1.221219	0.794155
	H349	H	1.148396	1.219777	0.794953
	H350	H	1.134042	1.237428	0.802645
	O351	O	1.041632	0.992822	0.069765
	H352	H	1.026256	0.993890	0.062131
	H353	H	1.047015	0.996783	0.059471
	O354	O	0.473348	0.491190	0.316280
	H355	H	0.477595	0.494375	0.308196
	H356	H	0.464667	0.477263	0.312471
	O357	O	0.310724	0.525950	0.312426
	H358	H	0.282623	0.518992	0.288744
	H359	H	0.310289	0.509816	0.337343
	O360	O	-0.016446	0.043102	-0.026931
	H361	H	-0.018546	0.038057	-0.014770
	H362	H	-0.008409	0.038719	-0.035860
	O363	O	0.680304	0.381782	0.355932
	H364	H	0.688726	0.388747	0.367574
	H365	H	0.682243	0.380347	0.356602
	O366	O	0.510073	0.555026	0.492378
	H367	H	0.495812	0.554832	0.490132
	H368	H	0.518439	0.547238	0.479640
	O369	O	0.449539	0.328468	0.642052
	H370	H	0.445677	0.346761	0.638447
	H371	H	0.439746	0.335574	0.627234
	O372	O	0.297109	0.624794	0.534157
	H373	H	0.291102	0.629915	0.519209
	H374	H	0.299189	0.631650	0.517197
	O375	O	0.670582	0.535967	0.450578
	H376	H	0.668201	0.538829	0.452777
	H377	H	0.655877	0.536178	0.461768
	O378	O	0.279042	0.296416	0.522588
	H379	H	0.248197	0.263749	0.530927
	H380	H	0.292676	0.310525	0.529833
	O381	O	0.388305	0.480974	0.568970
	H382	H	0.396919	0.465876	0.557773
	H383	H	0.396146	0.486758	0.582925
	O384	O	0.150828	1.051182	-0.045782
	H385	H	0.127993	1.060700	-0.056256
	H386	H	0.144034	1.031846	-0.029159
	O387	O	0.579904	0.466240	1.454800
	H388	H	0.577001	0.469498	1.444710
	H389	H	0.571533	0.467640	1.449379
	O390	O	0.445357	0.604897	-0.342541
	H391	H	0.453557	0.611368	-0.356794
	H392	H	0.444076	0.616934	-0.340300
	O393	O	0.573609	1.626328	-0.312621
	H394	H	0.579549	1.633002	-0.318980
	H395	H	0.575474	1.642995	-0.308689
	O396	O	0.586112	0.659477	0.489283
	H397	H	0.597329	0.669708	0.499056
	H398	H	0.577657	0.653869	0.485129
	O399	O	0.373157	0.373734	0.465734
	H400	H	0.347869	0.362437	0.466977
	H401	H	0.383268	0.384763	0.461164
	O402	O	0.895768	0.957884	1.028523
	H403	H	0.895547	0.967277	1.040968
	H404	H	0.890831	0.958757	1.024963
	O405	O	0.433439	0.525427	0.351540
	H406	H	0.426588	0.527251	0.382842
	H407	H	0.445588	0.509277	0.353947
