data_Molecule from HDF5

_cell_length_a		16.287361
_cell_length_b		16.172771
_cell_length_c		16.278906
_cell_angle_alpha	89.738805
_cell_angle_beta	90.355043
_cell_angle_gamma	89.499177
_symmetry_space_group_name_H-M	'P 1'
_symmetry_Int_Tables_number		1

loop_
	_symmetry_equiv_pos_as_xyz
	x,y,z

loop_
	_atom_site_label
	_atom_site_type_symbol
	_atom_site_fract_x
	_atom_site_fract_y
	_atom_site_fract_z
	H0	H	0.410387	0.840845	0.708238
	H1	H	0.606711	0.169655	0.708197
	H2	H	0.606724	0.839480	0.282821
	H3	H	0.405073	0.168498	0.277594
	H4	H	0.723094	0.403828	0.830508
	H5	H	0.724004	0.602145	0.157507
	H6	H	0.289159	0.606720	0.831832
	H7	H	0.294135	0.402531	0.158193
	H8	H	0.843037	0.720701	0.395467
	H9	H	0.170262	0.718908	0.595504
	H10	H	0.842174	0.294533	0.590745
	H11	H	0.169851	0.288359	0.397279
	H12	H	0.843744	0.406465	0.709462
	H13	H	0.169920	0.603633	0.712319
	H14	H	0.845301	0.608398	0.276335
	H15	H	0.171028	0.404982	0.283615
	H16	H	0.407845	0.719587	0.829982
	H17	H	0.606669	0.716365	0.158182
	H18	H	0.605818	0.290199	0.830319
	H19	H	0.413763	0.290952	0.158653
	H20	H	0.723211	0.842195	0.395491
	H21	H	0.718653	0.170719	0.591515
	H22	H	0.293899	0.841195	0.594505
	H23	H	0.291373	0.169993	0.393086
	H24	H	0.912387	0.339982	0.209559
	H25	H	0.107453	0.668970	0.209506
	H26	H	0.106945	0.340008	0.781887
	H27	H	0.904874	0.667805	0.778965
	H28	H	0.221188	0.906594	0.331455
	H29	H	0.222957	0.105188	0.657187
	H30	H	0.789704	0.107037	0.330156
	H31	H	0.794069	0.908813	0.658334
	H32	H	0.343980	0.220577	0.894292
	H33	H	0.673123	0.213508	0.091758
	H34	H	0.343643	0.791076	0.091225
	H35	H	0.672016	0.789698	0.898131
	H36	H	0.343474	0.904605	0.207814
	H37	H	0.670106	0.100046	0.210545
	H38	H	0.345457	0.107790	0.775796
	H39	H	0.670961	0.904492	0.779725
	H40	H	0.906745	0.222140	0.330397
	H41	H	0.101616	0.215817	0.659835
	H42	H	0.104819	0.791571	0.331002
	H43	H	0.908948	0.791132	0.657965
	H44	H	0.222408	0.339626	0.897486
	H45	H	0.222172	0.668409	0.094113
	H46	H	0.797370	0.338572	0.092996
	H47	H	0.791917	0.667109	0.893978
	H48	H	0.413780	0.123175	0.585232
	H49	H	0.596143	0.889747	0.587181
	H50	H	0.598134	0.122283	0.403574
	H51	H	0.411468	0.886226	0.400934
	H52	H	0.603323	0.409108	0.110817
	H53	H	0.596365	0.595772	0.878123
	H54	H	0.419183	0.591828	0.108115
	H55	H	0.423483	0.414818	0.881164
	H56	H	0.127908	0.605324	0.398410
	H57	H	0.888482	0.604269	0.587003
	H58	H	0.124393	0.407713	0.589650
	H59	H	0.890048	0.419316	0.395824
	H60	H	0.123205	0.410755	0.587764
	H61	H	0.892896	0.596027	0.582538
	H62	H	0.121833	0.598705	0.412554
	H63	H	0.888492	0.408926	0.399510
	H64	H	0.418156	0.603370	0.111523
	H65	H	0.601672	0.600621	0.876632
	H66	H	0.604331	0.407900	0.112348
	H67	H	0.410991	0.404648	0.874292
	H68	H	0.599010	0.124730	0.396966
	H69	H	0.602667	0.888218	0.582255
	H70	H	0.415012	0.122409	0.584498
	H71	H	0.415746	0.887249	0.400348
	H72	H	0.917341	0.619894	0.083212
	H73	H	0.101291	0.388574	0.084144
	H74	H	0.099524	0.624221	0.896045
	H75	H	0.931717	0.389824	0.898781
	H76	H	0.098699	0.912083	0.610342
	H77	H	0.104986	0.103098	0.374832
	H78	H	0.918779	0.106269	0.611829
	H79	H	0.917795	0.915356	0.379185
	H80	H	0.622039	0.090524	0.905445
	H81	H	0.392596	0.098261	0.077996
	H82	H	0.620341	0.918510	0.085916
	H83	H	0.390709	0.909598	0.900197
	H84	H	0.627045	0.908615	0.098641
	H85	H	0.391488	0.092496	0.089815
	H86	H	0.627263	0.095090	0.892375
	H87	H	0.392341	0.915208	0.901994
	H88	H	0.902889	0.103898	0.615105
	H89	H	0.100153	0.091445	0.378674
	H90	H	0.102562	0.910738	0.612224
	H91	H	0.912700	0.910563	0.376489
	H92	H	0.090518	0.618577	0.904617
	H93	H	0.107678	0.384481	0.091987
	H94	H	0.912376	0.622584	0.085167
	H95	H	0.908271	0.386383	0.915956
	H96	H	0.413337	0.122460	0.583294
	H97	H	0.602603	0.886027	0.590780
	H98	H	0.592675	0.122277	0.398964
	H99	H	0.414105	0.887862	0.404074
	H100	H	0.605209	0.409220	0.110979
	H101	H	0.603132	0.593530	0.877582
	H102	H	0.408809	0.595540	0.112504
	H103	H	0.406937	0.421085	0.878452
	H104	H	0.122873	0.589784	0.398851
	H105	H	0.889583	0.595586	0.592381
	H106	H	0.124587	0.411702	0.591172
	H107	H	0.892594	0.417775	0.405984
	H108	H	0.915841	0.621861	0.088824
	H109	H	0.097276	0.387985	0.093842
	H110	H	0.103578	0.621328	0.908925
	H111	H	0.907591	0.378385	0.888031
	H112	H	0.101914	0.914503	0.611852
	H113	H	0.091679	0.102117	0.378345
	H114	H	0.911832	0.091469	0.608149
	H115	H	0.910573	0.917768	0.377522
	H116	H	0.626100	0.105051	0.903570
	H117	H	0.388274	0.104975	0.088385
	H118	H	0.624914	0.901900	0.083266
	H119	H	0.390351	0.913883	0.895409
	C120	C	0.385947	0.014144	0.614755
	C121	C	0.628298	0.997285	0.614872
	C122	C	0.626889	0.014107	0.372432
	C123	C	0.384199	0.995835	0.371973
	C124	C	0.631235	0.381111	0.002794
	C125	C	0.629489	0.625004	0.985546
	C126	C	0.385140	0.626731	0.002753
	C127	C	0.386868	0.383645	0.986180
	C128	C	0.016091	0.627582	0.373238
	C129	C	0.998302	0.626929	0.617086
	C130	C	0.015569	0.383347	0.616768
	C131	C	0.998395	0.384756	0.373391
	C132	C	0.887565	0.512574	0.115274
	C133	C	0.130801	0.495562	0.118130
	C134	C	0.127586	0.512575	0.874483
	C135	C	0.886124	0.494258	0.872502
	C136	C	0.129050	0.883935	0.503128
	C137	C	0.127288	0.127035	0.485976
	C138	C	0.882921	0.129166	0.502775
	C139	C	0.885241	0.885375	0.485930
	C140	C	0.516849	0.126753	0.871713
	C141	C	0.499153	0.125329	0.115034
	C142	C	0.515678	0.881893	0.116527
	C143	C	0.499309	0.883569	0.872085
	C144	C	0.389189	0.890487	0.670980
	C145	C	0.625785	0.120735	0.669712
	C146	C	0.626602	0.889585	0.318982
	C147	C	0.385032	0.119484	0.315372
	C148	C	0.685651	0.383739	0.879457
	C149	C	0.685764	0.622456	0.108658
	C150	C	0.328329	0.625934	0.880222
	C151	C	0.332452	0.383872	0.109337
	C152	C	0.892516	0.683326	0.374935
	C153	C	0.121322	0.681678	0.615855
	C154	C	0.891509	0.330771	0.612376
	C155	C	0.121312	0.327460	0.377113
	C156	C	0.892490	0.386332	0.671245
	C157	C	0.121077	0.624103	0.673713
	C158	C	0.893685	0.627588	0.315621
	C159	C	0.121756	0.385001	0.319977
	C160	C	0.387274	0.682486	0.879478
	C161	C	0.627207	0.679240	0.109017
	C162	C	0.627143	0.327298	0.879128
	C163	C	0.391971	0.328195	0.109606
	C164	C	0.684573	0.890788	0.375160
	C165	C	0.681679	0.121330	0.611615
	C166	C	0.331405	0.890418	0.613904
	C167	C	0.328855	0.120257	0.373246
	C168	C	0.891271	0.388987	0.171491
	C169	C	0.127865	0.619769	0.172060
	C170	C	0.126830	0.389068	0.819515
	C171	C	0.885985	0.618243	0.816758
	C172	C	0.183748	0.886129	0.380251
	C173	C	0.183868	0.124801	0.608691
	C174	C	0.827476	0.127375	0.379389
	C175	C	0.831072	0.887758	0.609266
	C176	C	0.393246	0.182909	0.873607
	C177	C	0.623337	0.177131	0.112420
	C178	C	0.392382	0.828194	0.112242
	C179	C	0.622994	0.827576	0.876582
	C180	C	0.392449	0.884551	0.170411
	C181	C	0.622002	0.120826	0.171293
	C182	C	0.393818	0.126615	0.814900
	C183	C	0.622667	0.884751	0.818012
	C184	C	0.885720	0.184308	0.379263
	C185	C	0.123311	0.179592	0.610141
	C186	C	0.125703	0.829111	0.380087
	C187	C	0.888516	0.829527	0.609164
	C188	C	0.184268	0.388895	0.876843
	C189	C	0.185053	0.619304	0.114830
	C190	C	0.834212	0.388197	0.113624
	C191	C	0.830081	0.618142	0.874392
	C192	C	0.407659	0.100452	0.591322
	C193	C	0.606826	0.910432	0.593012
	C194	C	0.603357	0.100585	0.393662
	C195	C	0.406993	0.909719	0.395075
	C196	C	0.610400	0.402482	0.089029
	C197	C	0.606892	0.603109	0.899759
	C198	C	0.408455	0.603521	0.088548
	C199	C	0.407775	0.406892	0.900166
	C200	C	0.102003	0.604757	0.396483
	C201	C	0.912592	0.605109	0.594066
	C202	C	0.101718	0.403960	0.595854
	C203	C	0.912417	0.408399	0.394282
	C204	C	0.908773	0.598935	0.092385
	C205	C	0.108768	0.409365	0.096361
	C206	C	0.104633	0.599099	0.896776
	C207	C	0.909070	0.407221	0.894452
	C208	C	0.107552	0.906006	0.589149
	C209	C	0.105375	0.105413	0.399642
	C210	C	0.904769	0.107081	0.589181
	C211	C	0.907244	0.908173	0.399813
	C212	C	0.602811	0.103540	0.893837
	C213	C	0.413034	0.104713	0.092186
	C214	C	0.601792	0.903387	0.095570
	C215	C	0.413469	0.906137	0.893141
	Zn216	Zn	0.508203	0.005468	0.742826
	Zn217	Zn	0.505733	0.003391	0.244505
	Zn218	Zn	0.759257	0.503291	-0.006156
	Zn219	Zn	0.256876	0.504361	-0.004934
	Zn220	Zn	0.007182	0.755743	0.494872
	Zn221	Zn	0.006166	0.255731	0.494722
	Zn222	Zn	0.007005	0.504166	0.745504
	Zn223	Zn	0.008251	0.505543	0.244985
	Zn224	Zn	0.507552	0.754459	-0.005616
	Zn225	Zn	0.508404	0.254382	-0.006304
	Zn226	Zn	0.755478	0.006585	0.493679
	Zn227	Zn	0.257025	0.005896	0.493931
	N228	N	0.422516	0.968409	0.671491
	N229	N	0.593479	0.042397	0.671855
	N230	N	0.591381	0.967291	0.317133
	N231	N	0.418941	0.041219	0.314406
	N232	N	0.688403	0.416697	0.957329
	N233	N	0.687518	0.589628	0.030753
	N234	N	0.326820	0.592280	0.957955
	N235	N	0.329265	0.417743	0.031613
	N236	N	0.969747	0.683609	0.410045
	N237	N	0.043991	0.683596	0.581216
	N238	N	0.969026	0.328688	0.578979
	N239	N	0.043555	0.327125	0.409497
	N240	N	0.970360	0.418366	0.673972
	N241	N	0.043544	0.591024	0.674749
	N242	N	0.971416	0.593621	0.314468
	N243	N	0.044491	0.420333	0.317925
	N244	N	0.422099	0.682890	0.956825
	N245	N	0.592970	0.681114	0.031510
	N246	N	0.594056	0.325533	0.956726
	N247	N	0.425284	0.328051	0.032053
	N248	N	0.685235	0.969232	0.407392
	N249	N	0.683400	0.043393	0.578182
	N250	N	0.329112	0.968604	0.579875
	N251	N	0.328074	0.042445	0.407943
	N252	N	0.923550	0.467408	0.172952
	N253	N	0.094784	0.541863	0.174298
	N254	N	0.092369	0.466981	0.818018
	N255	N	0.920006	0.540117	0.815376
	N256	N	0.185774	0.919572	0.457749
	N257	N	0.186406	0.093034	0.530541
	N258	N	0.825583	0.093780	0.457202
	N259	N	0.828869	0.921649	0.531545
	N260	N	0.470581	0.183220	0.908080
	N261	N	0.545895	0.180159	0.078168
	N262	N	0.470031	0.826305	0.079663
	N263	N	0.545237	0.826364	0.909064
	N264	N	0.470151	0.917344	0.173158
	N265	N	0.543813	0.089272	0.173147
	N266	N	0.471581	0.092410	0.813566
	N267	N	0.544906	0.918624	0.814825
	N268	N	0.919221	0.185686	0.456991
	N269	N	0.089038	0.181082	0.532647
	N270	N	0.092549	0.827536	0.457652
	N271	N	0.921463	0.828034	0.531443
	N272	N	0.184669	0.466863	0.910485
	N273	N	0.187043	0.541119	0.082008
	N274	N	0.831926	0.466055	0.079210
	N275	N	0.829986	0.539846	0.908255
	O276	O	0.021171	-0.042915	-0.025928
	H277	H	0.027490	-0.037374	-0.027693
	H278	H	0.015159	-0.032972	-0.027028
	O279	O	0.467578	0.565853	0.484308
	H280	H	0.483101	0.571313	0.474736
	H281	H	0.473115	0.568697	0.487995
	O282	O	0.395721	0.578505	0.483809
	H283	H	0.408108	0.569800	0.492694
	H284	H	0.395419	0.586913	0.484810
	O285	O	1.040700	-0.017354	1.045383
	H286	H	1.037820	-0.025087	1.047535
	H287	H	1.048010	-0.021608	1.045375
	O288	O	0.530291	0.524549	0.480917
	H289	H	0.530219	0.519584	0.481536
	H290	H	0.547585	0.528220	0.472547
	O291	O	0.461322	0.563904	0.502208
	H292	H	0.466582	0.562150	0.510740
	H293	H	0.466127	0.559972	0.498417
	O294	O	0.549658	-0.553853	0.517878
	H295	H	0.542279	-0.556496	0.511505
	H296	H	0.536525	-0.555211	0.522430
	O297	O	-0.078260	-0.076746	0.047988
	H298	H	-0.084679	-0.085609	0.055243
	H299	H	-0.079985	-0.072842	0.051604
	O300	O	0.471727	0.585831	0.368171
	H301	H	0.466032	0.581941	0.361786
	H302	H	0.475126	0.602476	0.364728
	O303	O	0.496249	0.642420	0.484121
	H304	H	0.500285	0.649229	0.471242
	H305	H	0.505733	0.647215	0.506072
	O306	O	1.091051	0.013592	-0.041904
	H307	H	1.096645	0.017619	-0.035554
	H308	H	1.078732	0.014886	-0.051523
	O309	O	-0.012251	-0.087604	0.960778
	H310	H	-0.006605	-0.088265	0.967479
	H311	H	-0.008024	-0.085551	0.950852
	O312	O	0.977425	0.912132	1.048483
	H313	H	0.969540	0.907511	1.049710
	H314	H	0.971734	0.908213	1.058583
	O315	O	0.560272	0.463615	0.411573
	H316	H	0.552023	0.458177	0.409932
	H317	H	0.554050	0.450884	0.397157
	O318	O	0.587291	0.527358	0.564815
	H319	H	0.584546	0.514921	0.566556
	H320	H	0.592367	0.533143	0.560744
	O321	O	0.478057	1.510836	1.324665
	H322	H	0.467981	1.517960	1.307034
	H323	H	0.488121	1.511483	1.320791
	O324	O	0.560857	0.359963	0.533096
	H325	H	0.554613	0.362106	0.544267
	H326	H	0.562976	0.352789	0.540335
	O327	O	0.428220	0.460803	0.600098
	H328	H	0.423480	0.463320	0.599619
	H329	H	0.427175	0.456705	0.597635
	O330	O	0.528805	0.471708	0.583765
	H331	H	0.531863	0.467680	0.582996
	H332	H	0.520752	0.476552	0.586077
	O333	O	0.415800	0.457330	0.651090
	H334	H	0.414728	0.449642	0.647277
	H335	H	0.400415	0.451854	0.653147
	O336	O	0.584375	0.426246	0.454358
	H337	H	0.585043	0.423073	0.466427
	H338	H	0.575299	0.428836	0.454139
	O339	O	0.971910	0.901205	0.069260
	H340	H	0.968043	0.902455	0.066667
	H341	H	0.979944	0.897577	0.061991
	O342	O	0.464851	0.547812	0.377426
	H343	H	0.468930	0.547336	0.373094
	H344	H	0.455218	0.548265	0.386321
	O345	O	0.483035	0.429336	0.514265
	H346	H	0.485346	0.427385	0.491513
	H347	H	0.470295	0.441210	0.520293
	O348	O	0.016715	-0.044762	-0.034576
	H349	H	0.011368	-0.051530	-0.046606
	H350	H	-0.002155	-0.044657	-0.034141
	O351	O	0.123610	0.913768	0.951659
	H352	H	0.135764	0.919818	0.950585
	H353	H	0.130281	0.916435	0.945352
	O354	O	0.507591	0.587898	0.498768
	H355	H	0.519169	0.601624	0.508889
	H356	H	0.506318	0.578796	0.500078
	O357	O	0.128916	0.954069	0.955057
	H358	H	0.139829	0.943370	0.951139
	H359	H	0.118812	0.950760	0.947518
