data_Molecule from HDF5

_cell_length_a		16.197515
_cell_length_b		16.359515
_cell_length_c		16.245719
_cell_angle_alpha	89.770195
_cell_angle_beta	89.770629
_cell_angle_gamma	89.801022
_symmetry_space_group_name_H-M	'P 1'
_symmetry_Int_Tables_number		1

loop_
	_symmetry_equiv_pos_as_xyz
	x,y,z

loop_
	_atom_site_label
	_atom_site_type_symbol
	_atom_site_fract_x
	_atom_site_fract_y
	_atom_site_fract_z
	H0	H	0.396495	0.840745	0.715608
	H1	H	0.593489	0.166696	0.712818
	H2	H	0.595032	0.839617	0.283455
	H3	H	0.395316	0.166110	0.282607
	H4	H	0.707120	0.406997	0.834912
	H5	H	0.705087	0.600136	0.163507
	H6	H	0.279874	0.603691	0.833802
	H7	H	0.278849	0.405671	0.162699
	H8	H	0.830834	0.720865	0.399233
	H9	H	0.158705	0.716729	0.598346
	H10	H	0.830655	0.288099	0.600106
	H11	H	0.158493	0.288629	0.398748
	H12	H	0.829229	0.404713	0.712672
	H13	H	0.158709	0.598017	0.710659
	H14	H	0.828581	0.602091	0.286735
	H15	H	0.157637	0.404777	0.283531
	H16	H	0.393235	0.721091	0.835479
	H17	H	0.591939	0.717904	0.162533
	H18	H	0.593877	0.289127	0.835458
	H19	H	0.390337	0.286499	0.161282
	H20	H	0.710715	0.839396	0.400798
	H21	H	0.708572	0.166475	0.594817
	H22	H	0.281535	0.839730	0.599013
	H23	H	0.279742	0.165740	0.399515
	H24	H	0.893151	0.340921	0.215995
	H25	H	0.091334	0.666217	0.212709
	H26	H	0.094472	0.340380	0.784725
	H27	H	0.895292	0.666027	0.783471
	H28	H	0.209335	0.906084	0.334433
	H29	H	0.206056	0.096696	0.664395
	H30	H	0.782484	0.101418	0.334269
	H31	H	0.782777	0.906835	0.663462
	H32	H	0.329933	0.219997	0.898331
	H33	H	0.656928	0.218511	0.097381
	H34	H	0.328684	0.789600	0.098507
	H35	H	0.656734	0.787508	0.898218
	H36	H	0.330612	0.904259	0.215478
	H37	H	0.659332	0.099617	0.209586
	H38	H	0.329636	0.102700	0.784182
	H39	H	0.658438	0.906359	0.785773
	H40	H	0.894832	0.220182	0.335769
	H41	H	0.093575	0.217217	0.663502
	H42	H	0.097608	0.786584	0.336171
	H43	H	0.895149	0.788214	0.662472
	H44	H	0.210081	0.341417	0.900336
	H45	H	0.205932	0.667139	0.095617
	H46	H	0.778196	0.340731	0.099109
	H47	H	0.778842	0.667176	0.901056
	H48	H	0.403389	0.120580	0.598216
	H49	H	0.590404	0.883292	0.604366
	H50	H	0.585784	0.116070	0.411341
	H51	H	0.404241	0.888440	0.408517
	H52	H	0.583450	0.404871	0.117170
	H53	H	0.577961	0.590048	0.886587
	H54	H	0.399571	0.596655	0.115139
	H55	H	0.406802	0.401252	0.880559
	H56	H	0.108210	0.585733	0.406568
	H57	H	0.879990	0.587731	0.590153
	H58	H	0.112933	0.407420	0.595702
	H59	H	0.878020	0.416888	0.407090
	H60	H	0.111587	0.406162	0.588886
	H61	H	0.873479	0.599961	0.599547
	H62	H	0.115234	0.598001	0.397012
	H63	H	0.874601	0.406784	0.403993
	H64	H	0.398881	0.597651	0.115688
	H65	H	0.583244	0.606677	0.880033
	H66	H	0.588218	0.413100	0.115895
	H67	H	0.391110	0.414677	0.879438
	H68	H	0.595193	0.120007	0.402975
	H69	H	0.578666	0.892140	0.590100
	H70	H	0.404706	0.116053	0.586216
	H71	H	0.402421	0.886485	0.406639
	H72	H	0.902315	0.620700	0.101289
	H73	H	0.086928	0.388047	0.089923
	H74	H	0.078299	0.615187	0.911818
	H75	H	0.902328	0.385788	0.899513
	H76	H	0.092489	0.906134	0.617880
	H77	H	0.081435	0.102231	0.383286
	H78	H	0.899824	0.097093	0.616218
	H79	H	0.894529	0.912679	0.379911
	H80	H	0.610371	0.095328	0.905372
	H81	H	0.374455	0.099573	0.094318
	H82	H	0.606176	0.915724	0.083582
	H83	H	0.378474	0.917980	0.908689
	H84	H	0.613208	0.910732	0.100000
	H85	H	0.378527	0.095947	0.085958
	H86	H	0.611721	0.098130	0.904091
	H87	H	0.374065	0.910819	0.899828
	H88	H	0.902501	0.094450	0.615158
	H89	H	0.093560	0.101378	0.380155
	H90	H	0.086688	0.913113	0.614777
	H91	H	0.910915	0.918585	0.386351
	H92	H	0.096791	0.622546	0.907097
	H93	H	0.085716	0.388390	0.093032
	H94	H	0.904392	0.615589	0.085353
	H95	H	0.904165	0.390127	0.910991
	H96	H	0.393705	0.120194	0.590348
	H97	H	0.597664	0.887007	0.585481
	H98	H	0.583190	0.118747	0.398639
	H99	H	0.405298	0.887764	0.405433
	H100	H	0.579298	0.412413	0.113888
	H101	H	0.595042	0.592948	0.880173
	H102	H	0.398924	0.596551	0.114742
	H103	H	0.409473	0.420280	0.887099
	H104	H	0.109601	0.601120	0.413002
	H105	H	0.876957	0.603339	0.583461
	H106	H	0.110840	0.413063	0.591758
	H107	H	0.878492	0.408454	0.414690
	H108	H	0.889771	0.622140	0.090874
	H109	H	0.084038	0.388077	0.090908
	H110	H	0.082611	0.622351	0.892921
	H111	H	0.892943	0.385714	0.907589
	H112	H	0.083894	0.904000	0.615495
	H113	H	0.086989	0.090429	0.384059
	H114	H	0.903393	0.098096	0.615000
	H115	H	0.909142	0.901688	0.380787
	H116	H	0.609976	0.098119	0.907548
	H117	H	0.377741	0.090443	0.093795
	H118	H	0.612829	0.898325	0.086436
	H119	H	0.376072	0.905913	0.910935
	C120	C	0.372939	0.011274	0.620782
	C121	C	0.616949	0.995169	0.620528
	C122	C	0.617351	0.010939	0.376208
	C123	C	0.374118	0.994914	0.377307
	C124	C	0.613958	0.381861	0.007530
	C125	C	0.613887	0.624716	0.990603
	C126	C	0.370949	0.625986	0.006657
	C127	C	0.371898	0.382471	0.990145
	C128	C	0.002271	0.624584	0.377539
	C129	C	0.985468	0.624576	0.619801
	C130	C	0.002850	0.381047	0.621069
	C131	C	0.985613	0.382179	0.378520
	C132	C	0.870459	0.511918	0.121814
	C133	C	0.114395	0.495717	0.119901
	C134	C	0.115491	0.512218	0.876233
	C135	C	0.871562	0.494878	0.877295
	C136	C	0.117190	0.880225	0.507667
	C137	C	0.116113	0.125161	0.491054
	C138	C	0.873242	0.125364	0.507425
	C139	C	0.874895	0.882156	0.490174
	C140	C	0.502083	0.125962	0.876530
	C141	C	0.485705	0.123837	0.119289
	C142	C	0.502453	0.880520	0.119917
	C143	C	0.484786	0.882496	0.877743
	C144	C	0.375982	0.889107	0.677286
	C145	C	0.614274	0.117949	0.675077
	C146	C	0.615246	0.888297	0.321351
	C147	C	0.375543	0.117359	0.321058
	C148	C	0.669479	0.385790	0.884138
	C149	C	0.668231	0.621467	0.114299
	C150	C	0.316337	0.624206	0.883311
	C151	C	0.316060	0.384847	0.113296
	C152	C	0.879459	0.681905	0.379349
	C153	C	0.109413	0.678864	0.617921
	C154	C	0.879416	0.326138	0.619608
	C155	C	0.109406	0.327022	0.379554
	C156	C	0.878815	0.384199	0.675517
	C157	C	0.109334	0.620325	0.674183
	C158	C	0.878354	0.622953	0.323199
	C159	C	0.108799	0.384238	0.321628
	C160	C	0.373228	0.682250	0.883832
	C161	C	0.612075	0.680099	0.113599
	C162	C	0.613366	0.326834	0.884480
	C163	C	0.371325	0.325278	0.112489
	C164	C	0.672999	0.888224	0.379549
	C165	C	0.671350	0.117855	0.616571
	C166	C	0.318631	0.888688	0.619335
	C167	C	0.318148	0.117295	0.379221
	C168	C	0.872841	0.389520	0.177930
	C169	C	0.111755	0.617897	0.174645
	C170	C	0.113995	0.389453	0.821997
	C171	C	0.874233	0.617625	0.821950
	C172	C	0.172508	0.884334	0.383941
	C173	C	0.170070	0.119855	0.614916
	C174	C	0.819179	0.122634	0.383701
	C175	C	0.819599	0.885391	0.614040
	C176	C	0.379050	0.182052	0.877866
	C177	C	0.608444	0.179977	0.117236
	C178	C	0.378291	0.826280	0.119059
	C179	C	0.608161	0.826463	0.879103
	C180	C	0.379099	0.883657	0.176707
	C181	C	0.609672	0.120936	0.173010
	C182	C	0.378788	0.123429	0.821478
	C183	C	0.609132	0.885192	0.823072
	C184	C	0.875076	0.181700	0.384435
	C185	C	0.114088	0.179527	0.614390
	C186	C	0.116965	0.825113	0.384711
	C187	C	0.875897	0.826671	0.613758
	C188	C	0.171586	0.389778	0.879531
	C189	C	0.168599	0.618253	0.116445
	C190	C	0.815604	0.389269	0.119651
	C191	C	0.816383	0.618005	0.880111
	C192	C	0.394306	0.096822	0.598283
	C193	C	0.595305	0.909745	0.599500
	C194	C	0.594622	0.096194	0.397998
	C195	C	0.397103	0.909588	0.400317
	C196	C	0.590378	0.403669	0.093302
	C197	C	0.591902	0.603076	0.904647
	C198	C	0.392786	0.603511	0.092860
	C199	C	0.395606	0.405493	0.904566
	C200	C	0.088611	0.601652	0.399141
	C201	C	0.898953	0.603369	0.597622
	C202	C	0.089567	0.402626	0.598787
	C203	C	0.899349	0.404276	0.401717
	C204	C	0.892437	0.597354	0.099199
	C205	C	0.092116	0.410110	0.097786
	C206	C	0.092686	0.597942	0.897813
	C207	C	0.893427	0.409318	0.899491
	C208	C	0.094392	0.901518	0.593726
	C209	C	0.093988	0.104041	0.404861
	C210	C	0.895394	0.102945	0.593263
	C211	C	0.898050	0.904462	0.404333
	C212	C	0.588347	0.103868	0.899144
	C213	C	0.399160	0.101808	0.097639
	C214	C	0.588489	0.901840	0.096715
	C215	C	0.398594	0.904992	0.899938
	Zn216	Zn	0.494385	0.003927	0.749544
	Zn217	Zn	0.495321	0.002731	0.247467
	Zn218	Zn	0.742186	0.503233	-0.000220
	Zn219	Zn	0.243248	0.504340	-0.001459
	Zn220	Zn	-0.004884	0.753010	0.498729
	Zn221	Zn	-0.005568	0.253948	0.499800
	Zn222	Zn	-0.006578	0.502661	0.747782
	Zn223	Zn	-0.006577	0.503491	0.249499
	Zn224	Zn	0.492852	0.753252	-0.001646
	Zn225	Zn	0.492918	0.253036	-0.001197
	Zn226	Zn	0.746081	0.003301	0.498495
	Zn227	Zn	0.244667	0.002723	0.498988
	N228	N	0.408942	0.966484	0.678474
	N229	N	0.580954	0.040852	0.677622
	N230	N	0.581472	0.965583	0.319013
	N231	N	0.409735	0.040198	0.319781
	N232	N	0.670071	0.419220	0.961747
	N233	N	0.669671	0.587878	0.036899
	N234	N	0.315243	0.589613	0.960635
	N235	N	0.316387	0.420049	0.036171
	N236	N	0.957509	0.682886	0.412390
	N237	N	0.031301	0.681740	0.584750
	N238	N	0.957562	0.324025	0.586255
	N239	N	0.031742	0.325531	0.414147
	N240	N	0.956691	0.417501	0.676586
	N241	N	0.031427	0.587100	0.675325
	N242	N	0.955937	0.588139	0.321876
	N243	N	0.030948	0.418027	0.321177
	N244	N	0.406335	0.683409	0.961558
	N245	N	0.578701	0.682076	0.035775
	N246	N	0.579367	0.324446	0.962202
	N247	N	0.405498	0.323715	0.034931
	N248	N	0.674320	0.965300	0.412983
	N249	N	0.673121	0.040665	0.583421
	N250	N	0.316742	0.965594	0.584821
	N251	N	0.317061	0.040242	0.413399
	N252	N	0.906083	0.466836	0.179584
	N253	N	0.078420	0.540571	0.176666
	N254	N	0.079685	0.466600	0.819937
	N255	N	0.907607	0.540291	0.820047
	N256	N	0.172840	0.917963	0.461455
	N257	N	0.171557	0.086995	0.537184
	N258	N	0.817969	0.088370	0.461059
	N259	N	0.818858	0.919238	0.536356
	N260	N	0.456746	0.183436	0.911292
	N261	N	0.530326	0.181606	0.084353
	N262	N	0.455899	0.824332	0.084396
	N263	N	0.529911	0.824680	0.912226
	N264	N	0.457174	0.916539	0.177393
	N265	N	0.532300	0.086644	0.174292
	N266	N	0.456516	0.089263	0.820473
	N267	N	0.531498	0.919527	0.822190
	N268	N	0.908145	0.183443	0.462401
	N269	N	0.081282	0.182769	0.536430
	N270	N	0.083593	0.822222	0.462568
	N271	N	0.909298	0.824564	0.535712
	N272	N	0.172522	0.466986	0.912655
	N273	N	0.170269	0.541129	0.083190
	N274	N	0.813936	0.466340	0.085771
	N275	N	0.814763	0.540718	0.914102
	O276	O	0.466667	0.575907	0.435984
	H277	H	0.470102	0.575465	0.429223
	H278	H	0.469771	0.567949	0.433550
	O279	O	0.440741	0.502362	0.561779
	H280	H	0.449332	0.502428	0.556200
	H281	H	0.451925	0.500172	0.561812
	O282	O	0.479965	0.529234	0.538900
	H283	H	0.472537	0.542515	0.529444
	H284	H	0.481329	0.538938	0.557711
	O285	O	-0.022117	1.006490	1.068587
	H286	H	-0.019861	1.014284	1.059941
	H287	H	-0.025244	1.014345	1.076798
	O288	O	0.521013	0.489820	0.491700
	H289	H	0.520626	0.481900	0.492912
	H290	H	0.505315	0.490233	0.495530
	O291	O	0.581613	0.435375	1.428867
	H292	H	0.575456	0.422572	1.435699
	H293	H	0.584123	0.429507	1.412873
	O294	O	0.467054	0.478404	0.491131
	H295	H	0.466361	0.485535	0.496271
	H296	H	0.480579	0.469314	0.490194
	O297	O	0.502382	0.420563	0.552175
	H298	H	0.521569	0.426917	0.558099
	H299	H	0.506542	0.414654	0.559498
	O300	O	0.542166	0.523617	0.566884
	H301	H	0.547063	0.522974	0.556845
	H302	H	0.542821	0.528174	0.556699
	O303	O	0.429019	0.461687	0.476779
	H304	H	0.431198	0.460108	0.491953
	H305	H	0.427792	0.462166	0.474399
	O306	O	0.944085	-0.006329	1.035441
	H307	H	0.948561	-0.007054	1.045298
	H308	H	0.949627	-0.007322	1.036293
	O309	O	0.452150	0.442389	0.481745
	H310	H	0.445965	0.439557	0.490808
	H311	H	0.450230	0.449228	0.482317
	O312	O	0.450441	0.586496	0.477287
	H313	H	0.452879	0.589142	0.466651
	H314	H	0.443397	0.567440	0.475402
	O315	O	0.937632	-0.003185	1.008098
	H316	H	0.944018	-0.018764	1.015063
	H317	H	0.930927	0.000887	1.012877
	O318	O	0.408652	-0.608748	-0.464178
	H319	H	0.405709	-0.610837	-0.463499
	H320	H	0.408548	-0.609683	-0.453517
	O321	O	0.580590	0.451913	0.454242
	H322	H	0.578776	0.450964	0.450162
	H323	H	0.575974	0.468409	0.449666
	O324	O	0.940208	0.040514	-0.022366
	H325	H	0.937830	0.037622	-0.023263
	H326	H	0.938395	0.030068	-0.028771
	O327	O	0.964400	1.018542	0.010798
	H328	H	0.955213	1.025179	0.006404
	H329	H	0.954263	1.023868	0.003501
	O330	O	0.412618	0.453785	0.435317
	H331	H	0.401514	0.467863	0.436965
	H332	H	0.405976	0.445209	0.429310
	O333	O	0.469007	0.566837	0.402626
	H334	H	0.469484	0.570246	0.406752
	H335	H	0.463532	0.560486	0.395711
