data_Molecule from HDF5

_cell_length_a		16.424065
_cell_length_b		16.284845
_cell_length_c		16.477006
_cell_angle_alpha	89.921798
_cell_angle_beta	89.969639
_cell_angle_gamma	90.102808
_symmetry_space_group_name_H-M	'P 1'
_symmetry_Int_Tables_number		1

loop_
	_symmetry_equiv_pos_as_xyz
	x,y,z

loop_
	_atom_site_label
	_atom_site_type_symbol
	_atom_site_fract_x
	_atom_site_fract_y
	_atom_site_fract_z
	H0	H	0.391271	0.837154	0.720308
	H1	H	0.605308	0.155692	0.721550
	H2	H	0.603946	0.837723	0.277596
	H3	H	0.388399	0.154778	0.275637
	H4	H	0.719777	0.388748	0.842298
	H5	H	0.718834	0.602686	0.157445
	H6	H	0.273203	0.604970	0.841716
	H7	H	0.273908	0.390493	0.156462
	H8	H	0.836573	0.716483	0.394509
	H9	H	0.155826	0.714124	0.599384
	H10	H	0.837977	0.275418	0.603804
	H11	H	0.155219	0.277411	0.395464
	H12	H	0.839770	0.386091	0.723797
	H13	H	0.153951	0.603231	0.720377
	H14	H	0.838230	0.602676	0.275946
	H15	H	0.155045	0.390215	0.276866
	H16	H	0.392951	0.718143	0.840841
	H17	H	0.599515	0.715254	0.159205
	H18	H	0.599614	0.276118	0.839890
	H19	H	0.388593	0.274337	0.156578
	H20	H	0.715447	0.836657	0.396578
	H21	H	0.717575	0.157186	0.603690
	H22	H	0.274178	0.837868	0.606713
	H23	H	0.272708	0.154187	0.391261
	H24	H	0.890993	0.336426	0.219554
	H25	H	0.102142	0.656383	0.219186
	H26	H	0.102628	0.337511	0.777324
	H27	H	0.890410	0.655978	0.778168
	H28	H	0.220629	0.887790	0.343431
	H29	H	0.221955	0.106394	0.655317
	H30	H	0.774288	0.104730	0.340604
	H31	H	0.776558	0.893503	0.657525
	H32	H	0.337358	0.218075	0.891704
	H33	H	0.655261	0.217399	0.100861
	H34	H	0.337338	0.776555	0.102627
	H35	H	0.656431	0.776567	0.896320
	H36	H	0.340278	0.887049	0.224106
	H37	H	0.654763	0.104484	0.219872
	H38	H	0.339247	0.104836	0.773810
	H39	H	0.655280	0.890847	0.778601
	H40	H	0.891350	0.219982	0.340539
	H41	H	0.102699	0.218938	0.657961
	H42	H	0.100158	0.777357	0.340806
	H43	H	0.890326	0.774506	0.656370
	H44	H	0.217192	0.337314	0.893773
	H45	H	0.215792	0.656889	0.101371
	H46	H	0.774678	0.336591	0.104737
	H47	H	0.776609	0.657171	0.895277
	H48	H	0.415377	0.110043	0.589120
	H49	H	0.584249	0.882638	0.590152
	H50	H	0.587868	0.113028	0.407796
	H51	H	0.402697	0.881460	0.415011
	H52	H	0.583980	0.411689	0.110112
	H53	H	0.590871	0.585714	0.885558
	H54	H	0.402987	0.583898	0.111966
	H55	H	0.414939	0.402329	0.885793
	H56	H	0.109872	0.587936	0.409414
	H57	H	0.882980	0.580702	0.589180
	H58	H	0.109620	0.409170	0.587511
	H59	H	0.885937	0.411594	0.414476
	H60	H	0.109094	0.411145	0.588951
	H61	H	0.880605	0.586104	0.592094
	H62	H	0.108311	0.583318	0.408558
	H63	H	0.882620	0.413182	0.405104
	H64	H	0.407846	0.583766	0.110620
	H65	H	0.584355	0.582307	0.887998
	H66	H	0.582389	0.405369	0.111637
	H67	H	0.397725	0.406251	0.881065
	H68	H	0.582627	0.110898	0.407598
	H69	H	0.586531	0.882533	0.587210
	H70	H	0.409018	0.108773	0.581149
	H71	H	0.410973	0.880602	0.404537
	H72	H	0.913459	0.609322	0.088445
	H73	H	0.088645	0.380522	0.089237
	H74	H	0.078495	0.609564	0.909454
	H75	H	0.906308	0.382062	0.911518
	H76	H	0.086489	0.908026	0.612334
	H77	H	0.089734	0.080040	0.387499
	H78	H	0.904342	0.083772	0.611656
	H79	H	0.904179	0.908860	0.384976
	H80	H	0.607565	0.087549	0.914377
	H81	H	0.383340	0.085505	0.085314
	H82	H	0.608310	0.910007	0.087698
	H83	H	0.384686	0.906318	0.914817
	H84	H	0.611316	0.906818	0.092083
	H85	H	0.384897	0.080009	0.088162
	H86	H	0.607412	0.080236	0.909687
	H87	H	0.385318	0.913385	0.907888
	H88	H	0.909693	0.083552	0.609463
	H89	H	0.077964	0.082600	0.390544
	H90	H	0.083964	0.908733	0.612013
	H91	H	0.906694	0.907377	0.384953
	H92	H	0.086327	0.609397	0.915296
	H93	H	0.082281	0.382541	0.090861
	H94	H	0.904979	0.609373	0.082239
	H95	H	0.908985	0.382172	0.909608
	H96	H	0.405749	0.112786	0.590156
	H97	H	0.587795	0.881475	0.590406
	H98	H	0.585778	0.110084	0.412414
	H99	H	0.415241	0.886752	0.415774
	H100	H	0.588386	0.407923	0.112790
	H101	H	0.584528	0.589602	0.886377
	H102	H	0.406061	0.587979	0.113239
	H103	H	0.407406	0.418563	0.889868
	H104	H	0.111121	0.586266	0.405178
	H105	H	0.882402	0.586612	0.585887
	H106	H	0.109886	0.409014	0.589640
	H107	H	0.882096	0.403956	0.409711
	H108	H	0.903973	0.612749	0.092418
	H109	H	0.085067	0.382590	0.084502
	H110	H	0.087632	0.613222	0.905888
	H111	H	0.908691	0.383550	0.912511
	H112	H	0.084519	0.906322	0.613095
	H113	H	0.085051	0.090905	0.385246
	H114	H	0.908041	0.088400	0.611365
	H115	H	0.904460	0.905625	0.383785
	H116	H	0.611262	0.087480	0.906348
	H117	H	0.382158	0.084898	0.091312
	H118	H	0.610050	0.904654	0.086948
	H119	H	0.380985	0.904800	0.905986
	C120	C	0.376421	0.005264	0.619988
	C121	C	0.618890	0.988178	0.621085
	C122	C	0.617714	0.005704	0.377649
	C123	C	0.375967	0.987699	0.378249
	C124	C	0.616995	0.375661	0.007127
	C125	C	0.618470	0.618034	0.991147
	C126	C	0.373952	0.618472	0.007600
	C127	C	0.373843	0.375343	0.990234
	C128	C	0.004829	0.618187	0.376211
	C129	C	0.987170	0.617302	0.620187
	C130	C	0.005364	0.375707	0.621351
	C131	C	0.988277	0.376354	0.377754
	C132	C	0.875002	0.504879	0.120048
	C133	C	0.117665	0.487705	0.120070
	C134	C	0.117153	0.505682	0.877510
	C135	C	0.875069	0.487935	0.878298
	C136	C	0.117602	0.875380	0.508336
	C137	C	0.117682	0.118128	0.491552
	C138	C	0.874667	0.118889	0.506767
	C139	C	0.874004	0.874994	0.489686
	C140	C	0.504810	0.118668	0.876457
	C141	C	0.488146	0.117175	0.119692
	C142	C	0.505428	0.874317	0.121407
	C143	C	0.488346	0.875450	0.877914
	C144	C	0.373436	0.885140	0.680349
	C145	C	0.622600	0.107832	0.681534
	C146	C	0.620792	0.885469	0.317869
	C147	C	0.371309	0.106939	0.316239
	C148	C	0.678499	0.371680	0.889016
	C149	C	0.678514	0.620366	0.110180
	C150	C	0.313835	0.622182	0.888767
	C151	C	0.313534	0.372485	0.108903
	C152	C	0.884913	0.677442	0.375441
	C153	C	0.107636	0.676151	0.619979
	C154	C	0.885864	0.315085	0.622783
	C155	C	0.107590	0.316474	0.376309
	C156	C	0.886690	0.370249	0.682614
	C157	C	0.106679	0.620553	0.679717
	C158	C	0.885652	0.620737	0.316296
	C159	C	0.107419	0.372914	0.317216
	C160	C	0.373187	0.678709	0.888362
	C161	C	0.618853	0.676517	0.111049
	C162	C	0.618659	0.315605	0.887865
	C163	C	0.370764	0.314257	0.108830
	C164	C	0.676619	0.884839	0.376983
	C165	C	0.678627	0.108694	0.622616
	C166	C	0.314734	0.885817	0.623925
	C167	C	0.313506	0.106684	0.373929
	C168	C	0.872815	0.384385	0.179719
	C169	C	0.119788	0.608483	0.179063
	C170	C	0.119960	0.385175	0.817484
	C171	C	0.872728	0.608144	0.818249
	C172	C	0.179207	0.871510	0.389952
	C173	C	0.180304	0.122733	0.608932
	C174	C	0.814215	0.122375	0.388054
	C175	C	0.815571	0.874000	0.609620
	C176	C	0.385433	0.178523	0.873495
	C177	C	0.607464	0.177732	0.120279
	C178	C	0.385539	0.815120	0.122474
	C179	C	0.608256	0.815918	0.877210
	C180	C	0.386888	0.870321	0.182672
	C181	C	0.607406	0.121215	0.179420
	C182	C	0.386447	0.122331	0.814310
	C183	C	0.607949	0.872934	0.818645
	C184	C	0.872445	0.180200	0.388107
	C185	C	0.120951	0.179291	0.609932
	C186	C	0.119215	0.816225	0.388785
	C187	C	0.872165	0.814915	0.608854
	C188	C	0.177154	0.385231	0.875366
	C189	C	0.176504	0.608748	0.120767
	C190	C	0.814698	0.384583	0.122606
	C191	C	0.815487	0.608386	0.876320
	C192	C	0.402653	0.088812	0.594088
	C193	C	0.593540	0.904213	0.596472
	C194	C	0.592575	0.089485	0.402104
	C195	C	0.402178	0.904590	0.404210
	C196	C	0.591994	0.401047	0.089898
	C197	C	0.593805	0.592943	0.908298
	C198	C	0.398524	0.592609	0.090221
	C199	C	0.399330	0.401419	0.907293
	C200	C	0.088125	0.592960	0.400607
	C201	C	0.903794	0.591974	0.595919
	C202	C	0.087873	0.402250	0.596156
	C203	C	0.905127	0.402157	0.402522
	C204	C	0.900253	0.588814	0.094843
	C205	C	0.092523	0.403843	0.095482
	C206	C	0.091643	0.588877	0.902706
	C207	C	0.900566	0.404279	0.903905
	C208	C	0.092267	0.900836	0.590906
	C209	C	0.091641	0.092106	0.409241
	C210	C	0.900021	0.092705	0.589419
	C211	C	0.898199	0.899988	0.406327
	C212	C	0.587309	0.092660	0.902518
	C213	C	0.405053	0.090912	0.095266
	C214	C	0.588386	0.899903	0.096190
	C215	C	0.405357	0.900797	0.902495
	Zn216	Zn	0.497256	-0.003114	0.748470
	Zn217	Zn	0.496851	-0.003352	0.249063
	Zn218	Zn	0.746723	0.496384	-0.000609
	Zn219	Zn	0.245113	0.496808	-0.001620
	Zn220	Zn	-0.003873	0.746237	0.498869
	Zn221	Zn	-0.003131	0.247809	0.499440
	Zn222	Zn	-0.003806	0.496814	0.749497
	Zn223	Zn	-0.003526	0.496372	0.247647
	Zn224	Zn	0.496840	0.746484	-0.000693
	Zn225	Zn	0.495141	0.246761	-0.001539
	Zn226	Zn	0.745513	-0.002764	0.498810
	Zn227	Zn	0.247380	-0.003752	0.499762
	N228	N	0.411118	0.960617	0.678013
	N229	N	0.586161	0.031927	0.680613
	N230	N	0.585019	0.961879	0.317915
	N231	N	0.409326	0.031815	0.318648
	N232	N	0.677575	0.408102	0.963973
	N233	N	0.678277	0.584688	0.034648
	N234	N	0.314095	0.585675	0.963991
	N235	N	0.315408	0.409574	0.033980
	N236	N	0.960116	0.675988	0.411928
	N237	N	0.032209	0.674450	0.583895
	N238	N	0.960610	0.318068	0.585407
	N239	N	0.032538	0.318425	0.413257
	N240	N	0.961969	0.407111	0.682040
	N241	N	0.030822	0.584782	0.679943
	N242	N	0.961370	0.584976	0.316501
	N243	N	0.032095	0.409578	0.318163
	N244	N	0.409637	0.676766	0.963252
	N245	N	0.582499	0.675468	0.036015
	N246	N	0.580970	0.317963	0.962448
	N247	N	0.407284	0.315657	0.033704
	N248	N	0.674996	0.960568	0.413103
	N249	N	0.676306	0.033118	0.585659
	N250	N	0.316474	0.961648	0.587338
	N251	N	0.316354	0.031599	0.411859
	N252	N	0.909632	0.460203	0.178147
	N253	N	0.083877	0.532177	0.178698
	N254	N	0.083315	0.460996	0.818680
	N255	N	0.908924	0.532104	0.819308
	N256	N	0.178532	0.907707	0.465406
	N257	N	0.178547	0.085342	0.534340
	N258	N	0.815336	0.085226	0.463066
	N259	N	0.816336	0.910575	0.534351
	N260	N	0.459785	0.176237	0.911410
	N261	N	0.532297	0.175236	0.083810
	N262	N	0.460170	0.817437	0.085116
	N263	N	0.532862	0.817151	0.913288
	N264	N	0.462651	0.906283	0.182307
	N265	N	0.532100	0.084275	0.179269
	N266	N	0.461986	0.085969	0.815820
	N267	N	0.532327	0.908940	0.818569
	N268	N	0.909258	0.178128	0.462910
	N269	N	0.082481	0.176371	0.535961
	N270	N	0.081659	0.818465	0.463216
	N271	N	0.907706	0.815442	0.533384
	N272	N	0.175397	0.460875	0.912151
	N273	N	0.175182	0.532717	0.084895
	N274	N	0.816003	0.460626	0.086281
	N275	N	0.816855	0.532474	0.912841
	O276	O	0.593201	0.486827	0.689791
	H277	H	0.592968	0.487902	0.698203
	H278	H	0.598701	0.492904	0.696884
	O279	O	0.430074	0.601835	0.510959
	H280	H	0.426246	0.606390	0.512680
	H281	H	0.428904	0.598514	0.526167
	O282	O	0.568437	0.649150	0.303288
	H283	H	0.560223	0.662090	0.301811
	H284	H	0.568805	0.645803	0.305415
	O285	O	1.172311	1.176566	0.180293
	H286	H	1.186864	1.186975	0.140267
	H287	H	1.163760	1.145996	0.185215
	O288	O	0.633256	0.669495	0.498807
	H289	H	0.649161	0.694914	0.483451
	H290	H	0.626204	0.644189	0.477671
	O291	O	0.395191	0.405962	0.493920
	H292	H	0.382211	0.399907	0.495629
	H293	H	0.395199	0.412369	0.482212
	O294	O	1.160652	0.940953	0.972879
	H295	H	1.174302	0.932522	0.966986
	H296	H	1.143233	0.943560	0.986415
	O297	O	0.527430	0.645184	0.657777
	H298	H	0.522446	0.653709	0.676150
	H299	H	0.528937	0.636512	0.656110
	O300	O	0.321097	0.688151	0.452799
	H301	H	0.328424	0.701642	0.474183
	H302	H	0.316025	0.690405	0.461132
	O303	O	0.710258	0.573841	0.706597
	H304	H	0.735497	0.581912	0.714440
	H305	H	0.710844	0.610759	0.705374
	O306	O	0.004953	-0.147163	1.014852
	H307	H	0.023687	-0.152871	1.011817
	H308	H	0.014474	-0.147768	1.041005
	O309	O	0.914527	0.123887	0.098488
	H310	H	0.926310	0.119030	0.102459
	H311	H	0.925368	0.107925	0.116635
	O312	O	0.311839	0.479029	0.356777
	H313	H	0.303421	0.490196	0.352080
	H314	H	0.313721	0.498169	0.356062
	O315	O	0.670662	0.620322	0.605647
	H316	H	0.638518	0.630420	0.602333
	H317	H	0.673888	0.622326	0.578459
	O318	O	0.174028	-0.134608	-0.002140
	H319	H	0.169815	-0.112846	0.009280
	H320	H	0.198259	-0.140169	-0.012575
	O321	O	0.392556	0.576293	0.393268
	H322	H	0.381673	0.581948	0.377240
	H323	H	0.375824	0.567678	0.394950
	O324	O	1.002471	0.128859	1.211410
	H325	H	1.002631	0.139943	1.224885
	H326	H	1.029881	0.137625	1.209770
	O327	O	0.591597	0.487393	0.550638
	H328	H	0.593324	0.496516	0.535423
	H329	H	0.595865	0.478721	0.535976
	O330	O	0.187449	0.884231	0.943811
	H331	H	0.195720	0.894188	0.972931
	H332	H	0.181566	0.902595	0.936923
	O333	O	-0.125891	0.951777	-0.196438
	H334	H	-0.130843	0.951244	-0.182379
	H335	H	-0.129446	0.964018	-0.192078
	O336	O	1.203163	0.982004	-0.200204
	H337	H	1.219685	0.979475	-0.226719
	H338	H	1.167775	1.003137	-0.212312
	O339	O	-0.050295	0.805612	1.074099
	H340	H	-0.031435	0.789021	1.078806
	H341	H	-0.046721	0.818702	1.072598
	O342	O	0.556195	0.283198	0.293443
	H343	H	0.580194	0.273753	0.296086
	H344	H	0.582942	0.266223	0.280230
	O345	O	-0.120347	-0.016304	1.103898
	H346	H	-0.116478	-0.049464	1.101008
	H347	H	-0.147476	-0.027407	1.128429
	O348	O	0.332603	0.333376	0.654382
	H349	H	0.347751	0.327226	0.638763
	H350	H	0.322588	0.338051	0.634414
	O351	O	0.792460	1.034788	0.006551
	H352	H	0.804728	1.035240	0.006280
	H353	H	0.790722	1.008858	0.005819
	O354	O	1.049933	1.104645	1.077003
	H355	H	1.014374	1.108824	1.074608
	H356	H	1.054906	1.119646	1.060855
	O357	O	-0.063486	0.194003	-0.202197
	H358	H	-0.081641	0.198154	-0.193581
	H359	H	-0.065141	0.212941	-0.204542
	O360	O	0.500252	0.502030	0.300194
	H361	H	0.499181	0.491546	0.303498
	H362	H	0.488959	0.487144	0.305479
	O363	O	0.806264	-0.183627	0.096695
	H364	H	0.818421	-0.173944	0.085214
	H365	H	0.791970	-0.180928	0.080402
	O366	O	-0.196696	-0.198096	1.116749
	H367	H	-0.192740	-0.216137	1.100992
	H368	H	-0.188972	-0.206315	1.097715
	O369	O	0.834640	0.012256	1.028132
	H370	H	0.833585	0.007898	1.007488
	H371	H	0.827280	0.013611	1.034808
	O372	O	0.576948	0.650110	0.479688
	H373	H	0.570297	0.637146	0.495783
	H374	H	0.575330	0.646578	0.470407
	O375	O	-0.142653	0.157997	0.957705
	H376	H	-0.150166	0.146269	0.966944
	H377	H	-0.155810	0.165765	0.951422
	O378	O	0.448657	0.566457	0.670148
	H379	H	0.435539	0.550858	0.681077
	H380	H	0.461065	0.546967	0.676394
	O381	O	-0.184579	1.137288	-0.161610
	H382	H	-0.178223	1.146439	-0.139519
	H383	H	-0.192568	1.121197	-0.156111
	O384	O	0.374898	0.584382	0.630951
	H385	H	0.380245	0.600126	0.637393
	H386	H	0.356308	0.577826	0.649269
	O387	O	0.693322	0.468593	0.542595
	H388	H	0.683534	0.486535	0.540487
	H389	H	0.682206	0.473283	0.565744
	O390	O	1.107712	1.103029	-0.028026
	H391	H	1.104871	1.088214	-0.033448
	H392	H	1.117925	1.109073	-0.029236
	O393	O	1.108077	-0.202713	0.880598
	H394	H	1.106311	-0.180272	0.887679
	H395	H	1.118411	-0.208436	0.896700
	O396	O	0.469259	0.344353	0.495893
	H397	H	0.474296	0.356392	0.498491
	H398	H	0.468321	0.329680	0.479817
	O399	O	0.441433	0.360271	0.341914
	H400	H	0.458265	0.339528	0.329071
	H401	H	0.434590	0.364117	0.337622
	O402	O	1.129453	1.114077	-0.044375
	H403	H	1.143777	1.136456	-0.050131
	H404	H	1.126552	1.096976	-0.051467
	O405	O	0.679002	0.351682	0.313635
	H406	H	0.688802	0.371559	0.321650
	H407	H	0.696561	0.352343	0.333222
	O408	O	0.423021	0.298957	0.514682
	H409	H	0.439838	0.282982	0.517172
	H410	H	0.418587	0.289580	0.511603
	O411	O	0.982673	1.202811	1.004747
	H412	H	0.982036	1.190391	1.012654
	H413	H	0.990353	1.209589	0.995792
	O414	O	0.339575	0.558192	0.661903
	H415	H	0.351498	0.542144	0.663416
	H416	H	0.337117	0.542122	0.661401
	O417	O	0.004743	0.813301	0.788579
	H418	H	0.022204	0.817604	0.781211
	H419	H	0.019527	0.809135	0.779550
	O420	O	0.001310	1.012720	0.845735
	H421	H	-0.006564	1.011773	0.846915
	H422	H	0.001011	1.024498	0.853029
	O423	O	0.157587	0.922556	0.190615
	H424	H	0.130365	0.912584	0.193095
	H425	H	0.173312	0.928995	0.207285
	O426	O	0.524585	0.495390	0.307337
	H427	H	0.527661	0.494793	0.300563
	H428	H	0.512999	0.501835	0.302135
	O429	O	0.469237	0.307087	0.694109
	H430	H	0.475792	0.286479	0.698614
	H431	H	0.451678	0.304264	0.685358
	O432	O	0.661880	0.299631	0.514646
	H433	H	0.672526	0.290629	0.528704
	H434	H	0.673703	0.325451	0.521767
	O435	O	-0.075898	-0.101992	0.124171
	H436	H	-0.100931	-0.092557	0.117356
	H437	H	-0.071883	-0.111323	0.139473
	O438	O	0.144375	0.989061	1.204035
	H439	H	0.119277	1.017272	1.198882
	H440	H	0.148083	0.964599	1.224141
	O441	O	0.306785	0.668530	0.312501
	H442	H	0.313585	0.680711	0.323024
	H443	H	0.304786	0.657002	0.327958
