data_Molecule from HDF5

_cell_length_a		16.641697
_cell_length_b		16.788114
_cell_length_c		16.510797
_cell_angle_alpha	89.862182
_cell_angle_beta	89.828098
_cell_angle_gamma	89.796813
_symmetry_space_group_name_H-M	'P 1'
_symmetry_Int_Tables_number		1

loop_
	_symmetry_equiv_pos_as_xyz
	x,y,z

loop_
	_atom_site_label
	_atom_site_type_symbol
	_atom_site_fract_x
	_atom_site_fract_y
	_atom_site_fract_z
	H0	H	0.392819	0.842962	0.741017
	H1	H	0.606266	0.148826	0.735325
	H2	H	0.605275	0.838558	0.294445
	H3	H	0.394251	0.146386	0.289810
	H4	H	0.721229	0.391525	0.857234
	H5	H	0.720892	0.598809	0.169448
	H6	H	0.276899	0.603212	0.860342
	H7	H	0.282140	0.391681	0.171451
	H8	H	0.846452	0.717541	0.409390
	H9	H	0.154960	0.716447	0.622496
	H10	H	0.845838	0.272690	0.621263
	H11	H	0.151773	0.266525	0.401461
	H12	H	0.844796	0.390199	0.735194
	H13	H	0.157104	0.595861	0.733771
	H14	H	0.844751	0.598205	0.296744
	H15	H	0.154739	0.388533	0.291572
	H16	H	0.391127	0.719361	0.859753
	H17	H	0.607451	0.716908	0.167902
	H18	H	0.607962	0.274267	0.857826
	H19	H	0.397587	0.274351	0.170545
	H20	H	0.721360	0.839015	0.410321
	H21	H	0.724765	0.146813	0.620561
	H22	H	0.276658	0.842762	0.625105
	H23	H	0.273222	0.144059	0.402214
	H24	H	0.894044	0.341250	0.239552
	H25	H	0.106391	0.648371	0.237300
	H26	H	0.111681	0.342034	0.789036
	H27	H	0.897507	0.647479	0.793328
	H28	H	0.225211	0.886588	0.360743
	H29	H	0.229540	0.107096	0.665185
	H30	H	0.782434	0.097988	0.356466
	H31	H	0.781743	0.892234	0.670433
	H32	H	0.349243	0.221225	0.903981
	H33	H	0.656070	0.214927	0.120130
	H34	H	0.349297	0.768955	0.124728
	H35	H	0.653824	0.768470	0.902028
	H36	H	0.348118	0.885246	0.239450
	H37	H	0.657647	0.094908	0.232565
	H38	H	0.347819	0.102563	0.791087
	H39	H	0.655877	0.888631	0.790608
	H40	H	0.892835	0.218374	0.359289
	H41	H	0.111405	0.220489	0.666722
	H42	H	0.108508	0.772005	0.360006
	H43	H	0.896674	0.775417	0.671115
	H44	H	0.228393	0.342707	0.905083
	H45	H	0.228732	0.644025	0.127790
	H46	H	0.778599	0.340934	0.122583
	H47	H	0.779438	0.647104	0.908490
	H48	H	0.422134	0.099667	0.599505
	H49	H	0.595069	0.883175	0.604193
	H50	H	0.589307	0.104480	0.421378
	H51	H	0.416574	0.885554	0.428773
	H52	H	0.590648	0.400431	0.128013
	H53	H	0.589190	0.582198	0.902379
	H54	H	0.415886	0.590184	0.129212
	H55	H	0.419401	0.410673	0.905046
	H56	H	0.114517	0.588446	0.425964
	H57	H	0.888266	0.587183	0.604354
	H58	H	0.111364	0.404901	0.601124
	H59	H	0.891498	0.401706	0.433929
	H60	H	0.112335	0.403372	0.599519
	H61	H	0.890453	0.584637	0.600002
	H62	H	0.110955	0.582562	0.431274
	H63	H	0.892144	0.412661	0.429581
	H64	H	0.407405	0.576484	0.125421
	H65	H	0.587632	0.581960	0.902158
	H66	H	0.592461	0.405566	0.127619
	H67	H	0.416253	0.402228	0.900788
	H68	H	0.593210	0.104827	0.424915
	H69	H	0.587778	0.884172	0.605529
	H70	H	0.412140	0.101801	0.591399
	H71	H	0.412112	0.884561	0.429499
	H72	H	0.907256	0.605071	0.104376
	H73	H	0.096088	0.382895	0.100886
	H74	H	0.082562	0.603246	0.921439
	H75	H	0.906003	0.380059	0.926104
	H76	H	0.092291	0.908837	0.627097
	H77	H	0.083125	0.081305	0.403801
	H78	H	0.910568	0.090376	0.629380
	H79	H	0.913012	0.906035	0.401303
	H80	H	0.614608	0.083773	0.922302
	H81	H	0.390946	0.077407	0.104668
	H82	H	0.610684	0.906569	0.098735
	H83	H	0.394466	0.913817	0.928109
	H84	H	0.612513	0.905324	0.104227
	H85	H	0.386252	0.090485	0.106614
	H86	H	0.613825	0.088256	0.926631
	H87	H	0.388258	0.905145	0.924368
	H88	H	0.906656	0.076260	0.626031
	H89	H	0.088153	0.077518	0.405035
	H90	H	0.082838	0.909285	0.623473
	H91	H	0.912997	0.899490	0.398892
	H92	H	0.085527	0.599308	0.933911
	H93	H	0.084373	0.384326	0.108502
	H94	H	0.910056	0.605817	0.105955
	H95	H	0.914649	0.381658	0.921548
	H96	H	0.411541	0.105327	0.604034
	H97	H	0.590730	0.885957	0.598708
	H98	H	0.593859	0.106467	0.420460
	H99	H	0.414179	0.884248	0.425626
	H100	H	0.587356	0.404226	0.126024
	H101	H	0.588275	0.582553	0.901491
	H102	H	0.423303	0.578237	0.120012
	H103	H	0.410073	0.409742	0.900518
	H104	H	0.112842	0.580412	0.422497
	H105	H	0.889575	0.582264	0.604740
	H106	H	0.110934	0.405335	0.599039
	H107	H	0.887293	0.404703	0.423393
	H108	H	0.910697	0.604408	0.102950
	H109	H	0.084735	0.389048	0.095050
	H110	H	0.095576	0.605366	0.926026
	H111	H	0.913334	0.384598	0.930314
	H112	H	0.086496	0.900777	0.627941
	H113	H	0.082798	0.076418	0.406854
	H114	H	0.920240	0.081371	0.621792
	H115	H	0.907432	0.903687	0.398104
	H116	H	0.611968	0.082678	0.927434
	H117	H	0.391379	0.087130	0.094173
	H118	H	0.613072	0.901681	0.099983
	H119	H	0.392952	0.904848	0.935200
	C120	C	0.380377	0.002763	0.635023
	C121	C	0.622973	0.986371	0.635027
	C122	C	0.623277	0.002397	0.391522
	C123	C	0.379974	0.985288	0.392788
	C124	C	0.622527	0.372613	0.022994
	C125	C	0.621261	0.614898	1.004934
	C126	C	0.380160	0.615861	0.022837
	C127	C	0.382260	0.374986	1.005621
	C128	C	0.009725	0.615857	0.394389
	C129	C	0.992319	0.615403	0.635367
	C130	C	0.009301	0.372538	0.634411
	C131	C	0.992077	0.372930	0.393824
	C132	C	0.877415	0.503207	0.137510
	C133	C	0.121738	0.486207	0.135797
	C134	C	0.122903	0.502191	0.893001
	C135	C	0.879704	0.484404	0.893248
	C136	C	0.121639	0.872917	0.523677
	C137	C	0.121036	0.114679	0.505906
	C138	C	0.879899	0.115426	0.522421
	C139	C	0.879913	0.872588	0.504218
	C140	C	0.511042	0.117836	0.892031
	C141	C	0.492529	0.115452	0.134479
	C142	C	0.510101	0.871741	0.135302
	C143	C	0.493116	0.874067	0.893696
	C144	C	0.375441	0.888936	0.699687
	C145	C	0.624981	0.102321	0.695163
	C146	C	0.623763	0.885402	0.333882
	C147	C	0.375749	0.100103	0.330135
	C148	C	0.681764	0.372339	0.904531
	C149	C	0.681530	0.617509	0.122309
	C150	C	0.317701	0.620403	0.906703
	C151	C	0.322231	0.372875	0.124184
	C152	C	0.892699	0.676551	0.391700
	C153	C	0.108850	0.675299	0.639130
	C154	C	0.892362	0.312944	0.638645
	C155	C	0.106718	0.309592	0.386570
	C156	C	0.892091	0.371142	0.695680
	C157	C	0.109792	0.615712	0.694770
	C158	C	0.891747	0.617305	0.335879
	C159	C	0.108070	0.369994	0.331595
	C160	C	0.374581	0.678146	0.906479
	C161	C	0.625148	0.676122	0.121625
	C162	C	0.625453	0.313977	0.904911
	C163	C	0.379359	0.314741	0.123661
	C164	C	0.681894	0.885688	0.391331
	C165	C	0.683599	0.101537	0.637889
	C166	C	0.317770	0.888664	0.641808
	C167	C	0.315932	0.098959	0.386250
	C168	C	0.875657	0.387551	0.198826
	C169	C	0.125163	0.601520	0.197727
	C170	C	0.128344	0.387726	0.830532
	C171	C	0.878553	0.600968	0.833289
	C172	C	0.183825	0.869394	0.407031
	C173	C	0.186528	0.122560	0.619924
	C174	C	0.820875	0.117396	0.404233
	C175	C	0.820893	0.872587	0.623007
	C176	C	0.395142	0.179892	0.887165
	C177	C	0.609530	0.174560	0.137532
	C178	C	0.394957	0.810052	0.141024
	C179	C	0.607950	0.810561	0.886570
	C180	C	0.394459	0.868049	0.198156
	C181	C	0.610309	0.115120	0.193644
	C182	C	0.394257	0.120516	0.831474
	C183	C	0.608901	0.870128	0.830820
	C184	C	0.875776	0.177089	0.405566
	C185	C	0.128128	0.179139	0.620483
	C186	C	0.126204	0.812221	0.406760
	C187	C	0.878011	0.814652	0.623339
	C188	C	0.186765	0.388330	0.887853
	C189	C	0.185419	0.599738	0.142429
	C190	C	0.818378	0.387252	0.140478
	C191	C	0.820061	0.600864	0.890717
	C192	C	0.407451	0.081749	0.606369
	C193	C	0.598158	0.905493	0.609977
	C194	C	0.599073	0.084091	0.415411
	C195	C	0.406737	0.905569	0.420141
	C196	C	0.597359	0.396611	0.105763
	C197	C	0.595652	0.589444	0.923258
	C198	C	0.407636	0.589303	0.103857
	C199	C	0.408002	0.400276	0.923578
	C200	C	0.091455	0.590906	0.419433
	C201	C	0.910615	0.591376	0.610209
	C202	C	0.090349	0.397426	0.607710
	C203	C	0.911214	0.398948	0.421132
	C204	C	0.902205	0.584040	0.111775
	C205	C	0.095810	0.406350	0.109070
	C206	C	0.095670	0.582050	0.919834
	C207	C	0.904285	0.403321	0.918603
	C208	C	0.094840	0.899091	0.605027
	C209	C	0.092560	0.086370	0.426043
	C210	C	0.905322	0.089969	0.604563
	C211	C	0.904437	0.896182	0.421164
	C212	C	0.592288	0.092085	0.918063
	C213	C	0.410806	0.091794	0.109169
	C214	C	0.591022	0.897292	0.108419
	C215	C	0.412755	0.900472	0.921496
	Zn216	Zn	0.501633	-0.004613	0.764851
	Zn217	Zn	0.501332	-0.006835	0.262775
	Zn218	Zn	0.749914	0.493632	0.014517
	Zn219	Zn	0.252205	0.494634	0.014843
	Zn220	Zn	0.001416	0.744492	0.514796
	Zn221	Zn	0.000242	0.242926	0.513992
	Zn222	Zn	0.001468	0.493122	0.763653
	Zn223	Zn	0.000477	0.494876	0.265374
	Zn224	Zn	0.501008	0.743916	0.013442
	Zn225	Zn	0.501542	0.245012	0.013434
	Zn226	Zn	0.752692	-0.005098	0.513016
	Zn227	Zn	0.249567	-0.005996	0.514647
	N228	N	0.413780	0.961002	0.695682
	N229	N	0.587888	0.029619	0.693586
	N230	N	0.588129	0.959301	0.333671
	N231	N	0.414917	0.028233	0.334084
	N232	N	0.680247	0.407956	0.979136
	N233	N	0.679200	0.579985	0.048760
	N234	N	0.320912	0.582444	0.980270
	N235	N	0.323477	0.409414	0.049554
	N236	N	0.967261	0.675947	0.427273
	N237	N	0.034612	0.675536	0.603217
	N238	N	0.966298	0.313203	0.601506
	N239	N	0.033420	0.311470	0.424813
	N240	N	0.965889	0.407462	0.693302
	N241	N	0.036289	0.578887	0.692604
	N242	N	0.965438	0.580512	0.337201
	N243	N	0.035658	0.408747	0.336017
	N244	N	0.412861	0.675576	0.979971
	N245	N	0.588295	0.674621	0.047578
	N246	N	0.589465	0.313872	0.979860
	N247	N	0.415732	0.315871	0.048924
	N248	N	0.681822	0.959680	0.426368
	N249	N	0.682454	0.028479	0.601098
	N250	N	0.320667	0.960458	0.602111
	N251	N	0.318386	0.026576	0.424739
	N252	N	0.911711	0.460837	0.197254
	N253	N	0.086024	0.529859	0.193767
	N254	N	0.089155	0.459639	0.833744
	N255	N	0.914928	0.527573	0.834622
	N256	N	0.181141	0.906348	0.480982
	N257	N	0.182052	0.082778	0.547686
	N258	N	0.823284	0.079753	0.477989
	N259	N	0.821746	0.907728	0.547785
	N260	N	0.468857	0.178344	0.924038
	N261	N	0.535211	0.175125	0.101573
	N262	N	0.467949	0.812193	0.102543
	N263	N	0.534818	0.812831	0.925012
	N264	N	0.467135	0.905989	0.194510
	N265	N	0.536353	0.079123	0.192122
	N266	N	0.467491	0.082545	0.834283
	N267	N	0.536394	0.909216	0.835053
	N268	N	0.911647	0.176070	0.480311
	N269	N	0.087943	0.174208	0.548235
	N270	N	0.088259	0.814097	0.480462
	N271	N	0.913771	0.814307	0.548178
	N272	N	0.183545	0.460720	0.926231
	N273	N	0.183474	0.527124	0.104413
	N274	N	0.819129	0.460364	0.103215
	N275	N	0.820464	0.527268	0.927111
	O276	O	-0.448947	1.538433	-0.715149
	H277	H	-0.441848	1.539301	-0.720114
	H278	H	-0.428008	1.525236	-0.714871
	O279	O	-0.042120	-0.019543	0.021763
	H280	H	-0.045746	-0.013035	0.021151
	H281	H	-0.055323	-0.013832	0.022220
	O282	O	1.213995	0.210283	1.222559
	H283	H	1.198518	0.208230	1.199755
	H284	H	1.232405	0.234022	1.241613
	O285	O	0.691802	0.681803	0.327542
	H286	H	0.659601	0.678130	0.341441
	H287	H	0.685709	0.655054	0.351246
	O288	O	0.280243	0.718290	0.494358
	H289	H	0.277310	0.720677	0.472593
	H290	H	0.262740	0.736583	0.468743
	O291	O	0.534736	0.273377	0.299370
	H292	H	0.518768	0.250365	0.292700
	H293	H	0.515319	0.277088	0.306316
	O294	O	1.059626	0.007081	1.190769
	H295	H	1.050048	0.006609	1.195133
	H296	H	1.056114	0.014558	1.178281
	O297	O	0.464855	0.584403	0.611805
	H298	H	0.466472	0.571448	0.613823
	H299	H	0.459356	0.599130	0.609658
	O300	O	-0.152780	-0.005008	1.222845
	H301	H	-0.173466	-0.005287	1.243108
	H302	H	-0.146101	-0.029496	1.218974
	O303	O	0.701125	0.286283	0.310388
	H304	H	0.708910	0.316508	0.334758
	H305	H	0.647770	0.281480	0.304211
	O306	O	1.186878	-0.116495	0.136373
	H307	H	1.178718	-0.093641	0.131989
	H308	H	1.183053	-0.102381	0.137181
	O309	O	0.315108	0.309198	0.329568
	H310	H	0.323578	0.313064	0.339907
	H311	H	0.322287	0.322043	0.356111
	O312	O	0.301233	0.292504	0.717986
	H313	H	0.315795	0.324090	0.712500
	H314	H	0.311832	0.274942	0.712382
	O315	O	1.192087	1.181276	0.826274
	H316	H	1.188221	1.195278	0.828534
	H317	H	1.188309	1.169733	0.832983
	O318	O	1.224200	1.223317	0.042108
	H319	H	1.216362	1.228767	0.043152
	H320	H	1.244311	1.237394	0.040779
	O321	O	0.712118	0.700292	0.693097
	H322	H	0.712151	0.704442	0.663989
	H323	H	0.745100	0.734834	0.718331
	O324	O	0.780039	0.776923	0.039296
	H325	H	0.779847	0.769086	0.058748
	H326	H	0.769004	0.766083	0.055512
	O327	O	-0.029714	0.048362	0.799895
	H328	H	-0.024066	0.034376	0.791395
	H329	H	-0.026287	0.052616	0.810535
	O330	O	0.778103	0.221228	-0.016443
	H331	H	0.775923	0.217331	-0.026877
	H332	H	0.756608	0.240305	-0.022280
	O333	O	0.514868	0.338400	0.721943
	H334	H	0.516590	0.344833	0.741488
	H335	H	0.514901	0.345345	0.726030
	O336	O	0.362678	0.452141	0.678161
	H337	H	0.352306	0.452489	0.692498
	H338	H	0.375334	0.447230	0.673913
	O339	O	0.963781	-0.227744	1.229205
	H340	H	0.974087	-0.238371	1.250561
	H341	H	0.973698	-0.219609	1.225455
	O342	O	-0.068781	0.080967	-0.025422
	H343	H	-0.067020	0.093179	-0.032222
	H344	H	-0.064347	0.067142	-0.024909
	O345	O	0.213312	0.772189	0.794225
	H346	H	0.204125	0.793419	0.817766
	H347	H	0.207673	0.764477	0.782909
	O348	O	-0.209100	0.045005	0.087855
	H349	H	-0.217550	0.034458	0.118085
	H350	H	-0.206659	0.067117	0.088805
	O351	O	0.711781	0.543870	0.447929
	H352	H	0.702836	0.549402	0.462639
	H353	H	0.707407	0.549758	0.466439
	O354	O	0.053588	0.094883	1.052299
	H355	H	0.045647	0.109082	1.049736
	H356	H	0.050186	0.095908	1.031621
	O357	O	0.217083	0.981021	0.797653
	H358	H	0.233913	0.961264	0.788484
	H359	H	0.225044	0.974120	0.804391
	O360	O	0.478796	0.315056	0.453614
	H361	H	0.473753	0.314674	0.460319
	H362	H	0.493819	0.308905	0.467596
	O363	O	-0.485672	0.647073	-0.597162
	H364	H	-0.497695	0.649480	-0.605047
	H365	H	-0.495781	0.648385	-0.604466
	O366	O	0.644021	0.292212	0.652860
	H367	H	0.640501	0.305147	0.647394
	H368	H	0.645271	0.296885	0.654308
	O369	O	0.435882	0.326889	0.638066
	H370	H	0.452307	0.336500	0.635285
	H371	H	0.436658	0.329216	0.639764
	O372	O	1.046201	1.201910	0.227279
	H373	H	1.050457	1.222009	0.248077
	H374	H	1.046925	1.192133	0.229359
	O375	O	1.294456	0.534925	0.310622
	H376	H	1.284554	0.512709	0.314648
	H377	H	1.289064	0.531055	0.313906
	O378	O	0.218691	-0.235436	0.005791
	H379	H	0.234095	-0.232925	-0.013173
	H380	H	0.227590	-0.241393	-0.006535
	O381	O	-0.024824	1.221360	0.791387
	H382	H	-0.043150	1.244879	0.767675
	H383	H	-0.054075	1.218709	0.792557
	O384	O	0.954996	0.214295	1.086834
	H385	H	0.966302	0.210405	1.103911
	H386	H	0.936441	0.218658	1.075437
	O387	O	0.979337	0.849948	-0.080037
	H388	H	0.969080	0.850737	-0.075221
	H389	H	0.976089	0.853833	-0.060578
	O390	O	0.440493	0.667091	0.395937
	H391	H	0.427181	0.672334	0.384705
	H392	H	0.437614	0.668421	0.384247
	O393	O	0.286192	0.281678	0.529524
	H394	H	0.298231	0.285071	0.535452
	H395	H	0.269947	0.266965	0.553795
	O396	O	-0.200061	1.001053	0.819377
	H397	H	-0.188785	0.988729	0.816801
	H398	H	-0.209255	0.986612	0.845048
	O399	O	-0.141182	0.006518	1.206885
	H400	H	-0.150341	0.015204	1.219416
	H401	H	-0.155584	-0.009321	1.210849
	O402	O	0.716916	0.271210	0.490644
	H403	H	0.736894	0.254728	0.489228
	H404	H	0.721312	0.286755	0.470332
	O405	O	1.045666	-0.121377	0.811731
	H406	H	1.063785	-0.109965	0.812452
	H407	H	1.051124	-0.123255	0.789562
	O408	O	0.551261	0.717785	-0.508838
	H409	H	0.533837	0.710993	-0.519925
	H410	H	0.523051	0.722157	-0.514370
	O411	O	0.722108	0.691324	0.539417
	H412	H	0.710844	0.710117	0.529060
	H413	H	0.716498	0.713853	0.534387
	O414	O	0.264824	0.440039	0.447275
	H415	H	0.259912	0.449965	0.461606
	H416	H	0.267098	0.428682	0.463861
	O417	O	0.724384	0.526996	0.735519
	H418	H	0.725037	0.562270	0.736724
	H419	H	0.747717	0.532963	0.757818
	O420	O	0.318885	0.678494	0.697462
	H421	H	0.319366	0.668886	0.675508
	H422	H	0.319234	0.684863	0.708884
	O423	O	-0.017514	-0.227766	0.902973
	H424	H	-0.024444	-0.227594	0.898981
	H425	H	-0.017331	-0.226434	0.902976
	O426	O	0.528520	0.368843	0.506576
	H427	H	0.533503	0.363052	0.517754
	H428	H	0.522544	0.374803	0.516138
	O429	O	0.789987	0.780609	1.226288
	H430	H	0.826820	0.777609	1.221720
	H431	H	0.760751	0.746696	1.259806
	O432	O	0.556049	0.706866	0.725096
	H433	H	0.569711	0.724251	0.736885
	H434	H	0.565348	0.713835	0.731947
	O435	O	0.223532	1.012199	0.234076
	H436	H	0.234643	1.033749	0.240008
	H437	H	0.228276	1.030814	0.241911
	O438	O	0.133196	-0.046011	0.040289
	H439	H	0.138608	-0.037299	0.046568
	H440	H	0.126864	-0.014624	0.046696
	O441	O	0.065076	0.231050	-0.050898
	H442	H	0.062578	0.235460	-0.049831
	H443	H	0.046418	0.231635	-0.067712
	O444	O	0.279317	0.539478	0.586792
	H445	H	0.288430	0.548742	0.583625
	H446	H	0.281685	0.554523	0.592082
	O447	O	0.226759	1.068499	0.968080
	H448	H	0.223757	1.084685	0.969529
	H449	H	0.215105	1.068961	0.961833
	O450	O	-0.620822	0.491951	1.602136
	H451	H	-0.614103	0.500057	1.590415
	H452	H	-0.622825	0.494502	1.611469
	O453	O	0.605106	0.325141	0.512495
	H454	H	0.619424	0.330125	0.519045
	H455	H	0.592290	0.331044	0.521143
	O456	O	0.487258	0.527327	0.522302
	H457	H	0.486197	0.519903	0.528584
	H458	H	0.484452	0.536006	0.533245
	O459	O	0.772240	0.935177	-0.025369
	H460	H	0.775596	0.923061	0.001321
	H461	H	0.765232	0.941407	-0.007159
	O462	O	1.057551	-0.237237	0.074842
	H463	H	1.068334	-0.241388	0.069721
	H464	H	1.064060	-0.232662	0.072825
	O465	O	1.002035	-0.088118	0.056650
	H466	H	0.995254	-0.088673	0.064611
	H467	H	1.006901	-0.093629	0.055000
	O468	O	0.294657	0.701546	0.313469
	H469	H	0.263877	0.729546	0.277428
	H470	H	0.296030	0.657283	0.306662
	O471	O	0.478774	0.679914	0.604746
	H472	H	0.459176	0.680985	0.612217
	H473	H	0.468479	0.685221	0.606881
	O474	O	0.439518	0.427042	0.292787
	H475	H	0.455768	0.434647	0.299273
	H476	H	0.427246	0.427921	0.286622
	O477	O	0.537027	0.484072	1.722180
	H478	H	0.546769	0.495123	1.727379
	H479	H	0.532071	0.496796	1.716822
	O480	O	0.117555	0.868474	0.223256
	H481	H	0.108509	0.885064	0.212319
	H482	H	0.117021	0.896348	0.211491
	O483	O	0.717007	0.466608	0.294896
	H484	H	0.750272	0.464504	0.278023
	H485	H	0.728128	0.461224	0.318106
	O486	O	0.718005	0.447755	0.592182
	H487	H	0.726734	0.456744	0.594990
	H488	H	0.712786	0.450110	0.605880
	O489	O	0.808195	0.795511	-0.179365
	H490	H	0.837165	0.806741	-0.160274
	H491	H	0.816190	0.821308	-0.159866
	O492	O	-0.184476	0.186410	0.190318
	H493	H	-0.208211	0.212076	0.214545
	H494	H	-0.174467	0.176165	0.171455
	O495	O	0.187269	0.898281	0.950597
	H496	H	0.171018	0.901903	0.954112
	H497	H	0.182599	0.901656	0.967840
	O498	O	0.933223	0.927280	0.802569
	H499	H	0.950252	0.934819	0.798048
	H500	H	0.942264	0.936892	0.810493
	O501	O	0.801557	0.204591	0.812790
	H502	H	0.784094	0.210335	0.808750
	H503	H	0.800083	0.161780	0.818079
