data_Molecule from HDF5

_cell_length_a		16.315990
_cell_length_b		16.250833
_cell_length_c		16.329357
_cell_angle_alpha	90.041443
_cell_angle_beta	90.066024
_cell_angle_gamma	89.925587
_symmetry_space_group_name_H-M	'P 1'
_symmetry_Int_Tables_number		1

loop_
	_symmetry_equiv_pos_as_xyz
	x,y,z

loop_
	_atom_site_label
	_atom_site_type_symbol
	_atom_site_fract_x
	_atom_site_fract_y
	_atom_site_fract_z
	H0	H	0.401554	0.836807	0.715034
	H1	H	0.596149	0.165974	0.716656
	H2	H	0.597414	0.837308	0.288039
	H3	H	0.399884	0.165001	0.288615
	H4	H	0.712237	0.401927	0.838847
	H5	H	0.713110	0.599654	0.165075
	H6	H	0.284204	0.598726	0.839056
	H7	H	0.284026	0.402422	0.166000
	H8	H	0.835134	0.716054	0.404404
	H9	H	0.162890	0.714594	0.599174
	H10	H	0.834725	0.288726	0.598685
	H11	H	0.161847	0.286746	0.403917
	H12	H	0.835442	0.402747	0.716610
	H13	H	0.161994	0.599793	0.717205
	H14	H	0.835166	0.599828	0.287073
	H15	H	0.161955	0.402399	0.287288
	H16	H	0.399264	0.715112	0.838682
	H17	H	0.595475	0.714822	0.165592
	H18	H	0.595566	0.286731	0.839103
	H19	H	0.401918	0.288139	0.166490
	H20	H	0.712580	0.837261	0.405100
	H21	H	0.711610	0.166190	0.600357
	H22	H	0.284942	0.837486	0.600079
	H23	H	0.284628	0.165632	0.405035
	H24	H	0.901440	0.337571	0.215692
	H25	H	0.096954	0.664984	0.216677
	H26	H	0.097440	0.338033	0.787395
	H27	H	0.900797	0.665586	0.788720
	H28	H	0.212757	0.903359	0.339197
	H29	H	0.211855	0.100028	0.665091
	H30	H	0.783536	0.098935	0.339521
	H31	H	0.785104	0.903343	0.666586
	H32	H	0.334679	0.214876	0.905481
	H33	H	0.661609	0.214706	0.100717
	H34	H	0.333968	0.787522	0.098619
	H35	H	0.661921	0.787033	0.905405
	H36	H	0.334961	0.901154	0.218707
	H37	H	0.661746	0.098240	0.216693
	H38	H	0.335199	0.100158	0.787770
	H39	H	0.661912	0.903014	0.789087
	H40	H	0.900570	0.214584	0.338588
	H41	H	0.095409	0.215495	0.665545
	H42	H	0.096199	0.788340	0.338461
	H43	H	0.902169	0.787568	0.666202
	H44	H	0.213003	0.337614	0.903755
	H45	H	0.211702	0.665698	0.100500
	H46	H	0.785812	0.336858	0.100060
	H47	H	0.782504	0.664640	0.902387
	H48	H	0.403504	0.120794	0.604353
	H49	H	0.593768	0.883952	0.597559
	H50	H	0.591774	0.120796	0.403032
	H51	H	0.400243	0.882760	0.407843
	H52	H	0.596648	0.407340	0.120081
	H53	H	0.580904	0.590956	0.889831
	H54	H	0.405544	0.597408	0.118996
	H55	H	0.403234	0.408364	0.886205
	H56	H	0.115726	0.598740	0.411103
	H57	H	0.882089	0.594042	0.599541
	H58	H	0.113170	0.413745	0.593409
	H59	H	0.883104	0.407313	0.413376
	H60	H	0.116727	0.408381	0.600397
	H61	H	0.882167	0.598766	0.594292
	H62	H	0.113439	0.590734	0.410101
	H63	H	0.883406	0.414420	0.404308
	H64	H	0.401843	0.594317	0.119578
	H65	H	0.592674	0.603746	0.882275
	H66	H	0.591982	0.411465	0.117250
	H67	H	0.405276	0.409237	0.887084
	H68	H	0.585290	0.115635	0.411995
	H69	H	0.590799	0.884866	0.597641
	H70	H	0.411998	0.115840	0.594032
	H71	H	0.410682	0.884696	0.405954
	H72	H	0.909835	0.616345	0.092890
	H73	H	0.095134	0.384082	0.093953
	H74	H	0.096837	0.618424	0.910790
	H75	H	0.909259	0.386084	0.909093
	H76	H	0.096204	0.913137	0.618063
	H77	H	0.091405	0.104241	0.382780
	H78	H	0.917261	0.099724	0.616377
	H79	H	0.895699	0.911612	0.384977
	H80	H	0.616412	0.091804	0.900010
	H81	H	0.385962	0.086313	0.088940
	H82	H	0.615736	0.897813	0.092641
	H83	H	0.385112	0.916310	0.910143
	H84	H	0.609448	0.915703	0.088882
	H85	H	0.379340	0.092295	0.108890
	H86	H	0.616661	0.103645	0.911440
	H87	H	0.378130	0.906203	0.900176
	H88	H	0.895473	0.103142	0.623768
	H89	H	0.100308	0.087818	0.385180
	H90	H	0.086347	0.908575	0.617247
	H91	H	0.910442	0.914054	0.389822
	H92	H	0.090251	0.620551	0.904332
	H93	H	0.091463	0.384527	0.097002
	H94	H	0.901457	0.617846	0.091383
	H95	H	0.902309	0.384538	0.911244
	H96	H	0.398238	0.118897	0.591231
	H97	H	0.592215	0.884923	0.594790
	H98	H	0.596645	0.118625	0.413773
	H99	H	0.406551	0.886868	0.415888
	H100	H	0.590343	0.405351	0.118659
	H101	H	0.598454	0.586403	0.885887
	H102	H	0.405977	0.592327	0.117631
	H103	H	0.404924	0.407078	0.886404
	H104	H	0.116108	0.594845	0.403538
	H105	H	0.884009	0.592088	0.593347
	H106	H	0.114561	0.404219	0.591938
	H107	H	0.879484	0.403318	0.403452
	H108	H	0.904841	0.619802	0.099380
	H109	H	0.090664	0.385100	0.092366
	H110	H	0.088629	0.616024	0.912792
	H111	H	0.904190	0.383436	0.904366
	H112	H	0.094693	0.903640	0.620637
	H113	H	0.082620	0.089592	0.390056
	H114	H	0.902344	0.081825	0.616090
	H115	H	0.906174	0.899856	0.384536
	H116	H	0.611349	0.088244	0.915301
	H117	H	0.378770	0.106389	0.092308
	H118	H	0.616246	0.910602	0.106211
	H119	H	0.381719	0.901658	0.914848
	C120	C	0.376832	0.009623	0.624172
	C121	C	0.620055	0.993423	0.624472
	C122	C	0.619489	0.009753	0.381588
	C123	C	0.377177	0.993087	0.381339
	C124	C	0.620545	0.379288	0.010699
	C125	C	0.619547	0.622404	0.993733
	C126	C	0.376730	0.622576	0.010496
	C127	C	0.376580	0.379685	0.994592
	C128	C	0.006963	0.623181	0.380172
	C129	C	0.990556	0.623250	0.624085
	C130	C	0.006744	0.380213	0.623313
	C131	C	0.990013	0.379748	0.379522
	C132	C	0.877296	0.509734	0.122817
	C133	C	0.120492	0.493095	0.123367
	C134	C	0.119969	0.509841	0.880923
	C135	C	0.876371	0.492915	0.880034
	C136	C	0.120652	0.879799	0.510527
	C137	C	0.119712	0.123075	0.493630
	C138	C	0.876311	0.123161	0.511021
	C139	C	0.876695	0.880036	0.494583
	C140	C	0.506866	0.122591	0.881089
	C141	C	0.489657	0.123163	0.124821
	C142	C	0.505709	0.879541	0.123947
	C143	C	0.489715	0.879146	0.880641
	C144	C	0.380354	0.886178	0.678094
	C145	C	0.616875	0.117094	0.678948
	C146	C	0.617219	0.886150	0.326439
	C147	C	0.379473	0.116247	0.326444
	C148	C	0.674448	0.381709	0.887654
	C149	C	0.674857	0.620088	0.116418
	C150	C	0.321675	0.619934	0.887729
	C151	C	0.322045	0.382177	0.117413
	C152	C	0.883890	0.678087	0.383387
	C153	C	0.113757	0.677764	0.620785
	C154	C	0.883389	0.326190	0.619814
	C155	C	0.113154	0.324665	0.383279
	C156	C	0.883951	0.382945	0.678409
	C157	C	0.113423	0.620568	0.679061
	C158	C	0.883928	0.620867	0.324749
	C159	C	0.113218	0.382042	0.325091
	C160	C	0.379050	0.677426	0.887368
	C161	C	0.616410	0.677162	0.116649
	C162	C	0.616398	0.324490	0.887786
	C163	C	0.380566	0.325251	0.117674
	C164	C	0.674498	0.886068	0.384340
	C165	C	0.674276	0.117190	0.621097
	C166	C	0.322495	0.886384	0.620821
	C167	C	0.322172	0.116436	0.384177
	C168	C	0.880691	0.386053	0.177522
	C169	C	0.117443	0.616307	0.178513
	C170	C	0.117617	0.386767	0.825566
	C171	C	0.879632	0.616464	0.825895
	C172	C	0.175155	0.882627	0.387728
	C173	C	0.174350	0.120699	0.616437
	C174	C	0.821094	0.120270	0.388167
	C175	C	0.822352	0.882609	0.617563
	C176	C	0.383525	0.177351	0.884316
	C177	C	0.612784	0.177300	0.121753
	C178	C	0.382833	0.824874	0.120351
	C179	C	0.612945	0.824347	0.884059
	C180	C	0.383345	0.881397	0.179732
	C181	C	0.612718	0.119722	0.179604
	C182	C	0.383655	0.119963	0.826317
	C183	C	0.612856	0.881957	0.826268
	C184	C	0.879366	0.177411	0.387570
	C185	C	0.116508	0.178031	0.616630
	C186	C	0.116926	0.825609	0.387387
	C187	C	0.880539	0.825097	0.617502
	C188	C	0.174709	0.386503	0.883640
	C189	C	0.174408	0.616663	0.120821
	C190	C	0.823266	0.385953	0.120105
	C191	C	0.821131	0.616049	0.882543
	C192	C	0.398302	0.096232	0.602716
	C193	C	0.598651	0.907041	0.602837
	C194	C	0.597601	0.095907	0.403294
	C195	C	0.399410	0.906860	0.403370
	C196	C	0.599325	0.401422	0.096588
	C197	C	0.597337	0.600087	0.908216
	C198	C	0.398217	0.601039	0.096396
	C199	C	0.398160	0.401561	0.908730
	C200	C	0.092761	0.601219	0.401763
	C201	C	0.904714	0.601388	0.602060
	C202	C	0.092729	0.402288	0.601721
	C203	C	0.904352	0.401801	0.400915
	C204	C	0.898934	0.595668	0.100879
	C205	C	0.098695	0.406773	0.100988
	C206	C	0.098097	0.596173	0.902822
	C207	C	0.898636	0.406911	0.901829
	C208	C	0.098786	0.901983	0.596636
	C209	C	0.097828	0.100584	0.408115
	C210	C	0.898573	0.101351	0.596457
	C211	C	0.897836	0.901976	0.408569
	C212	C	0.592682	0.100886	0.902557
	C213	C	0.403585	0.101544	0.103034
	C214	C	0.591544	0.901607	0.102127
	C215	C	0.403664	0.901367	0.902215
	Zn216	Zn	0.498415	0.001241	0.752520
	Zn217	Zn	0.497830	0.001156	0.252859
	Zn218	Zn	0.748799	0.500734	0.001795
	Zn219	Zn	0.248284	0.501516	0.002686
	Zn220	Zn	-0.000899	0.751783	0.502181
	Zn221	Zn	-0.001841	0.251770	0.502226
	Zn222	Zn	-0.001253	0.501424	0.752403
	Zn223	Zn	-0.001185	0.501460	0.250937
	Zn224	Zn	0.497519	0.750824	0.001860
	Zn225	Zn	0.498526	0.251253	0.002652
	Zn226	Zn	0.748000	0.001385	0.503130
	Zn227	Zn	0.248656	0.001418	0.502470
	N228	N	0.413591	0.963927	0.679996
	N229	N	0.583819	0.039301	0.681157
	N230	N	0.583823	0.963998	0.324557
	N231	N	0.412856	0.038589	0.324687
	N232	N	0.677350	0.414798	0.965125
	N233	N	0.676809	0.586547	0.038955
	N234	N	0.320271	0.586402	0.965042
	N235	N	0.319620	0.415529	0.040113
	N236	N	0.961128	0.679568	0.417117
	N237	N	0.036377	0.679412	0.587132
	N238	N	0.960703	0.324347	0.586476
	N239	N	0.035620	0.323182	0.416496
	N240	N	0.961804	0.415837	0.680622
	N241	N	0.035966	0.587378	0.681114
	N242	N	0.961481	0.587377	0.322644
	N243	N	0.035801	0.415733	0.322621
	N244	N	0.412570	0.679175	0.964773
	N245	N	0.582936	0.678981	0.039273
	N246	N	0.583494	0.323107	0.965332
	N247	N	0.413605	0.323543	0.040091
	N248	N	0.676173	0.963790	0.417816
	N249	N	0.676525	0.039122	0.588204
	N250	N	0.320018	0.964407	0.588166
	N251	N	0.320649	0.038621	0.417707
	N252	N	0.913663	0.463856	0.179468
	N253	N	0.084726	0.538295	0.180167
	N254	N	0.084100	0.464535	0.823988
	N255	N	0.913381	0.538891	0.824190
	N256	N	0.177683	0.915389	0.465379
	N257	N	0.176554	0.087197	0.538948
	N258	N	0.819091	0.087301	0.465628
	N259	N	0.820063	0.916020	0.540180
	N260	N	0.460886	0.179001	0.917912
	N261	N	0.535377	0.179264	0.088256
	N262	N	0.459934	0.823830	0.086288
	N263	N	0.535371	0.822675	0.917056
	N264	N	0.460962	0.914426	0.182218
	N265	N	0.535099	0.086735	0.181654
	N266	N	0.461377	0.086900	0.823960
	N267	N	0.535251	0.915504	0.824041
	N268	N	0.912965	0.179596	0.464969
	N269	N	0.083126	0.179502	0.539262
	N270	N	0.083763	0.823830	0.465006
	N271	N	0.913699	0.823533	0.539988
	N272	N	0.176425	0.464156	0.917194
	N273	N	0.176398	0.538873	0.087287
	N274	N	0.821013	0.463728	0.086769
	N275	N	0.819146	0.538211	0.915470
	O276	O	0.682469	-0.259825	0.722723
	H277	H	0.683313	-0.256924	0.727387
	H278	H	0.685956	-0.262886	0.725502
	O279	O	0.568890	0.522126	0.492790
	H280	H	0.568010	0.521242	0.491134
	H281	H	0.569274	0.524848	0.489580
	O282	O	0.943870	0.969469	0.051426
	H283	H	0.944857	0.970719	0.051842
	H284	H	0.940429	0.966030	0.054047
	O285	O	0.560648	0.514984	0.530245
	H286	H	0.561525	0.512948	0.528808
	H287	H	0.563799	0.519246	0.535271
