data_Molecule from HDF5

_cell_length_a		16.241884
_cell_length_b		16.433116
_cell_length_c		16.104027
_cell_angle_alpha	90.346776
_cell_angle_beta	89.530806
_cell_angle_gamma	89.252235
_symmetry_space_group_name_H-M	'P 1'
_symmetry_Int_Tables_number		1

loop_
	_symmetry_equiv_pos_as_xyz
	x,y,z

loop_
	_atom_site_label
	_atom_site_type_symbol
	_atom_site_fract_x
	_atom_site_fract_y
	_atom_site_fract_z
	H0	H	0.410866	0.828404	0.724504
	H1	H	0.607058	0.151845	0.726531
	H2	H	0.611287	0.828490	0.289675
	H3	H	0.410364	0.153520	0.296439
	H4	H	0.724986	0.388731	0.845516
	H5	H	0.715051	0.586810	0.175942
	H6	H	0.292112	0.590015	0.845049
	H7	H	0.293228	0.394477	0.174923
	H8	H	0.847943	0.713365	0.406863
	H9	H	0.170494	0.706207	0.613193
	H10	H	0.845632	0.274029	0.614110
	H11	H	0.170210	0.270886	0.404691
	H12	H	0.842708	0.397462	0.723712
	H13	H	0.171692	0.587249	0.724489
	H14	H	0.841322	0.588141	0.302530
	H15	H	0.169301	0.388730	0.291032
	H16	H	0.404589	0.706088	0.845193
	H17	H	0.605053	0.706624	0.172421
	H18	H	0.611419	0.272960	0.845439
	H19	H	0.405073	0.276140	0.172989
	H20	H	0.730546	0.829468	0.403974
	H21	H	0.722466	0.152703	0.607880
	H22	H	0.292938	0.828928	0.609961
	H23	H	0.289608	0.150989	0.407454
	H24	H	0.906025	0.329143	0.226957
	H25	H	0.101024	0.653309	0.226891
	H26	H	0.110148	0.329292	0.792240
	H27	H	0.904575	0.653258	0.796135
	H28	H	0.226862	0.887567	0.344362
	H29	H	0.221603	0.088786	0.672393
	H30	H	0.797710	0.089845	0.342964
	H31	H	0.792740	0.893634	0.671523
	H32	H	0.345877	0.211316	0.905027
	H33	H	0.670121	0.207197	0.110710
	H34	H	0.344491	0.776204	0.112466
	H35	H	0.668611	0.765727	0.901822
	H36	H	0.344375	0.897904	0.223522
	H37	H	0.673242	0.085382	0.218628
	H38	H	0.343757	0.086794	0.796716
	H39	H	0.672435	0.887129	0.791531
	H40	H	0.906767	0.207462	0.345770
	H41	H	0.110894	0.206981	0.671532
	H42	H	0.115096	0.769517	0.346727
	H43	H	0.905965	0.777332	0.672893
	H44	H	0.226871	0.330389	0.907315
	H45	H	0.221332	0.652793	0.113229
	H46	H	0.791548	0.328900	0.111353
	H47	H	0.786280	0.650850	0.911379
	H48	H	0.416489	0.103701	0.599337
	H49	H	0.603169	0.879111	0.586306
	H50	H	0.603253	0.104627	0.417900
	H51	H	0.416713	0.876344	0.420097
	H52	H	0.614841	0.397860	0.132393
	H53	H	0.596454	0.578387	0.892568
	H54	H	0.414695	0.579017	0.125009
	H55	H	0.421095	0.402248	0.894109
	H56	H	0.124090	0.575239	0.414695
	H57	H	0.895898	0.581881	0.592235
	H58	H	0.125865	0.395487	0.605341
	H59	H	0.889991	0.397097	0.418719
	H60	H	0.124146	0.390812	0.595387
	H61	H	0.890410	0.580516	0.610946
	H62	H	0.125873	0.583955	0.416732
	H63	H	0.890561	0.394787	0.420908
	H64	H	0.418201	0.588897	0.126631
	H65	H	0.597927	0.579925	0.892102
	H66	H	0.588816	0.411568	0.120106
	H67	H	0.419909	0.395231	0.892111
	H68	H	0.607525	0.107833	0.412458
	H69	H	0.611928	0.871875	0.601805
	H70	H	0.411561	0.105110	0.600090
	H71	H	0.415294	0.872840	0.410838
	H72	H	0.911160	0.606373	0.107196
	H73	H	0.106023	0.376069	0.097326
	H74	H	0.092579	0.605356	0.916611
	H75	H	0.917196	0.375721	0.917330
	H76	H	0.099512	0.893698	0.627981
	H77	H	0.104033	0.075941	0.391425
	H78	H	0.919315	0.085256	0.626335
	H79	H	0.912969	0.898087	0.387659
	H80	H	0.623907	0.080811	0.918365
	H81	H	0.389812	0.088543	0.105581
	H82	H	0.623481	0.891032	0.091445
	H83	H	0.392052	0.901645	0.914026
	H84	H	0.621707	0.900165	0.095371
	H85	H	0.391703	0.088974	0.096895
	H86	H	0.624722	0.082273	0.917340
	H87	H	0.390315	0.893571	0.917155
	H88	H	0.913931	0.083561	0.627196
	H89	H	0.094369	0.079311	0.392957
	H90	H	0.105184	0.900059	0.627233
	H91	H	0.925750	0.907653	0.394878
	H92	H	0.099451	0.604639	0.923339
	H93	H	0.099009	0.375087	0.106177
	H94	H	0.909143	0.605276	0.103427
	H95	H	0.916629	0.376203	0.917946
	H96	H	0.414896	0.105360	0.605014
	H97	H	0.593928	0.876960	0.602836
	H98	H	0.599980	0.105164	0.411138
	H99	H	0.424699	0.876126	0.413635
	H100	H	0.588552	0.381031	0.129249
	H101	H	0.597928	0.577348	0.892623
	H102	H	0.408219	0.586462	0.130015
	H103	H	0.414169	0.399760	0.891544
	H104	H	0.121949	0.578240	0.423345
	H105	H	0.888542	0.597253	0.602907
	H106	H	0.120581	0.401146	0.597243
	H107	H	0.890989	0.397916	0.421900
	H108	H	0.906743	0.607088	0.106377
	H109	H	0.095201	0.379072	0.095952
	H110	H	0.101298	0.607762	0.915186
	H111	H	0.916383	0.375414	0.917799
	H112	H	0.097150	0.900863	0.623741
	H113	H	0.100583	0.085866	0.388580
	H114	H	0.917019	0.080109	0.625028
	H115	H	0.928709	0.890850	0.391008
	H116	H	0.624367	0.081962	0.919147
	H117	H	0.392298	0.081432	0.100965
	H118	H	0.626206	0.892943	0.100640
	H119	H	0.393834	0.899451	0.922498
	C120	C	0.386432	-0.001857	0.630582
	C121	C	0.631121	0.982608	0.628242
	C122	C	0.633856	-0.000939	0.383776
	C123	C	0.388279	0.981720	0.386497
	C124	C	0.629001	0.367449	0.018370
	C125	C	0.625920	0.608765	1.000789
	C126	C	0.384232	0.613376	0.018475
	C127	C	0.387248	0.370496	1.001031
	C128	C	0.016334	0.610307	0.389606
	C129	C	0.999055	0.613920	0.631917
	C130	C	0.016022	0.368112	0.630767
	C131	C	0.998339	0.366883	0.388078
	C132	C	0.881929	0.499284	0.134202
	C133	C	0.127451	0.483281	0.131117
	C134	C	0.129343	0.499520	0.887647
	C135	C	0.885503	0.482391	0.889156
	C136	C	0.131879	0.867453	0.518019
	C137	C	0.128952	0.110127	0.499329
	C138	C	0.887620	0.112247	0.517372
	C139	C	0.890619	0.870458	0.499743
	C140	C	0.516565	0.111693	0.887710
	C141	C	0.499250	0.113326	0.129790
	C142	C	0.516027	0.868488	0.128011
	C143	C	0.499703	0.866913	0.886582
	C144	C	0.389534	0.876825	0.686629
	C145	C	0.627717	0.103769	0.686824
	C146	C	0.632061	0.877036	0.327668
	C147	C	0.389904	0.104267	0.332789
	C148	C	0.686635	0.368802	0.894861
	C149	C	0.679104	0.607508	0.125945
	C150	C	0.329157	0.610626	0.894429
	C151	C	0.330860	0.373560	0.125118
	C152	C	0.895186	0.671567	0.389390
	C153	C	0.122038	0.668167	0.631930
	C154	C	0.893838	0.313142	0.631956
	C155	C	0.120901	0.309669	0.386146
	C156	C	0.892385	0.374468	0.686747
	C157	C	0.122636	0.608768	0.686997
	C158	C	0.891663	0.609311	0.337370
	C159	C	0.120658	0.368290	0.329501
	C160	C	0.385037	0.668412	0.894585
	C161	C	0.624196	0.666713	0.124226
	C162	C	0.630140	0.311185	0.894668
	C163	C	0.386491	0.314723	0.124200
	C164	C	0.691616	0.877705	0.384201
	C165	C	0.685381	0.104129	0.627980
	C166	C	0.331063	0.877183	0.629516
	C167	C	0.329689	0.103078	0.388219
	C168	C	0.885676	0.377471	0.189100
	C169	C	0.122420	0.605104	0.188068
	C170	C	0.129879	0.377937	0.830252
	C171	C	0.885259	0.604429	0.833899
	C172	C	0.188877	0.867736	0.394087
	C173	C	0.184065	0.108840	0.623248
	C174	C	0.833514	0.110345	0.393164
	C175	C	0.831586	0.872808	0.622757
	C176	C	0.394295	0.170619	0.886871
	C177	C	0.621839	0.168467	0.129082
	C178	C	0.393190	0.814474	0.130231
	C179	C	0.620789	0.806503	0.884283
	C180	C	0.393244	0.874848	0.185448
	C181	C	0.623557	0.107899	0.182700
	C182	C	0.393112	0.108775	0.833019
	C183	C	0.622740	0.866762	0.829142
	C184	C	0.887899	0.168946	0.394556
	C185	C	0.128975	0.167560	0.622742
	C186	C	0.133651	0.808675	0.395305
	C187	C	0.888241	0.815072	0.623419
	C188	C	0.187926	0.378261	0.887850
	C189	C	0.182569	0.604634	0.131776
	C190	C	0.828654	0.377246	0.131496
	C191	C	0.826168	0.603216	0.890977
	C192	C	0.408088	0.082800	0.607951
	C193	C	0.609359	0.898027	0.604167
	C194	C	0.610291	0.083898	0.407264
	C195	C	0.412016	0.896901	0.408471
	C196	C	0.604521	0.390110	0.104898
	C197	C	0.603899	0.585390	0.914669
	C198	C	0.406938	0.591457	0.104631
	C199	C	0.411346	0.392684	0.914711
	C200	C	0.101770	0.586041	0.411479
	C201	C	0.913858	0.592906	0.608881
	C202	C	0.101467	0.389427	0.606396
	C203	C	0.912647	0.389939	0.413148
	C204	C	0.902896	0.584258	0.112292
	C205	C	0.106174	0.398619	0.107044
	C206	C	0.104920	0.584109	0.911602
	C207	C	0.909544	0.397821	0.911328
	C208	C	0.107654	0.891360	0.603935
	C209	C	0.106207	0.087013	0.413348
	C210	C	0.910103	0.089521	0.603729
	C211	C	0.915409	0.892438	0.413419
	C212	C	0.601991	0.088401	0.911348
	C213	C	0.413501	0.092475	0.107694
	C214	C	0.601668	0.888804	0.103023
	C215	C	0.414207	0.891300	0.910854
	Zn216	Zn	0.509427	-0.010435	0.759011
	Zn217	Zn	0.509640	-0.008906	0.256628
	Zn218	Zn	0.755518	0.489264	0.011132
	Zn219	Zn	0.258156	0.491725	0.009478
	Zn220	Zn	0.009609	0.740558	0.509844
	Zn221	Zn	0.008144	0.238169	0.509298
	Zn222	Zn	0.007475	0.491641	0.759276
	Zn223	Zn	0.005100	0.490320	0.261309
	Zn224	Zn	0.506402	0.738386	0.008258
	Zn225	Zn	0.507404	0.241124	0.009009
	Zn226	Zn	0.762207	-0.009014	0.507039
	Zn227	Zn	0.257915	-0.010267	0.508471
	N228	N	0.423202	0.953180	0.687623
	N229	N	0.594780	0.027152	0.687134
	N230	N	0.597163	0.953687	0.326863
	N231	N	0.425757	0.027824	0.331728
	N232	N	0.685963	0.403094	0.973013
	N233	N	0.680270	0.572026	0.048361
	N234	N	0.328196	0.577328	0.972517
	N235	N	0.331249	0.407677	0.047342
	N236	N	0.973398	0.672367	0.421394
	N237	N	0.044474	0.671690	0.598551
	N238	N	0.971855	0.309069	0.598142
	N239	N	0.043630	0.308714	0.421625
	N240	N	0.969590	0.407886	0.686158
	N241	N	0.045232	0.575949	0.687432
	N242	N	0.967938	0.571817	0.337336
	N243	N	0.043387	0.403307	0.330714
	N244	N	0.418327	0.670459	0.972783
	N245	N	0.591684	0.667608	0.045637
	N246	N	0.594881	0.310382	0.972502
	N247	N	0.420823	0.312526	0.045835
	N248	N	0.692794	0.954593	0.418268
	N249	N	0.687434	0.027882	0.592227
	N250	N	0.329117	0.953619	0.595323
	N251	N	0.328448	0.025993	0.420845
	N252	N	0.918336	0.454223	0.190722
	N253	N	0.088975	0.528564	0.187832
	N254	N	0.094044	0.454290	0.830243
	N255	N	0.921565	0.528351	0.832527
	N256	N	0.187974	0.903522	0.471422
	N257	N	0.184383	0.073881	0.545553
	N258	N	0.833155	0.075621	0.470851
	N259	N	0.832897	0.906208	0.544736
	N260	N	0.471986	0.172456	0.920103
	N261	N	0.543467	0.172275	0.097050
	N262	N	0.470582	0.810659	0.095111
	N263	N	0.543167	0.806407	0.919116
	N264	N	0.470661	0.907745	0.184206
	N265	N	0.546474	0.074506	0.183505
	N266	N	0.470171	0.073022	0.833211
	N267	N	0.546488	0.903829	0.830657
	N268	N	0.920632	0.170351	0.472934
	N269	N	0.095249	0.168507	0.544549
	N270	N	0.098946	0.808140	0.473444
	N271	N	0.924365	0.813617	0.545874
	N272	N	0.187730	0.455014	0.922465
	N273	N	0.185784	0.527972	0.096904
	N274	N	0.825935	0.454108	0.098270
	N275	N	0.826299	0.526483	0.924607
	O276	O	0.942879	-0.078901	1.166592
	H277	H	0.943062	-0.082494	1.171063
	H278	H	0.960288	-0.081002	1.168977
	O279	O	-0.051647	1.086025	-0.061645
	H280	H	-0.061353	1.091285	-0.074523
	H281	H	-0.058681	1.085684	-0.064685
	O282	O	0.417907	0.487208	0.452308
	H283	H	0.430317	0.482661	0.455581
	H284	H	0.422834	0.479703	0.446815
	O285	O	0.492982	0.526006	0.484231
	H286	H	0.483299	0.536090	0.473025
	H287	H	0.494513	0.504943	0.476033
	O288	O	0.439331	0.534883	0.501493
	H289	H	0.432431	0.551631	0.507625
	H290	H	0.436732	0.545204	0.504102
	O291	O	-0.026797	-0.055245	0.947300
	H292	H	-0.026609	-0.060358	0.945068
	H293	H	-0.032231	-0.054706	0.952899
	O294	O	0.463424	1.494291	0.461077
	H295	H	0.465849	1.496984	0.451060
	H296	H	0.457925	1.490207	0.470926
	O297	O	0.986329	0.960162	-0.000307
	H298	H	0.994370	0.936277	-0.000824
	H299	H	0.978347	0.960585	-0.006979
	O300	O	0.539438	0.447232	0.560268
	H301	H	0.542316	0.441690	0.545529
	H302	H	0.544884	0.448708	0.550483
	O303	O	0.413904	0.556705	0.574132
	H304	H	0.396763	0.572422	0.574549
	H305	H	0.414699	0.543508	0.558935
	O306	O	0.380636	0.590120	0.484293
	H307	H	0.378160	0.585945	0.481783
	H308	H	0.389968	0.595533	0.475573
	O309	O	0.432947	0.422042	0.450007
	H310	H	0.434696	0.433240	0.454206
	H311	H	0.430257	0.428977	0.463185
	O312	O	1.176557	0.979666	0.939059
	H313	H	1.173099	0.993412	0.926995
	H314	H	1.177182	0.987418	0.938681
	O315	O	1.037106	0.980695	0.003615
	H316	H	1.031653	0.976412	0.009969
	H317	H	1.040963	0.990018	0.007947
	O318	O	0.605068	0.551877	0.575131
	H319	H	0.612549	0.550392	0.570140
	H320	H	0.599219	0.561075	0.575941
	O321	O	0.556339	0.595909	0.553434
	H322	H	0.558694	0.592380	0.548758
	H323	H	0.555387	0.600535	0.570343
	O324	O	0.026050	0.863691	0.955814
	H325	H	0.027121	0.850651	0.943632
	H326	H	0.041534	0.862898	0.948405
	O327	O	0.010729	1.065696	1.066292
	H328	H	0.015454	1.075410	1.060945
	H329	H	0.012850	1.064869	1.065266
	O330	O	-0.028768	-0.041245	-0.000463
	H331	H	-0.026560	-0.050109	0.006980
	H332	H	-0.030370	-0.053929	-0.002189
	O333	O	0.591812	0.493495	0.567455
	H334	H	0.598172	0.488761	0.568934
	H335	H	0.578871	0.482904	0.559667
	O336	O	0.024465	-0.188912	0.068305
	H337	H	0.026531	-0.171417	0.069863
	H338	H	0.036719	-0.207821	0.065912
	O339	O	0.066105	-0.103895	0.070091
	H340	H	0.073573	-0.105071	0.073957
	H341	H	0.065198	-0.093500	0.070270
	O342	O	-0.029872	0.961762	-0.093368
	H343	H	-0.035507	0.963725	-0.100116
	H344	H	-0.020071	0.962374	-0.075251
	O345	O	0.002201	1.034515	0.984139
	H346	H	0.000233	1.041497	0.965483
	H347	H	-0.018204	1.029663	0.993838
	O348	O	0.221680	0.966048	0.201523
	H349	H	0.235559	0.963294	0.198705
	H350	H	0.223274	0.955018	0.197471
	O351	O	0.370892	0.504560	0.590966
	H352	H	0.364890	0.512503	0.592160
	H353	H	0.374662	0.505441	0.582193
	O354	O	0.053904	1.069039	0.034961
	H355	H	0.043921	1.076086	0.027669
	H356	H	0.046926	1.062739	0.038239
	O357	O	0.582498	0.352187	0.364598
	H358	H	0.590639	0.352633	0.366745
	H359	H	0.590252	0.354510	0.361969
	O360	O	0.523668	0.397767	0.564872
	H361	H	0.515198	0.402119	0.569857
	H362	H	0.520489	0.405325	0.565420
	O363	O	0.629046	0.620973	0.529730
	H364	H	0.630602	0.632507	0.541676
	H365	H	0.626906	0.622312	0.542566
	O366	O	0.453174	0.338050	0.575441
	H367	H	0.458013	0.332669	0.571742
	H368	H	0.445815	0.329698	0.576621
	O369	O	1.024041	-0.115000	-0.047380
	H370	H	1.024883	-0.110791	-0.057462
	H371	H	1.031629	-0.103574	-0.036801
	O372	O	0.629162	0.439658	0.389896
	H373	H	0.629922	0.436933	0.403959
	H374	H	0.645357	0.435383	0.391966
	O375	O	1.136038	0.011584	1.001721
	H376	H	1.140727	0.012328	0.994976
	H377	H	1.128013	0.008794	1.006583
	O378	O	-0.110554	1.125739	-0.022875
	H379	H	-0.114941	1.130221	-0.018905
	H380	H	-0.105257	1.117083	-0.016185
	O381	O	0.594175	0.525348	0.475706
	H382	H	0.595830	0.521183	0.479258
	H383	H	0.587546	0.515936	0.486120
	O384	O	0.959937	0.994490	-0.003059
	H385	H	0.956537	0.990444	-0.001456
	H386	H	0.957350	0.991492	-0.014348
	O387	O	1.004610	0.079158	0.922719
	H388	H	1.000476	0.086991	0.915922
	H389	H	1.016911	0.083638	0.940428
	O390	O	0.865387	1.012421	-0.061176
	H391	H	0.874113	1.013705	-0.053172
	H392	H	0.872647	1.003379	-0.061036
	O393	O	0.547232	0.383512	0.446213
	H394	H	0.548073	0.370506	0.429279
	H395	H	0.567121	0.384638	0.455097
