data_Molecule from HDF5

_cell_length_a		16.259179
_cell_length_b		16.328525
_cell_length_c		16.304894
_cell_angle_alpha	89.975808
_cell_angle_beta	90.048812
_cell_angle_gamma	89.974029
_symmetry_space_group_name_H-M	'P 1'
_symmetry_Int_Tables_number		1

loop_
	_symmetry_equiv_pos_as_xyz
	x,y,z

loop_
	_atom_site_label
	_atom_site_type_symbol
	_atom_site_fract_x
	_atom_site_fract_y
	_atom_site_fract_z
	H0	H	0.403752	0.835670	0.713071
	H1	H	0.598248	0.162815	0.714219
	H2	H	0.597674	0.836076	0.286551
	H3	H	0.400949	0.162867	0.285008
	H4	H	0.713257	0.402698	0.835877
	H5	H	0.713414	0.597523	0.163586
	H6	H	0.287413	0.596626	0.835494
	H7	H	0.287039	0.402730	0.163990
	H8	H	0.835930	0.713898	0.400791
	H9	H	0.164102	0.714190	0.597936
	H10	H	0.835980	0.285978	0.597953
	H11	H	0.164713	0.287040	0.402010
	H12	H	0.835182	0.403224	0.712599
	H13	H	0.164217	0.598750	0.715486
	H14	H	0.835467	0.596960	0.286386
	H15	H	0.164119	0.402163	0.285786
	H16	H	0.401466	0.715314	0.836367
	H17	H	0.598810	0.714200	0.163266
	H18	H	0.597706	0.285851	0.836688
	H19	H	0.401111	0.284338	0.162831
	H20	H	0.713832	0.836280	0.402487
	H21	H	0.714550	0.163465	0.598425
	H22	H	0.285753	0.835730	0.597482
	H23	H	0.285102	0.163058	0.402788
	H24	H	0.902410	0.336305	0.214491
	H25	H	0.098395	0.663762	0.214871
	H26	H	0.097740	0.336548	0.785965
	H27	H	0.901077	0.663574	0.785262
	H28	H	0.213546	0.902822	0.335977
	H29	H	0.212803	0.096299	0.664202
	H30	H	0.786921	0.096921	0.335716
	H31	H	0.786818	0.902831	0.664204
	H32	H	0.336487	0.214518	0.901461
	H33	H	0.663433	0.214448	0.098301
	H34	H	0.336788	0.786321	0.096929
	H35	H	0.664744	0.786648	0.902205
	H36	H	0.336591	0.901690	0.213891
	H37	H	0.663882	0.098822	0.214592
	H38	H	0.335753	0.096765	0.786868
	H39	H	0.664221	0.902268	0.786183
	H40	H	0.900558	0.215866	0.336311
	H41	H	0.097926	0.214282	0.663901
	H42	H	0.097258	0.786634	0.336235
	H43	H	0.901608	0.785126	0.663183
	H44	H	0.213487	0.336010	0.902757
	H45	H	0.214664	0.664055	0.097636
	H46	H	0.785410	0.336633	0.097691
	H47	H	0.785253	0.663893	0.902281
	H48	H	0.413869	0.111735	0.587417
	H49	H	0.591928	0.885928	0.585892
	H50	H	0.585313	0.116012	0.398652
	H51	H	0.400815	0.882300	0.406258
	H52	H	0.599546	0.400576	0.120135
	H53	H	0.587139	0.592175	0.885493
	H54	H	0.404348	0.601072	0.118473
	H55	H	0.402212	0.404389	0.881421
	H56	H	0.116363	0.593545	0.406727
	H57	H	0.882080	0.598347	0.591821
	H58	H	0.114669	0.413014	0.592539
	H59	H	0.884510	0.406730	0.410491
	H60	H	0.119303	0.405237	0.600765
	H61	H	0.886469	0.589620	0.589512
	H62	H	0.116904	0.593282	0.407080
	H63	H	0.883811	0.410371	0.404250
	H64	H	0.401758	0.586661	0.115368
	H65	H	0.594534	0.600782	0.880372
	H66	H	0.595113	0.415535	0.114587
	H67	H	0.406895	0.410796	0.884903
	H68	H	0.590802	0.112937	0.416292
	H69	H	0.599831	0.881324	0.594908
	H70	H	0.395511	0.118316	0.589544
	H71	H	0.409788	0.882553	0.401852
	H72	H	0.905598	0.614668	0.087790
	H73	H	0.095526	0.382647	0.096593
	H74	H	0.087439	0.614368	0.906638
	H75	H	0.906355	0.382801	0.904295
	H76	H	0.090154	0.902757	0.616552
	H77	H	0.104170	0.092070	0.381079
	H78	H	0.904067	0.092916	0.616239
	H79	H	0.905819	0.905854	0.383347
	H80	H	0.616172	0.090908	0.907450
	H81	H	0.386983	0.092824	0.080693
	H82	H	0.619025	0.909299	0.100007
	H83	H	0.382291	0.902236	0.905820
	H84	H	0.619174	0.899142	0.091478
	H85	H	0.384898	0.082472	0.099134
	H86	H	0.617584	0.093299	0.903692
	H87	H	0.384277	0.907268	0.909337
	H88	H	0.909624	0.092708	0.615344
	H89	H	0.085441	0.085299	0.388457
	H90	H	0.096642	0.906099	0.617585
	H91	H	0.906459	0.907835	0.383518
	H92	H	0.096217	0.615419	0.911275
	H93	H	0.089833	0.385391	0.094689
	H94	H	0.902998	0.618566	0.097087
	H95	H	0.908198	0.385204	0.907511
	H96	H	0.407540	0.118027	0.604285
	H97	H	0.587594	0.884349	0.598052
	H98	H	0.603295	0.119760	0.403966
	H99	H	0.408633	0.885563	0.411340
	H100	H	0.584231	0.402597	0.114865
	H101	H	0.598947	0.589730	0.883108
	H102	H	0.415841	0.593000	0.113608
	H103	H	0.410751	0.402865	0.883228
	H104	H	0.116895	0.592995	0.406839
	H105	H	0.883069	0.591407	0.599260
	H106	H	0.116930	0.401260	0.588874
	H107	H	0.882250	0.403305	0.404929
	H108	H	0.912270	0.614944	0.094805
	H109	H	0.094814	0.385128	0.090496
	H110	H	0.095681	0.618194	0.901646
	H111	H	0.904327	0.383408	0.907766
	H112	H	0.090793	0.910089	0.614427
	H113	H	0.087502	0.105012	0.382194
	H114	H	0.907160	0.097949	0.617074
	H115	H	0.908165	0.905510	0.384021
	H116	H	0.617113	0.095212	0.908464
	H117	H	0.378872	0.102906	0.098077
	H118	H	0.613811	0.911035	0.087729
	H119	H	0.382936	0.908249	0.903271
	C120	C	0.377802	0.008053	0.621625
	C121	C	0.621896	0.991713	0.621612
	C122	C	0.621537	0.007865	0.378522
	C123	C	0.378092	0.991654	0.378372
	C124	C	0.621107	0.378420	0.008272
	C125	C	0.621388	0.621767	0.991492
	C126	C	0.378385	0.622081	0.008072
	C127	C	0.378625	0.378251	0.991604
	C128	C	0.008291	0.621799	0.378115
	C129	C	0.991875	0.621540	0.622071
	C130	C	0.008134	0.378637	0.621809
	C131	C	0.992215	0.378729	0.378383
	C132	C	0.878490	0.508191	0.121741
	C133	C	0.121922	0.491992	0.122071
	C134	C	0.121214	0.508011	0.878520
	C135	C	0.877939	0.492091	0.878222
	C136	C	0.121187	0.877983	0.508176
	C137	C	0.120954	0.121986	0.491870
	C138	C	0.878413	0.122400	0.507901
	C139	C	0.878402	0.878110	0.491792
	C140	C	0.508492	0.121207	0.878432
	C141	C	0.491740	0.121381	0.121076
	C142	C	0.509169	0.877812	0.121720
	C143	C	0.491846	0.878176	0.878228
	C144	C	0.381835	0.884490	0.675856
	C145	C	0.619263	0.114353	0.676569
	C146	C	0.618566	0.885007	0.323915
	C147	C	0.380684	0.114288	0.323258
	C148	C	0.675857	0.381510	0.885095
	C149	C	0.675770	0.618084	0.114779
	C150	C	0.324306	0.618357	0.884632
	C151	C	0.324387	0.381600	0.115044
	C152	C	0.884783	0.676154	0.380793
	C153	C	0.115265	0.676540	0.619126
	C154	C	0.884765	0.323990	0.618644
	C155	C	0.115752	0.324633	0.381612
	C156	C	0.884440	0.382227	0.675567
	C157	C	0.115366	0.619118	0.677284
	C158	C	0.884568	0.618241	0.323749
	C159	C	0.115558	0.382001	0.324113
	C160	C	0.381224	0.677073	0.884922
	C161	C	0.618860	0.676144	0.114550
	C162	C	0.618807	0.323251	0.885274
	C163	C	0.381182	0.322981	0.114596
	C164	C	0.676036	0.885031	0.381789
	C165	C	0.677089	0.114333	0.619033
	C166	C	0.323618	0.884540	0.618326
	C167	C	0.323143	0.114475	0.381701
	C168	C	0.881424	0.385153	0.176542
	C169	C	0.119258	0.615173	0.176926
	C170	C	0.118590	0.385100	0.823805
	C171	C	0.881102	0.615149	0.823749
	C172	C	0.175897	0.881280	0.384882
	C173	C	0.175498	0.117866	0.615327
	C174	C	0.823976	0.118775	0.384862
	C175	C	0.824012	0.881340	0.615116
	C176	C	0.385062	0.176319	0.880986
	C177	C	0.614976	0.176657	0.118726
	C178	C	0.385602	0.823790	0.117917
	C179	C	0.615565	0.824030	0.881304
	C180	C	0.385572	0.881188	0.175780
	C181	C	0.614927	0.119018	0.176199
	C182	C	0.384887	0.118257	0.823973
	C183	C	0.615133	0.881289	0.823465
	C184	C	0.880781	0.177591	0.384979
	C185	C	0.118522	0.176315	0.615146
	C186	C	0.118955	0.823189	0.385148
	C187	C	0.881124	0.823108	0.614820
	C188	C	0.176194	0.385072	0.881615
	C189	C	0.176582	0.615513	0.118663
	C190	C	0.823566	0.385068	0.118584
	C191	C	0.823490	0.615165	0.881706
	C192	C	0.399132	0.093757	0.600031
	C193	C	0.599512	0.905944	0.599488
	C194	C	0.599727	0.094220	0.400025
	C195	C	0.400008	0.905592	0.400121
	C196	C	0.599257	0.399842	0.094317
	C197	C	0.599955	0.600520	0.905163
	C198	C	0.400537	0.600050	0.093950
	C199	C	0.400403	0.399839	0.905545
	C200	C	0.094502	0.599862	0.400372
	C201	C	0.905873	0.599736	0.600109
	C202	C	0.094728	0.400195	0.600377
	C203	C	0.905700	0.400504	0.400014
	C204	C	0.900458	0.593906	0.099789
	C205	C	0.100049	0.406626	0.100333
	C206	C	0.099442	0.593814	0.900083
	C207	C	0.899746	0.406119	0.900084
	C208	C	0.099063	0.899934	0.593971
	C209	C	0.098830	0.100424	0.406255
	C210	C	0.900442	0.100835	0.594113
	C211	C	0.900293	0.899875	0.405806
	C212	C	0.594526	0.099499	0.900169
	C213	C	0.405792	0.099360	0.098979
	C214	C	0.595328	0.899929	0.099775
	C215	C	0.405412	0.899652	0.899748
	Zn216	Zn	0.499807	-0.000256	0.750194
	Zn217	Zn	0.500375	-0.000078	0.249616
	Zn218	Zn	0.749268	0.500357	0.000082
	Zn219	Zn	0.250111	0.500044	0.000088
	Zn220	Zn	-0.000099	0.749833	0.499717
	Zn221	Zn	0.000048	0.251082	0.500052
	Zn222	Zn	-0.000049	0.499904	0.750214
	Zn223	Zn	0.000281	0.500376	0.250434
	Zn224	Zn	0.500923	0.750172	-0.000149
	Zn225	Zn	0.500094	0.249493	0.000022
	Zn226	Zn	0.750375	-0.000221	0.500071
	Zn227	Zn	0.249147	-0.000473	0.499993
	N228	N	0.414998	0.962086	0.677875
	N229	N	0.585375	0.037163	0.678043
	N230	N	0.585278	0.962476	0.321999
	N231	N	0.413963	0.036819	0.321283
	N232	N	0.677502	0.414969	0.962507
	N233	N	0.677277	0.584977	0.037131
	N234	N	0.322534	0.584854	0.962173
	N235	N	0.322836	0.415377	0.037682
	N236	N	0.962780	0.678507	0.414020
	N237	N	0.037737	0.678028	0.585292
	N238	N	0.962785	0.321715	0.586009
	N239	N	0.037798	0.322630	0.414679
	N240	N	0.962160	0.415569	0.677514
	N241	N	0.037682	0.585548	0.679094
	N242	N	0.962219	0.584943	0.322314
	N243	N	0.037573	0.414755	0.321905
	N244	N	0.414093	0.679636	0.962775
	N245	N	0.585893	0.678585	0.036823
	N246	N	0.585307	0.321464	0.962746
	N247	N	0.413903	0.320526	0.036685
	N248	N	0.677901	0.962552	0.415184
	N249	N	0.678565	0.037126	0.585389
	N250	N	0.321012	0.962154	0.585361
	N251	N	0.321537	0.037141	0.415339
	N252	N	0.914757	0.462633	0.178542
	N253	N	0.085922	0.537712	0.179149
	N254	N	0.085075	0.462446	0.821945
	N255	N	0.914019	0.537438	0.821414
	N256	N	0.177386	0.914675	0.462374
	N257	N	0.177346	0.084721	0.537699
	N258	N	0.822594	0.084961	0.462251
	N259	N	0.822454	0.914889	0.537766
	N260	N	0.462967	0.178413	0.914052
	N261	N	0.537238	0.178231	0.085181
	N262	N	0.463579	0.821597	0.085134
	N263	N	0.537849	0.822029	0.914908
	N264	N	0.463480	0.914211	0.178073
	N265	N	0.537548	0.085081	0.177509
	N266	N	0.462518	0.084688	0.822274
	N267	N	0.537256	0.914306	0.821662
	N268	N	0.913943	0.179822	0.462727
	N269	N	0.085370	0.178978	0.537554
	N270	N	0.085462	0.821242	0.462669
	N271	N	0.914244	0.821000	0.537046
	N272	N	0.177792	0.462485	0.915189
	N273	N	0.178453	0.538015	0.085292
	N274	N	0.821746	0.462421	0.084952
	N275	N	0.821601	0.537667	0.914958
