data_Molecule from HDF5

_cell_length_a		16.524804
_cell_length_b		16.523859
_cell_length_c		16.723557
_cell_angle_alpha	89.998133
_cell_angle_beta	89.940280
_cell_angle_gamma	89.892761
_symmetry_space_group_name_H-M	'P 1'
_symmetry_Int_Tables_number		1

loop_
	_symmetry_equiv_pos_as_xyz
	x,y,z

loop_
	_atom_site_label
	_atom_site_type_symbol
	_atom_site_fract_x
	_atom_site_fract_y
	_atom_site_fract_z
	H0	H	0.391156	0.841176	0.710309
	H1	H	0.606933	0.150864	0.713253
	H2	H	0.605737	0.841464	0.265400
	H3	H	0.391273	0.153968	0.266630
	H4	H	0.722658	0.389911	0.834950
	H5	H	0.720266	0.602411	0.144260
	H6	H	0.274227	0.604438	0.835260
	H7	H	0.274761	0.390954	0.142939
	H8	H	0.841838	0.719330	0.382666
	H9	H	0.155545	0.715151	0.590879
	H10	H	0.839958	0.279429	0.591221
	H11	H	0.157377	0.281149	0.389562
	H12	H	0.841069	0.392232	0.709806
	H13	H	0.153795	0.602913	0.710253
	H14	H	0.840514	0.602390	0.267898
	H15	H	0.155214	0.393639	0.269841
	H16	H	0.392412	0.719190	0.833956
	H17	H	0.605690	0.721592	0.142472
	H18	H	0.605794	0.272608	0.835010
	H19	H	0.390921	0.273990	0.142284
	H20	H	0.721245	0.841250	0.381967
	H21	H	0.718894	0.152695	0.594005
	H22	H	0.279617	0.839439	0.589131
	H23	H	0.278392	0.155456	0.385723
	H24	H	0.892908	0.339135	0.208884
	H25	H	0.101131	0.653858	0.209288
	H26	H	0.105431	0.341102	0.766583
	H27	H	0.889023	0.653634	0.765598
	H28	H	0.218506	0.894261	0.331861
	H29	H	0.217278	0.098992	0.646416
	H30	H	0.777555	0.100772	0.333775
	H31	H	0.774395	0.889161	0.643772
	H32	H	0.340882	0.216736	0.885378
	H33	H	0.654163	0.217586	0.093125
	H34	H	0.340083	0.777623	0.091599
	H35	H	0.655206	0.775918	0.884564
	H36	H	0.341215	0.891627	0.210017
	H37	H	0.653588	0.104070	0.211101
	H38	H	0.342420	0.103906	0.766126
	H39	H	0.653551	0.887267	0.765098
	H40	H	0.895422	0.216482	0.333143
	H41	H	0.100051	0.215154	0.646682
	H42	H	0.102541	0.776799	0.331931
	H43	H	0.891080	0.772171	0.642968
	H44	H	0.219356	0.341082	0.884114
	H45	H	0.215625	0.655165	0.091087
	H46	H	0.779108	0.339346	0.091092
	H47	H	0.777281	0.655115	0.885423
	H48	H	0.410658	0.109744	0.579504
	H49	H	0.590500	0.880589	0.580715
	H50	H	0.592178	0.113309	0.393333
	H51	H	0.413815	0.888916	0.405728
	H52	H	0.586038	0.410787	0.097745
	H53	H	0.582848	0.582253	0.880712
	H54	H	0.408900	0.587363	0.100096
	H55	H	0.411111	0.407473	0.877664
	H56	H	0.109919	0.586706	0.399148
	H57	H	0.887686	0.584199	0.572484
	H58	H	0.111521	0.403494	0.578797
	H59	H	0.882802	0.404166	0.394672
	H60	H	0.108504	0.410745	0.576699
	H61	H	0.886243	0.580190	0.579198
	H62	H	0.109080	0.583185	0.397328
	H63	H	0.884285	0.404595	0.400736
	H64	H	0.407465	0.587056	0.100428
	H65	H	0.586444	0.590688	0.877917
	H66	H	0.584549	0.405858	0.099608
	H67	H	0.407097	0.408871	0.877294
	H68	H	0.575216	0.106529	0.396440
	H69	H	0.577323	0.886442	0.580747
	H70	H	0.408695	0.109781	0.578165
	H71	H	0.399231	0.882122	0.398525
	H72	H	0.911795	0.607257	0.077428
	H73	H	0.089159	0.385508	0.074811
	H74	H	0.083248	0.607381	0.901289
	H75	H	0.915084	0.385152	0.890993
	H76	H	0.086770	0.907496	0.597989
	H77	H	0.088160	0.088519	0.378215
	H78	H	0.907405	0.084558	0.600158
	H79	H	0.905663	0.914037	0.379309
	H80	H	0.608044	0.083794	0.903990
	H81	H	0.383057	0.086129	0.082188
	H82	H	0.607448	0.911655	0.075252
	H83	H	0.387402	0.913129	0.899823
	H84	H	0.611074	0.911120	0.082440
	H85	H	0.386408	0.087836	0.073896
	H86	H	0.608572	0.079247	0.898944
	H87	H	0.385051	0.908935	0.894820
	H88	H	0.910677	0.089043	0.600333
	H89	H	0.089817	0.091132	0.377084
	H90	H	0.087838	0.903995	0.599596
	H91	H	0.916467	0.911869	0.382802
	H92	H	0.087554	0.610697	0.899708
	H93	H	0.089311	0.381936	0.083619
	H94	H	0.904935	0.610742	0.078531
	H95	H	0.915609	0.389801	0.906542
	H96	H	0.408208	0.110164	0.580682
	H97	H	0.585737	0.887680	0.568881
	H98	H	0.588016	0.106575	0.409548
	H99	H	0.413461	0.883449	0.389001
	H100	H	0.589470	0.407353	0.099777
	H101	H	0.591674	0.583213	0.877895
	H102	H	0.408116	0.586188	0.099554
	H103	H	0.410279	0.411209	0.878993
	H104	H	0.111151	0.586569	0.395435
	H105	H	0.884341	0.587829	0.578167
	H106	H	0.111827	0.409744	0.583985
	H107	H	0.884891	0.409726	0.397321
	H108	H	0.910382	0.610856	0.083680
	H109	H	0.081537	0.385943	0.080485
	H110	H	0.083599	0.609656	0.896243
	H111	H	0.901634	0.383257	0.900499
	H112	H	0.090539	0.906987	0.599392
	H113	H	0.091288	0.087700	0.376820
	H114	H	0.905531	0.089323	0.602187
	H115	H	0.910471	0.903572	0.377695
	H116	H	0.610990	0.085839	0.898232
	H117	H	0.387875	0.079706	0.077621
	H118	H	0.611398	0.904697	0.076965
	H119	H	0.385504	0.906268	0.901655
	C120	C	0.376980	0.005685	0.610179
	C121	C	0.618743	0.987707	0.610180
	C122	C	0.618813	0.005691	0.367032
	C123	C	0.376700	0.989056	0.366770
	C124	C	0.620279	0.374834	-0.002939
	C125	C	0.619777	0.618598	0.980827
	C126	C	0.376199	0.619174	-0.002601
	C127	C	0.376200	0.375943	0.980152
	C128	C	0.006266	0.618009	0.366091
	C129	C	0.989575	0.617042	0.608917
	C130	C	0.006579	0.376126	0.610943
	C131	C	0.988931	0.375402	0.367673
	C132	C	0.877011	0.505399	0.110590
	C133	C	0.118200	0.488644	0.110125
	C134	C	0.118087	0.505659	0.867355
	C135	C	0.877412	0.489593	0.867661
	C136	C	0.119800	0.875383	0.495760
	C137	C	0.120241	0.119061	0.481125
	C138	C	0.876278	0.118860	0.497758
	C139	C	0.877107	0.875721	0.481459
	C140	C	0.506418	0.117029	0.867614
	C141	C	0.489027	0.117996	0.110248
	C142	C	0.506165	0.876949	0.109673
	C143	C	0.489420	0.875505	0.866810
	C144	C	0.373883	0.887687	0.669366
	C145	C	0.623639	0.104402	0.672053
	C146	C	0.623011	0.888259	0.306060
	C147	C	0.373829	0.107180	0.307135
	C148	C	0.681694	0.371721	0.881119
	C149	C	0.680315	0.621077	0.097379
	C150	C	0.315125	0.622229	0.881299
	C151	C	0.315029	0.372662	0.096216
	C152	C	0.888503	0.678610	0.364585
	C153	C	0.108068	0.676162	0.610166
	C154	C	0.887574	0.318046	0.610764
	C155	C	0.109043	0.318922	0.368923
	C156	C	0.888162	0.374105	0.669831
	C157	C	0.107000	0.620445	0.669579
	C158	C	0.887837	0.620604	0.307374
	C159	C	0.108117	0.374928	0.309585
	C160	C	0.373993	0.679229	0.880709
	C161	C	0.623250	0.680286	0.096687
	C162	C	0.623707	0.313483	0.881208
	C163	C	0.373041	0.314702	0.096040
	C164	C	0.680369	0.888085	0.364178
	C165	C	0.679463	0.105315	0.612894
	C166	C	0.318420	0.886810	0.609609
	C167	C	0.317624	0.107865	0.366194
	C168	C	0.875157	0.386503	0.168862
	C169	C	0.119958	0.606889	0.169291
	C170	C	0.122276	0.388104	0.807085
	C171	C	0.872629	0.607050	0.806828
	C172	C	0.178799	0.875230	0.378617
	C173	C	0.178067	0.118389	0.599323
	C174	C	0.817662	0.119428	0.380401
	C175	C	0.815293	0.871857	0.597283
	C176	C	0.388305	0.177281	0.866115
	C177	C	0.606994	0.178048	0.111980
	C178	C	0.387430	0.817452	0.110624
	C179	C	0.607667	0.815165	0.865487
	C180	C	0.387994	0.873929	0.169484
	C181	C	0.606461	0.121417	0.170597
	C182	C	0.389027	0.121200	0.806925
	C183	C	0.606760	0.870712	0.805925
	C184	C	0.876183	0.177010	0.380127
	C185	C	0.119759	0.176256	0.599484
	C186	C	0.121171	0.816618	0.378665
	C187	C	0.873548	0.813744	0.597102
	C188	C	0.179064	0.388065	0.865647
	C189	C	0.176523	0.607660	0.110407
	C190	C	0.818651	0.386363	0.110334
	C191	C	0.816991	0.607801	0.866575
	C192	C	0.401999	0.088487	0.586186
	C193	C	0.592103	0.906260	0.584094
	C194	C	0.592646	0.087532	0.392642
	C195	C	0.401676	0.906445	0.390801
	C196	C	0.594106	0.400797	0.077890
	C197	C	0.594416	0.592771	0.899956
	C198	C	0.401172	0.594128	0.078742
	C199	C	0.402151	0.401784	0.899091
	C200	C	0.088674	0.592634	0.390549
	C201	C	0.907493	0.591457	0.583714
	C202	C	0.089146	0.400855	0.586576
	C203	C	0.905646	0.399415	0.390798
	C204	C	0.901875	0.588156	0.086676
	C205	C	0.093803	0.405868	0.086361
	C206	C	0.092171	0.587765	0.891967
	C207	C	0.903425	0.407441	0.892541
	C208	C	0.095324	0.899421	0.577607
	C209	C	0.096714	0.095771	0.398925
	C210	C	0.900714	0.094453	0.579536
	C211	C	0.903509	0.902275	0.400925
	C212	C	0.587988	0.090518	0.893004
	C213	C	0.407022	0.092035	0.085027
	C214	C	0.588551	0.901851	0.085171
	C215	C	0.407378	0.901840	0.891784
	Zn216	Zn	0.497827	-0.003796	0.738330
	Zn217	Zn	0.497383	-0.002891	0.238641
	Zn218	Zn	0.749145	0.496906	-0.011047
	Zn219	Zn	0.246881	0.497510	-0.011287
	Zn220	Zn	-0.001761	0.745545	0.487936
	Zn221	Zn	-0.001693	0.248249	0.489679
	Zn222	Zn	-0.002399	0.497524	0.738717
	Zn223	Zn	-0.002882	0.496725	0.239012
	Zn224	Zn	0.498002	0.747955	-0.010986
	Zn225	Zn	0.497829	0.246428	-0.011752
	Zn226	Zn	0.746756	-0.003075	0.489133
	Zn227	Zn	0.249236	-0.002246	0.488523
	N228	N	0.409196	0.962829	0.670010
	N229	N	0.586387	0.030123	0.670531
	N230	N	0.585346	0.962490	0.307587
	N231	N	0.409583	0.032111	0.307115
	N232	N	0.679779	0.409072	0.954216
	N233	N	0.678299	0.583393	0.024351
	N234	N	0.316123	0.585672	0.954942
	N235	N	0.316722	0.410039	0.022900
	N236	N	0.963186	0.677020	0.400529
	N237	N	0.033849	0.674355	0.573183
	N238	N	0.962422	0.318943	0.575088
	N239	N	0.033826	0.318740	0.403871
	N240	N	0.963220	0.409367	0.670234
	N241	N	0.032243	0.584364	0.668926
	N242	N	0.962241	0.583643	0.308095
	N243	N	0.032142	0.408996	0.308237
	N244	N	0.411193	0.677525	0.953880
	N245	N	0.586301	0.678878	0.023234
	N246	N	0.586314	0.315158	0.954523
	N247	N	0.410509	0.316729	0.022749
	N248	N	0.677933	0.962216	0.401261
	N249	N	0.676455	0.031742	0.575006
	N250	N	0.320001	0.961547	0.573719
	N251	N	0.319234	0.033504	0.402564
	N252	N	0.910489	0.461593	0.169393
	N253	N	0.084541	0.531866	0.169352
	N254	N	0.085041	0.462274	0.808023
	N255	N	0.909247	0.532379	0.807282
	N256	N	0.178100	0.911099	0.452519
	N257	N	0.178625	0.083771	0.524660
	N258	N	0.817556	0.084078	0.454563
	N259	N	0.817523	0.909882	0.524308
	N260	N	0.462390	0.174877	0.903131
	N261	N	0.532945	0.175971	0.075001
	N262	N	0.462056	0.818832	0.074293
	N263	N	0.533549	0.817834	0.902451
	N264	N	0.462754	0.909963	0.169065
	N265	N	0.531920	0.084909	0.169717
	N266	N	0.463604	0.084582	0.807366
	N267	N	0.532175	0.907577	0.806681
	N268	N	0.911982	0.176968	0.454306
	N269	N	0.084727	0.177127	0.524969
	N270	N	0.085107	0.816562	0.452600
	N271	N	0.911293	0.816055	0.524033
	N272	N	0.176770	0.462320	0.902382
	N273	N	0.175763	0.532940	0.074423
	N274	N	0.819385	0.461421	0.075019
	N275	N	0.819869	0.533702	0.903959
	O276	O	0.010171	1.167068	0.031550
	H277	H	0.007082	1.167031	0.037871
	H278	H	0.004817	1.169787	0.041869
	O279	O	0.472972	0.713570	0.264293
	H280	H	0.451331	0.723439	0.264350
	H281	H	0.461012	0.729643	0.252419
	O282	O	0.995108	-0.005984	1.215712
	H283	H	0.996185	-0.005445	1.217668
	H284	H	0.994879	-0.012795	1.212162
	O285	O	0.491783	0.280204	0.670826
	H286	H	0.502571	0.266823	0.663565
	H287	H	0.490801	0.263918	0.657973
	O288	O	0.281338	0.714158	0.453794
	H289	H	0.278945	0.726695	0.454751
	H290	H	0.273332	0.722140	0.436273
	O291	O	0.636700	0.422403	0.621600
	H292	H	0.636348	0.401362	0.620282
	H293	H	0.642838	0.408129	0.625995
	O294	O	1.007227	0.116560	1.009629
	H295	H	1.013126	0.125928	1.025717
	H296	H	1.002893	0.118392	1.011589
	O297	O	0.669403	0.668109	0.299613
	H298	H	0.672137	0.673574	0.299880
	H299	H	0.665174	0.654753	0.319556
	O300	O	0.028028	0.079617	0.769853
	H301	H	0.019882	0.059855	0.759897
	H302	H	0.027633	0.079309	0.768271
	O303	O	0.715114	0.710980	0.532016
	H304	H	0.713386	0.702478	0.549107
	H305	H	0.733100	0.729922	0.552124
	O306	O	0.404700	0.507911	0.511206
	H307	H	0.413917	0.494750	0.510515
	H308	H	0.408054	0.527097	0.507823
	O309	O	0.304872	0.689952	0.683717
	H310	H	0.322558	0.673620	0.662500
	H311	H	0.325074	0.666988	0.668750
	O312	O	0.526794	0.717062	0.713173
	H313	H	0.527608	0.750949	0.741552
	H314	H	0.530230	0.695559	0.710186
	O315	O	1.226380	1.056008	1.031870
	H316	H	1.227586	1.045822	1.025180
	H317	H	1.238917	1.052888	1.039807
	O318	O	0.443147	0.431499	0.258642
	H319	H	0.462045	0.424313	0.256206
	H320	H	0.456554	0.440789	0.263173
	O321	O	-0.141842	0.829344	0.848014
	H322	H	-0.142122	0.831837	0.837504
	H323	H	-0.122472	0.829451	0.856387
	O324	O	0.797083	0.794962	0.191054
	H325	H	0.796488	0.801155	0.156594
	H326	H	0.808024	0.793505	0.208215
	O327	O	-0.053039	0.076233	1.098455
	H328	H	-0.050038	0.081799	1.106783
	H329	H	-0.051870	0.076581	1.108606
	O330	O	0.687817	0.317706	0.668358
	H331	H	0.715665	0.288173	0.690729
	H332	H	0.669960	0.325486	0.662822
	O333	O	0.519984	0.283732	0.517554
	H334	H	0.534498	0.283385	0.500212
	H335	H	0.513800	0.292924	0.502545
	O336	O	0.700760	0.289006	0.283347
	H337	H	0.714356	0.266229	0.258618
	H338	H	0.707214	0.342051	0.274334
	O339	O	1.008053	-0.162680	0.763466
	H340	H	1.033677	-0.174700	0.766662
	H341	H	1.005114	-0.179378	0.754335
	O342	O	0.184901	-0.001595	0.125185
	H343	H	0.183359	-0.006509	0.126964
	H344	H	0.193372	-0.005371	0.114734
	O345	O	0.176816	1.045513	0.802206
	H346	H	0.182977	1.043875	0.800338
	H347	H	0.170568	1.048784	0.818861
	O348	O	0.655707	0.514017	0.403246
	H349	H	0.635379	0.491369	0.405450
	H350	H	0.654003	0.525131	0.416049
	O351	O	0.553717	0.667450	0.437810
	H352	H	0.548998	0.663586	0.421935
	H353	H	0.565673	0.673063	0.431414
	O354	O	-0.029684	0.213665	0.791259
	H355	H	-0.019582	0.219944	0.769670
	H356	H	-0.020892	0.227171	0.807503
	O357	O	0.432265	0.450252	0.716127
	H358	H	0.434917	0.428040	0.713038
	H359	H	0.416010	0.433860	0.722299
	O360	O	-0.120428	-0.109435	0.999728
	H361	H	-0.115975	-0.127524	1.014791
	H362	H	-0.120019	-0.101616	1.015968
	O363	O	-0.215774	0.013787	-0.210276
	H364	H	-0.209710	0.011938	-0.213060
	H365	H	-0.226622	0.009075	-0.213049
	O366	O	0.689654	0.515242	0.682474
	H367	H	0.699400	0.501830	0.680905
	H368	H	0.678056	0.501888	0.691932
	O369	O	0.800953	0.101904	0.050170
	H370	H	0.805784	0.090020	0.035420
	H371	H	0.795702	0.100222	0.061597
	O372	O	0.830286	0.811366	0.021809
	H373	H	0.821935	0.813981	0.013185
	H374	H	0.836434	0.801925	0.012036
	O375	O	0.777850	-0.035036	0.206545
	H376	H	0.782884	-0.052247	0.207336
	H377	H	0.761482	-0.032514	0.227652
	O378	O	0.627013	0.582431	0.469166
	H379	H	0.635554	0.580809	0.466591
	H380	H	0.623582	0.577366	0.474208
	O381	O	-0.020481	1.119857	0.916509
	H382	H	-0.007555	1.125249	0.921708
	H383	H	-0.034867	1.124309	0.921163
	O384	O	1.033460	-0.028908	0.862253
	H385	H	1.037524	-0.041096	0.856117
	H386	H	1.035723	-0.052362	0.864896
	O387	O	1.199943	1.196724	0.172490
	H388	H	1.208203	1.184973	0.144524
	H389	H	1.215364	1.202946	0.191780
	O390	O	0.320092	0.681717	0.305686
	H391	H	0.315617	0.637299	0.304124
	H392	H	0.312965	0.696666	0.313215
	O393	O	0.409025	0.586054	0.492156
	H394	H	0.423961	0.585272	0.490360
	H395	H	0.401862	0.579226	0.490510
	O396	O	0.203228	0.790568	0.781732
	H397	H	0.212602	0.801869	0.777144
	H398	H	0.219123	0.776084	0.755648
	O399	O	-0.048554	-0.090359	1.060923
	H400	H	-0.035034	-0.068416	1.062208
	H401	H	-0.038471	-0.095461	1.055037
	O402	O	0.424461	0.284996	0.420538
	H403	H	0.404688	0.290876	0.422014
	H404	H	0.420733	0.279761	0.418727
	O405	O	0.994384	-0.197079	0.928952
	H406	H	0.991283	-0.193858	0.938600
	H407	H	0.999268	-0.206084	0.930393
	O408	O	0.208300	0.028907	-0.190202
	H409	H	0.204173	0.013593	-0.188376
	H410	H	0.209935	0.027958	-0.199933
	O411	O	0.702757	0.677230	0.692782
	H412	H	0.680694	0.655240	0.701164
	H413	H	0.713786	0.669346	0.706177
	O414	O	0.421176	0.561681	0.687726
	H415	H	0.434477	0.538618	0.687582
	H416	H	0.416881	0.569754	0.685370
	O417	O	0.411929	0.402727	0.501516
	H418	H	0.409934	0.409108	0.496492
	H419	H	0.408600	0.385659	0.502415
	O420	O	0.314334	0.546248	0.624112
	H421	H	0.299396	0.551464	0.622965
	H422	H	0.328459	0.538558	0.619431
	O423	O	0.015223	-0.036326	1.055535
	H424	H	0.023804	-0.021935	1.052206
	H425	H	0.022372	-0.048538	1.057408
	O426	O	0.448887	0.584509	0.571935
	H427	H	0.464571	0.579460	0.566030
	H428	H	0.447910	0.584777	0.578962
	O429	O	0.891950	1.200509	0.923402
	H430	H	0.885088	1.193807	0.905479
	H431	H	0.885013	1.211000	0.922646
	O432	O	0.614871	0.503056	0.475335
	H433	H	0.612119	0.504438	0.485188
	H434	H	0.612296	0.500326	0.484972
	O435	O	0.180287	0.838981	0.141705
	H436	H	0.186527	0.839383	0.125140
	H437	H	0.152303	0.837325	0.127705
	O438	O	0.472361	0.284229	0.277324
	H439	H	0.499191	0.276629	0.267911
	H440	H	0.482972	0.272411	0.268260
	O441	O	0.034507	0.221851	0.215391
	H442	H	0.057329	0.238001	0.233274
	H443	H	0.057149	0.229940	0.227452
	O444	O	0.336109	0.278720	0.586736
	H445	H	0.344466	0.260957	0.602042
	H446	H	0.327775	0.262482	0.572374
	O447	O	0.208613	0.779614	0.949264
	H448	H	0.235240	0.751430	0.947861
	H449	H	0.203165	0.784705	0.918230
	O450	O	0.109937	0.905001	1.029890
	H451	H	0.109658	0.906701	1.020565
	H452	H	0.113508	0.911040	1.035426
	O453	O	0.289585	0.291724	0.696117
	H454	H	0.298349	0.279675	0.707062
	H455	H	0.299830	0.310324	0.686787
	O456	O	0.202228	0.204005	1.015047
	H457	H	0.204587	0.213113	1.023574
	H458	H	0.204505	0.200013	1.004008
	O459	O	0.875913	0.889754	-0.062663
	H460	H	0.884618	0.899615	-0.051903
	H461	H	0.881067	0.894798	-0.064621
	O462	O	0.711977	0.454896	0.268159
	H463	H	0.725477	0.468969	0.261120
	H464	H	0.711898	0.475720	0.272790
	O465	O	0.800865	0.160867	0.154592
	H466	H	0.819187	0.142784	0.152135
	H467	H	0.803343	0.139623	0.137815
	O468	O	0.283636	0.537259	0.267603
	H469	H	0.274691	0.528075	0.259535
	H470	H	0.284733	0.520222	0.267128
	O471	O	0.714515	0.275404	0.457923
	H472	H	0.717652	0.274610	0.423171
	H473	H	0.737812	0.256938	0.445546
	O474	O	0.303283	0.489310	0.397345
	H475	H	0.319785	0.503152	0.398020
	H476	H	0.299045	0.486895	0.425673
	O477	O	0.490882	0.633070	1.496257
	H478	H	0.500761	0.633432	1.496190
	H479	H	0.506917	0.627412	1.480546
	O480	O	0.346186	0.297848	0.335981
	H481	H	0.370378	0.312699	0.322431
	H482	H	0.356142	0.317012	0.362644
	O483	O	0.558047	0.552547	0.331399
	H484	H	0.564696	0.579075	0.329390
	H485	H	0.563939	0.559683	0.331799
	O486	O	0.794128	0.193644	0.787556
	H487	H	0.798644	0.160517	0.796418
	H488	H	0.829987	0.195679	0.794967
	O489	O	1.002500	0.844944	0.215141
	H490	H	0.987279	0.853635	0.205480
	H491	H	1.000607	0.843959	0.233137
