data_Molecule from HDF5

_cell_length_a		16.574526
_cell_length_b		16.552933
_cell_length_c		16.488072
_cell_angle_alpha	90.038742
_cell_angle_beta	89.835129
_cell_angle_gamma	89.919568
_symmetry_space_group_name_H-M	'P 1'
_symmetry_Int_Tables_number		1

loop_
	_symmetry_equiv_pos_as_xyz
	x,y,z

loop_
	_atom_site_label
	_atom_site_type_symbol
	_atom_site_fract_x
	_atom_site_fract_y
	_atom_site_fract_z
	H0	H	0.395394	0.852295	0.734030
	H1	H	0.602758	0.166788	0.730017
	H2	H	0.605582	0.851359	0.291864
	H3	H	0.400993	0.167320	0.295893
	H4	H	0.722674	0.403646	0.854712
	H5	H	0.724203	0.615939	0.168124
	H6	H	0.283131	0.612595	0.852689
	H7	H	0.283496	0.409256	0.170983
	H8	H	0.843602	0.729719	0.408536
	H9	H	0.156680	0.732964	0.618201
	H10	H	0.844581	0.288616	0.616648
	H11	H	0.157756	0.290270	0.408394
	H12	H	0.843917	0.406460	0.732188
	H13	H	0.158837	0.613437	0.731279
	H14	H	0.843580	0.614255	0.291454
	H15	H	0.158931	0.407930	0.292781
	H16	H	0.395878	0.731828	0.854596
	H17	H	0.606436	0.730226	0.169248
	H18	H	0.604657	0.289236	0.854166
	H19	H	0.401615	0.294115	0.172073
	H20	H	0.723610	0.852539	0.404705
	H21	H	0.721045	0.164459	0.615021
	H22	H	0.278847	0.851718	0.617531
	H23	H	0.282578	0.166337	0.410573
	H24	H	0.899029	0.351970	0.230798
	H25	H	0.106892	0.666449	0.233495
	H26	H	0.102832	0.351279	0.793655
	H27	H	0.896522	0.666763	0.790319
	H28	H	0.222862	0.903878	0.354350
	H29	H	0.220029	0.112773	0.669239
	H30	H	0.781947	0.112034	0.353514
	H31	H	0.777319	0.902431	0.667970
	H32	H	0.343706	0.229180	0.910087
	H33	H	0.658728	0.230525	0.117334
	H34	H	0.343832	0.787977	0.117851
	H35	H	0.656828	0.785880	0.904619
	H36	H	0.343645	0.907076	0.232013
	H37	H	0.660142	0.112107	0.231286
	H38	H	0.344042	0.114198	0.791564
	H39	H	0.657464	0.903107	0.788843
	H40	H	0.897092	0.229155	0.354088
	H41	H	0.105177	0.230730	0.667939
	H42	H	0.107768	0.786973	0.354909
	H43	H	0.895948	0.788573	0.669224
	H44	H	0.219285	0.350739	0.909126
	H45	H	0.223519	0.666717	0.117282
	H46	H	0.781897	0.352854	0.115164
	H47	H	0.777015	0.665142	0.904170
	H48	H	0.411199	0.121527	0.603463
	H49	H	0.590009	0.896378	0.597785
	H50	H	0.591370	0.122606	0.419110
	H51	H	0.408386	0.893190	0.417465
	H52	H	0.594158	0.413944	0.127841
	H53	H	0.593388	0.598553	0.897242
	H54	H	0.407285	0.594860	0.124749
	H55	H	0.415008	0.418665	0.899546
	H56	H	0.113213	0.596632	0.421645
	H57	H	0.889260	0.601142	0.599475
	H58	H	0.114791	0.414852	0.602851
	H59	H	0.887593	0.415403	0.426893
	H60	H	0.112154	0.418896	0.597699
	H61	H	0.891146	0.595602	0.599824
	H62	H	0.113462	0.601039	0.421529
	H63	H	0.889347	0.424460	0.421571
	H64	H	0.415842	0.596529	0.121982
	H65	H	0.588712	0.590996	0.901838
	H66	H	0.595830	0.426020	0.124725
	H67	H	0.409189	0.412398	0.896049
	H68	H	0.589903	0.120588	0.423489
	H69	H	0.590005	0.895273	0.601504
	H70	H	0.413220	0.119327	0.599370
	H71	H	0.415469	0.896643	0.422009
	H72	H	0.910058	0.622129	0.098784
	H73	H	0.092514	0.395869	0.105186
	H74	H	0.086468	0.623046	0.914388
	H75	H	0.908737	0.393218	0.913857
	H76	H	0.090160	0.918292	0.625147
	H77	H	0.089780	0.103013	0.397281
	H78	H	0.911877	0.090845	0.621389
	H79	H	0.910775	0.927276	0.401095
	H80	H	0.610108	0.095380	0.927857
	H81	H	0.390988	0.098237	0.102716
	H82	H	0.612232	0.917050	0.096716
	H83	H	0.389875	0.921419	0.921447
	H84	H	0.611465	0.923413	0.100970
	H85	H	0.388380	0.101383	0.107845
	H86	H	0.613808	0.095296	0.916937
	H87	H	0.389998	0.918581	0.926782
	H88	H	0.917447	0.101846	0.623490
	H89	H	0.096601	0.098604	0.397019
	H90	H	0.091866	0.923890	0.623143
	H91	H	0.919531	0.918275	0.401433
	H92	H	0.090782	0.619349	0.929858
	H93	H	0.088389	0.399173	0.101217
	H94	H	0.913384	0.622871	0.102708
	H95	H	0.922271	0.401690	0.921955
	H96	H	0.408128	0.120661	0.599609
	H97	H	0.587037	0.897298	0.599838
	H98	H	0.594532	0.122412	0.423251
	H99	H	0.407644	0.895976	0.425992
	H100	H	0.584711	0.420643	0.122714
	H101	H	0.583961	0.599835	0.900697
	H102	H	0.411556	0.602972	0.125781
	H103	H	0.406732	0.421180	0.897974
	H104	H	0.111832	0.598587	0.425801
	H105	H	0.888138	0.597998	0.604274
	H106	H	0.114245	0.422017	0.603924
	H107	H	0.885997	0.416004	0.416508
	H108	H	0.914864	0.620361	0.098537
	H109	H	0.094730	0.397297	0.099092
	H110	H	0.101681	0.625673	0.919505
	H111	H	0.907019	0.399415	0.931237
	H112	H	0.085618	0.922012	0.623173
	H113	H	0.089267	0.095360	0.399554
	H114	H	0.905554	0.100630	0.626527
	H115	H	0.907998	0.915542	0.396254
	H116	H	0.614945	0.104396	0.922995
	H117	H	0.387690	0.104077	0.102053
	H118	H	0.614754	0.917014	0.103524
	H119	H	0.391512	0.924506	0.926464
	C120	C	0.378548	0.017028	0.633873
	C121	C	0.621178	1.000037	0.631867
	C122	C	0.623293	0.017651	0.390203
	C123	C	0.380030	0.999888	0.391105
	C124	C	0.622552	0.388074	0.020502
	C125	C	0.622127	0.629721	1.003465
	C126	C	0.380020	0.630201	0.019833
	C127	C	0.380147	0.387774	1.003213
	C128	C	0.009062	0.630968	0.390716
	C129	C	0.993145	0.630806	0.633294
	C130	C	0.009540	0.387556	0.633032
	C131	C	0.991962	0.387980	0.390423
	C132	C	0.881025	0.517968	0.131943
	C133	C	0.123280	0.501498	0.133268
	C134	C	0.123106	0.518100	0.890446
	C135	C	0.879824	0.501213	0.889802
	C136	C	0.121614	0.888670	0.519990
	C137	C	0.122850	0.130580	0.502233
	C138	C	0.879716	0.129764	0.519908
	C139	C	0.880014	0.887967	0.503313
	C140	C	0.509346	0.130770	0.890714
	C141	C	0.493438	0.131413	0.134772
	C142	C	0.509346	0.887612	0.133144
	C143	C	0.493092	0.888117	0.891153
	C144	C	0.376241	0.899265	0.694291
	C145	C	0.622252	0.118822	0.690828
	C146	C	0.624227	0.898816	0.331305
	C147	C	0.380821	0.119447	0.334182
	C148	C	0.682345	0.385622	0.901892
	C149	C	0.683685	0.633628	0.121166
	C150	C	0.321960	0.631584	0.900471
	C151	C	0.322736	0.389073	0.123361
	C152	C	0.890802	0.690413	0.389513
	C153	C	0.110289	0.691822	0.635875
	C154	C	0.891631	0.328429	0.635136
	C155	C	0.110832	0.329770	0.389419
	C156	C	0.891481	0.386660	0.692905
	C157	C	0.111344	0.632570	0.692192
	C158	C	0.890793	0.632599	0.331465
	C159	C	0.111195	0.388263	0.332115
	C160	C	0.378086	0.690900	0.901580
	C161	C	0.625025	0.690445	0.121692
	C162	C	0.623775	0.328754	0.901731
	C163	C	0.381327	0.331875	0.123999
	C164	C	0.682940	0.899242	0.387626
	C165	C	0.680682	0.118166	0.633479
	C166	C	0.318472	0.899100	0.636414
	C167	C	0.322274	0.119080	0.391380
	C168	C	0.879968	0.399243	0.191089
	C169	C	0.125129	0.619592	0.193273
	C170	C	0.122550	0.398863	0.832569
	C171	C	0.877646	0.619458	0.829993
	C172	C	0.182567	0.885658	0.401755
	C173	C	0.181183	0.132066	0.621448
	C174	C	0.821083	0.130973	0.401087
	C175	C	0.818454	0.884927	0.621178
	C176	C	0.390981	0.189732	0.890443
	C177	C	0.611913	0.190232	0.135407
	C178	C	0.390953	0.828266	0.135805
	C179	C	0.610352	0.826915	0.887238
	C180	C	0.390946	0.887136	0.192919
	C181	C	0.612476	0.131425	0.192375
	C182	C	0.391172	0.132483	0.831650
	C183	C	0.610641	0.885251	0.829671
	C184	C	0.878370	0.189217	0.401250
	C185	C	0.124067	0.190517	0.620896
	C186	C	0.125007	0.827858	0.401838
	C187	C	0.877217	0.828263	0.622041
	C188	C	0.180652	0.398692	0.889983
	C189	C	0.183068	0.619606	0.135321
	C190	C	0.821765	0.399810	0.133832
	C191	C	0.818557	0.618714	0.886752
	C192	C	0.403539	0.099211	0.608271
	C193	C	0.596365	0.917724	0.606743
	C194	C	0.599087	0.100395	0.414863
	C195	C	0.403706	0.916906	0.414893
	C196	C	0.598459	0.413212	0.103511
	C197	C	0.596347	0.603598	0.921333
	C198	C	0.404575	0.605207	0.102623
	C199	C	0.403508	0.410779	0.919712
	C200	C	0.091433	0.605976	0.415849
	C201	C	0.911035	0.605475	0.608299
	C202	C	0.092247	0.411824	0.608474
	C203	C	0.909222	0.411763	0.414589
	C204	C	0.905535	0.600430	0.107117
	C205	C	0.098924	0.418882	0.108620
	C206	C	0.099689	0.601198	0.914359
	C207	C	0.905245	0.419325	0.914992
	C208	C	0.096198	0.914087	0.602295
	C209	C	0.098679	0.105965	0.419377
	C210	C	0.904649	0.104930	0.602526
	C211	C	0.905493	0.913293	0.421166
	C212	C	0.591570	0.105619	0.915456
	C213	C	0.410667	0.107799	0.111043
	C214	C	0.591241	0.912018	0.107605
	C215	C	0.411688	0.914044	0.917400
	Zn216	Zn	0.500665	0.008525	0.761672
	Zn217	Zn	0.502271	0.008749	0.262376
	Zn218	Zn	0.751390	0.509437	0.011383
	Zn219	Zn	0.251800	0.509379	0.011452
	Zn220	Zn	0.000882	0.759765	0.512193
	Zn221	Zn	0.000472	0.258297	0.511091
	Zn222	Zn	0.001526	0.509709	0.761432
	Zn223	Zn	0.000850	0.509533	0.261717
	Zn224	Zn	0.501172	0.758429	0.011944
	Zn225	Zn	0.501732	0.259520	0.012595
	Zn226	Zn	0.751129	0.008450	0.511243
	Zn227	Zn	0.250594	0.008435	0.512190
	N228	N	0.412893	0.973614	0.692833
	N229	N	0.586096	0.044313	0.689943
	N230	N	0.587957	0.973507	0.332619
	N231	N	0.415951	0.044256	0.333766
	N232	N	0.681983	0.421772	0.976904
	N233	N	0.682131	0.596534	0.046540
	N234	N	0.322882	0.594835	0.975166
	N235	N	0.321605	0.422807	0.047189
	N236	N	0.965504	0.689711	0.425243
	N237	N	0.035553	0.690878	0.600149
	N238	N	0.966134	0.328777	0.598734
	N239	N	0.035727	0.329334	0.424873
	N240	N	0.966103	0.422484	0.691991
	N241	N	0.037364	0.595320	0.690803
	N242	N	0.965511	0.596464	0.331991
	N243	N	0.036348	0.423691	0.332488
	N244	N	0.413156	0.690389	0.977068
	N245	N	0.587654	0.688341	0.047443
	N246	N	0.587497	0.330175	0.976625
	N247	N	0.415875	0.330604	0.048228
	N248	N	0.682595	0.974134	0.423362
	N249	N	0.680594	0.043104	0.597882
	N250	N	0.319812	0.973410	0.599391
	N251	N	0.321314	0.043598	0.425816
	N252	N	0.915917	0.473936	0.190204
	N253	N	0.088225	0.545215	0.191967
	N254	N	0.087559	0.474136	0.832470
	N255	N	0.915146	0.545403	0.831910
	N256	N	0.180441	0.922902	0.476159
	N257	N	0.180622	0.095494	0.546727
	N258	N	0.821688	0.094813	0.475931
	N259	N	0.820097	0.921282	0.546392
	N260	N	0.465592	0.188856	0.926289
	N261	N	0.536833	0.190571	0.100391
	N262	N	0.465527	0.828439	0.099258
	N263	N	0.536400	0.828826	0.924774
	N264	N	0.465494	0.923214	0.191488
	N265	N	0.537836	0.095465	0.192027
	N266	N	0.466018	0.096636	0.831476
	N267	N	0.536814	0.922835	0.831964
	N268	N	0.914063	0.188613	0.476307
	N269	N	0.088615	0.189837	0.545682
	N270	N	0.087800	0.829444	0.476285
	N271	N	0.914907	0.830170	0.547714
	N272	N	0.181302	0.473945	0.925066
	N273	N	0.182006	0.545076	0.098839
	N274	N	0.822238	0.474587	0.097942
	N275	N	0.819621	0.544131	0.923094
	O276	O	1.042526	0.892489	0.007150
	H277	H	1.051799	0.890324	-0.006461
	H278	H	1.032797	0.907621	0.002901
	O279	O	0.481042	0.643936	0.652950
	H280	H	0.476429	0.637142	0.660038
	H281	H	0.494052	0.640018	0.634386
	O282	O	0.782521	0.021048	0.036320
	H283	H	0.784321	0.011123	0.053111
	H284	H	0.777927	0.041523	0.027388
	O285	O	0.430087	0.353622	0.525980
	H286	H	0.425250	0.358510	0.556313
	H287	H	0.444181	0.355839	0.531794
	O288	O	1.001193	0.122702	0.792655
	H289	H	0.978076	0.126010	0.783132
	H290	H	0.981790	0.133050	0.805026
	O291	O	0.686316	0.597697	0.478339
	H292	H	0.688261	0.601238	0.477745
	H293	H	0.688362	0.604650	0.468624
	O294	O	0.213643	0.194089	0.034452
	H295	H	0.218620	0.199329	0.058101
	H296	H	0.225005	0.210832	0.060845
	O297	O	0.505974	0.495993	0.432769
	H298	H	0.499338	0.507696	0.447529
	H299	H	0.502851	0.500362	0.424458
	O300	O	0.062479	-0.070097	-0.080789
	H301	H	0.058347	-0.082257	-0.082169
	H302	H	0.054539	-0.083934	-0.068258
	O303	O	-0.207006	-0.200235	0.031861
	H304	H	-0.192123	-0.195323	0.019784
	H305	H	-0.210595	-0.219836	0.026642
	O306	O	0.785753	0.219691	-0.089488
	H307	H	0.777805	0.235827	-0.108802
	H308	H	0.780134	0.224167	-0.099166
	O309	O	0.936870	0.059744	0.074220
	H310	H	0.934434	0.082413	0.056567
	H311	H	0.953139	0.053878	0.076250
	O312	O	0.313063	0.319495	0.327912
	H313	H	0.329743	0.343760	0.342355
	H314	H	0.330782	0.334021	0.353983
	O315	O	0.667236	0.531429	0.318000
	H316	H	0.687361	0.511266	0.306288
	H317	H	0.671651	0.516848	0.300080
	O318	O	1.029949	0.798590	-0.192318
	H319	H	1.027041	0.799715	-0.208119
	H320	H	1.035916	0.809911	-0.201780
	O321	O	0.028421	0.797216	1.033416
	H322	H	0.026013	0.788008	1.034973
	H323	H	0.021774	0.815254	1.036774
	O324	O	1.215575	-0.207222	0.981343
	H325	H	1.236765	-0.231325	0.976549
	H326	H	1.206077	-0.202496	0.973861
	O327	O	0.591851	0.654439	0.475427
	H328	H	0.586251	0.663179	0.464717
	H329	H	0.586041	0.656149	0.471346
	O330	O	-0.055980	1.206515	-0.036783
	H331	H	-0.059887	1.212817	-0.043636
	H332	H	-0.051250	1.219738	-0.032154
	O333	O	0.550368	0.438606	0.628125
	H334	H	0.550117	0.444736	0.610760
	H335	H	0.552291	0.442204	0.625991
	O336	O	0.302082	0.702983	0.314021
	H337	H	0.299866	0.688019	0.345194
	H338	H	0.291363	0.690149	0.324972
	O339	O	-0.023125	0.968943	0.158607
	H340	H	-0.016695	0.963713	0.169761
	H341	H	-0.029352	0.958149	0.154488
	O342	O	-0.017249	1.087695	0.182634
	H343	H	-0.000020	1.085059	0.182209
	H344	H	-0.001774	1.086955	0.187664
	O345	O	0.350252	0.301634	0.721910
	H346	H	0.320466	0.278806	0.739557
	H347	H	0.347853	0.289683	0.698521
	O348	O	0.589625	0.547737	0.631640
	H349	H	0.589649	0.537905	0.636124
	H350	H	0.597427	0.569004	0.630144
	O351	O	0.207927	-0.201847	0.804094
	H352	H	0.198920	-0.195992	0.800358
	H353	H	0.202636	-0.178226	0.821275
	O354	O	0.968951	-0.152963	0.970928
	H355	H	0.981777	-0.147241	0.962749
	H356	H	0.977874	-0.149962	0.969872
	O357	O	0.302328	0.534611	0.307666
	H358	H	0.327007	0.530885	0.299007
	H359	H	0.294453	0.527336	0.311529
	O360	O	0.447222	0.663086	0.641676
	H361	H	0.452317	0.674966	0.650788
	H362	H	0.457323	0.654144	0.654016
	O363	O	0.530677	0.306757	0.371929
	H364	H	0.524947	0.315181	0.380721
	H365	H	0.544583	0.305634	0.359720
	O366	O	0.809566	-0.143891	0.854916
	H367	H	0.810191	-0.131185	0.881877
	H368	H	0.817343	-0.145969	0.853361
	O369	O	-0.026596	0.169345	0.874055
	H370	H	-0.030913	0.170631	0.872906
	H371	H	-0.031063	0.177145	0.864621
	O372	O	0.206805	1.103639	0.932105
	H373	H	0.201253	1.111592	0.938499
	H374	H	0.212378	1.103123	0.948549
	O375	O	1.169113	-0.015581	0.113622
	H376	H	1.165503	-0.024626	0.107625
	H377	H	1.175877	-0.013663	0.114648
	O378	O	0.703239	0.661424	0.615913
	H379	H	0.719693	0.673736	0.623397
	H380	H	0.691218	0.672102	0.585866
	O381	O	-0.207474	1.144837	-0.200375
	H382	H	-0.227036	1.167688	-0.208368
	H383	H	-0.215040	1.128770	-0.214093
	O384	O	0.472445	0.726613	0.294146
	H385	H	0.433300	0.719911	0.298836
	H386	H	0.465608	0.749390	0.263821
	O387	O	0.009782	1.050067	0.893806
	H388	H	0.002793	1.059083	0.888556
	H389	H	0.027644	1.060024	0.906285
	O390	O	0.198456	0.990719	0.800165
	H391	H	0.190494	1.002102	0.801082
	H392	H	0.209726	0.994051	0.789972
	O393	O	0.921330	0.153637	0.062054
	H394	H	0.922807	0.147004	0.064626
	H395	H	0.923829	0.159525	0.066202
	O396	O	0.333533	0.490920	0.515713
	H397	H	0.339241	0.507630	0.524455
	H398	H	0.332561	0.504876	0.533538
	O399	O	0.613379	0.601284	0.341956
	H400	H	0.600317	0.599592	0.342645
	H401	H	0.630695	0.616075	0.323765
	O402	O	1.216147	0.052350	1.227003
	H403	H	1.205198	0.028159	1.226373
	H404	H	1.225978	0.034821	1.241628
	O405	O	0.714421	0.297717	0.487358
	H406	H	0.732602	0.282810	0.489323
	H407	H	0.707674	0.312543	0.478094
	O408	O	0.773600	0.256387	0.274427
	H409	H	0.779436	0.244435	0.270498
	H410	H	0.788678	0.257887	0.246599
	O411	O	0.799109	0.806976	0.205911
	H412	H	0.803258	0.815408	0.177615
	H413	H	0.802059	0.830685	0.192441
	O414	O	-0.198349	0.003483	-0.128885
	H415	H	-0.189443	0.006936	-0.115613
	H416	H	-0.213758	-0.005410	-0.125497
	O417	O	0.549429	0.321712	0.633817
	H418	H	0.553727	0.333212	0.613210
	H419	H	0.537430	0.338312	0.620561
	O420	O	1.436740	-0.611008	0.730283
	H421	H	1.419411	-0.626307	0.740656
	H422	H	1.424331	-0.621575	0.736916
	O423	O	0.974599	0.785447	0.224360
	H424	H	0.961039	0.782938	0.220521
	H425	H	0.963372	0.762731	0.245528
	O426	O	0.425593	0.562643	0.675023
	H427	H	0.433469	0.567236	0.666338
	H428	H	0.405397	0.549444	0.685482
	O429	O	0.479978	0.301163	0.378574
	H430	H	0.492631	0.287887	0.369435
	H431	H	0.505490	0.305911	0.393456
	O432	O	1.075206	0.104271	1.059308
	H433	H	1.079305	0.106225	1.080358
	H434	H	1.096017	0.109151	1.055909
	O435	O	0.153487	-0.128936	0.199297
	H436	H	0.143722	-0.146419	0.203611
	H437	H	0.145741	-0.136124	0.181705
	O438	O	0.290342	0.301902	0.599547
	H439	H	0.270268	0.284276	0.586818
	H440	H	0.285648	0.308595	0.582910
	O441	O	0.350224	0.589469	0.527007
	H442	H	0.337547	0.600322	0.533288
	H443	H	0.366886	0.588162	0.547203
	O444	O	0.321186	0.482280	0.664281
	H445	H	0.299139	0.475617	0.685934
	H446	H	0.328540	0.453308	0.663914
	O447	O	0.605440	0.637364	0.717596
	H448	H	0.605285	0.628999	0.732661
	H449	H	0.627245	0.626098	0.725287
	O450	O	1.145723	0.153347	-0.191447
	H451	H	1.130343	0.151017	-0.173964
	H452	H	1.129191	0.136782	-0.190811
	O453	O	0.713403	0.365874	0.304358
	H454	H	0.731832	0.344648	0.287461
	H455	H	0.705679	0.358615	0.319834
	O456	O	0.211667	1.220124	1.221273
	H457	H	0.226684	1.191376	1.238755
	H458	H	0.234584	1.222414	1.246846
	O459	O	0.563580	0.387451	0.664303
	H460	H	0.547239	0.387019	0.662757
	H461	H	0.547292	0.393220	0.667946
	O462	O	0.642209	0.562096	0.430960
	H463	H	0.653938	0.559581	0.412660
	H464	H	0.644347	0.574624	0.434579
	O465	O	0.301904	0.706039	0.481512
	H466	H	0.311606	0.709487	0.505668
	H467	H	0.305014	0.714869	0.503545
	O468	O	0.494159	1.562728	0.367721
	H469	H	0.504490	1.557344	0.362498
	H470	H	0.510638	1.564912	0.356610
	O471	O	0.684230	0.629383	0.698021
	H472	H	0.681380	0.639289	0.685517
	H473	H	0.692905	0.620482	0.712974
	O474	O	1.035698	1.225912	0.225406
	H475	H	1.057805	1.231893	0.227108
	H476	H	1.062129	1.243375	0.238827
	O477	O	-0.213251	-0.025789	1.223530
	H478	H	-0.206136	-0.013895	1.243497
	H479	H	-0.220219	-0.019294	1.225157
