data_Molecule from HDF5

_cell_length_a		16.330542
_cell_length_b		16.203249
_cell_length_c		16.306081
_cell_angle_alpha	89.980397
_cell_angle_beta	89.915784
_cell_angle_gamma	89.776318
_symmetry_space_group_name_H-M	'P 1'
_symmetry_Int_Tables_number		1

loop_
	_symmetry_equiv_pos_as_xyz
	x,y,z

loop_
	_atom_site_label
	_atom_site_type_symbol
	_atom_site_fract_x
	_atom_site_fract_y
	_atom_site_fract_z
	H0	H	0.401863	0.844255	0.713349
	H1	H	0.597546	0.173335	0.712920
	H2	H	0.598539	0.843177	0.286970
	H3	H	0.402034	0.172900	0.285307
	H4	H	0.716184	0.409209	0.836696
	H5	H	0.714164	0.607595	0.162461
	H6	H	0.283899	0.610763	0.837578
	H7	H	0.285561	0.410958	0.163570
	H8	H	0.836732	0.722918	0.403139
	H9	H	0.163792	0.721372	0.596985
	H10	H	0.836080	0.295645	0.597291
	H11	H	0.163479	0.293327	0.400829
	H12	H	0.837353	0.409950	0.716322
	H13	H	0.162573	0.608452	0.715671
	H14	H	0.837041	0.607813	0.285555
	H15	H	0.162809	0.408250	0.283031
	H16	H	0.401874	0.723502	0.835761
	H17	H	0.594950	0.720314	0.163656
	H18	H	0.599286	0.295236	0.835907
	H19	H	0.402559	0.294363	0.163436
	H20	H	0.715406	0.845104	0.400894
	H21	H	0.713405	0.173119	0.597010
	H22	H	0.287074	0.843931	0.597724
	H23	H	0.285087	0.172748	0.400565
	H24	H	0.902328	0.344464	0.213983
	H25	H	0.097311	0.673125	0.213690
	H26	H	0.099968	0.345348	0.785096
	H27	H	0.901969	0.673397	0.787305
	H28	H	0.215518	0.908331	0.337077
	H29	H	0.215560	0.108225	0.662155
	H30	H	0.784338	0.108960	0.335709
	H31	H	0.783922	0.909519	0.661987
	H32	H	0.336924	0.224273	0.901658
	H33	H	0.664719	0.221539	0.097089
	H34	H	0.336351	0.796903	0.096323
	H35	H	0.663724	0.794715	0.903073
	H36	H	0.337518	0.909834	0.214570
	H37	H	0.663316	0.107635	0.215002
	H38	H	0.336875	0.109101	0.784614
	H39	H	0.663408	0.908837	0.783798
	H40	H	0.901859	0.223395	0.335794
	H41	H	0.096357	0.220726	0.663745
	H42	H	0.096915	0.795226	0.336042
	H43	H	0.902944	0.795988	0.663773
	H44	H	0.217334	0.345684	0.899183
	H45	H	0.213825	0.672865	0.099558
	H46	H	0.786459	0.343828	0.098978
	H47	H	0.785175	0.671907	0.902374
	H48	H	0.405196	0.122698	0.581054
	H49	H	0.581913	0.894509	0.594137
	H50	H	0.593597	0.127994	0.400585
	H51	H	0.413987	0.894614	0.408043
	H52	H	0.596764	0.417629	0.116756
	H53	H	0.599965	0.596579	0.882318
	H54	H	0.405294	0.607507	0.117705
	H55	H	0.410892	0.422045	0.886357
	H56	H	0.113227	0.599605	0.415291
	H57	H	0.883849	0.599553	0.594997
	H58	H	0.117167	0.417275	0.599395
	H59	H	0.883020	0.416071	0.401941
	H60	H	0.117827	0.408757	0.591211
	H61	H	0.883028	0.604170	0.595793
	H62	H	0.116529	0.593520	0.399274
	H63	H	0.884154	0.413429	0.409136
	H64	H	0.401673	0.600150	0.116605
	H65	H	0.586981	0.598840	0.886161
	H66	H	0.591065	0.417924	0.114411
	H67	H	0.410481	0.412411	0.883147
	H68	H	0.584284	0.123342	0.408039
	H69	H	0.596063	0.893765	0.581761
	H70	H	0.397309	0.130248	0.597868
	H71	H	0.400721	0.890873	0.410795
	H72	H	0.910708	0.625151	0.096086
	H73	H	0.092828	0.393204	0.087879
	H74	H	0.090002	0.623538	0.912611
	H75	H	0.914149	0.394060	0.912062
	H76	H	0.092492	0.911426	0.617299
	H77	H	0.098497	0.101072	0.381870
	H78	H	0.906320	0.103755	0.615790
	H79	H	0.916602	0.919364	0.386494
	H80	H	0.619718	0.113723	0.905845
	H81	H	0.384318	0.101495	0.093487
	H82	H	0.616536	0.912494	0.089465
	H83	H	0.383456	0.911183	0.908813
	H84	H	0.616923	0.918497	0.096562
	H85	H	0.385398	0.102438	0.090714
	H86	H	0.611564	0.094927	0.916210
	H87	H	0.385789	0.920966	0.908633
	H88	H	0.903412	0.101277	0.616135
	H89	H	0.092086	0.096048	0.384757
	H90	H	0.098352	0.915866	0.617815
	H91	H	0.905579	0.905307	0.379426
	H92	H	0.098317	0.627711	0.906992
	H93	H	0.095105	0.391103	0.092132
	H94	H	0.904532	0.624175	0.087743
	H95	H	0.901919	0.390220	0.910529
	H96	H	0.416740	0.124370	0.597214
	H97	H	0.598893	0.887484	0.599183
	H98	H	0.596922	0.125287	0.412170
	H99	H	0.405977	0.888450	0.398316
	H100	H	0.593862	0.412044	0.116948
	H101	H	0.593732	0.609002	0.879888
	H102	H	0.410116	0.600951	0.115111
	H103	H	0.402926	0.418321	0.883147
	H104	H	0.120065	0.610232	0.403192
	H105	H	0.884368	0.602472	0.591311
	H106	H	0.112990	0.419315	0.588652
	H107	H	0.885367	0.421081	0.407112
	H108	H	0.900377	0.628516	0.096472
	H109	H	0.090040	0.392961	0.092923
	H110	H	0.088316	0.626413	0.901952
	H111	H	0.910075	0.389767	0.900295
	H112	H	0.091809	0.918469	0.615266
	H113	H	0.090080	0.104195	0.383475
	H114	H	0.906110	0.099851	0.614529
	H115	H	0.898717	0.922993	0.382449
	H116	H	0.617315	0.093720	0.894295
	H117	H	0.385480	0.100027	0.091401
	H118	H	0.619618	0.909593	0.097629
	H119	H	0.382419	0.916697	0.900210
	C120	C	0.378502	0.016778	0.620543
	C121	C	0.620816	1.000488	0.620148
	C122	C	0.620614	0.016885	0.378456
	C123	C	0.378636	1.000069	0.377589
	C124	C	0.622243	0.387127	0.007842
	C125	C	0.621493	0.629983	0.990704
	C126	C	0.377812	0.631559	0.008487
	C127	C	0.379184	0.388398	0.992037
	C128	C	0.008513	0.630107	0.377908
	C129	C	0.991547	0.630610	0.622139
	C130	C	0.008367	0.387137	0.621622
	C131	C	0.991653	0.386865	0.376869
	C132	C	0.877565	0.517060	0.121724
	C133	C	0.121228	0.500716	0.120485
	C134	C	0.121716	0.517471	0.878276
	C135	C	0.879398	0.500001	0.878873
	C136	C	0.122170	0.886649	0.508568
	C137	C	0.121489	0.129497	0.491298
	C138	C	0.877579	0.130685	0.507511
	C139	C	0.878368	0.887208	0.490994
	C140	C	0.508419	0.130543	0.877187
	C141	C	0.492789	0.130207	0.120626
	C142	C	0.508903	0.886783	0.121465
	C143	C	0.491724	0.887114	0.877672
	C144	C	0.381309	0.893353	0.675609
	C145	C	0.618056	0.124379	0.675017
	C146	C	0.618547	0.892848	0.324234
	C147	C	0.381052	0.123841	0.322831
	C148	C	0.677858	0.389187	0.885143
	C149	C	0.676081	0.627484	0.113725
	C150	C	0.322541	0.630072	0.885716
	C151	C	0.323466	0.390210	0.114763
	C152	C	0.885457	0.684972	0.381993
	C153	C	0.114799	0.684410	0.618188
	C154	C	0.884985	0.333014	0.618584
	C155	C	0.114528	0.330791	0.379632
	C156	C	0.885689	0.389518	0.677796
	C157	C	0.114203	0.628258	0.677159
	C158	C	0.885689	0.628079	0.323494
	C159	C	0.114256	0.387960	0.321071
	C160	C	0.381152	0.686205	0.884836
	C161	C	0.616839	0.683571	0.114435
	C162	C	0.619736	0.332459	0.884853
	C163	C	0.381530	0.332380	0.114692
	C164	C	0.676429	0.893455	0.380845
	C165	C	0.675951	0.123999	0.617816
	C166	C	0.324504	0.893026	0.617694
	C167	C	0.323114	0.123655	0.380211
	C168	C	0.881117	0.393399	0.176691
	C169	C	0.117919	0.624155	0.175814
	C170	C	0.120468	0.394153	0.823170
	C171	C	0.881457	0.623828	0.824475
	C172	C	0.177180	0.888669	0.385617
	C173	C	0.176994	0.128154	0.613802
	C174	C	0.822198	0.128888	0.384630
	C175	C	0.822747	0.889252	0.613789
	C176	C	0.385880	0.186741	0.880491
	C177	C	0.615664	0.184561	0.117911
	C178	C	0.385440	0.833492	0.117781
	C179	C	0.614851	0.832021	0.881119
	C180	C	0.385891	0.890053	0.176257
	C181	C	0.614997	0.127804	0.176547
	C182	C	0.385484	0.129120	0.822666
	C183	C	0.614500	0.888292	0.821729
	C184	C	0.880723	0.185665	0.384429
	C185	C	0.117443	0.183795	0.614578
	C186	C	0.118307	0.832421	0.385094
	C187	C	0.881734	0.832956	0.614545
	C188	C	0.178617	0.394601	0.879792
	C189	C	0.175649	0.624099	0.118928
	C190	C	0.823719	0.393024	0.119235
	C191	C	0.823561	0.623309	0.881628
	C192	C	0.400121	0.103483	0.598537
	C193	C	0.598722	0.914309	0.598224
	C194	C	0.598279	0.103149	0.400436
	C195	C	0.400463	0.913673	0.399255
	C196	C	0.600113	0.409318	0.093702
	C197	C	0.600032	0.607955	0.904894
	C198	C	0.399414	0.609512	0.094456
	C199	C	0.401599	0.410984	0.906469
	C200	C	0.094428	0.607528	0.399404
	C201	C	0.905799	0.608670	0.600368
	C202	C	0.093781	0.408590	0.599632
	C203	C	0.906218	0.409928	0.399388
	C204	C	0.898787	0.603536	0.099802
	C205	C	0.099058	0.414733	0.097684
	C206	C	0.098859	0.603704	0.900549
	C207	C	0.902016	0.413395	0.901108
	C208	C	0.100580	0.908656	0.594371
	C209	C	0.099934	0.107038	0.405534
	C210	C	0.898901	0.108323	0.593330
	C211	C	0.900429	0.909333	0.405251
	C212	C	0.593972	0.107431	0.899000
	C213	C	0.407340	0.107963	0.098295
	C214	C	0.595295	0.907431	0.100682
	C215	C	0.406084	0.909692	0.899281
	Zn216	Zn	0.499801	0.008510	0.748476
	Zn217	Zn	0.500705	0.008544	0.249448
	Zn218	Zn	0.750534	0.507969	-0.000406
	Zn219	Zn	0.249911	0.509836	0.000050
	Zn220	Zn	0.000148	0.758915	0.500146
	Zn221	Zn	-0.000258	0.258667	0.499490
	Zn222	Zn	0.000440	0.508919	0.750608
	Zn223	Zn	0.000065	0.508730	0.248746
	Zn224	Zn	0.499771	0.758542	-0.000257
	Zn225	Zn	0.500907	0.259160	-0.000559
	Zn226	Zn	0.749096	0.008643	0.498964
	Zn227	Zn	0.250550	0.008265	0.499741
	N228	N	0.414180	0.971384	0.677244
	N229	N	0.584712	0.046499	0.676744
	N230	N	0.584446	0.970723	0.322591
	N231	N	0.414851	0.046111	0.321033
	N232	N	0.679537	0.422441	0.962695
	N233	N	0.678985	0.594680	0.035874
	N234	N	0.320315	0.596817	0.963359
	N235	N	0.322134	0.424409	0.037522
	N236	N	0.962770	0.686294	0.415191
	N237	N	0.037450	0.685984	0.584689
	N238	N	0.962013	0.331192	0.584578
	N239	N	0.037213	0.330098	0.413549
	N240	N	0.963136	0.422849	0.679536
	N241	N	0.036682	0.595322	0.679603
	N242	N	0.963242	0.594372	0.320937
	N243	N	0.036941	0.421857	0.319311
	N244	N	0.414850	0.687157	0.962195
	N245	N	0.583575	0.685217	0.037042
	N246	N	0.585987	0.331098	0.962221
	N247	N	0.415115	0.330863	0.037318
	N248	N	0.677837	0.971482	0.413934
	N249	N	0.677690	0.046067	0.584448
	N250	N	0.322719	0.970922	0.584183
	N251	N	0.321439	0.045644	0.413428
	N252	N	0.913608	0.471475	0.178523
	N253	N	0.084376	0.546357	0.176576
	N254	N	0.086065	0.471532	0.822034
	N255	N	0.915235	0.545758	0.822652
	N256	N	0.179759	0.921745	0.463263
	N257	N	0.179643	0.095060	0.536229
	N258	N	0.820202	0.095090	0.462238
	N259	N	0.820641	0.922376	0.536166
	N260	N	0.463248	0.187450	0.914014
	N261	N	0.538475	0.186208	0.083918
	N262	N	0.462823	0.831394	0.084614
	N263	N	0.537760	0.831196	0.915243
	N264	N	0.463721	0.922527	0.178619
	N265	N	0.537508	0.094848	0.178428
	N266	N	0.462648	0.094926	0.820358
	N267	N	0.537061	0.922349	0.819773
	N268	N	0.914163	0.187057	0.461564
	N269	N	0.083858	0.185088	0.537161
	N270	N	0.084890	0.830997	0.462538
	N271	N	0.915429	0.831426	0.537149
	N272	N	0.179437	0.472493	0.913608
	N273	N	0.177640	0.546351	0.085160
	N274	N	0.821622	0.470909	0.085501
	N275	N	0.822426	0.545290	0.914760
	O276	O	0.513415	0.458695	0.502715
	H277	H	0.508279	0.461471	0.494830
	H278	H	0.506927	0.459872	0.498422
	O279	O	0.095232	0.068293	0.028421
	H280	H	0.102529	0.065634	0.029769
	H281	H	0.088402	0.080045	0.021670
	O282	O	1.053933	0.064365	0.992704
	H283	H	1.055030	0.064363	0.991392
	H284	H	1.053841	0.071383	0.981042
	O285	O	0.507945	0.421093	0.462167
	H286	H	0.505376	0.427809	0.465482
	H287	H	0.503331	0.416391	0.464847
	O288	O	1.028783	0.109981	-0.005534
	H289	H	1.026748	0.111850	-0.007888
	H290	H	1.028382	0.104496	0.003269
	O291	O	-0.504388	0.454748	-0.465721
	H292	H	-0.498685	0.448444	-0.463797
	H293	H	-0.497458	0.449558	-0.471168
	O294	O	0.536608	0.445527	0.505136
	H295	H	0.535224	0.445704	0.511569
	H296	H	0.543274	0.451765	0.508764
	O297	O	-0.007369	1.034755	-0.013114
	H298	H	-0.010692	1.034074	-0.011883
	H299	H	-0.007043	1.032731	-0.015510
	O300	O	1.023682	0.045432	0.974278
	H301	H	1.027486	0.050986	0.989756
	H302	H	1.029790	0.043974	0.975590
	O303	O	0.496961	0.465599	0.536149
	H304	H	0.507082	0.451827	0.539452
	H305	H	0.490262	0.467600	0.539606
	O306	O	0.088350	1.034745	1.050795
	H307	H	0.099034	1.036096	1.056801
	H308	H	0.089408	1.042553	1.046226
	O309	O	0.518841	0.445792	0.453023
	H310	H	0.519468	0.434230	0.450872
	H311	H	0.531378	0.449411	0.453785
