data_Molecule from HDF5

_cell_length_a		16.141257
_cell_length_b		16.354493
_cell_length_c		16.257221
_cell_angle_alpha	89.514490
_cell_angle_beta	89.732950
_cell_angle_gamma	89.473671
_symmetry_space_group_name_H-M	'P 1'
_symmetry_Int_Tables_number		1

loop_
	_symmetry_equiv_pos_as_xyz
	x,y,z

loop_
	_atom_site_label
	_atom_site_type_symbol
	_atom_site_fract_x
	_atom_site_fract_y
	_atom_site_fract_z
	H0	H	0.402944	0.841035	0.723397
	H1	H	0.599075	0.166597	0.716541
	H2	H	0.605065	0.839914	0.289735
	H3	H	0.399638	0.165441	0.284590
	H4	H	0.717844	0.406158	0.839464
	H5	H	0.713751	0.597619	0.167886
	H6	H	0.291249	0.603529	0.838526
	H7	H	0.288985	0.405151	0.167750
	H8	H	0.839385	0.722449	0.400102
	H9	H	0.167664	0.714961	0.599701
	H10	H	0.838802	0.287800	0.607240
	H11	H	0.166294	0.285235	0.402335
	H12	H	0.839099	0.405003	0.720324
	H13	H	0.168731	0.598793	0.714074
	H14	H	0.837077	0.603474	0.290318
	H15	H	0.167786	0.403803	0.288856
	H16	H	0.401843	0.722911	0.841346
	H17	H	0.603344	0.715658	0.166694
	H18	H	0.606857	0.287315	0.841326
	H19	H	0.402835	0.286639	0.166416
	H20	H	0.719426	0.840621	0.406191
	H21	H	0.716515	0.165830	0.601295
	H22	H	0.289382	0.838792	0.603642
	H23	H	0.285570	0.166401	0.404098
	H24	H	0.902248	0.341344	0.222751
	H25	H	0.101693	0.666621	0.218639
	H26	H	0.107051	0.340499	0.787694
	H27	H	0.900849	0.665806	0.784897
	H28	H	0.219880	0.905527	0.339165
	H29	H	0.214977	0.098885	0.667344
	H30	H	0.787290	0.104959	0.339931
	H31	H	0.789982	0.903915	0.666644
	H32	H	0.339946	0.222844	0.902258
	H33	H	0.667716	0.216248	0.103902
	H34	H	0.339445	0.787650	0.107329
	H35	H	0.667303	0.786264	0.903532
	H36	H	0.338589	0.905731	0.220019
	H37	H	0.667581	0.100084	0.217596
	H38	H	0.337297	0.105148	0.790189
	H39	H	0.667926	0.904383	0.789858
	H40	H	0.897410	0.225068	0.342742
	H41	H	0.103763	0.217030	0.666230
	H42	H	0.106244	0.787745	0.338621
	H43	H	0.901881	0.785027	0.664068
	H44	H	0.222668	0.341770	0.903364
	H45	H	0.215718	0.667722	0.099089
	H46	H	0.789150	0.339770	0.103833
	H47	H	0.787639	0.666527	0.904767
	H48	H	0.403260	0.119904	0.597026
	H49	H	0.589416	0.888031	0.604375
	H50	H	0.591349	0.118429	0.405657
	H51	H	0.422215	0.893009	0.417303
	H52	H	0.594042	0.401914	0.121788
	H53	H	0.595119	0.600895	0.885343
	H54	H	0.413903	0.594501	0.118497
	H55	H	0.421107	0.422309	0.892722
	H56	H	0.123155	0.598858	0.403927
	H57	H	0.883100	0.601355	0.597168
	H58	H	0.123383	0.404495	0.600455
	H59	H	0.889051	0.415295	0.421868
	H60	H	0.119113	0.404800	0.586136
	H61	H	0.887297	0.595549	0.588602
	H62	H	0.119064	0.598532	0.415419
	H63	H	0.886634	0.419848	0.406749
	H64	H	0.408755	0.600406	0.122328
	H65	H	0.598237	0.594936	0.885919
	H66	H	0.601784	0.408511	0.121799
	H67	H	0.419224	0.402197	0.886201
	H68	H	0.591948	0.117231	0.412512
	H69	H	0.594195	0.889580	0.591035
	H70	H	0.410078	0.118888	0.600241
	H71	H	0.402129	0.886831	0.418292
	H72	H	0.911116	0.620222	0.103896
	H73	H	0.093817	0.387663	0.102320
	H74	H	0.093179	0.621334	0.900826
	H75	H	0.900985	0.386209	0.918023
	H76	H	0.096652	0.908534	0.619128
	H77	H	0.093880	0.094248	0.387428
	H78	H	0.911933	0.091096	0.617978
	H79	H	0.908354	0.911660	0.384637
	H80	H	0.623236	0.100774	0.905072
	H81	H	0.383903	0.094927	0.102704
	H82	H	0.620557	0.913929	0.101827
	H83	H	0.383873	0.907065	0.911691
	H84	H	0.624568	0.899644	0.100331
	H85	H	0.385283	0.103066	0.088908
	H86	H	0.618570	0.096760	0.916658
	H87	H	0.388615	0.912567	0.921873
	H88	H	0.912511	0.098840	0.620403
	H89	H	0.090959	0.095322	0.387717
	H90	H	0.091762	0.908436	0.617183
	H91	H	0.912662	0.915494	0.386731
	H92	H	0.090860	0.616392	0.912024
	H93	H	0.090275	0.391984	0.091743
	H94	H	0.913245	0.615915	0.089497
	H95	H	0.913402	0.383379	0.898162
	H96	H	0.409083	0.117639	0.592764
	H97	H	0.602868	0.883848	0.600816
	H98	H	0.597544	0.120411	0.408909
	H99	H	0.412326	0.884671	0.400713
	H100	H	0.591940	0.411962	0.118710
	H101	H	0.591929	0.596164	0.887881
	H102	H	0.404949	0.591989	0.120380
	H103	H	0.402680	0.414969	0.883939
	H104	H	0.118597	0.588860	0.408421
	H105	H	0.886657	0.591046	0.597863
	H106	H	0.117209	0.417106	0.594864
	H107	H	0.882463	0.405969	0.411130
	H108	H	0.898554	0.621321	0.094471
	H109	H	0.101758	0.387532	0.093085
	H110	H	0.101384	0.621242	0.909300
	H111	H	0.923768	0.393627	0.917265
	H112	H	0.094531	0.903489	0.619913
	H113	H	0.092711	0.097177	0.386991
	H114	H	0.906156	0.094756	0.620515
	H115	H	0.914094	0.909912	0.385182
	H116	H	0.619109	0.088884	0.907114
	H117	H	0.390340	0.087518	0.089370
	H118	H	0.618544	0.907650	0.088876
	H119	H	0.386529	0.919492	0.910718
	C120	C	0.379584	0.011093	0.626528
	C121	C	0.623884	0.995007	0.625685
	C122	C	0.624649	0.011679	0.381076
	C123	C	0.381124	0.995372	0.381596
	C124	C	0.625813	0.380152	0.012565
	C125	C	0.623722	0.623905	0.994757
	C126	C	0.380757	0.626221	0.012221
	C127	C	0.383372	0.383024	0.995299
	C128	C	0.011521	0.625476	0.380340
	C129	C	0.994830	0.623773	0.622668
	C130	C	0.011644	0.380334	0.625046
	C131	C	0.994178	0.382696	0.382780
	C132	C	0.879555	0.511676	0.125986
	C133	C	0.123881	0.496203	0.124179
	C134	C	0.125994	0.512123	0.879663
	C135	C	0.882041	0.495170	0.881515
	C136	C	0.124389	0.880049	0.510673
	C137	C	0.122379	0.123621	0.495027
	C138	C	0.880035	0.125778	0.512262
	C139	C	0.882181	0.881813	0.493345
	C140	C	0.511545	0.125853	0.881393
	C141	C	0.494935	0.123397	0.123496
	C142	C	0.512298	0.879700	0.126666
	C143	C	0.494862	0.883099	0.884697
	C144	C	0.382391	0.889217	0.683955
	C145	C	0.620210	0.117756	0.679295
	C146	C	0.624021	0.888804	0.327221
	C147	C	0.380586	0.117138	0.324060
	C148	C	0.681169	0.384487	0.888868
	C149	C	0.677524	0.619057	0.118432
	C150	C	0.326997	0.624806	0.888401
	C151	C	0.326983	0.384958	0.118477
	C152	C	0.888263	0.683317	0.381118
	C153	C	0.118599	0.677693	0.619961
	C154	C	0.888122	0.325509	0.625628
	C155	C	0.117464	0.324372	0.382840
	C156	C	0.888326	0.383784	0.682128
	C157	C	0.119123	0.619775	0.676776
	C158	C	0.887228	0.624411	0.326217
	C159	C	0.118187	0.383089	0.326361
	C160	C	0.382439	0.683761	0.889674
	C161	C	0.622454	0.677834	0.117923
	C162	C	0.625640	0.325485	0.889852
	C163	C	0.383696	0.326080	0.118037
	C164	C	0.681470	0.889146	0.384823
	C165	C	0.678602	0.117466	0.621774
	C166	C	0.326162	0.888073	0.624231
	C167	C	0.323772	0.117649	0.383310
	C168	C	0.882433	0.389826	0.183499
	C169	C	0.121807	0.618227	0.179849
	C170	C	0.126498	0.389565	0.824743
	C171	C	0.882120	0.617325	0.824195
	C172	C	0.181962	0.883885	0.387888
	C173	C	0.178101	0.120270	0.618141
	C174	C	0.824368	0.125120	0.389504
	C175	C	0.826821	0.883411	0.616952
	C176	C	0.388719	0.184254	0.882451
	C177	C	0.618655	0.178375	0.122635
	C178	C	0.388426	0.825869	0.125912
	C179	C	0.618399	0.825614	0.884640
	C180	C	0.388054	0.884248	0.182390
	C181	C	0.618732	0.120272	0.179140
	C182	C	0.387270	0.125423	0.826806
	C183	C	0.618594	0.884257	0.827900
	C184	C	0.879229	0.184980	0.390778
	C185	C	0.122186	0.178757	0.617667
	C186	C	0.124947	0.825726	0.387446
	C187	C	0.882684	0.824344	0.615669
	C188	C	0.183777	0.389946	0.882701
	C189	C	0.178669	0.618772	0.120626
	C190	C	0.826036	0.388917	0.124378
	C191	C	0.825685	0.617791	0.883809
	C192	C	0.401040	0.096730	0.603362
	C193	C	0.602131	0.909269	0.604711
	C194	C	0.600727	0.096818	0.402681
	C195	C	0.405185	0.910365	0.405290
	C196	C	0.602575	0.401220	0.098550
	C197	C	0.601758	0.603339	0.908603
	C198	C	0.402829	0.602741	0.097956
	C199	C	0.407116	0.406309	0.909700
	C200	C	0.098026	0.602184	0.402678
	C201	C	0.908239	0.602154	0.600959
	C202	C	0.097837	0.402232	0.600884
	C203	C	0.908409	0.406555	0.406198
	C204	C	0.901240	0.597159	0.102784
	C205	C	0.101951	0.411068	0.102236
	C206	C	0.102242	0.597503	0.901207
	C207	C	0.905861	0.409836	0.904514
	C208	C	0.100991	0.900748	0.596539
	C209	C	0.099196	0.101937	0.409508
	C210	C	0.903562	0.101882	0.597605
	C211	C	0.905002	0.905555	0.407713
	C212	C	0.597873	0.102337	0.903373
	C213	C	0.408952	0.101585	0.100536
	C214	C	0.598852	0.900737	0.103812
	C215	C	0.408564	0.906173	0.908113
	Zn216	Zn	0.501647	0.003719	0.755308
	Zn217	Zn	0.503463	0.002954	0.252532
	Zn218	Zn	0.752003	0.502863	0.003280
	Zn219	Zn	0.253907	0.504419	0.002466
	Zn220	Zn	0.002932	0.752180	0.501202
	Zn221	Zn	0.002078	0.253294	0.504053
	Zn222	Zn	0.003645	0.503119	0.751890
	Zn223	Zn	0.002535	0.503924	0.254217
	Zn224	Zn	0.503346	0.752328	0.004646
	Zn225	Zn	0.503937	0.252716	0.003382
	Zn226	Zn	0.753114	0.003319	0.503289
	Zn227	Zn	0.251328	0.003029	0.503670
	N228	N	0.414533	0.966806	0.685492
	N229	N	0.587132	0.040493	0.682017
	N230	N	0.589376	0.966074	0.324605
	N231	N	0.415196	0.039968	0.322676
	N232	N	0.681339	0.417877	0.966224
	N233	N	0.678403	0.586064	0.040781
	N234	N	0.325845	0.589690	0.965449
	N235	N	0.326717	0.419689	0.041174
	N236	N	0.966705	0.684042	0.413909
	N237	N	0.040254	0.680151	0.586952
	N238	N	0.966025	0.323519	0.590800
	N239	N	0.039470	0.323974	0.417383
	N240	N	0.966238	0.417021	0.681923
	N241	N	0.040998	0.587277	0.678910
	N242	N	0.964821	0.588959	0.325670
	N243	N	0.040689	0.418616	0.326279
	N244	N	0.414899	0.684869	0.967934
	N245	N	0.589525	0.680872	0.040113
	N246	N	0.592082	0.322720	0.967682
	N247	N	0.417893	0.324698	0.040410
	N248	N	0.681925	0.966365	0.417679
	N249	N	0.680804	0.040094	0.589062
	N250	N	0.324041	0.965074	0.589348
	N251	N	0.323953	0.040753	0.418380
	N252	N	0.915071	0.467175	0.184567
	N253	N	0.088611	0.541103	0.182185
	N254	N	0.091053	0.466502	0.822778
	N255	N	0.916638	0.540033	0.822830
	N256	N	0.181741	0.917156	0.465287
	N257	N	0.178114	0.086529	0.541058
	N258	N	0.824853	0.088831	0.466125
	N259	N	0.826697	0.918751	0.539941
	N260	N	0.466920	0.184564	0.915614
	N261	N	0.540657	0.180362	0.088723
	N262	N	0.466664	0.822635	0.092345
	N263	N	0.540497	0.824833	0.919367
	N264	N	0.466189	0.917088	0.182887
	N265	N	0.540714	0.087190	0.180217
	N266	N	0.464929	0.089930	0.825802
	N267	N	0.540713	0.919176	0.827713
	N268	N	0.913045	0.185551	0.468238
	N269	N	0.088284	0.181184	0.540061
	N270	N	0.090382	0.822972	0.464915
	N271	N	0.916315	0.823212	0.537904
	N272	N	0.183864	0.467146	0.915834
	N273	N	0.180081	0.541959	0.086588
	N274	N	0.824083	0.465673	0.089321
	N275	N	0.825465	0.540822	0.918617
	O276	O	0.500529	0.508483	0.560649
	H277	H	0.494045	0.502322	0.564098
	H278	H	0.495643	0.514908	0.556194
	O279	O	0.422051	0.589505	0.539846
	H280	H	0.425615	0.606111	0.542119
	H281	H	0.421626	0.580341	0.544969
	O282	O	1.021596	1.056006	-0.011948
	H283	H	1.027507	1.058714	-0.002768
	H284	H	1.023015	1.050080	-0.006637
	O285	O	0.980088	0.068232	0.990379
	H286	H	0.963818	0.074265	0.993853
	H287	H	0.983272	0.072965	0.986548
	O288	O	0.436238	0.428434	0.486483
	H289	H	0.443596	0.422371	0.495046
	H290	H	0.432877	0.430439	0.490142
	O291	O	0.516864	0.474611	0.430687
	H292	H	0.514122	0.471007	0.423863
	H293	H	0.521511	0.479523	0.417085
	O294	O	0.401097	0.435111	0.467857
	H295	H	0.394552	0.439008	0.467584
	H296	H	0.395454	0.432359	0.467019
	O297	O	0.046077	-0.055183	1.028037
	H298	H	0.042322	-0.040769	1.006427
	H299	H	0.051648	-0.058291	1.023495
	O300	O	-0.076168	-0.047967	0.086962
	H301	H	-0.075642	-0.055853	0.098585
	H302	H	-0.079837	-0.056867	0.088757
	O303	O	1.031066	1.127880	0.060079
	H304	H	1.032380	1.123743	0.056998
	H305	H	1.041278	1.135819	0.071929
	O306	O	0.105474	1.080304	0.881054
	H307	H	0.107673	1.081211	0.894437
	H308	H	0.114093	1.085367	0.873586
	O309	O	0.578359	0.433112	0.547960
	H310	H	0.569349	0.436144	0.538748
	H311	H	0.582365	0.436641	0.537255
	O312	O	-0.035573	-0.038483	0.062172
	H313	H	-0.035965	-0.040961	0.071252
	H314	H	-0.044429	-0.037109	0.063981
	O315	O	1.039222	0.139769	-0.014455
	H316	H	1.045715	0.135475	-0.003913
	H317	H	1.036104	0.129907	-0.021591
	O318	O	0.961139	1.072227	0.898636
	H319	H	0.953609	1.073505	0.894477
	H320	H	0.964246	1.072506	0.903726
	O321	O	-0.068038	0.057134	1.010750
	H322	H	-0.070759	0.058113	1.008473
	H323	H	-0.055410	0.054716	1.011385
	O324	O	0.560062	0.549626	0.397887
	H325	H	0.563787	0.561083	0.381994
	H326	H	0.558702	0.544163	0.408243
	O327	O	0.053968	0.025699	0.072928
	H328	H	0.056931	0.026541	0.064262
	H329	H	0.040892	0.024827	0.081769
	O330	O	0.435532	0.457849	0.490168
	H331	H	0.435283	0.456622	0.506133
	H332	H	0.426302	0.441133	0.495812
	O333	O	0.116158	0.891386	0.911253
	H334	H	0.129665	0.901655	0.909472
	H335	H	0.109251	0.887778	0.901522
	O336	O	0.006685	0.025254	-0.062481
	H337	H	0.006555	0.031621	-0.055731
	H338	H	-0.003440	0.029872	-0.065112
	O339	O	0.602899	0.498044	0.489842
	H340	H	0.608338	0.501584	0.489792
	H341	H	0.602211	0.503903	0.489114
	O342	O	1.169709	0.991402	1.039957
	H343	H	1.163306	0.980104	1.024981
	H344	H	1.172651	0.987556	1.036183
	O345	O	0.958227	0.961308	0.058942
	H346	H	0.951040	0.963558	0.055811
	H347	H	0.962419	0.964848	0.061946
	O348	O	0.534803	0.578648	0.493039
	H349	H	0.536368	0.577432	0.494566
	H350	H	0.535383	0.573997	0.487953
	O351	O	0.487816	0.594280	0.575147
	H352	H	0.492030	0.602292	0.576500
	H353	H	0.494745	0.599077	0.576134
	O354	O	0.414274	0.455393	0.485587
	H355	H	0.403687	0.439612	0.492621
	H356	H	0.412765	0.466529	0.488001
	O357	O	0.884882	0.002215	1.082693
	H358	H	0.887022	-0.003736	1.079660
	H359	H	0.877040	0.002576	1.080666
	O360	O	0.471318	0.503041	0.629156
	H361	H	0.483766	0.500487	0.622949
	H362	H	0.483971	0.487899	0.636239
	O363	O	0.514620	0.573188	0.456884
	H364	H	0.509456	0.568690	0.451540
	H365	H	0.510785	0.574799	0.452191
	O366	O	0.901584	1.105756	0.884215
	H367	H	0.881569	1.121029	0.891486
	H368	H	0.908808	1.104169	0.892855
	O369	O	1.010121	-0.115548	1.098169
	H370	H	1.010954	-0.109754	1.094023
	H371	H	1.008049	-0.122866	1.091273
	O372	O	-0.027471	-0.053531	-0.110654
	H373	H	-0.024890	-0.046936	-0.115036
	H374	H	-0.028443	-0.044569	-0.115475
	O375	O	1.001490	-0.115924	-0.010570
	H376	H	0.994050	-0.121307	-0.016756
	H377	H	1.011590	-0.134079	-0.007202
	O378	O	0.575369	0.427130	0.437297
	H379	H	0.571581	0.434418	0.440015
	H380	H	0.568107	0.433839	0.436153
	O381	O	0.632753	0.450878	0.469255
	H382	H	0.633954	0.447094	0.470949
	H383	H	0.626511	0.440996	0.463149
