data_Molecule from HDF5

_cell_length_a		16.073302
_cell_length_b		16.444022
_cell_length_c		16.218499
_cell_angle_alpha	90.158717
_cell_angle_beta	89.664469
_cell_angle_gamma	90.035382
_symmetry_space_group_name_H-M	'P 1'
_symmetry_Int_Tables_number		1

loop_
	_symmetry_equiv_pos_as_xyz
	x,y,z

loop_
	_atom_site_label
	_atom_site_type_symbol
	_atom_site_fract_x
	_atom_site_fract_y
	_atom_site_fract_z
	H0	H	0.406055	0.840193	0.705015
	H1	H	0.606834	0.164130	0.704254
	H2	H	0.608536	0.840760	0.270389
	H3	H	0.409480	0.165200	0.274012
	H4	H	0.719481	0.406869	0.823106
	H5	H	0.716519	0.598490	0.154102
	H6	H	0.297374	0.596309	0.822202
	H7	H	0.292305	0.405271	0.152671
	H8	H	0.842744	0.717106	0.389012
	H9	H	0.171506	0.718551	0.589382
	H10	H	0.843201	0.286145	0.591437
	H11	H	0.171727	0.286721	0.384565
	H12	H	0.841701	0.406461	0.701161
	H13	H	0.173761	0.600146	0.698907
	H14	H	0.840189	0.597767	0.278692
	H15	H	0.171915	0.404987	0.272776
	H16	H	0.404967	0.719149	0.825431
	H17	H	0.608413	0.719970	0.150903
	H18	H	0.610557	0.284955	0.824801
	H19	H	0.403779	0.286288	0.151482
	H20	H	0.721941	0.838840	0.389798
	H21	H	0.720947	0.165819	0.584978
	H22	H	0.291480	0.839278	0.586091
	H23	H	0.293099	0.165271	0.391876
	H24	H	0.906360	0.339824	0.203924
	H25	H	0.105781	0.664881	0.204495
	H26	H	0.106669	0.340472	0.770573
	H27	H	0.908275	0.665324	0.772701
	H28	H	0.219959	0.905769	0.323575
	H29	H	0.217550	0.099179	0.653697
	H30	H	0.798313	0.095693	0.322606
	H31	H	0.792438	0.904807	0.653093
	H32	H	0.342307	0.217321	0.888059
	H33	H	0.671102	0.218280	0.087884
	H34	H	0.342098	0.786653	0.091077
	H35	H	0.671441	0.786762	0.886826
	H36	H	0.341624	0.905181	0.202790
	H37	H	0.673942	0.099559	0.198401
	H38	H	0.339955	0.098194	0.777380
	H39	H	0.672230	0.904148	0.773674
	H40	H	0.905265	0.218310	0.325463
	H41	H	0.109403	0.220500	0.650140
	H42	H	0.111289	0.784441	0.325519
	H43	H	0.904509	0.785596	0.651411
	H44	H	0.220994	0.339287	0.888475
	H45	H	0.221166	0.665487	0.085007
	H46	H	0.792382	0.338871	0.084487
	H47	H	0.792920	0.666191	0.892117
	H48	H	0.412768	0.119279	0.588172
	H49	H	0.601826	0.884427	0.587392
	H50	H	0.595373	0.115359	0.395359
	H51	H	0.414054	0.884361	0.385644
	H52	H	0.598847	0.403790	0.106951
	H53	H	0.597840	0.590324	0.873431
	H54	H	0.418435	0.597340	0.103888
	H55	H	0.399974	0.407361	0.866171
	H56	H	0.126451	0.602417	0.400148
	H57	H	0.887838	0.599287	0.579229
	H58	H	0.123041	0.418800	0.578171
	H59	H	0.891660	0.410664	0.406941
	H60	H	0.129127	0.405219	0.585968
	H61	H	0.891926	0.592280	0.575901
	H62	H	0.121152	0.588012	0.400023
	H63	H	0.888177	0.414556	0.389944
	H64	H	0.411661	0.598257	0.106906
	H65	H	0.595256	0.600770	0.870582
	H66	H	0.599933	0.410791	0.105433
	H67	H	0.422927	0.419956	0.876687
	H68	H	0.609017	0.118816	0.398297
	H69	H	0.591997	0.889842	0.580280
	H70	H	0.418630	0.115439	0.581503
	H71	H	0.421100	0.890062	0.397244
	H72	H	0.907400	0.618739	0.081246
	H73	H	0.098559	0.388087	0.079245
	H74	H	0.102422	0.622396	0.881699
	H75	H	0.921234	0.389929	0.893699
	H76	H	0.101017	0.908999	0.606467
	H77	H	0.088297	0.088304	0.377216
	H78	H	0.918945	0.101424	0.605512
	H79	H	0.912677	0.907339	0.369429
	H80	H	0.626044	0.098681	0.897295
	H81	H	0.387357	0.101605	0.077090
	H82	H	0.626091	0.902740	0.075958
	H83	H	0.390968	0.905956	0.905648
	H84	H	0.622238	0.913422	0.073450
	H85	H	0.391910	0.088703	0.079473
	H86	H	0.622940	0.092722	0.898938
	H87	H	0.389919	0.915747	0.895631
	H88	H	0.909837	0.097115	0.607923
	H89	H	0.097882	0.109996	0.366952
	H90	H	0.095146	0.910998	0.604639
	H91	H	0.918871	0.909946	0.373192
	H92	H	0.091337	0.614146	0.897328
	H93	H	0.100001	0.387067	0.081221
	H94	H	0.912025	0.620016	0.088304
	H95	H	0.909086	0.388269	0.899462
	H96	H	0.409434	0.117740	0.579255
	H97	H	0.603578	0.888451	0.574184
	H98	H	0.602495	0.120307	0.385050
	H99	H	0.406719	0.886554	0.398494
	H100	H	0.592719	0.407969	0.103822
	H101	H	0.604897	0.597577	0.869296
	H102	H	0.414009	0.592118	0.104279
	H103	H	0.424084	0.393679	0.869076
	H104	H	0.128121	0.593836	0.387693
	H105	H	0.888682	0.592448	0.584361
	H106	H	0.125365	0.404745	0.569718
	H107	H	0.885357	0.397922	0.395680
	H108	H	0.915424	0.615957	0.081479
	H109	H	0.096960	0.386508	0.081829
	H110	H	0.111597	0.618525	0.899556
	H111	H	0.911120	0.384445	0.887185
	H112	H	0.096106	0.905162	0.605724
	H113	H	0.113377	0.089727	0.368217
	H114	H	0.918033	0.091852	0.603489
	H115	H	0.918285	0.903278	0.370085
	H116	H	0.625342	0.093175	0.892787
	H117	H	0.386280	0.096412	0.089488
	H118	H	0.626638	0.910959	0.083821
	H119	H	0.384847	0.902882	0.892192
	C120	C	0.384126	0.010384	0.611160
	C121	C	0.628627	0.994426	0.609461
	C122	C	0.631082	0.010586	0.364644
	C123	C	0.385440	0.994120	0.366245
	C124	C	0.627370	0.380045	-0.003308
	C125	C	0.627608	0.624283	0.979743
	C126	C	0.385652	0.623925	-0.003481
	C127	C	0.385283	0.379438	0.979170
	C128	C	0.015822	0.622855	0.367835
	C129	C	0.998661	0.623894	0.609156
	C130	C	0.016117	0.381574	0.607999
	C131	C	0.997870	0.380006	0.366964
	C132	C	0.883546	0.510612	0.111201
	C133	C	0.127648	0.494768	0.109316
	C134	C	0.129882	0.510829	0.864456
	C135	C	0.884632	0.494963	0.865699
	C136	C	0.127648	0.880221	0.496938
	C137	C	0.128313	0.124445	0.479357
	C138	C	0.886866	0.124105	0.496949
	C139	C	0.886159	0.879449	0.479705
	C140	C	0.515240	0.123089	0.867646
	C141	C	0.498326	0.123645	0.109435
	C142	C	0.515656	0.880776	0.108812
	C143	C	0.497843	0.880056	0.867506
	C144	C	0.386029	0.888255	0.666424
	C145	C	0.626836	0.116105	0.665651
	C146	C	0.628300	0.888745	0.309310
	C147	C	0.388542	0.116726	0.312011
	C148	C	0.682652	0.384756	0.872617
	C149	C	0.680349	0.619989	0.104326
	C150	C	0.332580	0.619111	0.872236
	C151	C	0.329558	0.383806	0.103141
	C152	C	0.891487	0.678554	0.369651
	C153	C	0.122677	0.679716	0.607927
	C154	C	0.892285	0.325364	0.609181
	C155	C	0.122515	0.325431	0.366455
	C156	C	0.891244	0.385145	0.663727
	C157	C	0.123696	0.621262	0.662966
	C158	C	0.890187	0.619375	0.314753
	C159	C	0.122541	0.383812	0.310547
	C160	C	0.386374	0.679782	0.873758
	C161	C	0.626591	0.680398	0.102775
	C162	C	0.628817	0.323922	0.873666
	C163	C	0.385055	0.324765	0.102689
	C164	C	0.685104	0.888076	0.368467
	C165	C	0.683814	0.116829	0.606069
	C166	C	0.328667	0.888097	0.607632
	C167	C	0.330983	0.116707	0.370776
	C168	C	0.885754	0.388227	0.165902
	C169	C	0.125711	0.616509	0.165664
	C170	C	0.127291	0.388917	0.808847
	C171	C	0.887571	0.617144	0.810812
	C172	C	0.182781	0.884084	0.372910
	C173	C	0.181751	0.120823	0.603756
	C174	C	0.833864	0.118421	0.372428
	C175	C	0.830074	0.883478	0.603669
	C176	C	0.390989	0.178762	0.868689
	C177	C	0.622424	0.179389	0.107096
	C178	C	0.391253	0.825298	0.109376
	C179	C	0.622181	0.824870	0.867510
	C180	C	0.391185	0.884119	0.165210
	C181	C	0.623890	0.120431	0.161916
	C182	C	0.389961	0.119456	0.813927
	C183	C	0.622831	0.883665	0.811846
	C184	C	0.887023	0.179440	0.373998
	C185	C	0.127897	0.181132	0.602009
	C186	C	0.128886	0.823678	0.374185
	C187	C	0.885856	0.824185	0.602892
	C188	C	0.183958	0.388279	0.867577
	C189	C	0.183120	0.616984	0.106224
	C190	C	0.829165	0.387703	0.106518
	C191	C	0.830208	0.617383	0.870207
	C192	C	0.406887	0.095385	0.589448
	C193	C	0.605613	0.909405	0.587254
	C194	C	0.608969	0.096147	0.386589
	C195	C	0.407483	0.909004	0.387377
	C196	C	0.604068	0.401371	0.083185
	C197	C	0.605596	0.602806	0.893520
	C198	C	0.408047	0.602312	0.082769
	C199	C	0.408762	0.400670	0.893009
	C200	C	0.102618	0.601107	0.389320
	C201	C	0.911975	0.601264	0.586675
	C202	C	0.103302	0.403252	0.584837
	C203	C	0.910985	0.401304	0.390451
	C204	C	0.905314	0.596067	0.089967
	C205	C	0.105196	0.409391	0.087119
	C206	C	0.108107	0.596238	0.886392
	C207	C	0.907045	0.409718	0.887118
	C208	C	0.104122	0.901978	0.583246
	C209	C	0.106438	0.102342	0.393076
	C210	C	0.909067	0.103037	0.583329
	C211	C	0.909589	0.900719	0.393330
	C212	C	0.602248	0.101275	0.889784
	C213	C	0.411132	0.101923	0.088326
	C214	C	0.602391	0.902701	0.084852
	C215	C	0.410988	0.901887	0.890915
	Zn216	Zn	0.506694	0.002123	0.740164
	Zn217	Zn	0.508024	0.002873	0.236217
	Zn218	Zn	0.754754	0.502612	-0.011046
	Zn219	Zn	0.258188	0.502094	-0.013015
	Zn220	Zn	0.007440	0.750987	0.488541
	Zn221	Zn	0.007511	0.252659	0.488008
	Zn222	Zn	0.007661	0.503325	0.735662
	Zn223	Zn	0.005475	0.502159	0.240071
	Zn224	Zn	0.506729	0.752553	-0.011611
	Zn225	Zn	0.506309	0.251180	-0.011978
	Zn226	Zn	0.759290	0.002167	0.487954
	Zn227	Zn	0.255037	0.002045	0.488612
	N228	N	0.419746	0.965150	0.668818
	N229	N	0.593199	0.039154	0.667810
	N230	N	0.595585	0.966073	0.306572
	N231	N	0.421763	0.039591	0.309025
	N232	N	0.681875	0.418885	0.950140
	N233	N	0.681139	0.585788	0.026907
	N234	N	0.331914	0.585132	0.949614
	N235	N	0.329516	0.417087	0.025400
	N236	N	0.970396	0.680952	0.402010
	N237	N	0.044030	0.681412	0.575147
	N238	N	0.970916	0.323168	0.575138
	N239	N	0.043960	0.322710	0.400681
	N240	N	0.969444	0.419298	0.663260
	N241	N	0.045503	0.587077	0.663732
	N242	N	0.968456	0.585491	0.313433
	N243	N	0.044089	0.417042	0.310793
	N244	N	0.418511	0.683011	0.952202
	N245	N	0.594460	0.683119	0.024424
	N246	N	0.594832	0.320880	0.951883
	N247	N	0.418968	0.321856	0.024554
	N248	N	0.686656	0.964899	0.402263
	N249	N	0.684996	0.039960	0.571967
	N250	N	0.327417	0.964850	0.574020
	N251	N	0.328953	0.039648	0.403841
	N252	N	0.918570	0.465579	0.169006
	N253	N	0.092153	0.539442	0.167676
	N254	N	0.094158	0.466081	0.806943
	N255	N	0.920443	0.539843	0.807567
	N256	N	0.182344	0.918420	0.450230
	N257	N	0.182220	0.086146	0.526411
	N258	N	0.833479	0.084501	0.449889
	N259	N	0.830291	0.917021	0.526050
	N260	N	0.469665	0.180741	0.901823
	N261	N	0.543347	0.181547	0.075149
	N262	N	0.469719	0.822955	0.075167
	N263	N	0.543528	0.822741	0.901489
	N264	N	0.469504	0.917860	0.165032
	N265	N	0.545697	0.086572	0.163565
	N266	N	0.468241	0.085429	0.813285
	N267	N	0.544512	0.917346	0.811652
	N268	N	0.919286	0.182923	0.452448
	N269	N	0.095273	0.183224	0.523786
	N270	N	0.095283	0.821132	0.452496
	N271	N	0.920004	0.821602	0.524858
	N272	N	0.185860	0.465158	0.901351
	N273	N	0.184435	0.540242	0.071889
	N274	N	0.827566	0.464666	0.073274
	N275	N	0.828066	0.540391	0.903350
	O276	O	1.040694	1.003207	-0.048557
	H277	H	1.047221	0.993965	-0.060099
	H278	H	1.031228	1.001827	-0.047273
	O279	O	0.036185	0.036087	1.011533
	H280	H	0.046768	0.035538	1.019064
	H281	H	0.037099	0.037438	1.002771
	O282	O	-0.057898	-0.043867	0.007414
	H283	H	-0.057798	-0.045600	0.008513
	H284	H	-0.048828	-0.039853	0.011185
	O285	O	0.498924	0.509981	0.557269
	H286	H	0.508145	0.506589	0.558470
	H287	H	0.494400	0.510804	0.553848
	O288	O	-0.052364	-0.047328	0.000933
	H289	H	-0.047868	-0.050130	0.005786
	H290	H	-0.058130	-0.050135	0.010984
	O291	O	0.065502	1.001384	-0.003922
	H292	H	0.064025	0.997102	-0.011728
	H293	H	0.062969	0.992992	0.000885
	O294	O	0.066125	0.976554	0.054957
	H295	H	0.073166	0.974840	0.052242
	H296	H	0.071194	0.980643	0.064651
	O297	O	0.449138	0.565632	0.528604
	H298	H	0.458074	0.560935	0.515752
	H299	H	0.452689	0.562318	0.539290
	O300	O	0.540472	0.508900	0.425845
	H301	H	0.537899	0.509888	0.432294
	H302	H	0.531735	0.510517	0.418359
	O303	O	0.993736	-0.064757	0.973753
	H304	H	0.985859	-0.063377	0.967338
	H305	H	0.986218	-0.066748	0.972019
	O306	O	0.105966	1.028227	1.011151
	H307	H	0.101091	1.023956	1.002703
	H308	H	0.104515	1.028499	1.006126
	O309	O	-0.303715	0.705377	1.249371
	H310	H	-0.307423	0.697486	1.247202
	H311	H	-0.306535	0.713021	1.246111
	O312	O	-0.037828	0.013259	1.016753
	H313	H	-0.038032	0.019338	1.014428
	H314	H	-0.035584	0.008012	1.026503
	O315	O	0.571269	0.469872	0.525901
	H316	H	0.573824	0.467299	0.518051
	H317	H	0.571234	0.469212	0.524439
	O318	O	0.020283	0.023844	1.008678
	H319	H	0.024479	0.025976	1.008244
	H320	H	0.026185	0.025380	1.013297
	O321	O	0.589294	0.598857	0.572160
	H322	H	0.590598	0.600698	0.579649
	H323	H	0.592783	0.598130	0.561981
	O324	O	0.450812	-0.454907	1.477772
	H325	H	0.446250	-0.453581	1.487876
	H326	H	0.447751	-0.448961	1.478188
	O327	O	1.021311	1.010772	1.015225
	H328	H	1.022411	1.014008	1.011006
	H329	H	1.016912	1.018998	1.019954
	O330	O	0.543629	0.567154	0.533264
	H331	H	0.550963	0.581170	0.526547
	H332	H	0.553558	0.573717	0.543761
	O333	O	0.447909	0.452225	0.512597
	H334	H	0.441340	0.445880	0.515668
	H335	H	0.447869	0.456229	0.504233
	O336	O	0.547992	0.468667	0.410317
	H337	H	0.547584	0.464390	0.412799
	H338	H	0.542659	0.471336	0.406205
	O339	O	0.405017	0.539167	0.495030
	H340	H	0.417662	0.539817	0.500701
	H341	H	0.396903	0.542937	0.495551
	O342	O	0.524967	0.513513	0.511445
	H343	H	0.530794	0.513183	0.510422
	H344	H	0.519943	0.513381	0.515754
	O345	O	0.509558	0.448546	0.553089
	H346	H	0.508751	0.445157	0.564175
	H347	H	0.507678	0.442667	0.549905
