data_Molecule from HDF5

_cell_length_a		16.267972
_cell_length_b		16.291786
_cell_length_c		16.191797
_cell_angle_alpha	89.791130
_cell_angle_beta	90.199152
_cell_angle_gamma	90.657807
_symmetry_space_group_name_H-M	'P 1'
_symmetry_Int_Tables_number		1

loop_
	_symmetry_equiv_pos_as_xyz
	x,y,z

loop_
	_atom_site_label
	_atom_site_type_symbol
	_atom_site_fract_x
	_atom_site_fract_y
	_atom_site_fract_z
	H0	H	0.401978	0.839923	0.715315
	H1	H	0.605620	0.166768	0.713441
	H2	H	0.598640	0.839205	0.285254
	H3	H	0.404828	0.165335	0.282159
	H4	H	0.712560	0.408973	0.834400
	H5	H	0.718878	0.604957	0.163325
	H6	H	0.285034	0.604911	0.836249
	H7	H	0.285842	0.402199	0.163821
	H8	H	0.836989	0.715513	0.398325
	H9	H	0.163467	0.720354	0.601031
	H10	H	0.838648	0.281553	0.600020
	H11	H	0.164445	0.288184	0.398026
	H12	H	0.836409	0.402047	0.712465
	H13	H	0.164956	0.602626	0.714430
	H14	H	0.837509	0.599230	0.283829
	H15	H	0.164394	0.405860	0.285395
	H16	H	0.404069	0.718236	0.835140
	H17	H	0.602796	0.718448	0.164065
	H18	H	0.601033	0.290218	0.835779
	H19	H	0.400682	0.285572	0.162746
	H20	H	0.712115	0.837846	0.401540
	H21	H	0.722762	0.164414	0.598720
	H22	H	0.284934	0.838889	0.599341
	H23	H	0.285844	0.164016	0.394681
	H24	H	0.899303	0.338895	0.214921
	H25	H	0.101922	0.666055	0.216201
	H26	H	0.098140	0.338626	0.785728
	H27	H	0.904591	0.666287	0.783818
	H28	H	0.214390	0.902083	0.334027
	H29	H	0.220169	0.102455	0.662186
	H30	H	0.787406	0.099725	0.334351
	H31	H	0.785350	0.899507	0.662781
	H32	H	0.339365	0.219433	0.895561
	H33	H	0.664385	0.223407	0.100832
	H34	H	0.341015	0.784212	0.101087
	H35	H	0.666762	0.791350	0.901103
	H36	H	0.340072	0.901245	0.212969
	H37	H	0.666705	0.103763	0.213472
	H38	H	0.340398	0.103931	0.780103
	H39	H	0.666807	0.907810	0.785895
	H40	H	0.899609	0.218087	0.335798
	H41	H	0.103598	0.217023	0.662639
	H42	H	0.097158	0.787432	0.334815
	H43	H	0.899920	0.784654	0.663382
	H44	H	0.217068	0.340237	0.899031
	H45	H	0.220631	0.666847	0.102270
	H46	H	0.782062	0.341052	0.100095
	H47	H	0.789698	0.668071	0.900325
	H48	H	0.407534	0.116166	0.577400
	H49	H	0.585386	0.888281	0.593952
	H50	H	0.598225	0.118931	0.410372
	H51	H	0.410908	0.886830	0.407137
	H52	H	0.589729	0.404442	0.118558
	H53	H	0.592844	0.607191	0.881366
	H54	H	0.417887	0.605191	0.118232
	H55	H	0.411453	0.407534	0.882380
	H56	H	0.114886	0.593336	0.413452
	H57	H	0.886586	0.590534	0.585058
	H58	H	0.120705	0.398436	0.592066
	H59	H	0.886279	0.411783	0.409438
	H60	H	0.112959	0.416391	0.583944
	H61	H	0.883280	0.588474	0.599189
	H62	H	0.117951	0.593709	0.403761
	H63	H	0.883393	0.406781	0.404027
	H64	H	0.399596	0.594141	0.119746
	H65	H	0.604514	0.598066	0.879577
	H66	H	0.600501	0.415082	0.118038
	H67	H	0.403560	0.412413	0.881722
	H68	H	0.600255	0.120570	0.403394
	H69	H	0.596153	0.887228	0.586261
	H70	H	0.405310	0.122406	0.596657
	H71	H	0.403073	0.885463	0.408743
	H72	H	0.903099	0.621480	0.092177
	H73	H	0.090474	0.387273	0.094080
	H74	H	0.091942	0.618270	0.905943
	H75	H	0.906177	0.390255	0.918677
	H76	H	0.082012	0.915225	0.610672
	H77	H	0.088954	0.103483	0.380664
	H78	H	0.909031	0.083536	0.614152
	H79	H	0.906822	0.907058	0.382578
	H80	H	0.619476	0.094026	0.900797
	H81	H	0.384513	0.097161	0.092653
	H82	H	0.620730	0.899310	0.080499
	H83	H	0.383857	0.906538	0.902654
	H84	H	0.614250	0.927326	0.087722
	H85	H	0.388295	0.094436	0.084377
	H86	H	0.621100	0.106132	0.908241
	H87	H	0.387967	0.907716	0.912550
	H88	H	0.919675	0.091289	0.612511
	H89	H	0.103073	0.094500	0.379289
	H90	H	0.093963	0.899186	0.620025
	H91	H	0.906301	0.906130	0.380366
	H92	H	0.092905	0.617035	0.910135
	H93	H	0.091155	0.389883	0.089444
	H94	H	0.912804	0.620398	0.099451
	H95	H	0.893627	0.382823	0.903836
	H96	H	0.423238	0.114613	0.590498
	H97	H	0.596800	0.883303	0.599230
	H98	H	0.593038	0.119144	0.405657
	H99	H	0.406123	0.883431	0.401368
	H100	H	0.586978	0.418164	0.112378
	H101	H	0.591184	0.592713	0.884759
	H102	H	0.417196	0.584572	0.111531
	H103	H	0.410673	0.416781	0.885542
	H104	H	0.117864	0.602545	0.409752
	H105	H	0.880919	0.601511	0.592947
	H106	H	0.119166	0.415029	0.603986
	H107	H	0.884290	0.404815	0.411676
	H108	H	0.913551	0.616575	0.087974
	H109	H	0.095201	0.387130	0.091385
	H110	H	0.096371	0.619039	0.907329
	H111	H	0.913764	0.386119	0.899686
	H112	H	0.103445	0.918517	0.615099
	H113	H	0.089284	0.087577	0.385597
	H114	H	0.908808	0.097071	0.618033
	H115	H	0.905684	0.907355	0.381668
	H116	H	0.615281	0.095081	0.914599
	H117	H	0.386951	0.088308	0.092103
	H118	H	0.625029	0.908701	0.108100
	H119	H	0.388712	0.916658	0.906689
	C120	C	0.381429	0.010436	0.618981
	C121	C	0.624690	0.993973	0.621555
	C122	C	0.623881	0.011244	0.378049
	C123	C	0.379089	0.993060	0.375739
	C124	C	0.621564	0.384326	0.007948
	C125	C	0.624941	0.627223	0.990743
	C126	C	0.381521	0.624702	0.008183
	C127	C	0.379278	0.381673	0.991239
	C128	C	0.008953	0.623658	0.378917
	C129	C	0.992185	0.623570	0.621478
	C130	C	0.009647	0.379339	0.621669
	C131	C	0.992519	0.380221	0.378638
	C132	C	0.879314	0.511814	0.122068
	C133	C	0.123054	0.495292	0.122093
	C134	C	0.122428	0.510755	0.878229
	C135	C	0.878594	0.494830	0.878166
	C136	C	0.121422	0.881062	0.507048
	C137	C	0.124723	0.124480	0.489979
	C138	C	0.882134	0.120529	0.506884
	C139	C	0.877892	0.878109	0.490466
	C140	C	0.511010	0.126552	0.877210
	C141	C	0.494187	0.124422	0.120004
	C142	C	0.512217	0.880877	0.121358
	C143	C	0.494727	0.882535	0.878452
	C144	C	0.382127	0.888288	0.676371
	C145	C	0.625214	0.117306	0.676403
	C146	C	0.619864	0.888003	0.322916
	C147	C	0.383215	0.116105	0.319637
	C148	C	0.675924	0.387995	0.884085
	C149	C	0.680680	0.624674	0.114533
	C150	C	0.324052	0.624247	0.885107
	C151	C	0.323825	0.382401	0.114709
	C152	C	0.885853	0.677609	0.379263
	C153	C	0.115027	0.681066	0.620308
	C154	C	0.887010	0.321014	0.619985
	C155	C	0.115619	0.326118	0.379297
	C156	C	0.885788	0.381025	0.675592
	C157	C	0.115706	0.622590	0.677060
	C158	C	0.886210	0.619892	0.322230
	C159	C	0.115540	0.384637	0.323031
	C160	C	0.383296	0.680552	0.884570
	C161	C	0.622788	0.680913	0.114927
	C162	C	0.620303	0.328903	0.884485
	C163	C	0.380742	0.324139	0.114013
	C164	C	0.676195	0.887312	0.380893
	C165	C	0.683488	0.116228	0.619368
	C166	C	0.323974	0.887868	0.618546
	C167	C	0.324290	0.115621	0.375823
	C168	C	0.879708	0.388279	0.177310
	C169	C	0.122304	0.617704	0.178523
	C170	C	0.119278	0.387889	0.823035
	C171	C	0.883424	0.617657	0.821875
	C172	C	0.176296	0.882469	0.383256
	C173	C	0.182026	0.122756	0.613104
	C174	C	0.825316	0.119627	0.383656
	C175	C	0.822823	0.879478	0.613869
	C176	C	0.388250	0.181511	0.876424
	C177	C	0.616113	0.183706	0.120067
	C178	C	0.389614	0.823429	0.120145
	C179	C	0.617745	0.828584	0.880733
	C180	C	0.389099	0.881516	0.176130
	C181	C	0.617271	0.124023	0.175916
	C182	C	0.388723	0.124070	0.819168
	C183	C	0.617920	0.886612	0.823565
	C184	C	0.881591	0.178213	0.384280
	C185	C	0.123894	0.179551	0.613421
	C186	C	0.117994	0.825544	0.383577
	C187	C	0.880042	0.822445	0.614118
	C188	C	0.178248	0.388694	0.879703
	C189	C	0.181369	0.617751	0.121638
	C190	C	0.821016	0.389381	0.120452
	C191	C	0.826427	0.618645	0.880014
	C192	C	0.405143	0.095586	0.595082
	C193	C	0.600080	0.908448	0.599546
	C194	C	0.603364	0.097082	0.400032
	C195	C	0.400352	0.907446	0.398917
	C196	C	0.599033	0.406228	0.094046
	C197	C	0.602817	0.605620	0.904132
	C198	C	0.404626	0.601479	0.094249
	C199	C	0.401932	0.405245	0.905362
	C200	C	0.094865	0.602638	0.402138
	C201	C	0.905957	0.600316	0.599081
	C202	C	0.095198	0.403002	0.599648
	C203	C	0.906799	0.401419	0.401586
	C204	C	0.902992	0.597300	0.099895
	C205	C	0.099185	0.410087	0.098385
	C206	C	0.100264	0.596091	0.901088
	C207	C	0.898605	0.408680	0.900719
	C208	C	0.099542	0.904198	0.592944
	C209	C	0.101065	0.101887	0.404076
	C210	C	0.905715	0.097306	0.592712
	C211	C	0.899652	0.900390	0.404018
	C212	C	0.596309	0.104799	0.900968
	C213	C	0.408727	0.100448	0.096564
	C214	C	0.597882	0.904855	0.098593
	C215	C	0.409001	0.903955	0.900738
	Zn216	Zn	0.502630	0.004119	0.749418
	Zn217	Zn	0.503124	0.002485	0.248974
	Zn218	Zn	0.750457	0.504926	0.000050
	Zn219	Zn	0.251996	0.503613	0.000025
	Zn220	Zn	0.000033	0.751790	0.499787
	Zn221	Zn	0.002230	0.250783	0.498944
	Zn222	Zn	0.000442	0.501775	0.749754
	Zn223	Zn	0.001156	0.502182	0.250816
	Zn224	Zn	0.503570	0.753438	0.000076
	Zn225	Zn	0.501685	0.254216	-0.001151
	Zn226	Zn	0.752045	0.000770	0.498794
	Zn227	Zn	0.251254	0.001772	0.497811
	N228	N	0.416983	0.965616	0.677068
	N229	N	0.589127	0.040465	0.677632
	N230	N	0.587896	0.965888	0.320991
	N231	N	0.416485	0.038805	0.319196
	N232	N	0.676842	0.421564	0.962073
	N233	N	0.681977	0.591861	0.036335
	N234	N	0.323027	0.590113	0.962949
	N235	N	0.322829	0.417488	0.037307
	N236	N	0.963210	0.679883	0.414027
	N237	N	0.037148	0.681801	0.586841
	N238	N	0.965153	0.319597	0.587411
	N239	N	0.038158	0.323005	0.412807
	N240	N	0.962938	0.416332	0.677041
	N241	N	0.038268	0.587360	0.677845
	N242	N	0.963805	0.587303	0.321686
	N243	N	0.037958	0.417384	0.322308
	N244	N	0.418060	0.681055	0.962230
	N245	N	0.589217	0.682854	0.036961
	N246	N	0.587176	0.326437	0.962354
	N247	N	0.414336	0.323500	0.036040
	N248	N	0.679003	0.964843	0.414275
	N249	N	0.683203	0.038656	0.586010
	N250	N	0.323464	0.964935	0.583509
	N251	N	0.321433	0.038228	0.409774
	N252	N	0.915232	0.465305	0.178526
	N253	N	0.086701	0.540717	0.178739
	N254	N	0.085541	0.464907	0.821870
	N255	N	0.915130	0.539697	0.820634
	N256	N	0.178346	0.916608	0.460849
	N257	N	0.182745	0.089512	0.535164
	N258	N	0.825582	0.084427	0.460934
	N259	N	0.821432	0.913550	0.536088
	N260	N	0.465305	0.183369	0.911623
	N261	N	0.538457	0.183948	0.085832
	N262	N	0.467335	0.822754	0.086924
	N263	N	0.540151	0.826124	0.914347
	N264	N	0.466321	0.916905	0.176801
	N265	N	0.540421	0.088150	0.176291
	N266	N	0.465974	0.090588	0.819473
	N267	N	0.540503	0.919684	0.821991
	N268	N	0.916423	0.178873	0.461749
	N269	N	0.089271	0.180966	0.535764
	N270	N	0.084572	0.824616	0.461540
	N271	N	0.913594	0.821453	0.536339
	N272	N	0.180521	0.466192	0.913212
	N273	N	0.181861	0.540537	0.087148
	N274	N	0.820652	0.466998	0.086830
	N275	N	0.823289	0.541360	0.914353
	O276	O	0.381560	0.455959	0.488455
	H277	H	0.381643	0.459964	0.481996
	H278	H	0.376457	0.449200	0.482256
	O279	O	0.580977	0.504561	0.469239
	H280	H	0.589339	0.507171	0.465104
	H281	H	0.578346	0.498439	0.477935
	O282	O	1.067742	0.943808	0.013957
	H283	H	1.062604	0.945181	0.015033
	H284	H	1.056661	0.939082	0.007868
	O285	O	0.991250	0.028745	0.953390
	H286	H	0.996366	0.033161	0.961045
	H287	H	0.996065	0.032047	0.960530
	O288	O	0.509126	0.493878	0.569516
	H289	H	0.512395	0.496114	0.569084
	H290	H	0.504730	0.492359	0.576750
	O291	O	0.422550	0.419975	0.573463
	H292	H	0.420665	0.423166	0.558646
	H293	H	0.429187	0.428971	0.579731
	O294	O	0.404417	0.528740	0.508069
	H295	H	0.400214	0.527012	0.513462
	H296	H	0.404308	0.540861	0.507975
	O297	O	0.036582	0.017870	1.019638
	H298	H	0.017939	0.018977	1.017078
	H299	H	0.030599	0.011168	1.025591
	O300	O	0.249414	0.196224	0.229621
	H301	H	0.255745	0.188301	0.227383
	H302	H	0.249351	0.204448	0.240634
	O303	O	0.920341	1.029316	-0.132054
	H304	H	0.917699	1.027699	-0.149186
	H305	H	0.905533	1.034128	-0.116445
	O306	O	-0.044508	1.076355	1.062804
	H307	H	-0.051802	1.063571	1.081003
	H308	H	-0.048110	1.076470	1.068418
	O309	O	0.481779	0.466717	0.491154
	H310	H	0.489620	0.455060	0.494100
	H311	H	0.469401	0.460321	0.495341
	O312	O	0.064083	-0.021671	-0.107571
	H313	H	0.070820	-0.016118	-0.113359
	H314	H	0.046298	-0.023395	-0.099211
	O315	O	1.060968	0.027442	0.005566
	H316	H	1.074920	0.036817	0.003954
	H317	H	1.068306	0.036074	0.012533
	O318	O	1.099604	1.053480	1.011627
	H319	H	1.099455	1.049265	0.990913
	H320	H	1.097308	1.062751	1.011753
	O321	O	0.049853	-0.064411	1.119632
	H322	H	0.067392	-0.062206	1.119890
	H323	H	0.061500	-0.067128	1.112271
	O324	O	0.469892	0.547004	0.406606
	H325	H	0.465212	0.550938	0.398462
	H326	H	0.467296	0.543336	0.410278
	O327	O	0.053413	-0.012038	-0.029953
	H328	H	0.054060	-0.026397	-0.032119
	H329	H	0.052685	-0.009630	-0.039084
	O330	O	0.551692	0.580801	0.603771
	H331	H	0.550057	0.580351	0.613401
	H332	H	0.549879	0.571840	0.607836
	O333	O	-0.009331	0.997983	0.948177
	H334	H	-0.013738	0.998782	0.956098
	H335	H	-0.009675	1.000202	0.955889
	O336	O	0.008315	-0.007130	0.117398
	H337	H	0.011912	-0.014034	0.117494
	H338	H	0.027102	-0.000606	0.124228
	O339	O	0.467513	0.397881	0.583325
	H340	H	0.460114	0.393697	0.592611
	H341	H	0.451990	0.400651	0.577889
	O342	O	1.058801	0.980136	0.928332
	H343	H	1.057483	0.977398	0.922072
	H344	H	1.057599	0.971993	0.900560
	O345	O	1.133614	1.100723	0.102776
	H346	H	1.141195	1.095921	0.102357
	H347	H	1.139050	1.103892	0.096884
	O348	O	0.596424	0.556314	0.562271
	H349	H	0.588739	0.555878	0.573804
	H350	H	0.596803	0.552027	0.559245
	O351	O	0.462856	0.464156	0.510950
	H352	H	0.472829	0.450733	0.510726
	H353	H	0.466859	0.462738	0.509752
	O354	O	0.409964	0.436567	0.484938
	H355	H	0.415750	0.442210	0.487838
	H356	H	0.407894	0.445698	0.465087
	O357	O	0.905206	0.024733	1.072947
	H358	H	0.915137	0.015410	1.076612
	H359	H	0.913939	0.028292	1.077924
	O360	O	0.504777	0.454632	0.560896
	H361	H	0.515534	0.443996	0.561352
	H362	H	0.503357	0.462533	0.556594
	O363	O	0.631816	0.563542	0.434737
	H364	H	0.636888	0.567366	0.448143
	H365	H	0.644454	0.553876	0.429074
	O366	O	0.899199	1.035783	0.936525
	H367	H	0.899893	1.047130	0.936275
	H368	H	0.893394	1.021292	0.938177
	O369	O	0.944623	-0.066657	0.979034
	H370	H	0.944901	-0.067911	0.975269
	H371	H	0.946359	-0.070696	0.995317
	O372	O	0.091008	0.078056	-0.074172
	H373	H	0.087338	0.093597	-0.079018
	H374	H	0.077989	0.079917	-0.071366
	O375	O	1.003957	-0.023114	0.119069
	H376	H	1.001960	-0.027852	0.126527
	H377	H	1.009462	-0.017657	0.125879
	O378	O	0.383178	0.423843	0.447493
	H379	H	0.387544	0.417767	0.443104
	H380	H	0.378357	0.416507	0.444418
	O381	O	0.500935	0.522578	0.538991
	H382	H	0.492115	0.522680	0.535979
	H383	H	0.496777	0.534756	0.548128
