data_Molecule from HDF5

_cell_length_a		16.282865
_cell_length_b		16.301600
_cell_length_c		16.493768
_cell_angle_alpha	90.054307
_cell_angle_beta	89.948459
_cell_angle_gamma	90.063344
_symmetry_space_group_name_H-M	'P 1'
_symmetry_Int_Tables_number		1

loop_
	_symmetry_equiv_pos_as_xyz
	x,y,z

loop_
	_atom_site_label
	_atom_site_type_symbol
	_atom_site_fract_x
	_atom_site_fract_y
	_atom_site_fract_z
	H0	H	0.380030	0.856308	0.722365
	H1	H	0.588737	0.177736	0.725149
	H2	H	0.590963	0.856555	0.285209
	H3	H	0.381668	0.177082	0.283936
	H4	H	0.706800	0.411620	0.846598
	H5	H	0.703686	0.620305	0.164848
	H6	H	0.266820	0.618045	0.843619
	H7	H	0.264140	0.414202	0.163550
	H8	H	0.822451	0.735907	0.406375
	H9	H	0.147345	0.735532	0.606502
	H10	H	0.823543	0.300569	0.608404
	H11	H	0.145903	0.301694	0.403791
	H12	H	0.823578	0.416859	0.723392
	H13	H	0.144768	0.624190	0.724994
	H14	H	0.823783	0.625312	0.285272
	H15	H	0.142272	0.410505	0.281603
	H16	H	0.381975	0.736202	0.843860
	H17	H	0.590807	0.740211	0.163174
	H18	H	0.588110	0.297167	0.844649
	H19	H	0.378717	0.295205	0.163021
	H20	H	0.705684	0.857448	0.402145
	H21	H	0.700942	0.180925	0.605933
	H22	H	0.264625	0.857176	0.605865
	H23	H	0.268219	0.179919	0.402143
	H24	H	0.875275	0.359174	0.228627
	H25	H	0.091108	0.677444	0.226982
	H26	H	0.087354	0.358566	0.784284
	H27	H	0.879431	0.680021	0.787224
	H28	H	0.206943	0.912903	0.345845
	H29	H	0.204671	0.121478	0.663569
	H30	H	0.763694	0.125452	0.345545
	H31	H	0.765073	0.915859	0.663817
	H32	H	0.323269	0.233834	0.900193
	H33	H	0.645730	0.236268	0.105645
	H34	H	0.322275	0.801511	0.102725
	H35	H	0.646363	0.797200	0.900485
	H36	H	0.324349	0.911350	0.223813
	H37	H	0.644987	0.123211	0.224101
	H38	H	0.324931	0.119283	0.784211
	H39	H	0.644509	0.907998	0.780969
	H40	H	0.880051	0.241466	0.346673
	H41	H	0.089000	0.238552	0.664328
	H42	H	0.093463	0.793891	0.347993
	H43	H	0.883393	0.802209	0.666029
	H44	H	0.199263	0.355722	0.903177
	H45	H	0.202916	0.679255	0.106949
	H46	H	0.767106	0.355466	0.106570
	H47	H	0.766352	0.679852	0.905883
	H48	H	0.394793	0.132550	0.596094
	H49	H	0.577634	0.903279	0.589721
	H50	H	0.591470	0.138427	0.412287
	H51	H	0.393021	0.902823	0.417060
	H52	H	0.570637	0.430374	0.114982
	H53	H	0.573306	0.609458	0.892021
	H54	H	0.389263	0.610778	0.119056
	H55	H	0.384059	0.428887	0.889666
	H56	H	0.096669	0.607397	0.421699
	H57	H	0.870004	0.607394	0.595988
	H58	H	0.099962	0.428874	0.596062
	H59	H	0.870770	0.432918	0.417924
	H60	H	0.099225	0.431333	0.595018
	H61	H	0.867310	0.610759	0.602219
	H62	H	0.097246	0.600506	0.411989
	H63	H	0.870730	0.431969	0.417009
	H64	H	0.393750	0.603092	0.115467
	H65	H	0.577701	0.605549	0.890918
	H66	H	0.570667	0.423074	0.117113
	H67	H	0.399030	0.428906	0.893533
	H68	H	0.563212	0.133581	0.398360
	H69	H	0.576891	0.901673	0.597540
	H70	H	0.398727	0.131508	0.596877
	H71	H	0.395238	0.901591	0.410652
	H72	H	0.893934	0.632239	0.096050
	H73	H	0.066797	0.403943	0.099913
	H74	H	0.079160	0.636599	0.908949
	H75	H	0.891914	0.400287	0.906717
	H76	H	0.066756	0.939433	0.611008
	H77	H	0.071678	0.111753	0.391560
	H78	H	0.896505	0.112413	0.617795
	H79	H	0.901105	0.927112	0.392850
	H80	H	0.597346	0.105169	0.920526
	H81	H	0.367976	0.110507	0.098776
	H82	H	0.601036	0.923853	0.095729
	H83	H	0.369774	0.927458	0.910779
	H84	H	0.598492	0.929298	0.090352
	H85	H	0.372271	0.106582	0.087335
	H86	H	0.598812	0.100153	0.911194
	H87	H	0.370140	0.924796	0.913490
	H88	H	0.891454	0.110819	0.618784
	H89	H	0.079072	0.113961	0.389508
	H90	H	0.070653	0.915752	0.620326
	H91	H	0.893629	0.926461	0.390696
	H92	H	0.068272	0.631708	0.912159
	H93	H	0.070986	0.406216	0.088635
	H94	H	0.897823	0.631099	0.096131
	H95	H	0.903293	0.406323	0.913247
	H96	H	0.397014	0.130767	0.593133
	H97	H	0.570850	0.904948	0.593584
	H98	H	0.567757	0.124961	0.428010
	H99	H	0.399413	0.904666	0.415557
	H100	H	0.577062	0.427129	0.118398
	H101	H	0.572914	0.603327	0.894120
	H102	H	0.398251	0.611055	0.116045
	H103	H	0.393128	0.415526	0.887750
	H104	H	0.101333	0.611310	0.411234
	H105	H	0.868226	0.614098	0.595621
	H106	H	0.100549	0.431248	0.597932
	H107	H	0.871072	0.431856	0.418090
	H108	H	0.895178	0.631064	0.092460
	H109	H	0.078163	0.401268	0.096195
	H110	H	0.076960	0.632674	0.920525
	H111	H	0.890904	0.404978	0.920391
	H112	H	0.089314	0.933328	0.621316
	H113	H	0.077627	0.106417	0.391771
	H114	H	0.894101	0.107303	0.616642
	H115	H	0.896880	0.932971	0.393464
	H116	H	0.602079	0.110344	0.912453
	H117	H	0.370612	0.097904	0.097084
	H118	H	0.599573	0.931355	0.097237
	H119	H	0.371247	0.928110	0.914412
	C120	C	0.364095	0.025897	0.625825
	C121	C	0.606086	1.009771	0.625278
	C122	C	0.606986	0.026196	0.382158
	C123	C	0.364113	1.009298	0.382857
	C124	C	0.605179	0.395205	0.012181
	C125	C	0.606089	0.638656	0.997039
	C126	C	0.363038	0.638701	0.011678
	C127	C	0.360708	0.393531	0.995781
	C128	C	-0.007310	0.639592	0.384049
	C129	C	0.975587	0.641308	0.627782
	C130	C	-0.006958	0.399132	0.626680
	C131	C	0.975704	0.398571	0.384722
	C132	C	0.862687	0.525970	0.126970
	C133	C	0.104418	0.509753	0.126053
	C134	C	0.105155	0.527190	0.883059
	C135	C	0.862993	0.509996	0.883581
	C136	C	0.108001	0.896726	0.513099
	C137	C	0.107176	0.141277	0.496223
	C138	C	0.862665	0.142009	0.512948
	C139	C	0.865293	0.898447	0.497328
	C140	C	0.493427	0.136424	0.883260
	C141	C	0.476445	0.137509	0.125099
	C142	C	0.493344	0.896249	0.125028
	C143	C	0.476233	0.894441	0.881442
	C144	C	0.361553	0.904716	0.683728
	C145	C	0.607481	0.129954	0.685190
	C146	C	0.609203	0.905142	0.324034
	C147	C	0.363075	0.129716	0.323972
	C148	C	0.666100	0.393225	0.893553
	C149	C	0.664522	0.639553	0.116954
	C150	C	0.305620	0.638026	0.891484
	C151	C	0.302707	0.394166	0.115520
	C152	C	0.871313	0.698123	0.385343
	C153	C	0.098033	0.697757	0.626585
	C154	C	0.871818	0.340136	0.627241
	C155	C	0.097098	0.340115	0.383852
	C156	C	0.871833	0.398010	0.684436
	C157	C	0.096844	0.642470	0.685808
	C158	C	0.871756	0.642809	0.325359
	C159	C	0.095321	0.394319	0.323250
	C160	C	0.363004	0.696819	0.891768
	C161	C	0.608310	0.699263	0.116007
	C162	C	0.607084	0.336136	0.892634
	C163	C	0.359778	0.334940	0.115117
	C164	C	0.666475	0.905553	0.382153
	C165	C	0.663005	0.131765	0.625376
	C166	C	0.304316	0.905197	0.625387
	C167	C	0.306546	0.131032	0.382676
	C168	C	0.858693	0.406551	0.187651
	C169	C	0.108088	0.629843	0.186270
	C170	C	0.105872	0.406295	0.824149
	C171	C	0.861245	0.631557	0.826322
	C172	C	0.167329	0.894570	0.393639
	C173	C	0.165703	0.141061	0.615826
	C174	C	0.803214	0.143914	0.393662
	C175	C	0.805361	0.897414	0.616563
	C176	C	0.371658	0.194816	0.881874
	C177	C	0.597450	0.197202	0.125289
	C178	C	0.371294	0.839279	0.123538
	C179	C	0.597627	0.835445	0.880559
	C180	C	0.372281	0.893970	0.183843
	C181	C	0.597022	0.140738	0.184196
	C182	C	0.372445	0.137743	0.824144
	C183	C	0.596801	0.890962	0.821332
	C184	C	0.861220	0.201910	0.394000
	C185	C	0.108079	0.199349	0.616235
	C186	C	0.110927	0.834904	0.394931
	C187	C	0.864305	0.840706	0.617632
	C188	C	0.161700	0.404973	0.883302
	C189	C	0.164059	0.630608	0.126620
	C190	C	0.804614	0.404587	0.127099
	C191	C	0.804727	0.631352	0.885252
	C192	C	0.389606	0.109821	0.602261
	C193	C	0.582051	0.925202	0.600761
	C194	C	0.581410	0.110449	0.405942
	C195	C	0.388798	0.924987	0.407311
	C196	C	0.579905	0.419739	0.095361
	C197	C	0.581734	0.613431	0.914128
	C198	C	0.386839	0.615032	0.095175
	C199	C	0.384944	0.417262	0.911950
	C200	C	0.076702	0.613897	0.408054
	C201	C	0.890573	0.617801	0.604562
	C202	C	0.077862	0.423443	0.603147
	C203	C	0.892389	0.424689	0.410314
	C204	C	0.888184	0.609682	0.102078
	C205	C	0.079213	0.425686	0.101841
	C206	C	0.081704	0.611664	0.906871
	C207	C	0.888091	0.425731	0.906684
	C208	C	0.082693	0.922114	0.596006
	C209	C	0.083033	0.117555	0.412544
	C210	C	0.886944	0.117351	0.596106
	C211	C	0.889990	0.922178	0.413984
	C212	C	0.577342	0.112018	0.907602
	C213	C	0.392321	0.112239	0.101204
	C214	C	0.577685	0.920976	0.101328
	C215	C	0.392260	0.919417	0.905615
	Zn216	Zn	0.485752	0.016151	0.754444
	Zn217	Zn	0.485270	0.016705	0.253777
	Zn218	Zn	0.735027	0.516374	0.005629
	Zn219	Zn	0.232892	0.517555	0.004090
	Zn220	Zn	-0.014773	0.768022	0.505867
	Zn221	Zn	-0.014777	0.270772	0.505808
	Zn222	Zn	-0.015796	0.520109	0.754958
	Zn223	Zn	-0.016743	0.518343	0.255523
	Zn224	Zn	0.485021	0.768052	0.004072
	Zn225	Zn	0.484028	0.265181	0.003596
	Zn226	Zn	0.734605	0.018634	0.504373
	Zn227	Zn	0.236044	0.019287	0.503868
	N228	N	0.398366	0.980699	0.683944
	N229	N	0.573023	0.053000	0.685263
	N230	N	0.572962	0.981340	0.324020
	N231	N	0.397722	0.052864	0.323814
	N232	N	0.665102	0.429093	0.968929
	N233	N	0.663426	0.602592	0.042049
	N234	N	0.305448	0.602689	0.967070
	N235	N	0.303106	0.429769	0.040081
	N236	N	0.947655	0.696413	0.421031
	N237	N	0.021781	0.697107	0.591178
	N238	N	0.948461	0.340444	0.592357
	N239	N	0.021714	0.342422	0.421138
	N240	N	0.948316	0.433828	0.684103
	N241	N	0.019653	0.608179	0.686709
	N242	N	0.948383	0.607490	0.324280
	N243	N	0.018758	0.429773	0.323694
	N244	N	0.397990	0.697347	0.967464
	N245	N	0.572818	0.698969	0.040379
	N246	N	0.569762	0.337515	0.967476
	N247	N	0.395134	0.334404	0.039403
	N248	N	0.665283	0.981915	0.417415
	N249	N	0.662351	0.055766	0.589061
	N250	N	0.305640	0.981429	0.590260
	N251	N	0.307271	0.055036	0.418740
	N252	N	0.894052	0.483137	0.187783
	N253	N	0.071750	0.553713	0.186225
	N254	N	0.071453	0.483233	0.823775
	N255	N	0.896619	0.554994	0.825046
	N256	N	0.165539	0.932198	0.468171
	N257	N	0.165338	0.105794	0.540124
	N258	N	0.804207	0.107110	0.468510
	N259	N	0.806098	0.932931	0.541110
	N260	N	0.447590	0.194090	0.917966
	N261	N	0.521228	0.195310	0.089321
	N262	N	0.447656	0.840383	0.088194
	N263	N	0.521994	0.837483	0.917246
	N264	N	0.449339	0.928579	0.185161
	N265	N	0.520916	0.104354	0.184298
	N266	N	0.448932	0.102041	0.824750
	N267	N	0.520332	0.926806	0.821522
	N268	N	0.897543	0.200848	0.469217
	N269	N	0.072433	0.199710	0.540736
	N270	N	0.074644	0.836177	0.470279
	N271	N	0.900920	0.840967	0.542450
	N272	N	0.161254	0.480959	0.919313
	N273	N	0.162042	0.554776	0.090068
	N274	N	0.806947	0.479949	0.090038
	N275	N	0.805616	0.554713	0.920033
	O276	O	0.456789	0.653209	0.342468
	H277	H	0.438702	0.673847	0.336900
	H278	H	0.449958	0.649546	0.357663
	O279	O	0.323757	0.407842	0.454426
	H280	H	0.312307	0.411295	0.440459
	H281	H	0.330947	0.416607	0.463568
	O282	O	0.317021	0.561914	0.365213
	H283	H	0.318931	0.572271	0.359406
	H284	H	0.303305	0.553870	0.355856
	O285	O	0.923946	0.184255	0.082216
	H286	H	0.932363	0.182651	0.083440
	H287	H	0.933713	0.183278	0.101487
	O288	O	-0.060319	0.024566	1.186492
	H289	H	-0.032384	0.006373	1.176720
	H290	H	-0.055324	0.039790	1.193179
	O291	O	0.510203	0.429812	0.373829
	H292	H	0.504518	0.422957	0.361688
	H293	H	0.505861	0.445486	0.367383
	O294	O	0.572295	0.375064	0.447550
	H295	H	0.562242	0.371593	0.438977
	H296	H	0.573045	0.374607	0.449385
	O297	O	0.801286	1.099210	0.913760
	H298	H	0.795546	1.113443	0.907491
	H299	H	0.799718	1.110520	0.924032
	O300	O	-0.034894	0.109668	-0.052727
	H301	H	-0.053194	0.108961	-0.058984
	H302	H	-0.042122	0.109612	-0.053261
	O303	O	0.343949	0.706878	0.317533
	H304	H	0.364384	0.718044	0.334190
	H305	H	0.346662	0.708778	0.320886
	O306	O	1.190036	0.043032	0.198705
	H307	H	1.199024	0.028506	0.217295
	H308	H	1.170298	0.025989	0.199611
	O309	O	0.576169	0.536221	0.421918
	H310	H	0.575745	0.531585	0.427657
	H311	H	0.569049	0.518622	0.413888
	O312	O	1.119786	0.824682	-0.166454
	H313	H	1.132269	0.850271	-0.158587
	H314	H	1.128233	0.799768	-0.177844
	O315	O	0.599587	0.551676	0.571252
	H316	H	0.594791	0.557043	0.578884
	H317	H	0.589677	0.534760	0.556855
	O318	O	0.478487	0.608335	0.676617
	H319	H	0.474450	0.610805	0.689951
	H320	H	0.487010	0.617289	0.680366
	O321	O	0.930290	-0.164996	1.183004
	H322	H	0.888910	-0.151892	1.175146
	H323	H	0.927151	-0.190320	1.204651
	O324	O	-0.013033	0.083862	0.815045
	H325	H	-0.003288	0.060070	0.816065
	H326	H	-0.037227	0.078926	0.824235
	O327	O	1.048973	-0.072853	0.045453
	H328	H	1.060890	-0.058143	0.055287
	H329	H	1.025809	-0.078229	0.052850
	O330	O	0.496168	0.415970	0.552791
	H331	H	0.493452	0.418775	0.541120
	H332	H	0.495954	0.418711	0.541317
	O333	O	1.372222	0.594271	1.581585
	H334	H	1.362925	0.573829	1.590716
	H335	H	1.371412	0.589699	1.592305
	O336	O	0.634829	0.644693	0.615370
	H337	H	0.625307	0.643169	0.604283
	H338	H	0.638876	0.640378	0.631560
	O339	O	0.916117	0.054301	0.883148
	H340	H	0.904601	0.055341	0.893260
	H341	H	0.907039	0.082764	0.863444
	O342	O	0.086795	1.033687	0.939290
	H343	H	0.096734	1.048287	0.950163
	H344	H	0.085739	1.024860	0.930321
	O345	O	-0.202771	1.119290	0.812863
	H346	H	-0.190925	1.117391	0.798520
	H347	H	-0.204017	1.125130	0.829961
	O348	O	0.436053	0.508077	0.507027
	H349	H	0.427757	0.504568	0.512564
	H350	H	0.436940	0.504155	0.515921
	O351	O	-0.223766	-0.002648	0.212935
	H352	H	-0.197963	0.007956	0.220349
	H353	H	-0.247833	-0.014670	0.239832
	O354	O	1.077597	1.209052	0.195542
	H355	H	1.074479	1.240166	0.222048
	H356	H	1.113251	1.186064	0.193617
	O357	O	-0.109644	0.834695	0.111516
	H358	H	-0.122595	0.874756	0.110100
	H359	H	-0.103171	0.822187	0.071279
	O360	O	0.667648	0.390203	0.372765
	H361	H	0.672121	0.378590	0.369418
	H362	H	0.674160	0.384511	0.342578
	O363	O	0.500956	0.569936	0.435899
	H364	H	0.511588	0.573030	0.429610
	H365	H	0.503955	0.577431	0.430181
	O366	O	1.059150	-0.023629	0.909586
	H367	H	1.071954	-0.018071	0.914565
	H368	H	1.054756	-0.033351	0.908044
	O369	O	0.207746	0.301074	0.280811
	H370	H	0.221066	0.312169	0.261853
	H371	H	0.214098	0.280766	0.277545
	O372	O	0.562979	0.616019	0.642800
	H373	H	0.569544	0.605415	0.636821
	H374	H	0.558691	0.621810	0.642236
	O375	O	0.956031	0.111904	-0.028608
	H376	H	0.956968	0.119015	-0.030422
	H377	H	0.953845	0.106473	-0.036409
	O378	O	0.506789	0.521327	0.521457
	H379	H	0.520513	0.519889	0.525392
	H380	H	0.505818	0.524160	0.535700
	O381	O	0.502401	0.477850	0.520522
	H382	H	0.495543	0.492531	0.512178
	H383	H	0.504450	0.474092	0.528728
	O384	O	0.066999	0.936026	1.201994
	H385	H	0.048032	0.930136	1.201595
	H386	H	0.058654	0.917770	1.181567
	O387	O	1.075871	1.072232	-0.164329
	H388	H	1.093927	1.064844	-0.161781
	H389	H	1.065545	1.065175	-0.157886
	O390	O	0.313617	0.337854	0.561681
	H391	H	0.320977	0.342705	0.575359
	H392	H	0.304590	0.335993	0.562805
	O393	O	1.411988	-0.428830	0.614168
	H394	H	1.417837	-0.435425	0.622601
	H395	H	1.413215	-0.428779	0.621270
	O396	O	0.117323	1.132675	0.947895
	H397	H	0.126948	1.158408	0.955530
	H398	H	0.103910	1.128684	0.960606
	O399	O	0.520868	0.521790	0.566492
	H400	H	0.520036	0.541181	0.575588
	H401	H	0.522513	0.513747	0.576339
	O402	O	1.177862	-0.062352	0.894197
	H403	H	1.166038	-0.039285	0.906887
	H404	H	1.191101	-0.052981	0.900500
	O405	O	0.569415	-0.382466	-0.442061
	H406	H	0.570167	-0.394268	-0.446072
	H407	H	0.568410	-0.393982	-0.438521
	O408	O	0.916755	1.093275	1.041822
	H409	H	0.912422	1.085475	1.038600
	H410	H	0.908179	1.078654	1.041668
	O411	O	0.898779	1.210872	0.071611
	H412	H	0.892508	1.201474	0.074077
	H413	H	0.906950	1.209777	0.077719
	O414	O	-0.042420	-0.014851	0.885350
	H415	H	-0.023815	-0.012558	0.872739
	H416	H	-0.035406	-0.017775	0.875292
	O417	O	0.497355	0.335741	0.539873
	H418	H	0.495578	0.343924	0.530598
	H419	H	0.497821	0.315585	0.540729
	O420	O	-0.203235	0.820892	0.082956
	H421	H	-0.222749	0.804948	0.070035
	H422	H	-0.198150	0.828738	0.062280
	O423	O	1.368703	-0.530112	-0.329489
	H424	H	1.358189	-0.547495	-0.312871
	H425	H	1.390836	-0.541578	-0.325070
	O426	O	0.032877	-0.162964	0.997650
	H427	H	0.026475	-0.142263	1.001284
	H428	H	0.041340	-0.178180	0.983595
	O429	O	0.430514	0.461549	0.331867
	H430	H	0.425457	0.470419	0.329731
	H431	H	0.416594	0.467827	0.335937
