data_Molecule from HDF5

_cell_length_a		16.300995
_cell_length_b		16.287111
_cell_length_c		16.292654
_cell_angle_alpha	90.083717
_cell_angle_beta	89.986671
_cell_angle_gamma	89.970773
_symmetry_space_group_name_H-M	'P 1'
_symmetry_Int_Tables_number		1

loop_
	_symmetry_equiv_pos_as_xyz
	x,y,z

loop_
	_atom_site_label
	_atom_site_type_symbol
	_atom_site_fract_x
	_atom_site_fract_y
	_atom_site_fract_z
	H0	H	0.402400	0.835770	0.714300
	H1	H	0.597214	0.163977	0.714618
	H2	H	0.598304	0.835962	0.286186
	H3	H	0.401123	0.163138	0.285533
	H4	H	0.713940	0.401789	0.836192
	H5	H	0.713705	0.597740	0.163575
	H6	H	0.286214	0.596994	0.835719
	H7	H	0.286066	0.403250	0.164406
	H8	H	0.836242	0.714310	0.402750
	H9	H	0.163581	0.714082	0.597382
	H10	H	0.835882	0.287325	0.596873
	H11	H	0.164385	0.286640	0.401699
	H12	H	0.836539	0.403373	0.713340
	H13	H	0.163683	0.598590	0.713889
	H14	H	0.836212	0.597264	0.286644
	H15	H	0.163381	0.402028	0.284973
	H16	H	0.401927	0.714539	0.836535
	H17	H	0.597723	0.713836	0.164224
	H18	H	0.597627	0.285441	0.836240
	H19	H	0.402098	0.285796	0.163874
	H20	H	0.714660	0.835690	0.402316
	H21	H	0.713995	0.164015	0.598553
	H22	H	0.285380	0.836188	0.598992
	H23	H	0.286689	0.163881	0.402889
	H24	H	0.901216	0.335956	0.214406
	H25	H	0.096568	0.663982	0.213208
	H26	H	0.097080	0.336356	0.785372
	H27	H	0.902409	0.664709	0.786417
	H28	H	0.215039	0.901809	0.336130
	H29	H	0.213548	0.097769	0.663721
	H30	H	0.785339	0.098011	0.336262
	H31	H	0.787106	0.903614	0.664307
	H32	H	0.336255	0.214534	0.901711
	H33	H	0.664071	0.214863	0.098798
	H34	H	0.336555	0.785303	0.098623
	H35	H	0.663648	0.785898	0.902859
	H36	H	0.336181	0.901958	0.213699
	H37	H	0.663315	0.098696	0.215253
	H38	H	0.336456	0.098037	0.786211
	H39	H	0.663624	0.901845	0.786432
	H40	H	0.902573	0.213702	0.335356
	H41	H	0.097322	0.213821	0.663698
	H42	H	0.097757	0.785543	0.336029
	H43	H	0.902483	0.786556	0.663802
	H44	H	0.213541	0.336133	0.902006
	H45	H	0.214491	0.663652	0.098049
	H46	H	0.785646	0.336125	0.097621
	H47	H	0.785982	0.664681	0.902289
	H48	H	0.408002	0.116366	0.596149
	H49	H	0.594122	0.884512	0.590882
	H50	H	0.579705	0.113629	0.401325
	H51	H	0.410752	0.885625	0.412433
	H52	H	0.591306	0.406715	0.115819
	H53	H	0.596647	0.587747	0.884024
	H54	H	0.409129	0.586900	0.113689
	H55	H	0.408862	0.394912	0.881005
	H56	H	0.116426	0.596144	0.410231
	H57	H	0.885240	0.589542	0.591688
	H58	H	0.116628	0.415126	0.599203
	H59	H	0.880822	0.408463	0.393983
	H60	H	0.120668	0.397472	0.596273
	H61	H	0.881710	0.594052	0.597871
	H62	H	0.114909	0.588771	0.406664
	H63	H	0.881370	0.394840	0.410836
	H64	H	0.410779	0.598452	0.116577
	H65	H	0.585927	0.592967	0.885295
	H66	H	0.594308	0.405196	0.117404
	H67	H	0.394872	0.410495	0.881786
	H68	H	0.594943	0.112230	0.422493
	H69	H	0.597344	0.882231	0.594769
	H70	H	0.406727	0.115592	0.591275
	H71	H	0.399925	0.880767	0.407104
	H72	H	0.902056	0.615735	0.088633
	H73	H	0.099766	0.382347	0.089107
	H74	H	0.088868	0.617733	0.898243
	H75	H	0.915628	0.384440	0.896796
	H76	H	0.092047	0.908021	0.616318
	H77	H	0.085055	0.092269	0.386372
	H78	H	0.900457	0.097138	0.619127
	H79	H	0.908499	0.916216	0.387113
	H80	H	0.617150	0.102616	0.914931
	H81	H	0.382698	0.090637	0.100363
	H82	H	0.616896	0.901869	0.091610
	H83	H	0.380310	0.904689	0.899256
	H84	H	0.614542	0.910170	0.090749
	H85	H	0.382352	0.100591	0.090624
	H86	H	0.612801	0.081854	0.910404
	H87	H	0.383127	0.900069	0.912056
	H88	H	0.905810	0.087683	0.614078
	H89	H	0.096386	0.100701	0.380148
	H90	H	0.093636	0.905472	0.616310
	H91	H	0.914309	0.898765	0.383520
	H92	H	0.089265	0.613008	0.913659
	H93	H	0.092490	0.381027	0.100791
	H94	H	0.903204	0.619303	0.099689
	H95	H	0.910087	0.388741	0.918188
	H96	H	0.403197	0.117647	0.594323
	H97	H	0.591707	0.883478	0.596365
	H98	H	0.604754	0.121486	0.399798
	H99	H	0.410870	0.882311	0.400229
	H100	H	0.594304	0.408966	0.115892
	H101	H	0.595585	0.599190	0.881415
	H102	H	0.399819	0.593497	0.118092
	H103	H	0.414486	0.413921	0.887977
	H104	H	0.117904	0.595141	0.402167
	H105	H	0.882941	0.597601	0.590606
	H106	H	0.113270	0.406866	0.583065
	H107	H	0.888428	0.414914	0.413354
	H108	H	0.912154	0.614647	0.093950
	H109	H	0.086583	0.386730	0.089557
	H110	H	0.102209	0.619598	0.907266
	H111	H	0.894496	0.379461	0.903795
	H112	H	0.095582	0.907766	0.616559
	H113	H	0.098981	0.086183	0.383824
	H114	H	0.911991	0.097806	0.615514
	H115	H	0.896784	0.903704	0.379924
	H116	H	0.620380	0.095458	0.894602
	H117	H	0.387188	0.087899	0.087585
	H118	H	0.618207	0.907191	0.097737
	H119	H	0.385941	0.913478	0.908736
	C120	C	0.378300	0.007863	0.621766
	C121	C	0.621950	0.991913	0.622158
	C122	C	0.621560	0.007604	0.379447
	C123	C	0.378753	0.991444	0.378553
	C124	C	0.621916	0.378009	0.008236
	C125	C	0.621261	0.621704	0.991851
	C126	C	0.378516	0.621316	0.007995
	C127	C	0.378042	0.378161	0.991905
	C128	C	0.008276	0.621384	0.378324
	C129	C	0.991693	0.622117	0.621373
	C130	C	0.008443	0.378668	0.621057
	C131	C	0.991836	0.378156	0.378005
	C132	C	0.878045	0.507840	0.121895
	C133	C	0.121089	0.491418	0.120925
	C134	C	0.121549	0.508649	0.877728
	C135	C	0.878074	0.492383	0.877836
	C136	C	0.121809	0.878517	0.508399
	C137	C	0.121486	0.121221	0.491588
	C138	C	0.878107	0.121892	0.507934
	C139	C	0.878579	0.878443	0.491837
	C140	C	0.508146	0.121230	0.878988
	C141	C	0.492190	0.121568	0.121646
	C142	C	0.508486	0.877995	0.122062
	C143	C	0.491571	0.878531	0.878877
	C144	C	0.381763	0.884804	0.676257
	C145	C	0.618463	0.115026	0.676586
	C146	C	0.619165	0.884719	0.323775
	C147	C	0.380829	0.114560	0.323509
	C148	C	0.676249	0.380885	0.884977
	C149	C	0.675652	0.618475	0.114942
	C150	C	0.324298	0.617771	0.884510
	C151	C	0.323626	0.381674	0.115305
	C152	C	0.884981	0.676111	0.381920
	C153	C	0.114892	0.676477	0.618324
	C154	C	0.885072	0.324736	0.617555
	C155	C	0.115335	0.324140	0.381145
	C156	C	0.885159	0.382494	0.675366
	C157	C	0.114836	0.619047	0.675840
	C158	C	0.884919	0.618122	0.324151
	C159	C	0.115107	0.381379	0.323295
	C160	C	0.381352	0.676472	0.885022
	C161	C	0.618134	0.676027	0.115268
	C162	C	0.618535	0.323172	0.885101
	C163	C	0.381479	0.323874	0.115466
	C164	C	0.676530	0.884402	0.381880
	C165	C	0.676483	0.115160	0.618968
	C166	C	0.323861	0.884704	0.618818
	C167	C	0.323973	0.114691	0.381642
	C168	C	0.881111	0.384628	0.176259
	C169	C	0.117725	0.615225	0.175398
	C170	C	0.118160	0.385097	0.823088
	C171	C	0.881045	0.615596	0.823364
	C172	C	0.176556	0.881132	0.384884
	C173	C	0.175963	0.118681	0.615058
	C174	C	0.823486	0.118606	0.384754
	C175	C	0.824474	0.882236	0.615316
	C176	C	0.385092	0.176126	0.881669
	C177	C	0.615109	0.176725	0.119300
	C178	C	0.385373	0.823248	0.118951
	C179	C	0.615134	0.824005	0.881929
	C180	C	0.385178	0.881191	0.176291
	C181	C	0.614863	0.119390	0.177271
	C182	C	0.385142	0.118485	0.823923
	C183	C	0.614694	0.881238	0.823909
	C184	C	0.881503	0.176269	0.384530
	C185	C	0.118263	0.176278	0.614791
	C186	C	0.118585	0.823408	0.384853
	C187	C	0.881624	0.824061	0.615202
	C188	C	0.175583	0.384876	0.881208
	C189	C	0.175950	0.615047	0.118198
	C190	C	0.823525	0.384809	0.118373
	C191	C	0.823482	0.615645	0.881089
	C192	C	0.399726	0.094313	0.600224
	C193	C	0.600621	0.905377	0.600437
	C194	C	0.599602	0.093787	0.401354
	C195	C	0.400617	0.905330	0.400255
	C196	C	0.599838	0.400385	0.094300
	C197	C	0.599223	0.599750	0.905660
	C198	C	0.400256	0.599481	0.093968
	C199	C	0.399562	0.399897	0.906028
	C200	C	0.094171	0.599722	0.400035
	C201	C	0.905384	0.600102	0.599662
	C202	C	0.094621	0.400334	0.599430
	C203	C	0.905700	0.399697	0.399665
	C204	C	0.899384	0.594236	0.100436
	C205	C	0.099339	0.405681	0.099466
	C206	C	0.099979	0.594535	0.899809
	C207	C	0.900314	0.406335	0.899808
	C208	C	0.100155	0.900425	0.594228
	C209	C	0.099962	0.099430	0.405719
	C210	C	0.899832	0.100560	0.593978
	C211	C	0.900249	0.899928	0.405766
	C212	C	0.594543	0.099682	0.900427
	C213	C	0.406219	0.099439	0.099506
	C214	C	0.594521	0.899918	0.099956
	C215	C	0.405439	0.899728	0.900351
	Zn216	Zn	0.499766	-0.000115	0.750208
	Zn217	Zn	0.499910	-0.000266	0.250364
	Zn218	Zn	0.749814	0.500368	-0.000423
	Zn219	Zn	0.249604	0.499860	-0.000168
	Zn220	Zn	0.000206	0.750267	0.500101
	Zn221	Zn	0.000232	0.250338	0.499740
	Zn222	Zn	0.000151	0.500912	0.749233
	Zn223	Zn	0.000138	0.499609	0.250181
	Zn224	Zn	0.500117	0.750164	0.000388
	Zn225	Zn	0.500154	0.249980	0.000114
	Zn226	Zn	0.750200	-0.000195	0.500178
	Zn227	Zn	0.250258	-0.000167	0.500001
	N228	N	0.414960	0.962503	0.678069
	N229	N	0.585252	0.037396	0.678455
	N230	N	0.585665	0.962264	0.322266
	N231	N	0.414312	0.037016	0.321619
	N232	N	0.678426	0.414216	0.962605
	N233	N	0.677676	0.585454	0.037149
	N234	N	0.322135	0.584533	0.962009
	N235	N	0.321629	0.414955	0.037713
	N236	N	0.962619	0.678171	0.415080
	N237	N	0.037264	0.678429	0.585175
	N238	N	0.962757	0.322431	0.584508
	N239	N	0.037683	0.321854	0.414177
	N240	N	0.962864	0.415446	0.677622
	N241	N	0.037183	0.585941	0.677623
	N242	N	0.962687	0.585026	0.321711
	N243	N	0.037327	0.414223	0.321246
	N244	N	0.414467	0.678624	0.962838
	N245	N	0.585082	0.678139	0.037473
	N246	N	0.585387	0.321436	0.962866
	N247	N	0.414539	0.321524	0.037778
	N248	N	0.678263	0.961963	0.415485
	N249	N	0.678635	0.037298	0.585834
	N250	N	0.321590	0.962436	0.585719
	N251	N	0.322627	0.037137	0.415248
	N252	N	0.914031	0.462438	0.178818
	N253	N	0.084383	0.537509	0.177403
	N254	N	0.085202	0.463003	0.820875
	N255	N	0.914472	0.537941	0.821362
	N256	N	0.178610	0.914685	0.462431
	N257	N	0.178176	0.085203	0.537532
	N258	N	0.821214	0.085730	0.462608
	N259	N	0.822667	0.915316	0.537674
	N260	N	0.462651	0.177969	0.914991
	N261	N	0.537802	0.178104	0.085360
	N262	N	0.463280	0.821066	0.086122
	N263	N	0.537588	0.822053	0.915357
	N264	N	0.462712	0.914598	0.178211
	N265	N	0.537445	0.085542	0.178728
	N266	N	0.462682	0.085038	0.822271
	N267	N	0.536985	0.914474	0.821964
	N268	N	0.914794	0.178416	0.462112
	N269	N	0.085019	0.177924	0.537185
	N270	N	0.085346	0.821598	0.462596
	N271	N	0.914896	0.821839	0.537513
	N272	N	0.177964	0.462558	0.914311
	N273	N	0.178022	0.537380	0.085041
	N274	N	0.821732	0.462402	0.085052
	N275	N	0.821544	0.537809	0.914298
