data_Molecule from HDF5

_cell_length_a		16.205442
_cell_length_b		16.350748
_cell_length_c		16.145423
_cell_angle_alpha	90.563799
_cell_angle_beta	90.351818
_cell_angle_gamma	90.288673
_symmetry_space_group_name_H-M	'P 1'
_symmetry_Int_Tables_number		1

loop_
	_symmetry_equiv_pos_as_xyz
	x,y,z

loop_
	_atom_site_label
	_atom_site_type_symbol
	_atom_site_fract_x
	_atom_site_fract_y
	_atom_site_fract_z
	H0	H	0.395970	0.833578	0.710078
	H1	H	0.596676	0.159953	0.719070
	H2	H	0.591172	0.834560	0.283097
	H3	H	0.394757	0.160989	0.285625
	H4	H	0.703645	0.399363	0.832232
	H5	H	0.709537	0.596611	0.163144
	H6	H	0.280068	0.593484	0.833386
	H7	H	0.280857	0.399632	0.163026
	H8	H	0.830164	0.712487	0.398918
	H9	H	0.157813	0.716517	0.601851
	H10	H	0.830648	0.282445	0.597448
	H11	H	0.157794	0.281433	0.395994
	H12	H	0.828128	0.403289	0.706847
	H13	H	0.158133	0.599014	0.714727
	H14	H	0.829285	0.593959	0.284803
	H15	H	0.159218	0.400379	0.284664
	H16	H	0.393731	0.710797	0.834428
	H17	H	0.596924	0.714011	0.163243
	H18	H	0.593617	0.278503	0.835669
	H19	H	0.394848	0.285656	0.163797
	H20	H	0.706944	0.833826	0.401066
	H21	H	0.711859	0.161073	0.601658
	H22	H	0.278628	0.835273	0.595656
	H23	H	0.279933	0.160411	0.399855
	H24	H	0.895269	0.333557	0.209640
	H25	H	0.093304	0.660920	0.214260
	H26	H	0.089883	0.335246	0.780872
	H27	H	0.897061	0.662817	0.787640
	H28	H	0.205325	0.901016	0.333127
	H29	H	0.211659	0.099046	0.663896
	H30	H	0.779117	0.093437	0.334423
	H31	H	0.782686	0.901683	0.664336
	H32	H	0.329788	0.210548	0.899207
	H33	H	0.657622	0.216812	0.104044
	H34	H	0.331373	0.781150	0.098148
	H35	H	0.658080	0.782145	0.899847
	H36	H	0.328908	0.901499	0.208284
	H37	H	0.659020	0.096124	0.215012
	H38	H	0.330006	0.092699	0.785177
	H39	H	0.658874	0.898475	0.786504
	H40	H	0.893301	0.209631	0.333538
	H41	H	0.097056	0.216684	0.663352
	H42	H	0.094866	0.781644	0.335139
	H43	H	0.896169	0.785497	0.663673
	H44	H	0.206558	0.333630	0.898010
	H45	H	0.210932	0.660051	0.099660
	H46	H	0.779646	0.334555	0.092649
	H47	H	0.778132	0.660433	0.899040
	H48	H	0.414085	0.107934	0.585292
	H49	H	0.584442	0.881949	0.595515
	H50	H	0.597082	0.117703	0.402162
	H51	H	0.384499	0.876693	0.403768
	H52	H	0.592506	0.413093	0.116123
	H53	H	0.585681	0.597093	0.878914
	H54	H	0.399930	0.590219	0.117213
	H55	H	0.396468	0.399238	0.878424
	H56	H	0.113487	0.600006	0.408462
	H57	H	0.875718	0.598322	0.587245
	H58	H	0.111180	0.410253	0.592469
	H59	H	0.880387	0.409416	0.411544
	H60	H	0.112467	0.404786	0.590703
	H61	H	0.878382	0.588723	0.588389
	H62	H	0.108076	0.588444	0.414095
	H63	H	0.875271	0.405834	0.395943
	H64	H	0.406605	0.587519	0.114442
	H65	H	0.591428	0.587189	0.879613
	H66	H	0.580285	0.407558	0.113658
	H67	H	0.400962	0.407940	0.882349
	H68	H	0.578700	0.112832	0.402890
	H69	H	0.588915	0.883473	0.586231
	H70	H	0.392079	0.115839	0.587542
	H71	H	0.408263	0.879768	0.390659
	H72	H	0.899972	0.614822	0.092998
	H73	H	0.078774	0.383667	0.091082
	H74	H	0.091919	0.616675	0.901107
	H75	H	0.892119	0.380428	0.904059
	H76	H	0.092979	0.900343	0.620206
	H77	H	0.081181	0.092435	0.382069
	H78	H	0.902826	0.098586	0.618475
	H79	H	0.900340	0.908994	0.381643
	H80	H	0.611179	0.091258	0.911432
	H81	H	0.376840	0.089790	0.093677
	H82	H	0.613331	0.904126	0.094114
	H83	H	0.375786	0.899471	0.902223
	H84	H	0.612163	0.903571	0.089966
	H85	H	0.375867	0.094944	0.092692
	H86	H	0.610843	0.089460	0.911452
	H87	H	0.377414	0.900228	0.909211
	H88	H	0.900844	0.087405	0.616406
	H89	H	0.090969	0.095223	0.378773
	H90	H	0.092726	0.915307	0.615816
	H91	H	0.906127	0.902723	0.382005
	H92	H	0.081947	0.612317	0.905702
	H93	H	0.092221	0.382481	0.082434
	H94	H	0.902790	0.614020	0.094426
	H95	H	0.899914	0.379776	0.895762
	H96	H	0.407094	0.116388	0.605977
	H97	H	0.594784	0.879078	0.594164
	H98	H	0.589816	0.111410	0.419012
	H99	H	0.406140	0.886978	0.417064
	H100	H	0.590906	0.399769	0.119493
	H101	H	0.580380	0.587482	0.882874
	H102	H	0.405962	0.595234	0.116754
	H103	H	0.406017	0.399263	0.881222
	H104	H	0.112526	0.588490	0.400696
	H105	H	0.874971	0.594478	0.596547
	H106	H	0.109638	0.408158	0.586216
	H107	H	0.875334	0.394313	0.406685
	H108	H	0.902051	0.613671	0.090420
	H109	H	0.091727	0.378058	0.098216
	H110	H	0.092268	0.613358	0.912895
	H111	H	0.903434	0.383758	0.904793
	H112	H	0.079610	0.907036	0.614102
	H113	H	0.089367	0.085706	0.383074
	H114	H	0.911770	0.092314	0.614447
	H115	H	0.897907	0.899877	0.379049
	H116	H	0.611303	0.090832	0.909365
	H117	H	0.377721	0.091265	0.089790
	H118	H	0.611345	0.907325	0.091611
	H119	H	0.377473	0.905076	0.904468
	C120	C	0.374247	0.006029	0.620293
	C121	C	0.618230	0.989348	0.622567
	C122	C	0.616178	0.006038	0.378362
	C123	C	0.372263	0.989351	0.376300
	C124	C	0.615581	0.376845	0.007360
	C125	C	0.616081	0.619605	0.989629
	C126	C	0.374139	0.618364	0.007023
	C127	C	0.372691	0.375136	0.990015
	C128	C	0.002843	0.619562	0.378230
	C129	C	0.985284	0.622423	0.621019
	C130	C	0.002246	0.378652	0.618127
	C131	C	0.985507	0.375350	0.375742
	C132	C	0.872785	0.506255	0.119715
	C133	C	0.116952	0.488955	0.120629
	C134	C	0.116024	0.506268	0.876135
	C135	C	0.871267	0.489595	0.875280
	C136	C	0.116177	0.878079	0.507546
	C137	C	0.117719	0.121131	0.490265
	C138	C	0.874389	0.119480	0.507373
	C139	C	0.873462	0.876586	0.490010
	C140	C	0.502890	0.118269	0.879810
	C141	C	0.485533	0.121038	0.122198
	C142	C	0.503402	0.876502	0.119850
	C143	C	0.485569	0.874340	0.877289
	C144	C	0.375931	0.882659	0.673229
	C145	C	0.616468	0.111449	0.680418
	C146	C	0.612375	0.883256	0.321893
	C147	C	0.374865	0.112063	0.322700
	C148	C	0.668209	0.378265	0.882453
	C149	C	0.672239	0.617532	0.113714
	C150	C	0.317720	0.614638	0.882980
	C151	C	0.318176	0.379103	0.113827
	C152	C	0.879253	0.674539	0.379040
	C153	C	0.108858	0.677945	0.620507
	C154	C	0.879339	0.321433	0.616563
	C155	C	0.109110	0.319949	0.377027
	C156	C	0.878012	0.381672	0.671058
	C157	C	0.109058	0.619369	0.676773
	C158	C	0.878588	0.615114	0.322855
	C159	C	0.109584	0.378936	0.321235
	C160	C	0.374254	0.673080	0.883514
	C161	C	0.616026	0.675832	0.113771
	C162	C	0.613304	0.318538	0.883996
	C163	C	0.374771	0.322113	0.114152
	C164	C	0.670136	0.882973	0.380069
	C165	C	0.673993	0.112033	0.622000
	C166	C	0.317174	0.883726	0.616566
	C167	C	0.317632	0.111879	0.379752
	C168	C	0.874775	0.382871	0.172859
	C169	C	0.114069	0.612080	0.176367
	C170	C	0.111436	0.383635	0.819580
	C171	C	0.875464	0.613383	0.823251
	C172	C	0.169396	0.880088	0.382987
	C173	C	0.173890	0.119678	0.614368
	C174	C	0.817309	0.114722	0.383370
	C175	C	0.819854	0.880958	0.614942
	C176	C	0.379274	0.172936	0.879587
	C177	C	0.608943	0.177290	0.122302
	C178	C	0.380124	0.820002	0.117919
	C179	C	0.609214	0.819765	0.879548
	C180	C	0.378905	0.880020	0.172702
	C181	C	0.609778	0.117346	0.177270
	C182	C	0.379133	0.114154	0.823125
	C183	C	0.609636	0.877800	0.823273
	C184	C	0.874187	0.172429	0.382969
	C185	C	0.116889	0.178142	0.613940
	C186	C	0.113919	0.821174	0.383826
	C187	C	0.875846	0.822946	0.614471
	C188	C	0.169797	0.383038	0.877490
	C189	C	0.172755	0.611465	0.119459
	C190	C	0.817165	0.383312	0.114753
	C191	C	0.816736	0.612402	0.879082
	C192	C	0.397628	0.091380	0.599175
	C193	C	0.595970	0.903823	0.599082
	C194	C	0.594893	0.091614	0.401295
	C195	C	0.393589	0.903435	0.397395
	C196	C	0.594154	0.399931	0.094083
	C197	C	0.592753	0.597150	0.902854
	C198	C	0.397384	0.597179	0.093655
	C199	C	0.394851	0.395890	0.903080
	C200	C	0.088981	0.598365	0.401156
	C201	C	0.898602	0.600381	0.597713
	C202	C	0.088830	0.401182	0.596198
	C203	C	0.899495	0.396908	0.398064
	C204	C	0.895148	0.591919	0.098932
	C205	C	0.094272	0.403511	0.097439
	C206	C	0.095014	0.591912	0.899596
	C207	C	0.892167	0.403864	0.895514
	C208	C	0.094759	0.900680	0.594285
	C209	C	0.094215	0.097853	0.403589
	C210	C	0.898214	0.098926	0.593939
	C211	C	0.895127	0.897529	0.403514
	C212	C	0.588762	0.096695	0.903835
	C213	C	0.399212	0.098692	0.098865
	C214	C	0.590012	0.898568	0.098210
	C215	C	0.399273	0.895349	0.898911
	Zn216	Zn	0.494852	-0.003341	0.750694
	Zn217	Zn	0.493765	-0.001763	0.248715
	Zn218	Zn	0.743395	0.498360	-0.002725
	Zn219	Zn	0.246018	0.496696	-0.001295
	Zn220	Zn	-0.005473	0.749715	0.499280
	Zn221	Zn	-0.005632	0.248492	0.498117
	Zn222	Zn	-0.007042	0.499571	0.747171
	Zn223	Zn	-0.005593	0.497665	0.248880
	Zn224	Zn	0.494985	0.747378	-0.000915
	Zn225	Zn	0.493937	0.248745	0.000046
	Zn226	Zn	0.746177	-0.002167	0.499832
	Zn227	Zn	0.244900	-0.001627	0.498451
	N228	N	0.410806	0.959612	0.675578
	N229	N	0.582515	0.034065	0.680891
	N230	N	0.579570	0.960790	0.320460
	N231	N	0.407971	0.034822	0.320380
	N232	N	0.669811	0.413695	0.960134
	N233	N	0.672189	0.583250	0.035570
	N234	N	0.317661	0.581218	0.960873
	N235	N	0.316785	0.411301	0.035386
	N236	N	0.957523	0.677490	0.412776
	N237	N	0.030799	0.679706	0.586389
	N238	N	0.957923	0.319379	0.584507
	N239	N	0.031139	0.317451	0.410116
	N240	N	0.955439	0.416551	0.672116
	N241	N	0.031096	0.585768	0.677251
	N242	N	0.956253	0.581601	0.322215
	N243	N	0.031802	0.412477	0.320100
	N244	N	0.408641	0.675425	0.961670
	N245	N	0.581792	0.677279	0.035442
	N246	N	0.581085	0.317573	0.962681
	N247	N	0.408002	0.319625	0.036011
	N248	N	0.672522	0.960337	0.414420
	N249	N	0.675248	0.035110	0.586943
	N250	N	0.315876	0.961393	0.584507
	N251	N	0.315682	0.034524	0.412290
	N252	N	0.908533	0.460204	0.176084
	N253	N	0.080083	0.534822	0.177182
	N254	N	0.078842	0.461165	0.818544
	N255	N	0.908829	0.536138	0.820690
	N256	N	0.170748	0.915023	0.460791
	N257	N	0.174435	0.085132	0.536427
	N258	N	0.817200	0.082619	0.461785
	N259	N	0.818029	0.913498	0.536618
	N260	N	0.457192	0.175794	0.914058
	N261	N	0.530787	0.179600	0.088866
	N262	N	0.458605	0.817799	0.086005
	N263	N	0.531090	0.817257	0.912353
	N264	N	0.456561	0.914524	0.174116
	N265	N	0.531876	0.083433	0.177635
	N266	N	0.457011	0.081093	0.822927
	N267	N	0.531849	0.910966	0.821714
	N268	N	0.908969	0.175421	0.461035
	N269	N	0.082760	0.179261	0.535514
	N270	N	0.081453	0.819903	0.462347
	N271	N	0.908366	0.820119	0.536032
	N272	N	0.172618	0.460315	0.912177
	N273	N	0.174716	0.533999	0.085565
	N274	N	0.815652	0.460881	0.082357
	N275	N	0.813768	0.534493	0.910435
	O276	O	-0.115757	0.054238	-0.053620
	H277	H	-0.113351	0.053614	-0.054942
	H278	H	-0.126890	0.056315	-0.051819
	O279	O	0.503530	0.623353	0.424166
	H280	H	0.506101	0.619764	0.404622
	H281	H	0.514122	0.633531	0.429736
	O282	O	0.389909	0.377296	0.601397
	H283	H	0.380885	0.367673	0.612030
	H284	H	0.395696	0.388334	0.605301
	O285	O	0.451140	1.592305	0.458825
	H286	H	0.450344	1.581012	0.457201
	H287	H	0.445279	1.589395	0.451149
	O288	O	0.419252	0.427884	0.518033
	H289	H	0.423629	0.439772	0.522308
	H290	H	0.406439	0.435337	0.521556
	O291	O	0.965014	0.956187	0.994104
	H292	H	0.979617	0.952215	0.999210
	H293	H	0.973249	0.960376	0.995953
	O294	O	0.917522	1.044289	0.979637
	H295	H	0.924966	1.043310	0.979559
	H296	H	0.918643	1.045655	0.981769
	O297	O	1.125396	0.131562	1.113399
	H298	H	1.118939	0.130028	1.113944
	H299	H	1.132246	0.132587	1.121782
	O300	O	0.521820	0.443756	0.465679
	H301	H	0.518136	0.431129	0.486070
	H302	H	0.510956	0.428455	0.452723
	O303	O	1.051583	0.009067	0.045646
	H304	H	1.040938	0.005582	0.041772
	H305	H	1.052481	0.016881	0.049348
	O306	O	0.055643	1.009115	1.029981
	H307	H	0.044301	1.008395	1.040713
	H308	H	0.051829	1.013185	1.029598
	O309	O	0.379238	0.441681	0.461429
	H310	H	0.375049	0.439926	0.472260
	H311	H	0.370479	0.440578	0.470593
	O312	O	0.884166	0.048007	0.962282
	H313	H	0.886933	0.047518	0.967629
	H314	H	0.876556	0.048843	0.969878
	O315	O	0.465731	0.412953	0.587250
	H316	H	0.476549	0.416991	0.587720
	H317	H	0.463533	0.404271	0.577790
	O318	O	0.405658	0.598959	0.478476
	H319	H	0.403010	0.597838	0.480623
	H320	H	0.401866	0.607896	0.470802
	O321	O	0.915404	0.983038	0.935808
	H322	H	0.917563	0.978088	0.930202
	H323	H	0.915804	0.978181	0.935352
	O324	O	0.573467	0.436679	0.493986
	H325	H	0.579437	0.443991	0.484105
	H326	H	0.588298	0.439700	0.498762
	O327	O	0.647391	0.394774	0.386621
	H328	H	0.641472	0.404662	0.383767
	H329	H	0.640718	0.394982	0.388170
	O330	O	0.990167	-0.033997	1.006230
	H331	H	0.997783	-0.042183	1.005449
	H332	H	0.980079	-0.039303	1.001814
	O333	O	1.073223	0.992851	-0.033769
	H334	H	1.083076	1.000220	-0.037550
	H335	H	1.077578	0.996644	-0.034956
	O336	O	0.385222	0.552229	0.549291
	H337	H	0.395255	0.560698	0.553706
	H338	H	0.390716	0.552669	0.545178
	O339	O	0.454754	0.561075	0.509563
	H340	H	0.451414	0.564807	0.510158
	H341	H	0.470145	0.553241	0.511587
	O342	O	0.010752	1.034077	-0.022910
	H343	H	-0.002139	1.041823	-0.028030
	H344	H	0.009891	1.040874	-0.027413
	O345	O	0.059079	0.003581	-0.023967
	H346	H	0.060785	0.005806	-0.031484
	H347	H	0.066651	0.005449	-0.018807
	O348	O	0.608929	0.518937	0.450137
	H349	H	0.597821	0.517095	0.446289
	H350	H	0.609415	0.512770	0.473531
	O351	O	0.490576	0.470884	0.597534
	H352	H	0.493688	0.478489	0.589765
	H353	H	0.501452	0.472826	0.601121
	O354	O	0.518351	0.494860	0.470353
	H355	H	0.502811	0.484191	0.477824
	H356	H	0.524935	0.480812	0.445181
	O357	O	0.580917	0.508848	0.526596
	H358	H	0.583159	0.496802	0.515511
	H359	H	0.574957	0.520909	0.540658
	O360	O	0.023191	0.034661	0.098460
	H361	H	0.027450	0.028545	0.099840
	H362	H	0.013216	0.037484	0.095105
	O363	O	0.517145	0.430228	0.494382
	H364	H	0.514458	0.422797	0.497396
	H365	H	0.516079	0.433651	0.494812
	O366	O	-0.013260	0.049514	0.994388
	H367	H	-0.015837	0.061755	1.006166
	H368	H	-0.008641	0.049659	1.010788
	O369	O	0.547739	0.528037	0.553740
	H370	H	0.551379	0.528264	0.572969
	H371	H	0.548324	0.537204	0.554925
