data_Molecule from HDF5

_cell_length_a		16.344759
_cell_length_b		16.460840
_cell_length_c		16.099987
_cell_angle_alpha	89.971134
_cell_angle_beta	89.997541
_cell_angle_gamma	89.548394
_symmetry_space_group_name_H-M	'P 1'
_symmetry_Int_Tables_number		1

loop_
	_symmetry_equiv_pos_as_xyz
	x,y,z

loop_
	_atom_site_label
	_atom_site_type_symbol
	_atom_site_fract_x
	_atom_site_fract_y
	_atom_site_fract_z
	H0	H	0.402992	0.829962	0.718682
	H1	H	0.601136	0.151454	0.720878
	H2	H	0.602574	0.830777	0.285078
	H3	H	0.398619	0.152757	0.283981
	H4	H	0.717107	0.387001	0.840842
	H5	H	0.715435	0.595587	0.163664
	H6	H	0.283628	0.592799	0.836386
	H7	H	0.282459	0.394595	0.165254
	H8	H	0.842279	0.718420	0.396233
	H9	H	0.161708	0.709584	0.606884
	H10	H	0.841051	0.272058	0.607358
	H11	H	0.160603	0.270815	0.391408
	H12	H	0.837376	0.394061	0.716964
	H13	H	0.161898	0.589647	0.718448
	H14	H	0.837647	0.597031	0.286385
	H15	H	0.162631	0.396612	0.284877
	H16	H	0.391589	0.712052	0.839710
	H17	H	0.599410	0.708460	0.165164
	H18	H	0.603272	0.271500	0.841432
	H19	H	0.394950	0.276959	0.165837
	H20	H	0.723828	0.832975	0.396744
	H21	H	0.720988	0.150905	0.607592
	H22	H	0.280888	0.832585	0.608470
	H23	H	0.278201	0.150642	0.395788
	H24	H	0.900321	0.333417	0.219754
	H25	H	0.095592	0.656706	0.215775
	H26	H	0.096849	0.331973	0.787416
	H27	H	0.897457	0.654696	0.784731
	H28	H	0.217477	0.892472	0.338410
	H29	H	0.215022	0.091129	0.666665
	H30	H	0.784336	0.095084	0.338424
	H31	H	0.787329	0.891152	0.665566
	H32	H	0.338160	0.210608	0.898662
	H33	H	0.658793	0.212349	0.110081
	H34	H	0.336186	0.775245	0.105999
	H35	H	0.658281	0.767095	0.896813
	H36	H	0.337331	0.895610	0.219002
	H37	H	0.664042	0.086743	0.214841
	H38	H	0.337660	0.090118	0.787026
	H39	H	0.663805	0.891114	0.790085
	H40	H	0.898226	0.210922	0.338248
	H41	H	0.105040	0.211148	0.664087
	H42	H	0.105872	0.774783	0.338886
	H43	H	0.901539	0.777184	0.665203
	H44	H	0.219608	0.334643	0.894700
	H45	H	0.214717	0.654839	0.101045
	H46	H	0.780460	0.333823	0.106735
	H47	H	0.775307	0.651909	0.896003
	H48	H	0.403684	0.105370	0.588149
	H49	H	0.602579	0.873334	0.596782
	H50	H	0.596546	0.107943	0.408912
	H51	H	0.413132	0.879800	0.413081
	H52	H	0.583274	0.409564	0.116318
	H53	H	0.583010	0.575737	0.887769
	H54	H	0.408705	0.589214	0.119259
	H55	H	0.413724	0.405888	0.888194
	H56	H	0.116163	0.584959	0.408807
	H57	H	0.886041	0.584514	0.589234
	H58	H	0.116374	0.397946	0.595205
	H59	H	0.885321	0.401327	0.410985
	H60	H	0.114845	0.398877	0.588310
	H61	H	0.884672	0.588134	0.593720
	H62	H	0.115846	0.586699	0.412767
	H63	H	0.887184	0.400062	0.415865
	H64	H	0.399550	0.583543	0.120408
	H65	H	0.582569	0.584474	0.885366
	H66	H	0.582995	0.395430	0.119518
	H67	H	0.411781	0.392124	0.883229
	H68	H	0.588984	0.104990	0.409139
	H69	H	0.591504	0.876898	0.597842
	H70	H	0.407791	0.107972	0.599496
	H71	H	0.407530	0.877858	0.414372
	H72	H	0.906276	0.608473	0.094278
	H73	H	0.094795	0.379577	0.088430
	H74	H	0.096374	0.611428	0.906718
	H75	H	0.915630	0.382592	0.911932
	H76	H	0.090290	0.897739	0.619983
	H77	H	0.089088	0.089147	0.383355
	H78	H	0.909717	0.085056	0.618959
	H79	H	0.917574	0.903167	0.386926
	H80	H	0.615810	0.086212	0.914643
	H81	H	0.383627	0.084355	0.095525
	H82	H	0.614074	0.891094	0.088145
	H83	H	0.383563	0.896379	0.913217
	H84	H	0.611755	0.901612	0.089323
	H85	H	0.384584	0.087881	0.091552
	H86	H	0.612959	0.081256	0.917795
	H87	H	0.385757	0.904050	0.914155
	H88	H	0.912548	0.080372	0.616881
	H89	H	0.096622	0.080327	0.383449
	H90	H	0.095478	0.900045	0.620755
	H91	H	0.911224	0.901208	0.383251
	H92	H	0.084614	0.607849	0.906215
	H93	H	0.092905	0.378231	0.096187
	H94	H	0.906707	0.605734	0.087686
	H95	H	0.900912	0.379381	0.918536
	H96	H	0.415362	0.103452	0.590866
	H97	H	0.596397	0.878427	0.587043
	H98	H	0.593921	0.104856	0.416093
	H99	H	0.409609	0.876390	0.409179
	H100	H	0.594756	0.402524	0.121167
	H101	H	0.589847	0.580555	0.884138
	H102	H	0.408380	0.578999	0.116941
	H103	H	0.400308	0.401528	0.882364
	H104	H	0.115275	0.582107	0.412317
	H105	H	0.885199	0.590731	0.588155
	H106	H	0.113930	0.404438	0.593185
	H107	H	0.887222	0.405091	0.414155
	H108	H	0.901150	0.609379	0.090292
	H109	H	0.087203	0.382563	0.090704
	H110	H	0.090966	0.607214	0.916477
	H111	H	0.904304	0.374870	0.902960
	H112	H	0.092111	0.902803	0.619002
	H113	H	0.086225	0.079205	0.388405
	H114	H	0.915034	0.085604	0.617961
	H115	H	0.911908	0.908555	0.385815
	H116	H	0.615304	0.081090	0.911179
	H117	H	0.386402	0.082707	0.091446
	H118	H	0.616551	0.895645	0.097457
	H119	H	0.382583	0.900984	0.907369
	C120	C	0.379631	-0.000379	0.623991
	C121	C	0.625156	0.982585	0.624686
	C122	C	0.623877	0.000135	0.380135
	C123	C	0.379058	0.983786	0.380505
	C124	C	0.619000	0.370657	0.011746
	C125	C	0.616366	0.611348	0.993325
	C126	C	0.375776	0.614141	0.010595
	C127	C	0.377404	0.371112	0.993042
	C128	C	0.009435	0.616308	0.380096
	C129	C	0.991697	0.615415	0.622522
	C130	C	0.008558	0.370705	0.623173
	C131	C	0.992578	0.371862	0.380453
	C132	C	0.875793	0.502215	0.123177
	C133	C	0.120603	0.486194	0.122039
	C134	C	0.120477	0.502600	0.879508
	C135	C	0.875491	0.484575	0.879323
	C136	C	0.123611	0.870304	0.511456
	C137	C	0.121848	0.113264	0.492980
	C138	C	0.880193	0.114724	0.510525
	C139	C	0.882961	0.873574	0.493296
	C140	C	0.508290	0.113300	0.882319
	C141	C	0.491233	0.113844	0.124197
	C142	C	0.507224	0.868312	0.123451
	C143	C	0.490943	0.869230	0.881373
	C144	C	0.381940	0.878548	0.680896
	C145	C	0.622469	0.103218	0.682639
	C146	C	0.623212	0.879223	0.322867
	C147	C	0.378946	0.104405	0.322336
	C148	C	0.678171	0.368707	0.889550
	C149	C	0.675702	0.613260	0.115514
	C150	C	0.320401	0.613020	0.886288
	C151	C	0.320228	0.374015	0.116190
	C152	C	0.889338	0.677298	0.378126
	C153	C	0.113413	0.670999	0.624671
	C154	C	0.888663	0.312065	0.625307
	C155	C	0.112907	0.312270	0.376017
	C156	C	0.886586	0.372951	0.679842
	C157	C	0.113521	0.611014	0.680011
	C158	C	0.887046	0.616850	0.323492
	C159	C	0.113870	0.374418	0.322439
	C160	C	0.374210	0.672396	0.888001
	C161	C	0.618127	0.669702	0.116039
	C162	C	0.621382	0.311327	0.889843
	C163	C	0.376452	0.315412	0.116517
	C164	C	0.683574	0.880310	0.378665
	C165	C	0.682025	0.103009	0.626051
	C166	C	0.321212	0.879997	0.625960
	C167	C	0.319107	0.103447	0.378229
	C168	C	0.878711	0.381644	0.181894
	C169	C	0.117221	0.608102	0.178163
	C170	C	0.118065	0.380667	0.824327
	C171	C	0.876285	0.605876	0.822221
	C172	C	0.179879	0.872002	0.387795
	C173	C	0.177929	0.111930	0.616933
	C174	C	0.822662	0.114490	0.387577
	C175	C	0.825702	0.872887	0.616599
	C176	C	0.386623	0.170868	0.880796
	C177	C	0.611731	0.171764	0.126514
	C178	C	0.384959	0.813707	0.124480
	C179	C	0.611237	0.808607	0.879571
	C180	C	0.385471	0.873419	0.180794
	C181	C	0.614337	0.109393	0.178921
	C182	C	0.386377	0.110826	0.825285
	C183	C	0.614030	0.870469	0.826286
	C184	C	0.879329	0.172280	0.387415
	C185	C	0.123002	0.171520	0.615620
	C186	C	0.124476	0.813398	0.388233
	C187	C	0.882330	0.815930	0.616278
	C188	C	0.179003	0.382143	0.878125
	C189	C	0.176487	0.607049	0.121311
	C190	C	0.819368	0.381632	0.125342
	C191	C	0.815718	0.604453	0.877773
	C192	C	0.402323	0.083612	0.599709
	C193	C	0.603349	0.898259	0.600871
	C194	C	0.599954	0.084083	0.404162
	C195	C	0.403324	0.900026	0.405149
	C196	C	0.594329	0.395366	0.096947
	C197	C	0.592175	0.587105	0.908026
	C198	C	0.398836	0.590866	0.096618
	C199	C	0.401472	0.393275	0.906813
	C200	C	0.093857	0.591556	0.404359
	C201	C	0.907211	0.593934	0.597699
	C202	C	0.093063	0.393796	0.599138
	C203	C	0.908429	0.395328	0.406291
	C204	C	0.898005	0.586108	0.098121
	C205	C	0.098125	0.401887	0.098695
	C206	C	0.097337	0.587065	0.902736
	C207	C	0.899724	0.400768	0.903813
	C208	C	0.099602	0.893348	0.597595
	C209	C	0.097923	0.089681	0.407405
	C210	C	0.905235	0.090616	0.595824
	C211	C	0.906553	0.897351	0.407672
	C212	C	0.592748	0.089808	0.907255
	C213	C	0.406710	0.091430	0.100092
	C214	C	0.591956	0.889554	0.098949
	C215	C	0.406126	0.893323	0.904748
	Zn216	Zn	0.501496	-0.009079	0.753295
	Zn217	Zn	0.501106	-0.008061	0.251567
	Zn218	Zn	0.745931	0.492272	0.001639
	Zn219	Zn	0.250147	0.493787	0.000135
	Zn220	Zn	0.001633	0.744746	0.501707
	Zn221	Zn	0.001359	0.241942	0.501267
	Zn222	Zn	-0.001230	0.493444	0.751282
	Zn223	Zn	-0.001020	0.494910	0.251855
	Zn224	Zn	0.496898	0.739472	0.001821
	Zn225	Zn	0.498728	0.243030	0.003487
	Zn226	Zn	0.753853	-0.007965	0.502147
	Zn227	Zn	0.249712	-0.008008	0.502388
	N228	N	0.417753	0.953948	0.679773
	N229	N	0.587954	0.027439	0.682029
	N230	N	0.586728	0.954711	0.323718
	N231	N	0.415408	0.028827	0.323413
	N232	N	0.676522	0.405345	0.966346
	N233	N	0.674643	0.577464	0.038459
	N234	N	0.321207	0.577403	0.963473
	N235	N	0.320515	0.407790	0.038014
	N236	N	0.966323	0.677099	0.412495
	N237	N	0.036722	0.673876	0.589559
	N238	N	0.965571	0.310569	0.590819
	N239	N	0.036279	0.310791	0.411763
	N240	N	0.962249	0.408823	0.678664
	N241	N	0.036832	0.577163	0.679020
	N242	N	0.962530	0.579397	0.324662
	N243	N	0.038033	0.410767	0.324999
	N244	N	0.408042	0.673060	0.966173
	N245	N	0.581811	0.668527	0.039001
	N246	N	0.585245	0.312456	0.966783
	N247	N	0.411411	0.313624	0.038896
	N248	N	0.684328	0.956550	0.413463
	N249	N	0.683925	0.026865	0.590951
	N250	N	0.319729	0.956216	0.591140
	N251	N	0.318868	0.027568	0.413785
	N252	N	0.913041	0.457636	0.180560
	N253	N	0.083106	0.532046	0.178665
	N254	N	0.082432	0.456471	0.824862
	N255	N	0.912422	0.530176	0.822724
	N256	N	0.179281	0.906884	0.465339
	N257	N	0.177505	0.076617	0.539550
	N258	N	0.822818	0.079604	0.465186
	N259	N	0.826027	0.908233	0.539076
	N260	N	0.463395	0.172487	0.915626
	N261	N	0.534251	0.174379	0.092899
	N262	N	0.461742	0.810468	0.089668
	N263	N	0.533703	0.807624	0.912889
	N264	N	0.462397	0.906614	0.180321
	N265	N	0.538398	0.074061	0.177720
	N266	N	0.463054	0.075711	0.825964
	N267	N	0.538201	0.907490	0.827306
	N268	N	0.914332	0.172613	0.464949
	N269	N	0.089125	0.172546	0.537400
	N270	N	0.090468	0.812123	0.466491
	N271	N	0.917176	0.816307	0.538760
	N272	N	0.180607	0.458948	0.911687
	N273	N	0.178705	0.530332	0.087320
	N274	N	0.817357	0.457558	0.089558
	N275	N	0.815041	0.527916	0.912361
	O276	O	-0.152287	0.054772	-0.023006
	H277	H	-0.143296	0.051262	-0.035070
	H278	H	-0.151470	0.066817	-0.012104
	O279	O	0.643698	0.463649	0.427396
	H280	H	0.645359	0.470464	0.414755
	H281	H	0.637600	0.461224	0.423499
	O282	O	0.857420	-0.046566	-0.071208
	H283	H	0.845405	-0.035493	-0.083203
	H284	H	0.857265	-0.042910	-0.080770
	O285	O	-0.075632	0.967716	0.092829
	H286	H	-0.086956	0.970031	0.091520
	H287	H	-0.071178	0.974294	0.082218
	O288	O	0.404356	0.645550	0.359001
	H289	H	0.402195	0.646156	0.363865
	H290	H	0.401604	0.637556	0.369741
	O291	O	1.008477	0.159203	1.095842
	H292	H	1.014774	0.160828	1.096868
	H293	H	1.017311	0.169987	1.097890
	O294	O	0.998068	0.831959	1.053015
	H295	H	0.993860	0.836335	1.069865
	H296	H	0.993261	0.832987	1.057119
	O297	O	0.090361	0.017159	0.015404
	H298	H	0.089932	0.009685	0.020166
	H299	H	0.089393	0.012720	0.006867
	O300	O	0.646238	0.446373	0.501806
	H301	H	0.644604	0.458691	0.501190
	H302	H	0.644940	0.444824	0.484328
	O303	O	0.040962	1.128429	0.967505
	H304	H	0.036141	1.120559	0.974794
	H305	H	0.055871	1.129176	0.965717
	O306	O	0.522440	0.687793	0.398636
	H307	H	0.518077	0.683034	0.406518
	H308	H	0.526663	0.703151	0.384272
	O309	O	1.151029	0.025203	0.084227
	H310	H	1.147362	0.022508	0.081800
	H311	H	1.159319	0.018707	0.080684
	O312	O	0.078437	0.060990	1.074534
	H313	H	0.076786	0.068590	1.086543
	H314	H	0.077476	0.044527	1.069947
	O315	O	0.599314	0.531561	0.591269
	H316	H	0.608725	0.529730	0.605750
	H317	H	0.601825	0.539832	0.565068
	O318	O	0.408003	0.393356	0.501291
	H319	H	0.402384	0.381517	0.507541
	H320	H	0.394861	0.394161	0.504481
	O321	O	0.333555	0.587975	0.555471
	H322	H	0.313737	0.602710	0.547847
	H323	H	0.332961	0.582307	0.535739
	O324	O	0.501914	0.473055	0.571110
	H325	H	0.510718	0.474086	0.568172
	H326	H	0.512780	0.467560	0.570374
	O327	O	-0.008418	0.924358	0.967287
	H328	H	-0.007811	0.923081	0.978788
	H329	H	-0.020094	0.922186	0.961280
	O330	O	0.665600	0.556716	0.576692
	H331	H	0.671061	0.547695	0.561336
	H332	H	0.664758	0.559430	0.571479
	O333	O	0.017244	1.096852	0.950754
	H334	H	0.018820	1.101703	0.943859
	H335	H	0.027387	1.096722	0.937144
	O336	O	1.041805	0.958074	1.128401
	H337	H	1.028590	0.949147	1.141673
	H338	H	1.052279	0.960611	1.122451
	O339	O	0.437663	0.507344	0.527628
	H340	H	0.435676	0.517395	0.509827
	H341	H	0.449754	0.518743	0.537930
	O342	O	1.246721	0.397251	-0.356732
	H343	H	1.248103	0.396465	-0.360603
	H344	H	1.253757	0.405297	-0.351182
	O345	O	-0.115500	1.014653	-0.017911
	H346	H	-0.107479	1.029136	-0.030164
	H347	H	-0.117113	1.016657	-0.028005
	O348	O	0.964749	0.902094	1.106782
	H349	H	0.956653	0.899769	1.101086
	H350	H	0.952190	0.903006	1.116285
	O351	O	0.921045	1.028084	-0.089561
	H352	H	0.916592	1.027983	-0.094123
	H353	H	0.918662	1.038794	-0.093494
	O354	O	0.502980	0.321900	0.363149
	H355	H	0.500052	0.307066	0.352030
	H356	H	0.515096	0.333928	0.373286
	O357	O	0.508895	0.648349	0.625133
	H358	H	0.511950	0.651642	0.604792
	H359	H	0.506232	0.639643	0.630912
	O360	O	-0.041965	0.113602	-0.065163
	H361	H	-0.032277	0.123055	-0.067451
	H362	H	-0.037156	0.112289	-0.075242
	O363	O	0.634249	0.393575	0.477889
	H364	H	0.637537	0.402303	0.489169
	H365	H	0.633255	0.409169	0.468963
	O366	O	0.507723	0.433392	0.526750
	H367	H	0.521073	0.429546	0.525634
	H368	H	0.509321	0.419386	0.521263
	O369	O	0.545647	0.306462	0.560096
	H370	H	0.549748	0.304601	0.582344
	H371	H	0.566822	0.299415	0.553678
	O372	O	0.313239	0.477680	0.472782
	H373	H	0.315689	0.472934	0.473172
	H374	H	0.310208	0.466726	0.486094
	O375	O	0.656792	0.615853	0.470923
	H376	H	0.659391	0.605225	0.474275
	H377	H	0.655229	0.630675	0.473031
	O378	O	0.364131	0.295128	0.579750
	H379	H	0.382426	0.293722	0.584203
	H380	H	0.360978	0.315167	0.578941
	O381	O	0.586709	0.661362	0.688878
	H382	H	0.586467	0.655111	0.689399
	H383	H	0.594801	0.658102	0.703256
	O384	O	0.056035	0.974071	-0.159272
	H385	H	0.057146	0.969416	-0.168922
	H386	H	0.069229	0.971157	-0.151576
	O387	O	0.465093	0.666073	1.463299
	H388	H	0.449974	0.670223	1.456669
	H389	H	0.450527	0.669129	1.452716
	O390	O	0.336924	0.325483	-0.480161
	H391	H	0.352734	0.328304	-0.477629
	H392	H	0.325336	0.303186	-0.480402
	O393	O	0.427081	1.381121	-0.348554
	H394	H	0.445342	1.401650	-0.352604
	H395	H	0.409155	1.384751	-0.348483
	O396	O	0.411433	0.528914	0.357158
	H397	H	0.418141	0.524344	0.359044
	H398	H	0.399329	0.526190	0.368111
	O399	O	0.049164	0.915898	0.998422
	H400	H	0.043450	0.911529	0.996590
	H401	H	0.042058	0.915955	0.995399
	O402	O	1.057029	0.953918	0.936682
	H403	H	1.063121	0.944526	0.935414
	H404	H	1.058239	0.960579	0.941545
	O405	O	0.660856	0.372373	0.351548
	H406	H	0.656648	0.368251	0.340496
	H407	H	0.658272	0.357913	0.353910
