data_Molecule from HDF5

_cell_length_a		16.314724
_cell_length_b		16.481543
_cell_length_c		16.151900
_cell_angle_alpha	90.239756
_cell_angle_beta	90.199934
_cell_angle_gamma	90.019490
_symmetry_space_group_name_H-M	'P 1'
_symmetry_Int_Tables_number		1

loop_
	_symmetry_equiv_pos_as_xyz
	x,y,z

loop_
	_atom_site_label
	_atom_site_type_symbol
	_atom_site_fract_x
	_atom_site_fract_y
	_atom_site_fract_z
	H0	H	0.389070	0.829914	0.723728
	H1	H	0.592953	0.150187	0.724440
	H2	H	0.589976	0.828204	0.287260
	H3	H	0.389147	0.150459	0.287986
	H4	H	0.706691	0.387080	0.843097
	H5	H	0.707979	0.592279	0.168620
	H6	H	0.272939	0.589984	0.842199
	H7	H	0.274626	0.390754	0.169937
	H8	H	0.828273	0.707659	0.399767
	H9	H	0.147958	0.711294	0.612741
	H10	H	0.828008	0.268774	0.608327
	H11	H	0.148804	0.267754	0.398539
	H12	H	0.826544	0.388041	0.722252
	H13	H	0.150705	0.590406	0.723291
	H14	H	0.826287	0.585389	0.291166
	H15	H	0.152850	0.390062	0.291556
	H16	H	0.387373	0.706745	0.843502
	H17	H	0.595262	0.708779	0.168085
	H18	H	0.595701	0.268463	0.844965
	H19	H	0.386330	0.272325	0.169071
	H20	H	0.708749	0.828173	0.400740
	H21	H	0.709575	0.149796	0.608075
	H22	H	0.267436	0.831569	0.611688
	H23	H	0.269059	0.149731	0.401455
	H24	H	0.893482	0.326756	0.218471
	H25	H	0.090108	0.650528	0.223107
	H26	H	0.088319	0.328015	0.788140
	H27	H	0.888480	0.650241	0.789423
	H28	H	0.205568	0.888126	0.342019
	H29	H	0.205873	0.092336	0.668738
	H30	H	0.775383	0.084792	0.340301
	H31	H	0.775318	0.890849	0.669082
	H32	H	0.330389	0.209910	0.900974
	H33	H	0.651056	0.209233	0.112028
	H34	H	0.330825	0.769991	0.109945
	H35	H	0.651789	0.770333	0.901343
	H36	H	0.326726	0.892401	0.217425
	H37	H	0.653459	0.086098	0.220578
	H38	H	0.327673	0.088711	0.790480
	H39	H	0.653733	0.891952	0.791610
	H40	H	0.887564	0.203233	0.340966
	H41	H	0.092757	0.209031	0.667361
	H42	H	0.091288	0.771039	0.343208
	H43	H	0.885353	0.772588	0.667570
	H44	H	0.208420	0.328420	0.902411
	H45	H	0.207639	0.650264	0.108036
	H46	H	0.771125	0.329476	0.107402
	H47	H	0.769537	0.649631	0.903254
	H48	H	0.400479	0.102375	0.597680
	H49	H	0.583023	0.874608	0.600180
	H50	H	0.586847	0.103804	0.413034
	H51	H	0.400794	0.879480	0.421722
	H52	H	0.584789	0.396759	0.124024
	H53	H	0.576462	0.583734	0.889921
	H54	H	0.402194	0.587024	0.122831
	H55	H	0.396402	0.397507	0.888818
	H56	H	0.105428	0.585776	0.417680
	H57	H	0.873680	0.584631	0.592183
	H58	H	0.106200	0.390945	0.596058
	H59	H	0.868097	0.382783	0.406213
	H60	H	0.099523	0.399747	0.585579
	H61	H	0.875567	0.577814	0.593938
	H62	H	0.102257	0.579945	0.420695
	H63	H	0.876945	0.394090	0.426178
	H64	H	0.395293	0.581844	0.124304
	H65	H	0.581828	0.581114	0.888103
	H66	H	0.579511	0.406743	0.119766
	H67	H	0.401675	0.402809	0.891777
	H68	H	0.578157	0.102063	0.411927
	H69	H	0.579378	0.877265	0.596334
	H70	H	0.398297	0.103345	0.594634
	H71	H	0.386943	0.873163	0.414181
	H72	H	0.898596	0.603155	0.097514
	H73	H	0.090509	0.374713	0.092459
	H74	H	0.086769	0.604630	0.914848
	H75	H	0.898973	0.375897	0.913547
	H76	H	0.076846	0.899053	0.621834
	H77	H	0.084993	0.070832	0.390559
	H78	H	0.898281	0.083962	0.622873
	H79	H	0.900407	0.896759	0.389232
	H80	H	0.607304	0.086442	0.915598
	H81	H	0.373398	0.085557	0.098233
	H82	H	0.607463	0.901111	0.101493
	H83	H	0.374639	0.895606	0.915604
	H84	H	0.608246	0.891941	0.096202
	H85	H	0.375918	0.083933	0.092332
	H86	H	0.604128	0.081060	0.922305
	H87	H	0.377737	0.897959	0.918660
	H88	H	0.898306	0.078502	0.621410
	H89	H	0.069197	0.080299	0.391870
	H90	H	0.079563	0.898871	0.622445
	H91	H	0.897251	0.893725	0.386898
	H92	H	0.079213	0.603254	0.910910
	H93	H	0.084224	0.371541	0.105581
	H94	H	0.895582	0.603677	0.096965
	H95	H	0.897785	0.376857	0.916408
	H96	H	0.397025	0.104748	0.597685
	H97	H	0.584594	0.875800	0.594989
	H98	H	0.582079	0.100713	0.420533
	H99	H	0.402125	0.874617	0.405765
	H100	H	0.573457	0.396555	0.120747
	H101	H	0.577898	0.577440	0.890595
	H102	H	0.402312	0.578264	0.120147
	H103	H	0.404322	0.394969	0.890762
	H104	H	0.105043	0.579817	0.413514
	H105	H	0.872322	0.582647	0.598400
	H106	H	0.101975	0.405451	0.599587
	H107	H	0.874529	0.406780	0.405639
	H108	H	0.897588	0.604515	0.100644
	H109	H	0.076387	0.378068	0.094873
	H110	H	0.080701	0.600999	0.919621
	H111	H	0.896436	0.374820	0.914244
	H112	H	0.078368	0.901160	0.620413
	H113	H	0.083447	0.088020	0.383918
	H114	H	0.902330	0.081177	0.620770
	H115	H	0.896104	0.898874	0.388207
	H116	H	0.605473	0.076888	0.913355
	H117	H	0.375258	0.079400	0.097095
	H118	H	0.603782	0.899731	0.090439
	H119	H	0.375935	0.899790	0.914966
	C120	C	0.367939	-0.001674	0.627600
	C121	C	0.612534	0.981693	0.627658
	C122	C	0.611628	-0.003561	0.384208
	C123	C	0.366811	0.981554	0.383449
	C124	C	0.610860	0.368339	0.014719
	C125	C	0.610425	0.610879	0.997137
	C126	C	0.368903	0.611625	0.014585
	C127	C	0.369666	0.368486	0.997940
	C128	C	-0.002170	0.610513	0.385495
	C129	C	0.980003	0.612210	0.627268
	C130	C	-0.003795	0.367838	0.625248
	C131	C	0.980345	0.365910	0.382831
	C132	C	0.868118	0.497495	0.127651
	C133	C	0.112840	0.481010	0.128139
	C134	C	0.111919	0.497095	0.883898
	C135	C	0.867015	0.481440	0.884065
	C136	C	0.109777	0.868472	0.514127
	C137	C	0.110244	0.110867	0.496501
	C138	C	0.868862	0.109542	0.513314
	C139	C	0.867752	0.867588	0.496034
	C140	C	0.499161	0.111319	0.885618
	C141	C	0.481773	0.111949	0.127333
	C142	C	0.499237	0.868226	0.126208
	C143	C	0.482373	0.867541	0.884420
	C144	C	0.368195	0.878084	0.685673
	C145	C	0.612331	0.102246	0.685517
	C146	C	0.610268	0.876021	0.325962
	C147	C	0.368443	0.102282	0.326206
	C148	C	0.668369	0.367546	0.892220
	C149	C	0.668894	0.611196	0.119710
	C150	C	0.311434	0.610041	0.891498
	C151	C	0.312701	0.370358	0.120811
	C152	C	0.876150	0.667648	0.382910
	C153	C	0.100567	0.670935	0.629993
	C154	C	0.875792	0.308813	0.626774
	C155	C	0.101402	0.307748	0.381143
	C156	C	0.875131	0.368295	0.683501
	C157	C	0.101875	0.610853	0.685102
	C158	C	0.875317	0.607193	0.328332
	C159	C	0.103134	0.368695	0.327830
	C160	C	0.368154	0.668369	0.892030
	C161	C	0.612899	0.669315	0.119529
	C162	C	0.612838	0.308674	0.892999
	C163	C	0.368429	0.311623	0.120480
	C164	C	0.669304	0.876195	0.382702
	C165	C	0.670407	0.101913	0.627481
	C166	C	0.308414	0.878845	0.629332
	C167	C	0.308655	0.101936	0.382818
	C168	C	0.871670	0.375519	0.181670
	C169	C	0.110561	0.602051	0.184991
	C170	C	0.109461	0.376136	0.826628
	C171	C	0.868385	0.602375	0.827752
	C172	C	0.166922	0.869040	0.391403
	C173	C	0.167290	0.111383	0.619579
	C174	C	0.812828	0.106094	0.389638
	C175	C	0.812384	0.869884	0.619737
	C176	C	0.377896	0.169545	0.883248
	C177	C	0.603308	0.169208	0.129315
	C178	C	0.378239	0.810332	0.127394
	C179	C	0.603572	0.809749	0.883010
	C180	C	0.376421	0.870817	0.181500
	C181	C	0.604350	0.108662	0.183832
	C182	C	0.376767	0.109582	0.827989
	C183	C	0.604681	0.870227	0.828350
	C184	C	0.868895	0.164564	0.389707
	C185	C	0.111455	0.169717	0.618790
	C186	C	0.110473	0.810315	0.391882
	C187	C	0.867645	0.811516	0.619212
	C188	C	0.169082	0.376430	0.883664
	C189	C	0.169416	0.601887	0.127894
	C190	C	0.811010	0.376880	0.126262
	C191	C	0.809123	0.601665	0.884189
	C192	C	0.391814	0.081712	0.603553
	C193	C	0.589035	0.897590	0.603725
	C194	C	0.588909	0.080485	0.408310
	C195	C	0.389805	0.897686	0.407128
	C196	C	0.586427	0.392905	0.099634
	C197	C	0.585875	0.587321	0.911658
	C198	C	0.392924	0.588934	0.100123
	C199	C	0.393809	0.391598	0.912534
	C200	C	0.082113	0.588413	0.410096
	C201	C	0.895748	0.588514	0.602279
	C202	C	0.080599	0.391832	0.600608
	C203	C	0.895207	0.388241	0.406065
	C204	C	0.890655	0.581991	0.104984
	C205	C	0.090325	0.396554	0.104498
	C206	C	0.088942	0.581145	0.908110
	C207	C	0.890724	0.397504	0.907789
	C208	C	0.085411	0.892631	0.599503
	C209	C	0.086080	0.086829	0.410951
	C210	C	0.892617	0.087539	0.599385
	C211	C	0.891217	0.889866	0.410325
	C212	C	0.583693	0.088236	0.910026
	C213	C	0.396839	0.089549	0.103036
	C214	C	0.584517	0.890996	0.102872
	C215	C	0.397955	0.890850	0.909064
	Zn216	Zn	0.490674	-0.009788	0.756840
	Zn217	Zn	0.490088	-0.010931	0.254869
	Zn218	Zn	0.738111	0.489636	0.005965
	Zn219	Zn	0.241803	0.489297	0.005935
	Zn220	Zn	-0.011828	0.740317	0.505449
	Zn221	Zn	-0.010795	0.238163	0.504199
	Zn222	Zn	-0.011116	0.489700	0.755028
	Zn223	Zn	-0.009746	0.489051	0.257181
	Zn224	Zn	0.490880	0.739301	0.006143
	Zn225	Zn	0.490092	0.240293	0.006612
	Zn226	Zn	0.741173	-0.011395	0.505137
	Zn227	Zn	0.237757	-0.009898	0.506204
	N228	N	0.404752	0.953275	0.684747
	N229	N	0.576818	0.026558	0.685457
	N230	N	0.574903	0.951686	0.326887
	N231	N	0.403840	0.026522	0.326205
	N232	N	0.666992	0.404163	0.968677
	N233	N	0.667375	0.575419	0.042582
	N234	N	0.311845	0.575468	0.968744
	N235	N	0.313210	0.404850	0.043485
	N236	N	0.953046	0.670024	0.417850
	N237	N	0.023798	0.671970	0.594734
	N238	N	0.952181	0.308706	0.591147
	N239	N	0.024139	0.305700	0.414728
	N240	N	0.951065	0.404510	0.682536
	N241	N	0.025903	0.574952	0.683525
	N242	N	0.951751	0.572227	0.329903
	N243	N	0.026825	0.404184	0.328770
	N244	N	0.403282	0.669481	0.969483
	N245	N	0.577267	0.669405	0.042278
	N246	N	0.577434	0.309199	0.970268
	N247	N	0.403293	0.310353	0.042970
	N248	N	0.670358	0.952148	0.418083
	N249	N	0.670829	0.025672	0.592536
	N250	N	0.308021	0.954516	0.594157
	N251	N	0.307483	0.025868	0.417588
	N252	N	0.906353	0.451598	0.182757
	N253	N	0.076307	0.525791	0.185501
	N254	N	0.074746	0.452103	0.826760
	N255	N	0.903492	0.526559	0.827249
	N256	N	0.166589	0.904475	0.468711
	N257	N	0.166753	0.075685	0.542529
	N258	N	0.812877	0.072748	0.467527
	N259	N	0.812190	0.903960	0.542326
	N260	N	0.454821	0.170836	0.918250
	N261	N	0.525826	0.171639	0.095360
	N262	N	0.455615	0.808820	0.093828
	N263	N	0.526393	0.807994	0.917149
	N264	N	0.452740	0.906255	0.180783
	N265	N	0.527909	0.073813	0.182882
	N266	N	0.453081	0.074073	0.829435
	N267	N	0.528303	0.905495	0.829056
	N268	N	0.902888	0.167105	0.467830
	N269	N	0.076754	0.169627	0.540954
	N270	N	0.075795	0.809778	0.469332
	N271	N	0.901069	0.809697	0.541118
	N272	N	0.170812	0.452861	0.918348
	N273	N	0.170954	0.525628	0.093304
	N274	N	0.808527	0.453761	0.093649
	N275	N	0.808366	0.525474	0.918504
	O276	O	-0.114685	-0.127321	-0.027431
	H277	H	-0.110677	-0.124089	-0.046314
	H278	H	-0.100774	-0.129887	-0.025575
	O279	O	0.636719	0.411809	0.438044
	H280	H	0.647247	0.419105	0.456177
	H281	H	0.627461	0.416171	0.444800
	O282	O	1.050648	0.091192	0.081273
	H283	H	1.050362	0.083752	0.087911
	H284	H	1.039812	0.085890	0.091439
	O285	O	-0.159537	1.050105	-0.061000
	H286	H	-0.159914	1.052093	-0.069000
	H287	H	-0.158441	1.063962	-0.060610
	O288	O	0.659818	0.302582	0.459028
	H289	H	0.660284	0.312119	0.452479
	H290	H	0.678375	0.296159	0.458906
	O291	O	1.008533	0.079210	0.997653
	H292	H	1.009895	0.072492	0.992672
	H293	H	1.002657	0.075172	0.989071
	O294	O	1.114075	0.928882	0.971914
	H295	H	1.105364	0.921287	0.966031
	H296	H	1.122311	0.921148	0.971776
	O297	O	-0.001607	-0.079049	0.103110
	H298	H	-0.006781	-0.086735	0.119974
	H299	H	-0.003252	-0.089971	0.102461
	O300	O	0.565169	0.350133	0.479966
	H301	H	0.565543	0.355655	0.479346
	H302	H	0.562816	0.360436	0.472433
	O303	O	0.041531	0.910338	0.869524
	H304	H	0.035709	0.915653	0.855910
	H305	H	0.042908	0.915452	0.882059
	O306	O	0.655846	0.637459	0.450839
	H307	H	0.657329	0.640634	0.451342
	H308	H	0.658606	0.636061	0.456993
	O309	O	1.066246	0.000092	-0.013514
	H310	H	1.076666	-0.007713	-0.018251
	H311	H	1.079468	0.006589	-0.003517
	O312	O	-0.017014	0.111016	0.962686
	H313	H	-0.017830	0.094987	0.961991
	H314	H	-0.013173	0.113582	0.965269
	O315	O	0.493100	0.622694	0.559794
	H316	H	0.506829	0.638815	0.568727
	H317	H	0.489115	0.615485	0.576179
	O318	O	0.421881	0.472982	0.662620
	H319	H	0.428175	0.486242	0.660565
	H320	H	0.418535	0.469687	0.645531
	O321	O	0.398108	0.640969	0.447193
	H322	H	0.388225	0.629797	0.431366
	H323	H	0.394538	0.644162	0.430324
	O324	O	0.307024	0.664674	0.328561
	H325	H	0.333938	0.661030	0.318274
	H326	H	0.313067	0.653667	0.340648
	O327	O	0.004805	0.931631	1.034200
	H328	H	0.002769	0.938400	1.040304
	H329	H	0.005630	0.940861	1.032009
	O330	O	1.106019	1.015423	1.038101
	H331	H	1.100752	1.023440	1.042436
	H332	H	1.104288	1.012524	1.048555
	O333	O	0.031368	0.871215	0.937791
	H334	H	0.024418	0.882187	0.929380
	H335	H	0.036174	0.864869	0.931535
	O336	O	1.050763	1.064598	1.103828
	H337	H	1.042557	1.058860	1.108263
	H338	H	1.052425	1.070347	1.111490
	O339	O	0.319588	0.468796	0.672766
	H340	H	0.324851	0.460563	0.674990
	H341	H	0.313689	0.456098	0.680403
	O342	O	1.651905	0.509834	-0.393290
	H343	H	1.658991	0.520751	-0.412632
	H344	H	1.644603	0.525710	-0.391856
	O345	O	0.034586	1.014375	-0.046471
	H346	H	0.047152	1.006205	-0.046832
	H347	H	0.031937	1.009658	-0.052179
	O348	O	1.071128	0.922459	0.973954
	H349	H	1.082715	0.938934	0.967441
	H350	H	1.080249	0.921622	0.973312
	O351	O	0.967587	1.032066	-0.001565
	H352	H	0.966283	1.028532	0.000655
	H353	H	0.977978	1.022772	0.013375
	O354	O	0.566277	0.518225	0.613420
	H355	H	0.568341	0.515537	0.607795
	H356	H	0.567853	0.521419	0.625675
	O357	O	0.659712	0.514455	0.416127
	H358	H	0.640082	0.505618	0.426027
	H359	H	0.676906	0.516084	0.417541
	O360	O	-0.065643	-0.026592	-0.011393
	H361	H	-0.067837	-0.010014	-0.015578
	H362	H	-0.059497	-0.032086	-0.006443
	O363	O	0.412544	0.538084	0.622862
	H364	H	0.408762	0.552537	0.625949
	H365	H	0.400933	0.545863	0.609796
	O366	O	0.361471	0.465282	0.555316
	H367	H	0.347044	0.467645	0.554303
	H368	H	0.360285	0.454347	0.544126
	O369	O	0.447263	0.332958	0.470449
	H370	H	0.456606	0.342230	0.469602
	H371	H	0.450667	0.329024	0.470793
	O372	O	0.297919	0.509102	0.353161
	H373	H	0.301066	0.516189	0.340522
	H374	H	0.289395	0.500781	0.361310
	O375	O	0.389160	0.545245	0.646294
	H376	H	0.394756	0.537339	0.641919
	H377	H	0.379727	0.545234	0.636000
	O378	O	0.373837	0.312752	0.656890
	H379	H	0.376472	0.300843	0.664615
	H380	H	0.385492	0.325869	0.669503
	O381	O	0.554036	0.579745	0.430159
	H382	H	0.565350	0.584480	0.427490
	H383	H	0.549852	0.560119	0.440233
	O384	O	0.387316	1.450577	-0.638923
	H385	H	0.389399	1.442964	-0.619885
	H386	H	0.387568	1.443581	-0.643913
	O387	O	0.535435	0.606875	1.530866
	H388	H	0.541555	0.601921	1.523107
	H389	H	0.530667	0.609676	1.530336
	O390	O	0.532841	0.382812	-0.555417
	H391	H	0.530762	0.365711	-0.553359
	H392	H	0.522407	0.389231	-0.547041
	O393	O	0.513177	1.460017	-0.660606
	H394	H	0.513538	1.462951	-0.643314
	H395	H	0.510448	1.438251	-0.666617
	O396	O	0.384917	0.696736	0.382312
	H397	H	0.382513	0.714079	0.369063
	H398	H	0.400367	0.688319	0.400586
	O399	O	0.414567	0.316923	0.556238
	H400	H	0.415143	0.324580	0.553881
	H401	H	0.417259	0.302622	0.564888
	O402	O	1.025343	1.001473	1.140021
	H403	H	1.024191	0.993397	1.144318
	H404	H	1.033994	1.008602	1.140598
	O405	O	0.651900	0.567259	0.694992
	H406	H	0.649433	0.570458	0.683791
	H407	H	0.631921	0.571093	0.714643
