data_Molecule from HDF5

_cell_length_a		16.365200
_cell_length_b		16.543340
_cell_length_c		16.421669
_cell_angle_alpha	89.940278
_cell_angle_beta	90.029371
_cell_angle_gamma	89.951755
_symmetry_space_group_name_H-M	'P 1'
_symmetry_Int_Tables_number		1

loop_
	_symmetry_equiv_pos_as_xyz
	x,y,z

loop_
	_atom_site_label
	_atom_site_type_symbol
	_atom_site_fract_x
	_atom_site_fract_y
	_atom_site_fract_z
	H0	H	0.398516	0.859965	0.732542
	H1	H	0.616616	0.170508	0.735021
	H2	H	0.613001	0.860757	0.284849
	H3	H	0.393206	0.171338	0.280834
	H4	H	0.726846	0.407718	0.850714
	H5	H	0.725439	0.620008	0.166759
	H6	H	0.281133	0.623718	0.851408
	H7	H	0.283134	0.410524	0.167133
	H8	H	0.848810	0.741297	0.399294
	H9	H	0.162108	0.737730	0.616313
	H10	H	0.849112	0.288699	0.621575
	H11	H	0.161887	0.292649	0.400594
	H12	H	0.847124	0.407280	0.732034
	H13	H	0.161580	0.621795	0.731984
	H14	H	0.846882	0.623201	0.286470
	H15	H	0.162285	0.408947	0.285841
	H16	H	0.394005	0.741601	0.852736
	H17	H	0.612900	0.739362	0.165582
	H18	H	0.612025	0.291690	0.850782
	H19	H	0.393382	0.289664	0.164288
	H20	H	0.727781	0.859782	0.402689
	H21	H	0.731698	0.171292	0.618804
	H22	H	0.281470	0.860212	0.616919
	H23	H	0.280164	0.172514	0.400531
	H24	H	0.893212	0.359880	0.235227
	H25	H	0.111863	0.671469	0.233389
	H26	H	0.114404	0.360251	0.782835
	H27	H	0.894595	0.671346	0.783054
	H28	H	0.228024	0.909539	0.351340
	H29	H	0.227421	0.121121	0.667677
	H30	H	0.783335	0.121912	0.351011
	H31	H	0.783922	0.910058	0.666292
	H32	H	0.347188	0.240133	0.897106
	H33	H	0.661262	0.240451	0.116904
	H34	H	0.347622	0.792258	0.117350
	H35	H	0.661347	0.790669	0.899690
	H36	H	0.347856	0.908494	0.231819
	H37	H	0.662583	0.123894	0.231013
	H38	H	0.347710	0.123590	0.782906
	H39	H	0.663794	0.908799	0.786591
	H40	H	0.893432	0.242739	0.353723
	H41	H	0.115718	0.240868	0.665853
	H42	H	0.115548	0.791553	0.351758
	H43	H	0.898516	0.792504	0.666035
	H44	H	0.230417	0.360264	0.899929
	H45	H	0.227871	0.672526	0.117119
	H46	H	0.779977	0.358296	0.116070
	H47	H	0.776390	0.669685	0.897878
	H48	H	0.420418	0.129146	0.602142
	H49	H	0.597160	0.904023	0.596267
	H50	H	0.593454	0.128858	0.420507
	H51	H	0.414422	0.901721	0.412404
	H52	H	0.586345	0.425021	0.119846
	H53	H	0.586406	0.599785	0.898375
	H54	H	0.420711	0.600713	0.118636
	H55	H	0.424078	0.425918	0.898275
	H56	H	0.120561	0.610381	0.420035
	H57	H	0.889837	0.606476	0.598800
	H58	H	0.115701	0.426537	0.590088
	H59	H	0.892403	0.430817	0.422976
	H60	H	0.115601	0.433754	0.595858
	H61	H	0.891465	0.606323	0.592205
	H62	H	0.115409	0.601462	0.427508
	H63	H	0.891153	0.427911	0.421277
	H64	H	0.419286	0.611287	0.123904
	H65	H	0.586127	0.606493	0.896147
	H66	H	0.594236	0.424789	0.122647
	H67	H	0.413023	0.422861	0.892370
	H68	H	0.592753	0.128678	0.419827
	H69	H	0.593293	0.903075	0.600444
	H70	H	0.423665	0.124206	0.590839
	H71	H	0.426085	0.908145	0.421076
	H72	H	0.916583	0.627655	0.101504
	H73	H	0.091486	0.405665	0.093993
	H74	H	0.090876	0.625863	0.921890
	H75	H	0.915597	0.404345	0.922783
	H76	H	0.098700	0.924687	0.624604
	H77	H	0.085011	0.108439	0.398889
	H78	H	0.915873	0.100068	0.620939
	H79	H	0.920349	0.929210	0.396815
	H80	H	0.618302	0.107585	0.921283
	H81	H	0.391762	0.105101	0.092339
	H82	H	0.618748	0.926001	0.096327
	H83	H	0.394448	0.928831	0.929322
	H84	H	0.617233	0.927016	0.093436
	H85	H	0.393374	0.100743	0.093518
	H86	H	0.615337	0.103083	0.925494
	H87	H	0.393246	0.935900	0.916228
	H88	H	0.923435	0.100734	0.618869
	H89	H	0.096945	0.107002	0.393815
	H90	H	0.092302	0.931385	0.619440
	H91	H	0.919820	0.923524	0.394574
	H92	H	0.093067	0.627809	0.920436
	H93	H	0.094744	0.404370	0.097643
	H94	H	0.919472	0.623827	0.093922
	H95	H	0.916531	0.403335	0.917950
	H96	H	0.412161	0.128480	0.592698
	H97	H	0.591868	0.905285	0.595266
	H98	H	0.592488	0.128516	0.420743
	H99	H	0.411272	0.905305	0.426846
	H100	H	0.591205	0.431572	0.119015
	H101	H	0.592379	0.602909	0.895879
	H102	H	0.410365	0.603689	0.123668
	H103	H	0.414522	0.434357	0.897221
	H104	H	0.118368	0.598589	0.415800
	H105	H	0.891862	0.601266	0.595900
	H106	H	0.119586	0.425805	0.598510
	H107	H	0.892036	0.427558	0.424234
	H108	H	0.911652	0.627601	0.094270
	H109	H	0.089571	0.404198	0.098434
	H110	H	0.090884	0.626826	0.919071
	H111	H	0.919909	0.405576	0.921207
	H112	H	0.089054	0.921679	0.621423
	H113	H	0.091080	0.097169	0.399221
	H114	H	0.919626	0.106742	0.622634
	H115	H	0.914851	0.927310	0.394278
	H116	H	0.617460	0.101035	0.919393
	H117	H	0.391028	0.102927	0.097376
	H118	H	0.617306	0.929218	0.096123
	H119	H	0.389117	0.921894	0.917031
	C120	C	0.385166	0.024145	0.629391
	C121	C	0.628620	1.007009	0.631185
	C122	C	0.626080	0.025096	0.387522
	C123	C	0.382555	1.007615	0.385861
	C124	C	0.625080	0.393572	0.016870
	C125	C	0.623929	0.636517	1.000491
	C126	C	0.382731	0.638488	0.017725
	C127	C	0.382653	0.394061	0.999746
	C128	C	0.013838	0.637263	0.387406
	C129	C	0.995643	0.636622	0.629151
	C130	C	0.013468	0.394096	0.630209
	C131	C	0.995831	0.394717	0.388182
	C132	C	0.881648	0.523361	0.130515
	C133	C	0.125630	0.507673	0.130500
	C134	C	0.126016	0.524041	0.886617
	C135	C	0.882193	0.506788	0.886078
	C136	C	0.127253	0.893449	0.517701
	C137	C	0.125842	0.137294	0.500850
	C138	C	0.884319	0.137243	0.517743
	C139	C	0.885011	0.894552	0.499949
	C140	C	0.513255	0.137528	0.886648
	C141	C	0.496102	0.136955	0.128780
	C142	C	0.513843	0.894395	0.129651
	C143	C	0.496683	0.894904	0.887589
	C144	C	0.381013	0.906768	0.691683
	C145	C	0.633759	0.123770	0.693992
	C146	C	0.629744	0.907357	0.326180
	C147	C	0.377108	0.124643	0.322793
	C148	C	0.686660	0.390133	0.898116
	C149	C	0.685450	0.638645	0.118950
	C150	C	0.321269	0.641598	0.899198
	C151	C	0.322034	0.391386	0.118977
	C152	C	0.895717	0.699700	0.382586
	C153	C	0.114731	0.697241	0.633412
	C154	C	0.896018	0.330750	0.636816
	C155	C	0.114416	0.333052	0.383479
	C156	C	0.894967	0.389686	0.692305
	C157	C	0.114258	0.639796	0.691139
	C158	C	0.894538	0.640847	0.326353
	C159	C	0.114397	0.391054	0.326070
	C160	C	0.377388	0.700858	0.899808
	C161	C	0.629667	0.698396	0.118328
	C162	C	0.629358	0.332207	0.898384
	C163	C	0.377441	0.331429	0.117690
	C164	C	0.687026	0.906967	0.384860
	C165	C	0.691091	0.124127	0.635743
	C166	C	0.322611	0.906965	0.634166
	C167	C	0.320363	0.125152	0.382115
	C168	C	0.877125	0.406396	0.193285
	C169	C	0.129396	0.625030	0.192426
	C170	C	0.131305	0.407200	0.823780
	C171	C	0.877089	0.624211	0.823868
	C172	C	0.188493	0.891161	0.399022
	C173	C	0.187567	0.139851	0.619782
	C174	C	0.822634	0.140659	0.398987
	C175	C	0.823987	0.891760	0.618930
	C176	C	0.394795	0.199438	0.880815
	C177	C	0.614100	0.199615	0.133930
	C178	C	0.395075	0.832830	0.134405
	C179	C	0.614638	0.832272	0.883062
	C180	C	0.395207	0.890820	0.191415
	C181	C	0.614672	0.141241	0.190864
	C182	C	0.395327	0.141773	0.823294
	C183	C	0.615722	0.891113	0.826615
	C184	C	0.877738	0.200727	0.400465
	C185	C	0.131927	0.199483	0.618924
	C186	C	0.132137	0.832310	0.399152
	C187	C	0.881174	0.833307	0.618567
	C188	C	0.188953	0.407170	0.882426
	C189	C	0.187027	0.625358	0.134164
	C190	C	0.820314	0.405658	0.133845
	C191	C	0.818372	0.623531	0.881295
	C192	C	0.411360	0.105907	0.603001
	C193	C	0.601800	0.925334	0.604731
	C194	C	0.600222	0.107142	0.413082
	C195	C	0.409483	0.926409	0.412380
	C196	C	0.598378	0.419718	0.099158
	C197	C	0.596289	0.610602	0.918252
	C198	C	0.409233	0.612589	0.100404
	C199	C	0.409470	0.420129	0.917594
	C200	C	0.096538	0.610924	0.413603
	C201	C	0.912467	0.611787	0.603044
	C202	C	0.095482	0.421106	0.602667
	C203	C	0.913419	0.420953	0.415237
	C204	C	0.908276	0.604968	0.104047
	C205	C	0.099350	0.426102	0.104155
	C206	C	0.099273	0.605550	0.912946
	C207	C	0.909576	0.425630	0.912794
	C208	C	0.101042	0.918634	0.600225
	C209	C	0.098863	0.111491	0.418914
	C210	C	0.911824	0.110536	0.599413
	C211	C	0.910755	0.919578	0.416892
	C212	C	0.595427	0.111341	0.914133
	C213	C	0.413604	0.110674	0.101956
	C214	C	0.596334	0.920131	0.102949
	C215	C	0.414002	0.921344	0.913457
	Zn216	Zn	0.505741	0.016034	0.758974
	Zn217	Zn	0.505108	0.016462	0.257700
	Zn218	Zn	0.753034	0.514890	0.007750
	Zn219	Zn	0.255347	0.516416	0.009175
	Zn220	Zn	0.005727	0.765321	0.508072
	Zn221	Zn	0.005176	0.266284	0.509445
	Zn222	Zn	0.003905	0.515497	0.757233
	Zn223	Zn	0.003930	0.515541	0.259821
	Zn224	Zn	0.504314	0.766369	0.008684
	Zn225	Zn	0.503814	0.265798	0.008098
	Zn226	Zn	0.755991	0.016084	0.508474
	Zn227	Zn	0.254781	0.016136	0.509151
	N228	N	0.419288	0.980656	0.688688
	N229	N	0.595398	0.049995	0.691307
	N230	N	0.592412	0.981751	0.327775
	N231	N	0.415040	0.050567	0.324879
	N232	N	0.684284	0.427336	0.972955
	N233	N	0.682095	0.600981	0.044419
	N234	N	0.324467	0.603708	0.973654
	N235	N	0.325181	0.429641	0.044713
	N236	N	0.970969	0.697616	0.419641
	N237	N	0.039823	0.695557	0.595632
	N238	N	0.970845	0.333221	0.598947
	N239	N	0.039602	0.335435	0.421420
	N240	N	0.969216	0.428321	0.688484
	N241	N	0.039200	0.602913	0.688593
	N242	N	0.969203	0.602725	0.329209
	N243	N	0.039361	0.428368	0.328600
	N244	N	0.414804	0.698895	0.974677
	N245	N	0.592306	0.697169	0.043373
	N246	N	0.592197	0.334010	0.973383
	N247	N	0.414182	0.332696	0.042403
	N248	N	0.684738	0.981123	0.422405
	N249	N	0.687781	0.050499	0.597221
	N250	N	0.325275	0.980719	0.595850
	N251	N	0.323665	0.051563	0.420726
	N252	N	0.914595	0.480773	0.191446
	N253	N	0.091808	0.550932	0.190259
	N254	N	0.092800	0.481005	0.826306
	N255	N	0.915946	0.550683	0.826638
	N256	N	0.185629	0.928528	0.473662
	N257	N	0.184148	0.101934	0.545371
	N258	N	0.826524	0.101928	0.472925
	N259	N	0.826249	0.929018	0.544088
	N260	N	0.469181	0.196955	0.919689
	N261	N	0.539378	0.196959	0.095992
	N262	N	0.469806	0.835108	0.096389
	N263	N	0.539518	0.834563	0.920124
	N264	N	0.469975	0.928388	0.188682
	N265	N	0.540165	0.103080	0.187783
	N266	N	0.470110	0.104153	0.826690
	N267	N	0.541132	0.929323	0.829166
	N268	N	0.915304	0.198886	0.475352
	N269	N	0.094384	0.198274	0.544065
	N270	N	0.094944	0.833354	0.474119
	N271	N	0.918366	0.834939	0.543571
	N272	N	0.185825	0.480706	0.920734
	N273	N	0.184809	0.551343	0.096249
	N274	N	0.822965	0.479489	0.095637
	N275	N	0.821415	0.549412	0.919273
	O276	O	0.326731	0.693542	0.328247
	H277	H	0.379166	0.705441	0.316120
	H278	H	0.319837	0.666149	0.346339
	O279	O	1.013123	-0.026365	1.028897
	H280	H	1.015640	-0.031795	1.016074
	H281	H	1.010019	-0.021409	1.036470
	O282	O	0.685847	0.699036	0.684364
	H283	H	0.674519	0.669688	0.692663
	H284	H	0.655103	0.688533	0.697215
	O285	O	0.303081	0.309654	0.596201
	H286	H	0.332315	0.313918	0.631812
	H287	H	0.275031	0.282196	0.578165
	O288	O	0.802822	1.029967	-0.195266
	H289	H	0.774898	1.022927	-0.206697
	H290	H	0.823580	1.019365	-0.187622
	O291	O	0.335903	0.725336	0.512388
	H292	H	0.339984	0.730182	0.496021
	H293	H	0.325214	0.735216	0.509736
	O294	O	-0.019142	-0.197405	1.217599
	H295	H	0.005764	-0.180671	1.208597
	H296	H	-0.012245	-0.217416	1.240655
	O297	O	0.833124	0.190146	-0.169043
	H298	H	0.832146	0.164243	-0.166170
	H299	H	0.865075	0.183423	-0.172349
	O300	O	1.010127	1.168868	-0.201543
	H301	H	1.014978	1.170501	-0.193089
	H302	H	1.013322	1.177169	-0.208285
	O303	O	0.388429	0.539731	0.541010
	H304	H	0.386722	0.542583	0.564635
	H305	H	0.398552	0.542677	0.546224
	O306	O	0.476300	0.651045	0.562018
	H307	H	0.469708	0.651998	0.551232
	H308	H	0.474939	0.642476	0.547106
	O309	O	0.391912	0.326591	0.701319
	H310	H	0.429444	0.317911	0.691021
	H311	H	0.391618	0.337761	0.719463
	O312	O	-0.201079	1.076469	1.072471
	H313	H	-0.199400	1.072825	1.046301
	H314	H	-0.203590	1.091174	1.056799
	O315	O	0.327936	0.681197	0.596165
	H316	H	0.330543	0.701739	0.574187
	H317	H	0.325458	0.683609	0.605428
	O318	O	0.900168	-0.039860	-0.099526
	H319	H	0.889751	-0.039359	-0.092357
	H320	H	0.887493	-0.045053	-0.097233
	O321	O	-0.205921	0.228814	-0.014224
	H322	H	-0.213002	0.239992	-0.017951
	H323	H	-0.212990	0.239090	-0.040395
	O324	O	0.489520	0.722328	0.304767
	H325	H	0.506581	0.726345	0.310875
	H326	H	0.509995	0.735423	0.297552
	O327	O	0.441912	0.338934	0.399389
	H328	H	0.415127	0.350106	0.408271
	H329	H	0.435446	0.358386	0.397561
	O330	O	0.025126	1.204034	0.026824
	H331	H	0.037799	1.208379	0.031583
	H332	H	0.037167	1.208096	0.029917
	O333	O	0.222040	0.800077	0.988533
	H334	H	0.237768	0.789810	0.961917
	H335	H	0.236497	0.795576	0.966833
	O336	O	0.068354	-0.196197	0.057048
	H337	H	0.084414	-0.202089	0.049473
	H338	H	0.087755	-0.194205	0.049166
	O339	O	-0.201590	0.987951	1.209319
	H340	H	-0.203513	1.010012	1.210177
	H341	H	-0.212460	1.006278	1.198890
	O342	O	0.080719	1.030872	0.910899
	H343	H	0.091041	1.023549	0.914509
	H344	H	0.088065	1.026225	0.903788
	O345	O	1.472916	0.613279	-0.551802
	H346	H	1.481561	0.614530	-0.556605
	H347	H	1.492188	0.608345	-0.547544
	O348	O	0.181532	0.192785	0.184170
	H349	H	0.153561	0.184411	0.198354
	H350	H	0.190683	0.161496	0.176802
	O351	O	-0.039685	1.057991	1.171995
	H352	H	-0.050373	1.066521	1.159592
	H353	H	-0.028995	1.057713	1.175603
	O354	O	-0.475277	0.299954	0.298471
	H355	H	-0.490431	0.294059	0.293598
	H356	H	-0.491191	0.294142	0.284822
	O357	O	-0.310686	-0.388392	0.408314
	H358	H	-0.293379	-0.373728	0.386072
	H359	H	-0.312187	-0.390231	0.416199
	O360	O	0.717257	0.297414	0.489570
	H361	H	0.733840	0.285819	0.467254
	H362	H	0.736135	0.306250	0.502631
	O363	O	-0.382309	-0.550689	1.648878
	H364	H	-0.399733	-0.550882	1.644945
	H365	H	-0.392969	-0.558421	1.645862
	O366	O	1.213887	0.031855	1.216327
	H367	H	1.236449	0.020560	1.230573
	H368	H	1.213259	0.012600	1.209334
	O369	O	0.720900	0.494840	0.526128
	H370	H	0.713178	0.519614	0.517393
	H371	H	0.715335	0.504898	0.549513
	O372	O	1.148009	-0.051314	1.141408
	H373	H	1.137421	-0.050066	1.137126
	H374	H	1.150917	-0.050521	1.143706
	O375	O	0.014240	0.034710	0.167656
	H376	H	0.029972	0.042485	0.144511
	H377	H	-0.000862	0.039740	0.182139
	O378	O	0.714429	0.729001	0.521008
	H379	H	0.723655	0.743410	0.552083
	H380	H	0.713717	0.734412	0.543410
	O381	O	0.316583	0.408390	0.447020
	H382	H	0.323324	0.410686	0.436888
	H383	H	0.296432	0.398157	0.454389
	O384	O	0.523458	0.718910	0.716910
	H385	H	0.508582	0.725456	0.702396
	H386	H	0.510135	0.720265	0.736096
	O387	O	-0.036988	-0.041119	1.004121
	H388	H	-0.042445	-0.059790	0.996808
	H389	H	-0.030427	-0.052132	0.998905
	O390	O	-0.488350	-0.479728	0.326159
	H391	H	-0.474077	-0.464664	0.331395
	H392	H	-0.488694	-0.480808	0.320955
	O393	O	0.789163	0.794400	1.029309
	H394	H	0.789466	0.796800	1.070011
	H395	H	0.763567	0.776033	1.046387
	O396	O	1.519818	0.300469	-0.337926
	H397	H	1.541838	0.285571	-0.365313
	H398	H	1.516899	0.292414	-0.347367
	O399	O	0.993167	-0.164205	0.833325
	H400	H	0.966210	-0.177469	0.832517
	H401	H	0.983917	-0.167298	0.846280
	O402	O	1.191668	0.926397	0.828789
	H403	H	1.186120	0.947574	0.815195
	H404	H	1.182345	0.937897	0.844877
	O405	O	1.023525	1.101914	-0.144679
	H406	H	1.002472	1.106816	-0.139872
	H407	H	1.017792	1.101959	-0.143869
	O408	O	1.127355	-0.183721	-0.193857
	H409	H	1.109616	-0.169486	-0.172239
	H410	H	1.103720	-0.198134	-0.212680
	O411	O	1.217535	1.228557	0.027592
	H412	H	1.253038	1.261357	0.033668
	H413	H	1.209801	1.203081	0.052065
	O414	O	0.462808	0.552330	0.726428
	H415	H	0.433849	0.539058	0.729541
	H416	H	0.466457	0.558524	0.722564
	O417	O	0.437667	0.615626	0.358547
	H418	H	0.439357	0.623638	0.368189
	H419	H	0.440162	0.622644	0.342618
	O420	O	-0.012468	0.231808	0.021844
	H421	H	-0.008930	0.236783	-0.000807
	H422	H	-0.017977	0.235840	0.013135
	O423	O	0.494648	0.516236	0.530459
	H424	H	0.501184	0.508143	0.531801
	H425	H	0.506653	0.507130	0.535084
	O426	O	0.816534	0.824823	0.193494
	H427	H	0.869668	0.815018	0.204072
	H428	H	0.808461	0.878504	0.201799
	O429	O	0.358858	0.498006	0.385374
	H430	H	0.365212	0.511352	0.385761
	H431	H	0.365015	0.504055	0.383920
	O432	O	0.710712	0.536995	0.711209
	H433	H	0.710093	0.520432	0.715262
	H434	H	0.721848	0.525691	0.715337
	O435	O	0.293843	0.495579	0.710921
	H436	H	0.303758	0.484684	0.688261
	H437	H	0.259536	0.500951	0.739759
	O438	O	0.222304	0.041158	-0.103815
	H439	H	0.236004	0.043650	-0.101968
	H440	H	0.206107	0.066163	-0.095989
	O441	O	0.944850	-0.169683	-0.081794
	H442	H	0.917735	-0.179597	-0.063025
	H443	H	0.955462	-0.169787	-0.058635
	O444	O	0.024007	1.232160	1.221531
	H445	H	0.014551	1.242871	1.211053
	H446	H	0.031737	1.246413	1.236896
	O447	O	0.713921	0.499287	0.296527
	H448	H	0.738487	0.500478	0.290748
	H449	H	0.715112	0.473083	0.297199
	O450	O	0.511284	0.344309	0.514900
	H451	H	0.527115	0.348520	0.500761
	H452	H	0.493089	0.343716	0.504129
	O453	O	0.681595	0.341266	0.332217
	H454	H	0.687011	0.353860	0.360711
	H455	H	0.630611	0.325042	0.317854
