data_Molecule from HDF5

_cell_length_a		16.362750
_cell_length_b		16.287592
_cell_length_c		16.437753
_cell_angle_alpha	90.348948
_cell_angle_beta	89.823563
_cell_angle_gamma	89.773944
_symmetry_space_group_name_H-M	'P 1'
_symmetry_Int_Tables_number		1

loop_
	_symmetry_equiv_pos_as_xyz
	x,y,z

loop_
	_atom_site_label
	_atom_site_type_symbol
	_atom_site_fract_x
	_atom_site_fract_y
	_atom_site_fract_z
	H0	H	0.381654	0.850585	0.721558
	H1	H	0.594352	0.168596	0.723288
	H2	H	0.594590	0.848972	0.279579
	H3	H	0.384112	0.169304	0.280490
	H4	H	0.711446	0.403487	0.841577
	H5	H	0.708644	0.612958	0.161115
	H6	H	0.266327	0.616617	0.843634
	H7	H	0.270148	0.406721	0.160955
	H8	H	0.827987	0.728149	0.400977
	H9	H	0.149914	0.729616	0.604325
	H10	H	0.829337	0.291784	0.603415
	H11	H	0.149876	0.289369	0.396562
	H12	H	0.831599	0.403429	0.724090
	H13	H	0.148685	0.616998	0.723475
	H14	H	0.829882	0.615106	0.281775
	H15	H	0.150072	0.405753	0.282190
	H16	H	0.387002	0.726390	0.840172
	H17	H	0.592509	0.731181	0.159550
	H18	H	0.595117	0.288304	0.841689
	H19	H	0.387788	0.290643	0.160759
	H20	H	0.709657	0.849257	0.396640
	H21	H	0.707623	0.170094	0.606702
	H22	H	0.270829	0.848101	0.602659
	H23	H	0.269275	0.168923	0.396690
	H24	H	0.887941	0.348905	0.219541
	H25	H	0.093059	0.671228	0.221231
	H26	H	0.096082	0.349481	0.779989
	H27	H	0.884617	0.669645	0.782506
	H28	H	0.210236	0.902665	0.341113
	H29	H	0.209889	0.114735	0.659352
	H30	H	0.768418	0.114844	0.341863
	H31	H	0.768904	0.908339	0.660546
	H32	H	0.330051	0.230246	0.899295
	H33	H	0.651560	0.226357	0.102896
	H34	H	0.328027	0.793038	0.100939
	H35	H	0.650261	0.791018	0.897234
	H36	H	0.329792	0.904051	0.221000
	H37	H	0.648487	0.113230	0.220985
	H38	H	0.329990	0.116223	0.780808
	H39	H	0.648912	0.904349	0.778799
	H40	H	0.888181	0.227084	0.339724
	H41	H	0.091717	0.230252	0.659625
	H42	H	0.092137	0.788492	0.340933
	H43	H	0.886216	0.792642	0.660814
	H44	H	0.209078	0.347877	0.899136
	H45	H	0.208183	0.671831	0.105429
	H46	H	0.774228	0.347662	0.102876
	H47	H	0.771746	0.669418	0.900639
	H48	H	0.404278	0.121334	0.586198
	H49	H	0.577564	0.897094	0.583942
	H50	H	0.579120	0.128835	0.398187
	H51	H	0.399707	0.893243	0.407289
	H52	H	0.584782	0.422244	0.114950
	H53	H	0.584015	0.596742	0.886968
	H54	H	0.400092	0.597024	0.113517
	H55	H	0.406188	0.425620	0.891606
	H56	H	0.107488	0.605683	0.407117
	H57	H	0.874433	0.603709	0.593255
	H58	H	0.105653	0.419317	0.593407
	H59	H	0.875113	0.417391	0.412308
	H60	H	0.103603	0.418964	0.584703
	H61	H	0.877075	0.599502	0.588965
	H62	H	0.100955	0.599339	0.418602
	H63	H	0.876333	0.423225	0.410021
	H64	H	0.403252	0.602088	0.113692
	H65	H	0.580141	0.598094	0.887724
	H66	H	0.579045	0.418850	0.114264
	H67	H	0.403221	0.413056	0.886657
	H68	H	0.566425	0.119049	0.414853
	H69	H	0.580533	0.893667	0.589223
	H70	H	0.393388	0.124646	0.588217
	H71	H	0.403150	0.894861	0.408885
	H72	H	0.899119	0.624303	0.091771
	H73	H	0.077673	0.399823	0.080426
	H74	H	0.075083	0.622118	0.914973
	H75	H	0.907358	0.395787	0.911000
	H76	H	0.080815	0.928630	0.611806
	H77	H	0.078130	0.092803	0.388777
	H78	H	0.895320	0.099685	0.614395
	H79	H	0.900786	0.922341	0.389138
	H80	H	0.604648	0.097442	0.908849
	H81	H	0.374117	0.095928	0.096388
	H82	H	0.605105	0.916291	0.089219
	H83	H	0.374745	0.917322	0.910513
	H84	H	0.602074	0.921716	0.086046
	H85	H	0.373400	0.106849	0.091397
	H86	H	0.603421	0.097757	0.911088
	H87	H	0.374782	0.921230	0.909560
	H88	H	0.901196	0.098883	0.613208
	H89	H	0.075920	0.102000	0.386369
	H90	H	0.073034	0.916026	0.613252
	H91	H	0.901534	0.916765	0.386387
	H92	H	0.082430	0.623839	0.914780
	H93	H	0.091481	0.391265	0.092385
	H94	H	0.899568	0.624646	0.093158
	H95	H	0.899636	0.394192	0.915088
	H96	H	0.401338	0.124972	0.596214
	H97	H	0.574170	0.896325	0.589987
	H98	H	0.588268	0.124761	0.418560
	H99	H	0.399130	0.894469	0.411168
	H100	H	0.584075	0.415809	0.116977
	H101	H	0.582369	0.600267	0.886788
	H102	H	0.398021	0.602057	0.115932
	H103	H	0.393571	0.422976	0.886909
	H104	H	0.102960	0.591424	0.406845
	H105	H	0.875450	0.597263	0.595277
	H106	H	0.101364	0.426109	0.589658
	H107	H	0.873809	0.418973	0.406242
	H108	H	0.900736	0.625010	0.092656
	H109	H	0.072584	0.395832	0.099179
	H110	H	0.078398	0.624580	0.909172
	H111	H	0.900464	0.392719	0.907122
	H112	H	0.087328	0.916101	0.617836
	H113	H	0.084726	0.098613	0.385376
	H114	H	0.899413	0.103770	0.614687
	H115	H	0.896231	0.919537	0.386140
	H116	H	0.602400	0.095578	0.909958
	H117	H	0.378401	0.097358	0.085247
	H118	H	0.603435	0.922554	0.093055
	H119	H	0.373646	0.918336	0.906786
	C120	C	0.367659	0.017921	0.621443
	C121	C	0.609091	1.001539	0.620539
	C122	C	0.610865	0.018305	0.378325
	C123	C	0.368406	1.000316	0.378135
	C124	C	0.613921	0.386780	0.009795
	C125	C	0.612875	0.631025	0.992301
	C126	C	0.368388	0.631379	0.009202
	C127	C	0.369655	0.389041	0.993444
	C128	C	-0.002120	0.630900	0.380184
	C129	C	0.980869	0.632077	0.623840
	C130	C	-0.001854	0.389432	0.621276
	C131	C	0.980983	0.388113	0.378480
	C132	C	0.869558	0.517926	0.122586
	C133	C	0.111497	0.501962	0.122498
	C134	C	0.111480	0.517605	0.880625
	C135	C	0.869943	0.500346	0.880611
	C136	C	0.111503	0.887550	0.509136
	C137	C	0.111154	0.130506	0.492064
	C138	C	0.866684	0.132490	0.509139
	C139	C	0.868030	0.889078	0.492691
	C140	C	0.498216	0.130138	0.879132
	C141	C	0.481376	0.130651	0.121835
	C142	C	0.497668	0.888634	0.120449
	C143	C	0.480569	0.887360	0.877631
	C144	C	0.364420	0.898066	0.681444
	C145	C	0.611622	0.121136	0.682463
	C146	C	0.613192	0.897435	0.319168
	C147	C	0.366254	0.121175	0.319798
	C148	C	0.672564	0.384898	0.889677
	C149	C	0.670049	0.632278	0.112813
	C150	C	0.307820	0.633351	0.890335
	C151	C	0.309943	0.387887	0.113236
	C152	C	0.876460	0.689214	0.380895
	C153	C	0.101618	0.690867	0.623827
	C154	C	0.877749	0.330514	0.622805
	C155	C	0.101815	0.329139	0.377896
	C156	C	0.878733	0.386087	0.682929
	C157	C	0.101033	0.634796	0.683045
	C158	C	0.877489	0.633170	0.321543
	C159	C	0.101912	0.386827	0.320562
	C160	C	0.367597	0.688512	0.888662
	C161	C	0.612442	0.691197	0.112143
	C162	C	0.614607	0.327567	0.889682
	C163	C	0.368658	0.330239	0.113222
	C164	C	0.670794	0.897631	0.377026
	C165	C	0.668354	0.121896	0.624395
	C166	C	0.309224	0.896921	0.622069
	C167	C	0.308768	0.120917	0.377545
	C168	C	0.868989	0.396783	0.180396
	C169	C	0.111954	0.623084	0.181665
	C170	C	0.114333	0.397291	0.820412
	C171	C	0.866798	0.621140	0.821885
	C172	C	0.170554	0.884823	0.388850
	C173	C	0.170158	0.133203	0.611882
	C174	C	0.808020	0.133407	0.389439
	C175	C	0.808413	0.888906	0.612651
	C176	C	0.377996	0.190708	0.879462
	C177	C	0.602697	0.188084	0.122389
	C178	C	0.376683	0.830862	0.120894
	C179	C	0.601664	0.829400	0.877501
	C180	C	0.377577	0.886396	0.180581
	C181	C	0.601417	0.131653	0.180912
	C182	C	0.377795	0.133464	0.820772
	C183	C	0.601091	0.885958	0.818701
	C184	C	0.867711	0.189314	0.388454
	C185	C	0.111196	0.190415	0.611963
	C186	C	0.111802	0.827759	0.388934
	C187	C	0.866777	0.831455	0.612897
	C188	C	0.170641	0.396653	0.879730
	C189	C	0.169415	0.623419	0.124119
	C190	C	0.812494	0.396204	0.122243
	C191	C	0.810336	0.621198	0.880606
	C192	C	0.392443	0.101836	0.597171
	C193	C	0.584403	0.917564	0.594972
	C194	C	0.585264	0.102343	0.403325
	C195	C	0.393520	0.916003	0.402096
	C196	C	0.589620	0.411751	0.093592
	C197	C	0.589013	0.605769	0.908769
	C198	C	0.393350	0.607264	0.092732
	C199	C	0.394070	0.413382	0.909909
	C200	C	0.081741	0.606194	0.404121
	C201	C	0.897516	0.607430	0.599533
	C202	C	0.081681	0.414341	0.596570
	C203	C	0.897036	0.412800	0.402642
	C204	C	0.892944	0.602543	0.099295
	C205	C	0.087567	0.417675	0.097868
	C206	C	0.086043	0.601701	0.905671
	C207	C	0.895296	0.416143	0.904311
	C208	C	0.087408	0.912894	0.592595
	C209	C	0.086738	0.105014	0.408853
	C210	C	0.891222	0.107901	0.592498
	C211	C	0.892496	0.912749	0.408988
	C212	C	0.581757	0.104218	0.902912
	C213	C	0.397347	0.106982	0.097774
	C214	C	0.581632	0.913176	0.096489
	C215	C	0.396442	0.911859	0.901778
	Zn216	Zn	0.488780	0.009167	0.749370
	Zn217	Zn	0.489283	0.009029	0.249787
	Zn218	Zn	0.741582	0.508221	0.001829
	Zn219	Zn	0.240149	0.510403	0.002041
	Zn220	Zn	-0.011266	0.759763	0.501493
	Zn221	Zn	-0.010525	0.260243	0.499979
	Zn222	Zn	-0.009417	0.509677	0.751423
	Zn223	Zn	-0.009847	0.509878	0.250866
	Zn224	Zn	0.489362	0.759479	-0.000137
	Zn225	Zn	0.491129	0.259186	0.000900
	Zn226	Zn	0.738364	0.010448	0.500702
	Zn227	Zn	0.240320	0.009005	0.500138
	N228	N	0.400145	0.974281	0.681252
	N229	N	0.575327	0.045160	0.679972
	N230	N	0.576836	0.973516	0.319876
	N231	N	0.402549	0.045006	0.320100
	N232	N	0.672261	0.420995	0.965569
	N233	N	0.670628	0.595841	0.037188
	N234	N	0.307967	0.598673	0.966445
	N235	N	0.310535	0.423615	0.037727
	N236	N	0.952322	0.687989	0.416465
	N237	N	0.025659	0.689797	0.587967
	N238	N	0.952898	0.332350	0.585180
	N239	N	0.025619	0.329816	0.413359
	N240	N	0.954577	0.421999	0.682017
	N241	N	0.025223	0.598975	0.683314
	N242	N	0.953833	0.597590	0.320898
	N243	N	0.025755	0.422750	0.320763
	N244	N	0.404699	0.687309	0.963588
	N245	N	0.577397	0.690283	0.036256
	N246	N	0.578831	0.328743	0.965270
	N247	N	0.405221	0.330956	0.037762
	N248	N	0.669368	0.973871	0.413348
	N249	N	0.666573	0.046667	0.586292
	N250	N	0.311077	0.972579	0.585384
	N251	N	0.310263	0.044895	0.413368
	N252	N	0.903586	0.473546	0.180894
	N253	N	0.076531	0.546610	0.180780
	N254	N	0.078212	0.473639	0.820780
	N255	N	0.903119	0.544926	0.821769
	N256	N	0.170636	0.921024	0.464690
	N257	N	0.170094	0.096698	0.536311
	N258	N	0.807045	0.099228	0.465668
	N259	N	0.809079	0.924060	0.536720
	N260	N	0.453917	0.188828	0.914899
	N261	N	0.527024	0.187695	0.086449
	N262	N	0.452326	0.832074	0.084193
	N263	N	0.525628	0.829924	0.913252
	N264	N	0.453802	0.921627	0.180527
	N265	N	0.525065	0.096832	0.180908
	N266	N	0.453551	0.096609	0.820402
	N267	N	0.524477	0.920864	0.818274
	N268	N	0.903412	0.188939	0.464031
	N269	N	0.075541	0.189147	0.536402
	N270	N	0.076086	0.829081	0.464716
	N271	N	0.902809	0.831204	0.537312
	N272	N	0.168968	0.472787	0.916165
	N273	N	0.169103	0.547264	0.087995
	N274	N	0.812618	0.472602	0.087094
	N275	N	0.812121	0.545091	0.916300
	O276	O	0.559540	0.523731	0.298103
	H277	H	0.553389	0.514948	0.301193
	H278	H	0.547186	0.512545	0.293708
	O279	O	0.483717	0.657917	0.663222
	H280	H	0.468852	0.676303	0.679402
	H281	H	0.468999	0.659797	0.652825
	O282	O	0.583274	0.312295	0.532688
	H283	H	0.572400	0.309027	0.533425
	H284	H	0.573291	0.310182	0.525798
	O285	O	1.005261	-0.194879	-0.204404
	H286	H	1.021581	-0.212728	-0.222550
	H287	H	1.036466	-0.187138	-0.201125
	O288	O	-0.020835	-0.072318	1.064943
	H289	H	-0.013759	-0.064060	1.057727
	H290	H	-0.030685	-0.065358	1.063215
	O291	O	0.452984	0.350336	0.338274
	H292	H	0.471560	0.359095	0.342805
	H293	H	0.459178	0.336483	0.345233
	O294	O	0.659460	0.306028	0.460374
	H295	H	0.674677	0.290723	0.455047
	H296	H	0.630584	0.297552	0.465167
	O297	O	1.006753	0.860264	1.003428
	H298	H	0.999357	0.848143	1.012623
	H299	H	0.985765	0.870752	1.013355
	O300	O	0.067747	-0.125379	0.150947
	H301	H	0.054619	-0.128737	0.146596
	H302	H	0.050466	-0.127180	0.158594
	O303	O	0.477499	0.515197	0.528611
	H304	H	0.480781	0.516039	0.515306
	H305	H	0.462363	0.514693	0.528340
	O306	O	0.845813	-0.078546	0.182590
	H307	H	0.844020	-0.065778	0.177149
	H308	H	0.854529	-0.075156	0.188605
	O309	O	0.548909	0.586489	0.646625
	H310	H	0.554181	0.576879	0.649147
	H311	H	0.557122	0.593402	0.636178
	O312	O	1.092281	1.029264	-0.017218
	H313	H	1.100053	1.046873	-0.002737
	H314	H	1.107106	1.025886	-0.032284
	O315	O	0.627454	0.433287	0.549032
	H316	H	0.636604	0.447475	0.540923
	H317	H	0.623829	0.411652	0.536159
	O318	O	0.460897	0.466495	0.493525
	H319	H	0.450002	0.475899	0.485357
	H320	H	0.465910	0.445093	0.511798
	O321	O	0.915562	-0.059289	1.156524
	H322	H	0.907583	-0.056901	1.142206
	H323	H	0.906643	-0.055844	1.160937
	O324	O	0.139084	0.162093	1.025735
	H325	H	0.139728	0.156134	1.030272
	H326	H	0.145567	0.166244	1.033019
	O327	O	0.310696	0.446737	0.326105
	H328	H	0.308833	0.450848	0.322838
	H329	H	0.322945	0.453304	0.335957
	O330	O	0.600220	0.588581	0.425298
	H331	H	0.596136	0.584427	0.431110
	H332	H	0.583267	0.581351	0.427170
	O333	O	1.319417	0.697746	1.406369
	H334	H	1.319859	0.692818	1.391392
	H335	H	1.327939	0.713093	1.400932
	O336	O	0.595404	0.667840	0.525354
	H337	H	0.611142	0.670846	0.529450
	H338	H	0.590843	0.652623	0.525383
	O339	O	0.847261	0.139620	0.854646
	H340	H	0.860122	0.142797	0.849317
	H341	H	0.836030	0.130971	0.853838
	O342	O	0.125761	0.866841	0.891162
	H343	H	0.133054	0.880867	0.885544
	H344	H	0.123834	0.863405	0.917094
	O345	O	-0.106212	1.006268	0.835208
	H346	H	-0.107172	0.997850	0.837930
	H347	H	-0.110389	0.984956	0.837706
	O348	O	0.290309	0.427393	0.548075
	H349	H	0.279398	0.432863	0.556746
	H350	H	0.291023	0.421965	0.544910
	O351	O	-0.122890	0.166328	-0.054680
	H352	H	-0.116802	0.174078	-0.058583
	H353	H	-0.112892	0.165882	-0.065502
	O354	O	1.083374	1.150771	0.069007
	H355	H	1.090096	1.130737	0.068354
	H356	H	1.082347	1.158251	0.070478
	O357	O	0.042432	0.965522	-0.082880
	H358	H	0.042026	0.957396	-0.071913
	H359	H	0.038376	0.958265	-0.082713
	O360	O	0.480822	0.679056	0.657627
	H361	H	0.499771	0.683147	0.662131
	H362	H	0.485796	0.691788	0.646000
	O363	O	0.517645	0.435287	0.653744
	H364	H	0.521492	0.430564	0.654975
	H365	H	0.529207	0.455484	0.665051
	O366	O	0.571358	0.456543	0.629774
	H367	H	0.577748	0.463805	0.634509
	H368	H	0.578015	0.475217	0.628558
	O369	O	0.413480	0.630724	0.518198
	H370	H	0.414691	0.631005	0.524488
	H371	H	0.407485	0.637981	0.516376
	O372	O	0.369642	0.549055	0.348439
	H373	H	0.370462	0.530608	0.355653
	H374	H	0.373594	0.553324	0.341711
	O375	O	0.786539	0.053879	0.002130
	H376	H	0.785056	0.058887	0.003497
	H377	H	0.780553	0.048474	-0.009391
	O378	O	0.390816	0.516169	0.605522
	H379	H	0.379047	0.535830	0.611791
	H380	H	0.395392	0.516040	0.609617
	O381	O	0.681926	0.502688	0.372455
	H382	H	0.685749	0.516988	0.381311
	H383	H	0.677801	0.511456	0.359302
	O384	O	-0.001237	0.866213	0.837477
	H385	H	-0.005341	0.871128	0.843235
	H386	H	0.013795	0.851762	0.847440
	O387	O	1.063251	1.117515	0.060359
	H388	H	1.067291	1.116817	0.058696
	H389	H	1.053234	1.133217	0.064092
	O390	O	0.551339	0.690790	0.455807
	H391	H	0.544196	0.680792	0.471046
	H392	H	0.560045	0.686090	0.462022
	O393	O	1.408822	-0.413105	0.299813
	H394	H	1.408303	-0.408034	0.313284
	H395	H	1.409148	-0.418592	0.294356
	O396	O	-0.111640	0.959812	1.011843
	H397	H	-0.121242	0.957937	1.016431
	H398	H	-0.113545	0.968968	1.012698
	O399	O	0.675503	0.645140	0.689885
	H400	H	0.651796	0.643384	0.681256
	H401	H	0.693385	0.626602	0.695918
	O402	O	1.094718	0.050149	1.096548
	H403	H	1.088732	0.043758	1.084647
	H404	H	1.094578	0.046193	1.107960
	O405	O	-0.039486	0.138401	-0.034434
	H406	H	-0.036598	0.140108	-0.023032
	H407	H	-0.048140	0.143473	-0.037525
	O408	O	0.950755	1.087146	1.081999
	H409	H	0.958529	1.092126	1.083319
	H410	H	0.943075	1.083756	1.087172
	O411	O	1.091793	1.119602	-0.071690
	H412	H	1.110483	1.105632	-0.066917
	H413	H	1.078715	1.111729	-0.078084
	O414	O	-0.070096	-0.015639	0.956897
	H415	H	-0.065411	-0.027381	0.960837
	H416	H	-0.080631	-0.021553	0.951501
	O417	O	0.280829	0.414829	0.646395
	H418	H	0.280439	0.389720	0.652474
	H419	H	0.264176	0.403946	0.669926
	O420	O	-0.010342	0.999096	0.124846
	H421	H	-0.017192	1.001472	0.128670
	H422	H	-0.016201	0.997363	0.114051
	O423	O	1.599678	-0.667196	-0.682679
	H424	H	1.604068	-0.670307	-0.659669
	H425	H	1.611040	-0.657647	-0.695450
	O426	O	-0.008780	0.003829	1.089710
	H427	H	-0.009759	0.005692	1.090605
	H428	H	0.001493	-0.000481	1.097194
	O429	O	0.324579	0.327195	0.662780
	H430	H	0.357225	0.334779	0.670526
	H431	H	0.332309	0.317757	0.665171
