data_Molecule from HDF5

_cell_length_a		16.286754
_cell_length_b		16.190694
_cell_length_c		16.240492
_cell_angle_alpha	89.768343
_cell_angle_beta	89.826559
_cell_angle_gamma	90.045135
_symmetry_space_group_name_H-M	'P 1'
_symmetry_Int_Tables_number		1

loop_
	_symmetry_equiv_pos_as_xyz
	x,y,z

loop_
	_atom_site_label
	_atom_site_type_symbol
	_atom_site_fract_x
	_atom_site_fract_y
	_atom_site_fract_z
	H0	H	0.402504	0.846166	0.719328
	H1	H	0.601153	0.174969	0.712730
	H2	H	0.603296	0.845676	0.286382
	H3	H	0.405583	0.173821	0.287873
	H4	H	0.719847	0.408475	0.839311
	H5	H	0.719259	0.609201	0.165478
	H6	H	0.287597	0.609648	0.838573
	H7	H	0.286435	0.405954	0.164978
	H8	H	0.840492	0.722774	0.402268
	H9	H	0.167170	0.722345	0.600912
	H10	H	0.840571	0.291600	0.603062
	H11	H	0.167748	0.293952	0.403181
	H12	H	0.841176	0.405675	0.719395
	H13	H	0.166469	0.607937	0.717352
	H14	H	0.840508	0.608672	0.286289
	H15	H	0.166966	0.408658	0.285865
	H16	H	0.404830	0.724622	0.837650
	H17	H	0.602851	0.723599	0.165504
	H18	H	0.600620	0.298366	0.837074
	H19	H	0.404563	0.294165	0.165543
	H20	H	0.719020	0.845057	0.400984
	H21	H	0.720456	0.171904	0.600207
	H22	H	0.289175	0.844453	0.602912
	H23	H	0.288279	0.172611	0.401967
	H24	H	0.902763	0.344207	0.218594
	H25	H	0.104028	0.671133	0.215897
	H26	H	0.102502	0.342946	0.788420
	H27	H	0.903478	0.671187	0.785650
	H28	H	0.220832	0.908157	0.338318
	H29	H	0.217719	0.106878	0.665912
	H30	H	0.788867	0.109429	0.337831
	H31	H	0.785525	0.905081	0.664196
	H32	H	0.338980	0.223818	0.903638
	H33	H	0.666784	0.224062	0.099648
	H34	H	0.340865	0.792210	0.102664
	H35	H	0.666967	0.793996	0.900801
	H36	H	0.339829	0.908721	0.217555
	H37	H	0.665679	0.111236	0.217603
	H38	H	0.340263	0.110838	0.786012
	H39	H	0.666400	0.910639	0.785445
	H40	H	0.905365	0.224049	0.338738
	H41	H	0.101563	0.220806	0.666702
	H42	H	0.105210	0.791911	0.338578
	H43	H	0.903438	0.791308	0.665384
	H44	H	0.219985	0.343703	0.901529
	H45	H	0.219757	0.670845	0.102705
	H46	H	0.786391	0.344367	0.104474
	H47	H	0.787963	0.671633	0.900756
	H48	H	0.406373	0.127666	0.594719
	H49	H	0.594516	0.891408	0.596504
	H50	H	0.604811	0.126206	0.418160
	H51	H	0.410796	0.893754	0.415721
	H52	H	0.597663	0.421695	0.118158
	H53	H	0.594548	0.598732	0.886715
	H54	H	0.410253	0.602605	0.118741
	H55	H	0.409242	0.408878	0.881220
	H56	H	0.121427	0.597107	0.400013
	H57	H	0.885202	0.601326	0.597973
	H58	H	0.120002	0.416700	0.594504
	H59	H	0.889962	0.424736	0.409729
	H60	H	0.121407	0.414016	0.597571
	H61	H	0.887062	0.600785	0.591809
	H62	H	0.121554	0.607791	0.412684
	H63	H	0.884005	0.410797	0.403685
	H64	H	0.407643	0.596979	0.118629
	H65	H	0.595137	0.605206	0.884935
	H66	H	0.589293	0.414486	0.117837
	H67	H	0.403887	0.422396	0.884449
	H68	H	0.599189	0.130765	0.397999
	H69	H	0.593261	0.892748	0.594193
	H70	H	0.412521	0.126028	0.595903
	H71	H	0.407413	0.890413	0.407113
	H72	H	0.906113	0.628306	0.100278
	H73	H	0.085010	0.394092	0.091122
	H74	H	0.095952	0.623658	0.912469
	H75	H	0.916650	0.391100	0.904816
	H76	H	0.085028	0.922987	0.612246
	H77	H	0.093691	0.099703	0.386809
	H78	H	0.914196	0.098573	0.617299
	H79	H	0.915494	0.914456	0.386171
	H80	H	0.620128	0.100889	0.904015
	H81	H	0.384902	0.112154	0.089436
	H82	H	0.617960	0.915808	0.085881
	H83	H	0.385749	0.919232	0.901964
	H84	H	0.617994	0.924331	0.097009
	H85	H	0.390904	0.092390	0.089589
	H86	H	0.621259	0.107909	0.905873
	H87	H	0.386280	0.909103	0.913976
	H88	H	0.907932	0.101824	0.620243
	H89	H	0.097029	0.104491	0.384831
	H90	H	0.092575	0.900089	0.621460
	H91	H	0.908557	0.913150	0.383026
	H92	H	0.097468	0.624820	0.908266
	H93	H	0.102299	0.390153	0.087153
	H94	H	0.919830	0.622456	0.095091
	H95	H	0.913286	0.393567	0.919612
	H96	H	0.409776	0.125509	0.589577
	H97	H	0.596088	0.891678	0.593903
	H98	H	0.586268	0.121379	0.411569
	H99	H	0.416009	0.891583	0.407503
	H100	H	0.599110	0.411515	0.122210
	H101	H	0.601015	0.600431	0.884863
	H102	H	0.414054	0.598236	0.116700
	H103	H	0.418163	0.418441	0.887987
	H104	H	0.114864	0.591764	0.415818
	H105	H	0.888914	0.595711	0.595354
	H106	H	0.120347	0.413058	0.593278
	H107	H	0.888843	0.411469	0.419149
	H108	H	0.907462	0.623521	0.085828
	H109	H	0.096960	0.387140	0.104128
	H110	H	0.093632	0.623687	0.907916
	H111	H	0.902293	0.388077	0.910302
	H112	H	0.109237	0.920724	0.621066
	H113	H	0.098954	0.098918	0.385179
	H114	H	0.908091	0.094301	0.617205
	H115	H	0.910713	0.919889	0.386208
	H116	H	0.619162	0.102614	0.910308
	H117	H	0.383940	0.101177	0.106811
	H118	H	0.622077	0.912574	0.097664
	H119	H	0.391000	0.923735	0.916353
	C120	C	0.381112	0.018090	0.623869
	C121	C	0.624324	1.000504	0.623158
	C122	C	0.625151	0.017555	0.380051
	C123	C	0.382330	1.000433	0.380748
	C124	C	0.624780	0.387375	0.011023
	C125	C	0.625800	0.630864	0.993253
	C126	C	0.381961	0.629753	0.009996
	C127	C	0.381276	0.386722	0.992934
	C128	C	0.012042	0.629283	0.379945
	C129	C	0.994859	0.628624	0.623735
	C130	C	0.012616	0.384961	0.624784
	C131	C	0.995278	0.386336	0.380948
	C132	C	0.881225	0.516696	0.124328
	C133	C	0.124523	0.498861	0.122940
	C134	C	0.125018	0.515814	0.880621
	C135	C	0.881892	0.499311	0.881320
	C136	C	0.125769	0.885568	0.510367
	C137	C	0.125189	0.129433	0.493769
	C138	C	0.881749	0.128592	0.510501
	C139	C	0.881773	0.885778	0.493042
	C140	C	0.511983	0.132521	0.878749
	C141	C	0.494795	0.130926	0.123203
	C142	C	0.511657	0.887280	0.123699
	C143	C	0.495250	0.888280	0.880371
	C144	C	0.382952	0.894998	0.680772
	C145	C	0.621997	0.124932	0.676142
	C146	C	0.623276	0.894479	0.324218
	C147	C	0.384849	0.124456	0.325354
	C148	C	0.681304	0.388999	0.887937
	C149	C	0.681110	0.629079	0.116446
	C150	C	0.325994	0.629186	0.887256
	C151	C	0.325137	0.387289	0.116229
	C152	C	0.889115	0.684924	0.381796
	C153	C	0.118177	0.684438	0.620936
	C154	C	0.889420	0.329688	0.622888
	C155	C	0.118649	0.331458	0.383048
	C156	C	0.889856	0.386338	0.680925
	C157	C	0.117779	0.627613	0.679131
	C158	C	0.889318	0.628104	0.324167
	C159	C	0.118224	0.388397	0.324423
	C160	C	0.384149	0.686611	0.887017
	C161	C	0.623373	0.686113	0.116501
	C162	C	0.621989	0.334185	0.886925
	C163	C	0.383675	0.331337	0.116395
	C164	C	0.680984	0.894106	0.381102
	C165	C	0.681375	0.123526	0.620462
	C166	C	0.326202	0.894249	0.623126
	C167	C	0.326401	0.123730	0.382051
	C168	C	0.882505	0.393222	0.180554
	C169	C	0.123420	0.621996	0.178390
	C170	C	0.123154	0.392163	0.825575
	C171	C	0.883731	0.622217	0.824008
	C172	C	0.182224	0.888014	0.387464
	C173	C	0.179971	0.127023	0.617047
	C174	C	0.826709	0.128650	0.387092
	C175	C	0.824316	0.885889	0.615510
	C176	C	0.388403	0.186885	0.882436
	C177	C	0.617705	0.186450	0.120424
	C178	C	0.389392	0.830524	0.122561
	C179	C	0.617954	0.832214	0.880974
	C180	C	0.389090	0.888508	0.180061
	C181	C	0.617190	0.130129	0.179005
	C182	C	0.389075	0.130710	0.823941
	C183	C	0.617700	0.890232	0.823499
	C184	C	0.884616	0.185738	0.387472
	C185	C	0.122142	0.183636	0.617463
	C186	C	0.124834	0.830081	0.387376
	C187	C	0.883281	0.829396	0.616399
	C188	C	0.181288	0.392438	0.882157
	C189	C	0.181228	0.621886	0.121922
	C190	C	0.824624	0.393517	0.123778
	C191	C	0.826272	0.622626	0.881524
	C192	C	0.403093	0.104248	0.600313
	C193	C	0.601318	0.914277	0.601498
	C194	C	0.603253	0.103787	0.402654
	C195	C	0.404810	0.914028	0.403510
	C196	C	0.602109	0.409448	0.096948
	C197	C	0.603487	0.608127	0.907653
	C198	C	0.404133	0.606085	0.095849
	C199	C	0.403617	0.409969	0.906852
	C200	C	0.097164	0.605942	0.402877
	C201	C	0.909359	0.605989	0.601428
	C202	C	0.098471	0.407966	0.601907
	C203	C	0.909666	0.409162	0.404020
	C204	C	0.904297	0.602506	0.100653
	C205	C	0.101549	0.412707	0.100438
	C206	C	0.102191	0.601783	0.902901
	C207	C	0.904157	0.413300	0.904918
	C208	C	0.102420	0.907942	0.596104
	C209	C	0.103194	0.107587	0.407745
	C210	C	0.903624	0.105143	0.595930
	C211	C	0.904791	0.908909	0.407353
	C212	C	0.597860	0.110364	0.900339
	C213	C	0.408838	0.108478	0.101522
	C214	C	0.597188	0.910629	0.100437
	C215	C	0.409871	0.910661	0.903732
	Zn216	Zn	0.503044	0.010388	0.751286
	Zn217	Zn	0.503586	0.009392	0.252139
	Zn218	Zn	0.753441	0.508170	0.002685
	Zn219	Zn	0.253108	0.507481	0.001841
	Zn220	Zn	0.003695	0.757027	0.501425
	Zn221	Zn	0.004114	0.257529	0.502710
	Zn222	Zn	0.003372	0.507265	0.752539
	Zn223	Zn	0.003363	0.507726	0.251375
	Zn224	Zn	0.503743	0.758793	0.001838
	Zn225	Zn	0.503112	0.259456	0.001390
	Zn226	Zn	0.753037	0.007568	0.501299
	Zn227	Zn	0.253671	0.008508	0.502586
	N228	N	0.416447	0.973100	0.681486
	N229	N	0.587234	0.047481	0.677818
	N230	N	0.589307	0.972304	0.323581
	N231	N	0.418894	0.046790	0.324508
	N232	N	0.683192	0.421474	0.966103
	N233	N	0.682987	0.595617	0.038789
	N234	N	0.324612	0.594273	0.964732
	N235	N	0.323451	0.420841	0.038371
	N236	N	0.966407	0.686066	0.415619
	N237	N	0.040604	0.685516	0.587346
	N238	N	0.966926	0.328626	0.588626
	N239	N	0.041273	0.330076	0.417366
	N240	N	0.967383	0.420083	0.681940
	N241	N	0.040372	0.593621	0.681007
	N242	N	0.966766	0.594227	0.322794
	N243	N	0.040491	0.421621	0.323023
	N244	N	0.418119	0.687110	0.964502
	N245	N	0.589550	0.687373	0.038873
	N246	N	0.587598	0.332780	0.964461
	N247	N	0.417848	0.330973	0.038848
	N248	N	0.682207	0.971663	0.415219
	N249	N	0.682988	0.045105	0.588241
	N250	N	0.325088	0.971863	0.588330
	N251	N	0.324813	0.045534	0.415891
	N252	N	0.916972	0.470789	0.181109
	N253	N	0.088784	0.544418	0.179291
	N254	N	0.088658	0.469769	0.824641
	N255	N	0.917638	0.544338	0.823780
	N256	N	0.182955	0.921711	0.465116
	N257	N	0.181749	0.093944	0.539221
	N258	N	0.824476	0.093900	0.464561
	N259	N	0.823125	0.920095	0.537742
	N260	N	0.465878	0.188203	0.915818
	N261	N	0.540399	0.187185	0.086640
	N262	N	0.466679	0.829691	0.088246
	N263	N	0.540885	0.830811	0.915533
	N264	N	0.466257	0.923322	0.180521
	N265	N	0.539675	0.096279	0.180884
	N266	N	0.466807	0.097581	0.821576
	N267	N	0.540367	0.924566	0.823108
	N268	N	0.918429	0.185889	0.464974
	N269	N	0.088805	0.185505	0.539686
	N270	N	0.090467	0.828470	0.464784
	N271	N	0.918298	0.829076	0.539226
	N272	N	0.182553	0.470256	0.915817
	N273	N	0.182026	0.544109	0.088286
	N274	N	0.823762	0.471497	0.089442
	N275	N	0.824939	0.545184	0.916405
	O276	O	0.530855	0.600002	0.518772
	H277	H	0.531895	0.602863	0.519461
	H278	H	0.528085	0.596328	0.515583
	O279	O	0.560169	0.533004	0.469919
	H280	H	0.566920	0.540413	0.476328
	H281	H	0.564715	0.530067	0.461098
	O282	O	0.981928	0.923639	0.047013
	H283	H	0.981433	0.923401	0.056235
	H284	H	0.964438	0.935840	0.051847
	O285	O	0.904627	-0.100078	1.045144
	H286	H	0.892127	-0.099680	1.043538
	H287	H	0.895150	-0.109956	1.048808
	O288	O	0.530963	0.411744	0.572170
	H289	H	0.531315	0.410592	0.582943
	H290	H	0.525681	0.416154	0.570228
	O291	O	0.517668	0.530583	0.588405
	H292	H	0.512032	0.543531	0.587117
	H293	H	0.509326	0.526043	0.593604
	O294	O	0.492007	0.483357	0.503591
	H295	H	0.496781	0.473440	0.502886
	H296	H	0.494926	0.484210	0.500018
	O297	O	-0.573462	-0.476241	1.389698
	H298	H	-0.566136	-0.466579	1.386335
	H299	H	-0.582808	-0.468935	1.380632
	O300	O	0.065772	-0.052575	-0.087574
	H301	H	0.051335	-0.049948	-0.087934
	H302	H	0.072101	-0.039843	-0.077453
	O303	O	1.114004	1.006681	-0.063598
	H304	H	1.123396	1.001074	-0.063537
	H305	H	1.096264	1.009488	-0.069971
	O306	O	-0.114819	1.122330	0.903432
	H307	H	-0.117265	1.130334	0.905756
	H308	H	-0.105256	1.121954	0.911387
	O309	O	0.533509	0.586809	0.559346
	H310	H	0.537269	0.581227	0.560872
	H311	H	0.537175	0.583873	0.564484
	O312	O	-0.002816	-0.110555	0.057121
	H313	H	0.001459	-0.101995	0.050520
	H314	H	-0.012457	-0.095609	0.050138
	O315	O	1.026717	0.166631	0.041960
	H316	H	1.043652	0.151690	0.029013
	H317	H	1.030072	0.172160	0.053155
	O318	O	1.063950	0.861188	0.881323
	H319	H	1.057936	0.857487	0.878315
	H320	H	1.056824	0.859772	0.887007
	O321	O	0.045901	-0.973181	1.041425
	H322	H	0.060991	-0.982260	1.044961
	H323	H	0.055294	-0.977826	1.045649
	O324	O	0.600389	0.552511	0.591144
	H325	H	0.585701	0.541528	0.600503
	H326	H	0.597908	0.557621	0.593537
	O327	O	0.061053	0.018865	-0.056152
	H328	H	0.058797	0.020788	-0.052701
	H329	H	0.064761	0.024193	-0.048700
	O330	O	0.515320	0.505718	0.512111
	H331	H	0.513058	0.506151	0.500651
	H332	H	0.514153	0.494671	0.499561
	O333	O	0.101686	1.071351	1.062707
	H334	H	0.117442	1.071255	1.055571
	H335	H	0.098134	1.068664	1.067709
	O336	O	-0.021459	0.027727	0.052364
	H337	H	-0.021244	0.026159	0.058990
	H338	H	-0.008154	0.028676	0.049113
	O339	O	0.494662	0.462783	0.412684
	H340	H	0.494772	0.462532	0.408846
	H341	H	0.498066	0.463066	0.416681
	O342	O	0.997026	1.034219	0.923480
	H343	H	0.994666	1.023977	0.920353
	H344	H	1.002162	1.038945	0.937728
	O345	O	0.966952	1.047542	0.079900
	H346	H	0.978567	1.048902	0.078225
	H347	H	0.960962	1.042397	0.078720
	O348	O	0.453099	0.538782	0.659838
	H349	H	0.453561	0.524964	0.657012
	H350	H	0.447224	0.543894	0.662770
	O351	O	0.420315	0.579839	0.457065
	H352	H	0.413173	0.572969	0.453369
	H353	H	0.427228	0.585366	0.449315
	O354	O	0.961822	-0.074190	0.974153
	H355	H	0.953809	-0.070034	0.963895
	H356	H	0.948914	-0.073067	0.976431
	O357	O	0.976689	-0.012198	1.111144
	H358	H	0.971317	-0.014350	1.105474
	H359	H	0.976151	-0.013108	1.113226
	O360	O	1.083361	1.078964	-0.013091
	H361	H	1.078872	1.069753	-0.009599
	H362	H	1.094032	1.068734	-0.009086
	O363	O	0.607563	0.493934	0.477253
	H364	H	0.599489	0.493516	0.483252
	H365	H	0.612940	0.494470	0.492924
	O366	O	0.452943	1.415413	0.441563
	H367	H	0.453598	1.415955	0.439393
	H368	H	0.448926	1.420366	0.430892
	O369	O	0.900750	-0.057951	0.958314
	H370	H	0.896259	-0.052529	0.956007
	H371	H	0.885578	-0.065361	0.957933
	O372	O	-0.115333	-0.018793	0.044152
	H373	H	-0.107084	-0.022194	0.043573
	H374	H	-0.115274	-0.015248	0.031963
	O375	O	1.045939	0.049960	0.111987
	H376	H	1.043603	0.046360	0.100798
	H377	H	1.046854	0.040755	0.102906
	O378	O	0.483414	0.505980	0.400330
	H379	H	0.483766	0.506030	0.400731
	H380	H	0.491805	0.499471	0.388183
	O381	O	0.421774	0.629634	0.453028
	H382	H	0.417521	0.638413	0.461227
	H383	H	0.423662	0.623838	0.464069
