data_Molecule from HDF5

_cell_length_a		16.221765
_cell_length_b		16.249798
_cell_length_c		16.325699
_cell_angle_alpha	90.223371
_cell_angle_beta	90.065900
_cell_angle_gamma	89.432575
_symmetry_space_group_name_H-M	'P 1'
_symmetry_Int_Tables_number		1

loop_
	_symmetry_equiv_pos_as_xyz
	x,y,z

loop_
	_atom_site_label
	_atom_site_type_symbol
	_atom_site_fract_x
	_atom_site_fract_y
	_atom_site_fract_z
	H0	H	0.391341	0.839304	0.711966
	H1	H	0.586486	0.168369	0.714154
	H2	H	0.591010	0.840717	0.281173
	H3	H	0.386808	0.167934	0.282863
	H4	H	0.703965	0.404116	0.833422
	H5	H	0.703704	0.602030	0.160308
	H6	H	0.273889	0.601780	0.832800
	H7	H	0.275252	0.407228	0.160206
	H8	H	0.825823	0.721506	0.398445
	H9	H	0.155253	0.715967	0.594269
	H10	H	0.824212	0.293356	0.593589
	H11	H	0.152581	0.288373	0.396895
	H12	H	0.824757	0.407073	0.711612
	H13	H	0.154279	0.601583	0.711760
	H14	H	0.826073	0.606965	0.281188
	H15	H	0.153151	0.404062	0.282009
	H16	H	0.389596	0.718065	0.832986
	H17	H	0.586803	0.718152	0.160520
	H18	H	0.590265	0.286250	0.834263
	H19	H	0.392681	0.292409	0.160952
	H20	H	0.705738	0.840589	0.399563
	H21	H	0.700491	0.169392	0.596837
	H22	H	0.277791	0.839173	0.594357
	H23	H	0.275628	0.168881	0.402304
	H24	H	0.891564	0.340806	0.211475
	H25	H	0.087012	0.668286	0.211556
	H26	H	0.090767	0.340518	0.780353
	H27	H	0.889258	0.669408	0.783680
	H28	H	0.204571	0.905168	0.333744
	H29	H	0.202915	0.103960	0.659961
	H30	H	0.771717	0.103638	0.333504
	H31	H	0.777023	0.908741	0.661466
	H32	H	0.325074	0.218217	0.902275
	H33	H	0.654214	0.216843	0.097746
	H34	H	0.323805	0.793438	0.093207
	H35	H	0.653131	0.787278	0.898626
	H36	H	0.325329	0.907131	0.211104
	H37	H	0.653148	0.100529	0.213196
	H38	H	0.324522	0.104533	0.783676
	H39	H	0.653274	0.902531	0.783036
	H40	H	0.888589	0.219512	0.332658
	H41	H	0.086224	0.220198	0.659423
	H42	H	0.089477	0.788398	0.334076
	H43	H	0.891375	0.791093	0.660346
	H44	H	0.205891	0.340471	0.897324
	H45	H	0.200850	0.668517	0.093908
	H46	H	0.778192	0.339901	0.092804
	H47	H	0.772772	0.668274	0.899490
	H48	H	0.388286	0.122325	0.590529
	H49	H	0.584270	0.887619	0.592495
	H50	H	0.572768	0.116978	0.410648
	H51	H	0.400022	0.886746	0.398773
	H52	H	0.588587	0.412434	0.114412
	H53	H	0.574545	0.592378	0.884633
	H54	H	0.385198	0.602999	0.117194
	H55	H	0.401579	0.419758	0.884812
	H56	H	0.105141	0.595269	0.407906
	H57	H	0.877487	0.590232	0.586439
	H58	H	0.107128	0.405903	0.587837
	H59	H	0.875284	0.420114	0.406253
	H60	H	0.102411	0.414520	0.584026
	H61	H	0.869973	0.600158	0.599811
	H62	H	0.106379	0.592526	0.400654
	H63	H	0.869449	0.414403	0.395342
	H64	H	0.395413	0.588245	0.109765
	H65	H	0.579548	0.603680	0.878656
	H66	H	0.580559	0.412684	0.111291
	H67	H	0.403841	0.402105	0.880428
	H68	H	0.587035	0.121492	0.408779
	H69	H	0.582089	0.888475	0.590928
	H70	H	0.398553	0.121524	0.598752
	H71	H	0.400239	0.888728	0.406188
	H72	H	0.899643	0.621200	0.092217
	H73	H	0.083806	0.386977	0.090349
	H74	H	0.073389	0.617874	0.903333
	H75	H	0.902083	0.387451	0.898006
	H76	H	0.084300	0.902884	0.616034
	H77	H	0.093046	0.095370	0.377694
	H78	H	0.897614	0.102281	0.612009
	H79	H	0.901622	0.912113	0.382500
	H80	H	0.609732	0.105276	0.904637
	H81	H	0.373534	0.091500	0.094283
	H82	H	0.599647	0.919307	0.078120
	H83	H	0.367731	0.909925	0.890044
	H84	H	0.607436	0.917076	0.103935
	H85	H	0.368504	0.105696	0.096269
	H86	H	0.601947	0.090110	0.915102
	H87	H	0.370464	0.900672	0.911010
	H88	H	0.892178	0.102123	0.614000
	H89	H	0.076181	0.088598	0.384141
	H90	H	0.091132	0.914468	0.614157
	H91	H	0.894640	0.909255	0.380306
	H92	H	0.085499	0.620465	0.910124
	H93	H	0.082182	0.387820	0.090294
	H94	H	0.895414	0.619631	0.085104
	H95	H	0.898599	0.389144	0.905947
	H96	H	0.400372	0.116944	0.586542
	H97	H	0.584712	0.888083	0.589431
	H98	H	0.576783	0.122248	0.397239
	H99	H	0.393194	0.886212	0.403000
	H100	H	0.583933	0.405589	0.114732
	H101	H	0.587382	0.592275	0.880093
	H102	H	0.403653	0.605574	0.112775
	H103	H	0.386967	0.410121	0.877659
	H104	H	0.108131	0.599917	0.402527
	H105	H	0.872451	0.608055	0.583469
	H106	H	0.106421	0.414606	0.594131
	H107	H	0.870728	0.406935	0.406285
	H108	H	0.891230	0.622695	0.091595
	H109	H	0.083026	0.387857	0.088210
	H110	H	0.083864	0.624206	0.896420
	H111	H	0.893264	0.385722	0.899693
	H112	H	0.077414	0.914166	0.611216
	H113	H	0.077241	0.107224	0.378278
	H114	H	0.894901	0.097307	0.611539
	H115	H	0.895479	0.916366	0.382195
	H116	H	0.607255	0.087773	0.895299
	H117	H	0.373685	0.101652	0.083563
	H118	H	0.609918	0.895341	0.086915
	H119	H	0.376327	0.922847	0.907505
	C120	C	0.367658	0.011901	0.619429
	C121	C	0.610890	0.996341	0.619868
	C122	C	0.609736	0.012296	0.376378
	C123	C	0.367530	0.995832	0.375203
	C124	C	0.612452	0.381232	0.005273
	C125	C	0.609751	0.624858	0.988939
	C126	C	0.366405	0.626602	0.004896
	C127	C	0.368911	0.383349	0.988943
	C128	C	-0.001768	0.626133	0.375234
	C129	C	0.981662	0.626956	0.618730
	C130	C	-0.003177	0.383917	0.617171
	C131	C	0.980284	0.384032	0.374605
	C132	C	0.868105	0.512874	0.117652
	C133	C	0.111027	0.495778	0.118419
	C134	C	0.110846	0.512537	0.874626
	C135	C	0.867924	0.496042	0.873969
	C136	C	0.112462	0.882114	0.505720
	C137	C	0.110077	0.126067	0.488001
	C138	C	0.865915	0.128119	0.504493
	C139	C	0.868831	0.884449	0.489219
	C140	C	0.497448	0.124318	0.877178
	C141	C	0.480965	0.126536	0.120126
	C142	C	0.497474	0.883042	0.117832
	C143	C	0.480166	0.881519	0.874659
	C144	C	0.371215	0.888435	0.674105
	C145	C	0.607412	0.119484	0.675954
	C146	C	0.610293	0.889382	0.319988
	C147	C	0.368182	0.119131	0.321192
	C148	C	0.666558	0.383584	0.882259
	C149	C	0.665619	0.622479	0.111716
	C150	C	0.311486	0.622791	0.881885
	C151	C	0.313569	0.386584	0.111477
	C152	C	0.874841	0.683204	0.377918
	C153	C	0.105749	0.679724	0.615711
	C154	C	0.873342	0.330227	0.614504
	C155	C	0.103723	0.327136	0.377123
	C156	C	0.873632	0.387071	0.672842
	C157	C	0.105369	0.622525	0.673496
	C158	C	0.874867	0.626230	0.319702
	C159	C	0.104037	0.384690	0.319946
	C160	C	0.369093	0.680602	0.881868
	C161	C	0.607462	0.680009	0.111859
	C162	C	0.610190	0.324831	0.882770
	C163	C	0.371991	0.329651	0.111994
	C164	C	0.667566	0.889345	0.378433
	C165	C	0.663731	0.120060	0.617219
	C166	C	0.314329	0.888382	0.615789
	C167	C	0.312447	0.119513	0.380502
	C168	C	0.871342	0.389530	0.173079
	C169	C	0.107692	0.619229	0.173729
	C170	C	0.110380	0.389290	0.818621
	C171	C	0.868943	0.619902	0.820495
	C172	C	0.166966	0.884794	0.382424
	C173	C	0.164353	0.123602	0.611369
	C174	C	0.809759	0.124784	0.382082
	C175	C	0.814386	0.887721	0.612385
	C176	C	0.374127	0.180657	0.880358
	C177	C	0.604760	0.179731	0.118145
	C178	C	0.373239	0.829997	0.114529
	C179	C	0.604007	0.825213	0.877929
	C180	C	0.373993	0.886616	0.173021
	C181	C	0.604198	0.122208	0.175610
	C182	C	0.373800	0.123644	0.822145
	C183	C	0.604284	0.882929	0.820813
	C184	C	0.868078	0.181938	0.381462
	C185	C	0.106978	0.182044	0.610783
	C186	C	0.110222	0.826422	0.382712
	C187	C	0.871479	0.829361	0.611862
	C188	C	0.167171	0.389095	0.877027
	C189	C	0.164393	0.619359	0.115541
	C190	C	0.815149	0.388912	0.114136
	C191	C	0.811225	0.619483	0.878163
	C192	C	0.389190	0.098128	0.598216
	C193	C	0.590013	0.910402	0.597530
	C194	C	0.585757	0.098012	0.398816
	C195	C	0.390902	0.909366	0.396332
	C196	C	0.590953	0.403637	0.091323
	C197	C	0.587292	0.602527	0.903365
	C198	C	0.388317	0.605281	0.090890
	C199	C	0.390974	0.404514	0.903080
	C200	C	0.084280	0.602763	0.397273
	C201	C	0.895615	0.605850	0.596587
	C202	C	0.083090	0.405132	0.595081
	C203	C	0.894119	0.407109	0.396360
	C204	C	0.889261	0.598838	0.096223
	C205	C	0.089471	0.409845	0.096297
	C206	C	0.087658	0.598578	0.896852
	C207	C	0.890971	0.409756	0.895068
	C208	C	0.090773	0.904113	0.591476
	C209	C	0.088664	0.103563	0.402165
	C210	C	0.888427	0.106961	0.590401
	C211	C	0.890899	0.906246	0.403725
	C212	C	0.583865	0.101170	0.898851
	C213	C	0.394397	0.105711	0.097914
	C214	C	0.583444	0.904233	0.096205
	C215	C	0.393870	0.904407	0.896443
	Zn216	Zn	0.489303	0.003777	0.748274
	Zn217	Zn	0.488455	0.004098	0.247071
	Zn218	Zn	0.739708	0.503951	-0.003787
	Zn219	Zn	0.238687	0.504323	-0.003374
	Zn220	Zn	-0.009397	0.754813	0.496959
	Zn221	Zn	-0.011671	0.255586	0.495460
	Zn222	Zn	-0.010530	0.504707	0.746170
	Zn223	Zn	-0.010815	0.504884	0.246434
	Zn224	Zn	0.488452	0.754505	-0.003167
	Zn225	Zn	0.490445	0.253949	-0.002306
	Zn226	Zn	0.738851	0.005345	0.497916
	Zn227	Zn	0.239652	0.004023	0.497338
	N228	N	0.403869	0.966283	0.676544
	N229	N	0.575232	0.041561	0.677733
	N230	N	0.574917	0.966727	0.318672
	N231	N	0.401676	0.041143	0.317855
	N232	N	0.668060	0.417918	0.959314
	N233	N	0.666699	0.588395	0.034392
	N234	N	0.309626	0.590041	0.959479
	N235	N	0.311555	0.419365	0.034001
	N236	N	0.952647	0.683312	0.411884
	N237	N	0.027870	0.682665	0.582389
	N238	N	0.950887	0.328190	0.580600
	N239	N	0.025824	0.326581	0.410281
	N240	N	0.951521	0.419717	0.674623
	N241	N	0.027139	0.590698	0.675930
	N242	N	0.952589	0.591827	0.317594
	N243	N	0.026297	0.419520	0.318306
	N244	N	0.402420	0.683209	0.959327
	N245	N	0.573820	0.681875	0.034518
	N246	N	0.577168	0.323379	0.960434
	N247	N	0.405654	0.327474	0.034669
	N248	N	0.667246	0.966758	0.412895
	N249	N	0.666167	0.042438	0.583153
	N250	N	0.311838	0.966162	0.582659
	N251	N	0.312274	0.041725	0.413662
	N252	N	0.903299	0.467715	0.175756
	N253	N	0.075014	0.541340	0.175618
	N254	N	0.075979	0.467105	0.817089
	N255	N	0.903407	0.542194	0.817763
	N256	N	0.168471	0.918513	0.459762
	N257	N	0.166438	0.089593	0.534036
	N258	N	0.808163	0.092325	0.459755
	N259	N	0.812759	0.921350	0.535251
	N260	N	0.452079	0.181277	0.913831
	N261	N	0.526995	0.182634	0.084566
	N262	N	0.450803	0.827810	0.080695
	N263	N	0.525912	0.824383	0.910824
	N264	N	0.452025	0.918834	0.175225
	N265	N	0.526171	0.089796	0.176844
	N266	N	0.451609	0.089147	0.820323
	N267	N	0.526209	0.916912	0.818497
	N268	N	0.902224	0.183983	0.458606
	N269	N	0.073717	0.183534	0.533159
	N270	N	0.076977	0.824640	0.460228
	N271	N	0.904613	0.826941	0.534221
	N272	N	0.167694	0.466640	0.911042
	N273	N	0.166333	0.541851	0.081726
	N274	N	0.813108	0.466377	0.080231
	N275	N	0.810307	0.541358	0.910300
	O276	O	0.463007	0.498775	0.510129
	H277	H	0.463177	0.492428	0.505947
	H278	H	0.457960	0.494831	0.513846
	O279	O	0.546773	0.531293	0.539147
	H280	H	0.547421	0.538543	0.533432
	H281	H	0.544776	0.530038	0.540075
	O282	O	0.484088	0.496688	0.560979
	H283	H	0.496292	0.495931	0.561463
	H284	H	0.494295	0.489730	0.567693
	O285	O	-0.043031	0.986204	0.992958
	H286	H	-0.044612	0.983403	1.000279
	H287	H	-0.040167	0.986351	0.986627
	O288	O	0.417123	0.457967	0.481730
	H289	H	0.414263	0.460910	0.483315
	H290	H	0.418462	0.462113	0.479493
	O291	O	0.460951	0.469159	1.478463
	H292	H	0.468287	0.472659	1.478037
	H293	H	0.464233	0.466178	1.469882
	O294	O	0.543367	0.530871	0.629986
	H295	H	0.543602	0.541891	0.629278
	H296	H	0.548728	0.531734	0.645107
	O297	O	0.429668	0.517939	0.440634
	H298	H	0.438895	0.521571	0.432808
	H299	H	0.430787	0.522642	0.445007
	O300	O	0.501987	0.526408	0.543278
	H301	H	0.497607	0.525061	0.549391
	H302	H	0.504155	0.526307	0.541158
	O303	O	0.447286	0.525731	0.414581
	H304	H	0.450479	0.521627	0.407305
	H305	H	0.448404	0.518610	0.422468
	O306	O	0.967546	-0.003172	0.913452
	H307	H	0.972891	-0.000049	0.909734
	H308	H	0.960504	-0.004692	0.922120
	O309	O	0.540333	0.486051	0.494006
	H310	H	0.535776	0.481746	0.486009
	H311	H	0.541027	0.485047	0.496237
	O312	O	0.404106	0.513661	0.440213
	H313	H	0.408432	0.514436	0.442808
	H314	H	0.399372	0.512630	0.432812
	O315	O	0.924556	0.059954	0.977950
	H316	H	0.926554	0.061630	0.975437
	H317	H	0.923497	0.055835	0.980402
	O318	O	0.460392	-0.516520	-0.522107
	H319	H	0.466262	-0.514124	-0.517370
	H320	H	0.461001	-0.522474	-0.514744
	O321	O	0.538889	0.525017	0.558697
	H322	H	0.533682	0.524553	0.555145
	H323	H	0.533374	0.531076	0.555716
	O324	O	1.448199	-0.361373	0.397263
	H325	H	1.440693	-0.361528	0.391209
	H326	H	1.449263	-0.364825	0.392741
	O327	O	0.962465	1.001508	-0.056497
	H328	H	0.962086	1.005435	-0.068942
	H329	H	0.963184	1.003053	-0.058964
	O330	O	0.616773	0.482560	0.514371
	H331	H	0.628726	0.476932	0.509233
	H332	H	0.607704	0.496826	0.515408
	O333	O	0.572202	0.470480	0.404656
	H334	H	0.563617	0.466593	0.398007
	H335	H	0.579529	0.466718	0.407241
