data_Molecule from HDF5

_cell_length_a		16.325444
_cell_length_b		16.251276
_cell_length_c		16.154752
_cell_angle_alpha	90.278328
_cell_angle_beta	89.761140
_cell_angle_gamma	89.723445
_symmetry_space_group_name_H-M	'P 1'
_symmetry_Int_Tables_number		1

loop_
	_symmetry_equiv_pos_as_xyz
	x,y,z

loop_
	_atom_site_label
	_atom_site_type_symbol
	_atom_site_fract_x
	_atom_site_fract_y
	_atom_site_fract_z
	H0	H	0.403066	0.835146	0.707794
	H1	H	0.595314	0.164315	0.709363
	H2	H	0.600954	0.836213	0.278486
	H3	H	0.403947	0.165332	0.285675
	H4	H	0.718837	0.398561	0.832339
	H5	H	0.714044	0.600418	0.160231
	H6	H	0.286796	0.597904	0.832194
	H7	H	0.286171	0.400473	0.160601
	H8	H	0.838852	0.716339	0.396861
	H9	H	0.163612	0.715883	0.597020
	H10	H	0.838437	0.283947	0.598725
	H11	H	0.163959	0.282198	0.396129
	H12	H	0.838185	0.402856	0.712455
	H13	H	0.165400	0.597145	0.710113
	H14	H	0.837321	0.599008	0.284122
	H15	H	0.163416	0.398063	0.280689
	H16	H	0.402330	0.711987	0.829949
	H17	H	0.599382	0.715631	0.159253
	H18	H	0.600506	0.285863	0.830639
	H19	H	0.402766	0.287863	0.160954
	H20	H	0.718837	0.836289	0.392691
	H21	H	0.716591	0.162400	0.597790
	H22	H	0.286066	0.835712	0.595333
	H23	H	0.284306	0.162808	0.397270
	H24	H	0.902012	0.335224	0.210600
	H25	H	0.097325	0.663721	0.212215
	H26	H	0.100410	0.336436	0.781489
	H27	H	0.904326	0.664692	0.785688
	H28	H	0.216206	0.898031	0.331676
	H29	H	0.214379	0.098835	0.660998
	H30	H	0.786484	0.099181	0.331824
	H31	H	0.784121	0.899404	0.659389
	H32	H	0.338055	0.216127	0.897832
	H33	H	0.664261	0.214195	0.093981
	H34	H	0.337346	0.785585	0.095388
	H35	H	0.664165	0.783426	0.895244
	H36	H	0.336587	0.903980	0.209866
	H37	H	0.665085	0.097485	0.208750
	H38	H	0.335795	0.096875	0.785333
	H39	H	0.664009	0.899893	0.779618
	H40	H	0.902518	0.213037	0.332164
	H41	H	0.099069	0.212834	0.661258
	H42	H	0.100386	0.783430	0.331586
	H43	H	0.902444	0.787486	0.661517
	H44	H	0.217073	0.336834	0.895969
	H45	H	0.217035	0.662988	0.099365
	H46	H	0.784317	0.337078	0.097303
	H47	H	0.784682	0.663189	0.896801
	H48	H	0.393231	0.119562	0.587052
	H49	H	0.598875	0.883723	0.580893
	H50	H	0.595947	0.116891	0.403843
	H51	H	0.403883	0.882281	0.403755
	H52	H	0.592341	0.413521	0.111383
	H53	H	0.590952	0.586071	0.879854
	H54	H	0.410360	0.589819	0.112044
	H55	H	0.406010	0.428362	0.883526
	H56	H	0.116281	0.586963	0.403554
	H57	H	0.888138	0.587450	0.588239
	H58	H	0.116418	0.406501	0.588014
	H59	H	0.885465	0.414135	0.398337
	H60	H	0.118441	0.405380	0.589811
	H61	H	0.882549	0.594605	0.599663
	H62	H	0.117976	0.593456	0.402745
	H63	H	0.880944	0.396529	0.402924
	H64	H	0.410672	0.595988	0.113191
	H65	H	0.592589	0.595493	0.876680
	H66	H	0.589040	0.403616	0.113572
	H67	H	0.428204	0.397882	0.880818
	H68	H	0.593785	0.116160	0.402819
	H69	H	0.595705	0.880759	0.592622
	H70	H	0.409072	0.119329	0.601959
	H71	H	0.409444	0.881918	0.397765
	H72	H	0.917180	0.612420	0.086353
	H73	H	0.096496	0.382343	0.088485
	H74	H	0.090461	0.614755	0.907184
	H75	H	0.910810	0.382856	0.899460
	H76	H	0.090930	0.911011	0.611805
	H77	H	0.099636	0.089343	0.377307
	H78	H	0.912249	0.089991	0.611879
	H79	H	0.907223	0.891398	0.372568
	H80	H	0.615839	0.082466	0.895757
	H81	H	0.382851	0.097544	0.092124
	H82	H	0.617058	0.904959	0.087317
	H83	H	0.383836	0.905708	0.904134
	H84	H	0.615598	0.906768	0.083589
	H85	H	0.384983	0.095871	0.087053
	H86	H	0.621499	0.102624	0.896169
	H87	H	0.384112	0.906386	0.901503
	H88	H	0.906768	0.096143	0.616248
	H89	H	0.091710	0.086685	0.380991
	H90	H	0.093039	0.902258	0.614788
	H91	H	0.897631	0.918516	0.378522
	H92	H	0.099587	0.617942	0.907947
	H93	H	0.092440	0.383886	0.089776
	H94	H	0.897034	0.617024	0.083342
	H95	H	0.913538	0.386438	0.908542
	H96	H	0.413250	0.111922	0.581421
	H97	H	0.586399	0.885513	0.585282
	H98	H	0.593804	0.115686	0.405079
	H99	H	0.411611	0.883936	0.405197
	H100	H	0.599134	0.406945	0.115365
	H101	H	0.599062	0.588257	0.877318
	H102	H	0.404006	0.593645	0.114479
	H103	H	0.392278	0.396258	0.870564
	H104	H	0.116119	0.591987	0.408842
	H105	H	0.884325	0.600971	0.586840
	H106	H	0.117487	0.404095	0.587018
	H107	H	0.888202	0.408019	0.415105
	H108	H	0.905764	0.619993	0.102557
	H109	H	0.094301	0.384924	0.085300
	H110	H	0.095116	0.619847	0.899302
	H111	H	0.904833	0.382039	0.906432
	H112	H	0.099766	0.909280	0.614577
	H113	H	0.092963	0.095147	0.377093
	H114	H	0.903953	0.087976	0.613826
	H115	H	0.925536	0.910716	0.384742
	H116	H	0.613006	0.094052	0.913972
	H117	H	0.385104	0.092788	0.091630
	H118	H	0.616270	0.909691	0.087610
	H119	H	0.382973	0.904008	0.901379
	C120	C	0.377793	0.008055	0.617626
	C121	C	0.621883	0.991033	0.616835
	C122	C	0.623432	0.008042	0.373766
	C123	C	0.379385	0.991443	0.374609
	C124	C	0.623236	0.378284	0.004635
	C125	C	0.622092	0.619985	0.986677
	C126	C	0.379467	0.621368	0.004482
	C127	C	0.379883	0.379051	0.987403
	C128	C	0.009235	0.620542	0.376045
	C129	C	0.992966	0.622256	0.619663
	C130	C	0.009875	0.377245	0.618687
	C131	C	0.992271	0.376395	0.375248
	C132	C	0.878437	0.508086	0.119135
	C133	C	0.122937	0.491286	0.118425
	C134	C	0.123511	0.509260	0.875153
	C135	C	0.880337	0.491743	0.875902
	C136	C	0.123304	0.877531	0.504979
	C137	C	0.122486	0.119604	0.487509
	C138	C	0.879421	0.120393	0.505249
	C139	C	0.880342	0.878520	0.487567
	C140	C	0.509122	0.121860	0.874093
	C141	C	0.492428	0.122990	0.118212
	C142	C	0.508594	0.878684	0.116270
	C143	C	0.492154	0.877043	0.873186
	C144	C	0.381867	0.884333	0.671048
	C145	C	0.617505	0.114809	0.672220
	C146	C	0.621637	0.885087	0.316747
	C147	C	0.382915	0.115623	0.321772
	C148	C	0.679749	0.379308	0.881168
	C149	C	0.676211	0.619465	0.111066
	C150	C	0.324128	0.618861	0.880923
	C151	C	0.324274	0.380825	0.111208
	C152	C	0.887241	0.677691	0.377445
	C153	C	0.115193	0.677512	0.617432
	C154	C	0.887394	0.321813	0.618406
	C155	C	0.115091	0.320310	0.376404
	C156	C	0.886916	0.381315	0.674628
	C157	C	0.116088	0.618362	0.673466
	C158	C	0.886560	0.618915	0.321209
	C159	C	0.114953	0.378222	0.319095
	C160	C	0.381955	0.675315	0.879939
	C161	C	0.619465	0.676906	0.110551
	C162	C	0.620797	0.323528	0.880289
	C163	C	0.382223	0.324593	0.111554
	C164	C	0.679646	0.884961	0.373915
	C165	C	0.677482	0.113892	0.616458
	C166	C	0.323614	0.884677	0.615102
	C167	C	0.322948	0.114314	0.377013
	C168	C	0.881603	0.384685	0.173413
	C169	C	0.119194	0.614673	0.174677
	C170	C	0.121065	0.385476	0.819442
	C171	C	0.882892	0.615378	0.822244
	C172	C	0.178264	0.878505	0.380795
	C173	C	0.176828	0.118258	0.611811
	C174	C	0.824115	0.118994	0.381152
	C175	C	0.823547	0.880379	0.610825
	C176	C	0.386228	0.177471	0.877519
	C177	C	0.615733	0.176607	0.114345
	C178	C	0.386108	0.823678	0.115189
	C179	C	0.615227	0.821693	0.874890
	C180	C	0.385771	0.882463	0.172264
	C181	C	0.616037	0.119032	0.171964
	C182	C	0.385187	0.118288	0.821551
	C183	C	0.615168	0.879723	0.817613
	C184	C	0.882018	0.175324	0.381227
	C185	C	0.119366	0.174890	0.611845
	C186	C	0.120622	0.821475	0.380765
	C187	C	0.882292	0.824846	0.611863
	C188	C	0.178824	0.385589	0.876458
	C189	C	0.178421	0.614367	0.118409
	C190	C	0.822644	0.385679	0.117556
	C191	C	0.823537	0.614494	0.877754
	C192	C	0.398922	0.094552	0.596326
	C193	C	0.599969	0.905349	0.593289
	C194	C	0.601013	0.093973	0.397054
	C195	C	0.401719	0.904992	0.396037
	C196	C	0.600252	0.401253	0.090993
	C197	C	0.600658	0.596772	0.900353
	C198	C	0.401883	0.599673	0.090858
	C199	C	0.402317	0.400994	0.900669
	C200	C	0.094963	0.597602	0.398635
	C201	C	0.907084	0.600673	0.597989
	C202	C	0.095369	0.398963	0.595190
	C203	C	0.906982	0.399374	0.398533
	C204	C	0.900255	0.594185	0.097346
	C205	C	0.100764	0.405871	0.094898
	C206	C	0.101606	0.595264	0.898070
	C207	C	0.903092	0.405706	0.898209
	C208	C	0.101142	0.900654	0.591380
	C209	C	0.101175	0.096995	0.400857
	C210	C	0.901092	0.097938	0.591546
	C211	C	0.903309	0.900376	0.400935
	C212	C	0.594603	0.099576	0.895506
	C213	C	0.406681	0.101774	0.096692
	C214	C	0.594188	0.900624	0.093111
	C215	C	0.405966	0.898971	0.895789
	Zn216	Zn	0.499438	-0.000531	0.745318
	Zn217	Zn	0.501254	0.000706	0.245770
	Zn218	Zn	0.750994	0.499781	-0.003354
	Zn219	Zn	0.251681	0.500109	-0.003408
	Zn220	Zn	0.001446	0.750306	0.496988
	Zn221	Zn	0.001172	0.247827	0.496867
	Zn222	Zn	0.001450	0.500189	0.747449
	Zn223	Zn	0.000715	0.499266	0.247440
	Zn224	Zn	0.500808	0.748549	-0.005186
	Zn225	Zn	0.500687	0.251198	-0.004179
	Zn226	Zn	0.751857	-0.000669	0.495413
	Zn227	Zn	0.250686	-0.000817	0.496405
	N228	N	0.414666	0.962016	0.672770
	N229	N	0.583578	0.037536	0.672409
	N230	N	0.587058	0.962498	0.316937
	N231	N	0.417460	0.038181	0.320263
	N232	N	0.681366	0.412629	0.959528
	N233	N	0.678259	0.584959	0.033245
	N234	N	0.322536	0.585976	0.959127
	N235	N	0.322756	0.414009	0.033002
	N236	N	0.964575	0.678643	0.411044
	N237	N	0.037574	0.680107	0.584837
	N238	N	0.964774	0.319228	0.584180
	N239	N	0.037779	0.319036	0.410600
	N240	N	0.964151	0.414922	0.675020
	N241	N	0.038880	0.584698	0.674902
	N242	N	0.963524	0.583855	0.320477
	N243	N	0.037675	0.412234	0.318116
	N244	N	0.415619	0.677043	0.958034
	N245	N	0.586112	0.677361	0.032413
	N246	N	0.586404	0.322732	0.958218
	N247	N	0.416218	0.323646	0.033533
	N248	N	0.680941	0.962454	0.408711
	N249	N	0.680336	0.035860	0.582608
	N250	N	0.321173	0.962686	0.582362
	N251	N	0.320847	0.036032	0.409225
	N252	N	0.915333	0.462042	0.175013
	N253	N	0.085320	0.537304	0.174833
	N254	N	0.087378	0.463254	0.818398
	N255	N	0.917447	0.538050	0.821026
	N256	N	0.179997	0.912666	0.458923
	N257	N	0.179089	0.084725	0.533389
	N258	N	0.822263	0.085609	0.459204
	N259	N	0.822383	0.912949	0.532538
	N260	N	0.464109	0.179951	0.909471
	N261	N	0.537956	0.179348	0.081692
	N262	N	0.463464	0.821268	0.080984
	N263	N	0.537783	0.819825	0.908580
	N264	N	0.462970	0.916075	0.173025
	N265	N	0.538445	0.086363	0.174423
	N266	N	0.462370	0.084182	0.819249
	N267	N	0.537507	0.913392	0.816440
	N268	N	0.915729	0.176510	0.459274
	N269	N	0.086257	0.175783	0.533804
	N270	N	0.087133	0.820847	0.459101
	N271	N	0.917003	0.823464	0.534040
	N272	N	0.180429	0.463347	0.910462
	N273	N	0.180890	0.536691	0.084080
	N274	N	0.820692	0.463410	0.084516
	N275	N	0.821911	0.536361	0.910516
	O276	O	0.014092	0.011570	-0.000934
	H277	H	0.018028	0.012592	-0.005458
	H278	H	0.016214	0.007124	-0.010404
	O279	O	0.577494	0.500103	0.405659
	H280	H	0.590119	0.489146	0.401995
	H281	H	0.574840	0.499028	0.397619
	O282	O	0.514798	0.598891	0.490723
	H283	H	0.521513	0.589981	0.482230
	H284	H	0.522869	0.599523	0.493874
	O285	O	1.033133	0.038798	0.996946
	H286	H	1.032533	0.043254	1.002326
	H287	H	1.031357	0.046939	1.003767
	O288	O	1.067582	0.017207	0.026313
	H289	H	1.072980	0.022297	0.021715
	H290	H	1.058260	0.024237	0.025626
	O291	O	0.619475	0.451172	0.474079
	H292	H	0.615458	0.462134	0.478924
	H293	H	0.621817	0.443845	0.477205
	O294	O	1.003188	0.010465	0.919825
	H295	H	1.003130	0.018319	0.918669
	H296	H	0.999953	0.010269	0.918142
	O297	O	0.053500	0.040320	0.025639
	H298	H	0.054270	0.038232	0.021357
	H299	H	0.056862	0.045540	0.028196
	O300	O	0.500048	0.455163	0.453224
	H301	H	0.515218	0.451388	0.455907
	H302	H	0.505782	0.461121	0.448896
	O303	O	0.479999	0.392294	0.431915
	H304	H	0.482545	0.403833	0.434092
	H305	H	0.485600	0.395037	0.440581
	O306	O	1.006038	0.018279	-0.081790
	H307	H	1.005809	0.014513	-0.077136
	H308	H	1.004181	0.018328	-0.075442
	O309	O	-0.021315	0.020125	1.014260
	H310	H	-0.006778	0.026285	1.018035
	H311	H	-0.027823	0.027358	1.006249
	O312	O	0.980167	1.033601	1.024217
	H313	H	0.981962	1.035853	1.026211
	H314	H	0.976349	1.044588	1.026501
	O315	O	0.602988	0.422370	0.472133
	H316	H	0.593554	0.425319	0.469872
	H317	H	0.589818	0.433041	0.467548
	O318	O	0.441159	0.520964	0.524165
	H319	H	0.449617	0.517299	0.529584
	H320	H	0.430850	0.530032	0.524154
	O321	O	0.402710	1.504633	1.492766
	H322	H	0.397535	1.514799	1.497229
	H323	H	0.405511	1.499958	1.494759
	O324	O	0.471215	0.582082	0.381642
	H325	H	0.474164	0.580069	0.369095
	H326	H	0.475347	0.592339	0.381330
	O327	O	0.441868	0.410211	0.537807
	H328	H	0.431872	0.408432	0.548398
	H329	H	0.435161	0.409643	0.536016
	O330	O	0.557033	0.493409	0.467257
	H331	H	0.566002	0.490778	0.462930
	H332	H	0.550972	0.504191	0.465167
	O333	O	0.571657	0.508194	0.518689
	H334	H	0.579530	0.505464	0.512463
	H335	H	0.562776	0.503709	0.522774
	O336	O	0.485046	0.626065	0.475770
	H337	H	0.480293	0.631557	0.477942
	H338	H	0.484785	0.626744	0.481213
	O339	O	1.043493	0.994019	-0.003046
	H340	H	1.040417	0.976889	-0.000838
	H341	H	1.049596	1.002055	-0.006974
	O342	O	0.468339	0.521357	0.579301
	H343	H	0.464543	0.526709	0.576284
	H344	H	0.470163	0.512027	0.569627
	O345	O	0.451894	0.599222	0.386903
	H346	H	0.473980	0.599699	0.388638
	H347	H	0.436372	0.593449	0.388748
	O348	O	-0.026899	0.031289	0.015902
	H349	H	-0.019409	0.028585	0.011906
	H350	H	-0.029850	0.028710	0.020302
	O351	O	-0.032422	1.043942	0.962089
	H352	H	-0.040963	1.053499	0.968090
	H353	H	-0.026431	1.039792	0.966181
	O354	O	0.482532	0.493160	0.558208
	H355	H	0.490702	0.494696	0.551133
	H356	H	0.474168	0.494655	0.555272
	O357	O	0.013905	1.032195	0.963762
	H358	H	0.009062	1.033282	0.966524
	H359	H	0.013687	1.017691	0.958027
