data_Molecule from HDF5

_cell_length_a		16.157345
_cell_length_b		16.386262
_cell_length_c		16.184893
_cell_angle_alpha	89.553041
_cell_angle_beta	90.599876
_cell_angle_gamma	90.116930
_symmetry_space_group_name_H-M	'P 1'
_symmetry_Int_Tables_number		1

loop_
	_symmetry_equiv_pos_as_xyz
	x,y,z

loop_
	_atom_site_label
	_atom_site_type_symbol
	_atom_site_fract_x
	_atom_site_fract_y
	_atom_site_fract_z
	H0	H	0.400882	0.838583	0.710606
	H1	H	0.601575	0.163483	0.707850
	H2	H	0.595235	0.837288	0.281582
	H3	H	0.400016	0.163355	0.275215
	H4	H	0.710248	0.408036	0.826891
	H5	H	0.717986	0.597656	0.157791
	H6	H	0.286315	0.600818	0.829328
	H7	H	0.290306	0.402469	0.157855
	H8	H	0.837248	0.716575	0.388082
	H9	H	0.165647	0.715736	0.593623
	H10	H	0.836922	0.283363	0.594601
	H11	H	0.165299	0.285056	0.397144
	H12	H	0.835913	0.401817	0.704985
	H13	H	0.166871	0.597467	0.707156
	H14	H	0.836965	0.597936	0.276063
	H15	H	0.167946	0.404513	0.284342
	H16	H	0.398866	0.720251	0.830842
	H17	H	0.605306	0.715780	0.158563
	H18	H	0.601314	0.286420	0.829005
	H19	H	0.400582	0.282444	0.155839
	H20	H	0.714826	0.837812	0.395147
	H21	H	0.717016	0.163581	0.591593
	H22	H	0.287178	0.836827	0.590726
	H23	H	0.284765	0.163546	0.392154
	H24	H	0.904875	0.338644	0.207526
	H25	H	0.103213	0.663764	0.208648
	H26	H	0.098170	0.336943	0.782250
	H27	H	0.900584	0.662290	0.773365
	H28	H	0.210817	0.904188	0.327085
	H29	H	0.216513	0.094910	0.657621
	H30	H	0.787331	0.097244	0.328451
	H31	H	0.790407	0.902579	0.659133
	H32	H	0.337204	0.218460	0.888893
	H33	H	0.665166	0.214546	0.094210
	H34	H	0.338002	0.783670	0.093386
	H35	H	0.665693	0.787135	0.894975
	H36	H	0.334172	0.903742	0.201241
	H37	H	0.664672	0.097974	0.207924
	H38	H	0.336334	0.100041	0.775471
	H39	H	0.666011	0.904329	0.781128
	H40	H	0.896967	0.218014	0.330122
	H41	H	0.103546	0.213723	0.657985
	H42	H	0.099420	0.786482	0.328183
	H43	H	0.900413	0.781058	0.655724
	H44	H	0.215654	0.338395	0.897509
	H45	H	0.218951	0.664237	0.091978
	H46	H	0.788169	0.338745	0.092434
	H47	H	0.786809	0.663771	0.891629
	H48	H	0.416201	0.112548	0.579157
	H49	H	0.599716	0.883907	0.587001
	H50	H	0.594163	0.115701	0.404619
	H51	H	0.401427	0.883377	0.398561
	H52	H	0.595579	0.405021	0.110093
	H53	H	0.595454	0.594117	0.876228
	H54	H	0.413756	0.588952	0.109810
	H55	H	0.394173	0.411750	0.872057
	H56	H	0.118333	0.600556	0.406346
	H57	H	0.886273	0.592117	0.577685
	H58	H	0.121128	0.410076	0.599513
	H59	H	0.885240	0.411641	0.399559
	H60	H	0.122239	0.394046	0.585919
	H61	H	0.885087	0.587327	0.583649
	H62	H	0.116882	0.589850	0.402467
	H63	H	0.881162	0.406060	0.396225
	H64	H	0.415043	0.597901	0.111373
	H65	H	0.587695	0.595666	0.878653
	H66	H	0.596294	0.405953	0.110705
	H67	H	0.416716	0.421112	0.881449
	H68	H	0.596414	0.117313	0.396202
	H69	H	0.591428	0.884179	0.591671
	H70	H	0.401391	0.116233	0.577411
	H71	H	0.404471	0.883183	0.394189
	H72	H	0.908156	0.617667	0.082885
	H73	H	0.089578	0.385825	0.092149
	H74	H	0.085881	0.615585	0.893763
	H75	H	0.901481	0.381883	0.897129
	H76	H	0.099281	0.898858	0.613695
	H77	H	0.089623	0.081745	0.380422
	H78	H	0.911052	0.094264	0.610742
	H79	H	0.898536	0.914932	0.375573
	H80	H	0.615221	0.093456	0.907613
	H81	H	0.386460	0.089097	0.075629
	H82	H	0.617453	0.904851	0.077636
	H83	H	0.380593	0.905837	0.894871
	H84	H	0.616907	0.918779	0.092099
	H85	H	0.380571	0.091267	0.091624
	H86	H	0.619401	0.091327	0.896117
	H87	H	0.385355	0.905096	0.909571
	H88	H	0.907317	0.094224	0.612709
	H89	H	0.078152	0.102858	0.377264
	H90	H	0.097074	0.914686	0.607800
	H91	H	0.917147	0.911467	0.379222
	H92	H	0.093067	0.613710	0.908041
	H93	H	0.096911	0.386686	0.082110
	H94	H	0.911238	0.617766	0.085911
	H95	H	0.910365	0.384706	0.896239
	H96	H	0.408578	0.118359	0.590614
	H97	H	0.591666	0.887956	0.583366
	H98	H	0.588253	0.115748	0.397578
	H99	H	0.406607	0.885255	0.398215
	H100	H	0.594896	0.406242	0.110860
	H101	H	0.591988	0.601012	0.875264
	H102	H	0.407028	0.594020	0.111788
	H103	H	0.415435	0.396606	0.873630
	H104	H	0.121921	0.596746	0.395457
	H105	H	0.882520	0.595169	0.584640
	H106	H	0.114108	0.411891	0.578519
	H107	H	0.884516	0.405098	0.403550
	H108	H	0.912379	0.616587	0.081915
	H109	H	0.102563	0.382782	0.092664
	H110	H	0.101925	0.620047	0.895965
	H111	H	0.905517	0.386196	0.904366
	H112	H	0.084327	0.903669	0.608128
	H113	H	0.101460	0.100725	0.371166
	H114	H	0.909804	0.090905	0.611617
	H115	H	0.905493	0.897955	0.372408
	H116	H	0.620107	0.102006	0.900999
	H117	H	0.379927	0.103969	0.080823
	H118	H	0.623240	0.900383	0.096047
	H119	H	0.386634	0.918250	0.901029
	C120	C	0.379367	0.008512	0.613366
	C121	C	0.623369	0.992605	0.615562
	C122	C	0.621312	0.008817	0.371334
	C123	C	0.375940	0.991688	0.368254
	C124	C	0.623235	0.379195	0.001433
	C125	C	0.622997	0.623866	0.985326
	C126	C	0.381098	0.623388	0.002533
	C127	C	0.380806	0.380108	0.984536
	C128	C	0.010251	0.623232	0.370869
	C129	C	0.993030	0.620949	0.612804
	C130	C	0.009973	0.377276	0.615871
	C131	C	0.993306	0.379656	0.372987
	C132	C	0.881792	0.509917	0.113179
	C133	C	0.125624	0.492515	0.116488
	C134	C	0.122478	0.508916	0.872130
	C135	C	0.877526	0.492101	0.869230
	C136	C	0.121564	0.878599	0.501020
	C137	C	0.121192	0.122262	0.484752
	C138	C	0.879333	0.122055	0.502562
	C139	C	0.878861	0.878421	0.484354
	C140	C	0.509641	0.124215	0.870635
	C141	C	0.491485	0.122545	0.113077
	C142	C	0.509899	0.879363	0.115473
	C143	C	0.492799	0.881131	0.873214
	C144	C	0.381156	0.886938	0.671215
	C145	C	0.621628	0.115034	0.669979
	C146	C	0.616835	0.886030	0.318330
	C147	C	0.378933	0.114573	0.312815
	C148	C	0.675222	0.385091	0.876697
	C149	C	0.680076	0.619463	0.108805
	C150	C	0.324566	0.621326	0.878574
	C151	C	0.326964	0.381805	0.108366
	C152	C	0.886301	0.678118	0.369948
	C153	C	0.116638	0.676999	0.612594
	C154	C	0.886113	0.321930	0.613687
	C155	C	0.116794	0.324052	0.376822
	C156	C	0.885406	0.381170	0.668455
	C157	C	0.117258	0.618099	0.669053
	C158	C	0.886212	0.619173	0.314119
	C159	C	0.118060	0.383588	0.320820
	C160	C	0.380299	0.680940	0.879407
	C161	C	0.624188	0.678240	0.109096
	C162	C	0.620884	0.324798	0.877895
	C163	C	0.381865	0.322232	0.107287
	C164	C	0.676322	0.886407	0.375056
	C165	C	0.679429	0.114750	0.612642
	C166	C	0.324800	0.885857	0.611512
	C167	C	0.321911	0.114640	0.371201
	C168	C	0.883925	0.387327	0.169647
	C169	C	0.123743	0.615212	0.170988
	C170	C	0.119026	0.385810	0.819469
	C171	C	0.880344	0.613974	0.812075
	C172	C	0.174074	0.883011	0.376534
	C173	C	0.178674	0.117244	0.608344
	C174	C	0.824129	0.118946	0.378048
	C175	C	0.826151	0.880960	0.609100
	C176	C	0.386138	0.179929	0.870002
	C177	C	0.615673	0.176918	0.113301
	C178	C	0.386409	0.822767	0.112852
	C179	C	0.616643	0.825472	0.875355
	C180	C	0.384679	0.882316	0.166796
	C181	C	0.615608	0.118796	0.169680
	C182	C	0.385587	0.121387	0.813282
	C183	C	0.616974	0.883838	0.818803
	C184	C	0.878896	0.178847	0.378972
	C185	C	0.122233	0.176015	0.608773
	C186	C	0.118675	0.824504	0.377190
	C187	C	0.880715	0.820729	0.607412
	C188	C	0.177560	0.386665	0.876525
	C189	C	0.181316	0.615383	0.113196
	C190	C	0.826295	0.387250	0.112134
	C191	C	0.823635	0.614737	0.871020
	C192	C	0.402243	0.093799	0.589621
	C193	C	0.600870	0.907247	0.593987
	C194	C	0.599473	0.094127	0.392919
	C195	C	0.397583	0.906142	0.390385
	C196	C	0.602040	0.399821	0.088053
	C197	C	0.598688	0.603065	0.899200
	C198	C	0.405020	0.600312	0.088856
	C199	C	0.402469	0.403156	0.898039
	C200	C	0.096886	0.601985	0.394595
	C201	C	0.906789	0.598255	0.588787
	C202	C	0.096877	0.398907	0.594564
	C203	C	0.906223	0.401252	0.393650
	C204	C	0.903981	0.595206	0.090187
	C205	C	0.103201	0.407360	0.095179
	C206	C	0.100217	0.594267	0.892987
	C207	C	0.899215	0.406452	0.892343
	C208	C	0.099910	0.899653	0.587529
	C209	C	0.096834	0.101257	0.398475
	C210	C	0.902681	0.099716	0.589239
	C211	C	0.900506	0.901163	0.398154
	C212	C	0.595884	0.102053	0.894392
	C213	C	0.404753	0.100974	0.089637
	C214	C	0.596658	0.901418	0.094777
	C215	C	0.406526	0.903319	0.895224
	Zn216	Zn	0.501273	0.001422	0.743737
	Zn217	Zn	0.499237	0.000914	0.241231
	Zn218	Zn	0.750573	0.501269	-0.007191
	Zn219	Zn	0.252964	0.501399	-0.006193
	Zn220	Zn	0.000698	0.750782	0.491944
	Zn221	Zn	0.000244	0.250651	0.494242
	Zn222	Zn	0.001138	0.499478	0.742155
	Zn223	Zn	0.002774	0.501465	0.243405
	Zn224	Zn	0.501947	0.752557	-0.005321
	Zn225	Zn	0.501379	0.251633	-0.007433
	Zn226	Zn	0.751668	0.000722	0.493700
	Zn227	Zn	0.248825	-0.000539	0.491557
	N228	N	0.414355	0.964355	0.672418
	N229	N	0.587413	0.038078	0.671956
	N230	N	0.583299	0.963179	0.315911
	N231	N	0.411699	0.037151	0.310816
	N232	N	0.676912	0.418170	0.954578
	N233	N	0.679652	0.586371	0.030951
	N234	N	0.324993	0.586371	0.956093
	N235	N	0.326353	0.417179	0.031056
	N236	N	0.964327	0.680607	0.404626
	N237	N	0.038277	0.678926	0.578446
	N238	N	0.964726	0.319556	0.581640
	N239	N	0.038138	0.321821	0.408540
	N240	N	0.963400	0.414905	0.670095
	N241	N	0.039368	0.583832	0.669358
	N242	N	0.964336	0.585909	0.314354
	N243	N	0.040150	0.417477	0.318312
	N244	N	0.414730	0.682190	0.957516
	N245	N	0.589197	0.681150	0.031304
	N246	N	0.589213	0.321158	0.956389
	N247	N	0.414686	0.321241	0.029224
	N248	N	0.679343	0.963805	0.407174
	N249	N	0.680347	0.037755	0.579282
	N250	N	0.323556	0.962500	0.576292
	N251	N	0.319667	0.037405	0.404797
	N252	N	0.917892	0.464336	0.170237
	N253	N	0.090116	0.538040	0.173457
	N254	N	0.085457	0.462861	0.816409
	N255	N	0.913069	0.536579	0.810967
	N256	N	0.175851	0.916040	0.454355
	N257	N	0.178099	0.084396	0.530234
	N258	N	0.824425	0.084375	0.455847
	N259	N	0.824671	0.916031	0.531588
	N260	N	0.464207	0.181855	0.904835
	N261	N	0.537519	0.179251	0.078698
	N262	N	0.465045	0.820786	0.081711
	N263	N	0.538403	0.823759	0.908462
	N264	N	0.462493	0.916930	0.168606
	N265	N	0.537253	0.085896	0.170017
	N266	N	0.463360	0.087464	0.813590
	N267	N	0.539184	0.917908	0.817581
	N268	N	0.912329	0.180933	0.457567
	N269	N	0.087189	0.179122	0.530968
	N270	N	0.086759	0.821581	0.455785
	N271	N	0.912604	0.818943	0.528886
	N272	N	0.179634	0.464072	0.908593
	N273	N	0.182677	0.538248	0.080117
	N274	N	0.824570	0.464335	0.077617
	N275	N	0.821592	0.537790	0.905618
	O276	O	0.064277	0.010498	0.038117
	H277	H	0.073328	0.014892	0.046465
	H278	H	0.069650	0.011918	0.033751
	O279	O	0.537651	0.521163	0.491238
	H280	H	0.533411	0.525977	0.488449
	H281	H	0.528276	0.520931	0.482372
	O282	O	0.507201	0.472776	0.513723
	H283	H	0.508022	0.468078	0.506085
	H284	H	0.509627	0.487657	0.505796
	O285	O	0.997141	-0.045289	0.997739
	H286	H	0.996620	-0.036204	1.008563
	H287	H	0.989255	-0.037681	0.992258
	O288	O	0.940447	-0.004730	0.060752
	H289	H	0.940139	-0.004240	0.068191
	H290	H	0.943321	0.003942	0.057192
	O291	O	0.542392	0.569053	0.487898
	H292	H	0.545565	0.569478	0.495643
	H293	H	0.550294	0.569752	0.484126
	O294	O	0.919629	0.025845	0.957155
	H295	H	0.914792	0.024778	0.941966
	H296	H	0.938681	0.022671	0.957092
	O297	O	0.001856	0.027955	0.013480
	H298	H	0.001627	0.032062	0.018187
	H299	H	0.003728	0.033507	0.011362
	O300	O	0.561763	0.402822	0.476802
	H301	H	0.550275	0.402508	0.468528
	H302	H	0.578420	0.406133	0.471536
	O303	O	0.572972	0.528207	0.596336
	H304	H	0.579806	0.522690	0.611170
	H305	H	0.573909	0.532574	0.597599
	O306	O	1.024625	-0.007074	-0.068736
	H307	H	1.034091	-0.025499	-0.069144
	H308	H	1.014365	-0.015781	-0.075340
	O309	O	0.044175	0.036146	1.083715
	H310	H	0.047890	0.028982	1.090256
	H311	H	0.027849	0.051950	1.074818
	O312	O	1.067511	1.048505	1.082734
	H313	H	1.071284	1.050232	1.079271
	H314	H	1.069912	1.048334	1.084364
	O315	O	0.446656	0.467922	0.418256
	H316	H	0.437951	0.475782	0.415407
	H317	H	0.447136	0.468029	0.419271
	O318	O	0.451514	0.487978	0.534221
	H319	H	0.453389	0.490445	0.533524
	H320	H	0.452726	0.489886	0.537236
	O321	O	0.534495	1.558330	1.536464
	H322	H	0.520022	1.545657	1.540320
	H323	H	0.534143	1.550382	1.541523
	O324	O	0.610431	0.554573	0.500566
	H325	H	0.607382	0.545137	0.508415
	H326	H	0.614451	0.560647	0.504504
	O327	O	0.465420	0.453472	0.501585
	H328	H	0.464099	0.451944	0.508370
	H329	H	0.467169	0.460916	0.499029
	O330	O	0.421536	0.455138	0.418570
	H331	H	0.411503	0.471872	0.417644
	H332	H	0.423749	0.453026	0.424456
	O333	O	0.578639	0.528327	0.479808
	H334	H	0.580340	0.522427	0.480878
	H335	H	0.578912	0.520096	0.479922
	O336	O	0.481971	0.463618	0.486513
	H337	H	0.475897	0.464042	0.488819
	H338	H	0.486812	0.457764	0.476892
	O339	O	1.038840	1.013325	-0.066583
	H340	H	1.037270	1.009958	-0.080898
	H341	H	1.043737	1.015088	-0.061481
	O342	O	0.474305	0.481480	0.482515
	H343	H	0.487373	0.479392	0.482648
	H344	H	0.475563	0.472051	0.481166
	O345	O	0.534785	0.559649	0.581388
	H346	H	0.541989	0.560130	0.584916
	H347	H	0.540516	0.556392	0.583965
	O348	O	-0.043013	-0.013814	-0.064497
	H349	H	-0.044782	-0.025476	-0.058496
	H350	H	-0.053258	-0.004140	-0.057908
	O351	O	-0.013354	1.038551	1.034618
	H352	H	-0.023954	1.032555	1.038053
	H353	H	-0.001714	1.042312	1.037135
	O354	O	0.441383	0.592985	0.460007
	H355	H	0.436881	0.601977	0.462530
	H356	H	0.444176	0.590847	0.457460
	O357	O	-0.015268	0.957405	0.983449
	H358	H	-0.017176	0.951399	0.989306
	H359	H	-0.023959	0.948343	0.979248
