data_Molecule from HDF5

_cell_length_a		16.443508
_cell_length_b		16.206775
_cell_length_c		16.120608
_cell_angle_alpha	89.219999
_cell_angle_beta	90.372087
_cell_angle_gamma	89.766786
_symmetry_space_group_name_H-M	'P 1'
_symmetry_Int_Tables_number		1

loop_
	_symmetry_equiv_pos_as_xyz
	x,y,z

loop_
	_atom_site_label
	_atom_site_type_symbol
	_atom_site_fract_x
	_atom_site_fract_y
	_atom_site_fract_z
	H0	H	0.404353	0.830398	0.725469
	H1	H	0.600267	0.158743	0.720439
	H2	H	0.596983	0.828144	0.301618
	H3	H	0.401172	0.157700	0.288131
	H4	H	0.720583	0.392753	0.844583
	H5	H	0.723697	0.596494	0.170269
	H6	H	0.287272	0.599427	0.843790
	H7	H	0.288441	0.391238	0.171474
	H8	H	0.841155	0.713901	0.404704
	H9	H	0.164980	0.710870	0.608629
	H10	H	0.842698	0.276898	0.610962
	H11	H	0.164505	0.277342	0.408205
	H12	H	0.842331	0.394864	0.723935
	H13	H	0.166070	0.592297	0.723615
	H14	H	0.842907	0.599368	0.286852
	H15	H	0.166516	0.398377	0.295766
	H16	H	0.404943	0.710935	0.844005
	H17	H	0.600237	0.702097	0.174460
	H18	H	0.601344	0.282788	0.842558
	H19	H	0.405681	0.278213	0.171830
	H20	H	0.721271	0.833292	0.406325
	H21	H	0.722336	0.156096	0.613067
	H22	H	0.286530	0.831737	0.611598
	H23	H	0.282329	0.156863	0.400963
	H24	H	0.908794	0.331686	0.224273
	H25	H	0.102187	0.660220	0.218665
	H26	H	0.101094	0.329497	0.798706
	H27	H	0.904691	0.658071	0.788898
	H28	H	0.218758	0.892933	0.345541
	H29	H	0.221311	0.097112	0.669900
	H30	H	0.781250	0.102920	0.345370
	H31	H	0.786784	0.890114	0.671059
	H32	H	0.342119	0.215367	0.903726
	H33	H	0.665116	0.210323	0.110365
	H34	H	0.341203	0.776133	0.110359
	H35	H	0.664161	0.778231	0.911485
	H36	H	0.340466	0.893393	0.224449
	H37	H	0.664657	0.089815	0.224470
	H38	H	0.341125	0.096065	0.789902
	H39	H	0.664998	0.894696	0.794129
	H40	H	0.901334	0.214749	0.343781
	H41	H	0.102041	0.205400	0.672577
	H42	H	0.098882	0.785483	0.341956
	H43	H	0.903164	0.776764	0.670671
	H44	H	0.222255	0.333285	0.906345
	H45	H	0.220801	0.658392	0.107117
	H46	H	0.787995	0.332226	0.113383
	H47	H	0.784164	0.656573	0.899251
	H48	H	0.408951	0.115555	0.609172
	H49	H	0.592837	0.879632	0.598452
	H50	H	0.597944	0.110502	0.422386
	H51	H	0.415990	0.880544	0.418754
	H52	H	0.597628	0.402116	0.124918
	H53	H	0.592706	0.577958	0.894110
	H54	H	0.414668	0.591878	0.126875
	H55	H	0.408901	0.412685	0.890994
	H56	H	0.120511	0.591186	0.410320
	H57	H	0.885808	0.590945	0.604050
	H58	H	0.121842	0.394427	0.607621
	H59	H	0.888442	0.408605	0.409458
	H60	H	0.118642	0.396884	0.596506
	H61	H	0.890670	0.590381	0.589235
	H62	H	0.119754	0.595257	0.415926
	H63	H	0.887266	0.397924	0.418143
	H64	H	0.400919	0.583887	0.128783
	H65	H	0.587527	0.594146	0.890449
	H66	H	0.597469	0.404972	0.124681
	H67	H	0.415717	0.405258	0.891411
	H68	H	0.593993	0.114039	0.409283
	H69	H	0.598507	0.877672	0.598812
	H70	H	0.420215	0.105780	0.591108
	H71	H	0.401687	0.877597	0.425172
	H72	H	0.915186	0.610531	0.095516
	H73	H	0.087803	0.381581	0.102424
	H74	H	0.099871	0.611618	0.918501
	H75	H	0.901022	0.374358	0.915119
	H76	H	0.090657	0.902317	0.624185
	H77	H	0.093020	0.090848	0.388636
	H78	H	0.910771	0.081788	0.624672
	H79	H	0.926547	0.913585	0.397465
	H80	H	0.620285	0.087090	0.907834
	H81	H	0.389687	0.086318	0.092979
	H82	H	0.617798	0.897407	0.102144
	H83	H	0.387831	0.904615	0.915205
	H84	H	0.617985	0.899993	0.107001
	H85	H	0.389174	0.083594	0.099617
	H86	H	0.618743	0.094898	0.919423
	H87	H	0.387775	0.900355	0.917672
	H88	H	0.911970	0.085026	0.624177
	H89	H	0.094823	0.081733	0.391135
	H90	H	0.098044	0.898011	0.627677
	H91	H	0.907155	0.890352	0.383745
	H92	H	0.097104	0.613752	0.910615
	H93	H	0.102522	0.380379	0.091814
	H94	H	0.910186	0.610689	0.089346
	H95	H	0.916988	0.378013	0.911738
	H96	H	0.398325	0.111555	0.588919
	H97	H	0.594987	0.877005	0.604116
	H98	H	0.584328	0.108820	0.418761
	H99	H	0.404820	0.874264	0.409864
	H100	H	0.594796	0.403068	0.123950
	H101	H	0.603150	0.588969	0.886990
	H102	H	0.413555	0.576019	0.122147
	H103	H	0.407241	0.403608	0.887884
	H104	H	0.117171	0.588667	0.416288
	H105	H	0.892015	0.577666	0.599246
	H106	H	0.118791	0.405303	0.604321
	H107	H	0.892892	0.409291	0.421768
	H108	H	0.908576	0.613048	0.096186
	H109	H	0.103547	0.374997	0.109929
	H110	H	0.091220	0.610357	0.916574
	H111	H	0.910824	0.380550	0.927256
	H112	H	0.098269	0.906337	0.625507
	H113	H	0.086740	0.085739	0.392412
	H114	H	0.909150	0.084616	0.625411
	H115	H	0.895688	0.919894	0.389968
	H116	H	0.614474	0.081263	0.919797
	H117	H	0.388156	0.090579	0.097487
	H118	H	0.619953	0.894492	0.106573
	H119	H	0.389471	0.904219	0.919573
	C120	C	0.380728	0.003187	0.628358
	C121	C	0.624556	0.985939	0.629796
	C122	C	0.621903	0.003075	0.388279
	C123	C	0.378254	0.985268	0.385577
	C124	C	0.625255	0.373717	0.016229
	C125	C	0.624811	0.615108	0.999289
	C126	C	0.380906	0.615813	0.017354
	C127	C	0.382028	0.375004	0.998717
	C128	C	0.012130	0.620635	0.383593
	C129	C	0.995848	0.615629	0.628420
	C130	C	0.012771	0.370995	0.631481
	C131	C	0.995740	0.375350	0.387672
	C132	C	0.882995	0.503811	0.127162
	C133	C	0.126817	0.487130	0.129542
	C134	C	0.125314	0.504093	0.886668
	C135	C	0.880732	0.485360	0.885420
	C136	C	0.123865	0.873772	0.516828
	C137	C	0.122932	0.115304	0.498744
	C138	C	0.879721	0.116892	0.516781
	C139	C	0.881136	0.875275	0.498595
	C140	C	0.511446	0.118440	0.884533
	C141	C	0.495248	0.115377	0.128291
	C142	C	0.511326	0.869189	0.133143
	C143	C	0.494970	0.873687	0.888402
	C144	C	0.383620	0.879701	0.686731
	C145	C	0.621844	0.109101	0.684458
	C146	C	0.619063	0.878455	0.336161
	C147	C	0.380733	0.108674	0.326932
	C148	C	0.681572	0.374294	0.893202
	C149	C	0.683427	0.614399	0.122023
	C150	C	0.325452	0.617568	0.893232
	C151	C	0.326647	0.373081	0.122351
	C152	C	0.890058	0.676291	0.384524
	C153	C	0.116871	0.671971	0.627854
	C154	C	0.890852	0.315372	0.630071
	C155	C	0.116855	0.317052	0.388774
	C156	C	0.890706	0.373788	0.686821
	C157	C	0.117454	0.612710	0.685125
	C158	C	0.890971	0.619393	0.325678
	C159	C	0.117814	0.377326	0.333025
	C160	C	0.384048	0.672983	0.893259
	C161	C	0.622203	0.667188	0.124166
	C162	C	0.622326	0.319397	0.892175
	C163	C	0.384960	0.316877	0.122595
	C164	C	0.680646	0.880902	0.388599
	C165	C	0.682501	0.107741	0.630696
	C166	C	0.324981	0.880380	0.630091
	C167	C	0.321310	0.108207	0.382564
	C168	C	0.887015	0.380758	0.185945
	C169	C	0.123602	0.610701	0.182673
	C170	C	0.122571	0.379570	0.834312
	C171	C	0.883320	0.608887	0.827118
	C172	C	0.179922	0.874643	0.393866
	C173	C	0.181601	0.115084	0.621203
	C174	C	0.821008	0.120602	0.394046
	C175	C	0.825298	0.872544	0.622145
	C176	C	0.390100	0.175919	0.884724
	C177	C	0.616658	0.171242	0.128876
	C178	C	0.389483	0.814041	0.130305
	C179	C	0.616210	0.816781	0.890531
	C180	C	0.389094	0.872235	0.187376
	C181	C	0.616471	0.111761	0.186167
	C182	C	0.389450	0.116499	0.828267
	C183	C	0.616436	0.874756	0.832317
	C184	C	0.880900	0.176045	0.393263
	C185	C	0.121898	0.168927	0.622841
	C186	C	0.120314	0.820800	0.392237
	C187	C	0.883042	0.816036	0.621860
	C188	C	0.182825	0.381489	0.887731
	C189	C	0.182542	0.609620	0.127073
	C190	C	0.827057	0.380981	0.130629
	C191	C	0.823500	0.608061	0.882082
	C192	C	0.402764	0.088689	0.603541
	C193	C	0.601992	0.900185	0.607133
	C194	C	0.598864	0.088720	0.410355
	C195	C	0.400906	0.899602	0.410592
	C196	C	0.603041	0.396558	0.102231
	C197	C	0.601272	0.593562	0.912941
	C198	C	0.403263	0.591329	0.103661
	C199	C	0.404014	0.399837	0.912616
	C200	C	0.097174	0.598195	0.407248
	C201	C	0.911101	0.592888	0.604554
	C202	C	0.097485	0.392394	0.609383
	C203	C	0.911514	0.398532	0.409983
	C204	C	0.904996	0.589242	0.101258
	C205	C	0.104384	0.400976	0.107790
	C206	C	0.102434	0.589835	0.908618
	C207	C	0.903151	0.399999	0.910646
	C208	C	0.102101	0.895823	0.603370
	C209	C	0.098625	0.092526	0.412793
	C210	C	0.903374	0.091206	0.602492
	C211	C	0.903168	0.900713	0.412846
	C212	C	0.595885	0.094784	0.908667
	C213	C	0.410694	0.093318	0.103639
	C214	C	0.596519	0.890738	0.111633
	C215	C	0.410305	0.896469	0.910946
	Zn216	Zn	0.502943	-0.005352	0.757467
	Zn217	Zn	0.501792	-0.007039	0.259382
	Zn218	Zn	0.753229	0.494663	0.006892
	Zn219	Zn	0.253456	0.495085	0.007207
	Zn220	Zn	0.002669	0.747409	0.507152
	Zn221	Zn	0.003378	0.243320	0.508566
	Zn222	Zn	0.004369	0.493588	0.759469
	Zn223	Zn	0.004816	0.496966	0.256481
	Zn224	Zn	0.502855	0.742142	0.009641
	Zn225	Zn	0.503792	0.247055	0.007100
	Zn226	Zn	0.752050	-0.005118	0.507884
	Zn227	Zn	0.250953	-0.005423	0.507687
	N228	N	0.417730	0.956979	0.685842
	N229	N	0.586347	0.032433	0.683856
	N230	N	0.583032	0.955337	0.335888
	N231	N	0.415156	0.031133	0.328166
	N232	N	0.683704	0.407209	0.971431
	N233	N	0.685124	0.582802	0.043186
	N234	N	0.323446	0.582585	0.971325
	N235	N	0.324849	0.408505	0.044364
	N236	N	0.966469	0.677214	0.419496
	N237	N	0.040036	0.673917	0.593499
	N238	N	0.967429	0.313302	0.596365
	N239	N	0.040114	0.315539	0.422170
	N240	N	0.967203	0.407784	0.687950
	N241	N	0.041016	0.578416	0.685591
	N242	N	0.967787	0.585352	0.325146
	N243	N	0.041765	0.412926	0.332086
	N244	N	0.417779	0.672176	0.971517
	N245	N	0.586420	0.667781	0.046881
	N246	N	0.588008	0.319023	0.969657
	N247	N	0.418613	0.317700	0.044725
	N248	N	0.682529	0.959252	0.420315
	N249	N	0.684255	0.029980	0.597306
	N250	N	0.323102	0.957964	0.594290
	N251	N	0.319736	0.030663	0.418315
	N252	N	0.921012	0.458124	0.183929
	N253	N	0.089747	0.533273	0.184389
	N254	N	0.087346	0.456754	0.833540
	N255	N	0.918276	0.531820	0.829078
	N256	N	0.182285	0.906810	0.472317
	N257	N	0.182236	0.082338	0.542875
	N258	N	0.820241	0.084632	0.471834
	N259	N	0.824144	0.908874	0.544637
	N260	N	0.466936	0.177126	0.919128
	N261	N	0.540218	0.173699	0.093886
	N262	N	0.466560	0.811793	0.097382
	N263	N	0.539839	0.815943	0.924808
	N264	N	0.465770	0.905648	0.189270
	N265	N	0.539943	0.077580	0.185849
	N266	N	0.465781	0.081449	0.827854
	N267	N	0.540033	0.909402	0.830949
	N268	N	0.916561	0.174033	0.470701
	N269	N	0.085832	0.169009	0.545703
	N270	N	0.086247	0.819938	0.469944
	N271	N	0.917103	0.817499	0.544230
	N272	N	0.184519	0.459741	0.919709
	N273	N	0.184612	0.531554	0.094968
	N274	N	0.824362	0.458632	0.094774
	N275	N	0.821469	0.530427	0.917486
	O276	O	0.965717	0.018223	1.050827
	H277	H	0.956634	0.018828	1.048727
	H278	H	0.971706	0.031615	1.055468
	O279	O	-0.036072	0.977771	0.065956
	H280	H	-0.046499	0.981035	0.069567
	H281	H	-0.035292	0.969812	0.060120
	O282	O	0.500898	0.587824	0.449401
	H283	H	0.490216	0.599954	0.441507
	H284	H	0.501157	0.585687	0.451644
	O285	O	0.518474	0.534378	0.536229
	H286	H	0.510776	0.527589	0.545857
	H287	H	0.528294	0.536632	0.528504
	O288	O	0.538024	0.533268	0.486554
	H289	H	0.525966	0.542379	0.491411
	H290	H	0.540596	0.534364	0.489270
	O291	O	0.024027	-0.121894	0.866370
	H292	H	0.044207	-0.131188	0.874734
	H293	H	0.025802	-0.114593	0.860069
	O294	O	0.847523	1.111952	-0.055223
	H295	H	0.857858	1.106819	-0.071292
	H296	H	0.839145	1.108147	-0.034083
	O297	O	1.076692	0.956205	0.128500
	H298	H	1.071840	0.976473	0.128645
	H299	H	1.071563	0.945707	0.137399
	O300	O	0.580441	0.473210	0.562161
	H301	H	0.581060	0.464375	0.558767
	H302	H	0.586208	0.477430	0.555736
	O303	O	0.446190	0.462226	0.505062
	H304	H	0.447344	0.468842	0.493371
	H305	H	0.441648	0.462927	0.506964
	O306	O	0.452342	0.424250	0.485692
	H307	H	0.461856	0.422433	0.492873
	H308	H	0.464365	0.432790	0.496077
	O309	O	0.466646	0.434035	0.465739
	H310	H	0.474467	0.431030	0.459558
	H311	H	0.454238	0.423947	0.460937
	O312	O	0.874567	1.041007	0.936931
	H313	H	0.869509	1.045544	0.936211
	H314	H	0.877455	1.043389	0.950072
	O315	O	0.918975	0.891614	0.034612
	H316	H	0.917972	0.879188	0.042353
	H317	H	0.920518	0.890753	0.021865
	O318	O	0.390414	0.487860	0.416518
	H319	H	0.385244	0.485639	0.428354
	H320	H	0.380899	0.499176	0.426297
	O321	O	0.478179	0.506979	0.482830
	H322	H	0.489392	0.500361	0.493818
	H323	H	0.484197	0.508471	0.467504
	O324	O	-0.082066	1.031217	1.020871
	H325	H	-0.090963	1.018022	1.007268
	H326	H	-0.078414	1.026784	1.022324
	O327	O	0.003331	0.925890	1.116766
	H328	H	-0.020226	0.924801	1.118091
	H329	H	0.006061	0.925182	1.118407
	O330	O	-0.019753	0.078278	0.029014
	H331	H	-0.007364	0.075900	0.019550
	H332	H	-0.030533	0.080668	0.023224
	O333	O	0.530473	0.541834	0.625080
	H334	H	0.533038	0.543062	0.621789
	H335	H	0.531259	0.553036	0.628704
	O336	O	-0.037431	-0.055510	0.115115
	H337	H	-0.045111	-0.052445	0.106988
	H338	H	-0.039619	-0.056617	0.110721
	O339	O	0.062161	0.130233	0.062631
	H340	H	0.073345	0.131706	0.064949
	H341	H	0.064276	0.128347	0.048729
	O342	O	0.170663	0.919654	-0.022469
	H343	H	0.170307	0.909541	-0.025548
	H344	H	0.175845	0.920606	-0.002730
	O345	O	0.024924	1.027935	1.151515
	H346	H	0.015441	1.040378	1.157925
	H347	H	0.021982	1.034391	1.159996
	O348	O	0.504294	0.538132	0.421848
	H349	H	0.500258	0.536431	0.417384
	H350	H	0.502653	0.540831	0.414328
	O351	O	0.509849	0.472021	0.556605
	H352	H	0.518608	0.472465	0.549899
	H353	H	0.500878	0.471544	0.542569
	O354	O	0.090147	0.909870	-0.054975
	H355	H	0.104882	0.905558	-0.052084
	H356	H	0.090163	0.912565	-0.045256
	O357	O	0.497920	0.523435	0.424063
	H358	H	0.496741	0.510477	0.416567
	H359	H	0.476405	0.538425	0.421635
	O360	O	0.548983	0.489507	0.591244
	H361	H	0.553061	0.477658	0.587048
	H362	H	0.552748	0.486086	0.590042
	O363	O	0.502355	0.586540	0.618356
	H364	H	0.510893	0.591069	0.625017
	H365	H	0.494851	0.578545	0.622536
	O366	O	0.678653	0.391643	0.478524
	H367	H	0.683416	0.397597	0.474211
	H368	H	0.680147	0.370341	0.471925
	O369	O	1.049287	0.019199	-0.080257
	H370	H	1.038937	0.027676	-0.084920
	H371	H	1.056294	0.015162	-0.076383
	O372	O	0.408588	0.438680	0.555734
	H373	H	0.413763	0.429515	0.547871
	H374	H	0.404223	0.428113	0.559175
	O375	O	1.094631	0.009438	0.910610
	H376	H	1.094501	0.018991	0.912373
	H377	H	1.097863	0.003300	0.918658
	O378	O	0.111598	0.949219	-0.074405
	H379	H	0.118098	0.944325	-0.079395
	H380	H	0.107303	0.938973	-0.068902
	O381	O	0.654272	0.437439	0.447938
	H382	H	0.648865	0.441894	0.445833
	H383	H	0.664000	0.449729	0.447870
	O384	O	0.895716	1.050265	0.043369
	H385	H	0.894135	1.053345	0.042673
	H386	H	0.896469	1.053408	0.032900
	O387	O	0.945584	-0.000490	0.932883
	H388	H	0.954365	-0.000404	0.917922
	H389	H	0.938483	0.001798	0.938732
	O390	O	1.055828	0.980224	0.012027
	H391	H	1.048315	0.973762	0.011121
	H392	H	1.061245	0.983045	0.016765
	O393	O	0.465626	0.466669	0.549214
	H394	H	0.459383	0.452259	0.547475
	H395	H	0.464739	0.473667	0.568008
