data_Molecule from HDF5

_cell_length_a		16.325156
_cell_length_b		16.182627
_cell_length_c		16.444061
_cell_angle_alpha	89.646014
_cell_angle_beta	90.226806
_cell_angle_gamma	90.168215
_symmetry_space_group_name_H-M	'P 1'
_symmetry_Int_Tables_number		1

loop_
	_symmetry_equiv_pos_as_xyz
	x,y,z

loop_
	_atom_site_label
	_atom_site_type_symbol
	_atom_site_fract_x
	_atom_site_fract_y
	_atom_site_fract_z
	H0	H	0.388340	0.831981	0.725955
	H1	H	0.601885	0.154999	0.720630
	H2	H	0.597690	0.830691	0.286190
	H3	H	0.392839	0.154908	0.284006
	H4	H	0.716070	0.388952	0.846514
	H5	H	0.713089	0.594701	0.166032
	H6	H	0.273247	0.595981	0.846653
	H7	H	0.278484	0.386814	0.166455
	H8	H	0.833983	0.709473	0.404749
	H9	H	0.158509	0.708242	0.607149
	H10	H	0.834095	0.271887	0.607192
	H11	H	0.159103	0.278671	0.409661
	H12	H	0.834505	0.383419	0.728653
	H13	H	0.156088	0.595635	0.727675
	H14	H	0.834367	0.595241	0.287217
	H15	H	0.155619	0.386927	0.288328
	H16	H	0.391121	0.712082	0.845094
	H17	H	0.597016	0.709416	0.165749
	H18	H	0.596020	0.277518	0.843076
	H19	H	0.394962	0.271183	0.164517
	H20	H	0.712700	0.829675	0.402213
	H21	H	0.713912	0.155117	0.603006
	H22	H	0.277910	0.830230	0.605380
	H23	H	0.278032	0.154188	0.398714
	H24	H	0.892309	0.328978	0.225744
	H25	H	0.098316	0.654754	0.224775
	H26	H	0.100475	0.330296	0.790061
	H27	H	0.888150	0.652026	0.783547
	H28	H	0.213065	0.889917	0.343907
	H29	H	0.220827	0.097094	0.662702
	H30	H	0.777986	0.096297	0.343471
	H31	H	0.775335	0.886479	0.664133
	H32	H	0.333956	0.209982	0.900629
	H33	H	0.658512	0.206637	0.100823
	H34	H	0.334084	0.774767	0.104550
	H35	H	0.658523	0.775740	0.904697
	H36	H	0.334657	0.887869	0.222644
	H37	H	0.656215	0.097289	0.222437
	H38	H	0.336006	0.098402	0.780628
	H39	H	0.657077	0.888325	0.784681
	H40	H	0.894810	0.212435	0.345093
	H41	H	0.098019	0.206918	0.667535
	H42	H	0.097698	0.773673	0.345202
	H43	H	0.894744	0.774057	0.665946
	H44	H	0.210416	0.329114	0.908336
	H45	H	0.215331	0.654053	0.110787
	H46	H	0.775836	0.330048	0.110616
	H47	H	0.779618	0.655858	0.905430
	H48	H	0.395773	0.112465	0.591816
	H49	H	0.577164	0.879388	0.593782
	H50	H	0.582654	0.111136	0.401592
	H51	H	0.404312	0.876821	0.414775
	H52	H	0.589220	0.401828	0.119698
	H53	H	0.583559	0.586908	0.890828
	H54	H	0.405404	0.583745	0.119794
	H55	H	0.398095	0.403451	0.890746
	H56	H	0.104961	0.575192	0.424953
	H57	H	0.882900	0.576729	0.596490
	H58	H	0.112738	0.398345	0.606634
	H59	H	0.876059	0.391226	0.414048
	H60	H	0.109585	0.398413	0.594735
	H61	H	0.879560	0.581441	0.600125
	H62	H	0.112894	0.576942	0.402559
	H63	H	0.885375	0.405865	0.427520
	H64	H	0.404281	0.580754	0.118990
	H65	H	0.591529	0.584439	0.889586
	H66	H	0.583292	0.402591	0.117204
	H67	H	0.402657	0.403827	0.891540
	H68	H	0.579475	0.103656	0.418815
	H69	H	0.591290	0.876902	0.589328
	H70	H	0.417602	0.108028	0.602811
	H71	H	0.404204	0.875417	0.411057
	H72	H	0.902170	0.608775	0.097088
	H73	H	0.088490	0.374607	0.102986
	H74	H	0.082876	0.605854	0.921274
	H75	H	0.906882	0.377849	0.918586
	H76	H	0.086058	0.902325	0.618515
	H77	H	0.091844	0.085884	0.389429
	H78	H	0.911158	0.072560	0.614329
	H79	H	0.903031	0.897063	0.388689
	H80	H	0.612407	0.088771	0.910313
	H81	H	0.381374	0.079723	0.092674
	H82	H	0.610537	0.903883	0.097369
	H83	H	0.382576	0.906221	0.911520
	H84	H	0.611908	0.901436	0.098162
	H85	H	0.380200	0.080030	0.094846
	H86	H	0.609266	0.083046	0.915488
	H87	H	0.382259	0.902162	0.913500
	H88	H	0.908422	0.089933	0.620553
	H89	H	0.085498	0.080301	0.392162
	H90	H	0.089505	0.899524	0.620051
	H91	H	0.900722	0.904690	0.390891
	H92	H	0.087942	0.609693	0.915599
	H93	H	0.081210	0.376865	0.100474
	H94	H	0.905462	0.608044	0.100573
	H95	H	0.904514	0.376377	0.919852
	H96	H	0.413752	0.101029	0.579079
	H97	H	0.587104	0.873456	0.603066
	H98	H	0.596768	0.111065	0.414879
	H99	H	0.407536	0.876565	0.412020
	H100	H	0.584849	0.396411	0.119847
	H101	H	0.585361	0.578863	0.892916
	H102	H	0.407058	0.581274	0.118961
	H103	H	0.401095	0.400447	0.890256
	H104	H	0.114379	0.596244	0.416645
	H105	H	0.881620	0.582923	0.593770
	H106	H	0.107774	0.409471	0.601668
	H107	H	0.881026	0.411348	0.406861
	H108	H	0.906501	0.606711	0.095452
	H109	H	0.087704	0.377023	0.095549
	H110	H	0.080039	0.607266	0.913716
	H111	H	0.905278	0.376251	0.917033
	H112	H	0.090105	0.903718	0.618692
	H113	H	0.084091	0.088531	0.390824
	H114	H	0.893978	0.078176	0.621119
	H115	H	0.907980	0.901860	0.392123
	H116	H	0.610909	0.080478	0.907446
	H117	H	0.380057	0.082218	0.093425
	H118	H	0.610757	0.901625	0.095147
	H119	H	0.383656	0.905525	0.915271
	C120	C	0.376247	0.000949	0.623826
	C121	C	0.616962	0.983969	0.624614
	C122	C	0.617106	0.001427	0.381741
	C123	C	0.374799	0.983673	0.381590
	C124	C	0.616699	0.370731	0.013118
	C125	C	0.617004	0.613433	0.997087
	C126	C	0.373460	0.613873	0.013890
	C127	C	0.372458	0.370238	0.996902
	C128	C	0.004147	0.613447	0.384475
	C129	C	0.987905	0.612022	0.627934
	C130	C	0.003483	0.369284	0.630732
	C131	C	0.987398	0.371540	0.386486
	C132	C	0.873899	0.500364	0.128515
	C133	C	0.117178	0.483456	0.129721
	C134	C	0.114818	0.500367	0.887313
	C135	C	0.874146	0.483628	0.886256
	C136	C	0.117862	0.870904	0.513249
	C137	C	0.118801	0.114627	0.496894
	C138	C	0.874493	0.113054	0.512936
	C139	C	0.873452	0.869812	0.496637
	C140	C	0.504550	0.115141	0.880163
	C141	C	0.487101	0.112527	0.124173
	C142	C	0.504243	0.870864	0.126950
	C143	C	0.488622	0.872373	0.882669
	C144	C	0.372065	0.879747	0.684773
	C145	C	0.619507	0.106175	0.681878
	C146	C	0.617225	0.879065	0.325013
	C147	C	0.374215	0.106042	0.323248
	C148	C	0.675757	0.370526	0.893487
	C149	C	0.674505	0.613948	0.117850
	C150	C	0.313011	0.615439	0.894287
	C151	C	0.316737	0.368443	0.117937
	C152	C	0.882452	0.671026	0.384869
	C153	C	0.109559	0.669891	0.627103
	C154	C	0.882196	0.310689	0.628388
	C155	C	0.109837	0.315330	0.388647
	C156	C	0.882673	0.366350	0.688590
	C157	C	0.108326	0.613905	0.687193
	C158	C	0.882865	0.614449	0.326108
	C159	C	0.108036	0.369615	0.328440
	C160	C	0.372025	0.672735	0.893322
	C161	C	0.616411	0.670692	0.117791
	C162	C	0.616093	0.314893	0.891757
	C163	C	0.374439	0.310449	0.116940
	C164	C	0.674228	0.878621	0.382853
	C165	C	0.675253	0.106411	0.623213
	C166	C	0.317086	0.878810	0.624780
	C167	C	0.317068	0.105749	0.380444
	C168	C	0.873273	0.377864	0.186585
	C169	C	0.117840	0.605852	0.186678
	C170	C	0.117387	0.378666	0.829390
	C171	C	0.871539	0.604585	0.825158
	C172	C	0.174803	0.870516	0.392268
	C173	C	0.179418	0.115376	0.616008
	C174	C	0.817008	0.114954	0.391851
	C175	C	0.814907	0.868208	0.616258
	C176	C	0.382630	0.171952	0.880673
	C177	C	0.609193	0.169892	0.122573
	C178	C	0.382733	0.812910	0.125158
	C179	C	0.610005	0.814157	0.884054
	C180	C	0.383042	0.869422	0.183922
	C181	C	0.608114	0.115446	0.183139
	C182	C	0.383606	0.116479	0.820911
	C183	C	0.609157	0.870197	0.824387
	C184	C	0.874863	0.173100	0.392722
	C185	C	0.118641	0.170129	0.618398
	C186	C	0.117067	0.812883	0.392828
	C187	C	0.874351	0.812049	0.617466
	C188	C	0.172269	0.378144	0.888349
	C189	C	0.176085	0.605378	0.129946
	C190	C	0.815185	0.378385	0.129451
	C191	C	0.817195	0.606344	0.885581
	C192	C	0.401817	0.085172	0.598622
	C193	C	0.592328	0.898756	0.602052
	C194	C	0.593257	0.086462	0.404871
	C195	C	0.398591	0.898468	0.405581
	C196	C	0.592766	0.393640	0.097121
	C197	C	0.593534	0.590120	0.912945
	C198	C	0.398383	0.589148	0.097448
	C199	C	0.394305	0.395259	0.912820
	C200	C	0.088706	0.589695	0.408019
	C201	C	0.903297	0.587333	0.603709
	C202	C	0.087930	0.394640	0.607828
	C203	C	0.902808	0.395621	0.409669
	C204	C	0.897715	0.585790	0.104567
	C205	C	0.092818	0.398283	0.106360
	C206	C	0.090611	0.585472	0.910355
	C207	C	0.898487	0.398825	0.911144
	C208	C	0.095128	0.894853	0.597145
	C209	C	0.094306	0.091593	0.412902
	C210	C	0.897869	0.087627	0.596738
	C211	C	0.897029	0.894206	0.412498
	C212	C	0.588874	0.091126	0.904135
	C213	C	0.402597	0.087765	0.100549
	C214	C	0.589129	0.895397	0.103583
	C215	C	0.404705	0.897336	0.906412
	Zn216	Zn	0.496669	-0.006832	0.752689
	Zn217	Zn	0.495338	-0.007072	0.253758
	Zn218	Zn	0.745812	0.492643	0.006358
	Zn219	Zn	0.243599	0.492032	0.006922
	Zn220	Zn	-0.003676	0.741656	0.506305
	Zn221	Zn	-0.003449	0.242400	0.506442
	Zn222	Zn	-0.004866	0.491245	0.758895
	Zn223	Zn	-0.004709	0.491411	0.257108
	Zn224	Zn	0.496358	0.743166	0.004708
	Zn225	Zn	0.495305	0.241744	0.003551
	Zn226	Zn	0.744663	-0.008055	0.503697
	Zn227	Zn	0.247080	-0.007818	0.502908
	N228	N	0.408207	0.956558	0.684094
	N229	N	0.583867	0.029009	0.682693
	N230	N	0.582544	0.956320	0.324034
	N231	N	0.409313	0.029025	0.323887
	N232	N	0.676595	0.404098	0.970112
	N233	N	0.674820	0.578904	0.041946
	N234	N	0.313756	0.579565	0.970245
	N235	N	0.315340	0.404819	0.042288
	N236	N	0.958870	0.670528	0.420540
	N237	N	0.033368	0.668705	0.590874
	N238	N	0.958378	0.312281	0.593136
	N239	N	0.033692	0.316571	0.424396
	N240	N	0.959235	0.401884	0.690049
	N241	N	0.031649	0.578698	0.687767
	N242	N	0.959558	0.579668	0.325557
	N243	N	0.030956	0.403601	0.326825
	N244	N	0.408639	0.672027	0.968665
	N245	N	0.581238	0.670606	0.041692
	N246	N	0.579872	0.314926	0.967094
	N247	N	0.408210	0.311241	0.040683
	N248	N	0.674246	0.955594	0.417572
	N249	N	0.673936	0.029381	0.588367
	N250	N	0.319537	0.954986	0.587393
	N251	N	0.317361	0.028747	0.416174
	N252	N	0.909043	0.454791	0.185995
	N253	N	0.081985	0.528978	0.186725
	N254	N	0.082394	0.455783	0.828670
	N255	N	0.906403	0.527318	0.825653
	N256	N	0.175524	0.906009	0.468204
	N257	N	0.179655	0.081865	0.539515
	N258	N	0.816714	0.078279	0.467485
	N259	N	0.814034	0.903199	0.539931
	N260	N	0.458691	0.171372	0.916717
	N261	N	0.533056	0.168282	0.086557
	N262	N	0.459166	0.813820	0.090375
	N263	N	0.533939	0.815399	0.919802
	N264	N	0.459825	0.904562	0.185066
	N265	N	0.531192	0.080460	0.184144
	N266	N	0.460520	0.082044	0.820388
	N267	N	0.532762	0.905688	0.823444
	N268	N	0.909983	0.172046	0.468925
	N269	N	0.081692	0.169919	0.543134
	N270	N	0.082338	0.813000	0.468783
	N271	N	0.909977	0.812854	0.541901
	N272	N	0.170892	0.454988	0.923790
	N273	N	0.175920	0.528163	0.095373
	N274	N	0.815549	0.455466	0.093803
	N275	N	0.818716	0.530046	0.922857
	O276	O	0.633593	0.555040	0.668361
	H277	H	0.625859	0.579621	0.682704
	H278	H	0.642490	0.563572	0.662323
	O279	O	0.414530	0.626692	0.462827
	H280	H	0.434522	0.630549	0.463605
	H281	H	0.418536	0.627911	0.457707
	O282	O	1.050182	0.046352	0.982871
	H283	H	1.044711	0.051908	0.980438
	H284	H	1.053762	0.055144	0.984033
	O285	O	0.336425	0.550757	0.314402
	H286	H	0.339557	0.565215	0.313646
	H287	H	0.321887	0.553244	0.306438
	O288	O	0.840258	0.889697	1.072534
	H289	H	0.853505	0.882775	1.072692
	H290	H	0.838398	0.889878	1.060384
	O291	O	-0.014766	0.928065	0.108302
	H292	H	-0.019404	0.929968	0.117087
	H293	H	-0.021632	0.921819	0.103780
	O294	O	0.461347	0.548633	0.548307
	H295	H	0.468269	0.553623	0.544102
	H296	H	0.458532	0.541606	0.544870
	O297	O	0.548505	0.360341	0.567699
	H298	H	0.542279	0.374841	0.581885
	H299	H	0.536211	0.356652	0.564363
	O300	O	0.617339	0.473565	0.388968
	H301	H	0.619009	0.481959	0.391192
	H302	H	0.630743	0.469881	0.387110
	O303	O	0.545612	0.403997	0.378027
	H304	H	0.538637	0.405662	0.386769
	H305	H	0.556759	0.384801	0.378371
	O306	O	0.594826	0.345272	0.439144
	H307	H	0.604009	0.334487	0.445583
	H308	H	0.594986	0.345488	0.436285
	O309	O	0.570339	0.678710	0.601370
	H310	H	0.589271	0.687770	0.595525
	H311	H	0.562263	0.679155	0.600214
	O312	O	0.025759	-0.049764	0.119647
	H313	H	0.026195	-0.056553	0.103946
	H314	H	0.028529	-0.054120	0.118731
	O315	O	0.498718	0.629482	0.378919
	H316	H	0.501414	0.620885	0.372497
	H317	H	0.501168	0.624071	0.369296
	O318	O	0.190206	1.123826	0.998822
	H319	H	0.181239	1.124203	0.994561
	H320	H	0.198117	1.133245	1.012781
	O321	O	0.412541	0.512062	0.594542
	H322	H	0.411095	0.516771	0.588235
	H323	H	0.402042	0.495154	0.594084
	O324	O	-0.088780	1.073668	-0.000464
	H325	H	-0.081202	1.054278	-0.004282
	H326	H	-0.070362	1.088203	-0.003950
	O327	O	0.393024	0.542166	0.396378
	H328	H	0.403225	0.552742	0.406761
	H329	H	0.395162	0.554337	0.398647
	O330	O	0.118117	-0.171039	0.860452
	H331	H	0.133544	-0.164915	0.883693
	H332	H	0.126127	-0.146609	0.862039
	O333	O	0.089346	-0.003604	0.973439
	H334	H	0.092406	-0.008142	0.991802
	H335	H	0.079962	0.002259	0.973193
	O336	O	0.421065	0.381363	0.651895
	H337	H	0.416851	0.384282	0.644799
	H338	H	0.438483	0.384729	0.656618
	O339	O	0.900111	-0.195998	0.092149
	H340	H	0.909189	-0.192025	0.086581
	H341	H	0.912227	-0.210783	0.096955
	O342	O	0.068136	-0.040882	0.079271
	H343	H	0.069643	-0.026759	0.081585
	H344	H	0.064246	-0.050150	0.090114
	O345	O	1.074392	-0.061294	0.976383
	H346	H	1.073709	-0.068185	0.966178
	H347	H	1.082467	-0.057172	0.964562
	O348	O	0.882245	1.156489	-0.141387
	H349	H	0.855648	1.141107	-0.140680
	H350	H	0.872650	1.177798	-0.151631
	O351	O	0.384064	0.502044	0.517914
	H352	H	0.382084	0.515558	0.507967
	H353	H	0.379938	0.507297	0.505694
	O354	O	1.139185	-0.168035	1.035169
	H355	H	1.155469	-0.192413	1.040312
	H356	H	1.107087	-0.158426	1.046471
	O357	O	0.648625	0.611145	0.680603
	H358	H	0.627591	0.620065	0.681125
	H359	H	0.653118	0.625570	0.676924
	O360	O	0.329700	0.417690	0.533252
	H361	H	0.328461	0.422014	0.538858
	H362	H	0.321309	0.424943	0.538164
	O363	O	-0.170574	1.146366	1.029804
	H364	H	-0.175125	1.156038	1.026794
	H365	H	-0.171716	1.150311	1.045839
	O366	O	0.375959	0.368793	0.666464
	H367	H	0.366126	0.367279	0.672005
	H368	H	0.388169	0.357210	0.677081
	O369	O	0.160523	0.966082	-0.189656
	H370	H	0.168713	0.971795	-0.196069
	H371	H	0.163246	0.987838	-0.177192
	O372	O	0.445235	0.643697	0.631384
	H373	H	0.443989	0.646681	0.636096
	H374	H	0.437543	0.627688	0.628922
	O375	O	0.669055	0.569013	0.459339
	H376	H	0.669510	0.567507	0.467446
	H377	H	0.676763	0.552706	0.475091
	O378	O	0.838474	0.990937	0.173756
	H379	H	0.841035	0.985003	0.168821
	H380	H	0.826892	0.967908	0.172271
	O381	O	0.896748	0.028027	-0.150757
	H382	H	0.896536	0.014321	-0.147616
	H383	H	0.912033	0.034434	-0.152049
	O384	O	1.160478	1.091207	0.197166
	H385	H	1.144666	1.101540	0.196044
	H386	H	1.172705	1.102966	0.211654
	O387	O	-0.056175	0.175247	-0.073518
	H388	H	-0.085722	0.158433	-0.077950
	H389	H	-0.064253	0.189784	-0.056420
	O390	O	-0.030159	1.083272	0.117072
	H391	H	-0.036158	1.080916	0.120492
	H392	H	-0.036998	1.067563	0.101306
	O393	O	1.558257	0.539542	0.510682
	H394	H	1.574488	0.537446	0.507855
	H395	H	1.561908	0.539871	0.503593
	O396	O	0.523594	0.447142	0.343539
	H397	H	0.527424	0.428181	0.335642
	H398	H	0.514606	0.435542	0.346533
	O399	O	-0.016656	0.954189	0.976656
	H400	H	-0.016298	0.958465	0.976613
	H401	H	-0.010312	0.943660	0.972551
	O402	O	0.411269	0.407130	0.399656
	H403	H	0.409495	0.413508	0.405767
	H404	H	0.405456	0.405893	0.394184
	O405	O	0.929690	1.012797	-0.148159
	H406	H	0.940656	1.016778	-0.160493
	H407	H	0.937339	1.008034	-0.153945
	O408	O	1.031469	0.820695	-0.099046
	H409	H	1.057228	0.818108	-0.096825
	H410	H	1.044280	0.807211	-0.114592
	O411	O	1.010695	0.068462	1.078088
	H412	H	1.011698	0.072133	1.065269
	H413	H	1.005293	0.082656	1.075740
	O414	O	0.475434	0.253875	0.595783
	H415	H	0.461278	0.256443	0.567605
	H416	H	0.471371	0.253898	0.589092
	O417	O	0.516439	0.501531	0.532048
	H418	H	0.519683	0.495606	0.537656
	H419	H	0.510314	0.501889	0.541594
