data_Molecule from HDF5

_cell_length_a		16.378826
_cell_length_b		16.286493
_cell_length_c		16.225411
_cell_angle_alpha	90.008720
_cell_angle_beta	89.960879
_cell_angle_gamma	89.927550
_symmetry_space_group_name_H-M	'P 1'
_symmetry_Int_Tables_number		1

loop_
	_symmetry_equiv_pos_as_xyz
	x,y,z

loop_
	_atom_site_label
	_atom_site_type_symbol
	_atom_site_fract_x
	_atom_site_fract_y
	_atom_site_fract_z
	H0	H	0.403915	0.835909	0.713303
	H1	H	0.595989	0.164559	0.712412
	H2	H	0.597342	0.836529	0.286591
	H3	H	0.403360	0.164585	0.287662
	H4	H	0.714497	0.402031	0.836138
	H5	H	0.714468	0.599454	0.164117
	H6	H	0.285916	0.599384	0.835923
	H7	H	0.284668	0.401045	0.163667
	H8	H	0.836957	0.715240	0.400635
	H9	H	0.162958	0.714909	0.597451
	H10	H	0.837161	0.284599	0.598457
	H11	H	0.162143	0.283833	0.401477
	H12	H	0.835906	0.402361	0.713821
	H13	H	0.163288	0.596072	0.712900
	H14	H	0.836713	0.597490	0.285751
	H15	H	0.163112	0.401937	0.286431
	H16	H	0.403614	0.713782	0.836116
	H17	H	0.597499	0.713483	0.164723
	H18	H	0.597713	0.286917	0.835545
	H19	H	0.401972	0.287377	0.164429
	H20	H	0.714334	0.836636	0.400986
	H21	H	0.715424	0.162949	0.600003
	H22	H	0.285307	0.836406	0.599668
	H23	H	0.284363	0.163046	0.400866
	H24	H	0.903578	0.335784	0.212656
	H25	H	0.097130	0.663492	0.213568
	H26	H	0.096429	0.335279	0.787605
	H27	H	0.903716	0.663874	0.786512
	H28	H	0.215764	0.899230	0.336397
	H29	H	0.214170	0.098230	0.663851
	H30	H	0.785717	0.098236	0.336143
	H31	H	0.785344	0.900891	0.663630
	H32	H	0.336756	0.214420	0.902741
	H33	H	0.662647	0.215863	0.098455
	H34	H	0.337550	0.785697	0.097855
	H35	H	0.662812	0.785075	0.901160
	H36	H	0.337355	0.904034	0.213294
	H37	H	0.663954	0.097167	0.212821
	H38	H	0.337343	0.099203	0.784908
	H39	H	0.663660	0.903835	0.787137
	H40	H	0.903055	0.212155	0.335302
	H41	H	0.097004	0.213346	0.664185
	H42	H	0.097024	0.785794	0.335753
	H43	H	0.903121	0.786738	0.664606
	H44	H	0.215644	0.336506	0.900706
	H45	H	0.214271	0.662813	0.098924
	H46	H	0.783659	0.337175	0.100379
	H47	H	0.785299	0.664121	0.900688
	H48	H	0.403117	0.115431	0.586049
	H49	H	0.586828	0.885841	0.593104
	H50	H	0.592168	0.119299	0.397261
	H51	H	0.408166	0.883457	0.405475
	H52	H	0.594499	0.407725	0.117235
	H53	H	0.603115	0.588837	0.881727
	H54	H	0.415434	0.586029	0.112618
	H55	H	0.400416	0.406336	0.880755
	H56	H	0.117272	0.597680	0.406392
	H57	H	0.884940	0.584206	0.601289
	H58	H	0.117370	0.396280	0.590425
	H59	H	0.885335	0.411228	0.406207
	H60	H	0.111307	0.411892	0.587103
	H61	H	0.879209	0.605500	0.598368
	H62	H	0.113555	0.591490	0.410271
	H63	H	0.882213	0.403252	0.402059
	H64	H	0.408378	0.604620	0.119665
	H65	H	0.586190	0.587073	0.886788
	H66	H	0.592164	0.410558	0.116427
	H67	H	0.408212	0.412865	0.885004
	H68	H	0.587364	0.113357	0.412529
	H69	H	0.598549	0.883269	0.586670
	H70	H	0.402431	0.119327	0.598377
	H71	H	0.407821	0.884344	0.408798
	H72	H	0.906141	0.615327	0.088314
	H73	H	0.090627	0.386338	0.083005
	H74	H	0.093225	0.615774	0.908040
	H75	H	0.909903	0.384906	0.908390
	H76	H	0.097009	0.908562	0.617670
	H77	H	0.093825	0.091899	0.383016
	H78	H	0.894143	0.095654	0.622051
	H79	H	0.905502	0.905852	0.382581
	H80	H	0.616229	0.093843	0.905966
	H81	H	0.389149	0.090235	0.080254
	H82	H	0.617633	0.898465	0.090092
	H83	H	0.385837	0.905970	0.911274
	H84	H	0.613782	0.912246	0.088767
	H85	H	0.384505	0.084221	0.105429
	H86	H	0.616139	0.095409	0.906622
	H87	H	0.384740	0.910923	0.905071
	H88	H	0.908935	0.078810	0.612562
	H89	H	0.092828	0.090329	0.383218
	H90	H	0.091094	0.908740	0.615795
	H91	H	0.905959	0.907687	0.383031
	H92	H	0.095833	0.616880	0.907094
	H93	H	0.104142	0.380161	0.093390
	H94	H	0.902281	0.617809	0.094953
	H95	H	0.903344	0.384174	0.911620
	H96	H	0.413567	0.114841	0.593777
	H97	H	0.597220	0.880563	0.600507
	H98	H	0.603596	0.119047	0.411202
	H99	H	0.405437	0.882595	0.406510
	H100	H	0.591560	0.407597	0.116620
	H101	H	0.592327	0.602993	0.880316
	H102	H	0.395468	0.588208	0.119245
	H103	H	0.410644	0.402862	0.882602
	H104	H	0.115420	0.590686	0.402530
	H105	H	0.888429	0.592720	0.581630
	H106	H	0.116655	0.407756	0.602451
	H107	H	0.884418	0.402722	0.411548
	H108	H	0.910210	0.615999	0.094790
	H109	H	0.088077	0.383284	0.100760
	H110	H	0.093411	0.616928	0.904979
	H111	H	0.904736	0.381880	0.904067
	H112	H	0.093697	0.903573	0.617533
	H113	H	0.092264	0.092693	0.383127
	H114	H	0.916638	0.101344	0.616638
	H115	H	0.907442	0.906903	0.383108
	H116	H	0.615305	0.094039	0.907141
	H117	H	0.379297	0.108747	0.096758
	H118	H	0.618121	0.907037	0.101463
	H119	H	0.383100	0.903768	0.904391
	C120	C	0.378290	0.008380	0.621531
	C121	C	0.621906	0.991460	0.621586
	C122	C	0.622086	0.008733	0.378520
	C123	C	0.378617	0.991756	0.378468
	C124	C	0.621085	0.379679	0.008030
	C125	C	0.621615	0.621715	0.991794
	C126	C	0.378536	0.621480	0.008680
	C127	C	0.378543	0.379138	0.991442
	C128	C	0.007707	0.621337	0.378278
	C129	C	0.991936	0.621963	0.621570
	C130	C	0.007384	0.377489	0.621858
	C131	C	0.991593	0.377522	0.378134
	C132	C	0.878300	0.508467	0.121322
	C133	C	0.121619	0.491207	0.120938
	C134	C	0.122059	0.508228	0.878285
	C135	C	0.878010	0.492015	0.879021
	C136	C	0.121889	0.878286	0.508439
	C137	C	0.121048	0.120468	0.491488
	C138	C	0.878440	0.120707	0.508483
	C139	C	0.878278	0.878329	0.491696
	C140	C	0.507918	0.122364	0.878621
	C141	C	0.491793	0.122741	0.122243
	C142	C	0.508818	0.878407	0.121480
	C143	C	0.492141	0.878658	0.878468
	C144	C	0.382412	0.884908	0.676122
	C145	C	0.617558	0.115397	0.675261
	C146	C	0.618367	0.885277	0.324010
	C147	C	0.382072	0.115313	0.324513
	C148	C	0.676353	0.381749	0.884776
	C149	C	0.676727	0.619858	0.115164
	C150	C	0.323724	0.619489	0.884975
	C151	C	0.323330	0.381326	0.114908
	C152	C	0.885455	0.676865	0.380524
	C153	C	0.114272	0.676862	0.618671
	C154	C	0.885358	0.322561	0.618958
	C155	C	0.113843	0.322131	0.380815
	C156	C	0.884970	0.380813	0.676604
	C157	C	0.114741	0.617769	0.675625
	C158	C	0.885201	0.618267	0.323413
	C159	C	0.114249	0.380863	0.323814
	C160	C	0.382209	0.676139	0.884861
	C161	C	0.618258	0.676136	0.115503
	C162	C	0.618139	0.324728	0.884566
	C163	C	0.381433	0.324646	0.115367
	C164	C	0.676354	0.885594	0.380966
	C165	C	0.676704	0.114639	0.619239
	C166	C	0.323556	0.885221	0.619729
	C167	C	0.323187	0.114538	0.380902
	C168	C	0.882015	0.384776	0.175408
	C169	C	0.117956	0.614545	0.175925
	C170	C	0.118157	0.384558	0.824100
	C171	C	0.882222	0.615298	0.824135
	C172	C	0.177451	0.879733	0.385171
	C173	C	0.175995	0.118454	0.615056
	C174	C	0.823849	0.118310	0.384928
	C175	C	0.823563	0.880583	0.614931
	C176	C	0.385448	0.176860	0.881863
	C177	C	0.614289	0.177752	0.119267
	C178	C	0.386174	0.823886	0.118585
	C179	C	0.614279	0.823268	0.880942
	C180	C	0.385825	0.882489	0.175891
	C181	C	0.615119	0.118779	0.175835
	C182	C	0.385639	0.119627	0.823298
	C183	C	0.614820	0.882264	0.824341
	C184	C	0.881806	0.175013	0.384498
	C185	C	0.117896	0.175503	0.615276
	C186	C	0.118519	0.823529	0.384815
	C187	C	0.882136	0.823963	0.615445
	C188	C	0.177252	0.385134	0.880456
	C189	C	0.176206	0.614410	0.119034
	C190	C	0.822634	0.385605	0.119661
	C191	C	0.823342	0.615088	0.880749
	C192	C	0.399798	0.094393	0.599332
	C193	C	0.600600	0.905578	0.599871
	C194	C	0.600587	0.094961	0.400402
	C195	C	0.400658	0.905576	0.400371
	C196	C	0.599130	0.402060	0.094480
	C197	C	0.600224	0.599462	0.905277
	C198	C	0.400061	0.599375	0.094875
	C199	C	0.400045	0.401093	0.905153
	C200	C	0.093206	0.599602	0.400086
	C201	C	0.906108	0.600448	0.600178
	C202	C	0.093097	0.399017	0.599937
	C203	C	0.906010	0.399399	0.400096
	C204	C	0.899840	0.594246	0.099296
	C205	C	0.100336	0.405369	0.099063
	C206	C	0.100589	0.594311	0.900241
	C207	C	0.899613	0.405895	0.901437
	C208	C	0.100359	0.900408	0.594763
	C209	C	0.099298	0.098261	0.405568
	C210	C	0.900231	0.098530	0.594644
	C211	C	0.900022	0.900237	0.405126
	C212	C	0.593648	0.100684	0.900149
	C213	C	0.406559	0.100820	0.100611
	C214	C	0.594418	0.899640	0.099937
	C215	C	0.406485	0.900604	0.900535
	Zn216	Zn	0.500254	0.000023	0.749835
	Zn217	Zn	0.500432	0.000623	0.250458
	Zn218	Zn	0.749622	0.500699	0.000382
	Zn219	Zn	0.250197	0.500177	-0.000302
	Zn220	Zn	-0.000285	0.750877	0.499812
	Zn221	Zn	-0.000633	0.248520	0.499847
	Zn222	Zn	-0.000381	0.499554	0.750541
	Zn223	Zn	-0.000177	0.499623	0.249372
	Zn224	Zn	0.500325	0.749369	-0.000209
	Zn225	Zn	0.499813	0.251252	0.000393
	Zn226	Zn	0.750307	-0.000251	0.499865
	Zn227	Zn	0.249989	-0.000803	0.499984
	N228	N	0.415922	0.962379	0.677151
	N229	N	0.584208	0.038087	0.676775
	N230	N	0.585071	0.962823	0.322479
	N231	N	0.416016	0.037825	0.323105
	N232	N	0.678220	0.415147	0.962677
	N233	N	0.678800	0.586766	0.037195
	N234	N	0.321398	0.586223	0.962854
	N235	N	0.321304	0.414391	0.036901
	N236	N	0.962543	0.678830	0.414008
	N237	N	0.036919	0.679304	0.585810
	N238	N	0.962527	0.320504	0.585621
	N239	N	0.036485	0.319868	0.413823
	N240	N	0.961968	0.414334	0.678225
	N241	N	0.037578	0.584494	0.677677
	N242	N	0.962070	0.584336	0.321948
	N243	N	0.037332	0.414458	0.322019
	N244	N	0.415415	0.677505	0.962667
	N245	N	0.584907	0.677472	0.037708
	N246	N	0.584505	0.323522	0.962253
	N247	N	0.415269	0.323602	0.037799
	N248	N	0.678756	0.963272	0.414084
	N249	N	0.679690	0.036582	0.586533
	N250	N	0.320821	0.962827	0.586558
	N251	N	0.321041	0.036777	0.413711
	N252	N	0.916010	0.461830	0.176303
	N253	N	0.084765	0.537182	0.177169
	N254	N	0.084487	0.462003	0.822682
	N255	N	0.915644	0.537747	0.823123
	N256	N	0.179239	0.913412	0.462997
	N257	N	0.177961	0.084894	0.537441
	N258	N	0.821572	0.085497	0.462885
	N259	N	0.821405	0.913629	0.537033
	N260	N	0.462420	0.178536	0.915391
	N261	N	0.537010	0.180039	0.086475
	N262	N	0.463461	0.821260	0.085525
	N263	N	0.537000	0.821169	0.914075
	N264	N	0.462961	0.915432	0.178006
	N265	N	0.538082	0.085314	0.178019
	N266	N	0.462912	0.086337	0.821023
	N267	N	0.537849	0.915720	0.822451
	N268	N	0.915197	0.176561	0.462366
	N269	N	0.084448	0.177056	0.537504
	N270	N	0.084716	0.822567	0.462199
	N271	N	0.915547	0.822641	0.537636
	N272	N	0.179525	0.462849	0.913367
	N273	N	0.178607	0.536860	0.085423
	N274	N	0.820175	0.463414	0.086650
	N275	N	0.820829	0.537507	0.914102
