data_Molecule from HDF5

_cell_length_a		16.319475
_cell_length_b		16.259669
_cell_length_c		16.296679
_cell_angle_alpha	90.076427
_cell_angle_beta	90.052025
_cell_angle_gamma	90.035281
_symmetry_space_group_name_H-M	'P 1'
_symmetry_Int_Tables_number		1

loop_
	_symmetry_equiv_pos_as_xyz
	x,y,z

loop_
	_atom_site_label
	_atom_site_type_symbol
	_atom_site_fract_x
	_atom_site_fract_y
	_atom_site_fract_z
	H0	H	0.404362	0.842510	0.715918
	H1	H	0.600082	0.170346	0.715174
	H2	H	0.600420	0.842146	0.287512
	H3	H	0.404947	0.170131	0.287319
	H4	H	0.717651	0.407561	0.837817
	H5	H	0.718207	0.604958	0.164922
	H6	H	0.288451	0.605327	0.837533
	H7	H	0.288093	0.407392	0.164325
	H8	H	0.838767	0.719632	0.403713
	H9	H	0.166549	0.720310	0.598116
	H10	H	0.838712	0.291972	0.599200
	H11	H	0.166560	0.291678	0.403870
	H12	H	0.839382	0.407834	0.715881
	H13	H	0.166719	0.604066	0.714044
	H14	H	0.839908	0.605231	0.285625
	H15	H	0.166555	0.407595	0.286984
	H16	H	0.405547	0.720542	0.837193
	H17	H	0.601667	0.720738	0.165037
	H18	H	0.600719	0.292381	0.837724
	H19	H	0.406039	0.293171	0.165763
	H20	H	0.717653	0.842348	0.402549
	H21	H	0.717915	0.169933	0.601889
	H22	H	0.288020	0.842434	0.600059
	H23	H	0.288621	0.170286	0.403867
	H24	H	0.905984	0.342126	0.215188
	H25	H	0.101990	0.670297	0.215972
	H26	H	0.101952	0.342500	0.785733
	H27	H	0.906242	0.670826	0.787967
	H28	H	0.217746	0.908226	0.338171
	H29	H	0.216712	0.104330	0.665079
	H30	H	0.787508	0.105631	0.338130
	H31	H	0.789381	0.908858	0.665544
	H32	H	0.339757	0.220988	0.903946
	H33	H	0.667248	0.219353	0.098154
	H34	H	0.339999	0.791374	0.100264
	H35	H	0.667139	0.792746	0.904174
	H36	H	0.339288	0.908491	0.215370
	H37	H	0.666570	0.104467	0.216749
	H38	H	0.339678	0.104530	0.787250
	H39	H	0.666391	0.908093	0.786814
	H40	H	0.904881	0.219900	0.337832
	H41	H	0.100052	0.219588	0.665565
	H42	H	0.100506	0.792805	0.337330
	H43	H	0.907033	0.793406	0.665564
	H44	H	0.216670	0.341746	0.903494
	H45	H	0.217744	0.670348	0.099211
	H46	H	0.790764	0.341942	0.098450
	H47	H	0.788801	0.670054	0.902920
	H48	H	0.402974	0.125370	0.596992
	H49	H	0.595362	0.888349	0.600031
	H50	H	0.599710	0.124216	0.406831
	H51	H	0.404692	0.887146	0.403752
	H52	H	0.597962	0.406116	0.119969
	H53	H	0.600689	0.589654	0.887012
	H54	H	0.410456	0.605432	0.118476
	H55	H	0.407655	0.411037	0.884137
	H56	H	0.120393	0.601756	0.405414
	H57	H	0.882482	0.603158	0.604761
	H58	H	0.116176	0.419169	0.592146
	H59	H	0.891397	0.417287	0.418633
	H60	H	0.120020	0.412369	0.600895
	H61	H	0.886731	0.606803	0.587076
	H62	H	0.118572	0.600739	0.410406
	H63	H	0.886585	0.420273	0.397946
	H64	H	0.404669	0.595307	0.118219
	H65	H	0.586389	0.601071	0.887456
	H66	H	0.604505	0.417351	0.118520
	H67	H	0.408429	0.415527	0.885207
	H68	H	0.590629	0.121766	0.406199
	H69	H	0.592618	0.890955	0.591352
	H70	H	0.414462	0.122304	0.599385
	H71	H	0.415860	0.890629	0.407054
	H72	H	0.905404	0.627971	0.106240
	H73	H	0.095015	0.389160	0.095931
	H74	H	0.097551	0.625145	0.902325
	H75	H	0.918179	0.390483	0.903241
	H76	H	0.094102	0.916961	0.615995
	H77	H	0.095121	0.099155	0.385678
	H78	H	0.905660	0.096016	0.618096
	H79	H	0.903738	0.914939	0.383804
	H80	H	0.618041	0.099819	0.912415
	H81	H	0.389088	0.095325	0.090366
	H82	H	0.621176	0.913135	0.100171
	H83	H	0.389041	0.919133	0.909281
	H84	H	0.619187	0.908944	0.090793
	H85	H	0.385757	0.097842	0.101903
	H86	H	0.619103	0.095741	0.905865
	H87	H	0.385247	0.912146	0.903257
	H88	H	0.913311	0.097950	0.615784
	H89	H	0.096346	0.101037	0.384238
	H90	H	0.093413	0.909594	0.618293
	H91	H	0.913132	0.916657	0.387228
	H92	H	0.092727	0.621890	0.908588
	H93	H	0.094897	0.390587	0.092608
	H94	H	0.923629	0.619172	0.093606
	H95	H	0.909863	0.392648	0.916103
	H96	H	0.410661	0.120896	0.588440
	H97	H	0.600796	0.889252	0.592490
	H98	H	0.595933	0.120867	0.414046
	H99	H	0.407323	0.890668	0.415144
	H100	H	0.591676	0.416633	0.115272
	H101	H	0.602931	0.606349	0.881186
	H102	H	0.415635	0.596702	0.114446
	H103	H	0.412040	0.412324	0.885693
	H104	H	0.118607	0.596712	0.406595
	H105	H	0.889505	0.589801	0.593245
	H106	H	0.119172	0.407584	0.590131
	H107	H	0.883186	0.400980	0.406853
	H108	H	0.902506	0.621761	0.083278
	H109	H	0.098805	0.389471	0.093919
	H110	H	0.100878	0.623092	0.909811
	H111	H	0.903132	0.386774	0.903455
	H112	H	0.100077	0.913040	0.619163
	H113	H	0.097729	0.098413	0.384541
	H114	H	0.908830	0.103625	0.619507
	H115	H	0.910222	0.907611	0.383528
	H116	H	0.620830	0.103354	0.906176
	H117	H	0.385502	0.106536	0.093083
	H118	H	0.616746	0.918977	0.092254
	H119	H	0.387566	0.909736	0.912908
	C120	C	0.381053	0.014357	0.623123
	C121	C	0.624621	0.998042	0.623411
	C122	C	0.624088	0.014195	0.380277
	C123	C	0.381354	0.997939	0.380376
	C124	C	0.625481	0.384973	0.009793
	C125	C	0.625082	0.627799	0.993172
	C126	C	0.381915	0.627891	0.008938
	C127	C	0.381763	0.384718	0.993381
	C128	C	0.010956	0.627740	0.379574
	C129	C	0.994335	0.628444	0.622918
	C130	C	0.010494	0.384593	0.622699
	C131	C	0.994783	0.384255	0.379603
	C132	C	0.882603	0.514434	0.122631
	C133	C	0.124611	0.498185	0.122456
	C134	C	0.124929	0.514444	0.878979
	C135	C	0.882092	0.498312	0.879552
	C136	C	0.124410	0.884860	0.509720
	C137	C	0.124095	0.127935	0.493124
	C138	C	0.880738	0.127706	0.509731
	C139	C	0.880792	0.884770	0.493011
	C140	C	0.511381	0.128147	0.879852
	C141	C	0.495004	0.128260	0.123630
	C142	C	0.511345	0.884729	0.123309
	C143	C	0.495146	0.885174	0.880281
	C144	C	0.383955	0.891289	0.678075
	C145	C	0.621601	0.121323	0.678081
	C146	C	0.621466	0.890847	0.325231
	C147	C	0.384188	0.121273	0.325264
	C148	C	0.679971	0.387227	0.886546
	C149	C	0.680260	0.625528	0.116175
	C150	C	0.326436	0.625785	0.886320
	C151	C	0.326221	0.386970	0.115931
	C152	C	0.887812	0.682201	0.382812
	C153	C	0.117695	0.682727	0.619329
	C154	C	0.887393	0.329871	0.619816
	C155	C	0.117903	0.329582	0.383123
	C156	C	0.887894	0.387301	0.677828
	C157	C	0.117650	0.625058	0.676948
	C158	C	0.888179	0.625331	0.324349
	C159	C	0.117915	0.387078	0.324975
	C160	C	0.384748	0.682909	0.886193
	C161	C	0.622548	0.683205	0.116017
	C162	C	0.622154	0.329862	0.886527
	C163	C	0.385114	0.330493	0.116639
	C164	C	0.679415	0.891048	0.382673
	C165	C	0.679658	0.120981	0.621270
	C166	C	0.325793	0.891345	0.620856
	C167	C	0.326498	0.121377	0.383049
	C168	C	0.885734	0.391004	0.177153
	C169	C	0.122290	0.621575	0.177793
	C170	C	0.122391	0.391176	0.823914
	C171	C	0.884944	0.621655	0.825093
	C172	C	0.179263	0.887672	0.386600
	C173	C	0.178845	0.125165	0.616448
	C174	C	0.826150	0.125175	0.386710
	C175	C	0.826693	0.887870	0.616485
	C176	C	0.388319	0.182769	0.883496
	C177	C	0.618331	0.182222	0.119847
	C178	C	0.388768	0.829163	0.120788
	C179	C	0.617984	0.829950	0.882835
	C180	C	0.388334	0.887082	0.178099
	C181	C	0.617990	0.125160	0.178540
	C182	C	0.388291	0.125210	0.825251
	C183	C	0.617796	0.887264	0.824767
	C184	C	0.884055	0.182504	0.386848
	C185	C	0.121020	0.182322	0.616506
	C186	C	0.121274	0.830334	0.386263
	C187	C	0.884972	0.830556	0.616577
	C188	C	0.179322	0.390852	0.882294
	C189	C	0.179359	0.621730	0.119576
	C190	C	0.828072	0.391071	0.119518
	C191	C	0.826920	0.621466	0.882358
	C192	C	0.402868	0.100598	0.601418
	C193	C	0.602684	0.911770	0.601140
	C194	C	0.601880	0.100104	0.402428
	C195	C	0.402936	0.911813	0.402129
	C196	C	0.604213	0.406793	0.095587
	C197	C	0.603153	0.605412	0.907511
	C198	C	0.403689	0.605577	0.094938
	C199	C	0.403120	0.406542	0.907309
	C200	C	0.096865	0.606039	0.401098
	C201	C	0.908508	0.606548	0.601481
	C202	C	0.096185	0.406413	0.600753
	C203	C	0.909173	0.406556	0.401233
	C204	C	0.904312	0.600757	0.100892
	C205	C	0.102856	0.412061	0.100584
	C206	C	0.103427	0.601041	0.900560
	C207	C	0.903868	0.412032	0.901148
	C208	C	0.102369	0.906757	0.595557
	C209	C	0.102657	0.106005	0.406958
	C210	C	0.902582	0.105648	0.595651
	C211	C	0.902700	0.906486	0.407040
	C212	C	0.597206	0.106160	0.901813
	C213	C	0.409024	0.106393	0.101613
	C214	C	0.597044	0.907342	0.101208
	C215	C	0.409466	0.907319	0.901982
	Zn216	Zn	0.503374	0.006414	0.750986
	Zn217	Zn	0.502556	0.005832	0.251840
	Zn218	Zn	0.754031	0.506245	0.000986
	Zn219	Zn	0.253088	0.506221	0.001092
	Zn220	Zn	0.002954	0.756473	0.500821
	Zn221	Zn	0.002728	0.255839	0.501742
	Zn222	Zn	0.002960	0.506086	0.751170
	Zn223	Zn	0.003463	0.506153	0.251244
	Zn224	Zn	0.503232	0.756600	0.001353
	Zn225	Zn	0.503399	0.256809	0.001769
	Zn226	Zn	0.752475	0.006283	0.501429
	Zn227	Zn	0.252436	0.006366	0.501719
	N228	N	0.417656	0.968830	0.679573
	N229	N	0.587954	0.043641	0.679364
	N230	N	0.587826	0.968274	0.323681
	N231	N	0.417504	0.043722	0.323677
	N232	N	0.682447	0.420562	0.964111
	N233	N	0.682074	0.591674	0.038768
	N234	N	0.324635	0.592127	0.963633
	N235	N	0.324219	0.420020	0.038279
	N236	N	0.964976	0.683693	0.416527
	N237	N	0.040243	0.684738	0.586283
	N238	N	0.964514	0.328139	0.586450
	N239	N	0.040436	0.327668	0.416446
	N240	N	0.965348	0.420820	0.679609
	N241	N	0.040042	0.591685	0.679144
	N242	N	0.965708	0.592092	0.322369
	N243	N	0.040431	0.420365	0.322711
	N244	N	0.418470	0.684269	0.963589
	N245	N	0.589005	0.684731	0.038663
	N246	N	0.588728	0.328390	0.963992
	N247	N	0.418600	0.328804	0.039273
	N248	N	0.681172	0.968799	0.416056
	N249	N	0.681430	0.043322	0.587899
	N250	N	0.324308	0.968775	0.587123
	N251	N	0.324554	0.043687	0.416696
	N252	N	0.918771	0.468800	0.179087
	N253	N	0.088538	0.543958	0.179465
	N254	N	0.089244	0.468939	0.821884
	N255	N	0.918444	0.544038	0.823282
	N256	N	0.181326	0.920694	0.464262
	N257	N	0.180882	0.092003	0.538795
	N258	N	0.823951	0.092007	0.464153
	N259	N	0.824136	0.920929	0.538736
	N260	N	0.465826	0.184649	0.916534
	N261	N	0.541039	0.184070	0.086349
	N262	N	0.466246	0.827552	0.087509
	N263	N	0.540862	0.828807	0.916675
	N264	N	0.465594	0.920937	0.179638
	N265	N	0.540190	0.092522	0.181091
	N266	N	0.465819	0.091837	0.823047
	N267	N	0.540461	0.920991	0.822863
	N268	N	0.917667	0.183830	0.464292
	N269	N	0.087766	0.184107	0.538914
	N270	N	0.087764	0.828516	0.463765
	N271	N	0.917739	0.828443	0.538871
	N272	N	0.180942	0.468685	0.915759
	N273	N	0.181216	0.544053	0.086209
	N274	N	0.826025	0.468779	0.086278
	N275	N	0.825136	0.543765	0.915443
	O276	O	0.522259	-0.517917	0.471613
	H277	H	0.515862	-0.515235	0.469838
	H278	H	0.524952	-0.518093	0.471657
	O279	O	0.529587	0.518786	0.486071
	H280	H	0.518292	0.510472	0.487813
	H281	H	0.527517	0.515352	0.488204
	O282	O	0.486958	0.481305	0.504112
	H283	H	0.482746	0.479465	0.497828
	H284	H	0.497249	0.489669	0.497746
	O285	O	0.506464	0.513303	0.476084
	H286	H	0.511687	0.511875	0.481093
	H287	H	0.511867	0.516344	0.479431
