data_Molecule from HDF5

_cell_length_a		16.338872
_cell_length_b		16.403702
_cell_length_c		16.206698
_cell_angle_alpha	90.061432
_cell_angle_beta	89.917802
_cell_angle_gamma	89.792442
_symmetry_space_group_name_H-M	'P 1'
_symmetry_Int_Tables_number		1

loop_
	_symmetry_equiv_pos_as_xyz
	x,y,z

loop_
	_atom_site_label
	_atom_site_type_symbol
	_atom_site_fract_x
	_atom_site_fract_y
	_atom_site_fract_z
	H0	H	0.386063	0.830857	0.722865
	H1	H	0.587988	0.152790	0.721708
	H2	H	0.591278	0.829168	0.286817
	H3	H	0.387958	0.152688	0.285719
	H4	H	0.708385	0.388098	0.841885
	H5	H	0.706975	0.593668	0.166481
	H6	H	0.271778	0.592956	0.840990
	H7	H	0.272388	0.387358	0.165648
	H8	H	0.829475	0.712972	0.400078
	H9	H	0.150559	0.712085	0.609230
	H10	H	0.828315	0.274325	0.608517
	H11	H	0.149974	0.271449	0.399366
	H12	H	0.828170	0.392093	0.721790
	H13	H	0.151278	0.593777	0.722031
	H14	H	0.828114	0.594785	0.286908
	H15	H	0.152231	0.391493	0.287609
	H16	H	0.385078	0.709323	0.841521
	H17	H	0.592455	0.709633	0.166041
	H18	H	0.594036	0.271957	0.842082
	H19	H	0.388736	0.274255	0.165913
	H20	H	0.710392	0.831341	0.400408
	H21	H	0.705329	0.153066	0.606983
	H22	H	0.267816	0.831935	0.608134
	H23	H	0.269819	0.153221	0.401185
	H24	H	0.890739	0.329963	0.220349
	H25	H	0.088228	0.654365	0.219032
	H26	H	0.089701	0.329441	0.786551
	H27	H	0.889308	0.653766	0.788554
	H28	H	0.205266	0.891940	0.341258
	H29	H	0.203505	0.092883	0.667503
	H30	H	0.772932	0.092277	0.340087
	H31	H	0.772892	0.893198	0.667820
	H32	H	0.328560	0.210638	0.900327
	H33	H	0.650642	0.207830	0.106683
	H34	H	0.327537	0.773999	0.105407
	H35	H	0.650711	0.772277	0.901389
	H36	H	0.326744	0.890800	0.220221
	H37	H	0.651306	0.089367	0.219497
	H38	H	0.325522	0.089135	0.791100
	H39	H	0.651747	0.891559	0.787999
	H40	H	0.888413	0.209059	0.340596
	H41	H	0.089153	0.209050	0.667499
	H42	H	0.093828	0.773665	0.342327
	H43	H	0.886054	0.773993	0.666771
	H44	H	0.208240	0.329171	0.900745
	H45	H	0.208800	0.651743	0.105790
	H46	H	0.772998	0.330074	0.106367
	H47	H	0.771098	0.652635	0.904182
	H48	H	0.397301	0.104348	0.591013
	H49	H	0.572602	0.879886	0.594974
	H50	H	0.576776	0.103155	0.416188
	H51	H	0.396776	0.877326	0.413208
	H52	H	0.593666	0.397334	0.124707
	H53	H	0.580376	0.575675	0.889859
	H54	H	0.393385	0.581413	0.121373
	H55	H	0.396464	0.396816	0.885033
	H56	H	0.103674	0.579897	0.413346
	H57	H	0.877082	0.586342	0.586503
	H58	H	0.104550	0.409593	0.602680
	H59	H	0.872813	0.398740	0.410222
	H60	H	0.108525	0.388687	0.595997
	H61	H	0.877752	0.575585	0.597151
	H62	H	0.106825	0.585378	0.408731
	H63	H	0.875241	0.399732	0.415756
	H64	H	0.401705	0.575912	0.116296
	H65	H	0.574161	0.582247	0.889571
	H66	H	0.576122	0.411636	0.115349
	H67	H	0.399044	0.405397	0.888921
	H68	H	0.585820	0.107387	0.413018
	H69	H	0.584116	0.878283	0.586876
	H70	H	0.391888	0.108135	0.596934
	H71	H	0.397280	0.877839	0.413272
	H72	H	0.903273	0.602407	0.090923
	H73	H	0.081104	0.376954	0.096703
	H74	H	0.077201	0.601728	0.917954
	H75	H	0.899625	0.374906	0.901422
	H76	H	0.077864	0.896322	0.621679
	H77	H	0.082996	0.083607	0.386531
	H78	H	0.901509	0.089419	0.619920
	H79	H	0.899226	0.905339	0.389612
	H80	H	0.606742	0.087044	0.908956
	H81	H	0.374715	0.080795	0.094387
	H82	H	0.603749	0.901231	0.093492
	H83	H	0.377207	0.905611	0.915954
	H84	H	0.605493	0.896898	0.095896
	H85	H	0.373061	0.084882	0.096549
	H86	H	0.601606	0.083022	0.919474
	H87	H	0.370414	0.897538	0.906130
	H88	H	0.890462	0.086913	0.621774
	H89	H	0.077439	0.080398	0.389046
	H90	H	0.083467	0.905384	0.620632
	H91	H	0.903127	0.902272	0.389904
	H92	H	0.087064	0.606229	0.916082
	H93	H	0.081720	0.376550	0.093946
	H94	H	0.887726	0.607911	0.091208
	H95	H	0.907755	0.381220	0.918604
	H96	H	0.399983	0.105308	0.599245
	H97	H	0.584504	0.874409	0.600939
	H98	H	0.577933	0.106204	0.406093
	H99	H	0.396746	0.877592	0.413644
	H100	H	0.571380	0.388368	0.120772
	H101	H	0.582625	0.584072	0.887244
	H102	H	0.402840	0.586410	0.119451
	H103	H	0.405340	0.397728	0.888483
	H104	H	0.104493	0.586821	0.416751
	H105	H	0.872463	0.589337	0.599895
	H106	H	0.099368	0.402790	0.580607
	H107	H	0.874638	0.403480	0.411289
	H108	H	0.897462	0.609312	0.104480
	H109	H	0.083736	0.376899	0.095862
	H110	H	0.079181	0.606014	0.908206
	H111	H	0.888461	0.375708	0.918217
	H112	H	0.073135	0.905338	0.617643
	H113	H	0.077766	0.086546	0.387010
	H114	H	0.896914	0.078412	0.618136
	H115	H	0.898855	0.900068	0.388019
	H116	H	0.603666	0.075158	0.910238
	H117	H	0.374709	0.085783	0.091754
	H118	H	0.603349	0.896678	0.090893
	H119	H	0.373930	0.891771	0.918697
	C120	C	0.365875	-0.000108	0.626199
	C121	C	0.609786	0.983860	0.625292
	C122	C	0.611245	-0.000795	0.381635
	C123	C	0.367152	0.983912	0.382646
	C124	C	0.611558	0.368638	0.012983
	C125	C	0.610002	0.611596	0.995790
	C126	C	0.368173	0.611779	0.011708
	C127	C	0.369422	0.369550	0.994710
	C128	C	-0.001706	0.614221	0.382436
	C129	C	0.981820	0.614449	0.625915
	C130	C	-0.002406	0.370874	0.624820
	C131	C	0.981261	0.370311	0.382005
	C132	C	0.867371	0.500075	0.126029
	C133	C	0.111772	0.483269	0.125358
	C134	C	0.111646	0.498930	0.882544
	C135	C	0.867968	0.483585	0.882639
	C136	C	0.109742	0.871216	0.512845
	C137	C	0.109278	0.113838	0.495510
	C138	C	0.866680	0.114634	0.512461
	C139	C	0.868696	0.871654	0.496275
	C140	C	0.497181	0.112351	0.882735
	C141	C	0.481051	0.112693	0.124791
	C142	C	0.497534	0.868862	0.124597
	C143	C	0.480571	0.868503	0.882369
	C144	C	0.366004	0.879060	0.684310
	C145	C	0.607882	0.104876	0.682881
	C146	C	0.611305	0.878039	0.324589
	C147	C	0.367879	0.104913	0.324644
	C148	C	0.669193	0.368938	0.890474
	C149	C	0.667961	0.612517	0.117787
	C150	C	0.310228	0.612060	0.889741
	C151	C	0.311475	0.368984	0.116930
	C152	C	0.877506	0.673053	0.381566
	C153	C	0.102450	0.672621	0.627479
	C154	C	0.876678	0.313445	0.626794
	C155	C	0.102228	0.311692	0.381283
	C156	C	0.876497	0.372483	0.683093
	C157	C	0.102939	0.613685	0.683610
	C158	C	0.876661	0.614054	0.325299
	C159	C	0.103453	0.371389	0.325561
	C160	C	0.366825	0.669938	0.890150
	C161	C	0.611166	0.670490	0.117374
	C162	C	0.612645	0.310716	0.890668
	C163	C	0.369391	0.312608	0.117195
	C164	C	0.670514	0.878945	0.381263
	C165	C	0.666673	0.104612	0.625905
	C166	C	0.307054	0.879898	0.627289
	C167	C	0.309143	0.104942	0.381955
	C168	C	0.870016	0.378391	0.182259
	C169	C	0.109105	0.605502	0.181014
	C170	C	0.110124	0.377509	0.825052
	C171	C	0.869214	0.605494	0.826980
	C172	C	0.167086	0.871939	0.390208
	C173	C	0.165624	0.113171	0.618509
	C174	C	0.810899	0.112769	0.389167
	C175	C	0.811061	0.872700	0.618831
	C176	C	0.376269	0.170544	0.882443
	C177	C	0.602647	0.168667	0.125060
	C178	C	0.375677	0.812420	0.125024
	C179	C	0.602509	0.811500	0.882167
	C180	C	0.375430	0.870924	0.181828
	C181	C	0.602974	0.109918	0.181286
	C182	C	0.374673	0.110302	0.827754
	C183	C	0.602859	0.870701	0.825774
	C184	C	0.868072	0.170884	0.389400
	C185	C	0.108284	0.170561	0.618514
	C186	C	0.111707	0.812906	0.390911
	C187	C	0.867369	0.813497	0.618368
	C188	C	0.168854	0.377407	0.882025
	C189	C	0.169409	0.604052	0.125155
	C190	C	0.811849	0.378376	0.125082
	C191	C	0.810219	0.604622	0.884100
	C192	C	0.389712	0.084090	0.602500
	C193	C	0.586968	0.899367	0.601357
	C194	C	0.587180	0.083692	0.405187
	C195	C	0.390272	0.899556	0.406462
	C196	C	0.587470	0.392300	0.098173
	C197	C	0.585990	0.587496	0.910970
	C198	C	0.392262	0.587845	0.097084
	C199	C	0.393352	0.393202	0.909689
	C200	C	0.082919	0.590706	0.406129
	C201	C	0.897468	0.590806	0.601585
	C202	C	0.082415	0.393875	0.600292
	C203	C	0.896254	0.393924	0.405664
	C204	C	0.889737	0.584675	0.102651
	C205	C	0.088895	0.398791	0.102289
	C206	C	0.087995	0.582969	0.906913
	C207	C	0.891616	0.399200	0.905892
	C208	C	0.085216	0.895334	0.597912
	C209	C	0.086103	0.090470	0.409812
	C210	C	0.889650	0.091718	0.597796
	C211	C	0.893231	0.895568	0.411276
	C212	C	0.581977	0.088708	0.906167
	C213	C	0.396136	0.090230	0.101078
	C214	C	0.582180	0.891463	0.100420
	C215	C	0.395933	0.891499	0.906343
	Zn216	Zn	0.488467	-0.008831	0.754678
	Zn217	Zn	0.488922	-0.009396	0.253212
	Zn218	Zn	0.738321	0.490583	0.004449
	Zn219	Zn	0.241245	0.490152	0.003351
	Zn220	Zn	-0.010080	0.742665	0.504571
	Zn221	Zn	-0.011155	0.242059	0.503641
	Zn222	Zn	-0.009864	0.492300	0.753627
	Zn223	Zn	-0.010172	0.492139	0.254219
	Zn224	Zn	0.488856	0.739426	0.003812
	Zn225	Zn	0.489947	0.241631	0.003419
	Zn226	Zn	0.739343	-0.007588	0.504182
	Zn227	Zn	0.236746	-0.007337	0.504278
	N228	N	0.402002	0.954685	0.683711
	N229	N	0.573280	0.028530	0.682651
	N230	N	0.575291	0.953929	0.324532
	N231	N	0.403176	0.028693	0.324829
	N232	N	0.668756	0.404147	0.967455
	N233	N	0.667350	0.576421	0.041331
	N234	N	0.311142	0.576355	0.966528
	N235	N	0.311447	0.403797	0.039860
	N236	N	0.954099	0.673127	0.416628
	N237	N	0.025980	0.673054	0.592206
	N238	N	0.953101	0.312444	0.591206
	N239	N	0.025219	0.311032	0.415589
	N240	N	0.952886	0.407400	0.681872
	N241	N	0.026871	0.578373	0.682815
	N242	N	0.952813	0.578192	0.325549
	N243	N	0.027083	0.406935	0.325632
	N244	N	0.402090	0.669791	0.967065
	N245	N	0.575760	0.670120	0.040396
	N246	N	0.577622	0.310397	0.967882
	N247	N	0.404654	0.312693	0.040084
	N248	N	0.670329	0.955430	0.416159
	N249	N	0.667745	0.028391	0.590638
	N250	N	0.306978	0.955935	0.591730
	N251	N	0.308487	0.028851	0.417378
	N252	N	0.903894	0.455151	0.183039
	N253	N	0.074288	0.529243	0.181474
	N254	N	0.075248	0.454046	0.825247
	N255	N	0.904279	0.529260	0.825833
	N256	N	0.165977	0.907470	0.467152
	N257	N	0.166167	0.078630	0.541141
	N258	N	0.809759	0.078788	0.466572
	N259	N	0.811613	0.907783	0.541872
	N260	N	0.453515	0.171792	0.915919
	N261	N	0.525808	0.170560	0.090625
	N262	N	0.452556	0.810892	0.090388
	N263	N	0.525437	0.809716	0.916169
	N264	N	0.452114	0.905188	0.181760
	N265	N	0.526263	0.075845	0.181362
	N266	N	0.450910	0.074512	0.828104
	N267	N	0.525970	0.905300	0.825692
	N268	N	0.901771	0.172596	0.467165
	N269	N	0.074240	0.171157	0.540877
	N270	N	0.076783	0.812381	0.468185
	N271	N	0.902404	0.812691	0.541079
	N272	N	0.170075	0.453820	0.916820
	N273	N	0.171204	0.527187	0.091347
	N274	N	0.809802	0.455096	0.091316
	N275	N	0.809191	0.527717	0.917705
	O276	O	0.054495	-0.072381	-0.115796
	H277	H	0.062148	-0.073549	-0.113915
	H278	H	0.050117	-0.077889	-0.119938
	O279	O	0.622322	0.595004	0.553725
	H280	H	0.628805	0.582877	0.546555
	H281	H	0.633381	0.601491	0.534588
	O282	O	1.007940	0.131116	0.005511
	H283	H	1.009478	0.139188	0.002376
	H284	H	1.014644	0.133439	-0.007862
	O285	O	0.096843	1.000135	-0.022877
	H286	H	0.101225	0.989465	-0.027886
	H287	H	0.083665	1.002939	-0.026337
	O288	O	0.394692	0.583922	0.610842
	H289	H	0.383074	0.588027	0.596755
	H290	H	0.385766	0.605150	0.625433
	O291	O	1.054224	0.012838	0.999842
	H292	H	1.059665	0.013170	0.997044
	H293	H	1.052548	0.007891	1.003414
	O294	O	0.911007	1.003792	1.022288
	H295	H	0.897669	0.999789	1.016421
	H296	H	0.921604	1.006412	1.020954
	O297	O	0.019751	0.082500	0.043915
	H298	H	0.019803	0.085579	0.044619
	H299	H	0.025404	0.073343	0.042876
	O300	O	0.390338	0.478236	0.354051
	H301	H	0.378522	0.479662	0.356161
	H302	H	0.401065	0.488737	0.354098
	O303	O	-0.045398	0.951296	1.051327
	H304	H	-0.041220	0.950942	1.049484
	H305	H	-0.052851	0.947381	1.047219
	O306	O	0.609007	0.394856	0.420021
	H307	H	0.613740	0.381669	0.443205
	H308	H	0.585475	0.403533	0.419692
	O309	O	0.980628	-0.012074	0.048245
	H310	H	0.982058	-0.014331	0.046402
	H311	H	0.977990	-0.019703	0.050145
	O312	O	0.102434	-0.100546	0.931283
	H313	H	0.105506	-0.097805	0.935109
	H314	H	0.108817	-0.108169	0.937553
	O315	O	0.314316	0.666302	0.366706
	H316	H	0.313817	0.651356	0.368392
	H317	H	0.325476	0.670275	0.378616
	O318	O	0.432266	0.366175	0.594411
	H319	H	0.428058	0.364911	0.592938
	H320	H	0.439234	0.378027	0.594511
	O321	O	0.429989	0.641273	0.464457
	H322	H	0.428452	0.651405	0.463908
	H323	H	0.403145	0.646055	0.448193
	O324	O	0.488090	0.580699	0.488421
	H325	H	0.482988	0.576396	0.496743
	H326	H	0.481270	0.586319	0.468220
	O327	O	0.012284	1.034335	1.048357
	H328	H	0.011081	1.030392	1.054477
	H329	H	0.006712	1.045257	1.057006
	O330	O	1.103885	0.933990	0.996280
	H331	H	1.099043	0.952438	0.998413
	H332	H	1.110506	0.927717	0.994162
	O333	O	-0.100210	0.862600	1.063478
	H334	H	-0.100800	0.871095	1.054724
	H335	H	-0.104565	0.865759	1.073321
	O336	O	0.900224	0.838497	1.032712
	H337	H	0.903182	0.854618	1.035296
	H338	H	0.896147	0.837507	1.043297
	O339	O	0.478112	0.673104	0.585100
	H340	H	0.504562	0.667707	0.570942
	H341	H	0.476272	0.690048	0.602919
	O342	O	1.339087	0.485062	-0.661542
	H343	H	1.347587	0.485013	-0.657094
	H344	H	1.327517	0.496617	-0.658861
	O345	O	-0.037383	1.044167	-0.004647
	H346	H	-0.034504	1.038039	0.000931
	H347	H	-0.028823	1.050443	-0.004392
	O348	O	1.542802	1.504936	0.659436
	H349	H	1.546161	1.503247	0.674534
	H350	H	1.555035	1.520630	0.661138
	O351	O	0.926677	1.083530	0.028364
	H352	H	0.922057	1.082095	0.033909
	H353	H	0.927858	1.085423	0.017793
	O354	O	0.419921	0.651217	0.515613
	H355	H	0.429989	0.646286	0.519235
	H356	H	0.432056	0.654243	0.526094
	O357	O	0.567988	0.367988	0.500302
	H358	H	0.561915	0.375219	0.502583
	H359	H	0.575450	0.368722	0.520032
	O360	O	-0.006435	-0.055714	-0.041393
	H361	H	-0.013138	-0.055003	-0.047806
	H362	H	-0.004616	-0.059230	-0.041455
	O363	O	0.541020	0.354977	0.597424
	H364	H	0.541509	0.352242	0.596491
	H365	H	0.546740	0.350706	0.606461
	O366	O	0.658799	0.355887	0.368299
	H367	H	0.660719	0.356835	0.350038
	H368	H	0.668009	0.329580	0.374835
	O369	O	0.696171	0.223571	0.875918
	H370	H	0.697080	0.234956	0.875123
	H371	H	0.701587	0.221010	0.870699
	O372	O	0.472927	0.531341	0.540601
	H373	H	0.480371	0.544464	0.545557
	H374	H	0.467863	0.530023	0.541324
	O375	O	0.391248	0.467490	0.627738
	H376	H	0.384071	0.453964	0.627021
	H377	H	0.381043	0.451290	0.624643
	O378	O	0.616413	0.435646	0.524278
	H379	H	0.632803	0.423413	0.521737
	H380	H	0.610126	0.425142	0.533689
	O381	O	0.397785	0.330310	0.472574
	H382	H	0.392461	0.326082	0.471815
	H383	H	0.401554	0.325676	0.466199
	O384	O	-0.129476	1.034806	0.048647
	H385	H	-0.132827	1.032980	0.055155
	H386	H	-0.136851	1.030309	0.048343
	O387	O	0.453164	0.407785	1.598160
	H388	H	0.454995	0.409248	1.581349
	H389	H	0.451354	0.409026	1.588864
	O390	O	0.597148	0.626538	-0.436937
	H391	H	0.582132	0.639368	-0.452540
	H392	H	0.596027	0.608831	-0.451489
	O393	O	0.402775	1.434514	-0.447833
	H394	H	0.390210	1.433382	-0.451710
	H395	H	0.403776	1.424697	-0.435069
	O396	O	0.638511	0.436098	0.346458
	H397	H	0.642229	0.441642	0.350137
	H398	H	0.636046	0.435332	0.331661
	O399	O	0.566225	0.416303	0.511095
	H400	H	0.560412	0.422748	0.521934
	H401	H	0.567010	0.438385	0.506840
	O402	O	1.017452	0.976876	0.943973
	H403	H	1.018744	0.982399	0.945433
	H404	H	1.026094	0.976012	0.943403
	O405	O	0.554249	0.585116	0.385518
	H406	H	0.563148	0.592840	0.388541
	H407	H	0.559971	0.580732	0.388979
