data_Molecule from HDF5

_cell_length_a		16.222493
_cell_length_b		16.183535
_cell_length_c		16.299856
_cell_angle_alpha	90.079250
_cell_angle_beta	89.284691
_cell_angle_gamma	89.885208
_symmetry_space_group_name_H-M	'P 1'
_symmetry_Int_Tables_number		1

loop_
	_symmetry_equiv_pos_as_xyz
	x,y,z

loop_
	_atom_site_label
	_atom_site_type_symbol
	_atom_site_fract_x
	_atom_site_fract_y
	_atom_site_fract_z
	H0	H	0.384982	0.833535	0.712806
	H1	H	0.586822	0.160731	0.711974
	H2	H	0.588603	0.833607	0.279075
	H3	H	0.388244	0.161187	0.283913
	H4	H	0.705395	0.394526	0.833405
	H5	H	0.698885	0.597092	0.159113
	H6	H	0.275008	0.595597	0.831351
	H7	H	0.267082	0.397854	0.158325
	H8	H	0.821637	0.712176	0.399209
	H9	H	0.150133	0.711908	0.592443
	H10	H	0.822413	0.283975	0.595246
	H11	H	0.150881	0.282511	0.392353
	H12	H	0.822986	0.397457	0.712157
	H13	H	0.150461	0.598002	0.708738
	H14	H	0.821493	0.598348	0.282134
	H15	H	0.149232	0.396600	0.275693
	H16	H	0.388443	0.712114	0.832597
	H17	H	0.581660	0.711954	0.159655
	H18	H	0.588815	0.279614	0.833471
	H19	H	0.385818	0.285350	0.160859
	H20	H	0.703321	0.833099	0.395992
	H21	H	0.698769	0.162938	0.592266
	H22	H	0.270813	0.833786	0.597391
	H23	H	0.274881	0.161823	0.399949
	H24	H	0.885661	0.333233	0.210834
	H25	H	0.083564	0.662210	0.208332
	H26	H	0.088714	0.333205	0.777386
	H27	H	0.886696	0.661509	0.782229
	H28	H	0.205862	0.897374	0.332926
	H29	H	0.199208	0.098360	0.659375
	H30	H	0.774065	0.098111	0.332448
	H31	H	0.769983	0.899032	0.658525
	H32	H	0.321066	0.209172	0.903044
	H33	H	0.650259	0.210598	0.092503
	H34	H	0.320582	0.785091	0.097494
	H35	H	0.649522	0.782803	0.896830
	H36	H	0.322922	0.896996	0.215847
	H37	H	0.651056	0.096409	0.208491
	H38	H	0.323210	0.098794	0.782019
	H39	H	0.649789	0.895463	0.778956
	H40	H	0.889885	0.211665	0.331970
	H41	H	0.084035	0.214487	0.657788
	H42	H	0.088768	0.781980	0.331959
	H43	H	0.886450	0.783978	0.659473
	H44	H	0.202993	0.332610	0.894336
	H45	H	0.197485	0.662941	0.091162
	H46	H	0.771432	0.332449	0.095117
	H47	H	0.771161	0.661220	0.897381
	H48	H	0.390042	0.115474	0.587734
	H49	H	0.577499	0.883291	0.578843
	H50	H	0.572543	0.112267	0.401666
	H51	H	0.396460	0.880131	0.405145
	H52	H	0.575087	0.399920	0.112816
	H53	H	0.571356	0.581727	0.884814
	H54	H	0.388889	0.585130	0.112870
	H55	H	0.384778	0.411796	0.878298
	H56	H	0.101919	0.587539	0.401055
	H57	H	0.870270	0.585241	0.591613
	H58	H	0.099417	0.410174	0.577519
	H59	H	0.875261	0.414061	0.415250
	H60	H	0.104300	0.410698	0.593615
	H61	H	0.867549	0.594213	0.594556
	H62	H	0.103625	0.588151	0.396360
	H63	H	0.866645	0.410742	0.388811
	H64	H	0.394871	0.591630	0.111841
	H65	H	0.576193	0.599772	0.877869
	H66	H	0.583745	0.404754	0.113822
	H67	H	0.407256	0.406799	0.883494
	H68	H	0.585907	0.114166	0.410166
	H69	H	0.586955	0.876935	0.590308
	H70	H	0.394912	0.116241	0.594792
	H71	H	0.397287	0.878643	0.405355
	H72	H	0.886471	0.616661	0.091005
	H73	H	0.079180	0.380110	0.087248
	H74	H	0.074616	0.614364	0.896296
	H75	H	0.901458	0.382214	0.904754
	H76	H	0.071225	0.900777	0.611002
	H77	H	0.087085	0.095011	0.376116
	H78	H	0.891966	0.085706	0.610889
	H79	H	0.896539	0.897761	0.377099
	H80	H	0.602479	0.078878	0.895324
	H81	H	0.366423	0.095125	0.094974
	H82	H	0.606957	0.886693	0.084087
	H83	H	0.370484	0.903601	0.912308
	H84	H	0.596176	0.914524	0.076096
	H85	H	0.370224	0.090558	0.088567
	H86	H	0.607198	0.098049	0.900041
	H87	H	0.369560	0.911609	0.901443
	H88	H	0.896944	0.094038	0.611537
	H89	H	0.085670	0.082677	0.380647
	H90	H	0.083451	0.899709	0.614216
	H91	H	0.890446	0.906915	0.378043
	H92	H	0.078321	0.611974	0.907579
	H93	H	0.075901	0.379969	0.086661
	H94	H	0.896546	0.614045	0.092423
	H95	H	0.890224	0.379117	0.907069
	H96	H	0.397540	0.112442	0.587467
	H97	H	0.572442	0.879849	0.594662
	H98	H	0.585455	0.118755	0.394139
	H99	H	0.397099	0.880849	0.405567
	H100	H	0.576208	0.409647	0.111468
	H101	H	0.590100	0.585856	0.877628
	H102	H	0.385358	0.594383	0.114312
	H103	H	0.392831	0.390545	0.874685
	H104	H	0.103136	0.591663	0.400208
	H105	H	0.870353	0.591853	0.584829
	H106	H	0.105917	0.396740	0.584860
	H107	H	0.865911	0.388683	0.406186
	H108	H	0.893721	0.612848	0.083314
	H109	H	0.077912	0.380926	0.084294
	H110	H	0.086894	0.617023	0.899104
	H111	H	0.894977	0.377628	0.895524
	H112	H	0.079471	0.911202	0.610518
	H113	H	0.075675	0.090774	0.379916
	H114	H	0.887515	0.093465	0.614385
	H115	H	0.901486	0.907618	0.381578
	H116	H	0.599211	0.085886	0.912801
	H117	H	0.368624	0.086948	0.097394
	H118	H	0.606054	0.910373	0.104411
	H119	H	0.365200	0.899953	0.900980
	C120	C	0.364108	0.006108	0.619322
	C121	C	0.607530	0.988779	0.616593
	C122	C	0.610337	0.006611	0.372893
	C123	C	0.367465	0.988395	0.376950
	C124	C	0.608151	0.375135	0.004559
	C125	C	0.607098	0.618919	0.987795
	C126	C	0.363244	0.619215	0.004404
	C127	C	0.364614	0.375219	0.987280
	C128	C	-0.005699	0.618616	0.373004
	C129	C	0.978079	0.618901	0.617394
	C130	C	-0.005006	0.376752	0.615687
	C131	C	0.977487	0.375650	0.372759
	C132	C	0.863155	0.506093	0.117843
	C133	C	0.106144	0.488999	0.114899
	C134	C	0.109682	0.506104	0.871699
	C135	C	0.865733	0.488482	0.874430
	C136	C	0.109001	0.875086	0.504097
	C137	C	0.109164	0.119200	0.486881
	C138	C	0.865164	0.119601	0.504029
	C139	C	0.865579	0.875828	0.486898
	C140	C	0.494762	0.117790	0.875161
	C141	C	0.477454	0.119256	0.119485
	C142	C	0.494440	0.875436	0.118418
	C143	C	0.476895	0.875683	0.874917
	C144	C	0.365060	0.882837	0.675075
	C145	C	0.605975	0.112151	0.672921
	C146	C	0.608500	0.882608	0.317397
	C147	C	0.368772	0.112300	0.321957
	C148	C	0.665876	0.375496	0.881972
	C149	C	0.661453	0.617348	0.110255
	C150	C	0.311231	0.616266	0.880684
	C151	C	0.306888	0.378170	0.110174
	C152	C	0.870773	0.674550	0.377702
	C153	C	0.101230	0.674307	0.613565
	C154	C	0.871510	0.321583	0.615052
	C155	C	0.101335	0.320163	0.372714
	C156	C	0.872032	0.378038	0.673558
	C157	C	0.101313	0.617552	0.671313
	C158	C	0.870670	0.617774	0.319540
	C159	C	0.100661	0.377030	0.314800
	C160	C	0.367547	0.674437	0.881518
	C161	C	0.602893	0.674372	0.110620
	C162	C	0.608083	0.318167	0.882114
	C163	C	0.365745	0.321997	0.111357
	C164	C	0.665483	0.882291	0.375324
	C165	C	0.662092	0.112973	0.613636
	C166	C	0.307924	0.882966	0.617706
	C167	C	0.312299	0.112396	0.379521
	C168	C	0.865339	0.382417	0.173086
	C169	C	0.103905	0.612933	0.170385
	C170	C	0.108749	0.382354	0.815362
	C171	C	0.866668	0.612330	0.819839
	C172	C	0.167291	0.876801	0.381841
	C173	C	0.162078	0.118077	0.610219
	C174	C	0.811298	0.117820	0.381232
	C175	C	0.808544	0.878344	0.609949
	C176	C	0.370641	0.172550	0.880604
	C177	C	0.601182	0.173378	0.114100
	C178	C	0.370249	0.821648	0.117356
	C179	C	0.600516	0.820082	0.876311
	C180	C	0.371397	0.877467	0.176320
	C181	C	0.601387	0.116668	0.171957
	C182	C	0.371646	0.117392	0.820590
	C183	C	0.600574	0.876172	0.817763
	C184	C	0.869062	0.174220	0.380946
	C185	C	0.104682	0.175787	0.609410
	C186	C	0.108650	0.819718	0.381096
	C187	C	0.866583	0.821288	0.610322
	C188	C	0.165389	0.381911	0.873541
	C189	C	0.160666	0.613230	0.112045
	C190	C	0.808908	0.381777	0.115231
	C191	C	0.809262	0.612023	0.877260
	C192	C	0.387444	0.092534	0.596667
	C193	C	0.585514	0.902267	0.594506
	C194	C	0.587956	0.092646	0.395395
	C195	C	0.390236	0.902144	0.399052
	C196	C	0.585008	0.398051	0.090546
	C197	C	0.585665	0.595775	0.902086
	C198	C	0.383769	0.596968	0.090783
	C199	C	0.388049	0.396582	0.901352
	C200	C	0.080635	0.595761	0.393132
	C201	C	0.891558	0.596728	0.596503
	C202	C	0.081068	0.399221	0.592118
	C203	C	0.891542	0.397956	0.396366
	C204	C	0.885475	0.592328	0.095420
	C205	C	0.084039	0.402647	0.092628
	C206	C	0.086816	0.592091	0.894391
	C207	C	0.888877	0.402152	0.896102
	C208	C	0.085095	0.897428	0.589814
	C209	C	0.088729	0.096189	0.400911
	C210	C	0.885922	0.097488	0.590048
	C211	C	0.889292	0.897853	0.401168
	C212	C	0.580805	0.094568	0.896395
	C213	C	0.390866	0.097569	0.099535
	C214	C	0.580640	0.897393	0.094889
	C215	C	0.390694	0.898529	0.897994
	Zn216	Zn	0.486306	-0.003366	0.746091
	Zn217	Zn	0.486852	-0.002520	0.247170
	Zn218	Zn	0.736488	0.496734	-0.004190
	Zn219	Zn	0.236002	0.497479	-0.005447
	Zn220	Zn	-0.013599	0.746425	0.495130
	Zn221	Zn	-0.013404	0.247662	0.494583
	Zn222	Zn	-0.013128	0.497835	0.745286
	Zn223	Zn	-0.014877	0.497325	0.244543
	Zn224	Zn	0.484609	0.747727	-0.003568
	Zn225	Zn	0.486169	0.246733	-0.003006
	Zn226	Zn	0.737173	-0.001948	0.495141
	Zn227	Zn	0.237954	-0.002413	0.496893
	N228	N	0.399529	0.960548	0.676078
	N229	N	0.572706	0.033994	0.674754
	N230	N	0.575086	0.960766	0.315650
	N231	N	0.402509	0.034098	0.320135
	N232	N	0.666028	0.410173	0.959144
	N233	N	0.663842	0.583256	0.032820
	N234	N	0.308426	0.582651	0.958135
	N235	N	0.306274	0.410683	0.032155
	N236	N	0.948733	0.675248	0.410020
	N237	N	0.023504	0.675188	0.580741
	N238	N	0.949013	0.320638	0.579755
	N239	N	0.023967	0.319325	0.408303
	N240	N	0.949840	0.411785	0.674053
	N241	N	0.023498	0.584011	0.673870
	N242	N	0.948539	0.583835	0.316451
	N243	N	0.022641	0.410831	0.314579
	N244	N	0.398933	0.676336	0.959554
	N245	N	0.569812	0.675414	0.033336
	N246	N	0.572805	0.317982	0.959426
	N247	N	0.401066	0.320029	0.033972
	N248	N	0.666918	0.960340	0.409036
	N249	N	0.662955	0.035293	0.579061
	N250	N	0.307400	0.960804	0.583778
	N251	N	0.311454	0.034485	0.412995
	N252	N	0.898531	0.460649	0.174756
	N253	N	0.070796	0.534682	0.172436
	N254	N	0.074541	0.460375	0.814124
	N255	N	0.901254	0.534693	0.818092
	N256	N	0.167595	0.910433	0.459364
	N257	N	0.165098	0.083653	0.532968
	N258	N	0.808822	0.084352	0.458813
	N259	N	0.807807	0.911555	0.532355
	N260	N	0.448229	0.172867	0.913838
	N261	N	0.523042	0.175310	0.082456
	N262	N	0.447857	0.820213	0.082097
	N263	N	0.522748	0.819428	0.910888
	N264	N	0.449671	0.910160	0.177318
	N265	N	0.523351	0.083658	0.175472
	N266	N	0.449747	0.084133	0.817072
	N267	N	0.522534	0.910255	0.816849
	N268	N	0.901957	0.175377	0.458202
	N269	N	0.072569	0.176686	0.531626
	N270	N	0.073091	0.818356	0.458240
	N271	N	0.901383	0.819542	0.532723
	N272	N	0.166279	0.459700	0.907732
	N273	N	0.162180	0.535315	0.078129
	N274	N	0.807328	0.459690	0.081616
	N275	N	0.808767	0.533904	0.910613
	O276	O	-0.041427	-0.035651	0.028541
	H277	H	-0.027024	-0.032293	0.024266
	H278	H	-0.033608	-0.031003	0.027147
	O279	O	0.952560	-0.085654	-0.010537
	H280	H	0.949196	-0.087471	-0.006279
	H281	H	0.958944	-0.092646	-0.017981
	O282	O	0.540179	0.499856	0.504495
	H283	H	0.537771	0.498993	0.497792
	H284	H	0.546242	0.507997	0.510010
	O285	O	0.526020	1.414306	0.467920
	H286	H	0.536431	1.411839	0.462440
	H287	H	0.520079	1.406731	0.453336
	O288	O	0.412888	0.477638	0.558743
	H289	H	0.414907	0.473392	0.550928
	H290	H	0.423956	0.474354	0.565097
	O291	O	1.086542	1.035146	0.943349
	H292	H	1.083542	1.031694	0.938067
	H293	H	1.083035	1.037575	0.946108
	O294	O	0.947167	0.959376	1.010648
	H295	H	0.939139	0.961035	1.001128
	H296	H	0.958548	0.955231	1.008747
	O297	O	1.471773	0.554845	1.520587
	H298	H	1.469663	0.558254	1.517777
	H299	H	1.481845	0.562509	1.508378
	O300	O	0.402493	0.543656	0.437465
	H301	H	0.403566	0.559254	0.441914
	H302	H	0.397311	0.531781	0.441933
	O303	O	1.001690	0.050337	0.010069
	H304	H	1.006673	0.057691	0.020534
	H305	H	0.999492	0.042419	0.012164
	O306	O	0.040547	0.980253	0.902487
	H307	H	0.043192	0.972858	0.909542
	H308	H	0.035169	0.994954	0.904963
	O309	O	0.971957	0.978279	1.061428
	H310	H	0.965715	0.974411	1.061196
	H311	H	0.975203	0.970796	1.067056
	O312	O	1.005874	0.058916	0.961957
	H313	H	1.003796	0.059710	0.955805
	H314	H	1.004303	0.053718	0.965770
	O315	O	0.553317	0.478288	0.434631
	H316	H	0.554670	0.475379	0.431243
	H317	H	0.542832	0.479450	0.433241
	O318	O	0.535491	0.534473	0.456670
	H319	H	0.531455	0.524940	0.454606
	H320	H	0.529919	0.525963	0.457475
	O321	O	0.911539	1.042812	1.065736
	H322	H	0.909294	1.044279	1.066123
	H323	H	0.911971	1.037869	1.073229
	O324	O	0.426650	0.374477	0.524067
	H325	H	0.411582	0.374395	0.525933
	H326	H	0.432512	0.374693	0.539378
	O327	O	0.555206	0.561089	0.534168
	H328	H	0.551890	0.550387	0.536830
	H329	H	0.548993	0.557463	0.525091
	O330	O	1.030341	-0.111704	0.942265
	H331	H	1.034915	-0.111307	0.939417
	H332	H	1.034098	-0.107843	0.937349
	O333	O	0.977886	1.051334	0.041396
	H334	H	0.978808	1.058063	0.044374
	H335	H	0.973586	1.048222	0.034585
	O336	O	0.338557	0.552638	0.443987
	H337	H	0.330285	0.545723	0.434927
	H338	H	0.333196	0.546583	0.449120
	O339	O	0.522538	0.433755	0.457101
	H340	H	0.525269	0.441109	0.456115
	H341	H	0.525646	0.441377	0.448973
	O342	O	-0.097274	0.892190	0.139418
	H343	H	-0.103728	0.893029	0.125868
	H344	H	-0.095884	0.884247	0.137462
	O345	O	-0.066581	-0.101210	0.076853
	H346	H	-0.063886	-0.110996	0.068673
	H347	H	-0.075006	-0.096312	0.091153
	O348	O	0.499322	0.555995	0.483142
	H349	H	0.481886	0.549136	0.477780
	H350	H	0.494740	0.554871	0.483380
	O351	O	0.477942	0.562990	0.525094
	H352	H	0.485514	0.564831	0.537994
	H353	H	0.469029	0.558507	0.521559
	O354	O	0.498585	0.422007	0.420691
	H355	H	0.504685	0.421000	0.428713
	H356	H	0.513155	0.410956	0.424495
	O357	O	0.522327	0.451575	0.524325
	H358	H	0.537661	0.455537	0.526157
	H359	H	0.523359	0.450669	0.516395
	O360	O	0.102229	-0.000543	-0.003892
	H361	H	0.108336	-0.004627	-0.005510
	H362	H	0.108059	0.001666	-0.005377
	O363	O	0.512667	0.613514	0.568952
	H364	H	0.508080	0.607449	0.563820
	H365	H	0.514377	0.624631	0.569950
	O366	O	0.023185	0.016596	0.961919
	H367	H	0.017993	0.013685	0.968273
	H368	H	0.030044	0.013318	0.958841
	O369	O	0.388356	0.481036	0.526492
	H370	H	0.386357	0.489435	0.530245
	H371	H	0.394315	0.484341	0.531523
