data_Molecule from HDF5

_cell_length_a		16.617493
_cell_length_b		16.701358
_cell_length_c		16.629013
_cell_angle_alpha	90.081810
_cell_angle_beta	90.108438
_cell_angle_gamma	90.125385
_symmetry_space_group_name_H-M	'P 1'
_symmetry_Int_Tables_number		1

loop_
	_symmetry_equiv_pos_as_xyz
	x,y,z

loop_
	_atom_site_label
	_atom_site_type_symbol
	_atom_site_fract_x
	_atom_site_fract_y
	_atom_site_fract_z
	H0	H	0.396361	0.840889	0.728872
	H1	H	0.610363	0.148891	0.730098
	H2	H	0.605293	0.839276	0.289274
	H3	H	0.399581	0.151014	0.285913
	H4	H	0.727714	0.388334	0.853029
	H5	H	0.724998	0.599648	0.162179
	H6	H	0.282106	0.600451	0.851739
	H7	H	0.285846	0.391482	0.162811
	H8	H	0.852659	0.721192	0.395694
	H9	H	0.157762	0.719475	0.614502
	H10	H	0.851177	0.271859	0.613880
	H11	H	0.156943	0.269565	0.395771
	H12	H	0.849878	0.389328	0.727980
	H13	H	0.157691	0.604216	0.730871
	H14	H	0.851755	0.603419	0.281652
	H15	H	0.158467	0.388172	0.283836
	H16	H	0.396689	0.717767	0.852338
	H17	H	0.608294	0.715185	0.162138
	H18	H	0.614665	0.269709	0.854149
	H19	H	0.400766	0.274931	0.162189
	H20	H	0.722661	0.840394	0.404935
	H21	H	0.726775	0.149358	0.614137
	H22	H	0.280149	0.841698	0.612258
	H23	H	0.283594	0.150806	0.402370
	H24	H	0.900690	0.340901	0.226730
	H25	H	0.114069	0.647873	0.231429
	H26	H	0.113325	0.343103	0.781296
	H27	H	0.895507	0.647531	0.781625
	H28	H	0.224858	0.890689	0.351427
	H29	H	0.231357	0.106435	0.659166
	H30	H	0.782815	0.100266	0.353437
	H31	H	0.780704	0.887135	0.659952
	H32	H	0.350876	0.219624	0.897415
	H33	H	0.660440	0.214922	0.110341
	H34	H	0.349050	0.775079	0.110525
	H35	H	0.659195	0.774307	0.901113
	H36	H	0.348509	0.891906	0.225789
	H37	H	0.661072	0.097481	0.225038
	H38	H	0.349635	0.102518	0.782742
	H39	H	0.659247	0.890295	0.786025
	H40	H	0.897867	0.217566	0.353225
	H41	H	0.119150	0.224257	0.657495
	H42	H	0.111039	0.772164	0.353434
	H43	H	0.895781	0.771229	0.659298
	H44	H	0.227292	0.341498	0.899316
	H45	H	0.228801	0.648626	0.115292
	H46	H	0.782805	0.341780	0.111304
	H47	H	0.780990	0.648265	0.899677
	H48	H	0.421705	0.103618	0.592524
	H49	H	0.601888	0.883161	0.588751
	H50	H	0.596037	0.107693	0.418548
	H51	H	0.405553	0.882176	0.415752
	H52	H	0.588049	0.406394	0.116308
	H53	H	0.591363	0.580071	0.897108
	H54	H	0.416191	0.591105	0.119651
	H55	H	0.416744	0.410351	0.896478
	H56	H	0.113905	0.583410	0.421899
	H57	H	0.891052	0.584591	0.597390
	H58	H	0.118071	0.402869	0.592852
	H59	H	0.890948	0.401148	0.416004
	H60	H	0.111162	0.412492	0.587064
	H61	H	0.893951	0.585695	0.589415
	H62	H	0.113621	0.581484	0.420932
	H63	H	0.895697	0.407316	0.423126
	H64	H	0.410296	0.582307	0.118861
	H65	H	0.589588	0.587764	0.895389
	H66	H	0.595683	0.400798	0.120884
	H67	H	0.419944	0.404680	0.896410
	H68	H	0.595994	0.109490	0.413781
	H69	H	0.592500	0.880619	0.606011
	H70	H	0.415498	0.104525	0.590941
	H71	H	0.418287	0.883058	0.409470
	H72	H	0.911328	0.607624	0.093383
	H73	H	0.098234	0.381929	0.096181
	H74	H	0.092945	0.604367	0.922624
	H75	H	0.919207	0.385041	0.916402
	H76	H	0.087167	0.910120	0.615347
	H77	H	0.094826	0.084433	0.394565
	H78	H	0.916397	0.088286	0.620214
	H79	H	0.917661	0.906250	0.395558
	H80	H	0.614994	0.085899	0.921032
	H81	H	0.393231	0.087768	0.090292
	H82	H	0.618224	0.902696	0.098223
	H83	H	0.394864	0.908571	0.921953
	H84	H	0.616697	0.904197	0.095224
	H85	H	0.394362	0.078648	0.096596
	H86	H	0.612587	0.079962	0.921154
	H87	H	0.391963	0.908255	0.914446
	H88	H	0.913909	0.080606	0.618550
	H89	H	0.090600	0.077732	0.397992
	H90	H	0.090488	0.905235	0.618376
	H91	H	0.913813	0.906137	0.394368
	H92	H	0.094659	0.607061	0.918357
	H93	H	0.088535	0.384707	0.098904
	H94	H	0.917422	0.608822	0.101077
	H95	H	0.917561	0.386526	0.922028
	H96	H	0.417400	0.105305	0.596935
	H97	H	0.583174	0.889561	0.590740
	H98	H	0.591909	0.106980	0.415746
	H99	H	0.416736	0.888014	0.423005
	H100	H	0.597649	0.410887	0.118279
	H101	H	0.596954	0.584566	0.893178
	H102	H	0.420267	0.582045	0.115320
	H103	H	0.413888	0.405018	0.893662
	H104	H	0.115417	0.583005	0.419901
	H105	H	0.895226	0.578748	0.593617
	H106	H	0.116465	0.414190	0.599376
	H107	H	0.893282	0.410957	0.413966
	H108	H	0.921033	0.604528	0.092892
	H109	H	0.092221	0.387542	0.089755
	H110	H	0.089609	0.604930	0.918351
	H111	H	0.913101	0.383955	0.917965
	H112	H	0.093590	0.911350	0.617462
	H113	H	0.086732	0.085885	0.397948
	H114	H	0.921998	0.082178	0.617471
	H115	H	0.914973	0.909064	0.395878
	H116	H	0.615123	0.082045	0.915511
	H117	H	0.389640	0.087985	0.100877
	H118	H	0.617319	0.905911	0.098753
	H119	H	0.390997	0.901909	0.919213
	C120	C	0.383574	0.003051	0.626840
	C121	C	0.625621	0.986325	0.628697
	C122	C	0.625176	0.004662	0.385630
	C123	C	0.382149	0.987266	0.384631
	C124	C	0.626321	0.373671	0.015974
	C125	C	0.625285	0.616441	0.997830
	C126	C	0.383031	0.616669	0.015267
	C127	C	0.384240	0.374281	0.998136
	C128	C	0.013103	0.616268	0.386176
	C129	C	0.994862	0.617351	0.627850
	C130	C	0.013278	0.375610	0.626840
	C131	C	0.995354	0.373251	0.384808
	C132	C	0.883690	0.504769	0.128123
	C133	C	0.126650	0.486327	0.128766
	C134	C	0.125818	0.503997	0.885854
	C135	C	0.882854	0.486528	0.885279
	C136	C	0.124285	0.875434	0.515169
	C137	C	0.126309	0.117728	0.497708
	C138	C	0.884122	0.116369	0.516244
	C139	C	0.882224	0.873623	0.497168
	C140	C	0.512615	0.116498	0.885115
	C141	C	0.495872	0.116085	0.127380
	C142	C	0.513473	0.873764	0.128010
	C143	C	0.495165	0.874161	0.885796
	C144	C	0.379326	0.887270	0.687844
	C145	C	0.628532	0.102503	0.689656
	C146	C	0.624917	0.886579	0.328140
	C147	C	0.381325	0.104355	0.325968
	C148	C	0.687312	0.370484	0.899591
	C149	C	0.684923	0.618217	0.115274
	C150	C	0.322622	0.618577	0.898389
	C151	C	0.325010	0.372568	0.115616
	C152	C	0.897986	0.679099	0.379782
	C153	C	0.111222	0.679040	0.632132
	C154	C	0.897404	0.313327	0.630887
	C155	C	0.110875	0.311020	0.379679
	C156	C	0.896974	0.371470	0.688080
	C157	C	0.111240	0.621612	0.689768
	C158	C	0.897808	0.620822	0.322778
	C159	C	0.111817	0.369837	0.323686
	C160	C	0.379611	0.676908	0.898734
	C161	C	0.627212	0.675842	0.115175
	C162	C	0.631129	0.311471	0.900225
	C163	C	0.382327	0.314812	0.115406
	C164	C	0.683058	0.886975	0.385727
	C165	C	0.686444	0.102735	0.632166
	C166	C	0.321244	0.887650	0.630236
	C167	C	0.323528	0.104303	0.383762
	C168	C	0.881517	0.387752	0.187388
	C169	C	0.130897	0.601967	0.190475
	C170	C	0.130195	0.388908	0.823010
	C171	C	0.878188	0.601766	0.823044
	C172	C	0.185042	0.872133	0.398437
	C173	C	0.190427	0.123518	0.612706
	C174	C	0.822754	0.118976	0.399776
	C175	C	0.820968	0.869528	0.613431
	C176	C	0.396867	0.178548	0.880317
	C177	C	0.613575	0.174845	0.128803
	C178	C	0.395905	0.814802	0.129294
	C179	C	0.612297	0.814307	0.883182
	C180	C	0.395575	0.873025	0.186396
	C181	C	0.614032	0.116844	0.185948
	C182	C	0.396275	0.120050	0.823551
	C183	C	0.612273	0.871892	0.825784
	C184	C	0.880206	0.176827	0.399698
	C185	C	0.134307	0.182118	0.611913
	C186	C	0.128171	0.813703	0.399174
	C187	C	0.878040	0.811697	0.613019
	C188	C	0.187106	0.388109	0.881586
	C189	C	0.188251	0.602109	0.132684
	C190	C	0.823303	0.388122	0.130056
	C191	C	0.821300	0.602023	0.881570
	C192	C	0.410498	0.083574	0.600944
	C193	C	0.599886	0.905410	0.602673
	C194	C	0.601526	0.086712	0.409300
	C195	C	0.406535	0.905607	0.409077
	C196	C	0.600864	0.398910	0.097404
	C197	C	0.600004	0.591238	0.916296
	C198	C	0.408389	0.592026	0.096771
	C199	C	0.409557	0.399471	0.916772
	C200	C	0.093421	0.590026	0.413350
	C201	C	0.914282	0.590691	0.601063
	C202	C	0.094275	0.402277	0.600515
	C203	C	0.914477	0.399105	0.410380
	C204	C	0.909226	0.585791	0.102986
	C205	C	0.100505	0.405581	0.102402
	C206	C	0.099872	0.584452	0.912370
	C207	C	0.909313	0.406035	0.911406
	C208	C	0.098113	0.901557	0.596127
	C209	C	0.098555	0.090431	0.417626
	C210	C	0.910240	0.090942	0.597442
	C211	C	0.908207	0.899800	0.416380
	C212	C	0.593216	0.090204	0.911626
	C213	C	0.413732	0.091854	0.102838
	C214	C	0.595936	0.897541	0.104397
	C215	C	0.413908	0.899264	0.911286
	Zn216	Zn	0.503930	-0.005138	0.757252
	Zn217	Zn	0.504361	-0.004216	0.256048
	Zn218	Zn	0.754176	0.495751	0.006906
	Zn219	Zn	0.254744	0.494765	0.007151
	Zn220	Zn	0.003804	0.745896	0.506399
	Zn221	Zn	0.005079	0.245425	0.507209
	Zn222	Zn	0.004274	0.495797	0.756472
	Zn223	Zn	0.005098	0.495564	0.257054
	Zn224	Zn	0.504456	0.745450	0.006154
	Zn225	Zn	0.504756	0.245393	0.006336
	Zn226	Zn	0.754397	-0.004754	0.507385
	Zn227	Zn	0.253282	-0.004200	0.506250
	N228	N	0.417489	0.960104	0.685823
	N229	N	0.591530	0.029010	0.687719
	N230	N	0.589793	0.960886	0.327700
	N231	N	0.417053	0.030336	0.326277
	N232	N	0.684604	0.408555	0.972747
	N233	N	0.684231	0.582361	0.041129
	N234	N	0.324616	0.581634	0.972014
	N235	N	0.325871	0.408814	0.041602
	N236	N	0.970747	0.676369	0.418577
	N237	N	0.037828	0.676561	0.594128
	N238	N	0.971104	0.315467	0.593616
	N239	N	0.037404	0.312867	0.416950
	N240	N	0.970028	0.409640	0.685464
	N241	N	0.037888	0.583892	0.687361
	N242	N	0.970316	0.582091	0.326741
	N243	N	0.038874	0.408260	0.326526
	N244	N	0.416704	0.675846	0.972422
	N245	N	0.590995	0.675094	0.040971
	N246	N	0.593561	0.313526	0.973488
	N247	N	0.418237	0.315420	0.041177
	N248	N	0.683629	0.961499	0.420561
	N249	N	0.685086	0.029210	0.595142
	N250	N	0.323625	0.960883	0.593007
	N251	N	0.323786	0.030288	0.419470
	N252	N	0.918200	0.461411	0.186755
	N253	N	0.093140	0.528832	0.188181
	N254	N	0.092624	0.461995	0.825281
	N255	N	0.915853	0.528811	0.825220
	N256	N	0.182701	0.909759	0.471729
	N257	N	0.185728	0.084096	0.540572
	N258	N	0.824961	0.081989	0.473430
	N259	N	0.823338	0.907445	0.540327
	N260	N	0.470288	0.176503	0.918112
	N261	N	0.539074	0.174636	0.093119
	N262	N	0.470335	0.814930	0.093833
	N263	N	0.538276	0.815085	0.919504
	N264	N	0.469938	0.908820	0.186012
	N265	N	0.539616	0.081026	0.185299
	N266	N	0.469279	0.082127	0.826303
	N267	N	0.538343	0.908189	0.826999
	N268	N	0.917718	0.175200	0.473134
	N269	N	0.094949	0.178687	0.539337
	N270	N	0.091178	0.815409	0.472894
	N271	N	0.915391	0.813982	0.539663
	N272	N	0.184640	0.460799	0.919962
	N273	N	0.185853	0.529101	0.094981
	N274	N	0.824215	0.462022	0.094218
	N275	N	0.824041	0.529236	0.919558
	O276	O	0.023987	1.124177	-0.062360
	H277	H	0.026896	1.125808	-0.071257
	H278	H	0.019337	1.125155	-0.068404
	O279	O	0.056594	0.202821	0.196613
	H280	H	0.037608	0.172399	0.194813
	H281	H	0.045945	0.216983	0.209052
	O282	O	0.987222	0.216885	0.778053
	H283	H	0.965823	0.226574	0.763530
	H284	H	0.970258	0.229044	0.773989
	O285	O	0.667971	0.424196	0.622938
	H286	H	0.675613	0.409189	0.635471
	H287	H	0.647997	0.408395	0.619248
	O288	O	0.277541	0.551278	0.564751
	H289	H	0.276104	0.559399	0.553019
	H290	H	0.281894	0.541999	0.555497
	O291	O	0.479321	0.437696	0.426279
	H292	H	0.483489	0.428854	0.422479
	H293	H	0.471621	0.422045	0.434593
	O294	O	0.891594	0.038563	0.909688
	H295	H	0.891041	0.055755	0.906725
	H296	H	0.891975	0.039844	0.901351
	O297	O	0.552096	0.613032	0.470272
	H298	H	0.548387	0.598334	0.478910
	H299	H	0.553376	0.614967	0.456877
	O300	O	-0.015143	0.225972	1.040851
	H301	H	-0.016514	0.219508	1.031769
	H302	H	-0.008666	0.235118	1.041282
	O303	O	0.742237	0.735316	0.347567
	H304	H	0.726913	0.716898	0.370118
	H305	H	0.747020	0.729479	0.334317
	O306	O	0.523790	0.455099	0.657041
	H307	H	0.531235	0.471818	0.660334
	H308	H	0.522108	0.468233	0.660211
	O309	O	0.282900	0.284014	0.525874
	H310	H	0.265567	0.275248	0.534546
	H311	H	0.289064	0.275976	0.528729
	O312	O	0.524447	0.719240	0.729616
	H313	H	0.541841	0.736962	0.740672
	H314	H	0.547307	0.723285	0.734098
	O315	O	0.871404	1.008916	0.876712
	H316	H	0.869599	1.017323	0.871791
	H317	H	0.868782	1.012018	0.866873
	O318	O	0.842826	0.803295	0.208390
	H319	H	0.827540	0.794570	0.220161
	H320	H	0.846577	0.809477	0.204768
	O321	O	0.279908	0.720480	0.733436
	H322	H	0.271294	0.706761	0.718282
	H323	H	0.303458	0.706496	0.705277
	O324	O	0.979323	0.827567	0.156279
	H325	H	0.972079	0.823310	0.142913
	H326	H	0.959002	0.809128	0.170028
	O327	O	0.130510	0.209295	0.883316
	H328	H	0.139633	0.221180	0.870602
	H329	H	0.130266	0.200363	0.892331
	O330	O	0.721837	0.278298	0.477957
	H331	H	0.725687	0.261493	0.477411
	H332	H	0.721810	0.277384	0.478688
	O333	O	0.482289	0.278047	0.729626
	H334	H	0.476024	0.261717	0.744558
	H335	H	0.484289	0.284596	0.739385
	O336	O	0.460144	0.258886	0.462831
	H337	H	0.462192	0.276725	0.449671
	H338	H	0.451264	0.250242	0.454590
	O339	O	1.180714	0.001501	0.827168
	H340	H	1.195359	0.001778	0.817296
	H341	H	1.173793	-0.021294	0.819494
	O342	O	-0.049514	0.059513	0.239333
	H343	H	-0.057054	0.059327	0.247299
	H344	H	-0.050419	0.048834	0.227613
	O345	O	0.149209	0.965693	0.996105
	H346	H	0.149264	0.974807	0.996690
	H347	H	0.148929	0.976097	0.989622
	O348	O	0.215106	-0.167315	-0.115425
	H349	H	0.237453	-0.201085	-0.144269
	H350	H	0.216394	-0.141078	-0.116004
	O351	O	0.485268	0.591599	0.383346
	H352	H	0.477115	0.597559	0.381617
	H353	H	0.479963	0.587493	0.373527
	O354	O	-0.077445	0.109479	0.905816
	H355	H	-0.080820	0.123847	0.907002
	H356	H	-0.064227	0.110391	0.906277
	O357	O	0.462144	0.527002	0.700642
	H358	H	0.452360	0.532129	0.703781
	H359	H	0.453971	0.541410	0.699641
	O360	O	0.565360	0.416939	0.492372
	H361	H	0.557914	0.420099	0.486404
	H362	H	0.561133	0.410018	0.499963
	O363	O	-0.203419	0.205323	-0.205798
	H364	H	-0.194085	0.199279	-0.167438
	H365	H	-0.221601	0.202864	-0.208451
	O366	O	0.528565	0.630415	0.431891
	H367	H	0.524740	0.636728	0.445003
	H368	H	0.537703	0.623018	0.431561
	O369	O	0.704533	0.292188	0.308626
	H370	H	0.687450	0.322023	0.303362
	H371	H	0.711092	0.302735	0.334283
	O372	O	0.801841	0.957826	-0.024710
	H373	H	0.804253	0.949137	-0.012711
	H374	H	0.803442	0.949637	-0.022235
	O375	O	1.087180	0.088805	-0.151954
	H376	H	1.065310	0.083373	-0.136355
	H377	H	1.089540	0.069748	-0.147153
	O378	O	0.213363	0.204515	0.212651
	H379	H	0.195019	0.216584	0.200591
	H380	H	0.192633	0.175825	0.213784
	O381	O	0.021287	0.772662	0.789743
	H382	H	0.037229	0.771772	0.792784
	H383	H	0.032277	0.758230	0.775655
	O384	O	0.929523	0.021659	0.940844
	H385	H	0.941758	0.026287	0.948717
	H386	H	0.923970	0.017963	0.944410
	O387	O	1.220880	0.776296	-0.018118
	H388	H	1.234657	0.764922	-0.022311
	H389	H	1.225977	0.779497	-0.042837
	O390	O	0.536872	0.272968	0.288838
	H391	H	0.541229	0.261762	0.279107
	H392	H	0.551386	0.267588	0.284986
	O393	O	0.314921	0.306588	0.318698
	H394	H	0.314635	0.318826	0.341224
	H395	H	0.298054	0.292638	0.296383
	O396	O	0.205427	1.053949	0.956955
	H397	H	0.204798	1.063531	0.958480
	H398	H	0.203299	1.053977	0.935863
	O399	O	0.160607	0.020023	1.188682
	H400	H	0.167190	0.009304	1.205117
	H401	H	0.181253	0.034869	1.183513
	O402	O	0.528342	0.592016	0.469247
	H403	H	0.536918	0.596184	0.458195
	H404	H	0.529530	0.586368	0.472810
	O405	O	0.786572	-0.031784	0.875121
	H406	H	0.782808	-0.030710	0.858009
	H407	H	0.784010	-0.030533	0.895558
	O408	O	0.229990	0.217399	0.033644
	H409	H	0.235472	0.215449	0.046023
	H410	H	0.246062	0.232169	0.046246
	O411	O	0.707159	0.700008	0.713383
	H412	H	0.736744	0.727501	0.729936
	H413	H	0.699201	0.683630	0.696186
	O414	O	0.717304	0.520841	0.723093
	H415	H	0.720014	0.539622	0.732588
	H416	H	0.728191	0.524330	0.732134
	O417	O	0.736314	0.501592	0.481439
	H418	H	0.728806	0.478352	0.499582
	H419	H	0.739937	0.514645	0.502838
	O420	O	0.648320	0.639278	0.471262
	H421	H	0.640912	0.620609	0.470067
	H422	H	0.648042	0.650278	0.466097
	O423	O	-0.189723	0.193074	1.202268
	H424	H	-0.201634	0.210643	1.222220
	H425	H	-0.183464	0.174383	1.201344
	O426	O	0.338006	0.636917	0.446518
	H427	H	0.361163	0.645701	0.444862
	H428	H	0.330873	0.655290	0.452800
	O429	O	0.794889	0.773781	1.056267
	H430	H	0.798591	0.769023	1.061010
	H431	H	0.787412	0.765004	1.052573
	O432	O	0.411202	0.646653	0.611862
	H433	H	0.429499	0.637561	0.604659
	H434	H	0.410049	0.637716	0.597940
	O435	O	0.198695	0.802035	0.202971
	H436	H	0.189984	0.806797	0.197506
	H437	H	0.183259	0.812069	0.181607
	O438	O	0.156196	-0.065998	0.146607
	H439	H	0.164568	-0.055122	0.135832
	H440	H	0.146761	-0.057800	0.149854
	O441	O	-0.143489	0.208190	0.050686
	H442	H	-0.148118	0.218756	0.076327
	H443	H	-0.128541	0.201903	0.046407
	O444	O	0.271343	0.438313	0.449604
	H445	H	0.276747	0.428937	0.455009
	H446	H	0.266339	0.445541	0.433769
	O447	O	0.042206	0.932190	0.779259
	H448	H	0.038383	0.929501	0.790328
	H449	H	0.041702	0.942796	0.774664
	O450	O	-0.183604	0.795295	0.843152
	H451	H	-0.171366	0.809495	0.863446
	H452	H	-0.169717	0.809344	0.851709
	O453	O	0.289574	0.473371	0.718324
	H454	H	0.277064	0.468836	0.715852
	H455	H	0.280784	0.461620	0.727612
	O456	O	0.301236	0.300684	0.708361
	H457	H	0.318852	0.314776	0.702923
	H458	H	0.305159	0.281446	0.699114
	O459	O	0.945497	0.840020	0.216451
	H460	H	0.947507	0.834595	0.225587
	H461	H	0.939105	0.851023	0.225407
	O462	O	0.725123	0.456749	0.288699
	H463	H	0.740181	0.471174	0.281239
	H464	H	0.739458	0.468819	0.292001
	O465	O	0.783140	-0.041027	0.231723
	H466	H	0.772741	-0.036360	0.238946
	H467	H	0.774181	-0.062708	0.242924
	O468	O	0.284141	0.520121	0.293263
	H469	H	0.266981	0.533081	0.282643
	H470	H	0.285989	0.532550	0.286239
	O471	O	0.460044	0.422252	0.340662
	H472	H	0.431379	0.420640	0.341319
	H473	H	0.473483	0.406301	0.329075
	O474	O	0.298366	0.697280	0.304935
	H475	H	0.283274	0.717560	0.294292
	H476	H	0.299835	0.694341	0.328207
	O477	O	0.483037	0.714759	1.330220
	H478	H	0.477023	0.712369	1.321643
	H479	H	0.469819	0.724148	1.326033
	O480	O	0.510863	0.287829	0.591569
	H481	H	0.518550	0.281368	0.584254
	H482	H	0.504581	0.299589	0.585321
	O483	O	0.663634	0.658781	0.448699
	H484	H	0.660837	0.633065	0.452594
	H485	H	0.658811	0.658797	0.461803
	O486	O	0.690461	0.307137	0.694695
	H487	H	0.693552	0.306356	0.714138
	H488	H	0.661082	0.305005	0.677805
	O489	O	1.065278	0.758140	0.059206
	H490	H	1.068592	0.751568	0.060227
	H491	H	1.076735	0.762141	0.055728
	O492	O	0.040663	0.037283	0.157971
	H493	H	0.044128	0.018353	0.171512
	H494	H	0.042013	0.023023	0.140675
	O495	O	-0.043043	0.777540	0.944284
	H496	H	-0.035839	0.776924	0.945657
	H497	H	-0.033352	0.784380	0.947431
	O498	O	0.991965	0.940974	0.980928
	H499	H	0.992743	0.948050	0.992221
	H500	H	0.984902	0.939849	0.993704
	O501	O	0.471750	0.681900	0.593363
	H502	H	0.479938	0.683143	0.589465
	H503	H	0.480746	0.685173	0.588270
