data_Molecule from HDF5

_cell_length_a		16.573087
_cell_length_b		16.669074
_cell_length_c		16.538793
_cell_angle_alpha	90.059462
_cell_angle_beta	89.927561
_cell_angle_gamma	90.075794
_symmetry_space_group_name_H-M	'P 1'
_symmetry_Int_Tables_number		1

loop_
	_symmetry_equiv_pos_as_xyz
	x,y,z

loop_
	_atom_site_label
	_atom_site_type_symbol
	_atom_site_fract_x
	_atom_site_fract_y
	_atom_site_fract_z
	H0	H	0.409313	0.865990	0.704206
	H1	H	0.621994	0.176581	0.706169
	H2	H	0.622297	0.868117	0.258160
	H3	H	0.408267	0.175864	0.259848
	H4	H	0.736628	0.416622	0.825245
	H5	H	0.736227	0.627452	0.137222
	H6	H	0.291905	0.629774	0.826450
	H7	H	0.295196	0.419990	0.139773
	H8	H	0.858624	0.743655	0.374489
	H9	H	0.167347	0.746877	0.590375
	H10	H	0.858670	0.301138	0.585171
	H11	H	0.170736	0.300682	0.376083
	H12	H	0.859303	0.417341	0.701763
	H13	H	0.170745	0.628077	0.702734
	H14	H	0.857251	0.625279	0.260972
	H15	H	0.170897	0.418398	0.261743
	H16	H	0.409133	0.743891	0.825917
	H17	H	0.619861	0.742774	0.137726
	H18	H	0.620707	0.300597	0.824848
	H19	H	0.410575	0.302774	0.139120
	H20	H	0.738585	0.867972	0.374706
	H21	H	0.739750	0.175821	0.590267
	H22	H	0.291947	0.866272	0.588630
	H23	H	0.290785	0.175495	0.376173
	H24	H	0.908490	0.365564	0.201879
	H25	H	0.117770	0.677023	0.202665
	H26	H	0.121394	0.365563	0.760050
	H27	H	0.909939	0.676513	0.758432
	H28	H	0.235773	0.916577	0.326521
	H29	H	0.233328	0.124371	0.640745
	H30	H	0.791924	0.127644	0.327063
	H31	H	0.793027	0.916452	0.638406
	H32	H	0.359282	0.244559	0.875681
	H33	H	0.670543	0.244425	0.087384
	H34	H	0.358954	0.802237	0.085525
	H35	H	0.671261	0.801436	0.876798
	H36	H	0.359031	0.918818	0.201838
	H37	H	0.671621	0.126679	0.201913
	H38	H	0.357745	0.126161	0.761570
	H39	H	0.671068	0.918384	0.761495
	H40	H	0.909473	0.242053	0.325623
	H41	H	0.120305	0.242883	0.638918
	H42	H	0.120538	0.800013	0.325808
	H43	H	0.905218	0.796963	0.636585
	H44	H	0.237078	0.366815	0.876011
	H45	H	0.233265	0.678377	0.084972
	H46	H	0.791500	0.366951	0.086246
	H47	H	0.793173	0.676882	0.875432
	H48	H	0.422833	0.133705	0.572082
	H49	H	0.605531	0.910097	0.571264
	H50	H	0.605149	0.133932	0.392941
	H51	H	0.429093	0.911540	0.393816
	H52	H	0.601122	0.428964	0.094592
	H53	H	0.602684	0.609642	0.869367
	H54	H	0.431713	0.612845	0.092429
	H55	H	0.424598	0.432000	0.868306
	H56	H	0.123587	0.609895	0.396516
	H57	H	0.902654	0.607795	0.571814
	H58	H	0.128195	0.430751	0.568038
	H59	H	0.901300	0.430285	0.391230
	H60	H	0.126996	0.433069	0.570496
	H61	H	0.903014	0.611333	0.568304
	H62	H	0.124893	0.608050	0.391214
	H63	H	0.900701	0.428269	0.391976
	H64	H	0.422481	0.616233	0.096668
	H65	H	0.601893	0.611505	0.869245
	H66	H	0.607202	0.433857	0.094824
	H67	H	0.425070	0.434458	0.870459
	H68	H	0.602445	0.132777	0.392766
	H69	H	0.598977	0.912249	0.572400
	H70	H	0.427643	0.131912	0.573471
	H71	H	0.423413	0.910805	0.395603
	H72	H	0.926528	0.630742	0.066077
	H73	H	0.106082	0.409676	0.070142
	H74	H	0.100687	0.633710	0.886248
	H75	H	0.931440	0.410126	0.885911
	H76	H	0.103108	0.933699	0.594871
	H77	H	0.104215	0.111410	0.369808
	H78	H	0.921052	0.108481	0.595867
	H79	H	0.924125	0.937414	0.370996
	H80	H	0.623395	0.107019	0.896467
	H81	H	0.403311	0.111065	0.068836
	H82	H	0.628615	0.931602	0.070007
	H83	H	0.403051	0.930112	0.896291
	H84	H	0.627721	0.932961	0.070988
	H85	H	0.402632	0.110127	0.071481
	H86	H	0.627614	0.110212	0.889083
	H87	H	0.403688	0.935899	0.893736
	H88	H	0.931634	0.106008	0.591420
	H89	H	0.104666	0.109277	0.369931
	H90	H	0.100739	0.933633	0.593369
	H91	H	0.932151	0.932620	0.372133
	H92	H	0.100226	0.629624	0.898237
	H93	H	0.103597	0.409338	0.072201
	H94	H	0.920534	0.635498	0.071837
	H95	H	0.928672	0.414451	0.900065
	H96	H	0.425521	0.131267	0.568491
	H97	H	0.602005	0.913445	0.566484
	H98	H	0.604035	0.132745	0.395524
	H99	H	0.424940	0.909848	0.390051
	H100	H	0.600560	0.436243	0.091554
	H101	H	0.603804	0.611575	0.869151
	H102	H	0.423134	0.606195	0.093408
	H103	H	0.427433	0.432465	0.869816
	H104	H	0.127510	0.613965	0.392828
	H105	H	0.905048	0.606591	0.567285
	H106	H	0.128470	0.430013	0.571350
	H107	H	0.901470	0.429662	0.393442
	H108	H	0.928867	0.632827	0.075307
	H109	H	0.102856	0.410985	0.069741
	H110	H	0.110411	0.634745	0.893664
	H111	H	0.918137	0.407842	0.892065
	H112	H	0.102045	0.931131	0.594565
	H113	H	0.102980	0.109882	0.370924
	H114	H	0.928719	0.116968	0.595928
	H115	H	0.924417	0.928836	0.368362
	H116	H	0.626683	0.115459	0.896316
	H117	H	0.402711	0.113125	0.070369
	H118	H	0.628597	0.931884	0.071987
	H119	H	0.401210	0.931601	0.890373
	C120	C	0.393169	0.029823	0.604014
	C121	C	0.635864	1.013851	0.603602
	C122	C	0.636728	0.030696	0.360656
	C123	C	0.392870	1.013011	0.361031
	C124	C	0.635517	0.401065	-0.010212
	C125	C	0.635523	0.643169	0.972693
	C126	C	0.393246	0.643953	-0.009188
	C127	C	0.393850	0.401767	0.973594
	C128	C	0.022236	0.642367	0.360903
	C129	C	1.005938	0.642236	0.602445
	C130	C	0.024285	0.399731	0.602125
	C131	C	1.005123	0.398664	0.359946
	C132	C	0.892730	0.530015	0.102945
	C133	C	0.135605	0.513112	0.103015
	C134	C	0.136929	0.530232	0.859717
	C135	C	0.893801	0.513264	0.860018
	C136	C	0.134635	0.900403	0.491009
	C137	C	0.136497	0.142646	0.474027
	C138	C	0.894544	0.142338	0.490874
	C139	C	0.893373	0.900184	0.473391
	C140	C	0.522942	0.143400	0.860734
	C141	C	0.506284	0.143668	0.102853
	C142	C	0.524389	0.900748	0.103067
	C143	C	0.506128	0.900759	0.860870
	C144	C	0.390921	0.912780	0.664076
	C145	C	0.639758	0.130155	0.665343
	C146	C	0.640010	0.914461	0.299209
	C147	C	0.390310	0.129562	0.300537
	C148	C	0.695941	0.398668	0.871928
	C149	C	0.695517	0.645131	0.090409
	C150	C	0.332562	0.646982	0.873270
	C151	C	0.334737	0.400865	0.092423
	C152	C	0.905075	0.702908	0.357485
	C153	C	0.121702	0.705239	0.607079
	C154	C	0.905856	0.340880	0.603968
	C155	C	0.123520	0.340193	0.357670
	C156	C	0.906140	0.398872	0.661616
	C157	C	0.123189	0.645998	0.662940
	C158	C	0.904496	0.644169	0.300769
	C159	C	0.123624	0.398732	0.300843
	C160	C	0.390749	0.704140	0.872972
	C161	C	0.637975	0.702804	0.090718
	C162	C	0.638256	0.340996	0.871999
	C163	C	0.391937	0.342582	0.091885
	C164	C	0.698036	0.914500	0.356937
	C165	C	0.698372	0.129722	0.607867
	C166	C	0.332619	0.912700	0.606643
	C167	C	0.331978	0.129314	0.358278
	C168	C	0.889710	0.412929	0.162767
	C169	C	0.136531	0.630322	0.162609
	C170	C	0.139184	0.412880	0.799738
	C171	C	0.891719	0.630178	0.799280
	C172	C	0.195610	0.898146	0.373360
	C173	C	0.194826	0.143755	0.592920
	C174	C	0.833150	0.145163	0.373462
	C175	C	0.832606	0.897512	0.591272
	C176	C	0.405739	0.203791	0.857866
	C177	C	0.623790	0.203945	0.105455
	C178	C	0.406222	0.841735	0.104962
	C179	C	0.624005	0.841301	0.858300
	C180	C	0.406219	0.899773	0.162468
	C181	C	0.624282	0.145374	0.162314
	C182	C	0.405031	0.145276	0.800877
	C183	C	0.624020	0.899355	0.800885
	C184	C	0.891601	0.202036	0.372829
	C185	C	0.138481	0.202651	0.591957
	C186	C	0.137823	0.840488	0.372956
	C187	C	0.888624	0.838368	0.590041
	C188	C	0.197423	0.413495	0.857079
	C189	C	0.193850	0.631045	0.103871
	C190	C	0.831791	0.413520	0.104931
	C191	C	0.833389	0.630195	0.857000
	C192	C	0.418234	0.111278	0.578462
	C193	C	0.609559	0.932888	0.577358
	C194	C	0.611036	0.112038	0.386398
	C195	C	0.418336	0.931735	0.386098
	C196	C	0.610333	0.426124	0.072208
	C197	C	0.610036	0.618141	0.890658
	C198	C	0.418393	0.618917	0.072768
	C199	C	0.418455	0.426086	0.890993
	C200	C	0.104064	0.617549	0.386283
	C201	C	0.924615	0.616001	0.576350
	C202	C	0.106558	0.424173	0.577051
	C203	C	0.922715	0.422376	0.384965
	C204	C	0.918134	0.611681	0.078258
	C205	C	0.111160	0.431287	0.077831
	C206	C	0.111118	0.611654	0.885530
	C207	C	0.918909	0.432038	0.885401
	C208	C	0.109002	0.925598	0.572908
	C209	C	0.111393	0.117487	0.391724
	C210	C	0.920030	0.117316	0.573071
	C211	C	0.919292	0.925851	0.391879
	C212	C	0.604668	0.118064	0.886563
	C213	C	0.424390	0.118654	0.077394
	C214	C	0.606768	0.925042	0.078084
	C215	C	0.423799	0.925470	0.886312
	Zn216	Zn	0.514309	0.022133	0.732836
	Zn217	Zn	0.514866	0.022497	0.231668
	Zn218	Zn	0.764105	0.521997	-0.019237
	Zn219	Zn	0.265070	0.522070	-0.018680
	Zn220	Zn	0.013636	0.771378	0.481690
	Zn221	Zn	0.015230	0.270455	0.481655
	Zn222	Zn	0.015580	0.521189	0.731021
	Zn223	Zn	0.013526	0.520658	0.232436
	Zn224	Zn	0.515128	0.771978	-0.018293
	Zn225	Zn	0.514576	0.272455	-0.018110
	Zn226	Zn	0.765535	0.021693	0.482701
	Zn227	Zn	0.263913	0.021104	0.483462
	N228	N	0.427743	0.986576	0.662695
	N229	N	0.601519	0.057070	0.662708
	N230	N	0.602583	0.987848	0.301233
	N231	N	0.427687	0.056278	0.302212
	N232	N	0.694420	0.435182	0.946357
	N233	N	0.694415	0.608767	0.015948
	N234	N	0.333919	0.610214	0.947453
	N235	N	0.335649	0.436785	0.017636
	N236	N	0.979472	0.702050	0.393934
	N237	N	0.047664	0.703210	0.570160
	N238	N	0.980382	0.341504	0.567493
	N239	N	0.048781	0.339759	0.393381
	N240	N	0.980788	0.434550	0.660709
	N241	N	0.050107	0.607362	0.660214
	N242	N	0.978441	0.607114	0.302683
	N243	N	0.048879	0.434267	0.301900
	N244	N	0.427979	0.702381	0.947043
	N245	N	0.601400	0.701700	0.016377
	N246	N	0.601326	0.342333	0.946445
	N247	N	0.427702	0.342671	0.016887
	N248	N	0.696063	0.987811	0.394541
	N249	N	0.695992	0.056321	0.570178
	N250	N	0.334060	0.986376	0.569759
	N251	N	0.333406	0.055821	0.395342
	N252	N	0.926845	0.486573	0.161900
	N253	N	0.101226	0.555814	0.162505
	N254	N	0.102613	0.486887	0.800725
	N255	N	0.928564	0.556471	0.800873
	N256	N	0.194078	0.934569	0.447831
	N257	N	0.193985	0.107357	0.518306
	N258	N	0.834560	0.108855	0.448060
	N259	N	0.835210	0.935098	0.517497
	N260	N	0.480123	0.203087	0.894155
	N261	N	0.549244	0.203131	0.069243
	N262	N	0.480824	0.841968	0.068968
	N263	N	0.549440	0.841991	0.894788
	N264	N	0.480945	0.935468	0.161707
	N265	N	0.550142	0.108702	0.161001
	N266	N	0.479172	0.108624	0.802480
	N267	N	0.549717	0.935677	0.802406
	N268	N	0.928835	0.200447	0.446944
	N269	N	0.103198	0.202289	0.516876
	N270	N	0.101023	0.841325	0.447235
	N271	N	0.925670	0.839817	0.515834
	N272	N	0.196281	0.487543	0.893395
	N273	N	0.193714	0.556865	0.067792
	N274	N	0.833337	0.487446	0.068666
	N275	N	0.834373	0.556451	0.893893
	O276	O	-0.063748	0.800367	-0.079178
	H277	H	-0.050398	0.802290	-0.086236
	H278	H	-0.054298	0.808361	-0.085863
	O279	O	0.665359	0.714287	0.339328
	H280	H	0.661432	0.715365	0.346588
	H281	H	0.653650	0.707321	0.360550
	O282	O	0.414505	-0.291121	1.528991
	H283	H	0.393111	-0.288133	1.526274
	H284	H	0.398280	-0.296240	1.517177
	O285	O	0.703904	0.334629	0.669597
	H286	H	0.684709	0.346788	0.645685
	H287	H	0.694967	0.364019	0.654982
	O288	O	0.514642	0.737442	0.624268
	H289	H	0.500824	0.723047	0.611402
	H290	H	0.497995	0.743925	0.613910
	O291	O	0.331376	0.329724	0.304299
	H292	H	0.351034	0.347484	0.319898
	H293	H	0.350656	0.339099	0.328157
	O294	O	0.805191	-0.028539	0.924004
	H295	H	0.803054	-0.016789	0.914270
	H296	H	0.799799	-0.010328	0.933661
	O297	O	0.308599	0.472823	0.439547
	H298	H	0.308082	0.474338	0.446893
	H299	H	0.307603	0.487193	0.427286
	O300	O	-0.289883	-0.284091	0.660780
	H301	H	-0.314213	-0.277415	0.670611
	H302	H	-0.286968	-0.261215	0.686608
	O303	O	0.230541	0.236169	0.190579
	H304	H	0.190600	0.224363	0.198688
	H305	H	0.260562	0.263213	0.226975
	O306	O	0.560090	0.519421	0.507208
	H307	H	0.563812	0.521122	0.499343
	H308	H	0.558041	0.529595	0.517181
	O309	O	0.579268	0.296988	0.545269
	H310	H	0.568686	0.303768	0.557117
	H311	H	0.559015	0.297027	0.559237
	O312	O	0.429171	0.722447	0.684783
	H313	H	0.413785	0.752282	0.703606
	H314	H	0.424918	0.722728	0.665836
	O315	O	0.972062	1.247778	1.039149
	H316	H	0.993820	1.245330	1.065069
	H317	H	0.992747	1.246555	1.031218
	O318	O	0.735511	0.465385	0.534197
	H319	H	0.736750	0.476266	0.532873
	H320	H	0.738493	0.485232	0.529376
	O321	O	0.053349	0.948548	0.777893
	H322	H	0.053702	0.976818	0.780160
	H323	H	0.055494	0.961752	0.787325
	O324	O	1.080792	1.020949	-0.013563
	H325	H	1.082580	1.023605	-0.005384
	H326	H	1.082406	1.004301	-0.020293
	O327	O	-0.501405	0.454375	0.340890
	H328	H	-0.499677	0.466124	0.341157
	H329	H	-0.512998	0.447489	0.347546
	O330	O	-0.020118	0.241154	0.759253
	H331	H	-0.030283	0.274507	0.732655
	H332	H	-0.030367	0.243349	0.781727
	O333	O	0.322483	0.323030	0.679803
	H334	H	0.308887	0.366986	0.686420
	H335	H	0.328104	0.316866	0.648360
	O336	O	0.987170	0.026916	-0.004703
	H337	H	0.982449	0.024476	-0.005558
	H338	H	0.981769	0.042236	-0.019086
	O339	O	0.813959	-0.015605	1.192398
	H340	H	0.808027	-0.007170	1.182530
	H341	H	0.796723	-0.010432	1.209358
	O342	O	-0.394131	-0.386469	0.269219
	H343	H	-0.401387	-0.382150	0.286154
	H344	H	-0.397179	-0.376219	0.259804
	O345	O	0.229485	1.113042	1.127358
	H346	H	0.236107	1.111050	1.153281
	H347	H	0.229844	1.135320	1.123581
	O348	O	-0.194233	-0.184487	1.014650
	H349	H	-0.172957	-0.177485	0.990337
	H350	H	-0.212601	-0.196464	1.005337
	O351	O	0.506058	0.567516	0.484748
	H352	H	0.506356	0.551215	0.484356
	H353	H	0.516945	0.554079	0.482828
	O354	O	-0.267359	0.743709	0.505951
	H355	H	-0.261482	0.743445	0.536683
	H356	H	-0.251737	0.762926	0.518568
	O357	O	0.045354	0.247176	0.198843
	H358	H	0.048463	0.269189	0.227864
	H359	H	0.038175	0.216002	0.208004
	O360	O	-0.188771	-0.183685	1.184816
	H361	H	-0.207157	-0.171006	1.197586
	H362	H	-0.194904	-0.180726	1.141741
	O363	O	0.003411	-0.167451	0.200295
	H364	H	-0.018124	-0.179370	0.201772
	H365	H	-0.014271	-0.183384	0.213485
	O366	O	0.476857	0.463542	0.399891
	H367	H	0.472238	0.478351	0.392880
	H368	H	0.475431	0.471952	0.401951
	O369	O	0.815805	0.106586	0.063902
	H370	H	0.818946	0.122625	0.067579
	H371	H	0.815133	0.129510	0.068375
	O372	O	0.964198	1.038613	0.177608
	H373	H	0.958963	1.044122	0.183094
	H374	H	0.960767	1.028723	0.178246
	O375	O	0.801215	0.237979	-0.052147
	H376	H	0.789061	0.248606	-0.051538
	H377	H	0.817900	0.252317	-0.049438
	O378	O	0.788439	0.186576	0.155352
	H379	H	0.787596	0.201644	0.145247
	H380	H	0.774627	0.204497	0.177530
	O381	O	0.225355	0.814365	0.949383
	H382	H	0.241211	0.794862	0.958003
	H383	H	0.206351	0.818024	0.951112
	O384	O	0.808650	0.230008	0.773396
	H385	H	0.778191	0.261051	0.745572
	H386	H	0.818877	0.229904	0.799191
	O387	O	1.024400	1.086519	0.151124
	H388	H	1.020503	1.059376	0.149346
	H389	H	1.003017	1.078455	0.138830
	O390	O	0.159214	0.960403	0.951215
	H391	H	0.155439	0.958649	0.949434
	H392	H	0.154666	0.968692	0.953355
	O393	O	0.733145	0.487079	0.263527
	H394	H	0.728023	0.501036	0.260916
	H395	H	0.746401	0.483319	0.241836
	O396	O	0.329185	0.574272	0.560768
	H397	H	0.331588	0.576581	0.563584
	H398	H	0.326678	0.571658	0.561956
	O399	O	0.305884	-0.270163	1.274454
	H400	H	0.276753	-0.237187	1.239909
	H401	H	0.348912	-0.274327	1.265387
	O402	O	0.422902	0.332488	0.436425
	H403	H	0.430906	0.329144	0.427086
	H404	H	0.443416	0.337739	0.433573
	O405	O	1.071811	0.217290	0.911852
	H406	H	1.097293	0.208495	0.915673
	H407	H	1.075266	0.217955	0.921823
	O408	O	-0.198596	-0.185975	-0.220656
	H409	H	-0.181080	-0.164795	-0.202608
	H410	H	-0.194130	-0.167468	-0.207442
	O411	O	0.292149	0.743742	0.454238
	H412	H	0.282943	0.756800	0.429418
	H413	H	0.278432	0.751142	0.426118
	O414	O	0.553470	0.457801	0.707932
	H415	H	0.562674	0.466708	0.709477
	H416	H	0.551497	0.459276	0.713272
	O417	O	0.727964	0.539705	0.696730
	H418	H	0.732679	0.562130	0.703810
	H419	H	0.740331	0.560394	0.702615
	O420	O	0.735486	0.575629	0.434104
	H421	H	0.737382	0.582902	0.422605
	H422	H	0.736945	0.592326	0.433855
	O423	O	0.033502	0.030860	0.988885
	H424	H	0.023938	0.031617	0.982094
	H425	H	0.045317	0.033372	0.980364
	O426	O	0.551288	0.312381	0.292473
	H427	H	0.569960	0.324782	0.301228
	H428	H	0.554709	0.305359	0.278392
	O429	O	1.482172	0.742064	1.266741
	H430	H	1.487717	0.752373	1.262510
	H431	H	1.496479	0.755937	1.273839
	O432	O	0.720189	0.308247	0.455078
	H433	H	0.712109	0.292803	0.469295
	H434	H	0.721607	0.310328	0.471315
	O435	O	0.212740	1.104149	-0.073145
	H436	H	0.219408	1.110507	-0.065358
	H437	H	0.221363	1.114682	-0.080489
	O438	O	0.488647	0.298919	0.698783
	H439	H	0.490617	0.298888	0.724917
	H440	H	0.454939	0.296274	0.707614
	O441	O	0.233369	0.191326	-0.011662
	H442	H	0.230196	0.176473	0.017705
	H443	H	0.259642	0.213699	-0.009791
	O444	O	0.535487	0.697574	0.384122
	H445	H	0.519117	0.697109	0.411534
	H446	H	0.554999	0.691806	0.392641
	O447	O	0.292858	1.558495	1.260005
	H448	H	0.261039	1.566139	1.231003
	H449	H	0.294260	1.583286	1.274225
	O450	O	0.059398	0.802428	1.078133
	H451	H	0.035159	0.811139	1.085400
	H452	H	0.044526	0.800919	1.080330
	O453	O	0.206539	-0.168208	1.169880
	H454	H	0.186485	-0.145231	1.155748
	H455	H	0.188306	-0.155513	1.146437
	O456	O	0.099202	0.008692	1.183748
	H457	H	0.103756	0.033579	1.196239
	H458	H	0.094909	0.002746	1.183940
	O459	O	1.040682	0.807035	-0.228163
	H460	H	1.046955	0.792028	-0.253734
	H461	H	1.027815	0.834813	-0.235804
	O462	O	0.471023	0.573520	0.650758
	H463	H	0.473764	0.571096	0.654657
	H464	H	0.483487	0.584447	0.646771
	O465	O	0.807739	0.057235	-0.220191
	H466	H	0.795756	0.071992	-0.232336
	H467	H	0.805583	0.081351	-0.217149
	O468	O	0.430747	0.568733	0.491864
	H469	H	0.425187	0.571809	0.485838
	H470	H	0.431799	0.575915	0.488394
	O471	O	0.298615	0.491047	0.697688
	H472	H	0.279117	0.503455	0.706372
	H473	H	0.303294	0.507200	0.700846
	O474	O	0.690439	0.316048	0.276744
	H475	H	0.699660	0.316677	0.300218
	H476	H	0.680173	0.338694	0.284467
	O477	O	0.301618	0.302446	1.511490
	H478	H	0.306064	0.298444	1.497273
	H479	H	0.293995	0.286823	1.517306
	O480	O	0.229521	0.022630	0.830670
	H481	H	0.240541	0.022032	0.823660
	H482	H	0.225670	0.023207	0.845520
	O483	O	0.070741	0.084117	0.816309
	H484	H	0.068772	0.110161	0.819695
	H485	H	0.083107	0.090967	0.818504
	O486	O	1.222270	-0.184515	0.777119
	H487	H	1.219749	-0.156743	0.793902
	H488	H	1.201829	-0.187641	0.786194
	O489	O	0.976306	1.048286	-0.217819
	H490	H	0.958659	1.060764	-0.215296
	H491	H	0.991995	1.080198	-0.224119
