data_Molecule from HDF5

_cell_length_a		16.407331
_cell_length_b		16.445507
_cell_length_c		16.463836
_cell_angle_alpha	89.884177
_cell_angle_beta	90.129012
_cell_angle_gamma	89.860423
_symmetry_space_group_name_H-M	'P 1'
_symmetry_Int_Tables_number		1

loop_
	_symmetry_equiv_pos_as_xyz
	x,y,z

loop_
	_atom_site_label
	_atom_site_type_symbol
	_atom_site_fract_x
	_atom_site_fract_y
	_atom_site_fract_z
	H0	H	0.393687	0.846577	0.727996
	H1	H	0.606944	0.160698	0.725939
	H2	H	0.609181	0.846206	0.281156
	H3	H	0.391881	0.159033	0.278102
	H4	H	0.722772	0.395316	0.845629
	H5	H	0.722390	0.606314	0.159823
	H6	H	0.278140	0.608937	0.845689
	H7	H	0.277854	0.395958	0.161481
	H8	H	0.842661	0.724351	0.396452
	H9	H	0.157969	0.725649	0.610756
	H10	H	0.845702	0.277775	0.609872
	H11	H	0.158830	0.277482	0.392813
	H12	H	0.845777	0.391809	0.728041
	H13	H	0.157848	0.611074	0.727082
	H14	H	0.841651	0.605494	0.283095
	H15	H	0.159092	0.395766	0.279741
	H16	H	0.393678	0.726714	0.846269
	H17	H	0.605495	0.721588	0.161289
	H18	H	0.608632	0.278223	0.846944
	H19	H	0.392146	0.278543	0.160909
	H20	H	0.723143	0.845154	0.398868
	H21	H	0.723759	0.160194	0.610496
	H22	H	0.278141	0.846809	0.611541
	H23	H	0.277699	0.160231	0.394805
	H24	H	0.891662	0.345905	0.227110
	H25	H	0.107439	0.659828	0.225267
	H26	H	0.109586	0.345619	0.778882
	H27	H	0.892718	0.659162	0.778307
	H28	H	0.223004	0.898282	0.345741
	H29	H	0.225934	0.111894	0.660514
	H30	H	0.778841	0.108396	0.346042
	H31	H	0.779965	0.895134	0.661911
	H32	H	0.344659	0.228748	0.893560
	H33	H	0.659313	0.224751	0.110543
	H34	H	0.342727	0.782480	0.108615
	H35	H	0.660317	0.781357	0.898500
	H36	H	0.344141	0.896963	0.225805
	H37	H	0.660836	0.107219	0.223860
	H38	H	0.344601	0.112904	0.778640
	H39	H	0.660069	0.896631	0.782640
	H40	H	0.893566	0.225105	0.345826
	H41	H	0.109824	0.227432	0.659121
	H42	H	0.106061	0.783241	0.344810
	H43	H	0.894208	0.777974	0.660200
	H44	H	0.223909	0.344444	0.897120
	H45	H	0.223308	0.659361	0.109856
	H46	H	0.778431	0.344909	0.108883
	H47	H	0.778244	0.660188	0.894949
	H48	H	0.416578	0.117290	0.597278
	H49	H	0.589761	0.892418	0.586071
	H50	H	0.589499	0.115300	0.416876
	H51	H	0.419515	0.894329	0.421991
	H52	H	0.588345	0.421920	0.112759
	H53	H	0.588902	0.598112	0.887337
	H54	H	0.408590	0.593381	0.118465
	H55	H	0.416795	0.414148	0.892725
	H56	H	0.113485	0.589012	0.417669
	H57	H	0.889592	0.588526	0.587717
	H58	H	0.114010	0.416456	0.590487
	H59	H	0.888844	0.415874	0.411947
	H60	H	0.114038	0.415196	0.590293
	H61	H	0.888491	0.588749	0.590751
	H62	H	0.115935	0.588599	0.408290
	H63	H	0.887524	0.412098	0.414949
	H64	H	0.412352	0.588386	0.114742
	H65	H	0.594743	0.590448	0.888492
	H66	H	0.583207	0.409892	0.114788
	H67	H	0.410993	0.415238	0.891403
	H68	H	0.592202	0.117380	0.413825
	H69	H	0.596680	0.886588	0.595415
	H70	H	0.419356	0.112758	0.586703
	H71	H	0.406500	0.889094	0.418387
	H72	H	0.913875	0.614591	0.092401
	H73	H	0.093951	0.388459	0.090815
	H74	H	0.086658	0.612838	0.917735
	H75	H	0.908662	0.389083	0.917209
	H76	H	0.085549	0.915491	0.614471
	H77	H	0.092324	0.089365	0.390108
	H78	H	0.914786	0.088908	0.615322
	H79	H	0.908995	0.914908	0.390064
	H80	H	0.613792	0.092865	0.918889
	H81	H	0.388764	0.088527	0.093114
	H82	H	0.617028	0.909978	0.094147
	H83	H	0.389236	0.920519	0.911458
	H84	H	0.614080	0.912371	0.090060
	H85	H	0.387937	0.092890	0.091462
	H86	H	0.611557	0.086521	0.918409
	H87	H	0.386120	0.909067	0.913142
	H88	H	0.915461	0.091518	0.615874
	H89	H	0.087930	0.087574	0.392274
	H90	H	0.088924	0.910281	0.617002
	H91	H	0.913939	0.915193	0.391510
	H92	H	0.091557	0.615088	0.914708
	H93	H	0.086165	0.389342	0.095152
	H94	H	0.911303	0.615563	0.089606
	H95	H	0.913637	0.387939	0.908995
	H96	H	0.408224	0.116852	0.588484
	H97	H	0.585015	0.889984	0.597607
	H98	H	0.588446	0.116105	0.412394
	H99	H	0.417172	0.889355	0.408379
	H100	H	0.595421	0.412513	0.118809
	H101	H	0.585763	0.590194	0.891136
	H102	H	0.415232	0.594844	0.115708
	H103	H	0.414650	0.419399	0.894133
	H104	H	0.115502	0.597721	0.413134
	H105	H	0.887684	0.591149	0.589116
	H106	H	0.113534	0.415730	0.588925
	H107	H	0.890204	0.416014	0.416234
	H108	H	0.911082	0.616134	0.092936
	H109	H	0.086623	0.392016	0.086668
	H110	H	0.086236	0.614965	0.912132
	H111	H	0.917806	0.391673	0.917001
	H112	H	0.092744	0.915746	0.615392
	H113	H	0.087845	0.092735	0.390450
	H114	H	0.912700	0.090434	0.616716
	H115	H	0.912125	0.911076	0.389487
	H116	H	0.614256	0.089864	0.913305
	H117	H	0.389340	0.089800	0.089243
	H118	H	0.615435	0.914469	0.095312
	H119	H	0.391310	0.914734	0.921684
	C120	C	0.380448	0.012128	0.625192
	C121	C	0.623734	0.993654	0.626011
	C122	C	0.622667	0.011747	0.382360
	C123	C	0.380361	0.994582	0.382077
	C124	C	0.621927	0.381414	0.011359
	C125	C	0.622215	0.624074	0.993719
	C126	C	0.379161	0.624776	0.011974
	C127	C	0.379790	0.381414	0.995798
	C128	C	0.009727	0.623541	0.381118
	C129	C	0.992405	0.623143	0.623228
	C130	C	0.010558	0.381235	0.623451
	C131	C	0.993145	0.381259	0.381102
	C132	C	0.879190	0.510957	0.123773
	C133	C	0.121869	0.493888	0.124048
	C134	C	0.122323	0.510648	0.881580
	C135	C	0.879546	0.493663	0.880748
	C136	C	0.122328	0.881508	0.511642
	C137	C	0.123639	0.124525	0.494459
	C138	C	0.880646	0.123384	0.511809
	C139	C	0.878929	0.880337	0.494706
	C140	C	0.509570	0.124241	0.882631
	C141	C	0.492917	0.123702	0.124542
	C142	C	0.510765	0.880454	0.125887
	C143	C	0.493160	0.881776	0.882469
	C144	C	0.376221	0.893881	0.687445
	C145	C	0.626062	0.112913	0.686244
	C146	C	0.626290	0.893300	0.321767
	C147	C	0.375625	0.112186	0.319650
	C148	C	0.682884	0.377459	0.893030
	C149	C	0.682475	0.625372	0.112625
	C150	C	0.317977	0.627492	0.893396
	C151	C	0.317965	0.377972	0.114080
	C152	C	0.889942	0.683417	0.379132
	C153	C	0.110573	0.685212	0.628140
	C154	C	0.892515	0.318417	0.627657
	C155	C	0.111579	0.319082	0.376493
	C156	C	0.892757	0.375195	0.686316
	C157	C	0.110503	0.627905	0.686067
	C158	C	0.889548	0.624708	0.322241
	C159	C	0.111602	0.377621	0.319673
	C160	C	0.375688	0.685859	0.893264
	C161	C	0.624228	0.682569	0.113357
	C162	C	0.625842	0.319191	0.893810
	C163	C	0.374884	0.319263	0.113623
	C164	C	0.683338	0.892929	0.380282
	C165	C	0.683933	0.112811	0.628740
	C166	C	0.318796	0.893886	0.629306
	C167	C	0.318474	0.112816	0.377919
	C168	C	0.875043	0.392624	0.185340
	C169	C	0.125158	0.612457	0.184994
	C170	C	0.126845	0.392618	0.819657
	C171	C	0.875417	0.611999	0.818864
	C172	C	0.182797	0.879864	0.392906
	C173	C	0.185348	0.128863	0.612883
	C174	C	0.819226	0.126338	0.393401
	C175	C	0.819310	0.877158	0.613727
	C176	C	0.391821	0.187541	0.877081
	C177	C	0.611945	0.184504	0.128139
	C178	C	0.390796	0.821640	0.127352
	C179	C	0.612505	0.821244	0.880293
	C180	C	0.391503	0.878534	0.185786
	C181	C	0.612597	0.125935	0.184772
	C182	C	0.391546	0.129421	0.819976
	C183	C	0.612473	0.879088	0.822682
	C184	C	0.876623	0.184281	0.393154
	C185	C	0.127837	0.186985	0.612194
	C186	C	0.124443	0.822568	0.392662
	C187	C	0.876681	0.819061	0.613261
	C188	C	0.183879	0.392023	0.878619
	C189	C	0.182851	0.612263	0.127467
	C190	C	0.818352	0.392303	0.126656
	C191	C	0.818376	0.612338	0.877267
	C192	C	0.407178	0.094150	0.598520
	C193	C	0.598075	0.911309	0.600522
	C194	C	0.597258	0.094736	0.407290
	C195	C	0.406939	0.912232	0.408750
	C196	C	0.596266	0.407363	0.093789
	C197	C	0.597118	0.599741	0.910511
	C198	C	0.404850	0.599457	0.094693
	C199	C	0.406652	0.408421	0.914084
	C200	C	0.093200	0.598982	0.405896
	C201	C	0.910009	0.596895	0.596872
	C202	C	0.092568	0.407968	0.597349
	C203	C	0.910419	0.407122	0.407105
	C204	C	0.904706	0.593795	0.098603
	C205	C	0.096202	0.411382	0.098278
	C206	C	0.095696	0.593000	0.907398
	C207	C	0.905969	0.411101	0.906802
	C208	C	0.096531	0.906751	0.594195
	C209	C	0.096976	0.097823	0.412488
	C210	C	0.906794	0.097682	0.594381
	C211	C	0.904223	0.906066	0.412096
	C212	C	0.591734	0.097420	0.909429
	C213	C	0.410347	0.097960	0.098672
	C214	C	0.593727	0.905116	0.100511
	C215	C	0.410386	0.907505	0.908043
	Zn216	Zn	0.501626	0.003413	0.753676
	Zn217	Zn	0.501766	0.003036	0.253358
	Zn218	Zn	0.751020	0.502292	0.002051
	Zn219	Zn	0.250895	0.502273	0.003529
	Zn220	Zn	0.001029	0.752249	0.502574
	Zn221	Zn	0.001711	0.252536	0.502174
	Zn222	Zn	0.001038	0.502284	0.751965
	Zn223	Zn	0.000508	0.502048	0.252298
	Zn224	Zn	0.501249	0.753030	0.003301
	Zn225	Zn	0.501313	0.252472	0.004115
	Zn226	Zn	0.751265	0.002876	0.504237
	Zn227	Zn	0.251690	0.002905	0.503575
	N228	N	0.413648	0.968550	0.685043
	N229	N	0.589514	0.037985	0.684673
	N230	N	0.589353	0.968258	0.323143
	N231	N	0.413662	0.037717	0.322305
	N232	N	0.680480	0.415631	0.967160
	N233	N	0.681750	0.590088	0.036955
	N234	N	0.319985	0.590363	0.968172
	N235	N	0.320760	0.415788	0.039569
	N236	N	0.965736	0.683002	0.414829
	N237	N	0.036307	0.682386	0.589625
	N238	N	0.966727	0.321992	0.589388
	N239	N	0.036808	0.321312	0.414082
	N240	N	0.967050	0.413463	0.683866
	N241	N	0.035895	0.590161	0.683284
	N242	N	0.965125	0.588491	0.323192
	N243	N	0.036897	0.415493	0.322488
	N244	N	0.412969	0.684338	0.968008
	N245	N	0.587741	0.682024	0.038198
	N246	N	0.588721	0.321600	0.968468
	N247	N	0.412406	0.321163	0.039191
	N248	N	0.681240	0.967588	0.417540
	N249	N	0.682877	0.037706	0.592091
	N250	N	0.321123	0.968384	0.591547
	N251	N	0.321432	0.038617	0.416416
	N252	N	0.912368	0.467235	0.183637
	N253	N	0.087870	0.537695	0.183047
	N254	N	0.089381	0.467474	0.821204
	N255	N	0.912633	0.536931	0.820656
	N256	N	0.181571	0.915835	0.468145
	N257	N	0.183005	0.091094	0.538565
	N258	N	0.821507	0.089514	0.468378
	N259	N	0.820777	0.914788	0.539113
	N260	N	0.466277	0.184499	0.915514
	N261	N	0.536554	0.183484	0.091723
	N262	N	0.465914	0.822729	0.090607
	N263	N	0.537275	0.822725	0.916534
	N264	N	0.467091	0.914243	0.185077
	N265	N	0.537471	0.088928	0.182831
	N266	N	0.465596	0.090564	0.823396
	N267	N	0.537058	0.915854	0.823575
	N268	N	0.914097	0.182845	0.467883
	N269	N	0.090298	0.184445	0.537513
	N270	N	0.087843	0.823198	0.467647
	N271	N	0.912926	0.820829	0.538085
	N272	N	0.181041	0.466402	0.916332
	N273	N	0.180823	0.537686	0.090123
	N274	N	0.820825	0.467015	0.089051
	N275	N	0.820762	0.537652	0.914735
	O276	O	0.548596	0.555541	0.317832
	H277	H	0.558464	0.531702	0.318558
	H278	H	0.546552	0.574394	0.337719
	O279	O	1.041940	0.218970	1.036207
	H280	H	1.060989	0.225734	1.034207
	H281	H	1.022624	0.220666	1.053922
	O282	O	0.621941	0.361312	0.531669
	H283	H	0.609856	0.359862	0.544497
	H284	H	0.597285	0.361293	0.533743
	O285	O	0.376035	0.513986	0.290912
	H286	H	0.361181	0.498141	0.272357
	H287	H	0.380891	0.506896	0.286700
	O288	O	0.960260	1.001555	0.114139
	H289	H	0.947840	0.990063	0.114918
	H290	H	0.947876	1.027182	0.123202
	O291	O	0.580380	0.554342	0.510515
	H292	H	0.572038	0.568859	0.503515
	H293	H	0.579048	0.538918	0.491960
	O294	O	-0.161490	0.127972	1.103880
	H295	H	-0.153676	0.128269	1.091388
	H296	H	-0.170435	0.135856	1.092927
	O297	O	0.406796	0.501412	0.517516
	H298	H	0.396059	0.500146	0.500210
	H299	H	0.404134	0.500840	0.506707
	O300	O	1.069635	0.802344	0.206368
	H301	H	1.033037	0.813880	0.197761
	H302	H	1.059593	0.794939	0.215999
	O303	O	0.470991	0.710553	0.624594
	H304	H	0.440534	0.711558	0.614460
	H305	H	0.468874	0.722307	0.633513
	O306	O	0.497134	0.344670	0.702539
	H307	H	0.510138	0.365878	0.701452
	H308	H	0.503752	0.345752	0.718957
	O309	O	0.325583	0.288301	0.490695
	H310	H	0.299048	0.263514	0.504447
	H311	H	0.335919	0.292179	0.534472
	O312	O	0.213796	0.977956	0.787471
	H313	H	0.221648	0.998488	0.801614
	H314	H	0.228277	0.988354	0.764131
	O315	O	0.533033	0.369915	0.628829
	H316	H	0.558320	0.385931	0.630031
	H317	H	0.530587	0.381919	0.631401
	O318	O	0.933865	-0.105048	-0.148903
	H319	H	0.939143	-0.113975	-0.137102
	H320	H	0.940332	-0.115375	-0.149352
	O321	O	-0.103618	0.024656	0.089060
	H322	H	-0.108875	0.010224	0.084644
	H323	H	-0.121531	0.017449	0.077940
	O324	O	0.531449	0.294123	0.288439
	H325	H	0.561757	0.288706	0.283110
	H326	H	0.524882	0.271190	0.282173
	O327	O	0.701411	0.457663	0.448085
	H328	H	0.714849	0.468839	0.447817
	H329	H	0.689220	0.458412	0.441567
	O330	O	-0.079244	0.994218	0.204236
	H331	H	-0.091517	0.991205	0.204015
	H332	H	-0.078528	1.003649	0.210800
	O333	O	0.587396	0.702239	0.703651
	H334	H	0.579215	0.717144	0.691607
	H335	H	0.561299	0.694481	0.711532
	O336	O	-0.022177	0.212971	-0.206781
	H337	H	-0.005595	0.216588	-0.203702
	H338	H	-0.011991	0.225758	-0.221427
	O339	O	-0.010185	0.803285	0.971867
	H340	H	0.015483	0.793131	0.982800
	H341	H	-0.041719	0.792119	0.978353
	O342	O	0.167323	0.789818	1.007085
	H343	H	0.163455	0.781429	0.992711
	H344	H	0.158729	0.777374	0.992441
	O345	O	1.018290	0.795104	-0.206530
	H346	H	1.028912	0.771770	-0.220922
	H347	H	1.020754	0.789280	-0.187696
	O348	O	0.317829	0.685384	0.323587
	H349	H	0.299291	0.666264	0.300888
	H350	H	0.356508	0.680041	0.314827
	O351	O	0.184063	0.816074	0.817428
	H352	H	0.194752	0.869876	0.806284
	H353	H	0.173917	0.799609	0.813472
	O354	O	-0.250944	0.714832	0.320782
	H355	H	-0.252076	0.732854	0.322469
	H356	H	-0.270735	0.694248	0.323096
	O357	O	0.048405	0.053820	0.789541
	H358	H	0.036521	0.036072	0.796401
	H359	H	0.051141	0.059448	0.792140
	O360	O	0.312211	0.481846	0.705025
	H361	H	0.295946	0.500465	0.699383
	H362	H	0.303758	0.496915	0.704154
	O363	O	0.101168	-0.127406	1.043581
	H364	H	0.106388	-0.120011	1.052679
	H365	H	0.105284	-0.148619	1.056104
	O366	O	0.630977	0.426148	0.480234
	H367	H	0.638742	0.407248	0.494519
	H368	H	0.625295	0.433937	0.482458
	O369	O	0.325169	0.331670	0.681654
	H370	H	0.372686	0.327672	0.691939
	H371	H	0.312069	0.379448	0.695500
	O372	O	0.951353	-0.025009	0.931514
	H373	H	0.938787	-0.024277	0.933295
	H374	H	0.962143	-0.016387	0.942868
	O375	O	0.691094	0.385358	0.309942
	H376	H	0.708861	0.399280	0.309561
	H377	H	0.688531	0.392421	0.327149
	O378	O	0.398526	0.631397	0.687752
	H379	H	0.402208	0.623548	0.686721
	H380	H	0.400772	0.621337	0.665960
	O381	O	0.371993	0.559032	0.608020
	H382	H	0.369147	0.575285	0.588404
	H383	H	0.365790	0.537331	0.585601
	O384	O	0.714028	0.297877	0.411762
	H385	H	0.707558	0.292732	0.418200
	H386	H	0.696077	0.278448	0.415013
	O387	O	0.189973	0.019266	1.195771
	H388	H	0.166208	0.009445	1.194449
	H389	H	0.200440	0.008074	1.189889
	O390	O	0.214978	0.210816	0.022389
	H391	H	0.223142	0.207368	0.035003
	H392	H	0.222292	0.221819	0.013607
	O393	O	0.814601	1.191563	0.821391
	H394	H	0.856075	1.196893	0.820440
	H395	H	0.815273	1.152979	0.810582
	O396	O	1.117891	0.175479	0.103191
	H397	H	1.123505	0.149612	0.097256
	H398	H	1.121839	0.177295	0.074737
	O399	O	0.842932	0.206842	0.999947
	H400	H	0.835907	0.191970	0.969620
	H401	H	0.829506	0.231478	1.002019
	O402	O	0.826907	1.004203	1.113815
	H403	H	0.828074	1.016701	1.115034
	H404	H	0.832389	1.024577	1.106769
	O405	O	1.088988	0.995383	-0.002160
	H406	H	1.077583	0.977242	-0.009571
	H407	H	1.100023	1.006338	0.014952
	O408	O	1.041133	0.117331	0.060193
	H409	H	1.050236	0.109888	0.070625
	H410	H	1.026775	0.114094	0.056804
	O411	O	0.882096	0.802552	0.203171
	H412	H	0.872540	0.791862	0.196377
	H413	H	0.848064	0.808518	0.208760
	O414	O	0.474576	0.710776	0.291224
	H415	H	0.481491	0.729913	0.296608
	H416	H	0.469130	0.717398	0.288771
	O417	O	0.316905	0.461728	0.467554
	H418	H	0.302138	0.432678	0.471576
	H419	H	0.333269	0.454663	0.464579
	O420	O	0.008616	0.036540	0.137121
	H421	H	0.044514	0.033811	0.135575
	H422	H	0.014227	0.053671	0.150455
	O423	O	0.714127	0.524349	0.717166
	H424	H	0.746288	0.531848	0.742800
	H425	H	0.721786	0.520225	0.691560
	O426	O	0.353211	0.471831	0.330060
	H427	H	0.356263	0.441239	0.335685
	H428	H	0.354710	0.480366	0.326507
	O429	O	0.279508	0.723788	0.480179
	H430	H	0.241119	0.763122	0.473401
	H431	H	0.294194	0.709836	0.427596
	O432	O	0.657131	0.449369	0.629321
	H433	H	0.674003	0.443513	0.612859
	H434	H	0.651106	0.450407	0.622286
	O435	O	0.595147	0.665046	0.628471
	H436	H	0.594967	0.635209	0.639617
	H437	H	0.564200	0.665299	0.639633
	O438	O	-0.184567	-0.157709	0.023018
	H439	H	-0.200956	-0.175292	0.012790
	H440	H	-0.190452	-0.152897	0.040649
	O441	O	1.204730	0.027617	-0.042317
	H442	H	1.201018	0.029034	-0.034747
	H443	H	1.209962	-0.000158	-0.046421
	O444	O	-0.214627	1.030183	0.790931
	H445	H	-0.232697	1.024364	0.763113
	H446	H	-0.196833	1.017754	0.786511
	O447	O	0.582114	0.674548	0.384134
	H448	H	0.593920	0.685532	0.399502
	H449	H	0.564708	0.671682	0.392097
	O450	O	0.650500	0.716513	0.493052
	H451	H	0.647228	0.706233	0.521516
	H452	H	0.664296	0.735003	0.514856
	O453	O	0.383793	0.295476	0.493722
	H454	H	0.373461	0.274880	0.476226
	H455	H	0.362467	0.298225	0.519168
