data_Molecule from HDF5

_cell_length_a		16.325677
_cell_length_b		16.258754
_cell_length_c		16.293378
_cell_angle_alpha	89.940399
_cell_angle_beta	90.118405
_cell_angle_gamma	89.990911
_symmetry_space_group_name_H-M	'P 1'
_symmetry_Int_Tables_number		1

loop_
	_symmetry_equiv_pos_as_xyz
	x,y,z

loop_
	_atom_site_label
	_atom_site_type_symbol
	_atom_site_fract_x
	_atom_site_fract_y
	_atom_site_fract_z
	H0	H	0.405774	0.840926	0.716162
	H1	H	0.600262	0.169633	0.716229
	H2	H	0.601777	0.841092	0.288692
	H3	H	0.403838	0.168538	0.286881
	H4	H	0.718523	0.405993	0.838575
	H5	H	0.718878	0.603283	0.165644
	H6	H	0.287931	0.604015	0.838614
	H7	H	0.288961	0.405554	0.165108
	H8	H	0.839783	0.720640	0.403347
	H9	H	0.167195	0.718947	0.600632
	H10	H	0.839222	0.292016	0.599351
	H11	H	0.166294	0.291631	0.405831
	H12	H	0.838753	0.407619	0.715822
	H13	H	0.166828	0.603482	0.716702
	H14	H	0.839773	0.605267	0.286212
	H15	H	0.165795	0.405559	0.287531
	H16	H	0.407333	0.717525	0.837172
	H17	H	0.602222	0.718375	0.165690
	H18	H	0.601944	0.289894	0.838039
	H19	H	0.406599	0.291423	0.166037
	H20	H	0.718876	0.841748	0.403714
	H21	H	0.715952	0.169915	0.600354
	H22	H	0.288637	0.841641	0.601357
	H23	H	0.288156	0.169002	0.402454
	H24	H	0.905691	0.340492	0.215858
	H25	H	0.101578	0.668865	0.217352
	H26	H	0.100197	0.340906	0.788725
	H27	H	0.905356	0.669843	0.788425
	H28	H	0.217963	0.906650	0.339026
	H29	H	0.217653	0.104141	0.666379
	H30	H	0.788033	0.104399	0.339016
	H31	H	0.789006	0.907227	0.666273
	H32	H	0.340557	0.219347	0.903547
	H33	H	0.667143	0.218771	0.100833
	H34	H	0.339920	0.789665	0.100128
	H35	H	0.668279	0.792303	0.906087
	H36	H	0.339572	0.907006	0.216413
	H37	H	0.666332	0.103021	0.217971
	H38	H	0.340186	0.103634	0.787156
	H39	H	0.666384	0.907059	0.786989
	H40	H	0.905458	0.219189	0.338230
	H41	H	0.099998	0.219172	0.666645
	H42	H	0.100440	0.791423	0.338621
	H43	H	0.905303	0.790844	0.666512
	H44	H	0.216668	0.341071	0.904321
	H45	H	0.217553	0.668989	0.100350
	H46	H	0.789745	0.340538	0.099164
	H47	H	0.788470	0.669419	0.903475
	H48	H	0.410304	0.121800	0.595565
	H49	H	0.596465	0.888626	0.597096
	H50	H	0.590456	0.120419	0.407612
	H51	H	0.410943	0.889534	0.411507
	H52	H	0.605995	0.414953	0.119174
	H53	H	0.599070	0.601080	0.883420
	H54	H	0.413797	0.588855	0.114460
	H55	H	0.408227	0.415160	0.885036
	H56	H	0.113984	0.590796	0.417783
	H57	H	0.888388	0.595315	0.595166
	H58	H	0.118611	0.414493	0.596479
	H59	H	0.886857	0.414001	0.409786
	H60	H	0.120221	0.410316	0.599704
	H61	H	0.885452	0.599987	0.598668
	H62	H	0.120200	0.594110	0.400234
	H63	H	0.886451	0.413062	0.407508
	H64	H	0.417150	0.604562	0.118811
	H65	H	0.598647	0.595908	0.886232
	H66	H	0.590145	0.417225	0.114244
	H67	H	0.413053	0.411217	0.887724
	H68	H	0.597369	0.120306	0.414727
	H69	H	0.594086	0.889304	0.594876
	H70	H	0.411055	0.121902	0.594500
	H71	H	0.408020	0.888820	0.411158
	H72	H	0.911491	0.620068	0.093240
	H73	H	0.091489	0.388619	0.100508
	H74	H	0.104037	0.623126	0.912602
	H75	H	0.907808	0.388498	0.909043
	H76	H	0.100611	0.916551	0.618993
	H77	H	0.089806	0.094599	0.389222
	H78	H	0.898016	0.105522	0.623702
	H79	H	0.909383	0.909641	0.384888
	H80	H	0.617752	0.101012	0.920770
	H81	H	0.386657	0.098307	0.096245
	H82	H	0.622899	0.894550	0.091020
	H83	H	0.385130	0.904858	0.905798
	H84	H	0.611905	0.922535	0.084490
	H85	H	0.387853	0.098745	0.093158
	H86	H	0.617024	0.085946	0.906796
	H87	H	0.389099	0.911066	0.914562
	H88	H	0.907311	0.086846	0.616192
	H89	H	0.095244	0.105894	0.384214
	H90	H	0.091573	0.913725	0.616677
	H91	H	0.907618	0.915369	0.386593
	H92	H	0.095856	0.623898	0.901341
	H93	H	0.095336	0.390958	0.089516
	H94	H	0.907878	0.621976	0.094820
	H95	H	0.910215	0.388201	0.906644
	H96	H	0.409736	0.121703	0.594670
	H97	H	0.597531	0.888717	0.592992
	H98	H	0.599839	0.123822	0.405510
	H99	H	0.409885	0.887659	0.408324
	H100	H	0.595467	0.402835	0.120096
	H101	H	0.594188	0.599156	0.885722
	H102	H	0.401983	0.599086	0.120426
	H103	H	0.407871	0.408933	0.884541
	H104	H	0.120771	0.607957	0.413206
	H105	H	0.887454	0.601120	0.592528
	H106	H	0.118579	0.409575	0.594609
	H107	H	0.886719	0.411348	0.409489
	H108	H	0.911543	0.621940	0.096915
	H109	H	0.102426	0.385931	0.097568
	H110	H	0.090718	0.618559	0.913448
	H111	H	0.911587	0.389042	0.910205
	H112	H	0.097634	0.907174	0.620748
	H113	H	0.102927	0.095141	0.386012
	H114	H	0.920042	0.106184	0.617875
	H115	H	0.912875	0.913747	0.387609
	H116	H	0.624515	0.105171	0.901392
	H117	H	0.388430	0.095938	0.094558
	H118	H	0.622504	0.916650	0.112512
	H119	H	0.387374	0.915828	0.904417
	C120	C	0.381866	0.013593	0.623717
	C121	C	0.624391	0.997194	0.623747
	C122	C	0.624591	0.013424	0.381167
	C123	C	0.381462	0.997200	0.381309
	C124	C	0.625111	0.383137	0.009750
	C125	C	0.625640	0.626777	0.993577
	C126	C	0.382339	0.626304	0.009758
	C127	C	0.381749	0.383255	0.993763
	C128	C	0.011026	0.627026	0.380577
	C129	C	0.995259	0.627163	0.624132
	C130	C	0.010936	0.383702	0.624471
	C131	C	0.994616	0.384007	0.380857
	C132	C	0.882002	0.513111	0.123358
	C133	C	0.125064	0.496859	0.124205
	C134	C	0.124412	0.513214	0.881072
	C135	C	0.881656	0.497029	0.880397
	C136	C	0.125057	0.883604	0.510791
	C137	C	0.124019	0.126845	0.494655
	C138	C	0.880724	0.127426	0.510861
	C139	C	0.881779	0.884292	0.494552
	C140	C	0.511899	0.126409	0.880774
	C141	C	0.495145	0.126474	0.123963
	C142	C	0.511302	0.882767	0.124191
	C143	C	0.495512	0.882959	0.880417
	C144	C	0.384916	0.890025	0.678529
	C145	C	0.621221	0.120726	0.678517
	C146	C	0.622534	0.890014	0.326150
	C147	C	0.383891	0.119967	0.325514
	C148	C	0.679867	0.385880	0.886969
	C149	C	0.680620	0.623524	0.116870
	C150	C	0.326856	0.623980	0.886993
	C151	C	0.326809	0.385318	0.116452
	C152	C	0.888386	0.682622	0.382807
	C153	C	0.118269	0.681497	0.620932
	C154	C	0.887945	0.329324	0.620814
	C155	C	0.117491	0.329043	0.384651
	C156	C	0.887761	0.387213	0.678446
	C157	C	0.118124	0.624028	0.678764
	C158	C	0.888428	0.625387	0.324757
	C159	C	0.117499	0.386034	0.326205
	C160	C	0.385639	0.680637	0.886332
	C161	C	0.622817	0.680747	0.116922
	C162	C	0.622159	0.328054	0.886875
	C163	C	0.385589	0.328793	0.116980
	C164	C	0.680557	0.890466	0.383254
	C165	C	0.678611	0.120744	0.620854
	C166	C	0.326646	0.890466	0.621702
	C167	C	0.326359	0.120098	0.383126
	C168	C	0.885125	0.389311	0.177970
	C169	C	0.122323	0.620124	0.179315
	C170	C	0.120989	0.389722	0.826768
	C171	C	0.884885	0.620756	0.826065
	C172	C	0.179875	0.886325	0.387810
	C173	C	0.179330	0.124190	0.617731
	C174	C	0.825997	0.124897	0.387553
	C175	C	0.827032	0.886903	0.617615
	C176	C	0.389128	0.181569	0.882982
	C177	C	0.618259	0.181021	0.121367
	C178	C	0.388430	0.827787	0.120901
	C179	C	0.618960	0.829163	0.884335
	C180	C	0.388373	0.885596	0.179033
	C181	C	0.617859	0.123644	0.179562
	C182	C	0.388966	0.124179	0.825138
	C183	C	0.618127	0.886065	0.825317
	C184	C	0.884462	0.181577	0.387198
	C185	C	0.120925	0.181465	0.617874
	C186	C	0.121771	0.828883	0.387505
	C187	C	0.884837	0.829038	0.617728
	C188	C	0.178928	0.389963	0.883759
	C189	C	0.179853	0.620168	0.121312
	C190	C	0.827424	0.389445	0.120213
	C191	C	0.826632	0.620571	0.882882
	C192	C	0.404041	0.099705	0.601483
	C193	C	0.602553	0.911138	0.601700
	C194	C	0.602384	0.099268	0.402917
	C195	C	0.403345	0.910803	0.403659
	C196	C	0.603507	0.405135	0.095660
	C197	C	0.603820	0.605125	0.907453
	C198	C	0.404441	0.604054	0.095603
	C199	C	0.403354	0.405122	0.907685
	C200	C	0.096322	0.604124	0.403456
	C201	C	0.909197	0.605271	0.602025
	C202	C	0.097051	0.405182	0.603205
	C203	C	0.908979	0.406291	0.402513
	C204	C	0.903902	0.599279	0.101610
	C205	C	0.103009	0.410790	0.102358
	C206	C	0.103245	0.599650	0.902811
	C207	C	0.903280	0.410819	0.902347
	C208	C	0.103091	0.905761	0.596596
	C209	C	0.102323	0.105167	0.408736
	C210	C	0.902139	0.105808	0.596887
	C211	C	0.903565	0.906295	0.408552
	C212	C	0.597657	0.103884	0.903015
	C213	C	0.409566	0.104232	0.101325
	C214	C	0.596873	0.904716	0.102610
	C215	C	0.409490	0.904363	0.901862
	Zn216	Zn	0.503089	0.005394	0.752068
	Zn217	Zn	0.503193	0.004853	0.252917
	Zn218	Zn	0.753599	0.505401	0.001611
	Zn219	Zn	0.253386	0.504798	0.002094
	Zn220	Zn	0.003197	0.755682	0.502421
	Zn221	Zn	0.002632	0.255680	0.502400
	Zn222	Zn	0.003268	0.505427	0.752369
	Zn223	Zn	0.002712	0.505017	0.252037
	Zn224	Zn	0.504144	0.754526	0.002104
	Zn225	Zn	0.503519	0.254839	0.001988
	Zn226	Zn	0.752940	0.005821	0.502358
	Zn227	Zn	0.253323	0.005864	0.502480
	N228	N	0.418649	0.967647	0.679907
	N229	N	0.588251	0.042854	0.680583
	N230	N	0.588302	0.967369	0.324878
	N231	N	0.417478	0.042388	0.324333
	N232	N	0.682008	0.419398	0.964310
	N233	N	0.682477	0.590651	0.039016
	N234	N	0.324776	0.590929	0.964702
	N235	N	0.324418	0.418649	0.038869
	N236	N	0.965511	0.683817	0.416915
	N237	N	0.040735	0.683165	0.587304
	N238	N	0.965468	0.327119	0.587925
	N239	N	0.040157	0.328007	0.418080
	N240	N	0.965434	0.420190	0.680776
	N241	N	0.040626	0.591226	0.680810
	N242	N	0.965654	0.591433	0.323225
	N243	N	0.040180	0.419381	0.323790
	N244	N	0.419509	0.682156	0.963821
	N245	N	0.589674	0.682973	0.039360
	N246	N	0.588659	0.326516	0.964147
	N247	N	0.419145	0.327562	0.039601
	N248	N	0.682148	0.968079	0.416349
	N249	N	0.680627	0.043010	0.587510
	N250	N	0.324731	0.968138	0.588289
	N251	N	0.324886	0.042576	0.416988
	N252	N	0.918314	0.467144	0.179923
	N253	N	0.088923	0.542426	0.181179
	N254	N	0.087964	0.467463	0.824859
	N255	N	0.918290	0.543032	0.824396
	N256	N	0.182140	0.919339	0.465334
	N257	N	0.181386	0.091050	0.540033
	N258	N	0.823562	0.091921	0.465345
	N259	N	0.825120	0.920645	0.540089
	N260	N	0.466324	0.182745	0.916927
	N261	N	0.541019	0.182783	0.087584
	N262	N	0.465652	0.826077	0.087467
	N263	N	0.541684	0.827135	0.917715
	N264	N	0.465675	0.919114	0.181114
	N265	N	0.540338	0.090406	0.181232
	N266	N	0.466154	0.090367	0.823891
	N267	N	0.540631	0.919134	0.823232
	N268	N	0.917753	0.183348	0.464793
	N269	N	0.087279	0.183111	0.540498
	N270	N	0.088368	0.827164	0.465090
	N271	N	0.918010	0.827366	0.540138
	N272	N	0.181128	0.467797	0.917020
	N273	N	0.181642	0.542494	0.088067
	N274	N	0.825444	0.467250	0.087054
	N275	N	0.824627	0.542754	0.916125
	O276	O	0.502520	-0.477449	0.452879
	H277	H	0.499339	-0.477247	0.446799
	H278	H	0.504088	-0.482623	0.451101
	O279	O	0.522056	0.547868	0.460807
	H280	H	0.520509	0.543891	0.452789
	H281	H	0.525108	0.549493	0.459834
	O282	O	0.474817	0.526570	0.449508
	H283	H	0.480382	0.536035	0.455029
	H284	H	0.476077	0.527334	0.444256
	O285	O	0.518383	0.567536	0.438722
	H286	H	0.505075	0.564021	0.442904
	H287	H	0.524520	0.574217	0.440812
