data_Molecule from HDF5

_cell_length_a		16.394029
_cell_length_b		16.448202
_cell_length_c		16.353741
_cell_angle_alpha	90.031238
_cell_angle_beta	89.891715
_cell_angle_gamma	90.104556
_symmetry_space_group_name_H-M	'P 1'
_symmetry_Int_Tables_number		1

loop_
	_symmetry_equiv_pos_as_xyz
	x,y,z

loop_
	_atom_site_label
	_atom_site_type_symbol
	_atom_site_fract_x
	_atom_site_fract_y
	_atom_site_fract_z
	H0	H	0.390332	0.839362	0.721493
	H1	H	0.603090	0.155526	0.720017
	H2	H	0.607692	0.840685	0.271732
	H3	H	0.397482	0.156335	0.281056
	H4	H	0.718547	0.391194	0.841401
	H5	H	0.717887	0.602716	0.158537
	H6	H	0.275052	0.603165	0.840031
	H7	H	0.275547	0.390996	0.157270
	H8	H	0.838789	0.719349	0.393627
	H9	H	0.155306	0.719254	0.608147
	H10	H	0.840752	0.271781	0.609173
	H11	H	0.154435	0.275275	0.392754
	H12	H	0.837690	0.391512	0.719556
	H13	H	0.154796	0.602798	0.722502
	H14	H	0.837917	0.602881	0.277993
	H15	H	0.154215	0.390717	0.277497
	H16	H	0.389615	0.720152	0.840530
	H17	H	0.606823	0.721738	0.156067
	H18	H	0.603853	0.275544	0.840380
	H19	H	0.391109	0.274504	0.156981
	H20	H	0.723936	0.840092	0.387071
	H21	H	0.720616	0.154757	0.604540
	H22	H	0.275139	0.839060	0.605377
	H23	H	0.278804	0.154989	0.395091
	H24	H	0.888778	0.338515	0.223595
	H25	H	0.105527	0.653226	0.224202
	H26	H	0.101895	0.338198	0.777858
	H27	H	0.888114	0.653531	0.776606
	H28	H	0.218747	0.891437	0.340210
	H29	H	0.219277	0.103392	0.658184
	H30	H	0.777749	0.103039	0.339665
	H31	H	0.772633	0.888831	0.655950
	H32	H	0.338477	0.217741	0.893130
	H33	H	0.655665	0.218935	0.104173
	H34	H	0.340494	0.773075	0.107803
	H35	H	0.655052	0.772979	0.889043
	H36	H	0.339354	0.892479	0.219711
	H37	H	0.656364	0.105528	0.220834
	H38	H	0.338918	0.103735	0.776760
	H39	H	0.656123	0.892281	0.775793
	H40	H	0.890563	0.220572	0.341879
	H41	H	0.104543	0.218584	0.658396
	H42	H	0.106439	0.772567	0.342343
	H43	H	0.889792	0.776306	0.658573
	H44	H	0.217925	0.338258	0.893629
	H45	H	0.222255	0.653028	0.109509
	H46	H	0.773306	0.338172	0.106834
	H47	H	0.773058	0.653330	0.893506
	H48	H	0.408502	0.107948	0.582759
	H49	H	0.586137	0.885564	0.583334
	H50	H	0.585236	0.110936	0.403983
	H51	H	0.408776	0.883952	0.414330
	H52	H	0.585603	0.407128	0.113553
	H53	H	0.586105	0.586215	0.884750
	H54	H	0.409516	0.578236	0.109089
	H55	H	0.407326	0.407355	0.883979
	H56	H	0.108031	0.580279	0.410552
	H57	H	0.885433	0.586587	0.582005
	H58	H	0.112956	0.410171	0.594355
	H59	H	0.883468	0.409116	0.412461
	H60	H	0.112668	0.401956	0.587451
	H61	H	0.883411	0.580873	0.591797
	H62	H	0.111588	0.588287	0.410416
	H63	H	0.883476	0.406803	0.412994
	H64	H	0.415279	0.588092	0.111164
	H65	H	0.586157	0.581087	0.886509
	H66	H	0.583467	0.408159	0.112271
	H67	H	0.408181	0.406288	0.884183
	H68	H	0.583614	0.106524	0.414630
	H69	H	0.585222	0.884136	0.587060
	H70	H	0.404509	0.111763	0.589007
	H71	H	0.405242	0.881720	0.407317
	H72	H	0.902863	0.609351	0.085938
	H73	H	0.082389	0.384759	0.089564
	H74	H	0.079926	0.606035	0.915528
	H75	H	0.904010	0.383128	0.914789
	H76	H	0.085403	0.905624	0.614006
	H77	H	0.088066	0.089031	0.384243
	H78	H	0.913854	0.087158	0.611691
	H79	H	0.911096	0.907119	0.385309
	H80	H	0.609982	0.083991	0.911109
	H81	H	0.385410	0.087087	0.084006
	H82	H	0.613185	0.909080	0.091145
	H83	H	0.385355	0.907119	0.914647
	H84	H	0.610623	0.904298	0.080522
	H85	H	0.385616	0.080869	0.088892
	H86	H	0.611584	0.085912	0.906435
	H87	H	0.386188	0.912146	0.910774
	H88	H	0.905030	0.086937	0.615237
	H89	H	0.088363	0.083361	0.386406
	H90	H	0.088319	0.908956	0.614161
	H91	H	0.910101	0.908941	0.385647
	H92	H	0.092310	0.609935	0.914249
	H93	H	0.085728	0.384444	0.085598
	H94	H	0.910753	0.609864	0.093215
	H95	H	0.905611	0.380973	0.905952
	H96	H	0.412645	0.109941	0.589766
	H97	H	0.582115	0.885832	0.584686
	H98	H	0.594355	0.110987	0.411518
	H99	H	0.412818	0.883173	0.407955
	H100	H	0.582849	0.405729	0.113655
	H101	H	0.582096	0.584292	0.887315
	H102	H	0.404343	0.586999	0.114420
	H103	H	0.407203	0.406090	0.883702
	H104	H	0.107900	0.584935	0.417723
	H105	H	0.880564	0.591896	0.590587
	H106	H	0.108528	0.411673	0.584794
	H107	H	0.882974	0.408572	0.414834
	H108	H	0.912807	0.605506	0.083448
	H109	H	0.087038	0.382034	0.089817
	H110	H	0.083823	0.611263	0.904425
	H111	H	0.912154	0.385355	0.910839
	H112	H	0.083908	0.909732	0.612902
	H113	H	0.083205	0.086792	0.386467
	H114	H	0.908609	0.079517	0.611068
	H115	H	0.912250	0.908486	0.386446
	H116	H	0.611417	0.089092	0.910846
	H117	H	0.382314	0.087235	0.091815
	H118	H	0.607667	0.916108	0.082986
	H119	H	0.383398	0.906838	0.908229
	C120	C	0.375264	0.005996	0.620867
	C121	C	0.618084	0.989152	0.618675
	C122	C	0.620806	0.005628	0.375763
	C123	C	0.377552	0.987862	0.378005
	C124	C	0.617536	0.374665	0.008386
	C125	C	0.618492	0.617862	0.990588
	C126	C	0.376145	0.617864	0.007127
	C127	C	0.375380	0.374225	0.989498
	C128	C	0.005113	0.617821	0.378939
	C129	C	0.987742	0.619049	0.622025
	C130	C	0.006590	0.375105	0.621621
	C131	C	0.987804	0.375880	0.379771
	C132	C	0.875076	0.504086	0.121057
	C133	C	0.118715	0.487692	0.121822
	C134	C	0.117936	0.504524	0.878527
	C135	C	0.874521	0.487559	0.878083
	C136	C	0.119545	0.874849	0.508706
	C137	C	0.118868	0.118674	0.491066
	C138	C	0.876793	0.117974	0.507910
	C139	C	0.876280	0.875234	0.490565
	C140	C	0.505891	0.118773	0.877194
	C141	C	0.489441	0.118061	0.120060
	C142	C	0.506614	0.876177	0.119443
	C143	C	0.489134	0.875646	0.877263
	C144	C	0.372181	0.886974	0.681501
	C145	C	0.620998	0.107981	0.679715
	C146	C	0.625045	0.887653	0.312709
	C147	C	0.377564	0.108255	0.319922
	C148	C	0.678400	0.372712	0.888984
	C149	C	0.679032	0.621302	0.110238
	C150	C	0.314916	0.621005	0.887758
	C151	C	0.315332	0.372193	0.109489
	C152	C	0.886131	0.678969	0.375643
	C153	C	0.107198	0.679379	0.625516
	C154	C	0.887620	0.313052	0.625842
	C155	C	0.107071	0.315474	0.375649
	C156	C	0.886083	0.372877	0.680708
	C157	C	0.107052	0.621281	0.682684
	C158	C	0.885714	0.620919	0.318044
	C159	C	0.106859	0.373001	0.318221
	C160	C	0.372408	0.678984	0.888002
	C161	C	0.623277	0.680439	0.109048
	C162	C	0.621140	0.315035	0.888461
	C163	C	0.372707	0.314156	0.109121
	C164	C	0.682771	0.887265	0.370457
	C165	C	0.679807	0.107569	0.622362
	C166	C	0.314601	0.886750	0.623861
	C167	C	0.318447	0.107540	0.376516
	C168	C	0.871239	0.385676	0.182697
	C169	C	0.122790	0.605859	0.183809
	C170	C	0.120292	0.385688	0.817792
	C171	C	0.870978	0.606051	0.817247
	C172	C	0.179476	0.872420	0.388675
	C173	C	0.179385	0.121299	0.610266
	C174	C	0.816749	0.121081	0.388074
	C175	C	0.813599	0.871784	0.608971
	C176	C	0.386391	0.178343	0.874809
	C177	C	0.608344	0.179099	0.122432
	C178	C	0.387812	0.814302	0.124402
	C179	C	0.607796	0.814060	0.872432
	C180	C	0.387404	0.873623	0.180614
	C181	C	0.608763	0.121925	0.180214
	C182	C	0.386417	0.121286	0.817050
	C183	C	0.608253	0.873198	0.815786
	C184	C	0.873149	0.179777	0.389117
	C185	C	0.121985	0.178924	0.610300
	C186	C	0.123520	0.813019	0.389947
	C187	C	0.872135	0.815509	0.610115
	C188	C	0.178151	0.385736	0.875553
	C189	C	0.181168	0.605585	0.126347
	C190	C	0.813526	0.385574	0.124754
	C191	C	0.813140	0.606015	0.875240
	C192	C	0.401135	0.088383	0.594905
	C193	C	0.592041	0.906821	0.592559
	C194	C	0.595157	0.087670	0.402319
	C195	C	0.401750	0.904769	0.402638
	C196	C	0.591459	0.399789	0.091568
	C197	C	0.592196	0.591366	0.907906
	C198	C	0.402469	0.591991	0.089998
	C199	C	0.400307	0.399313	0.905928
	C200	C	0.087602	0.591987	0.405216
	C201	C	0.904719	0.593740	0.595877
	C202	C	0.089508	0.400607	0.596340
	C203	C	0.905207	0.400946	0.405874
	C204	C	0.901311	0.586662	0.095077
	C205	C	0.092406	0.405259	0.095664
	C206	C	0.092638	0.587307	0.904126
	C207	C	0.899918	0.404666	0.903489
	C208	C	0.093503	0.900877	0.592025
	C209	C	0.093684	0.093476	0.407394
	C210	C	0.902017	0.092038	0.590973
	C211	C	0.903339	0.900786	0.407430
	C212	C	0.589256	0.093696	0.902179
	C213	C	0.406109	0.092441	0.095323
	C214	C	0.589119	0.902213	0.092489
	C215	C	0.406683	0.901343	0.903523
	Zn216	Zn	0.497110	-0.002363	0.748792
	Zn217	Zn	0.498385	-0.002618	0.248611
	Zn218	Zn	0.745779	0.495930	0.000261
	Zn219	Zn	0.247628	0.496515	-0.000804
	Zn220	Zn	-0.002987	0.747148	0.500319
	Zn221	Zn	-0.002357	0.247033	0.500298
	Zn222	Zn	-0.003780	0.496328	0.749217
	Zn223	Zn	-0.003813	0.496386	0.250215
	Zn224	Zn	0.497745	0.746533	-0.001202
	Zn225	Zn	0.496985	0.246338	-0.001264
	Zn226	Zn	0.748594	-0.003443	0.498099
	Zn227	Zn	0.247296	-0.002981	0.499017
	N228	N	0.408969	0.962169	0.680069
	N229	N	0.583447	0.033320	0.677619
	N230	N	0.587551	0.962107	0.315690
	N231	N	0.413524	0.032981	0.320641
	N232	N	0.676243	0.409115	0.964495
	N233	N	0.676332	0.583221	0.035492
	N234	N	0.316976	0.583680	0.963073
	N235	N	0.317021	0.408987	0.034027
	N236	N	0.961326	0.677499	0.412561
	N237	N	0.031866	0.678182	0.588616
	N238	N	0.963570	0.314028	0.589827
	N239	N	0.032126	0.317039	0.413154
	N240	N	0.960867	0.410641	0.678300
	N241	N	0.031641	0.584776	0.680808
	N242	N	0.960802	0.583903	0.319709
	N243	N	0.031872	0.409874	0.320485
	N244	N	0.409495	0.677303	0.963254
	N245	N	0.586560	0.678704	0.033581
	N246	N	0.583855	0.316325	0.963756
	N247	N	0.409222	0.315421	0.033430
	N248	N	0.680538	0.961574	0.408932
	N249	N	0.678080	0.032749	0.585083
	N250	N	0.316423	0.961609	0.586781
	N251	N	0.318270	0.031677	0.412029
	N252	N	0.908962	0.460397	0.180362
	N253	N	0.084666	0.531385	0.181234
	N254	N	0.083535	0.460742	0.819281
	N255	N	0.908195	0.531299	0.818778
	N256	N	0.177276	0.910047	0.463714
	N257	N	0.177636	0.084372	0.534906
	N258	N	0.818878	0.083215	0.462947
	N259	N	0.816047	0.908182	0.533302
	N260	N	0.461832	0.177022	0.911313
	N261	N	0.533204	0.176601	0.085512
	N262	N	0.463025	0.815813	0.087130
	N263	N	0.532739	0.815388	0.909861
	N264	N	0.462340	0.911142	0.177905
	N265	N	0.533801	0.084544	0.178872
	N266	N	0.461743	0.084898	0.818322
	N267	N	0.533377	0.910611	0.818405
	N268	N	0.909725	0.177928	0.464698
	N269	N	0.085168	0.177459	0.534903
	N270	N	0.087140	0.814324	0.465793
	N271	N	0.910319	0.817653	0.535299
	N272	N	0.176824	0.460665	0.912480
	N273	N	0.178813	0.530987	0.088454
	N274	N	0.815818	0.460341	0.087265
	N275	N	0.815254	0.531136	0.912362
	O276	O	0.634202	0.341100	0.324298
	H277	H	0.628426	0.344504	0.330881
	H278	H	0.643186	0.362512	0.326575
	O279	O	0.648535	0.370446	0.499798
	H280	H	0.651491	0.378023	0.503993
	H281	H	0.667604	0.371899	0.481330
	O282	O	0.316987	0.490496	0.331855
	H283	H	0.307640	0.471955	0.330743
	H284	H	0.329127	0.486159	0.319199
	O285	O	0.799278	1.068140	0.026993
	H286	H	0.802226	1.075671	0.019326
	H287	H	0.785936	1.064724	0.017219
	O288	O	0.388901	0.560603	0.541594
	H289	H	0.386083	0.553412	0.552563
	H290	H	0.388437	0.570616	0.529791
	O291	O	0.474541	0.338974	0.389018
	H292	H	0.482888	0.347042	0.401056
	H293	H	0.489410	0.322064	0.383115
	O294	O	1.035126	0.787169	1.043317
	H295	H	1.044982	0.781827	1.065415
	H296	H	1.053198	0.788228	1.056573
	O297	O	0.364826	0.298838	0.618228
	H298	H	0.343168	0.295538	0.611061
	H299	H	0.354576	0.289180	0.649807
	O300	O	0.539709	0.455597	0.364481
	H301	H	0.525997	0.446234	0.363623
	H302	H	0.549452	0.460922	0.353995
	O303	O	0.443372	0.638182	0.713262
	H304	H	0.474123	0.640717	0.691072
	H305	H	0.436554	0.662161	0.745274
	O306	O	-0.110802	-0.021481	0.877570
	H307	H	-0.112122	-0.011075	0.887701
	H308	H	-0.112897	-0.018058	0.866477
	O309	O	1.191001	0.106133	0.140820
	H310	H	1.202835	0.100005	0.142304
	H311	H	1.175484	0.083991	0.139733
	O312	O	0.430609	0.402386	0.529266
	H313	H	0.443030	0.406624	0.528255
	H314	H	0.425273	0.402213	0.511884
	O315	O	0.684771	0.562335	0.437808
	H316	H	0.690616	0.581268	0.445819
	H317	H	0.685628	0.563968	0.428861
	O318	O	0.126876	0.194082	0.169818
	H319	H	0.132607	0.177048	0.179793
	H320	H	0.124289	0.197419	0.147788
	O321	O	0.647609	0.464543	0.303808
	H322	H	0.634672	0.485837	0.311663
	H323	H	0.660701	0.481150	0.283151
	O324	O	1.132663	0.194051	0.955935
	H325	H	1.146361	0.201686	0.949993
	H326	H	1.134237	0.191164	0.954819
	O327	O	0.655664	0.483025	0.690406
	H328	H	0.662108	0.477464	0.690547
	H329	H	0.640698	0.475675	0.704253
	O330	O	0.201043	0.983671	0.788878
	H331	H	0.209485	0.985997	0.769475
	H332	H	0.202243	0.977762	0.794238
	O333	O	0.062056	0.925488	0.145553
	H334	H	0.057803	0.897362	0.141998
	H335	H	0.047815	0.931259	0.152902
	O336	O	1.188218	1.002385	0.141589
	H337	H	1.195846	0.993315	0.159655
	H338	H	1.179099	0.990102	0.132633
	O339	O	-0.022381	0.775421	1.217375
	H340	H	-0.055797	0.770373	1.223826
	H341	H	-0.048116	0.758966	1.236797
	O342	O	0.478382	0.716537	0.282457
	H343	H	0.444737	0.723705	0.275389
	H344	H	0.454152	0.728502	0.265293
	O345	O	-0.151833	0.178758	0.824295
	H346	H	-0.120815	0.184559	0.823092
	H347	H	-0.162375	0.186827	0.836613
	O348	O	0.313958	0.358421	0.678089
	H349	H	0.333522	0.354292	0.675297
	H350	H	0.303245	0.391185	0.692274
	O351	O	0.789184	1.007225	0.116096
	H352	H	0.792254	1.011348	0.100939
	H353	H	0.782305	1.014878	0.134312
	O354	O	0.999657	1.109408	0.892453
	H355	H	0.995475	1.114197	0.885945
	H356	H	0.999640	1.101097	0.900569
	O357	O	0.101077	0.089594	-0.098163
	H358	H	0.103111	0.068940	-0.105785
	H359	H	0.098955	0.091286	-0.090593
	O360	O	0.532669	0.343180	0.637634
	H361	H	0.528034	0.343967	0.649881
	H362	H	0.536053	0.348811	0.648908
	O363	O	0.889499	0.163085	0.050408
	H364	H	0.886705	0.160957	0.033614
	H365	H	0.904872	0.174667	0.057841
	O366	O	-0.002772	0.070553	0.920186
	H367	H	0.006731	0.067745	0.932634
	H368	H	0.004959	0.078034	0.903603
	O369	O	0.809206	0.003554	0.801815
	H370	H	0.825811	0.028185	0.799715
	H371	H	0.793696	0.005910	0.785723
	O372	O	0.531083	0.392970	0.536307
	H373	H	0.538490	0.393974	0.542792
	H374	H	0.535524	0.394826	0.543685
	O375	O	0.034529	-0.069990	0.817330
	H376	H	0.024411	-0.065255	0.843736
	H377	H	0.040486	-0.105106	0.798786
	O378	O	0.340747	0.700127	0.494486
	H379	H	0.330902	0.692216	0.510129
	H380	H	0.338260	0.712252	0.507599
	O381	O	-0.007009	1.149112	0.209216
	H382	H	-0.000328	1.157597	0.219837
	H383	H	0.024600	1.148689	0.214643
	O384	O	0.686901	0.626502	0.684774
	H385	H	0.685470	0.611868	0.682209
	H386	H	0.703816	0.627843	0.670565
	O387	O	0.513483	0.598534	0.697740
	H388	H	0.526481	0.619949	0.686502
	H389	H	0.498504	0.605686	0.696418
	O390	O	0.821217	0.814259	0.179300
	H391	H	0.808678	0.805018	0.127033
	H392	H	0.809381	0.865945	0.188151
	O393	O	0.959376	0.095159	0.929231
	H394	H	0.950679	0.111870	0.928302
	H395	H	0.956374	0.085429	0.936439
	O396	O	0.603031	0.556577	0.436600
	H397	H	0.595597	0.557526	0.438693
	H398	H	0.600906	0.569278	0.433531
	O399	O	0.661455	0.654483	0.452388
	H400	H	0.649387	0.659633	0.423529
	H401	H	0.674810	0.669164	0.455764
	O402	O	0.790309	0.789263	0.017764
	H403	H	0.787575	0.780797	0.002308
	H404	H	0.775544	0.799847	0.004067
	O405	O	0.311419	0.683503	0.365231
	H406	H	0.305028	0.639436	0.366908
	H407	H	0.289796	0.700770	0.400936
	O408	O	0.610234	0.580457	0.504199
	H409	H	0.594029	0.563721	0.498103
	H410	H	0.596705	0.575454	0.514922
	O411	O	0.981328	0.885088	1.013687
	H412	H	0.992088	0.894070	1.021255
	H413	H	0.992151	0.875284	1.021532
	O414	O	0.334286	0.342382	0.363561
	H415	H	0.330646	0.324060	0.362533
	H416	H	0.352855	0.330407	0.378176
	O417	O	0.168840	0.835869	0.834479
	H418	H	0.135508	0.831369	0.817815
	H419	H	0.155629	0.862888	0.835491
	O420	O	-0.025374	0.783788	0.861050
	H421	H	-0.022408	0.783754	0.897776
	H422	H	-0.048448	0.780104	0.853316
	O423	O	-0.072755	1.002407	0.205891
	H424	H	-0.082535	1.007700	0.221290
	H425	H	-0.078207	1.012091	0.206105
	O426	O	0.400896	0.628925	0.601504
	H427	H	0.407669	0.637737	0.598774
	H428	H	0.406995	0.630470	0.589793
	O429	O	0.293640	0.517647	0.514804
	H430	H	0.303112	0.523173	0.508680
	H431	H	0.310846	0.501812	0.507372
	O432	O	0.587757	0.349776	0.626116
	H433	H	0.595839	0.335392	0.602112
	H434	H	0.560621	0.346539	0.635726
	O435	O	0.070686	0.058627	0.003992
	H436	H	0.087283	0.051715	-0.000367
	H437	H	0.075826	0.048073	0.024486
	O438	O	0.212113	0.783553	0.985247
	H439	H	0.228690	0.763995	0.967781
	H440	H	0.210402	0.784587	0.954330
	O441	O	0.390395	0.537363	0.296644
	H442	H	0.386467	0.510591	0.285800
	H443	H	0.390947	0.528467	0.319587
