data_Molecule from HDF5

_cell_length_a		16.450665
_cell_length_b		16.698630
_cell_length_c		16.479164
_cell_angle_alpha	89.976242
_cell_angle_beta	89.939634
_cell_angle_gamma	89.989990
_symmetry_space_group_name_H-M	'P 1'
_symmetry_Int_Tables_number		1

loop_
	_symmetry_equiv_pos_as_xyz
	x,y,z

loop_
	_atom_site_label
	_atom_site_type_symbol
	_atom_site_fract_x
	_atom_site_fract_y
	_atom_site_fract_z
	H0	H	0.396786	0.851821	0.726876
	H1	H	0.608818	0.161948	0.723540
	H2	H	0.609609	0.850778	0.279954
	H3	H	0.396611	0.161842	0.278968
	H4	H	0.723603	0.403428	0.844201
	H5	H	0.725104	0.610629	0.159643
	H6	H	0.281322	0.612423	0.845820
	H7	H	0.280735	0.399602	0.159053
	H8	H	0.847278	0.726994	0.398184
	H9	H	0.162254	0.727420	0.609912
	H10	H	0.846757	0.285084	0.607432
	H11	H	0.160121	0.283670	0.395465
	H12	H	0.845743	0.403378	0.721742
	H13	H	0.162468	0.609393	0.723416
	H14	H	0.845799	0.609378	0.283796
	H15	H	0.160953	0.400627	0.280878
	H16	H	0.395644	0.729607	0.846835
	H17	H	0.611530	0.729458	0.158064
	H18	H	0.611346	0.283692	0.846140
	H19	H	0.394344	0.282032	0.157647
	H20	H	0.724127	0.848972	0.399451
	H21	H	0.726003	0.161603	0.606536
	H22	H	0.280946	0.851081	0.609128
	H23	H	0.277763	0.159680	0.393502
	H24	H	0.896739	0.350611	0.225593
	H25	H	0.109282	0.661150	0.225458
	H26	H	0.107191	0.348756	0.783139
	H27	H	0.903414	0.662997	0.783943
	H28	H	0.224023	0.902777	0.344271
	H29	H	0.226268	0.111360	0.658896
	H30	H	0.786455	0.107196	0.343468
	H31	H	0.786088	0.904188	0.661459
	H32	H	0.345849	0.227880	0.896209
	H33	H	0.662494	0.226590	0.105456
	H34	H	0.347862	0.783135	0.111644
	H35	H	0.658996	0.782921	0.895392
	H36	H	0.345914	0.902668	0.223307
	H37	H	0.663934	0.108166	0.219500
	H38	H	0.344652	0.108840	0.783392
	H39	H	0.661519	0.902986	0.783569
	H40	H	0.897319	0.228414	0.346099
	H41	H	0.113418	0.230261	0.658347
	H42	H	0.113335	0.781976	0.346685
	H43	H	0.900597	0.785588	0.660469
	H44	H	0.225642	0.350252	0.897971
	H45	H	0.227518	0.660094	0.110012
	H46	H	0.782797	0.349397	0.106622
	H47	H	0.786291	0.663635	0.901318
	H48	H	0.413842	0.116668	0.588365
	H49	H	0.598169	0.892986	0.593653
	H50	H	0.597376	0.118951	0.408199
	H51	H	0.418402	0.896509	0.410727
	H52	H	0.589823	0.416822	0.114260
	H53	H	0.584542	0.594062	0.893590
	H54	H	0.416360	0.593921	0.114109
	H55	H	0.416459	0.417867	0.890311
	H56	H	0.116871	0.595489	0.415952
	H57	H	0.890936	0.596672	0.592102
	H58	H	0.119466	0.412308	0.593192
	H59	H	0.891190	0.415862	0.415236
	H60	H	0.116049	0.416247	0.585707
	H61	H	0.892800	0.597019	0.589673
	H62	H	0.117294	0.593188	0.414838
	H63	H	0.891639	0.416595	0.416709
	H64	H	0.416861	0.594484	0.114323
	H65	H	0.592990	0.602751	0.887742
	H66	H	0.591744	0.416496	0.115454
	H67	H	0.416227	0.415970	0.889503
	H68	H	0.591023	0.116403	0.411343
	H69	H	0.593933	0.893175	0.597003
	H70	H	0.413719	0.118158	0.594043
	H71	H	0.418306	0.898522	0.416468
	H72	H	0.905221	0.619395	0.093303
	H73	H	0.094996	0.393254	0.094815
	H74	H	0.091019	0.614070	0.917260
	H75	H	0.912580	0.393777	0.913446
	H76	H	0.094161	0.920313	0.614249
	H77	H	0.085635	0.096841	0.390853
	H78	H	0.915795	0.097254	0.615757
	H79	H	0.919988	0.915083	0.390532
	H80	H	0.618009	0.096774	0.909176
	H81	H	0.392216	0.094982	0.089634
	H82	H	0.616132	0.920312	0.089792
	H83	H	0.389946	0.917191	0.914556
	H84	H	0.618024	0.915479	0.092159
	H85	H	0.390430	0.095983	0.092656
	H86	H	0.617335	0.101251	0.916082
	H87	H	0.391338	0.916525	0.918290
	H88	H	0.914618	0.096250	0.616334
	H89	H	0.092681	0.095023	0.389578
	H90	H	0.086628	0.917438	0.612207
	H91	H	0.913543	0.909687	0.386424
	H92	H	0.096537	0.619132	0.913610
	H93	H	0.085562	0.397248	0.093081
	H94	H	0.919567	0.617660	0.100001
	H95	H	0.909746	0.392530	0.911075
	H96	H	0.418203	0.115364	0.591910
	H97	H	0.593459	0.895300	0.592403
	H98	H	0.597124	0.117120	0.415817
	H99	H	0.413736	0.895494	0.414106
	H100	H	0.591366	0.418051	0.115016
	H101	H	0.596937	0.590289	0.889978
	H102	H	0.416318	0.594864	0.114051
	H103	H	0.414388	0.416825	0.889957
	H104	H	0.117502	0.595925	0.413257
	H105	H	0.892431	0.594093	0.590866
	H106	H	0.116385	0.420494	0.593898
	H107	H	0.891315	0.417835	0.415020
	H108	H	0.917239	0.613705	0.085247
	H109	H	0.092604	0.396974	0.085597
	H110	H	0.089697	0.617037	0.909315
	H111	H	0.913423	0.393543	0.909454
	H112	H	0.091963	0.912573	0.616349
	H113	H	0.088330	0.090105	0.393255
	H114	H	0.915564	0.095797	0.614987
	H115	H	0.911140	0.918257	0.388786
	H116	H	0.614525	0.093483	0.915146
	H117	H	0.390836	0.098286	0.090201
	H118	H	0.615432	0.915312	0.087044
	H119	H	0.391403	0.920081	0.916469
	C120	C	0.382069	0.014570	0.624498
	C121	C	0.626549	0.997171	0.625410
	C122	C	0.626441	0.014208	0.380349
	C123	C	0.382637	0.998365	0.380278
	C124	C	0.623728	0.385631	0.010751
	C125	C	0.624560	0.627793	0.994118
	C126	C	0.382695	0.627261	0.011052
	C127	C	0.382550	0.384726	0.993632
	C128	C	0.012929	0.626861	0.382472
	C129	C	0.996557	0.627148	0.623380
	C130	C	0.012889	0.384671	0.623375
	C131	C	0.994965	0.384611	0.381722
	C132	C	0.881387	0.514135	0.124695
	C133	C	0.124615	0.497948	0.124133
	C134	C	0.125147	0.514141	0.881246
	C135	C	0.882100	0.497420	0.880967
	C136	C	0.125206	0.884428	0.510830
	C137	C	0.123791	0.126805	0.494205
	C138	C	0.883171	0.127408	0.511079
	C139	C	0.883912	0.884249	0.494053
	C140	C	0.512066	0.128201	0.881358
	C141	C	0.496004	0.127671	0.122783
	C142	C	0.512791	0.884864	0.123456
	C143	C	0.494629	0.885428	0.882740
	C144	C	0.378510	0.898349	0.686318
	C145	C	0.627802	0.114926	0.684027
	C146	C	0.627730	0.897169	0.320666
	C147	C	0.378863	0.114787	0.319209
	C148	C	0.683923	0.384188	0.891829
	C149	C	0.685284	0.629776	0.112054
	C150	C	0.321616	0.630371	0.893085
	C151	C	0.321312	0.381856	0.111837
	C152	C	0.894263	0.686730	0.380051
	C153	C	0.114974	0.686831	0.627020
	C154	C	0.893986	0.325253	0.625962
	C155	C	0.113250	0.324305	0.377973
	C156	C	0.893436	0.384047	0.682536
	C157	C	0.115044	0.628248	0.683706
	C158	C	0.893508	0.628263	0.323282
	C159	C	0.113501	0.382527	0.321013
	C160	C	0.378559	0.688696	0.893563
	C161	C	0.628847	0.688854	0.111576
	C162	C	0.628074	0.324680	0.892813
	C163	C	0.377977	0.323301	0.111135
	C164	C	0.684783	0.896290	0.379886
	C165	C	0.685832	0.114778	0.625633
	C166	C	0.321010	0.897891	0.627472
	C167	C	0.319788	0.113928	0.376305
	C168	C	0.878884	0.397159	0.185036
	C169	C	0.127562	0.614397	0.185080
	C170	C	0.126592	0.396228	0.822198
	C171	C	0.883003	0.615933	0.823183
	C172	C	0.184865	0.883338	0.392017
	C173	C	0.185974	0.129683	0.611862
	C174	C	0.825148	0.127100	0.391307
	C175	C	0.825698	0.884753	0.613855
	C176	C	0.393152	0.187606	0.878611
	C177	C	0.615060	0.186758	0.124071
	C178	C	0.394495	0.824073	0.128217
	C179	C	0.612358	0.824053	0.878400
	C180	C	0.393797	0.883540	0.183845
	C181	C	0.615927	0.127849	0.180545
	C182	C	0.392334	0.128227	0.822648
	C183	C	0.613504	0.883459	0.822543
	C184	C	0.880137	0.187433	0.392613
	C185	C	0.129703	0.188810	0.611500
	C186	C	0.129515	0.823508	0.392984
	C187	C	0.882295	0.825697	0.613228
	C188	C	0.185186	0.396607	0.879639
	C189	C	0.186295	0.613999	0.127477
	C190	C	0.821995	0.396621	0.125869
	C191	C	0.825014	0.616157	0.881551
	C192	C	0.407796	0.095669	0.598816
	C193	C	0.602103	0.915147	0.601431
	C194	C	0.602231	0.096217	0.405005
	C195	C	0.409185	0.917756	0.406471
	C196	C	0.598282	0.410173	0.093396
	C197	C	0.598849	0.602718	0.911832
	C198	C	0.408953	0.601562	0.092835
	C199	C	0.408379	0.409849	0.911422
	C200	C	0.095543	0.601948	0.407535
	C201	C	0.913445	0.602907	0.597888
	C202	C	0.095717	0.409132	0.598112
	C203	C	0.912774	0.409720	0.408286
	C204	C	0.906624	0.595696	0.099872
	C205	C	0.098578	0.416795	0.098481
	C206	C	0.099825	0.595557	0.906342
	C207	C	0.905401	0.414870	0.904386
	C208	C	0.098739	0.909584	0.592956
	C209	C	0.096756	0.101282	0.412649
	C210	C	0.908247	0.103365	0.594061
	C211	C	0.908065	0.907446	0.410465
	C212	C	0.594925	0.104142	0.906271
	C213	C	0.413042	0.103482	0.098002
	C214	C	0.595066	0.909734	0.097182
	C215	C	0.412309	0.910681	0.908923
	Zn216	Zn	0.503646	0.006313	0.754027
	Zn217	Zn	0.504470	0.006381	0.250852
	Zn218	Zn	0.752566	0.505840	0.002543
	Zn219	Zn	0.254572	0.506098	0.002543
	Zn220	Zn	0.004909	0.755702	0.502819
	Zn221	Zn	0.003943	0.256167	0.502658
	Zn222	Zn	0.004454	0.505782	0.751711
	Zn223	Zn	0.003425	0.505657	0.253928
	Zn224	Zn	0.503313	0.756243	0.003063
	Zn225	Zn	0.503498	0.256563	0.002365
	Zn226	Zn	0.755317	0.005701	0.502644
	Zn227	Zn	0.253023	0.006191	0.502271
	N228	N	0.415712	0.971939	0.684670
	N229	N	0.591837	0.040751	0.684199
	N230	N	0.592276	0.971454	0.320836
	N231	N	0.417470	0.041975	0.321530
	N232	N	0.681401	0.421311	0.966271
	N233	N	0.682904	0.592615	0.037960
	N234	N	0.324092	0.592808	0.967079
	N235	N	0.324147	0.419675	0.037761
	N236	N	0.969618	0.686369	0.415579
	N237	N	0.040116	0.686137	0.590183
	N238	N	0.969420	0.325389	0.590256
	N239	N	0.038481	0.325395	0.414933
	N240	N	0.968438	0.420218	0.681213
	N241	N	0.040316	0.591643	0.681447
	N242	N	0.968353	0.591683	0.324473
	N243	N	0.038765	0.419287	0.323121
	N244	N	0.415796	0.687057	0.968052
	N245	N	0.591859	0.687769	0.037020
	N246	N	0.591323	0.325459	0.967702
	N247	N	0.415081	0.324781	0.036627
	N248	N	0.684202	0.970229	0.416302
	N249	N	0.685303	0.040370	0.589940
	N250	N	0.323131	0.971164	0.589728
	N251	N	0.322000	0.040558	0.413679
	N252	N	0.915177	0.471221	0.184465
	N253	N	0.090020	0.541177	0.183089
	N254	N	0.090255	0.470217	0.822997
	N255	N	0.917568	0.541015	0.822269
	N256	N	0.182225	0.920465	0.466311
	N257	N	0.182624	0.091890	0.537983
	N258	N	0.826578	0.090734	0.466133
	N259	N	0.826487	0.920298	0.538669
	N260	N	0.468689	0.188032	0.914106
	N261	N	0.539192	0.187060	0.089224
	N262	N	0.469379	0.824735	0.091340
	N263	N	0.537366	0.824922	0.914863
	N264	N	0.468133	0.920776	0.180908
	N265	N	0.540732	0.092127	0.180011
	N266	N	0.467507	0.092312	0.823893
	N267	N	0.539292	0.921020	0.825210
	N268	N	0.915506	0.187842	0.468138
	N269	N	0.091867	0.187304	0.537294
	N270	N	0.093412	0.823691	0.468140
	N271	N	0.917654	0.825192	0.537625
	N272	N	0.184743	0.470973	0.915421
	N273	N	0.184776	0.540412	0.090331
	N274	N	0.823297	0.470454	0.089275
	N275	N	0.824103	0.541372	0.916277
	O276	O	0.997239	0.883607	0.053870
	H277	H	0.998424	0.892720	0.060196
	H278	H	0.998292	0.886576	0.062764
	O279	O	-0.112506	0.212126	0.799388
	H280	H	-0.125953	0.227904	0.786492
	H281	H	-0.086010	0.216475	0.795715
	O282	O	0.698433	0.371266	0.647760
	H283	H	0.701402	0.368432	0.649353
	H284	H	0.696868	0.390696	0.633145
	O285	O	0.294954	0.293912	0.520142
	H286	H	0.282407	0.288754	0.525982
	H287	H	0.295085	0.303160	0.519638
	O288	O	0.966653	-0.185042	1.188910
	H289	H	0.968897	-0.184282	1.190511
	H290	H	0.957698	-0.188933	1.206322
	O291	O	0.590629	0.732775	0.491913
	H292	H	0.582550	0.728899	0.483526
	H293	H	0.592382	0.735984	0.494583
	O294	O	0.020752	-0.110661	0.001087
	H295	H	0.022307	-0.090971	-0.004864
	H296	H	0.034346	-0.123366	0.001391
	O297	O	1.016951	0.149024	-0.007570
	H298	H	1.024745	0.143801	-0.006455
	H299	H	1.015689	0.153937	-0.016235
	O300	O	0.180084	0.202943	0.200246
	H301	H	0.185571	0.200967	0.215093
	H302	H	0.169287	0.183389	0.192346
	O303	O	-0.059400	-0.062792	-0.194802
	H304	H	-0.049181	-0.064506	-0.190529
	H305	H	-0.044836	-0.057401	-0.187525
	O306	O	0.858111	0.114068	0.112830
	H307	H	0.860158	0.110723	0.122189
	H308	H	0.861070	0.102381	0.122957
	O309	O	0.420199	0.519823	0.602998
	H310	H	0.409970	0.510501	0.606511
	H311	H	0.415836	0.513660	0.606914
	O312	O	0.453452	0.439107	0.358005
	H313	H	0.469959	0.421015	0.362494
	H314	H	0.459519	0.439756	0.368721
	O315	O	0.525243	0.614590	0.395699
	H316	H	0.503907	0.603254	0.404516
	H317	H	0.542070	0.593675	0.401896
	O318	O	0.836945	0.892116	-0.157924
	H319	H	0.850317	0.909710	-0.142614
	H320	H	0.831604	0.899129	-0.150209
	O321	O	0.211132	0.835632	0.798484
	H322	H	0.203977	0.828489	0.788868
	H323	H	0.221350	0.828211	0.803081
	O324	O	0.824188	-0.007918	1.086889
	H325	H	0.808691	-0.008999	1.109174
	H326	H	0.835215	-0.023508	1.089337
	O327	O	0.723947	0.552439	0.725907
	H328	H	0.738241	0.578669	0.732051
	H329	H	0.740330	0.576300	0.738940
	O330	O	0.250283	0.792280	0.217755
	H331	H	0.249142	0.777891	0.219615
	H332	H	0.251867	0.785792	0.210553
	O333	O	0.282873	0.493499	0.688806
	H334	H	0.259812	0.489431	0.713293
	H335	H	0.287256	0.468747	0.689950
	O336	O	0.549825	0.531245	0.482375
	H337	H	0.542136	0.536282	0.486961
	H338	H	0.546107	0.519176	0.474071
	O339	O	0.294023	0.715341	0.384337
	H340	H	0.315410	0.712095	0.366989
	H341	H	0.275020	0.734660	0.387532
	O342	O	0.215371	0.912662	0.012038
	H343	H	0.205908	0.918246	-0.001517
	H344	H	0.228072	0.896664	0.027426
	O345	O	0.532341	0.469795	0.731715
	H346	H	0.551824	0.482767	0.744610
	H347	H	0.541527	0.488446	0.727132
	O348	O	0.326523	0.626376	0.532062
	H349	H	0.315000	0.626807	0.546987
	H350	H	0.318871	0.633020	0.534955
	O351	O	0.092474	0.043229	1.137961
	H352	H	0.102466	0.046919	1.127045
	H353	H	0.094270	0.057019	1.136427
	O354	O	0.997842	-0.059701	1.057987
	H355	H	0.990241	-0.063858	1.073147
	H356	H	0.991411	-0.052909	1.070445
	O357	O	0.478726	0.718959	0.292371
	H358	H	0.480397	0.721818	0.279128
	H359	H	0.488395	0.708073	0.288751
	O360	O	0.642373	0.529636	0.401410
	H361	H	0.633160	0.536321	0.412351
	H362	H	0.648995	0.533157	0.394169
	O363	O	0.702917	0.324154	0.334117
	H364	H	0.702634	0.317164	0.334452
	H365	H	0.714596	0.328006	0.365130
	O366	O	0.802422	0.119252	0.816697
	H367	H	0.795655	0.134023	0.838703
	H368	H	0.817514	0.128009	0.803249
	O369	O	0.108408	0.147556	0.860603
	H370	H	0.111943	0.140012	0.881693
	H371	H	0.097526	0.141730	0.861657
	O372	O	0.030922	0.840439	0.800144
	H373	H	0.031540	0.838970	0.789932
	H374	H	0.032009	0.842924	0.810792
	O375	O	0.935077	0.128881	0.192091
	H376	H	0.932238	0.121823	0.193443
	H377	H	0.925404	0.133236	0.202151
	O378	O	0.711503	0.378904	0.359871
	H379	H	0.715230	0.389160	0.356728
	H380	H	0.704143	0.368017	0.370882
	O381	O	0.123454	0.863299	0.123153
	H382	H	0.114962	0.871707	0.123281
	H383	H	0.129472	0.857764	0.116517
	O384	O	0.492673	0.371284	0.671899
	H385	H	0.502357	0.390305	0.684643
	H386	H	0.494318	0.357887	0.689685
	O387	O	0.187236	1.070586	0.953591
	H388	H	0.203213	1.071480	0.946171
	H389	H	0.179467	1.064300	0.950381
	O390	O	0.174573	1.215859	1.010501
	H391	H	0.193871	1.227880	1.010503
	H392	H	0.178308	1.203279	1.023283
	O393	O	0.995742	0.198265	0.096015
	H394	H	0.989730	0.209143	0.088903
	H395	H	1.002341	0.191812	0.087332
	O396	O	0.370134	0.428646	0.503315
	H397	H	0.378037	0.446173	0.506795
	H398	H	0.371857	0.418794	0.529829
	O399	O	0.533854	0.718924	0.715486
	H400	H	0.529240	0.715670	0.711297
	H401	H	0.532819	0.727342	0.731978
	O402	O	0.808021	0.003235	0.853606
	H403	H	0.789627	0.013407	0.838731
	H404	H	0.810763	0.025549	0.851586
	O405	O	0.412109	0.503870	0.291461
	H406	H	0.406838	0.513631	0.285886
	H407	H	0.417094	0.492090	0.291767
	O408	O	0.728182	0.730616	0.720616
	H409	H	0.751693	0.756471	0.728868
	H410	H	0.702662	0.746462	0.728794
	O411	O	0.796894	0.799659	0.210546
	H412	H	0.811300	0.791811	0.178114
	H413	H	0.763962	0.766309	0.240516
	O414	O	0.109066	-0.113396	0.115001
	H415	H	0.113015	-0.115844	0.111306
	H416	H	0.102213	-0.121625	0.104986
	O417	O	0.611334	0.448057	0.479417
	H418	H	0.613134	0.434419	0.461127
	H419	H	0.594659	0.443670	0.491196
	O420	O	1.152985	-0.019284	0.889026
	H421	H	1.159624	-0.024688	0.891624
	H422	H	1.142918	-0.018520	0.889842
	O423	O	0.799023	0.802758	0.035904
	H424	H	0.792443	0.806755	0.027492
	H425	H	0.796969	0.801617	0.033920
	O426	O	0.714871	0.676977	0.541323
	H427	H	0.717953	0.678735	0.536227
	H428	H	0.715716	0.691398	0.540487
	O429	O	0.469269	0.711451	0.535877
	H430	H	0.465015	0.706336	0.537883
	H431	H	0.474118	0.712847	0.533511
	O432	O	0.798201	0.212590	0.979476
	H433	H	0.782657	0.219178	0.990610
	H434	H	0.809631	0.210303	0.986724
	O435	O	0.532569	0.321512	0.490019
	H436	H	0.524804	0.317389	0.491975
	H437	H	0.511061	0.310502	0.485493
	O438	O	0.309830	0.394655	0.309020
	H439	H	0.317652	0.403034	0.321112
	H440	H	0.304978	0.395979	0.305775
	O441	O	0.691342	0.694735	0.313743
	H442	H	0.668616	0.685292	0.335725
	H443	H	0.676420	0.669670	0.328722
	O444	O	0.533645	0.281992	0.276831
	H445	H	0.536225	0.267260	0.251062
	H446	H	0.560995	0.277979	0.279558
	O447	O	0.429595	0.464359	0.485746
	H448	H	0.432192	0.466700	0.496528
	H449	H	0.424908	0.465992	0.481624
	O450	O	1.160266	0.040013	0.054348
	H451	H	1.159155	0.035611	0.063253
	H452	H	1.163922	0.033977	0.066193
	O453	O	0.520253	0.334520	0.438487
	H454	H	0.539495	0.328973	0.453619
	H455	H	0.499007	0.336183	0.445742
	O456	O	-0.040030	1.042162	0.828636
	H457	H	-0.047370	1.049057	0.827440
	H458	H	-0.032952	1.052853	0.827448
	O459	O	0.616924	0.421549	0.639154
	H460	H	0.631030	0.436971	0.638219
	H461	H	0.617118	0.436404	0.620629
	O462	O	0.511898	0.328724	0.481589
	H463	H	0.515035	0.321784	0.487226
	H464	H	0.504380	0.325435	0.470389
	O465	O	0.315331	0.672163	0.659011
	H466	H	0.325119	0.653134	0.640663
	H467	H	0.322863	0.667602	0.665209
	O468	O	-0.109048	0.980851	0.150905
	H469	H	-0.111541	0.967945	0.150751
	H470	H	-0.103964	0.968003	0.154649
	O471	O	0.495441	0.541249	0.523740
	H472	H	0.474977	0.539506	0.528297
	H473	H	0.504856	0.541671	0.526624
	O474	O	1.118865	0.995670	-0.088533
	H475	H	1.115496	0.978280	-0.098148
	H476	H	1.125008	0.988196	-0.081761
	O477	O	0.301524	0.301462	0.705002
	H478	H	0.306293	0.283171	0.704187
	H479	H	0.330030	0.299595	0.693909
