data_Molecule from HDF5

_cell_length_a		16.218975
_cell_length_b		16.312634
_cell_length_c		16.171845
_cell_angle_alpha	90.150768
_cell_angle_beta	89.536709
_cell_angle_gamma	89.667025
_symmetry_space_group_name_H-M	'P 1'
_symmetry_Int_Tables_number		1

loop_
	_symmetry_equiv_pos_as_xyz
	x,y,z

loop_
	_atom_site_label
	_atom_site_type_symbol
	_atom_site_fract_x
	_atom_site_fract_y
	_atom_site_fract_z
	H0	H	0.388474	0.836250	0.713493
	H1	H	0.584933	0.162511	0.714618
	H2	H	0.590774	0.836306	0.281582
	H3	H	0.387514	0.162851	0.282737
	H4	H	0.704437	0.398891	0.832843
	H5	H	0.699147	0.595990	0.162792
	H6	H	0.276367	0.597723	0.832628
	H7	H	0.269769	0.399965	0.160726
	H8	H	0.825366	0.718506	0.397287
	H9	H	0.152663	0.714813	0.595412
	H10	H	0.824597	0.285856	0.601248
	H11	H	0.151165	0.283155	0.394884
	H12	H	0.823128	0.406382	0.710838
	H13	H	0.153063	0.599304	0.710065
	H14	H	0.823110	0.599995	0.285096
	H15	H	0.151503	0.400408	0.281555
	H16	H	0.387216	0.715794	0.835234
	H17	H	0.588257	0.714287	0.162212
	H18	H	0.589254	0.284189	0.832568
	H19	H	0.386249	0.284203	0.161485
	H20	H	0.706953	0.838279	0.396605
	H21	H	0.699317	0.163780	0.597892
	H22	H	0.271938	0.837108	0.598622
	H23	H	0.273328	0.164365	0.401583
	H24	H	0.886855	0.336880	0.214416
	H25	H	0.084759	0.663266	0.211703
	H26	H	0.088896	0.337646	0.779418
	H27	H	0.889987	0.664809	0.785895
	H28	H	0.206064	0.898709	0.334504
	H29	H	0.199208	0.099241	0.663679
	H30	H	0.773516	0.101077	0.333825
	H31	H	0.773799	0.905222	0.663080
	H32	H	0.325105	0.214706	0.898073
	H33	H	0.652069	0.214498	0.096550
	H34	H	0.324626	0.784484	0.100141
	H35	H	0.650891	0.780925	0.895967
	H36	H	0.324034	0.902126	0.213955
	H37	H	0.653282	0.096826	0.209442
	H38	H	0.322692	0.095738	0.788935
	H39	H	0.650860	0.898737	0.780967
	H40	H	0.888619	0.215802	0.334074
	H41	H	0.086404	0.216527	0.661922
	H42	H	0.091309	0.784261	0.333947
	H43	H	0.886739	0.786007	0.661635
	H44	H	0.205229	0.336902	0.893149
	H45	H	0.202016	0.662322	0.096530
	H46	H	0.772390	0.335364	0.096870
	H47	H	0.770804	0.662759	0.899678
	H48	H	0.397703	0.116414	0.600461
	H49	H	0.582466	0.880806	0.598277
	H50	H	0.576114	0.113987	0.407626
	H51	H	0.395800	0.882261	0.401239
	H52	H	0.574427	0.397929	0.115702
	H53	H	0.581961	0.592716	0.879001
	H54	H	0.398716	0.594136	0.115036
	H55	H	0.391722	0.401140	0.876469
	H56	H	0.104973	0.590198	0.401984
	H57	H	0.870042	0.597358	0.590016
	H58	H	0.103984	0.411660	0.588387
	H59	H	0.874825	0.407673	0.420306
	H60	H	0.106412	0.404257	0.590110
	H61	H	0.872410	0.594076	0.589787
	H62	H	0.106094	0.594304	0.401658
	H63	H	0.872262	0.419536	0.400865
	H64	H	0.388653	0.593278	0.117488
	H65	H	0.580309	0.587353	0.881394
	H66	H	0.588086	0.406982	0.116328
	H67	H	0.395714	0.415048	0.882539
	H68	H	0.583517	0.116502	0.406314
	H69	H	0.572179	0.887096	0.586683
	H70	H	0.394218	0.114308	0.585792
	H71	H	0.401568	0.886188	0.408392
	H72	H	0.894777	0.614279	0.087325
	H73	H	0.074450	0.383600	0.093991
	H74	H	0.075383	0.616694	0.897549
	H75	H	0.897607	0.385109	0.908322
	H76	H	0.078454	0.910929	0.614385
	H77	H	0.075161	0.097025	0.381180
	H78	H	0.896778	0.092635	0.613583
	H79	H	0.902925	0.920238	0.385348
	H80	H	0.603690	0.094287	0.914952
	H81	H	0.371104	0.092423	0.093247
	H82	H	0.607897	0.899330	0.091320
	H83	H	0.370839	0.909940	0.907274
	H84	H	0.602740	0.905056	0.081392
	H85	H	0.371041	0.093886	0.089895
	H86	H	0.603787	0.081061	0.902135
	H87	H	0.369621	0.904094	0.904306
	H88	H	0.893848	0.100045	0.617048
	H89	H	0.087041	0.093967	0.378758
	H90	H	0.075824	0.904464	0.615497
	H91	H	0.905277	0.898893	0.380425
	H92	H	0.080702	0.614251	0.912412
	H93	H	0.074382	0.387235	0.080478
	H94	H	0.889136	0.616079	0.090102
	H95	H	0.890503	0.381941	0.901583
	H96	H	0.384363	0.119160	0.596037
	H97	H	0.588436	0.884039	0.583275
	H98	H	0.577833	0.117431	0.400415
	H99	H	0.391925	0.884169	0.410043
	H100	H	0.574064	0.413773	0.111527
	H101	H	0.576414	0.592362	0.881133
	H102	H	0.394096	0.585615	0.114174
	H103	H	0.405667	0.403007	0.881625
	H104	H	0.104261	0.593187	0.405825
	H105	H	0.871657	0.595087	0.593081
	H106	H	0.103404	0.405865	0.583265
	H107	H	0.866019	0.397674	0.401246
	H108	H	0.894479	0.614842	0.093644
	H109	H	0.085741	0.382495	0.086103
	H110	H	0.090156	0.619643	0.901221
	H111	H	0.899397	0.383119	0.898775
	H112	H	0.083286	0.905329	0.616608
	H113	H	0.079368	0.084981	0.383583
	H114	H	0.888724	0.092795	0.616892
	H115	H	0.886220	0.908774	0.377013
	H116	H	0.610193	0.097364	0.896910
	H117	H	0.372464	0.091011	0.089715
	H118	H	0.605081	0.911416	0.092110
	H119	H	0.370705	0.904615	0.911429
	C120	C	0.364498	0.008506	0.622022
	C121	C	0.608372	0.991674	0.619341
	C122	C	0.610141	0.008568	0.375222
	C123	C	0.366733	0.991889	0.377318
	C124	C	0.609233	0.376822	0.005881
	C125	C	0.608284	0.619298	0.989536
	C126	C	0.365847	0.620231	0.006862
	C127	C	0.366640	0.377126	0.988141
	C128	C	-0.003375	0.622145	0.375428
	C129	C	0.979859	0.623292	0.619009
	C130	C	-0.003417	0.379594	0.618168
	C131	C	0.978956	0.378339	0.376258
	C132	C	0.864143	0.507525	0.119890
	C133	C	0.107990	0.491640	0.117227
	C134	C	0.110976	0.508808	0.873852
	C135	C	0.866207	0.491464	0.875621
	C136	C	0.109755	0.877986	0.506895
	C137	C	0.108749	0.121054	0.489989
	C138	C	0.865000	0.123841	0.507015
	C139	C	0.867394	0.880386	0.489233
	C140	C	0.497065	0.120097	0.876766
	C141	C	0.480019	0.120929	0.119401
	C142	C	0.496850	0.877039	0.119106
	C143	C	0.478445	0.876145	0.876682
	C144	C	0.368145	0.885219	0.675952
	C145	C	0.605247	0.114147	0.675976
	C146	C	0.610249	0.885647	0.319366
	C147	C	0.367852	0.114517	0.321501
	C148	C	0.666224	0.378476	0.882001
	C149	C	0.662595	0.616971	0.113345
	C150	C	0.312449	0.618379	0.882568
	C151	C	0.308921	0.379650	0.111864
	C152	C	0.873910	0.679676	0.377355
	C153	C	0.103501	0.677665	0.616057
	C154	C	0.873201	0.324640	0.619002
	C155	C	0.102165	0.321533	0.375643
	C156	C	0.872495	0.384255	0.674078
	C157	C	0.103714	0.619866	0.672951
	C158	C	0.872694	0.620564	0.321770
	C159	C	0.102238	0.379844	0.319043
	C160	C	0.367857	0.677142	0.883930
	C161	C	0.606947	0.675417	0.113192
	C162	C	0.609214	0.321066	0.882176
	C163	C	0.366762	0.322027	0.112136
	C164	C	0.667984	0.886396	0.376598
	C165	C	0.662101	0.114798	0.617895
	C166	C	0.309802	0.885834	0.619129
	C167	C	0.310827	0.114990	0.380522
	C168	C	0.866200	0.385251	0.176344
	C169	C	0.105680	0.614096	0.173960
	C170	C	0.108800	0.386144	0.817455
	C171	C	0.869100	0.615495	0.822577
	C172	C	0.167343	0.879271	0.383620
	C173	C	0.162246	0.119083	0.613998
	C174	C	0.810432	0.121423	0.383289
	C175	C	0.811437	0.883841	0.613397
	C176	C	0.373713	0.176197	0.878777
	C177	C	0.603297	0.176360	0.117001
	C178	C	0.373355	0.822189	0.119799
	C179	C	0.601866	0.819561	0.876592
	C180	C	0.373122	0.880936	0.175914
	C181	C	0.603795	0.117993	0.173193
	C182	C	0.372493	0.116997	0.824423
	C183	C	0.601903	0.878142	0.819524
	C184	C	0.867547	0.178966	0.383419
	C185	C	0.106146	0.177498	0.613310
	C186	C	0.110442	0.822085	0.383256
	C187	C	0.867611	0.824572	0.612682
	C188	C	0.166891	0.385863	0.873946
	C189	C	0.163574	0.613760	0.116229
	C190	C	0.809603	0.384575	0.117588
	C191	C	0.809983	0.614403	0.879193
	C192	C	0.385933	0.094490	0.600359
	C193	C	0.587275	0.906115	0.596233
	C194	C	0.586214	0.093929	0.398157
	C195	C	0.389796	0.906285	0.399889
	C196	C	0.585641	0.399530	0.092040
	C197	C	0.586113	0.597130	0.902894
	C198	C	0.387307	0.597555	0.093221
	C199	C	0.390698	0.399655	0.902465
	C200	C	0.082846	0.599417	0.396807
	C201	C	0.893507	0.601828	0.597416
	C202	C	0.082392	0.400976	0.594345
	C203	C	0.893134	0.401655	0.400409
	C204	C	0.886110	0.592838	0.097173
	C205	C	0.084938	0.406434	0.093740
	C206	C	0.088546	0.594703	0.896937
	C207	C	0.889126	0.405559	0.896588
	C208	C	0.085885	0.900229	0.593097
	C209	C	0.087048	0.098498	0.403371
	C210	C	0.886788	0.101832	0.593534
	C211	C	0.891286	0.902811	0.403103
	C212	C	0.583432	0.097619	0.898373
	C213	C	0.393876	0.098915	0.097422
	C214	C	0.582772	0.898739	0.095282
	C215	C	0.392706	0.899194	0.900559
	Zn216	Zn	0.487170	-0.000553	0.749266
	Zn217	Zn	0.488896	-0.000770	0.247071
	Zn218	Zn	0.736400	0.498642	-0.002648
	Zn219	Zn	0.237989	0.498948	-0.003909
	Zn220	Zn	-0.011264	0.750818	0.497154
	Zn221	Zn	-0.012208	0.250602	0.497896
	Zn222	Zn	-0.011584	0.501074	0.746742
	Zn223	Zn	-0.013410	0.499708	0.247639
	Zn224	Zn	0.487672	0.747451	-0.001191
	Zn225	Zn	0.488589	0.248247	-0.002802
	Zn226	Zn	0.737832	0.001385	0.498010
	Zn227	Zn	0.236536	0.000028	0.499285
	N228	N	0.401173	0.962759	0.678033
	N229	N	0.572364	0.036554	0.676893
	N230	N	0.574837	0.962647	0.318428
	N231	N	0.401937	0.036996	0.319281
	N232	N	0.666515	0.412301	0.959868
	N233	N	0.663383	0.582741	0.035399
	N234	N	0.310862	0.583777	0.960017
	N235	N	0.308641	0.413130	0.033838
	N236	N	0.952014	0.680921	0.409883
	N237	N	0.025609	0.679834	0.583051
	N238	N	0.951167	0.321614	0.584736
	N239	N	0.024385	0.320393	0.410321
	N240	N	0.950151	0.417701	0.673711
	N241	N	0.025759	0.586671	0.674913
	N242	N	0.949912	0.585407	0.320483
	N243	N	0.024493	0.414185	0.319118
	N244	N	0.400452	0.678446	0.962208
	N245	N	0.573878	0.677115	0.035042
	N246	N	0.574371	0.319847	0.960320
	N247	N	0.401929	0.320315	0.034396
	N248	N	0.668238	0.963811	0.410554
	N249	N	0.664396	0.037623	0.583428
	N250	N	0.307398	0.963401	0.586193
	N251	N	0.309951	0.037634	0.414268
	N252	N	0.899446	0.462659	0.178007
	N253	N	0.071588	0.537014	0.174731
	N254	N	0.074807	0.463733	0.817123
	N255	N	0.903466	0.537981	0.820226
	N256	N	0.167263	0.913280	0.461604
	N257	N	0.163753	0.084719	0.536245
	N258	N	0.808337	0.088155	0.461437
	N259	N	0.811007	0.917636	0.535584
	N260	N	0.452206	0.178400	0.910409
	N261	N	0.525210	0.178522	0.084503
	N262	N	0.451230	0.819588	0.085398
	N263	N	0.524094	0.818121	0.911245
	N264	N	0.450988	0.914058	0.175747
	N265	N	0.526100	0.084253	0.174867
	N266	N	0.450136	0.082734	0.823039
	N267	N	0.524255	0.912512	0.819277
	N268	N	0.900655	0.180603	0.461420
	N269	N	0.073464	0.178991	0.535018
	N270	N	0.075241	0.821201	0.460954
	N271	N	0.901603	0.822238	0.534325
	N272	N	0.168460	0.463192	0.908027
	N273	N	0.165085	0.536523	0.081725
	N274	N	0.808396	0.461522	0.083199
	N275	N	0.808209	0.536555	0.911446
	O276	O	-0.022534	-0.068473	0.063038
	H277	H	-0.024129	-0.074976	0.061318
	H278	H	-0.024136	-0.063682	0.063254
	O279	O	0.967540	0.024325	0.012713
	H280	H	0.977222	0.026726	0.019762
	H281	H	0.968811	0.024747	0.017082
	O282	O	0.408135	0.539097	0.498342
	H283	H	0.409457	0.529442	0.504026
	H284	H	0.421745	0.523254	0.506340
	O285	O	0.431391	1.479605	0.568198
	H286	H	0.440602	1.500849	0.580748
	H287	H	0.425399	1.475113	0.567767
	O288	O	0.433362	0.457885	0.476799
	H289	H	0.434296	0.467032	0.470139
	H290	H	0.427157	0.448773	0.469402
	O291	O	1.040027	0.957456	1.010065
	H292	H	1.037485	0.965184	0.999432
	H293	H	1.043588	0.952164	1.013069
	O294	O	1.015552	1.055755	1.114761
	H295	H	1.013605	1.042470	1.104451
	H296	H	1.020603	1.058256	1.118213
	O297	O	1.484215	0.462734	1.436001
	H298	H	1.479227	0.470061	1.435811
	H299	H	1.484357	0.463782	1.423214
	O300	O	0.395410	0.381001	0.625388
	H301	H	0.385568	0.378063	0.619689
	H302	H	0.400211	0.381437	0.613602
	O303	O	1.079523	-0.080709	-0.024063
	H304	H	1.070618	-0.087918	-0.019501
	H305	H	1.079576	-0.090881	-0.016425
	O306	O	-0.001034	1.012127	0.986591
	H307	H	-0.001195	1.023598	0.983184
	H308	H	0.002943	1.003150	0.983064
	O309	O	0.471044	0.515397	0.472278
	H310	H	0.464923	0.519828	0.471121
	H311	H	0.458782	0.512710	0.472960
	O312	O	0.941831	0.006689	1.047813
	H313	H	0.932207	0.014156	1.050508
	H314	H	0.936279	0.001595	1.067426
	O315	O	0.534036	0.512391	0.468690
	H316	H	0.546511	0.501192	0.466361
	H317	H	0.534726	0.509104	0.475194
	O318	O	0.600468	0.539142	0.396584
	H319	H	0.604663	0.539520	0.406682
	H320	H	0.606334	0.554157	0.396738
	O321	O	0.938787	0.967547	1.055475
	H322	H	0.950035	0.970628	1.061193
	H323	H	0.934443	0.973708	1.061733
	O324	O	0.536807	0.465783	0.495211
	H325	H	0.548571	0.463416	0.499380
	H326	H	0.542593	0.475650	0.482225
	O327	O	0.616927	0.481224	0.495131
	H328	H	0.612991	0.479200	0.496494
	H329	H	0.617078	0.487501	0.490800
	O330	O	0.945468	-0.022435	1.018225
	H331	H	0.945864	-0.018978	1.015675
	H332	H	0.943978	-0.025206	1.013559
	O333	O	0.964458	1.047970	0.007155
	H334	H	0.964501	1.058053	0.016088
	H335	H	0.974000	1.043067	0.006529
	O336	O	0.465505	0.611758	0.497573
	H337	H	0.473409	0.605959	0.500450
	H338	H	0.462214	0.602444	0.508595
	O339	O	0.587891	0.498605	0.557065
	H340	H	0.580635	0.493680	0.563592
	H341	H	0.588197	0.490008	0.545204
	O342	O	0.018445	0.982627	-0.013339
	H343	H	0.015146	0.990399	-0.008265
	H344	H	0.019248	0.984106	-0.015175
	O345	O	0.001602	0.047973	-0.029788
	H346	H	0.006382	0.047772	-0.038743
	H347	H	0.001822	0.036926	-0.039824
	O348	O	0.527474	0.530955	0.570551
	H349	H	0.523475	0.542358	0.560161
	H350	H	0.526525	0.513901	0.571141
	O351	O	0.497793	0.585866	0.581245
	H352	H	0.504832	0.586745	0.574554
	H353	H	0.496651	0.592975	0.591157
	O354	O	0.436092	0.528164	0.412380
	H355	H	0.418510	0.530790	0.418000
	H356	H	0.442185	0.514823	0.406299
	O357	O	0.538796	0.464978	0.454907
	H358	H	0.545456	0.467208	0.449647
	H359	H	0.532576	0.464536	0.450284
	O360	O	0.054083	-0.029808	0.028034
	H361	H	0.053630	-0.024665	0.027600
	H362	H	0.052739	-0.021522	0.026009
	O363	O	0.444234	0.471965	0.479553
	H364	H	0.453796	0.480988	0.490681
	H365	H	0.447357	0.488072	0.482846
	O366	O	0.035837	-0.064166	0.937580
	H367	H	0.038242	-0.069731	0.938774
	H368	H	0.048589	-0.068329	0.933627
	O369	O	0.447037	0.504780	0.517689
	H370	H	0.447188	0.515424	0.528758
	H371	H	0.445934	0.501321	0.523029
