data_Molecule from HDF5

_cell_length_a		16.279497
_cell_length_b		16.287728
_cell_length_c		16.156687
_cell_angle_alpha	89.853088
_cell_angle_beta	90.168866
_cell_angle_gamma	89.910243
_symmetry_space_group_name_H-M	'P 1'
_symmetry_Int_Tables_number		1

loop_
	_symmetry_equiv_pos_as_xyz
	x,y,z

loop_
	_atom_site_label
	_atom_site_type_symbol
	_atom_site_fract_x
	_atom_site_fract_y
	_atom_site_fract_z
	H0	H	0.389267	0.832589	0.711656
	H1	H	0.584154	0.160509	0.708549
	H2	H	0.588411	0.832839	0.280975
	H3	H	0.388955	0.160225	0.281419
	H4	H	0.701253	0.395720	0.831439
	H5	H	0.703043	0.594156	0.160016
	H6	H	0.273735	0.595813	0.831080
	H7	H	0.274617	0.397486	0.161457
	H8	H	0.823758	0.712425	0.395131
	H9	H	0.151205	0.710330	0.596263
	H10	H	0.823347	0.280465	0.597951
	H11	H	0.150056	0.279777	0.397790
	H12	H	0.823389	0.398185	0.710594
	H13	H	0.151734	0.592642	0.710493
	H14	H	0.823101	0.594762	0.280338
	H15	H	0.151515	0.396488	0.283212
	H16	H	0.389139	0.710599	0.831889
	H17	H	0.590013	0.712359	0.159667
	H18	H	0.585884	0.282458	0.831494
	H19	H	0.387979	0.280061	0.160667
	H20	H	0.704326	0.833370	0.395609
	H21	H	0.703895	0.158509	0.597340
	H22	H	0.272270	0.831528	0.596131
	H23	H	0.270007	0.158284	0.394427
	H24	H	0.889541	0.332213	0.210421
	H25	H	0.086098	0.659286	0.210850
	H26	H	0.085459	0.330826	0.784106
	H27	H	0.890903	0.659298	0.783374
	H28	H	0.200429	0.896102	0.331432
	H29	H	0.201599	0.092267	0.661059
	H30	H	0.772106	0.094789	0.332736
	H31	H	0.774071	0.896708	0.661609
	H32	H	0.324700	0.212614	0.895585
	H33	H	0.650498	0.212157	0.096624
	H34	H	0.324355	0.780816	0.096609
	H35	H	0.650468	0.780263	0.894761
	H36	H	0.324273	0.897498	0.211363
	H37	H	0.651722	0.094720	0.211193
	H38	H	0.323675	0.095537	0.781447
	H39	H	0.651515	0.898810	0.782290
	H40	H	0.885907	0.211229	0.332342
	H41	H	0.087348	0.209138	0.661743
	H42	H	0.086667	0.780257	0.332150
	H43	H	0.888457	0.780947	0.661645
	H44	H	0.203120	0.332745	0.897388
	H45	H	0.202999	0.659584	0.096478
	H46	H	0.770968	0.333122	0.097645
	H47	H	0.770513	0.657975	0.893251
	H48	H	0.395939	0.109573	0.581114
	H49	H	0.587684	0.878543	0.586677
	H50	H	0.577011	0.113539	0.399588
	H51	H	0.391585	0.882006	0.413763
	H52	H	0.568316	0.392374	0.113534
	H53	H	0.582867	0.589663	0.877666
	H54	H	0.390402	0.591912	0.115065
	H55	H	0.401439	0.410889	0.883397
	H56	H	0.102747	0.582684	0.398355
	H57	H	0.870318	0.591669	0.590046
	H58	H	0.105351	0.397550	0.592508
	H59	H	0.868187	0.391120	0.408377
	H60	H	0.101565	0.401045	0.584506
	H61	H	0.871771	0.589935	0.586028
	H62	H	0.105343	0.596870	0.402137
	H63	H	0.875699	0.411933	0.411600
	H64	H	0.394902	0.581796	0.112655
	H65	H	0.578531	0.586118	0.880502
	H66	H	0.594656	0.400476	0.118338
	H67	H	0.396996	0.394870	0.876588
	H68	H	0.577326	0.109243	0.408635
	H69	H	0.580122	0.877486	0.595983
	H70	H	0.384354	0.114529	0.589292
	H71	H	0.388166	0.875925	0.397894
	H72	H	0.891336	0.611903	0.085188
	H73	H	0.078486	0.380689	0.088225
	H74	H	0.090987	0.616357	0.900113
	H75	H	0.890113	0.376791	0.900752
	H76	H	0.081371	0.906305	0.613315
	H77	H	0.070363	0.090985	0.381041
	H78	H	0.893385	0.083295	0.614167
	H79	H	0.889774	0.899573	0.376668
	H80	H	0.605293	0.088181	0.898341
	H81	H	0.368006	0.096041	0.093122
	H82	H	0.604086	0.900230	0.085820
	H83	H	0.372327	0.905925	0.906831
	H84	H	0.601735	0.907257	0.085819
	H85	H	0.373116	0.090465	0.078532
	H86	H	0.606232	0.095334	0.900834
	H87	H	0.371028	0.906129	0.901149
	H88	H	0.899922	0.089310	0.612943
	H89	H	0.083581	0.093761	0.375417
	H90	H	0.077693	0.900032	0.613909
	H91	H	0.894179	0.911479	0.381434
	H92	H	0.071969	0.611523	0.896023
	H93	H	0.084333	0.379859	0.086475
	H94	H	0.894753	0.613132	0.090324
	H95	H	0.897293	0.378547	0.901730
	H96	H	0.397071	0.112604	0.594952
	H97	H	0.575998	0.881796	0.585523
	H98	H	0.585098	0.113182	0.404690
	H99	H	0.404045	0.881598	0.401875
	H100	H	0.575875	0.418998	0.107721
	H101	H	0.576849	0.592293	0.877487
	H102	H	0.401064	0.591165	0.113278
	H103	H	0.385801	0.407765	0.877461
	H104	H	0.100375	0.587103	0.411929
	H105	H	0.871118	0.586501	0.589590
	H106	H	0.102617	0.406929	0.591622
	H107	H	0.867874	0.405580	0.390749
	H108	H	0.897748	0.610545	0.085989
	H109	H	0.082912	0.378081	0.092471
	H110	H	0.079009	0.609021	0.913834
	H111	H	0.892179	0.379068	0.907659
	H112	H	0.084134	0.900204	0.615728
	H113	H	0.080122	0.081135	0.380942
	H114	H	0.892065	0.091632	0.616274
	H115	H	0.902609	0.900518	0.381058
	H116	H	0.603606	0.090161	0.905818
	H117	H	0.372992	0.080685	0.091635
	H118	H	0.604883	0.904461	0.092235
	H119	H	0.370028	0.900739	0.904563
	C120	C	0.364611	0.004313	0.617659
	C121	C	0.609360	0.987530	0.618227
	C122	C	0.609428	0.004539	0.374960
	C123	C	0.365230	0.987560	0.374400
	C124	C	0.608803	0.374860	0.004680
	C125	C	0.609102	0.617585	0.987327
	C126	C	0.366353	0.617565	0.005001
	C127	C	0.366006	0.375009	0.987744
	C128	C	-0.004788	0.618103	0.374086
	C129	C	0.979346	0.617317	0.617730
	C130	C	-0.004695	0.373563	0.618668
	C131	C	0.978611	0.373964	0.374910
	C132	C	0.866126	0.504095	0.116761
	C133	C	0.110532	0.487412	0.118425
	C134	C	0.109271	0.504224	0.874903
	C135	C	0.865153	0.486497	0.874548
	C136	C	0.109118	0.873462	0.505092
	C137	C	0.107681	0.116640	0.488096
	C138	C	0.865627	0.117188	0.505517
	C139	C	0.866328	0.874397	0.488433
	C140	C	0.496665	0.119129	0.873372
	C141	C	0.479468	0.117606	0.117363
	C142	C	0.496053	0.874299	0.117970
	C143	C	0.479249	0.875443	0.874972
	C144	C	0.368366	0.881174	0.673517
	C145	C	0.605403	0.111342	0.671767
	C146	C	0.607787	0.881681	0.319373
	C147	C	0.368130	0.110884	0.319002
	C148	C	0.663576	0.376659	0.880920
	C149	C	0.665561	0.615196	0.110849
	C150	C	0.311247	0.615894	0.880642
	C151	C	0.311495	0.376781	0.111880
	C152	C	0.872659	0.674352	0.375034
	C153	C	0.102421	0.672498	0.616215
	C154	C	0.872491	0.318116	0.617765
	C155	C	0.101408	0.318156	0.377256
	C156	C	0.872193	0.377069	0.673571
	C157	C	0.102669	0.613764	0.672895
	C158	C	0.872277	0.615632	0.318083
	C159	C	0.102116	0.376155	0.320102
	C160	C	0.368269	0.673327	0.880993
	C161	C	0.608599	0.673348	0.110975
	C162	C	0.606413	0.319750	0.880849
	C163	C	0.368202	0.318611	0.111403
	C164	C	0.665957	0.881950	0.376160
	C165	C	0.664950	0.110340	0.616385
	C166	C	0.309955	0.880954	0.616396
	C167	C	0.309126	0.110203	0.375322
	C168	C	0.868321	0.381297	0.173095
	C169	C	0.107032	0.610542	0.173235
	C170	C	0.106325	0.380437	0.820915
	C171	C	0.868792	0.610000	0.819646
	C172	C	0.163296	0.875823	0.380719
	C173	C	0.163508	0.113224	0.611959
	C174	C	0.809727	0.115585	0.381838
	C175	C	0.811469	0.876211	0.612281
	C176	C	0.373326	0.174622	0.875431
	C177	C	0.602208	0.173374	0.116139
	C178	C	0.373521	0.818213	0.116955
	C179	C	0.601822	0.819213	0.875736
	C180	C	0.373254	0.876316	0.173871
	C181	C	0.602482	0.115279	0.173442
	C182	C	0.372796	0.116507	0.818707
	C183	C	0.602353	0.877887	0.819286
	C184	C	0.866631	0.173286	0.381681
	C185	C	0.106719	0.171462	0.612153
	C186	C	0.106792	0.818092	0.381255
	C187	C	0.868335	0.818713	0.612256
	C188	C	0.165135	0.381255	0.877142
	C189	C	0.165165	0.610736	0.116258
	C190	C	0.809838	0.381610	0.116519
	C191	C	0.809297	0.609393	0.874718
	C192	C	0.385983	0.090197	0.595050
	C193	C	0.587579	0.901562	0.595979
	C194	C	0.586641	0.089902	0.397671
	C195	C	0.387913	0.901910	0.397785
	C196	C	0.586219	0.397412	0.091105
	C197	C	0.586296	0.595830	0.900878
	C198	C	0.388771	0.594888	0.091170
	C199	C	0.388278	0.397815	0.901514
	C200	C	0.080700	0.595461	0.397290
	C201	C	0.893197	0.595634	0.595163
	C202	C	0.081137	0.395343	0.596133
	C203	C	0.892733	0.396376	0.396952
	C204	C	0.888204	0.589573	0.093744
	C205	C	0.088534	0.401696	0.095609
	C206	C	0.087051	0.590094	0.896796
	C207	C	0.886703	0.400473	0.896999
	C208	C	0.087392	0.895569	0.591666
	C209	C	0.084854	0.094929	0.401487
	C210	C	0.888453	0.094690	0.592077
	C211	C	0.888872	0.897244	0.402225
	C212	C	0.582609	0.097471	0.895276
	C213	C	0.393659	0.095540	0.094553
	C214	C	0.581505	0.897137	0.094855
	C215	C	0.393580	0.897732	0.897610
	Zn216	Zn	0.487274	-0.003095	0.746138
	Zn217	Zn	0.487872	-0.004001	0.246353
	Zn218	Zn	0.736970	0.495512	-0.004373
	Zn219	Zn	0.238267	0.496388	-0.003906
	Zn220	Zn	-0.012613	0.746556	0.496806
	Zn221	Zn	-0.013510	0.245286	0.496936
	Zn222	Zn	-0.012649	0.495348	0.746677
	Zn223	Zn	-0.012645	0.495484	0.246078
	Zn224	Zn	0.487537	0.745733	-0.003776
	Zn225	Zn	0.487646	0.246621	-0.004217
	Zn226	Zn	0.737924	-0.004688	0.497215
	Zn227	Zn	0.235723	-0.005132	0.495530
	N228	N	0.401619	0.958745	0.674481
	N229	N	0.571685	0.033944	0.673126
	N230	N	0.573505	0.958747	0.318513
	N231	N	0.402340	0.033652	0.318466
	N232	N	0.665017	0.410447	0.959045
	N233	N	0.665802	0.581142	0.033132
	N234	N	0.309740	0.581960	0.958758
	N235	N	0.310124	0.411167	0.034035
	N236	N	0.950090	0.675993	0.409209
	N237	N	0.024717	0.674698	0.582681
	N238	N	0.950080	0.315978	0.584059
	N239	N	0.023770	0.316650	0.410428
	N240	N	0.949549	0.410718	0.674468
	N241	N	0.025001	0.580328	0.674000
	N242	N	0.949519	0.581258	0.317485
	N243	N	0.024611	0.410170	0.318398
	N244	N	0.401937	0.674343	0.959274
	N245	N	0.574310	0.675022	0.032983
	N246	N	0.572993	0.318499	0.958823
	N247	N	0.401319	0.317309	0.033230
	N248	N	0.667244	0.959370	0.410163
	N249	N	0.667478	0.032400	0.583761
	N250	N	0.307453	0.958474	0.582350
	N251	N	0.306999	0.032450	0.408959
	N252	N	0.902608	0.458280	0.173318
	N253	N	0.073770	0.532961	0.174869
	N254	N	0.072374	0.457899	0.819288
	N255	N	0.902735	0.532625	0.819255
	N256	N	0.164663	0.909509	0.458653
	N257	N	0.164323	0.080152	0.533702
	N258	N	0.808977	0.081407	0.459787
	N259	N	0.809970	0.910041	0.534156
	N260	N	0.451270	0.176395	0.908558
	N261	N	0.524724	0.175071	0.082142
	N262	N	0.450993	0.817033	0.082683
	N263	N	0.524479	0.817627	0.909724
	N264	N	0.450443	0.910423	0.174603
	N265	N	0.525131	0.081149	0.174080
	N266	N	0.450247	0.082561	0.817400
	N267	N	0.524898	0.912123	0.818619
	N268	N	0.900719	0.174303	0.459774
	N269	N	0.072585	0.173683	0.534089
	N270	N	0.073871	0.816466	0.459591
	N271	N	0.901544	0.817256	0.534060
	N272	N	0.167154	0.459067	0.910078
	N273	N	0.167405	0.533091	0.082888
	N274	N	0.808214	0.459132	0.082257
	N275	N	0.806783	0.531551	0.907933
	O276	O	0.015795	-0.000031	0.104691
	H277	H	0.017049	0.018940	0.109309
	H278	H	0.040072	-0.001985	0.107070
	O279	O	0.988806	0.133801	0.035014
	H280	H	0.986600	0.147904	0.033463
	H281	H	0.983439	0.134576	0.039153
	O282	O	0.412565	0.608639	0.435094
	H283	H	0.419828	0.603529	0.429725
	H284	H	0.409621	0.614154	0.448072
	O285	O	0.585822	1.389376	0.471695
	H286	H	0.584940	1.381455	0.477229
	H287	H	0.588090	1.393439	0.467337
	O288	O	0.501757	0.470763	0.458680
	H289	H	0.497972	0.466201	0.453123
	H290	H	0.503425	0.471848	0.459599
	O291	O	0.960029	0.945213	1.034246
	H292	H	0.967909	0.933223	1.036871
	H293	H	0.964048	0.954350	1.030489
	O294	O	0.916920	0.952964	0.976224
	H295	H	0.921599	0.941337	0.975870
	H296	H	0.918265	0.959276	0.984331
	O297	O	1.513011	0.530582	1.474633
	H298	H	1.520805	0.525205	1.473216
	H299	H	1.516176	0.516943	1.477188
	O300	O	0.489783	0.460444	0.518071
	H301	H	0.487857	0.473602	0.517032
	H302	H	0.493799	0.451231	0.518684
	O303	O	0.985951	0.104821	0.014795
	H304	H	0.971660	0.106696	0.010977
	H305	H	0.988826	0.108975	0.008915
	O306	O	-0.020531	0.960582	1.004381
	H307	H	-0.024781	0.960853	1.011159
	H308	H	-0.026545	0.962379	1.004774
	O309	O	0.945315	1.065158	0.981808
	H310	H	0.954658	1.061490	0.979868
	H311	H	0.944195	1.077761	0.980168
	O312	O	1.090853	-0.003098	1.035128
	H313	H	1.085230	-0.000450	1.040855
	H314	H	1.086873	0.000626	1.053223
	O315	O	0.531325	0.500711	0.469412
	H316	H	0.527620	0.496084	0.480559
	H317	H	0.532654	0.500438	0.464299
	O318	O	0.458229	0.474737	0.525973
	H319	H	0.457292	0.467433	0.523876
	H320	H	0.455533	0.469333	0.533924
	O321	O	0.991652	0.904340	0.983629
	H322	H	0.991324	0.901314	0.996366
	H323	H	0.990731	0.899813	0.973378
	O324	O	0.421795	0.482068	0.598037
	H325	H	0.420681	0.489208	0.594044
	H326	H	0.426048	0.481523	0.599021
	O327	O	0.483720	0.435693	0.485796
	H328	H	0.484988	0.436265	0.497221
	H329	H	0.482877	0.448569	0.485552
	O330	O	1.027651	-0.017836	1.034260
	H331	H	1.027879	-0.023156	1.029567
	H332	H	1.019234	-0.019671	1.045960
	O333	O	0.922509	1.054026	-0.014653
	H334	H	0.911891	1.045644	-0.022785
	H335	H	0.928349	1.050807	-0.023981
	O336	O	0.490335	0.497215	0.471091
	H337	H	0.492942	0.491279	0.471623
	H338	H	0.482338	0.484306	0.477071
	O339	O	0.436444	0.494228	0.462034
	H340	H	0.436270	0.485267	0.460344
	H341	H	0.435311	0.501894	0.466007
	O342	O	-0.092574	0.949491	0.022396
	H343	H	-0.095122	0.950724	0.017549
	H344	H	-0.099749	0.941653	0.029139
	O345	O	-0.081659	-0.103226	-0.006429
	H346	H	-0.084943	-0.099508	-0.009016
	H347	H	-0.088310	-0.097539	0.006524
	O348	O	0.583332	0.481877	0.559810
	H349	H	0.572605	0.474872	0.565487
	H350	H	0.586464	0.490115	0.558475
	O351	O	0.458613	0.572033	0.394102
	H352	H	0.452454	0.584545	0.393156
	H353	H	0.453083	0.569613	0.376604
	O354	O	0.402944	0.520459	0.515065
	H355	H	0.404408	0.521931	0.516115
	H356	H	0.402280	0.531407	0.502823
	O357	O	0.524259	0.489071	0.564225
	H358	H	0.515234	0.495521	0.566922
	H359	H	0.537922	0.496355	0.570488
	O360	O	0.000428	0.083966	-0.015934
	H361	H	-0.006091	0.067059	-0.014862
	H362	H	-0.003128	0.072970	-0.019467
	O363	O	0.421604	0.523394	0.453154
	H364	H	0.429510	0.522772	0.457727
	H365	H	0.413307	0.530404	0.443793
	O366	O	0.064185	-0.083759	0.935410
	H367	H	0.069542	-0.098319	0.927156
	H368	H	0.073381	-0.081541	0.932945
	O369	O	0.455895	0.578489	0.453414
	H370	H	0.447243	0.574793	0.446442
	H371	H	0.462168	0.569851	0.442958
