data_Molecule from HDF5

_cell_length_a		16.185993
_cell_length_b		16.225960
_cell_length_c		16.333148
_cell_angle_alpha	89.854783
_cell_angle_beta	90.156357
_cell_angle_gamma	90.165923
_symmetry_space_group_name_H-M	'P 1'
_symmetry_Int_Tables_number		1

loop_
	_symmetry_equiv_pos_as_xyz
	x,y,z

loop_
	_atom_site_label
	_atom_site_type_symbol
	_atom_site_fract_x
	_atom_site_fract_y
	_atom_site_fract_z
	H0	H	0.409617	0.846745	0.706912
	H1	H	0.611072	0.173523	0.703597
	H2	H	0.610486	0.845790	0.275665
	H3	H	0.410620	0.172582	0.273799
	H4	H	0.723076	0.412038	0.825147
	H5	H	0.727495	0.607551	0.152268
	H6	H	0.295903	0.608435	0.825716
	H7	H	0.295007	0.408583	0.152203
	H8	H	0.845232	0.722482	0.390152
	H9	H	0.175429	0.724483	0.586643
	H10	H	0.845162	0.296038	0.586786
	H11	H	0.174743	0.296330	0.391588
	H12	H	0.846507	0.409942	0.704390
	H13	H	0.174630	0.611113	0.704923
	H14	H	0.847335	0.610510	0.273007
	H15	H	0.174464	0.411369	0.275722
	H16	H	0.409495	0.727035	0.827976
	H17	H	0.610813	0.723974	0.153453
	H18	H	0.608799	0.295020	0.826235
	H19	H	0.411607	0.293091	0.152411
	H20	H	0.721052	0.844188	0.394679
	H21	H	0.723611	0.173495	0.586790
	H22	H	0.295505	0.845114	0.588401
	H23	H	0.297433	0.173888	0.391161
	H24	H	0.909339	0.346488	0.205777
	H25	H	0.112306	0.673255	0.204739
	H26	H	0.111094	0.346474	0.773106
	H27	H	0.911176	0.673598	0.773331
	H28	H	0.225198	0.911327	0.325912
	H29	H	0.226442	0.109251	0.652088
	H30	H	0.795182	0.107399	0.326471
	H31	H	0.797759	0.910574	0.653643
	H32	H	0.346283	0.221919	0.890765
	H33	H	0.675545	0.222814	0.086941
	H34	H	0.346083	0.793946	0.089358
	H35	H	0.674943	0.795804	0.892469
	H36	H	0.345911	0.909034	0.204282
	H37	H	0.674806	0.109400	0.205119
	H38	H	0.347989	0.112213	0.772579
	H39	H	0.674169	0.910273	0.775729
	H40	H	0.911382	0.223987	0.325750
	H41	H	0.110122	0.225187	0.651968
	H42	H	0.109012	0.795120	0.325653
	H43	H	0.912588	0.793236	0.651722
	H44	H	0.222089	0.344306	0.892133
	H45	H	0.225258	0.673406	0.086456
	H46	H	0.796737	0.344705	0.087060
	H47	H	0.796743	0.673775	0.890143
	H48	H	0.415970	0.126158	0.579388
	H49	H	0.597869	0.890395	0.594601
	H50	H	0.596569	0.125093	0.394983
	H51	H	0.410680	0.892967	0.407783
	H52	H	0.611589	0.425343	0.105056
	H53	H	0.599114	0.600600	0.876182
	H54	H	0.405410	0.597896	0.108673
	H55	H	0.422466	0.415791	0.874807
	H56	H	0.128052	0.598427	0.389994
	H57	H	0.894922	0.604420	0.572820
	H58	H	0.127514	0.414467	0.581160
	H59	H	0.894443	0.414450	0.403906
	H60	H	0.126221	0.420842	0.580092
	H61	H	0.895185	0.592202	0.583636
	H62	H	0.129953	0.610200	0.396999
	H63	H	0.894421	0.425619	0.392965
	H64	H	0.424577	0.592701	0.100471
	H65	H	0.602248	0.608737	0.872365
	H66	H	0.592535	0.417171	0.101883
	H67	H	0.413851	0.408998	0.870736
	H68	H	0.605255	0.125625	0.401760
	H69	H	0.597660	0.895162	0.576736
	H70	H	0.418468	0.126685	0.585542
	H71	H	0.412536	0.887591	0.386605
	H72	H	0.923746	0.627409	0.089868
	H73	H	0.099649	0.393745	0.082500
	H74	H	0.101774	0.627852	0.890692
	H75	H	0.924539	0.392857	0.891678
	H76	H	0.108689	0.915698	0.606745
	H77	H	0.100523	0.112547	0.371345
	H78	H	0.925901	0.101286	0.602461
	H79	H	0.915154	0.915303	0.372539
	H80	H	0.626480	0.098012	0.900213
	H81	H	0.394697	0.101265	0.075031
	H82	H	0.626949	0.916331	0.083180
	H83	H	0.396729	0.923477	0.904229
	H84	H	0.628067	0.917926	0.084536
	H85	H	0.394375	0.094540	0.086431
	H86	H	0.630179	0.101336	0.891605
	H87	H	0.392557	0.921488	0.889994
	H88	H	0.914794	0.111705	0.609088
	H89	H	0.112432	0.100373	0.370865
	H90	H	0.099934	0.923540	0.602091
	H91	H	0.915089	0.917057	0.373178
	H92	H	0.099071	0.623919	0.899010
	H93	H	0.104509	0.392075	0.082222
	H94	H	0.925488	0.621508	0.073432
	H95	H	0.918677	0.395369	0.903189
	H96	H	0.422725	0.125227	0.580770
	H97	H	0.613587	0.888221	0.584208
	H98	H	0.606712	0.129370	0.391558
	H99	H	0.429793	0.896688	0.397471
	H100	H	0.608248	0.405523	0.109346
	H101	H	0.607375	0.601323	0.872989
	H102	H	0.421076	0.612725	0.108504
	H103	H	0.411243	0.420351	0.872843
	H104	H	0.125507	0.598890	0.403887
	H105	H	0.890517	0.607247	0.588248
	H106	H	0.129351	0.419073	0.586017
	H107	H	0.889205	0.410928	0.390127
	H108	H	0.910245	0.628501	0.078877
	H109	H	0.102297	0.391782	0.086202
	H110	H	0.108809	0.627383	0.897756
	H111	H	0.911625	0.389919	0.893168
	H112	H	0.097656	0.911814	0.604921
	H113	H	0.096499	0.097232	0.376687
	H114	H	0.910672	0.095864	0.606201
	H115	H	0.916443	0.916778	0.372819
	H116	H	0.629201	0.108110	0.899671
	H117	H	0.390641	0.107455	0.086283
	H118	H	0.628911	0.916245	0.084734
	H119	H	0.391036	0.910254	0.899503
	C120	C	0.388993	0.017932	0.611477
	C121	C	0.631852	1.000370	0.612477
	C122	C	0.631239	0.018000	0.368581
	C123	C	0.388639	1.000670	0.368114
	C124	C	0.632357	0.387647	-0.002570
	C125	C	0.632372	0.631396	0.981569
	C126	C	0.388260	0.630771	-0.001908
	C127	C	0.387957	0.386509	0.980933
	C128	C	0.019026	0.631366	0.367782
	C129	C	1.002095	0.631232	0.610576
	C130	C	0.018843	0.388816	0.610795
	C131	C	1.001736	0.388598	0.367656
	C132	C	0.889688	0.517697	0.110471
	C133	C	0.132123	0.500943	0.111663
	C134	C	0.131840	0.518021	0.867395
	C135	C	0.889133	0.501056	0.866958
	C136	C	0.131280	0.888384	0.497255
	C137	C	0.132282	0.131885	0.480543
	C138	C	0.887882	0.131365	0.498082
	C139	C	0.887738	0.887258	0.480792
	C140	C	0.519902	0.131347	0.867991
	C141	C	0.501953	0.130330	0.111369
	C142	C	0.519088	0.887534	0.112414
	C143	C	0.501837	0.888852	0.869350
	C144	C	0.390136	0.895059	0.667816
	C145	C	0.630946	0.124120	0.666674
	C146	C	0.629499	0.894537	0.313902
	C147	C	0.390873	0.123844	0.312083
	C148	C	0.686125	0.391436	0.874298
	C149	C	0.688539	0.628263	0.103909
	C150	C	0.333453	0.628608	0.874918
	C151	C	0.333332	0.388728	0.103692
	C152	C	0.894913	0.685717	0.369924
	C153	C	0.125998	0.687028	0.607915
	C154	C	0.894692	0.333437	0.607672
	C155	C	0.125710	0.334136	0.370666
	C156	C	0.895079	0.390468	0.665668
	C157	C	0.125688	0.630423	0.666471
	C158	C	0.895792	0.629938	0.311543
	C159	C	0.125335	0.390959	0.312928
	C160	C	0.389908	0.687753	0.876145
	C161	C	0.630850	0.686046	0.104426
	C162	C	0.629349	0.333052	0.874803
	C163	C	0.391161	0.331284	0.103802
	C164	C	0.684641	0.893754	0.372819
	C165	C	0.686600	0.124249	0.608206
	C166	C	0.333141	0.894514	0.609157
	C167	C	0.334516	0.124605	0.370542
	C168	C	0.889927	0.395032	0.167242
	C169	C	0.131698	0.624177	0.166898
	C170	C	0.130378	0.394920	0.811837
	C171	C	0.890895	0.624381	0.811164
	C172	C	0.187109	0.890647	0.374478
	C173	C	0.188117	0.129325	0.603435
	C174	C	0.832941	0.128451	0.375219
	C175	C	0.834414	0.889818	0.604225
	C176	C	0.395799	0.185713	0.869912
	C177	C	0.626045	0.185362	0.108089
	C178	C	0.395161	0.832055	0.109664
	C179	C	0.625582	0.833608	0.872139
	C180	C	0.395185	0.889258	0.166878
	C181	C	0.625707	0.128677	0.166534
	C182	C	0.396694	0.130413	0.811409
	C183	C	0.625336	0.890536	0.814283
	C184	C	0.890943	0.186178	0.374735
	C185	C	0.130685	0.187423	0.603380
	C186	C	0.129418	0.833020	0.374307
	C187	C	0.891265	0.831413	0.603496
	C188	C	0.185464	0.393867	0.870985
	C189	C	0.187853	0.624224	0.108081
	C190	C	0.834175	0.394141	0.107935
	C191	C	0.834564	0.624950	0.869638
	C192	C	0.412174	0.103889	0.588551
	C193	C	0.609518	0.913782	0.591461
	C194	C	0.609372	0.104378	0.389760
	C195	C	0.410967	0.914546	0.390717
	C196	C	0.610542	0.409492	0.083263
	C197	C	0.609642	0.609888	0.895926
	C198	C	0.410455	0.607851	0.083736
	C199	C	0.409572	0.408435	0.895128
	C200	C	0.105463	0.609160	0.390309
	C201	C	0.915968	0.608156	0.588111
	C202	C	0.105242	0.411314	0.588816
	C203	C	0.915129	0.410464	0.389301
	C204	C	0.913019	0.603500	0.087466
	C205	C	0.108824	0.414796	0.090003
	C206	C	0.109769	0.603917	0.889263
	C207	C	0.911566	0.415135	0.889494
	C208	C	0.108729	0.910459	0.582455
	C209	C	0.109795	0.109859	0.395138
	C210	C	0.910387	0.109425	0.583756
	C211	C	0.909126	0.909725	0.394994
	C212	C	0.606305	0.109210	0.890584
	C213	C	0.415561	0.107822	0.089018
	C214	C	0.605553	0.910091	0.090594
	C215	C	0.415672	0.911638	0.891421
	Zn216	Zn	0.510917	0.010072	0.740595
	Zn217	Zn	0.510427	0.008918	0.240287
	Zn218	Zn	0.761437	0.509334	-0.011475
	Zn219	Zn	0.259492	0.508670	-0.011203
	Zn220	Zn	0.009968	0.759153	0.488146
	Zn221	Zn	0.010408	0.260711	0.489044
	Zn222	Zn	0.010832	0.509736	0.739011
	Zn223	Zn	0.010283	0.510027	0.239987
	Zn224	Zn	0.510358	0.760055	-0.009278
	Zn225	Zn	0.510163	0.258326	-0.010684
	Zn226	Zn	0.758769	0.008745	0.490204
	Zn227	Zn	0.260348	0.009536	0.489242
	N228	N	0.424085	0.972761	0.669363
	N229	N	0.597577	0.045944	0.669532
	N230	N	0.597051	0.972820	0.310957
	N231	N	0.423759	0.045864	0.310440
	N232	N	0.688015	0.424814	0.951662
	N233	N	0.689695	0.595184	0.026546
	N234	N	0.332290	0.593872	0.951899
	N235	N	0.331388	0.422519	0.026381
	N236	N	0.972778	0.686503	0.404221
	N237	N	0.048235	0.687527	0.573660
	N238	N	0.972614	0.332472	0.574021
	N239	N	0.047843	0.332615	0.404027
	N240	N	0.973198	0.423899	0.667828
	N241	N	0.047679	0.596443	0.668177
	N242	N	0.973919	0.596979	0.310123
	N243	N	0.047171	0.424179	0.311246
	N244	N	0.423490	0.688964	0.953598
	N245	N	0.596661	0.688148	0.027175
	N246	N	0.596558	0.330529	0.952387
	N247	N	0.424397	0.329866	0.026438
	N248	N	0.685748	0.971473	0.406173
	N249	N	0.687557	0.046352	0.575445
	N250	N	0.332446	0.972040	0.574804
	N251	N	0.332896	0.046897	0.404546
	N252	N	0.923885	0.472845	0.168676
	N253	N	0.097868	0.546240	0.169361
	N254	N	0.097544	0.472938	0.809573
	N255	N	0.924034	0.546422	0.809484
	N256	N	0.188299	0.924394	0.451580
	N257	N	0.189373	0.095794	0.526137
	N258	N	0.831143	0.095006	0.452635
	N259	N	0.832374	0.924025	0.527004
	N260	N	0.473453	0.186159	0.904538
	N261	N	0.548051	0.186590	0.074383
	N262	N	0.473194	0.830921	0.076351
	N263	N	0.547753	0.832518	0.905787
	N264	N	0.473183	0.923113	0.168526
	N265	N	0.547516	0.095263	0.168655
	N266	N	0.474902	0.097561	0.809765
	N267	N	0.547435	0.924161	0.812221
	N268	N	0.924471	0.188308	0.452325
	N269	N	0.096531	0.189078	0.526186
	N270	N	0.095270	0.831491	0.451400
	N271	N	0.923797	0.829884	0.525818
	N272	N	0.186728	0.471468	0.904671
	N273	N	0.188250	0.546699	0.074408
	N274	N	0.833871	0.471512	0.073237
	N275	N	0.833032	0.547234	0.903460
	O276	O	1.011823	0.968901	-0.009841
	H277	H	1.010286	0.963880	-0.001743
	H278	H	1.015089	0.975024	-0.013416
	O279	O	-0.021638	-0.024420	1.018984
	H280	H	-0.016852	-0.025923	1.017728
	H281	H	-0.031017	-0.028879	1.016411
	O282	O	0.508357	-0.472510	0.498864
	H283	H	0.503440	-0.462484	0.493365
	H284	H	0.502123	-0.481337	0.495786
	O285	O	0.474023	0.476299	0.428587
	H286	H	0.475788	0.484346	0.431704
	H287	H	0.475495	0.476676	0.420934
	O288	O	-0.008661	0.038588	0.045608
	H289	H	-0.007009	0.044330	0.038213
	H290	H	-0.006724	0.039862	0.048932
	O291	O	0.016340	1.047404	-0.041093
	H292	H	0.014710	1.055356	-0.049043
	H293	H	0.004798	1.056125	-0.030833
	O294	O	-0.442752	0.496837	-0.551305
	H295	H	-0.440173	0.497340	-0.543444
	H296	H	-0.445670	0.490120	-0.554710
	O297	O	0.531429	0.543202	0.517527
	H298	H	0.533058	0.543532	0.510993
	H299	H	0.524298	0.547950	0.516419
	O300	O	0.430217	0.542722	0.529505
	H301	H	0.432882	0.550478	0.529735
	H302	H	0.421252	0.550649	0.531688
	O303	O	1.011734	0.084353	0.964313
	H304	H	1.014088	0.083219	0.962994
	H305	H	1.015888	0.081454	0.959719
	O306	O	-0.006750	1.029540	0.944861
	H307	H	0.005347	1.036039	0.939740
	H308	H	0.001243	1.027899	0.944651
	O309	O	-0.500136	0.561494	1.478380
	H310	H	-0.501719	0.556053	1.475753
	H311	H	-0.497571	0.562910	1.475011
	O312	O	0.031331	-0.026315	1.014615
	H313	H	0.035488	-0.039430	1.014091
	H314	H	0.026314	-0.028132	1.014679
	O315	O	0.428075	0.522323	0.521649
	H316	H	0.430373	0.521813	0.525418
	H317	H	0.435433	0.526647	0.526429
	O318	O	0.041812	0.069121	1.023778
	H319	H	0.048932	0.071038	1.025544
	H320	H	0.044300	0.064389	1.024966
	O321	O	1.043756	0.913783	0.923565
	H322	H	1.050329	0.907336	0.922659
	H323	H	1.036247	0.905958	0.927073
	O324	O	-0.069063	-1.040691	1.011082
	H325	H	-0.079860	-1.035572	1.012305
	H326	H	-0.076944	-1.039606	1.017947
	O327	O	1.083364	0.978114	0.953486
	H328	H	1.075000	0.980990	0.952203
	H329	H	1.087080	0.974801	0.954228
	O330	O	0.504722	0.532473	0.425330
	H331	H	0.503916	0.522709	0.426321
	H332	H	0.498784	0.539325	0.419944
	O333	O	0.531378	0.477334	0.527724
	H334	H	0.531592	0.480654	0.528372
	H335	H	0.532814	0.469260	0.533568
	O336	O	0.493296	0.517129	0.483726
	H337	H	0.487982	0.507120	0.481611
	H338	H	0.493297	0.512477	0.483582
	O339	O	0.507939	0.507262	0.471742
	H340	H	0.499710	0.510658	0.474633
	H341	H	0.509903	0.500157	0.483770
	O342	O	0.384753	0.484706	0.476083
	H343	H	0.375917	0.487007	0.472124
	H344	H	0.387718	0.485642	0.482166
	O345	O	0.470372	0.494420	0.527347
	H346	H	0.473602	0.499300	0.526960
	H347	H	0.476045	0.492166	0.523221
