data_Molecule from HDF5

_cell_length_a		16.258714
_cell_length_b		16.266985
_cell_length_c		16.328562
_cell_angle_alpha	89.766112
_cell_angle_beta	89.809407
_cell_angle_gamma	90.085886
_symmetry_space_group_name_H-M	'P 1'
_symmetry_Int_Tables_number		1

loop_
	_symmetry_equiv_pos_as_xyz
	x,y,z

loop_
	_atom_site_label
	_atom_site_type_symbol
	_atom_site_fract_x
	_atom_site_fract_y
	_atom_site_fract_z
	H0	H	0.406274	0.844840	0.714527
	H1	H	0.606038	0.171580	0.711993
	H2	H	0.605466	0.843654	0.283636
	H3	H	0.407247	0.170775	0.282790
	H4	H	0.723304	0.408342	0.836229
	H5	H	0.721959	0.607106	0.162261
	H6	H	0.292708	0.606378	0.835510
	H7	H	0.290379	0.407052	0.161667
	H8	H	0.842498	0.721492	0.401482
	H9	H	0.170759	0.720381	0.596906
	H10	H	0.843471	0.291862	0.598273
	H11	H	0.171033	0.294201	0.400923
	H12	H	0.843393	0.405286	0.715401
	H13	H	0.170454	0.604914	0.712565
	H14	H	0.842392	0.606020	0.284411
	H15	H	0.170059	0.408810	0.283837
	H16	H	0.407904	0.723681	0.836292
	H17	H	0.605020	0.723049	0.161940
	H18	H	0.606486	0.292771	0.836044
	H19	H	0.405839	0.290208	0.161079
	H20	H	0.721512	0.843390	0.400682
	H21	H	0.721283	0.171262	0.595155
	H22	H	0.291604	0.844134	0.597736
	H23	H	0.292772	0.171530	0.400062
	H24	H	0.905601	0.343150	0.215233
	H25	H	0.107224	0.670275	0.214264
	H26	H	0.104714	0.343360	0.784994
	H27	H	0.907379	0.669829	0.782136
	H28	H	0.222140	0.909610	0.335732
	H29	H	0.221026	0.105095	0.662059
	H30	H	0.793524	0.106929	0.335837
	H31	H	0.790632	0.907909	0.662763
	H32	H	0.343148	0.222217	0.899122
	H33	H	0.670309	0.221463	0.095263
	H34	H	0.342650	0.793534	0.097294
	H35	H	0.670285	0.794233	0.899695
	H36	H	0.343154	0.906934	0.215464
	H37	H	0.669434	0.108204	0.213139
	H38	H	0.343053	0.107150	0.782816
	H39	H	0.670050	0.910157	0.783141
	H40	H	0.908903	0.223562	0.336651
	H41	H	0.104987	0.221250	0.662280
	H42	H	0.106046	0.793438	0.335573
	H43	H	0.906485	0.791264	0.663028
	H44	H	0.221893	0.343614	0.899792
	H45	H	0.220120	0.671277	0.095546
	H46	H	0.790084	0.343099	0.098338
	H47	H	0.792558	0.671086	0.899268
	H48	H	0.410376	0.123830	0.585925
	H49	H	0.594008	0.892601	0.590390
	H50	H	0.608596	0.128426	0.397445
	H51	H	0.422004	0.892315	0.402964
	H52	H	0.599533	0.406465	0.117123
	H53	H	0.603400	0.602169	0.882279
	H54	H	0.413820	0.600522	0.115319
	H55	H	0.418869	0.415938	0.884880
	H56	H	0.121503	0.601463	0.413192
	H57	H	0.889702	0.603981	0.589750
	H58	H	0.125269	0.420794	0.604036
	H59	H	0.888504	0.406007	0.411372
	H60	H	0.127336	0.400929	0.591172
	H61	H	0.893091	0.593803	0.587299
	H62	H	0.121800	0.593078	0.400947
	H63	H	0.894442	0.422342	0.413236
	H64	H	0.411777	0.601275	0.116304
	H65	H	0.599819	0.598196	0.884203
	H66	H	0.604064	0.419830	0.114825
	H67	H	0.412449	0.410843	0.880501
	H68	H	0.588945	0.121793	0.399671
	H69	H	0.599756	0.891838	0.588171
	H70	H	0.410914	0.126730	0.595949
	H71	H	0.413078	0.893148	0.415171
	H72	H	0.916109	0.621812	0.089533
	H73	H	0.098418	0.388832	0.099209
	H74	H	0.094916	0.622639	0.905364
	H75	H	0.910843	0.389197	0.906050
	H76	H	0.099312	0.912560	0.615639
	H77	H	0.096304	0.098302	0.384202
	H78	H	0.908637	0.101180	0.617496
	H79	H	0.915325	0.909670	0.382957
	H80	H	0.627018	0.102251	0.893467
	H81	H	0.393171	0.093153	0.087287
	H82	H	0.623278	0.909185	0.087346
	H83	H	0.389043	0.907903	0.908884
	H84	H	0.619784	0.921868	0.086945
	H85	H	0.388196	0.097655	0.097967
	H86	H	0.623261	0.109075	0.912325
	H87	H	0.392444	0.921164	0.909650
	H88	H	0.913945	0.094873	0.614020
	H89	H	0.098482	0.104719	0.381903
	H90	H	0.100042	0.912734	0.615308
	H91	H	0.910169	0.915267	0.382991
	H92	H	0.103428	0.623492	0.907818
	H93	H	0.092401	0.393567	0.088416
	H94	H	0.911501	0.623159	0.090889
	H95	H	0.915898	0.390716	0.905062
	H96	H	0.419638	0.123195	0.591327
	H97	H	0.598644	0.890457	0.593952
	H98	H	0.602379	0.120843	0.415352
	H99	H	0.407341	0.888073	0.401051
	H100	H	0.589935	0.416350	0.111922
	H101	H	0.597221	0.603299	0.883106
	H102	H	0.411583	0.599557	0.115023
	H103	H	0.410745	0.418796	0.882831
	H104	H	0.126341	0.606830	0.400682
	H105	H	0.889257	0.596057	0.596667
	H106	H	0.118268	0.420637	0.581303
	H107	H	0.888027	0.416629	0.397086
	H108	H	0.915899	0.623515	0.094038
	H109	H	0.105403	0.389502	0.087546
	H110	H	0.101284	0.625462	0.899467
	H111	H	0.914046	0.391507	0.910035
	H112	H	0.099132	0.913660	0.614389
	H113	H	0.103586	0.099689	0.382414
	H114	H	0.917362	0.103194	0.615194
	H115	H	0.917036	0.917059	0.384982
	H116	H	0.619018	0.089884	0.907110
	H117	H	0.389112	0.105405	0.088475
	H118	H	0.624577	0.916521	0.097772
	H119	H	0.387800	0.916078	0.897377
	C120	C	0.384778	0.016338	0.619984
	C121	C	0.626969	0.999702	0.619100
	C122	C	0.629077	0.015729	0.375700
	C123	C	0.385499	0.999235	0.377456
	C124	C	0.627299	0.386144	0.007109
	C125	C	0.628615	0.629951	0.990977
	C126	C	0.384797	0.628819	0.007270
	C127	C	0.384604	0.385697	0.990213
	C128	C	0.014846	0.629124	0.376730
	C129	C	0.998634	0.627192	0.619957
	C130	C	0.015435	0.385055	0.620946
	C131	C	0.998387	0.386135	0.378196
	C132	C	0.884817	0.514917	0.120624
	C133	C	0.127508	0.499159	0.120009
	C134	C	0.128031	0.515492	0.876813
	C135	C	0.885026	0.498518	0.877744
	C136	C	0.128600	0.885527	0.507177
	C137	C	0.128048	0.129108	0.490642
	C138	C	0.885458	0.128868	0.507704
	C139	C	0.884775	0.884891	0.491481
	C140	C	0.514937	0.129231	0.875934
	C141	C	0.498126	0.128533	0.119584
	C142	C	0.514441	0.886475	0.119977
	C143	C	0.497707	0.886462	0.876776
	C144	C	0.386385	0.893411	0.676008
	C145	C	0.625747	0.122606	0.674068
	C146	C	0.626469	0.892554	0.321162
	C147	C	0.387358	0.122132	0.321308
	C148	C	0.684006	0.388642	0.884536
	C149	C	0.683720	0.627486	0.113504
	C150	C	0.330425	0.626393	0.884385
	C151	C	0.328424	0.386947	0.112858
	C152	C	0.891383	0.683915	0.380302
	C153	C	0.121821	0.682458	0.617440
	C154	C	0.892291	0.329571	0.618875
	C155	C	0.121933	0.331849	0.380642
	C156	C	0.892492	0.385812	0.677284
	C157	C	0.121667	0.625084	0.674801
	C158	C	0.891324	0.626453	0.322256
	C159	C	0.121365	0.388226	0.322015
	C160	C	0.387588	0.684736	0.884681
	C161	C	0.625368	0.684916	0.113334
	C162	C	0.626602	0.330830	0.884621
	C163	C	0.385648	0.328762	0.112524
	C164	C	0.684005	0.892374	0.379229
	C165	C	0.683225	0.122397	0.616066
	C166	C	0.329378	0.893123	0.618178
	C167	C	0.330201	0.122474	0.379283
	C168	C	0.885560	0.391915	0.176814
	C169	C	0.126213	0.621791	0.175248
	C170	C	0.125461	0.392203	0.822580
	C171	C	0.887328	0.621385	0.821075
	C172	C	0.183979	0.888780	0.384361
	C173	C	0.183059	0.125786	0.613452
	C174	C	0.830866	0.127197	0.384774
	C175	C	0.828839	0.887563	0.614212
	C176	C	0.391868	0.184353	0.878819
	C177	C	0.621206	0.184064	0.116417
	C178	C	0.391374	0.831250	0.117679
	C179	C	0.621349	0.831476	0.878874
	C180	C	0.391806	0.887356	0.176567
	C181	C	0.620840	0.127720	0.174855
	C182	C	0.391628	0.127235	0.821160
	C183	C	0.621300	0.889364	0.821203
	C184	C	0.888343	0.185007	0.385042
	C185	C	0.125509	0.183521	0.613584
	C186	C	0.126196	0.830996	0.384322
	C187	C	0.886381	0.829317	0.614246
	C188	C	0.183483	0.392309	0.879602
	C189	C	0.182601	0.622245	0.116417
	C190	C	0.828522	0.391835	0.118598
	C191	C	0.830185	0.621936	0.879254
	C192	C	0.407064	0.102324	0.597622
	C193	C	0.604123	0.913659	0.597187
	C194	C	0.606738	0.101434	0.397663
	C195	C	0.407657	0.913566	0.399852
	C196	C	0.604492	0.407902	0.092343
	C197	C	0.606578	0.607730	0.905162
	C198	C	0.406147	0.606946	0.093377
	C199	C	0.407272	0.408513	0.904931
	C200	C	0.100830	0.607020	0.398497
	C201	C	0.912772	0.604551	0.597813
	C202	C	0.101554	0.407582	0.598740
	C203	C	0.912456	0.408423	0.400654
	C204	C	0.907744	0.600735	0.097988
	C205	C	0.105178	0.412937	0.098304
	C206	C	0.106114	0.601534	0.898115
	C207	C	0.907129	0.412765	0.900503
	C208	C	0.106145	0.906830	0.592947
	C209	C	0.105911	0.107444	0.405090
	C210	C	0.906978	0.106376	0.593592
	C211	C	0.907578	0.907286	0.405746
	C212	C	0.600812	0.106938	0.897763
	C213	C	0.412166	0.105516	0.097582
	C214	C	0.600335	0.909271	0.097314
	C215	C	0.412087	0.908430	0.898753
	Zn216	Zn	0.506099	0.008120	0.747964
	Zn217	Zn	0.506569	0.007351	0.248056
	Zn218	Zn	0.756523	0.507619	-0.000318
	Zn219	Zn	0.256288	0.507090	-0.001527
	Zn220	Zn	0.006627	0.756221	0.499035
	Zn221	Zn	0.006965	0.257637	0.499510
	Zn222	Zn	0.006394	0.506493	0.748363
	Zn223	Zn	0.006342	0.506865	0.248917
	Zn224	Zn	0.506435	0.757963	-0.001115
	Zn225	Zn	0.506306	0.256905	-0.001989
	Zn226	Zn	0.756942	0.007119	0.498526
	Zn227	Zn	0.256779	0.007725	0.498766
	N228	N	0.420041	0.971046	0.677389
	N229	N	0.591539	0.045230	0.675896
	N230	N	0.593056	0.970092	0.318956
	N231	N	0.421195	0.044603	0.320048
	N232	N	0.684716	0.422400	0.961760
	N233	N	0.685629	0.593998	0.036297
	N234	N	0.328486	0.592652	0.961836
	N235	N	0.327524	0.421599	0.035719
	N236	N	0.969059	0.685633	0.413380
	N237	N	0.044356	0.683837	0.583828
	N238	N	0.969744	0.328950	0.584569
	N239	N	0.044416	0.330323	0.414655
	N240	N	0.970078	0.419633	0.678587
	N241	N	0.043937	0.591614	0.676542
	N242	N	0.969092	0.593126	0.319940
	N243	N	0.043623	0.421504	0.320605
	N244	N	0.420747	0.686322	0.962053
	N245	N	0.592345	0.686756	0.035778
	N246	N	0.591745	0.329300	0.961403
	N247	N	0.420022	0.327935	0.035529
	N248	N	0.685962	0.970107	0.412215
	N249	N	0.683832	0.044942	0.582426
	N250	N	0.328462	0.970500	0.583938
	N251	N	0.328843	0.045020	0.413293
	N252	N	0.920026	0.469449	0.177972
	N253	N	0.092832	0.544098	0.177595
	N254	N	0.091742	0.469611	0.820804
	N255	N	0.920487	0.543608	0.819798
	N256	N	0.185599	0.921876	0.461750
	N257	N	0.184797	0.092861	0.536032
	N258	N	0.828946	0.092920	0.462087
	N259	N	0.827708	0.921224	0.536707
	N260	N	0.469538	0.185741	0.912293
	N261	N	0.543821	0.184396	0.082486
	N262	N	0.468710	0.830442	0.083303
	N263	N	0.543902	0.829628	0.912855
	N264	N	0.469491	0.920912	0.177982
	N265	N	0.543320	0.093803	0.176835
	N266	N	0.469050	0.093803	0.819318
	N267	N	0.543517	0.922672	0.819618
	N268	N	0.921503	0.186062	0.462370
	N269	N	0.092222	0.185824	0.536237
	N270	N	0.092431	0.828654	0.461727
	N271	N	0.920314	0.827620	0.536907
	N272	N	0.185358	0.470035	0.912553
	N273	N	0.183285	0.544826	0.082640
	N274	N	0.827927	0.469334	0.084551
	N275	N	0.828596	0.544586	0.913777
	O276	O	0.512123	0.531582	0.567263
	H277	H	0.520825	0.542094	0.570571
	H278	H	0.510659	0.522937	0.568076
	O279	O	-0.087422	-0.107051	0.106468
	H280	H	-0.085359	-0.111457	0.113301
	H281	H	-0.082743	-0.107528	0.100246
	O282	O	0.531943	0.515640	0.499775
	H283	H	0.528443	0.516824	0.496074
	H284	H	0.525797	0.525119	0.501032
	O285	O	0.488058	0.485596	0.548297
	H286	H	0.489621	0.486538	0.548261
	H287	H	0.487689	0.482946	0.550304
	O288	O	0.978206	-0.084251	0.082377
	H289	H	0.980373	-0.087408	0.081278
	H290	H	0.971286	-0.085771	0.078937
	O291	O	-0.480774	0.512338	-0.492306
	H292	H	-0.476288	0.504620	-0.489074
	H293	H	-0.490775	0.505279	-0.488281
	O294	O	0.557936	0.529791	0.539393
	H295	H	0.553211	0.527376	0.551730
	H296	H	0.550078	0.525486	0.533375
	O297	O	-0.087685	0.909718	0.109057
	H298	H	-0.086530	0.916720	0.113227
	H299	H	-0.088669	0.903373	0.117903
	O300	O	0.930389	-0.077550	1.100259
	H301	H	0.932995	-0.086193	1.096017
	H302	H	0.929865	-0.074807	1.114880
	O303	O	0.576067	0.558756	0.520719
	H304	H	0.581584	0.559574	0.523557
	H305	H	0.579945	0.563216	0.519765
	O306	O	-0.057098	0.925842	1.058589
	H307	H	-0.063319	0.921574	1.063480
	H308	H	-0.070914	0.922491	1.057182
	O309	O	0.511673	0.567291	0.514660
	H310	H	0.524079	0.567513	0.510612
	H311	H	0.510903	0.572412	0.518113
