data_Molecule from HDF5

_cell_length_a		16.180074
_cell_length_b		16.307157
_cell_length_c		16.295126
_cell_angle_alpha	90.407740
_cell_angle_beta	90.025037
_cell_angle_gamma	89.990122
_symmetry_space_group_name_H-M	'P 1'
_symmetry_Int_Tables_number		1

loop_
	_symmetry_equiv_pos_as_xyz
	x,y,z

loop_
	_atom_site_label
	_atom_site_type_symbol
	_atom_site_fract_x
	_atom_site_fract_y
	_atom_site_fract_z
	H0	H	0.388324	0.838279	0.713498
	H1	H	0.590003	0.163619	0.716792
	H2	H	0.589553	0.839053	0.281442
	H3	H	0.387233	0.164180	0.282930
	H4	H	0.702204	0.401713	0.835523
	H5	H	0.703209	0.601605	0.162377
	H6	H	0.273253	0.597536	0.835685
	H7	H	0.274554	0.405521	0.163544
	H8	H	0.824491	0.715078	0.402018
	H9	H	0.153034	0.716506	0.600769
	H10	H	0.824835	0.287542	0.598537
	H11	H	0.153277	0.287414	0.400922
	H12	H	0.824298	0.403916	0.712464
	H13	H	0.152763	0.600737	0.715136
	H14	H	0.824227	0.601757	0.286064
	H15	H	0.152732	0.402138	0.284380
	H16	H	0.388178	0.715181	0.835489
	H17	H	0.591248	0.719580	0.161227
	H18	H	0.586636	0.285963	0.835860
	H19	H	0.386345	0.285216	0.161656
	H20	H	0.703257	0.838275	0.399277
	H21	H	0.703252	0.164989	0.598426
	H22	H	0.274849	0.838026	0.595553
	H23	H	0.274169	0.164820	0.401260
	H24	H	0.888730	0.338804	0.214035
	H25	H	0.088396	0.665083	0.216581
	H26	H	0.087104	0.338932	0.782968
	H27	H	0.888712	0.664786	0.785857
	H28	H	0.203404	0.901287	0.335613
	H29	H	0.203727	0.101528	0.662831
	H30	H	0.773820	0.099068	0.336251
	H31	H	0.773864	0.905164	0.662967
	H32	H	0.324491	0.214472	0.899087
	H33	H	0.652286	0.217854	0.099393
	H34	H	0.324939	0.788133	0.095528
	H35	H	0.653829	0.785682	0.899014
	H36	H	0.324613	0.903052	0.211830
	H37	H	0.653608	0.099788	0.212939
	H38	H	0.325251	0.098680	0.784610
	H39	H	0.653845	0.901223	0.783259
	H40	H	0.888571	0.215895	0.336058
	H41	H	0.089762	0.219264	0.661953
	H42	H	0.088750	0.784059	0.336715
	H43	H	0.888454	0.787329	0.662928
	H44	H	0.201120	0.336982	0.901320
	H45	H	0.203319	0.665198	0.099487
	H46	H	0.774638	0.337823	0.095900
	H47	H	0.774504	0.665423	0.903824
	H48	H	0.386135	0.120300	0.591417
	H49	H	0.593673	0.878594	0.600071
	H50	H	0.580272	0.120532	0.398003
	H51	H	0.407135	0.890405	0.409451
	H52	H	0.587297	0.404962	0.119194
	H53	H	0.584090	0.583058	0.884416
	H54	H	0.395487	0.587529	0.113217
	H55	H	0.398150	0.405375	0.883482
	H56	H	0.106123	0.586564	0.402190
	H57	H	0.872946	0.596017	0.585424
	H58	H	0.105187	0.418161	0.595396
	H59	H	0.870268	0.408669	0.401054
	H60	H	0.109136	0.403348	0.595538
	H61	H	0.872235	0.589452	0.595502
	H62	H	0.108213	0.600165	0.406162
	H63	H	0.870710	0.402599	0.409577
	H64	H	0.403515	0.599329	0.114409
	H65	H	0.569823	0.595112	0.885136
	H66	H	0.580758	0.418736	0.113271
	H67	H	0.392364	0.405012	0.881638
	H68	H	0.574445	0.114712	0.410785
	H69	H	0.564502	0.887697	0.597183
	H70	H	0.401644	0.119765	0.603650
	H71	H	0.385950	0.884072	0.411807
	H72	H	0.887988	0.619661	0.090154
	H73	H	0.090648	0.383629	0.089835
	H74	H	0.080302	0.617675	0.906882
	H75	H	0.891760	0.386287	0.912170
	H76	H	0.076031	0.902850	0.616124
	H77	H	0.075915	0.099318	0.383436
	H78	H	0.889576	0.096041	0.617306
	H79	H	0.891919	0.908701	0.382561
	H80	H	0.607904	0.094720	0.904196
	H81	H	0.374892	0.092558	0.081415
	H82	H	0.601814	0.917714	0.082615
	H83	H	0.373606	0.907519	0.908677
	H84	H	0.608859	0.912462	0.102053
	H85	H	0.372304	0.085044	0.098091
	H86	H	0.606501	0.095916	0.911143
	H87	H	0.372838	0.910413	0.904031
	H88	H	0.899034	0.091655	0.613872
	H89	H	0.087836	0.096607	0.380294
	H90	H	0.089745	0.908026	0.618786
	H91	H	0.899798	0.910552	0.385029
	H92	H	0.080572	0.617495	0.907529
	H93	H	0.076679	0.383754	0.102260
	H94	H	0.896697	0.619838	0.102127
	H95	H	0.890084	0.381143	0.898386
	H96	H	0.403738	0.113046	0.585054
	H97	H	0.583691	0.889837	0.573346
	H98	H	0.589272	0.118744	0.410081
	H99	H	0.396409	0.881785	0.391850
	H100	H	0.571442	0.404829	0.113466
	H101	H	0.586791	0.600101	0.878365
	H102	H	0.389881	0.600025	0.118941
	H103	H	0.394354	0.410193	0.883638
	H104	H	0.102379	0.591334	0.415299
	H105	H	0.867763	0.600870	0.596281
	H106	H	0.104207	0.409573	0.582903
	H107	H	0.873649	0.413059	0.409977
	H108	H	0.902150	0.614395	0.088403
	H109	H	0.073445	0.389617	0.085556
	H110	H	0.081112	0.618258	0.907849
	H111	H	0.903557	0.386883	0.903093
	H112	H	0.078829	0.917193	0.612483
	H113	H	0.080728	0.087856	0.384712
	H114	H	0.898330	0.102590	0.616778
	H115	H	0.897943	0.902265	0.382915
	H116	H	0.604860	0.089498	0.908385
	H117	H	0.367574	0.103680	0.094629
	H118	H	0.608779	0.897568	0.086712
	H119	H	0.371050	0.905158	0.903880
	C120	C	0.367535	0.009851	0.621136
	C121	C	0.610375	0.992957	0.620211
	C122	C	0.610415	0.010137	0.376923
	C123	C	0.367144	0.993133	0.376622
	C124	C	0.609125	0.379833	0.007577
	C125	C	0.610085	0.622789	0.990399
	C126	C	0.366900	0.622996	0.007446
	C127	C	0.365637	0.378731	0.990668
	C128	C	-0.002872	0.621842	0.379378
	C129	C	0.979739	0.624173	0.621973
	C130	C	-0.002484	0.381249	0.619913
	C131	C	0.980079	0.379396	0.377594
	C132	C	0.866430	0.510214	0.121702
	C133	C	0.109382	0.493658	0.121725
	C134	C	0.109600	0.509800	0.877980
	C135	C	0.865967	0.492821	0.877276
	C136	C	0.110279	0.879437	0.507804
	C137	C	0.110635	0.123793	0.490741
	C138	C	0.866933	0.124100	0.507824
	C139	C	0.867253	0.879665	0.491318
	C140	C	0.497855	0.121774	0.878606
	C141	C	0.479970	0.123390	0.120783
	C142	C	0.497830	0.880297	0.119591
	C143	C	0.481071	0.878854	0.876690
	C144	C	0.368962	0.887065	0.675590
	C145	C	0.609401	0.115406	0.677405
	C146	C	0.609478	0.887785	0.319860
	C147	C	0.368136	0.115665	0.321383
	C148	C	0.664692	0.381724	0.884503
	C149	C	0.665442	0.621467	0.113516
	C150	C	0.311281	0.618899	0.884490
	C151	C	0.311491	0.383456	0.114421
	C152	C	0.873562	0.677539	0.381470
	C153	C	0.103755	0.678986	0.620603
	C154	C	0.873963	0.325592	0.618319
	C155	C	0.103982	0.324623	0.379882
	C156	C	0.873499	0.383647	0.674737
	C157	C	0.103536	0.621286	0.677373
	C158	C	0.873335	0.620907	0.323957
	C159	C	0.103469	0.381513	0.321761
	C160	C	0.368511	0.677262	0.884389
	C161	C	0.609499	0.679934	0.112871
	C162	C	0.607219	0.324002	0.884489
	C163	C	0.367094	0.323824	0.113290
	C164	C	0.665946	0.887279	0.378583
	C165	C	0.665333	0.116138	0.618442
	C166	C	0.312407	0.886842	0.616836
	C167	C	0.311635	0.115963	0.380191
	C168	C	0.868588	0.387414	0.176038
	C169	C	0.108297	0.616450	0.178097
	C170	C	0.107032	0.387134	0.822017
	C171	C	0.868196	0.615882	0.823272
	C172	C	0.165307	0.881323	0.384672
	C173	C	0.166318	0.121982	0.613770
	C174	C	0.811438	0.120531	0.384800
	C175	C	0.811480	0.883937	0.614183
	C176	C	0.373759	0.176589	0.879628
	C177	C	0.603526	0.179409	0.119209
	C178	C	0.374027	0.825688	0.116499
	C179	C	0.604723	0.823534	0.878657
	C180	C	0.373892	0.882658	0.174494
	C181	C	0.604157	0.121102	0.175782
	C182	C	0.374086	0.119032	0.822841
	C183	C	0.604695	0.880821	0.821074
	C184	C	0.868616	0.178532	0.384885
	C185	C	0.109739	0.180518	0.613394
	C186	C	0.108566	0.822952	0.385037
	C187	C	0.868530	0.825384	0.614253
	C188	C	0.164062	0.386411	0.880477
	C189	C	0.165821	0.616329	0.120251
	C190	C	0.811753	0.386989	0.117552
	C191	C	0.811496	0.616215	0.882053
	C192	C	0.390554	0.095464	0.599705
	C193	C	0.587308	0.907398	0.597016
	C194	C	0.587899	0.095952	0.399708
	C195	C	0.389902	0.907456	0.398081
	C196	C	0.586360	0.402702	0.093266
	C197	C	0.587099	0.599575	0.904676
	C198	C	0.389716	0.602007	0.093255
	C199	C	0.388320	0.400493	0.904995
	C200	C	0.083171	0.599419	0.401606
	C201	C	0.893387	0.602060	0.599123
	C202	C	0.083869	0.403666	0.597704
	C203	C	0.893865	0.401503	0.400101
	C204	C	0.889127	0.595835	0.100037
	C205	C	0.086842	0.408074	0.099036
	C206	C	0.087235	0.595684	0.900783
	C207	C	0.888411	0.406747	0.898270
	C208	C	0.087861	0.902434	0.593509
	C209	C	0.088044	0.101193	0.405101
	C210	C	0.889060	0.103036	0.593752
	C211	C	0.889994	0.900939	0.405682
	C212	C	0.584023	0.099854	0.901257
	C213	C	0.393919	0.100630	0.098141
	C214	C	0.584186	0.902721	0.097226
	C215	C	0.394702	0.901042	0.899112
	Zn216	Zn	0.489810	0.001047	0.749675
	Zn217	Zn	0.488624	0.001813	0.248191
	Zn218	Zn	0.737516	0.501239	-0.000436
	Zn219	Zn	0.237897	0.500980	-0.000218
	Zn220	Zn	-0.010868	0.750534	0.500062
	Zn221	Zn	-0.011280	0.252356	0.499402
	Zn222	Zn	-0.012015	0.501965	0.748685
	Zn223	Zn	-0.012039	0.501820	0.250508
	Zn224	Zn	0.489401	0.751254	-0.001461
	Zn225	Zn	0.488221	0.250736	-0.001279
	Zn226	Zn	0.738779	0.001931	0.498951
	Zn227	Zn	0.238799	0.001876	0.499119
	N228	N	0.402751	0.964590	0.678386
	N229	N	0.575886	0.037687	0.678689
	N230	N	0.575349	0.964944	0.319010
	N231	N	0.401760	0.038221	0.319028
	N232	N	0.666070	0.415535	0.962201
	N233	N	0.665611	0.586424	0.036546
	N234	N	0.310171	0.586015	0.961896
	N235	N	0.310433	0.416892	0.037220
	N236	N	0.951510	0.678152	0.415503
	N237	N	0.025755	0.680852	0.586875
	N238	N	0.952069	0.324128	0.584877
	N239	N	0.026250	0.323158	0.413846
	N240	N	0.951187	0.417725	0.675775
	N241	N	0.025402	0.588122	0.678535
	N242	N	0.950911	0.586689	0.322536
	N243	N	0.025340	0.414815	0.320319
	N244	N	0.402229	0.680108	0.961903
	N245	N	0.575979	0.681140	0.035094
	N246	N	0.573383	0.322756	0.961812
	N247	N	0.400126	0.320954	0.035406
	N248	N	0.666623	0.964398	0.413547
	N249	N	0.666068	0.039072	0.583741
	N250	N	0.311376	0.964183	0.583785
	N251	N	0.311134	0.038908	0.414026
	N252	N	0.901675	0.465070	0.178910
	N253	N	0.074181	0.539266	0.179261
	N254	N	0.074237	0.465023	0.820185
	N255	N	0.901426	0.538216	0.820288
	N256	N	0.166663	0.915782	0.461896
	N257	N	0.166848	0.087292	0.536632
	N258	N	0.810338	0.087273	0.462071
	N259	N	0.810667	0.917138	0.536768
	N260	N	0.451577	0.178309	0.913722
	N261	N	0.525414	0.180997	0.085720
	N262	N	0.452180	0.823889	0.083342
	N263	N	0.526779	0.822278	0.912333
	N264	N	0.451911	0.916101	0.176218
	N265	N	0.526360	0.087066	0.176851
	N266	N	0.452167	0.085569	0.822055
	N267	N	0.526634	0.914199	0.819446
	N268	N	0.902294	0.180914	0.462423
	N269	N	0.075720	0.181801	0.535973
	N270	N	0.075078	0.821661	0.462796
	N271	N	0.902372	0.822549	0.536982
	N272	N	0.165429	0.463766	0.914809
	N273	N	0.166649	0.538906	0.085883
	N274	N	0.809955	0.464370	0.084772
	N275	N	0.810188	0.538663	0.915023
	O276	O	0.561704	0.526865	0.422066
	H277	H	0.561180	0.527917	0.430014
	H278	H	0.568251	0.528894	0.425169
	O279	O	0.468493	0.447459	0.452796
	H280	H	0.474886	0.453246	0.446692
	H281	H	0.476514	0.446387	0.453993
	O282	O	0.472394	0.501734	0.465547
	H283	H	0.479460	0.499155	0.464718
	H284	H	0.467358	0.493665	0.467702
	O285	O	0.023627	1.001676	1.000970
	H286	H	0.019012	1.000249	0.997588
	H287	H	0.031848	1.007985	1.005967
	O288	O	0.512488	0.503202	0.520526
	H289	H	0.519823	0.508853	0.521826
	H290	H	0.511666	0.511115	0.523180
	O291	O	0.479442	0.433121	1.467882
	H292	H	0.489578	0.434342	1.457523
	H293	H	0.480382	0.432153	1.463573
	O294	O	0.537960	0.596464	0.591375
	H295	H	0.534749	0.597574	0.575097
	H296	H	0.537810	0.603894	0.595706
	O297	O	0.500493	0.471904	0.550774
	H298	H	0.499707	0.471986	0.557893
	H299	H	0.496782	0.469277	0.553781
	O300	O	0.515171	0.454405	0.502588
	H301	H	0.520668	0.465288	0.511478
	H302	H	0.522681	0.447016	0.497590
	O303	O	0.377519	0.547616	0.473052
	H304	H	0.388847	0.547508	0.478195
	H305	H	0.375848	0.545141	0.479079
	O306	O	1.093326	-0.003136	0.974836
	H307	H	1.093561	-0.010361	0.974764
	H308	H	1.100135	0.000157	0.984363
	O309	O	0.485960	0.562899	0.557839
	H310	H	0.484315	0.560772	0.559210
	H311	H	0.489878	0.571096	0.556172
	O312	O	0.439723	0.515519	0.427542
	H313	H	0.429229	0.505087	0.423800
	H314	H	0.432169	0.517884	0.426875
	O315	O	1.041110	0.001656	0.985363
	H316	H	1.040087	-0.002072	0.981933
	H317	H	1.041047	-0.003336	0.969084
	O318	O	0.509599	-0.549780	-0.518948
	H319	H	0.513185	-0.561196	-0.526691
	H320	H	0.510327	-0.552236	-0.518660
	O321	O	0.514342	0.503420	0.488755
	H322	H	0.511300	0.501439	0.488150
	H323	H	0.500757	0.512845	0.483765
	O324	O	1.042333	0.003714	-0.005723
	H325	H	1.054970	0.008484	-0.005051
	H326	H	1.044038	0.014021	0.003508
	O327	O	1.098129	1.013543	0.038517
	H328	H	1.094906	1.012203	0.038212
	H329	H	1.095807	1.008059	0.034814
	O330	O	0.550434	0.521609	0.468182
	H331	H	0.554406	0.530861	0.469210
	H332	H	0.554942	0.521222	0.465718
	O333	O	0.567610	0.592772	0.505653
	H334	H	0.559929	0.588109	0.504296
	H335	H	0.563362	0.595780	0.504066
