data_Molecule from HDF5

_cell_length_a		16.118667
_cell_length_b		16.390359
_cell_length_c		16.350538
_cell_angle_alpha	89.807855
_cell_angle_beta	89.532904
_cell_angle_gamma	89.628623
_symmetry_space_group_name_H-M	'P 1'
_symmetry_Int_Tables_number		1

loop_
	_symmetry_equiv_pos_as_xyz
	x,y,z

loop_
	_atom_site_label
	_atom_site_type_symbol
	_atom_site_fract_x
	_atom_site_fract_y
	_atom_site_fract_z
	H0	H	0.396978	0.835042	0.721702
	H1	H	0.598942	0.157516	0.717617
	H2	H	0.607551	0.835801	0.281279
	H3	H	0.396906	0.156691	0.283782
	H4	H	0.719659	0.397969	0.838911
	H5	H	0.714934	0.593245	0.164668
	H6	H	0.288246	0.596196	0.837413
	H7	H	0.285454	0.396806	0.163301
	H8	H	0.839945	0.714490	0.399575
	H9	H	0.167243	0.706837	0.598937
	H10	H	0.838698	0.277285	0.608904
	H11	H	0.165346	0.276491	0.400076
	H12	H	0.839229	0.394493	0.721077
	H13	H	0.167802	0.591592	0.712684
	H14	H	0.837973	0.597154	0.287331
	H15	H	0.164696	0.390288	0.282577
	H16	H	0.400956	0.715641	0.839349
	H17	H	0.604672	0.715121	0.161716
	H18	H	0.607440	0.277553	0.838802
	H19	H	0.397436	0.276472	0.161502
	H20	H	0.719704	0.833668	0.401183
	H21	H	0.717517	0.156424	0.603636
	H22	H	0.289773	0.831165	0.598883
	H23	H	0.285177	0.157519	0.404315
	H24	H	0.895880	0.335777	0.223054
	H25	H	0.102907	0.656259	0.219605
	H26	H	0.108545	0.334404	0.783076
	H27	H	0.901961	0.656843	0.784014
	H28	H	0.217942	0.896242	0.338706
	H29	H	0.212270	0.088834	0.666095
	H30	H	0.786660	0.096928	0.339796
	H31	H	0.784254	0.893745	0.664601
	H32	H	0.338244	0.214132	0.900036
	H33	H	0.664625	0.211688	0.100790
	H34	H	0.337549	0.781204	0.103782
	H35	H	0.665464	0.779731	0.897280
	H36	H	0.337725	0.896047	0.219139
	H37	H	0.664346	0.098139	0.217291
	H38	H	0.334416	0.094894	0.790287
	H39	H	0.663318	0.893441	0.780668
	H40	H	0.897742	0.216675	0.342859
	H41	H	0.103645	0.211845	0.664037
	H42	H	0.106120	0.777275	0.340095
	H43	H	0.899631	0.775247	0.663788
	H44	H	0.220731	0.334380	0.902380
	H45	H	0.214196	0.659196	0.098156
	H46	H	0.786431	0.333977	0.102150
	H47	H	0.786749	0.658048	0.901761
	H48	H	0.408295	0.109369	0.590372
	H49	H	0.585285	0.881849	0.596118
	H50	H	0.600404	0.113452	0.406993
	H51	H	0.414131	0.881847	0.412127
	H52	H	0.588965	0.398943	0.115738
	H53	H	0.586772	0.582958	0.890516
	H54	H	0.406840	0.585047	0.115758
	H55	H	0.418874	0.406340	0.888514
	H56	H	0.117581	0.578861	0.407792
	H57	H	0.883754	0.593838	0.592697
	H58	H	0.120701	0.397011	0.593187
	H59	H	0.882987	0.406168	0.406075
	H60	H	0.117760	0.402176	0.587011
	H61	H	0.888109	0.582345	0.588108
	H62	H	0.121833	0.588326	0.404928
	H63	H	0.885168	0.399550	0.418982
	H64	H	0.414636	0.589547	0.113484
	H65	H	0.592440	0.597969	0.883938
	H66	H	0.595489	0.399902	0.117665
	H67	H	0.412882	0.398018	0.882857
	H68	H	0.584481	0.109654	0.402381
	H69	H	0.590563	0.883789	0.586668
	H70	H	0.398086	0.113789	0.595937
	H71	H	0.408062	0.879168	0.410463
	H72	H	0.905313	0.612070	0.092048
	H73	H	0.084358	0.383155	0.094123
	H74	H	0.088669	0.613789	0.893761
	H75	H	0.914672	0.380696	0.908646
	H76	H	0.095967	0.885814	0.622316
	H77	H	0.098379	0.078225	0.387827
	H78	H	0.908323	0.081697	0.616713
	H79	H	0.912407	0.907287	0.388164
	H80	H	0.618342	0.088778	0.910470
	H81	H	0.384641	0.086806	0.093029
	H82	H	0.619248	0.902544	0.091159
	H83	H	0.385299	0.904091	0.917669
	H84	H	0.616722	0.905663	0.087746
	H85	H	0.384453	0.088187	0.091677
	H86	H	0.616021	0.082941	0.908099
	H87	H	0.384865	0.910091	0.909578
	H88	H	0.914253	0.087259	0.617134
	H89	H	0.081942	0.086034	0.390705
	H90	H	0.104580	0.905793	0.619368
	H91	H	0.916677	0.902436	0.388729
	H92	H	0.087031	0.606508	0.915335
	H93	H	0.095885	0.381757	0.085212
	H94	H	0.910000	0.611497	0.099692
	H95	H	0.913694	0.382047	0.913560
	H96	H	0.408728	0.112732	0.602375
	H97	H	0.595731	0.878758	0.594911
	H98	H	0.589253	0.106792	0.417989
	H99	H	0.413338	0.879939	0.406014
	H100	H	0.591480	0.405225	0.115373
	H101	H	0.603022	0.584124	0.883804
	H102	H	0.407565	0.593758	0.117435
	H103	H	0.407762	0.408096	0.885559
	H104	H	0.118086	0.586457	0.414691
	H105	H	0.883884	0.583824	0.600378
	H106	H	0.119388	0.405169	0.594707
	H107	H	0.889504	0.413307	0.417255
	H108	H	0.914240	0.608829	0.091945
	H109	H	0.096809	0.378344	0.099251
	H110	H	0.106544	0.614577	0.907057
	H111	H	0.910103	0.379531	0.910288
	H112	H	0.082807	0.902190	0.613410
	H113	H	0.096131	0.095717	0.383947
	H114	H	0.906253	0.088916	0.619046
	H115	H	0.911056	0.901612	0.386727
	H116	H	0.619508	0.087324	0.903655
	H117	H	0.385406	0.085834	0.090859
	H118	H	0.617680	0.906917	0.092998
	H119	H	0.381010	0.900310	0.908132
	C120	C	0.377407	0.004144	0.624396
	C121	C	0.620915	0.987606	0.623094
	C122	C	0.624019	0.004186	0.378788
	C123	C	0.380029	0.986963	0.380333
	C124	C	0.623567	0.372787	0.008997
	C125	C	0.623475	0.617773	0.992921
	C126	C	0.380214	0.619082	0.008744
	C127	C	0.380860	0.374229	0.992006
	C128	C	0.010863	0.615605	0.380190
	C129	C	0.993985	0.615032	0.621793
	C130	C	0.010935	0.372601	0.623782
	C131	C	0.993458	0.374452	0.382100
	C132	C	0.879112	0.504314	0.124786
	C133	C	0.122360	0.487951	0.122344
	C134	C	0.125088	0.504479	0.877799
	C135	C	0.881852	0.487432	0.880470
	C136	C	0.124746	0.870616	0.510541
	C137	C	0.122068	0.115336	0.494449
	C138	C	0.879422	0.117211	0.511305
	C139	C	0.881411	0.872976	0.494272
	C140	C	0.509239	0.116238	0.879661
	C141	C	0.492705	0.116665	0.121278
	C142	C	0.510027	0.875309	0.122211
	C143	C	0.492159	0.874606	0.879945
	C144	C	0.378595	0.882611	0.681484
	C145	C	0.619420	0.108958	0.679697
	C146	C	0.626129	0.883731	0.320596
	C147	C	0.378589	0.108319	0.322970
	C148	C	0.681654	0.376213	0.887470
	C149	C	0.678095	0.614700	0.115497
	C150	C	0.325508	0.616719	0.886319
	C151	C	0.323497	0.376175	0.114320
	C152	C	0.888343	0.674860	0.380840
	C153	C	0.118048	0.669383	0.619225
	C154	C	0.887794	0.316055	0.626475
	C155	C	0.116270	0.315336	0.380604
	C156	C	0.888046	0.374280	0.682631
	C157	C	0.118204	0.612106	0.675750
	C158	C	0.887341	0.616441	0.324982
	C159	C	0.115924	0.372160	0.322258
	C160	C	0.381583	0.676221	0.887250
	C161	C	0.623049	0.675310	0.114058
	C162	C	0.625806	0.316477	0.887528
	C163	C	0.379064	0.315878	0.113384
	C164	C	0.682297	0.882696	0.379961
	C165	C	0.678224	0.108509	0.622436
	C166	C	0.325325	0.880698	0.620487
	C167	C	0.322859	0.108774	0.382836
	C168	C	0.878151	0.383671	0.183114
	C169	C	0.122014	0.608614	0.179951
	C170	C	0.126654	0.382807	0.821700
	C171	C	0.881968	0.608638	0.822972
	C172	C	0.181246	0.874481	0.388122
	C173	C	0.176111	0.111007	0.617060
	C174	C	0.823704	0.116857	0.389120
	C175	C	0.823018	0.873853	0.615942
	C176	C	0.386302	0.174349	0.880846
	C177	C	0.615707	0.173455	0.120527
	C178	C	0.386800	0.819193	0.122955
	C179	C	0.615751	0.817483	0.878448
	C180	C	0.386801	0.876427	0.180311
	C181	C	0.615359	0.117151	0.178680
	C182	C	0.384500	0.114967	0.826426
	C183	C	0.614712	0.874278	0.820469
	C184	C	0.879043	0.176638	0.390545
	C185	C	0.121932	0.172128	0.615924
	C186	C	0.125051	0.815688	0.388355
	C187	C	0.880332	0.814643	0.615561
	C188	C	0.182295	0.382422	0.881159
	C189	C	0.177857	0.609857	0.119908
	C190	C	0.823380	0.382683	0.123065
	C191	C	0.824737	0.609381	0.881614
	C192	C	0.398887	0.089620	0.602644
	C193	C	0.597300	0.903301	0.599503
	C194	C	0.598790	0.088250	0.402227
	C195	C	0.404826	0.902171	0.402881
	C196	C	0.598933	0.394838	0.094046
	C197	C	0.600645	0.595034	0.908004
	C198	C	0.402912	0.596053	0.093697
	C199	C	0.405751	0.397542	0.907538
	C200	C	0.096796	0.591541	0.402550
	C201	C	0.907562	0.593172	0.600062
	C202	C	0.096956	0.394903	0.598722
	C203	C	0.908156	0.399112	0.406987
	C204	C	0.902909	0.588716	0.101469
	C205	C	0.099301	0.403206	0.099652
	C206	C	0.101140	0.589387	0.899247
	C207	C	0.905724	0.402758	0.904106
	C208	C	0.101131	0.891674	0.596105
	C209	C	0.099048	0.093162	0.409536
	C210	C	0.902912	0.093127	0.595775
	C211	C	0.906250	0.896812	0.409831
	C212	C	0.595520	0.093244	0.901241
	C213	C	0.407113	0.093713	0.098504
	C214	C	0.595738	0.898373	0.097739
	C215	C	0.405980	0.898034	0.904596
	Zn216	Zn	0.498692	-0.004002	0.752417
	Zn217	Zn	0.501564	-0.003619	0.250461
	Zn218	Zn	0.752097	0.495621	0.002113
	Zn219	Zn	0.252012	0.496850	0.000577
	Zn220	Zn	0.003302	0.742856	0.501325
	Zn221	Zn	0.001275	0.245631	0.503145
	Zn222	Zn	0.003177	0.494924	0.749982
	Zn223	Zn	0.001290	0.495103	0.252652
	Zn224	Zn	0.501874	0.747521	0.001282
	Zn225	Zn	0.501861	0.244014	-0.000166
	Zn226	Zn	0.751661	-0.004722	0.502080
	Zn227	Zn	0.250958	-0.005899	0.501887
	N228	N	0.410318	0.960364	0.684058
	N229	N	0.584501	0.032730	0.680141
	N230	N	0.590605	0.960139	0.319548
	N231	N	0.413306	0.031406	0.321194
	N232	N	0.680582	0.410365	0.964183
	N233	N	0.678531	0.579576	0.039195
	N234	N	0.324481	0.581964	0.963069
	N235	N	0.324617	0.411831	0.038063
	N236	N	0.966237	0.674364	0.414529
	N237	N	0.039804	0.671456	0.586334
	N238	N	0.965398	0.314813	0.590702
	N239	N	0.039177	0.316732	0.417306
	N240	N	0.965689	0.408586	0.681108
	N241	N	0.040087	0.579046	0.677502
	N242	N	0.964516	0.580320	0.324464
	N243	N	0.038539	0.408275	0.323048
	N244	N	0.414863	0.677627	0.964337
	N245	N	0.589990	0.677284	0.036837
	N246	N	0.590352	0.314217	0.964285
	N247	N	0.414143	0.314523	0.036527
	N248	N	0.681044	0.958600	0.415368
	N249	N	0.679509	0.031859	0.588228
	N250	N	0.324257	0.957162	0.585755
	N251	N	0.323639	0.032292	0.417699
	N252	N	0.911994	0.460453	0.184328
	N253	N	0.088435	0.531736	0.181635
	N254	N	0.091784	0.459596	0.819428
	N255	N	0.916632	0.531679	0.822025
	N256	N	0.181245	0.907707	0.465152
	N257	N	0.176503	0.076549	0.540441
	N258	N	0.823714	0.080682	0.465185
	N259	N	0.823583	0.909334	0.539541
	N260	N	0.464794	0.175350	0.913132
	N261	N	0.538366	0.173464	0.085524
	N262	N	0.464513	0.818208	0.087652
	N263	N	0.538448	0.817998	0.915027
	N264	N	0.464547	0.910550	0.180050
	N265	N	0.538020	0.082310	0.178973
	N266	N	0.462008	0.079535	0.825454
	N267	N	0.536919	0.909158	0.821442
	N268	N	0.912435	0.177464	0.467679
	N269	N	0.088753	0.174748	0.538678
	N270	N	0.090828	0.813040	0.465583
	N271	N	0.915775	0.813862	0.538769
	N272	N	0.181608	0.459028	0.915140
	N273	N	0.178186	0.533673	0.084866
	N274	N	0.823954	0.458661	0.087318
	N275	N	0.824760	0.532984	0.916806
	O276	O	0.012349	-0.092900	-0.123980
	H277	H	0.016139	-0.084075	-0.144218
	H278	H	-0.003401	-0.085084	-0.119332
	O279	O	0.514471	0.610327	0.371023
	H280	H	0.508187	0.607248	0.386730
	H281	H	0.508849	0.600564	0.369738
	O282	O	0.915076	-0.081126	-0.034892
	H283	H	0.945215	-0.071721	-0.037067
	H284	H	0.909533	-0.079013	-0.037959
	O285	O	0.161336	0.943947	0.051513
	H286	H	0.165292	0.951465	0.049970
	H287	H	0.152123	0.952318	0.043366
	O288	O	0.489805	0.573577	0.454331
	H289	H	0.479095	0.575009	0.444276
	H290	H	0.498475	0.573130	0.474996
	O291	O	0.594375	0.581260	0.580698
	H292	H	0.598667	0.576835	0.589848
	H293	H	0.607061	0.575479	0.580386
	O294	O	0.979183	0.933998	0.876276
	H295	H	0.983884	0.922370	0.898175
	H296	H	0.971193	0.951038	0.876319
	O297	O	0.029185	-0.053568	0.116023
	H298	H	0.029994	-0.047867	0.127119
	H299	H	0.030944	-0.045669	0.110371
	O300	O	0.436926	0.483183	0.598148
	H301	H	0.439465	0.467248	0.596675
	H302	H	0.429796	0.479542	0.608790
	O303	O	0.020251	0.793954	1.080155
	H304	H	0.016001	0.795708	1.066928
	H305	H	0.027831	0.780996	1.088414
	O306	O	0.467196	0.657811	0.342928
	H307	H	0.464338	0.670467	0.333438
	H308	H	0.468356	0.656760	0.345405
	O309	O	0.890164	0.014006	0.084146
	H310	H	0.902502	0.021434	0.080489
	H311	H	0.897955	0.002465	0.081391
	O312	O	-0.028849	0.071774	1.103104
	H313	H	-0.035650	0.062147	1.098034
	H314	H	-0.008855	0.074860	1.102483
	O315	O	0.692829	0.327830	0.439880
	H316	H	0.689939	0.322550	0.415162
	H317	H	0.710134	0.310584	0.424019
	O318	O	0.528149	0.316847	0.443977
	H319	H	0.523337	0.316004	0.438590
	H320	H	0.532601	0.315026	0.441291
	O321	O	0.353737	0.363772	0.577791
	H322	H	0.355071	0.366002	0.592624
	H323	H	0.353118	0.366095	0.578147
	O324	O	0.370038	0.557764	0.501319
	H325	H	0.380647	0.554348	0.499987
	H326	H	0.362192	0.578677	0.505895
	O327	O	0.005954	1.154008	0.886023
	H328	H	-0.008608	1.148375	0.878492
	H329	H	-0.000240	1.157693	0.890539
	O330	O	0.603086	0.520012	0.623829
	H331	H	0.605242	0.519553	0.618901
	H332	H	0.601821	0.502644	0.623046
	O333	O	-0.061988	1.019315	1.158632
	H334	H	-0.054632	1.029813	1.150547
	H335	H	-0.079976	1.022665	1.179587
	O336	O	0.891695	0.911421	0.939801
	H337	H	0.881536	0.906211	0.943582
	H338	H	0.895181	0.908159	0.944293
	O339	O	0.398952	0.607880	0.389271
	H340	H	0.401994	0.611120	0.388033
	H341	H	0.388831	0.607656	0.401279
	O342	O	1.079265	-0.088871	0.006615
	H343	H	1.069222	-0.089710	0.005151
	H344	H	1.074138	-0.079544	0.010674
	O345	O	-0.144920	1.015044	0.040344
	H346	H	-0.157939	1.018277	0.046673
	H347	H	-0.136423	1.004018	0.051290
	O348	O	0.992713	1.118864	0.992081
	H349	H	0.987795	1.105775	0.987066
	H350	H	0.984629	1.118050	0.987142
	O351	O	1.008596	1.130108	-0.130254
	H352	H	1.018485	1.133056	-0.124595
	H353	H	1.014229	1.131441	-0.126891
	O354	O	0.632032	0.436364	0.531468
	H355	H	0.650429	0.426270	0.526579
	H356	H	0.631340	0.431433	0.523817
	O357	O	0.520403	0.435056	0.409153
	H358	H	0.534060	0.438217	0.405292
	H359	H	0.522354	0.436842	0.406900
	O360	O	0.093905	-0.027355	-0.023946
	H361	H	0.082332	-0.027619	-0.028876
	H362	H	0.097882	-0.040326	-0.026048
	O363	O	0.485664	0.404438	0.516351
	H364	H	0.483049	0.408359	0.504741
	H365	H	0.498168	0.398834	0.509113
	O366	O	0.467305	0.611988	0.456993
	H367	H	0.459143	0.603939	0.457585
	H368	H	0.474407	0.618938	0.464031
	O369	O	0.470594	0.583627	0.565627
	H370	H	0.479054	0.578606	0.568311
	H371	H	0.472671	0.589543	0.561624
	O372	O	0.629702	0.504117	0.380409
	H373	H	0.634858	0.518101	0.387984
	H374	H	0.626896	0.523316	0.374488
	O375	O	0.418637	0.415893	0.577559
	H376	H	0.429592	0.405467	0.574583
	H377	H	0.396130	0.406316	0.571913
	O378	O	0.498996	0.389565	0.321849
	H379	H	0.494964	0.405413	0.328999
	H380	H	0.494911	0.403721	0.318252
	O381	O	0.559371	0.423699	0.459744
	H382	H	0.534732	0.415370	0.460804
	H383	H	0.560451	0.445375	0.443495
	O384	O	-0.106875	0.913572	0.068652
	H385	H	-0.101915	0.916349	0.070369
	H386	H	-0.106853	0.909938	0.080584
	O387	O	0.901605	0.042740	1.152646
	H388	H	0.898810	0.034660	1.163341
	H389	H	0.906771	0.043403	1.148900
	O390	O	0.142515	1.142797	0.051517
	H391	H	0.139543	1.143960	0.053219
	H392	H	0.142313	1.148886	0.033658
	O393	O	1.134047	0.993572	-0.073631
	H394	H	1.114951	0.992769	-0.088397
	H395	H	1.140632	0.986338	-0.082666
	O396	O	0.518778	0.549674	0.639073
	H397	H	0.512814	0.557356	0.635648
	H398	H	0.506480	0.548881	0.649275
	O399	O	-0.091347	1.038207	1.045475
	H400	H	-0.094468	1.037930	1.036670
	H401	H	-0.080725	1.037403	1.048902
	O402	O	1.035680	1.036951	0.838795
	H403	H	1.046133	1.028928	0.833652
	H404	H	1.039830	1.033072	0.848578
	O405	O	0.487251	0.492789	0.583343
	H406	H	0.494744	0.484127	0.592179
	H407	H	0.485298	0.499794	0.584296
