data_Molecule from HDF5

_cell_length_a		16.615325
_cell_length_b		16.542302
_cell_length_c		16.476912
_cell_angle_alpha	90.062030
_cell_angle_beta	89.965578
_cell_angle_gamma	90.100270
_symmetry_space_group_name_H-M	'P 1'
_symmetry_Int_Tables_number		1

loop_
	_symmetry_equiv_pos_as_xyz
	x,y,z

loop_
	_atom_site_label
	_atom_site_type_symbol
	_atom_site_fract_x
	_atom_site_fract_y
	_atom_site_fract_z
	H0	H	0.406880	0.821786	0.746817
	H1	H	0.618961	0.136444	0.748747
	H2	H	0.615016	0.822222	0.306989
	H3	H	0.410761	0.138316	0.308207
	H4	H	0.734133	0.373309	0.866918
	H5	H	0.731741	0.583984	0.181980
	H6	H	0.288466	0.588623	0.866949
	H7	H	0.291900	0.377949	0.182140
	H8	H	0.856932	0.701902	0.421884
	H9	H	0.168065	0.704565	0.633666
	H10	H	0.856977	0.256241	0.632776
	H11	H	0.169292	0.262085	0.422279
	H12	H	0.855796	0.374753	0.746601
	H13	H	0.167341	0.588733	0.749545
	H14	H	0.854554	0.582174	0.307045
	H15	H	0.168545	0.377846	0.304390
	H16	H	0.407045	0.702050	0.866078
	H17	H	0.613945	0.698265	0.183456
	H18	H	0.617115	0.258311	0.867414
	H19	H	0.409954	0.263007	0.183749
	H20	H	0.733717	0.824668	0.420520
	H21	H	0.735022	0.136388	0.632043
	H22	H	0.289455	0.822415	0.631836
	H23	H	0.292432	0.136173	0.422835
	H24	H	0.906521	0.322762	0.244813
	H25	H	0.116162	0.637416	0.246861
	H26	H	0.117354	0.324507	0.801712
	H27	H	0.904352	0.636639	0.800601
	H28	H	0.233562	0.874344	0.368482
	H29	H	0.236402	0.087859	0.681066
	H30	H	0.789293	0.087256	0.370151
	H31	H	0.784928	0.868294	0.679991
	H32	H	0.356776	0.203876	0.918030
	H33	H	0.668207	0.202694	0.130867
	H34	H	0.357163	0.755332	0.134002
	H35	H	0.666534	0.756102	0.917327
	H36	H	0.355661	0.875596	0.247485
	H37	H	0.669358	0.082966	0.244831
	H38	H	0.356524	0.086317	0.801938
	H39	H	0.666002	0.870451	0.799256
	H40	H	0.907526	0.200459	0.368552
	H41	H	0.119756	0.203746	0.681749
	H42	H	0.117742	0.757563	0.368791
	H43	H	0.901444	0.753273	0.680352
	H44	H	0.235138	0.325445	0.916706
	H45	H	0.234819	0.637093	0.132647
	H46	H	0.789678	0.323966	0.129598
	H47	H	0.787278	0.635533	0.914965
	H48	H	0.422339	0.092363	0.616886
	H49	H	0.596234	0.869288	0.614997
	H50	H	0.598466	0.090060	0.443299
	H51	H	0.418162	0.864352	0.432260
	H52	H	0.600070	0.393373	0.135958
	H53	H	0.600862	0.566757	0.912163
	H54	H	0.424198	0.562918	0.132910
	H55	H	0.420627	0.389209	0.910172
	H56	H	0.123869	0.569053	0.438178
	H57	H	0.904285	0.563735	0.608180
	H58	H	0.120896	0.393642	0.607781
	H59	H	0.898772	0.389007	0.432327
	H60	H	0.123468	0.396080	0.616146
	H61	H	0.901257	0.566281	0.615547
	H62	H	0.124081	0.567204	0.433927
	H63	H	0.898252	0.385852	0.434940
	H64	H	0.427608	0.572201	0.136230
	H65	H	0.598246	0.569394	0.912195
	H66	H	0.601548	0.389978	0.137838
	H67	H	0.423048	0.396125	0.913096
	H68	H	0.610916	0.095565	0.436474
	H69	H	0.598229	0.870564	0.607986
	H70	H	0.428221	0.089194	0.613190
	H71	H	0.427234	0.868065	0.434479
	H72	H	0.922479	0.594884	0.121163
	H73	H	0.102908	0.366285	0.119019
	H74	H	0.098831	0.591840	0.937761
	H75	H	0.922602	0.369191	0.938026
	H76	H	0.100833	0.895814	0.636509
	H77	H	0.113200	0.069183	0.408965
	H78	H	0.921395	0.067899	0.639215
	H79	H	0.927019	0.894691	0.416736
	H80	H	0.620257	0.065886	0.943095
	H81	H	0.401157	0.065709	0.117281
	H82	H	0.623893	0.884242	0.109155
	H83	H	0.402262	0.897869	0.935126
	H84	H	0.620748	0.897524	0.113969
	H85	H	0.396953	0.074644	0.121119
	H86	H	0.623157	0.064816	0.933629
	H87	H	0.399368	0.888354	0.936365
	H88	H	0.925731	0.064860	0.636629
	H89	H	0.097883	0.060896	0.416861
	H90	H	0.097317	0.891765	0.637031
	H91	H	0.925182	0.889808	0.413427
	H92	H	0.100214	0.591513	0.938498
	H93	H	0.096931	0.370257	0.112341
	H94	H	0.927163	0.590243	0.110295
	H95	H	0.923393	0.368734	0.934539
	H96	H	0.421631	0.090015	0.609652
	H97	H	0.602815	0.867648	0.612954
	H98	H	0.597722	0.094526	0.429414
	H99	H	0.420149	0.867909	0.441336
	H100	H	0.603892	0.393255	0.136759
	H101	H	0.601386	0.570063	0.910628
	H102	H	0.418010	0.569481	0.138069
	H103	H	0.427844	0.389830	0.913120
	H104	H	0.125145	0.571931	0.434719
	H105	H	0.901394	0.571228	0.609418
	H106	H	0.124918	0.387151	0.613144
	H107	H	0.899176	0.389218	0.436375
	H108	H	0.915509	0.593775	0.110833
	H109	H	0.106146	0.368232	0.109457
	H110	H	0.099989	0.592307	0.937246
	H111	H	0.925532	0.369958	0.936856
	H112	H	0.101767	0.891144	0.639504
	H113	H	0.096750	0.079449	0.411389
	H114	H	0.926170	0.070186	0.638017
	H115	H	0.921756	0.895053	0.413997
	H116	H	0.624154	0.073605	0.938153
	H117	H	0.400122	0.074461	0.111098
	H118	H	0.626901	0.887946	0.123009
	H119	H	0.403856	0.892725	0.944032
	C120	C	0.390802	-0.012608	0.646665
	C121	C	0.632850	0.971792	0.646004
	C122	C	0.633567	-0.010615	0.404677
	C123	C	0.390967	0.970995	0.404634
	C124	C	0.633512	0.359224	0.032844
	C125	C	0.632814	0.601161	1.015842
	C126	C	0.390287	0.601887	0.032123
	C127	C	0.391666	0.360067	1.016536
	C128	C	0.020811	0.601285	0.404056
	C129	C	1.004582	0.601671	0.645845
	C130	C	0.020458	0.359186	0.645602
	C131	C	1.003133	0.358362	0.403441
	C132	C	0.889961	0.488971	0.145741
	C133	C	0.133545	0.472289	0.146344
	C134	C	0.133243	0.489346	0.903202
	C135	C	0.890228	0.472076	0.902516
	C136	C	0.132661	0.859586	0.533891
	C137	C	0.135179	0.102436	0.516255
	C138	C	0.891902	0.100569	0.534395
	C139	C	0.890664	0.859012	0.517415
	C140	C	0.520002	0.101662	0.903950
	C141	C	0.503307	0.102738	0.148042
	C142	C	0.520387	0.857892	0.147693
	C143	C	0.503774	0.858898	0.904157
	C144	C	0.388361	0.869126	0.706925
	C145	C	0.636372	0.089467	0.707777
	C146	C	0.634183	0.870182	0.346032
	C147	C	0.391092	0.090253	0.346842
	C148	C	0.693478	0.356067	0.914230
	C149	C	0.692106	0.602693	0.134633
	C150	C	0.329260	0.605632	0.913924
	C151	C	0.332209	0.359339	0.135345
	C152	C	0.903022	0.660943	0.403144
	C153	C	0.121119	0.663868	0.650804
	C154	C	0.903531	0.297360	0.649616
	C155	C	0.122078	0.300975	0.402737
	C156	C	0.902946	0.356467	0.706467
	C157	C	0.121002	0.605729	0.708291
	C158	C	0.901955	0.601857	0.346065
	C159	C	0.121599	0.358850	0.344769
	C160	C	0.388025	0.662386	0.913544
	C161	C	0.633263	0.659391	0.135302
	C162	C	0.635196	0.298781	0.914231
	C163	C	0.390774	0.302284	0.136112
	C164	C	0.693013	0.871168	0.402717
	C165	C	0.694508	0.089386	0.650217
	C166	C	0.329685	0.869527	0.649885
	C167	C	0.332361	0.089529	0.403844
	C168	C	0.887978	0.370364	0.205248
	C169	C	0.135180	0.590210	0.206877
	C170	C	0.135908	0.371763	0.841863
	C171	C	0.886490	0.589394	0.840935
	C172	C	0.193269	0.856454	0.415570
	C173	C	0.195986	0.105921	0.634209
	C174	C	0.830365	0.104398	0.416832
	C175	C	0.827007	0.852740	0.633797
	C176	C	0.403506	0.163317	0.899890
	C177	C	0.621210	0.162392	0.149602
	C178	C	0.403507	0.796458	0.151284
	C179	C	0.620179	0.796767	0.899628
	C180	C	0.403052	0.855828	0.208173
	C181	C	0.621700	0.103205	0.206394
	C182	C	0.403371	0.104809	0.842143
	C183	C	0.619851	0.853865	0.841087
	C184	C	0.889094	0.160939	0.416130
	C185	C	0.137895	0.163378	0.634472
	C186	C	0.135416	0.798638	0.415598
	C187	C	0.884961	0.795288	0.633834
	C188	C	0.194575	0.372266	0.898890
	C189	C	0.194047	0.590107	0.149738
	C190	C	0.829914	0.370825	0.147741
	C191	C	0.828180	0.588981	0.898033
	C192	C	0.416531	0.069141	0.620677
	C193	C	0.606666	0.890387	0.619556
	C194	C	0.609380	0.071899	0.429257
	C195	C	0.414923	0.888221	0.429034
	C196	C	0.608710	0.384771	0.115249
	C197	C	0.607676	0.575892	0.933179
	C198	C	0.415895	0.575800	0.114237
	C199	C	0.416586	0.384745	0.933696
	C200	C	0.103058	0.576506	0.428483
	C201	C	0.923333	0.574919	0.618702
	C202	C	0.101853	0.385063	0.619875
	C203	C	0.920378	0.381207	0.427689
	C204	C	0.914757	0.571363	0.121085
	C205	C	0.108800	0.389865	0.120823
	C206	C	0.107131	0.570760	0.930012
	C207	C	0.916291	0.390452	0.928898
	C208	C	0.107151	0.885519	0.616198
	C209	C	0.109966	0.077091	0.433747
	C210	C	0.917361	0.074918	0.616677
	C211	C	0.917247	0.885772	0.435958
	C212	C	0.601342	0.075643	0.930727
	C213	C	0.420914	0.078492	0.123481
	C214	C	0.602540	0.882749	0.122476
	C215	C	0.422993	0.885418	0.931060
	Zn216	Zn	0.511766	-0.020331	0.775306
	Zn217	Zn	0.512447	-0.020049	0.276286
	Zn218	Zn	0.761709	0.480596	0.023900
	Zn219	Zn	0.262065	0.480923	0.024338
	Zn220	Zn	0.012465	0.730765	0.525901
	Zn221	Zn	0.012691	0.229095	0.525128
	Zn222	Zn	0.011851	0.480597	0.774632
	Zn223	Zn	0.011036	0.479941	0.274146
	Zn224	Zn	0.511665	0.729741	0.024327
	Zn225	Zn	0.512251	0.230927	0.025475
	Zn226	Zn	0.762573	-0.019932	0.525931
	Zn227	Zn	0.261710	-0.020434	0.525755
	N228	N	0.425568	0.943270	0.705055
	N229	N	0.599080	0.015278	0.705709
	N230	N	0.597949	0.944734	0.347059
	N231	N	0.426932	0.015560	0.347311
	N232	N	0.692561	0.392886	0.988960
	N233	N	0.691994	0.567533	0.059211
	N234	N	0.330382	0.568948	0.988753
	N235	N	0.332507	0.394410	0.059787
	N236	N	0.977922	0.660796	0.438272
	N237	N	0.047363	0.661389	0.612878
	N238	N	0.977645	0.298591	0.612744
	N239	N	0.047353	0.300286	0.438415
	N240	N	0.976618	0.394221	0.704120
	N241	N	0.047451	0.567942	0.705397
	N242	N	0.976275	0.565755	0.346206
	N243	N	0.046452	0.393315	0.344626
	N244	N	0.425118	0.660173	0.987978
	N245	N	0.597223	0.658848	0.060234
	N246	N	0.598869	0.300399	0.989142
	N247	N	0.426780	0.302368	0.061079
	N248	N	0.692944	0.946224	0.438336
	N249	N	0.692654	0.015148	0.612849
	N250	N	0.331037	0.944087	0.613162
	N251	N	0.331942	0.014341	0.438763
	N252	N	0.924471	0.444917	0.204447
	N253	N	0.098434	0.515935	0.204941
	N254	N	0.098745	0.445813	0.844253
	N255	N	0.924274	0.515775	0.843590
	N256	N	0.191715	0.893403	0.490232
	N257	N	0.194269	0.068699	0.559703
	N258	N	0.831953	0.067649	0.491512
	N259	N	0.830616	0.891828	0.560458
	N260	N	0.477249	0.161463	0.937603
	N261	N	0.546373	0.162390	0.114154
	N262	N	0.477706	0.797606	0.114263
	N263	N	0.547051	0.799920	0.938393
	N264	N	0.476725	0.893177	0.205944
	N265	N	0.547176	0.067098	0.205832
	N266	N	0.476940	0.067215	0.844711
	N267	N	0.546572	0.891915	0.843880
	N268	N	0.926620	0.158910	0.490379
	N269	N	0.100831	0.161390	0.560021
	N270	N	0.098547	0.800420	0.490244
	N271	N	0.924283	0.799290	0.560581
	N272	N	0.193177	0.446540	0.936186
	N273	N	0.193170	0.515602	0.112691
	N274	N	0.830893	0.445606	0.111553
	N275	N	0.830105	0.514742	0.935546
	O276	O	0.975491	0.957824	-0.038565
	H277	H	0.979440	0.963122	-0.020668
	H278	H	0.964170	0.972422	-0.047725
	O279	O	0.414259	0.681580	0.331295
	H280	H	0.402553	0.692351	0.324601
	H281	H	0.410546	0.667810	0.320971
	O282	O	1.154953	-0.173846	0.089354
	H283	H	1.158865	-0.181262	0.087669
	H284	H	1.151332	-0.162971	0.083752
	O285	O	-0.195229	1.004639	0.093178
	H286	H	-0.196620	1.009158	0.088611
	H287	H	-0.193413	0.998449	0.088550
	O288	O	1.072875	0.038010	0.799459
	H289	H	1.072490	0.009181	0.810518
	H290	H	1.077687	0.034341	0.792486
	O291	O	-0.138431	-0.079124	0.172949
	H292	H	-0.144485	-0.076807	0.182513
	H293	H	-0.129438	-0.059379	0.167968
	O294	O	-0.098748	-0.160637	-0.132581
	H295	H	-0.094645	-0.159649	-0.135713
	H296	H	-0.094013	-0.152351	-0.112812
	O297	O	0.477356	0.632291	0.709229
	H298	H	0.484423	0.635292	0.704043
	H299	H	0.466634	0.639913	0.705809
	O300	O	-0.207127	-0.236371	0.053274
	H301	H	-0.213894	-0.243689	0.073498
	H302	H	-0.216406	-0.249723	0.062762
	O303	O	0.008995	-0.167919	-0.029649
	H304	H	0.023503	-0.162451	-0.014231
	H305	H	0.001843	-0.175865	-0.024364
	O306	O	0.181717	0.158670	-0.121407
	H307	H	0.169391	0.146107	-0.117400
	H308	H	0.172461	0.159594	-0.113404
	O309	O	0.931223	-0.108670	-0.178422
	H310	H	0.932334	-0.107524	-0.167717
	H311	H	0.912117	-0.111328	-0.171908
	O312	O	0.517972	0.477550	0.311577
	H313	H	0.512495	0.462080	0.307319
	H314	H	0.510791	0.467647	0.318900
	O315	O	0.517184	0.638681	0.521502
	H316	H	0.520142	0.648179	0.515779
	H317	H	0.513276	0.628350	0.515124
	O318	O	1.222611	1.189651	0.234312
	H319	H	1.250769	1.211085	0.256862
	H320	H	1.228063	1.138198	0.241734
	O321	O	-0.022024	0.764467	1.240042
	H322	H	-0.035965	0.748756	1.257064
	H323	H	-0.040495	0.763223	1.240145
	O324	O	1.094457	-0.045096	1.184145
	H325	H	1.093636	-0.047270	1.191808
	H326	H	1.081641	-0.044904	1.175901
	O327	O	0.307420	0.585779	0.321022
	H328	H	0.289291	0.594990	0.302524
	H329	H	0.312780	0.579719	0.351473
	O330	O	-0.486367	1.515142	0.687084
	H331	H	-0.497219	1.515631	0.692824
	H332	H	-0.493456	1.519231	0.688149
	O333	O	0.038921	0.767169	0.810308
	H334	H	0.017622	0.770449	0.811632
	H335	H	0.025316	0.750208	0.799852
	O336	O	-0.003459	1.175699	0.095948
	H337	H	-0.003442	1.176861	0.103277
	H338	H	-0.008328	1.177589	0.107504
	O339	O	-0.186476	1.199725	0.012200
	H340	H	-0.209400	1.228415	-0.001857
	H341	H	-0.160659	1.194800	-0.004314
	O342	O	0.442619	0.271117	-0.272711
	H343	H	0.443536	0.266104	-0.272481
	H344	H	0.449493	0.280198	-0.266608
	O345	O	0.726676	0.448459	0.316792
	H346	H	0.722271	0.438685	0.305317
	H347	H	0.740285	0.424972	0.299818
	O348	O	0.310765	0.491941	0.703641
	H349	H	0.288914	0.492392	0.726386
	H350	H	0.309905	0.497519	0.688945
	O351	O	0.225484	-0.046851	0.811494
	H352	H	0.251505	-0.045557	0.795178
	H353	H	0.214576	-0.062358	0.820996
	O354	O	1.230775	0.199949	1.061279
	H355	H	1.238507	0.217165	1.078463
	H356	H	1.240091	0.207143	1.084012
	O357	O	-0.699028	0.268839	-0.451659
	H358	H	-0.703378	0.262597	-0.425369
	H359	H	-0.708537	0.263025	-0.459000
	O360	O	0.236557	-0.241823	0.999025
	H361	H	0.241800	-0.251978	0.973456
	H362	H	0.247849	-0.257744	1.005756
	O363	O	0.729724	0.510797	0.485923
	H364	H	0.735928	0.513753	0.464354
	H365	H	0.732905	0.525247	0.475258
	O366	O	0.979612	0.190001	0.814413
	H367	H	1.002112	0.188945	0.819651
	H368	H	0.985005	0.195423	0.793553
	O369	O	-0.183285	0.173869	0.839544
	H370	H	-0.144475	0.175233	0.836584
	H371	H	-0.187378	0.145545	0.846895
	O372	O	0.198901	0.794332	0.840452
	H373	H	0.151594	0.788981	0.829721
	H374	H	0.201884	0.809850	0.861221
	O375	O	0.542131	0.267504	-0.690294
	H376	H	0.561150	0.269143	-0.676263
	H377	H	0.548305	0.237965	-0.713294
	O378	O	-0.163286	1.167089	0.183411
	H379	H	-0.151768	1.154403	0.185493
	H380	H	-0.157991	1.155577	0.161793
	O381	O	0.627299	1.688819	0.512476
	H382	H	0.641463	1.693489	0.518763
	H383	H	0.606743	1.678807	0.523582
	O384	O	1.324520	1.290037	0.342631
	H385	H	1.346639	1.299518	0.363548
	H386	H	1.332741	1.307793	0.351542
	O387	O	0.005970	1.094918	0.971567
	H388	H	0.015386	1.096230	0.959220
	H389	H	0.009305	1.101292	0.977315
	O390	O	0.226334	1.020260	0.968566
	H391	H	0.220813	1.039239	0.975711
	H392	H	0.231692	1.020852	0.951591
	O393	O	0.414682	0.461686	-0.419332
	H394	H	0.420728	0.448405	-0.428256
	H395	H	0.406544	0.457350	-0.416700
	O396	O	0.697275	0.669153	0.697822
	H397	H	0.679126	0.642877	0.697455
	H398	H	0.704033	0.662981	0.711401
	O399	O	0.329771	0.549834	0.597558
	H400	H	0.336067	0.551286	0.601786
	H401	H	0.338901	0.555322	0.603102
	O402	O	1.538460	0.333090	1.593018
	H403	H	1.533280	0.325508	1.610985
	H404	H	1.531400	0.333591	1.591397
	O405	O	0.381747	0.442294	0.327281
	H406	H	0.380537	0.454619	0.322780
	H407	H	0.396490	0.447286	0.329510
	O408	O	1.030991	-0.132781	0.128629
	H409	H	1.028041	-0.120322	0.134463
	H410	H	1.024060	-0.126648	0.128133
	O411	O	0.721839	1.554572	-0.419436
	H412	H	0.716512	1.562631	-0.423938
	H413	H	0.723234	1.558206	-0.400412
	O414	O	0.226659	0.018696	0.242388
	H415	H	0.214596	-0.005457	0.231780
	H416	H	0.239258	0.005234	0.261007
	O417	O	0.708287	0.293998	0.442940
	H418	H	0.712004	0.303998	0.479677
	H419	H	0.736687	0.272400	0.428601
	O420	O	1.699422	-0.330149	0.345824
	H421	H	1.684646	-0.342070	0.365599
	H422	H	1.681188	-0.341877	0.359433
	O423	O	1.085701	0.826306	0.124607
	H424	H	1.089950	0.835186	0.113279
	H425	H	1.083030	0.833773	0.111623
	O426	O	0.574816	0.344828	0.613061
	H427	H	0.573837	0.351266	0.619219
	H428	H	0.577544	0.334407	0.604151
	O429	O	0.599742	0.380221	0.404995
	H430	H	0.610561	0.378827	0.430662
	H431	H	0.578767	0.385035	0.396380
	O432	O	1.329375	0.332720	1.724595
	H433	H	1.323996	0.357432	1.740205
	H434	H	1.348032	0.312311	1.723596
	O435	O	0.095475	-0.004988	0.140847
	H436	H	0.093365	-0.004572	0.128787
	H437	H	0.097281	-0.007158	0.137864
	O438	O	0.360625	0.657183	0.495755
	H439	H	0.367128	0.648587	0.470010
	H440	H	0.353793	0.675614	0.486952
	O441	O	0.803122	0.766288	0.237104
	H442	H	0.774362	0.742707	0.260422
	H443	H	0.806381	0.800882	0.238623
	O444	O	0.538260	0.607274	0.324500
	H445	H	0.531934	0.593274	0.318942
	H446	H	0.528433	0.613163	0.311638
	O447	O	0.323247	0.550335	0.511682
	H448	H	0.337941	0.551843	0.520481
	H449	H	0.310700	0.555198	0.512713
	O450	O	0.789338	0.007543	-0.197567
	H451	H	0.771988	0.012022	-0.199841
	H452	H	0.782371	0.005176	-0.210813
	O453	O	0.717381	0.314382	0.562625
	H454	H	0.729064	0.307048	0.573365
	H455	H	0.717873	0.338464	0.581359
	O456	O	0.007901	0.918640	1.147995
	H457	H	-0.008902	0.923745	1.142296
	H458	H	0.005999	0.914307	1.143158
	O459	O	0.794661	0.921015	0.945865
	H460	H	0.796452	0.924842	0.955175
	H461	H	0.792066	0.905243	0.947230
	O462	O	0.535397	0.438695	0.649887
	H463	H	0.535973	0.444471	0.647796
	H464	H	0.524211	0.452322	0.638893
	O465	O	0.479756	0.316347	0.496808
	H466	H	0.479253	0.319630	0.501412
	H467	H	0.477170	0.318441	0.500121
	O468	O	0.888257	2.023938	0.204442
	H469	H	0.900123	2.020660	0.201818
	H470	H	0.893981	2.034139	0.203161
	O471	O	0.717598	0.503444	0.725847
	H472	H	0.723414	0.504220	0.741166
	H473	H	0.708082	0.499046	0.735183
	O474	O	1.069556	1.143060	0.013728
	H475	H	1.076905	1.147759	0.021832
	H476	H	1.065615	1.149097	0.016704
	O477	O	0.043019	0.201831	1.243337
	H478	H	0.079508	0.199514	1.242617
	H479	H	0.050625	0.226653	1.268715
