data_Molecule from HDF5

_cell_length_a		16.208099
_cell_length_b		16.355559
_cell_length_c		16.309170
_cell_angle_alpha	90.051359
_cell_angle_beta	89.974462
_cell_angle_gamma	89.924408
_symmetry_space_group_name_H-M	'P 1'
_symmetry_Int_Tables_number		1

loop_
	_symmetry_equiv_pos_as_xyz
	x,y,z

loop_
	_atom_site_label
	_atom_site_type_symbol
	_atom_site_fract_x
	_atom_site_fract_y
	_atom_site_fract_z
	H0	H	0.406083	0.842825	0.715511
	H1	H	0.602308	0.168557	0.715790
	H2	H	0.602061	0.842831	0.285949
	H3	H	0.404449	0.169323	0.285699
	H4	H	0.716206	0.409423	0.836594
	H5	H	0.716790	0.602879	0.164688
	H6	H	0.289626	0.604192	0.836805
	H7	H	0.290598	0.410888	0.165345
	H8	H	0.839477	0.721188	0.402898
	H9	H	0.167693	0.720031	0.599518
	H10	H	0.838929	0.293155	0.598292
	H11	H	0.168197	0.292554	0.403225
	H12	H	0.838588	0.409304	0.713574
	H13	H	0.168091	0.604158	0.715122
	H14	H	0.838817	0.604504	0.287565
	H15	H	0.168523	0.409008	0.287458
	H16	H	0.404229	0.721394	0.837491
	H17	H	0.602985	0.722058	0.163865
	H18	H	0.603504	0.290828	0.837894
	H19	H	0.403267	0.291238	0.164177
	H20	H	0.717222	0.841788	0.403449
	H21	H	0.716428	0.170099	0.597051
	H22	H	0.289945	0.842074	0.598381
	H23	H	0.288854	0.169712	0.403785
	H24	H	0.904060	0.343250	0.216355
	H25	H	0.101491	0.669184	0.216449
	H26	H	0.101514	0.342649	0.786549
	H27	H	0.904288	0.669094	0.786456
	H28	H	0.216396	0.909611	0.336461
	H29	H	0.216199	0.101573	0.665116
	H30	H	0.790921	0.102105	0.336719
	H31	H	0.790685	0.909339	0.665127
	H32	H	0.339473	0.220498	0.902804
	H33	H	0.668346	0.219565	0.099506
	H34	H	0.338798	0.793302	0.098955
	H35	H	0.668593	0.793176	0.903593
	H36	H	0.339099	0.908367	0.215628
	H37	H	0.668220	0.102475	0.214552
	H38	H	0.338996	0.103481	0.787355
	H39	H	0.668737	0.909211	0.788169
	H40	H	0.903969	0.221801	0.337794
	H41	H	0.102513	0.220421	0.664959
	H42	H	0.103868	0.789649	0.338238
	H43	H	0.905373	0.791649	0.664297
	H44	H	0.217447	0.343195	0.903720
	H45	H	0.217076	0.669783	0.099001
	H46	H	0.789879	0.342235	0.097291
	H47	H	0.788853	0.669639	0.903406
	H48	H	0.410601	0.123786	0.600388
	H49	H	0.593638	0.890242	0.599093
	H50	H	0.590191	0.119148	0.409520
	H51	H	0.402530	0.886620	0.403069
	H52	H	0.593868	0.413265	0.116722
	H53	H	0.594497	0.613982	0.881649
	H54	H	0.409949	0.606290	0.118568
	H55	H	0.405910	0.411154	0.883054
	H56	H	0.121447	0.605984	0.413489
	H57	H	0.887182	0.594284	0.598153
	H58	H	0.119076	0.421817	0.597547
	H59	H	0.888528	0.423295	0.403076
	H60	H	0.124758	0.405284	0.601747
	H61	H	0.884041	0.605669	0.594820
	H62	H	0.116552	0.590805	0.411911
	H63	H	0.881776	0.403740	0.401640
	H64	H	0.405424	0.597028	0.117165
	H65	H	0.608482	0.593145	0.882455
	H66	H	0.596529	0.410249	0.118710
	H67	H	0.412274	0.416030	0.886427
	H68	H	0.603147	0.122284	0.411994
	H69	H	0.596335	0.891484	0.589645
	H70	H	0.414109	0.119974	0.592097
	H71	H	0.418771	0.891073	0.402201
	H72	H	0.901942	0.622956	0.089392
	H73	H	0.104526	0.386969	0.098293
	H74	H	0.089586	0.622622	0.900113
	H75	H	0.910600	0.387744	0.899267
	H76	H	0.099348	0.912153	0.617642
	H77	H	0.102292	0.099019	0.383371
	H78	H	0.912316	0.098698	0.616375
	H79	H	0.911851	0.915666	0.385690
	H80	H	0.620481	0.097195	0.906344
	H81	H	0.386735	0.101889	0.090217
	H82	H	0.619503	0.916005	0.093561
	H83	H	0.384871	0.910975	0.903995
	H84	H	0.621511	0.911902	0.096004
	H85	H	0.388069	0.095606	0.092902
	H86	H	0.621753	0.101575	0.906941
	H87	H	0.387152	0.910797	0.910831
	H88	H	0.911204	0.104802	0.618451
	H89	H	0.092135	0.095458	0.387647
	H90	H	0.096002	0.914025	0.615950
	H91	H	0.913287	0.909485	0.384246
	H92	H	0.093231	0.619060	0.915185
	H93	H	0.090023	0.391159	0.100116
	H94	H	0.909091	0.625161	0.104220
	H95	H	0.914880	0.392915	0.910530
	H96	H	0.404926	0.122533	0.592657
	H97	H	0.602468	0.887470	0.595973
	H98	H	0.598248	0.123764	0.399541
	H99	H	0.410607	0.892935	0.416860
	H100	H	0.598741	0.413992	0.117183
	H101	H	0.584548	0.592469	0.890176
	H102	H	0.416251	0.598234	0.114288
	H103	H	0.413305	0.407975	0.884098
	H104	H	0.122696	0.598823	0.399821
	H105	H	0.889538	0.598184	0.586637
	H106	H	0.119186	0.408907	0.585211
	H107	H	0.888758	0.410884	0.419819
	H108	H	0.917439	0.617959	0.091892
	H109	H	0.096930	0.392622	0.086812
	H110	H	0.104398	0.625336	0.905267
	H111	H	0.902789	0.388689	0.909873
	H112	H	0.095314	0.910563	0.617506
	H113	H	0.093422	0.106278	0.383572
	H114	H	0.906773	0.100279	0.618691
	H115	H	0.907297	0.911530	0.383462
	H116	H	0.620283	0.099288	0.910665
	H117	H	0.385013	0.101340	0.097274
	H118	H	0.620587	0.911556	0.090648
	H119	H	0.387259	0.916743	0.906925
	C120	C	0.381961	0.013900	0.622408
	C121	C	0.625486	0.997762	0.622632
	C122	C	0.625566	0.013853	0.378782
	C123	C	0.381921	0.998114	0.379378
	C124	C	0.625005	0.384605	0.009143
	C125	C	0.624667	0.628080	0.992598
	C126	C	0.382036	0.628267	0.008788
	C127	C	0.381874	0.384242	0.992869
	C128	C	0.011644	0.627217	0.380050
	C129	C	0.995449	0.627477	0.622088
	C130	C	0.011788	0.384641	0.622408
	C131	C	0.995487	0.384835	0.379865
	C132	C	0.881348	0.514081	0.122865
	C133	C	0.125052	0.498373	0.122916
	C134	C	0.124545	0.514393	0.879016
	C135	C	0.881210	0.497705	0.878955
	C136	C	0.125545	0.883918	0.509129
	C137	C	0.124761	0.127658	0.492927
	C138	C	0.882051	0.128358	0.509519
	C139	C	0.882412	0.884366	0.492617
	C140	C	0.512271	0.127732	0.879526
	C141	C	0.495273	0.127546	0.122288
	C142	C	0.511735	0.884848	0.122283
	C143	C	0.495515	0.884509	0.879100
	C144	C	0.385248	0.891127	0.677327
	C145	C	0.622934	0.120257	0.677782
	C146	C	0.622770	0.891290	0.323939
	C147	C	0.384226	0.120865	0.324302
	C148	C	0.678924	0.388454	0.885660
	C149	C	0.679667	0.624652	0.115770
	C150	C	0.326919	0.625211	0.885705
	C151	C	0.327833	0.389214	0.116324
	C152	C	0.888383	0.683042	0.382516
	C153	C	0.119035	0.681826	0.619829
	C154	C	0.887988	0.330755	0.619081
	C155	C	0.119274	0.330400	0.382606
	C156	C	0.887759	0.388308	0.676348
	C157	C	0.118970	0.624530	0.677413
	C158	C	0.887809	0.624731	0.325625
	C159	C	0.119402	0.388211	0.325287
	C160	C	0.383769	0.683483	0.886063
	C161	C	0.622935	0.683576	0.115403
	C162	C	0.623004	0.329459	0.886522
	C163	C	0.383971	0.329722	0.115796
	C164	C	0.679941	0.890843	0.382479
	C165	C	0.679781	0.120907	0.619039
	C166	C	0.327465	0.890963	0.619231
	C167	C	0.326937	0.121033	0.382773
	C168	C	0.884012	0.391459	0.177725
	C169	C	0.122237	0.620768	0.178296
	C170	C	0.122121	0.391456	0.824248
	C171	C	0.883683	0.620433	0.824199
	C172	C	0.179469	0.888021	0.385604
	C173	C	0.178978	0.123514	0.616354
	C174	C	0.828210	0.123693	0.385539
	C175	C	0.827981	0.887831	0.616035
	C176	C	0.388376	0.182227	0.882486
	C177	C	0.619076	0.182280	0.120222
	C178	C	0.388046	0.830582	0.119688
	C179	C	0.619379	0.830623	0.882544
	C180	C	0.388172	0.887711	0.177630
	C181	C	0.619106	0.124289	0.177192
	C182	C	0.388134	0.124375	0.825166
	C183	C	0.619552	0.888309	0.825319
	C184	C	0.884775	0.182749	0.386084
	C185	C	0.122694	0.182525	0.616003
	C186	C	0.123262	0.828812	0.386337
	C187	C	0.884853	0.829529	0.615582
	C188	C	0.179633	0.391545	0.882573
	C189	C	0.179543	0.621136	0.119906
	C190	C	0.826992	0.391121	0.118849
	C191	C	0.826534	0.620827	0.882700
	C192	C	0.403605	0.099760	0.601210
	C193	C	0.603893	0.911835	0.601169
	C194	C	0.603431	0.099523	0.400405
	C195	C	0.404087	0.912610	0.401022
	C196	C	0.602932	0.406193	0.095357
	C197	C	0.602285	0.606425	0.906843
	C198	C	0.403960	0.606800	0.094461
	C199	C	0.403931	0.405499	0.906750
	C200	C	0.098111	0.605075	0.402099
	C201	C	0.909161	0.605864	0.599794
	C202	C	0.098553	0.405716	0.601156
	C203	C	0.908905	0.406386	0.401621
	C204	C	0.903175	0.600055	0.101505
	C205	C	0.103491	0.412525	0.101407
	C206	C	0.102401	0.600046	0.900519
	C207	C	0.903046	0.411883	0.900395
	C208	C	0.103383	0.905742	0.594983
	C209	C	0.102666	0.106505	0.407079
	C210	C	0.903636	0.107392	0.595498
	C211	C	0.904370	0.905821	0.406609
	C212	C	0.598545	0.105756	0.901315
	C213	C	0.409047	0.105908	0.100214
	C214	C	0.598135	0.906907	0.100067
	C215	C	0.408667	0.906289	0.900902
	Zn216	Zn	0.503990	0.005934	0.751606
	Zn217	Zn	0.503430	0.006072	0.250421
	Zn218	Zn	0.752750	0.506108	0.000745
	Zn219	Zn	0.253656	0.506503	0.000737
	Zn220	Zn	0.003809	0.755565	0.500842
	Zn221	Zn	0.003978	0.256551	0.501159
	Zn222	Zn	0.003069	0.506058	0.750018
	Zn223	Zn	0.003188	0.506231	0.251848
	Zn224	Zn	0.503351	0.756796	0.000766
	Zn225	Zn	0.503935	0.255873	0.001215
	Zn226	Zn	0.754121	0.005648	0.501209
	Zn227	Zn	0.252941	0.006208	0.500571
	N228	N	0.418296	0.968539	0.679598
	N229	N	0.590003	0.042830	0.680274
	N230	N	0.589770	0.968712	0.321471
	N231	N	0.417582	0.043496	0.322048
	N232	N	0.680509	0.421710	0.963184
	N233	N	0.680486	0.590770	0.038650
	N234	N	0.325954	0.591410	0.962718
	N235	N	0.326328	0.422244	0.038856
	N236	N	0.966470	0.684397	0.415755
	N237	N	0.041367	0.683874	0.586119
	N238	N	0.966170	0.328400	0.586360
	N239	N	0.041346	0.328256	0.415772
	N240	N	0.965759	0.421301	0.678258
	N241	N	0.041014	0.591186	0.678700
	N242	N	0.965390	0.590862	0.323939
	N243	N	0.041265	0.421411	0.323538
	N244	N	0.417339	0.685651	0.963629
	N245	N	0.589516	0.685900	0.037884
	N246	N	0.590130	0.327042	0.964435
	N247	N	0.416823	0.326568	0.038070
	N248	N	0.681740	0.968032	0.416031
	N249	N	0.681317	0.043669	0.585511
	N250	N	0.325122	0.968317	0.586009
	N251	N	0.325297	0.043866	0.416047
	N252	N	0.917066	0.468943	0.180364
	N253	N	0.089328	0.543415	0.180454
	N254	N	0.088676	0.468789	0.822037
	N255	N	0.916993	0.542991	0.821723
	N256	N	0.180925	0.921461	0.463017
	N257	N	0.180100	0.089892	0.539016
	N258	N	0.826449	0.090447	0.463009
	N259	N	0.826680	0.921220	0.538845
	N260	N	0.466445	0.184387	0.915490
	N261	N	0.541106	0.184432	0.086784
	N262	N	0.465832	0.828818	0.085920
	N263	N	0.541168	0.828234	0.915183
	N264	N	0.466284	0.920386	0.179570
	N265	N	0.541348	0.090637	0.178389
	N266	N	0.466263	0.091189	0.823062
	N267	N	0.541298	0.921056	0.823275
	N268	N	0.917378	0.185822	0.463962
	N269	N	0.089607	0.185042	0.538217
	N270	N	0.090314	0.826450	0.464047
	N271	N	0.918005	0.827159	0.537821
	N272	N	0.181312	0.468750	0.915863
	N273	N	0.181358	0.543956	0.086236
	N274	N	0.825489	0.468317	0.085473
	N275	N	0.825036	0.543510	0.915934
	O276	O	0.513395	-0.467711	0.501057
	H277	H	0.515220	-0.475865	0.492440
	H278	H	0.507195	-0.461937	0.510831
	O279	O	0.486289	0.498605	0.499519
	H280	H	0.478558	0.491199	0.497236
	H281	H	0.485158	0.493300	0.504135
	O282	O	0.498835	0.507977	0.502834
	H283	H	0.499113	0.517688	0.495825
	H284	H	0.504746	0.510924	0.511054
	O285	O	0.479262	0.479665	0.497386
	H286	H	0.484791	0.482730	0.490876
	H287	H	0.477190	0.480052	0.498883
