data_Molecule from HDF5

_cell_length_a		16.264574
_cell_length_b		16.302515
_cell_length_c		16.284850
_cell_angle_alpha	89.999424
_cell_angle_beta	90.058795
_cell_angle_gamma	89.952563
_symmetry_space_group_name_H-M	'P 1'
_symmetry_Int_Tables_number		1

loop_
	_symmetry_equiv_pos_as_xyz
	x,y,z

loop_
	_atom_site_label
	_atom_site_type_symbol
	_atom_site_fract_x
	_atom_site_fract_y
	_atom_site_fract_z
	H0	H	0.396650	0.842633	0.713679
	H1	H	0.595527	0.168481	0.712430
	H2	H	0.595992	0.841580	0.281951
	H3	H	0.396866	0.169052	0.282389
	H4	H	0.710688	0.406722	0.833036
	H5	H	0.710651	0.603432	0.160670
	H6	H	0.283155	0.602066	0.832393
	H7	H	0.281569	0.406647	0.160385
	H8	H	0.833035	0.720505	0.398476
	H9	H	0.159932	0.718655	0.596825
	H10	H	0.833061	0.289284	0.596225
	H11	H	0.160221	0.290723	0.398428
	H12	H	0.832111	0.406552	0.710692
	H13	H	0.159777	0.602336	0.711663
	H14	H	0.832887	0.605377	0.281568
	H15	H	0.159622	0.405725	0.281705
	H16	H	0.396809	0.720712	0.833171
	H17	H	0.595190	0.720104	0.160302
	H18	H	0.594678	0.290557	0.833345
	H19	H	0.397021	0.290613	0.160110
	H20	H	0.711771	0.841956	0.398086
	H21	H	0.710546	0.168838	0.595860
	H22	H	0.282223	0.841444	0.595756
	H23	H	0.280682	0.168297	0.398826
	H24	H	0.896948	0.341893	0.211784
	H25	H	0.094668	0.668363	0.211220
	H26	H	0.094554	0.341142	0.782336
	H27	H	0.897320	0.668475	0.782141
	H28	H	0.209871	0.906095	0.333574
	H29	H	0.210362	0.102279	0.660853
	H30	H	0.780865	0.104272	0.333832
	H31	H	0.781874	0.906746	0.661562
	H32	H	0.332204	0.218992	0.898741
	H33	H	0.659922	0.219859	0.095428
	H34	H	0.331810	0.792125	0.094827
	H35	H	0.660166	0.790693	0.898817
	H36	H	0.332138	0.907827	0.211162
	H37	H	0.659624	0.103268	0.211878
	H38	H	0.332325	0.103894	0.783007
	H39	H	0.660560	0.908702	0.784339
	H40	H	0.897453	0.220083	0.333876
	H41	H	0.095076	0.219884	0.660736
	H42	H	0.094963	0.789864	0.334392
	H43	H	0.897832	0.790120	0.660805
	H44	H	0.211672	0.341999	0.898396
	H45	H	0.210285	0.668624	0.094958
	H46	H	0.782230	0.341551	0.094140
	H47	H	0.781714	0.668647	0.898783
	H48	H	0.415946	0.118497	0.592654
	H49	H	0.586893	0.888758	0.592631
	H50	H	0.590312	0.120866	0.405560
	H51	H	0.396429	0.888306	0.409330
	H52	H	0.599984	0.411302	0.116876
	H53	H	0.589213	0.598232	0.880427
	H54	H	0.406957	0.590624	0.109643
	H55	H	0.403291	0.408932	0.879142
	H56	H	0.115937	0.608465	0.403399
	H57	H	0.879999	0.589665	0.594005
	H58	H	0.111639	0.409842	0.583972
	H59	H	0.885645	0.424884	0.411980
	H60	H	0.111046	0.418936	0.591148
	H61	H	0.875933	0.606006	0.594095
	H62	H	0.109334	0.594163	0.413140
	H63	H	0.876468	0.414577	0.389992
	H64	H	0.409033	0.606490	0.113549
	H65	H	0.588177	0.597797	0.881200
	H66	H	0.585599	0.421753	0.108458
	H67	H	0.400651	0.414695	0.879705
	H68	H	0.587850	0.121674	0.402431
	H69	H	0.588359	0.890146	0.588388
	H70	H	0.397619	0.119039	0.577830
	H71	H	0.402606	0.885857	0.394866
	H72	H	0.896154	0.622251	0.087049
	H73	H	0.093204	0.384967	0.096084
	H74	H	0.086854	0.619238	0.907403
	H75	H	0.902916	0.385798	0.895076
	H76	H	0.088459	0.921928	0.611368
	H77	H	0.098340	0.098683	0.377773
	H78	H	0.898079	0.096969	0.614132
	H79	H	0.908470	0.911881	0.383020
	H80	H	0.614779	0.104183	0.903349
	H81	H	0.383205	0.094138	0.081386
	H82	H	0.606753	0.925958	0.083531
	H83	H	0.379300	0.912806	0.902930
	H84	H	0.616826	0.911699	0.105317
	H85	H	0.378471	0.093603	0.098821
	H86	H	0.611195	0.097056	0.909508
	H87	H	0.379641	0.911669	0.904306
	H88	H	0.906969	0.093797	0.611649
	H89	H	0.085177	0.089349	0.384347
	H90	H	0.082103	0.904085	0.614055
	H91	H	0.901701	0.908134	0.379607
	H92	H	0.093125	0.622240	0.903539
	H93	H	0.081171	0.391273	0.089881
	H94	H	0.903998	0.623401	0.096884
	H95	H	0.910270	0.392127	0.906959
	H96	H	0.395508	0.126687	0.599552
	H97	H	0.591442	0.888203	0.591083
	H98	H	0.586289	0.120350	0.405738
	H99	H	0.411611	0.892895	0.406596
	H100	H	0.582238	0.403252	0.113567
	H101	H	0.587710	0.599511	0.880102
	H102	H	0.394860	0.599299	0.115664
	H103	H	0.406216	0.413356	0.882148
	H104	H	0.113653	0.591473	0.395078
	H105	H	0.882671	0.599131	0.580034
	H106	H	0.114468	0.408897	0.594479
	H107	H	0.879132	0.399802	0.410787
	H108	H	0.908678	0.618926	0.085602
	H109	H	0.093789	0.389543	0.082553
	H110	H	0.086715	0.622521	0.900464
	H111	H	0.895085	0.387465	0.908689
	H112	H	0.100301	0.908407	0.617831
	H113	H	0.082607	0.105801	0.380072
	H114	H	0.905447	0.103522	0.614630
	H115	H	0.901224	0.916725	0.382068
	H116	H	0.613017	0.094868	0.900159
	H117	H	0.375955	0.108365	0.089127
	H118	H	0.613942	0.898906	0.081203
	H119	H	0.380620	0.913424	0.904215
	C120	C	0.374596	0.013732	0.618788
	C121	C	0.617610	0.996945	0.618915
	C122	C	0.617473	0.013237	0.375648
	C123	C	0.374501	0.997027	0.375138
	C124	C	0.617289	0.383707	0.004698
	C125	C	0.617427	0.626961	0.988742
	C126	C	0.374727	0.627173	0.004870
	C127	C	0.374655	0.383768	0.988371
	C128	C	0.004769	0.626746	0.375356
	C129	C	0.987793	0.626353	0.618685
	C130	C	0.004615	0.383680	0.618464
	C131	C	0.987994	0.383597	0.375362
	C132	C	0.874429	0.513628	0.118504
	C133	C	0.117612	0.496914	0.118329
	C134	C	0.117410	0.513265	0.875239
	C135	C	0.874223	0.496509	0.875420
	C136	C	0.118170	0.882939	0.505986
	C137	C	0.117458	0.126149	0.488916
	C138	C	0.874301	0.126999	0.505543
	C139	C	0.874867	0.883802	0.489631
	C140	C	0.504636	0.127114	0.875731
	C141	C	0.487574	0.126805	0.118356
	C142	C	0.504285	0.883773	0.118486
	C143	C	0.488051	0.884028	0.875470
	C144	C	0.376895	0.891062	0.674623
	C145	C	0.615122	0.120103	0.673847
	C146	C	0.615682	0.890460	0.320074
	C147	C	0.376348	0.119992	0.320184
	C148	C	0.672435	0.386268	0.881790
	C149	C	0.672998	0.624259	0.111638
	C150	C	0.319917	0.623817	0.881660
	C151	C	0.319320	0.386297	0.111505
	C152	C	0.882014	0.682752	0.377731
	C153	C	0.110929	0.681081	0.616842
	C154	C	0.881516	0.327727	0.616463
	C155	C	0.111101	0.327911	0.377641
	C156	C	0.881144	0.385679	0.673477
	C157	C	0.110931	0.623136	0.673921
	C158	C	0.881755	0.625116	0.319930
	C159	C	0.110993	0.385272	0.319781
	C160	C	0.376833	0.682331	0.881967
	C161	C	0.615546	0.682156	0.111584
	C162	C	0.615156	0.328283	0.881970
	C163	C	0.376843	0.328768	0.111383
	C164	C	0.673246	0.890551	0.377943
	C165	C	0.672720	0.120005	0.616261
	C166	C	0.320452	0.890425	0.615851
	C167	C	0.318708	0.119738	0.377934
	C168	C	0.876973	0.390500	0.173474
	C169	C	0.115260	0.619613	0.173619
	C170	C	0.115281	0.390267	0.820061
	C171	C	0.876794	0.619729	0.820177
	C172	C	0.172614	0.885413	0.382567
	C173	C	0.172222	0.122977	0.612324
	C174	C	0.818998	0.124776	0.382702
	C175	C	0.819725	0.886198	0.612594
	C176	C	0.381269	0.181797	0.878135
	C177	C	0.610994	0.181860	0.115880
	C178	C	0.380730	0.829508	0.115780
	C179	C	0.611428	0.828900	0.878524
	C180	C	0.380819	0.887283	0.173170
	C181	C	0.610936	0.124245	0.173718
	C182	C	0.381303	0.124644	0.820679
	C183	C	0.611537	0.887122	0.821338
	C184	C	0.876721	0.182335	0.382741
	C185	C	0.115239	0.181548	0.612090
	C186	C	0.115305	0.827866	0.382824
	C187	C	0.877248	0.828327	0.612254
	C188	C	0.172928	0.390359	0.878085
	C189	C	0.172459	0.619812	0.115667
	C190	C	0.819350	0.390496	0.115755
	C191	C	0.819217	0.619787	0.877900
	C192	C	0.396489	0.099378	0.596631
	C193	C	0.595446	0.911216	0.597132
	C194	C	0.594705	0.098804	0.397944
	C195	C	0.396901	0.911146	0.397093
	C196	C	0.595506	0.405681	0.090711
	C197	C	0.594975	0.604981	0.902747
	C198	C	0.396926	0.605362	0.090888
	C199	C	0.396786	0.405836	0.902524
	C200	C	0.090770	0.604545	0.397451
	C201	C	0.901596	0.604511	0.596158
	C202	C	0.090260	0.405913	0.596309
	C203	C	0.902507	0.406190	0.397727
	C204	C	0.896350	0.599247	0.096368
	C205	C	0.095632	0.410673	0.096102
	C206	C	0.095338	0.599248	0.897365
	C207	C	0.896234	0.410654	0.897224
	C208	C	0.096538	0.904865	0.592067
	C209	C	0.095285	0.104346	0.402796
	C210	C	0.896885	0.104700	0.591430
	C211	C	0.897119	0.906079	0.403740
	C212	C	0.590698	0.105163	0.897697
	C213	C	0.401501	0.105211	0.096253
	C214	C	0.590333	0.905691	0.096493
	C215	C	0.402001	0.906138	0.897297
	Zn216	Zn	0.496201	0.005874	0.747487
	Zn217	Zn	0.496190	0.005413	0.246984
	Zn218	Zn	0.745779	0.505227	-0.003264
	Zn219	Zn	0.246356	0.505407	-0.002961
	Zn220	Zn	-0.003471	0.754857	0.497682
	Zn221	Zn	-0.003589	0.255423	0.497308
	Zn222	Zn	-0.004411	0.504730	0.746472
	Zn223	Zn	-0.003439	0.504843	0.246742
	Zn224	Zn	0.496309	0.755861	-0.003078
	Zn225	Zn	0.495844	0.255342	-0.003262
	Zn226	Zn	0.746006	0.005302	0.497434
	Zn227	Zn	0.246144	0.004611	0.497052
	N228	N	0.410152	0.968670	0.676436
	N229	N	0.581350	0.042734	0.675533
	N230	N	0.581560	0.967762	0.318742
	N231	N	0.410439	0.042731	0.318564
	N232	N	0.673862	0.420083	0.959143
	N233	N	0.674095	0.590486	0.034125
	N234	N	0.318743	0.589963	0.959056
	N235	N	0.318004	0.420000	0.034022
	N236	N	0.959415	0.683724	0.411480
	N237	N	0.033282	0.682894	0.582976
	N238	N	0.959045	0.326514	0.582754
	N239	N	0.033770	0.326943	0.411570
	N240	N	0.958450	0.419794	0.674777
	N241	N	0.033288	0.589766	0.675059
	N242	N	0.959180	0.590937	0.318241
	N243	N	0.033572	0.419152	0.318030
	N244	N	0.410188	0.684363	0.959556
	N245	N	0.581845	0.683939	0.034117
	N246	N	0.581523	0.326730	0.959429
	N247	N	0.410429	0.327009	0.033920
	N248	N	0.674283	0.967695	0.412044
	N249	N	0.674276	0.042590	0.582730
	N250	N	0.319061	0.967544	0.581608
	N251	N	0.317571	0.042189	0.411532
	N252	N	0.910668	0.467928	0.175209
	N253	N	0.081784	0.542106	0.174943
	N254	N	0.081231	0.467633	0.818533
	N255	N	0.910153	0.542123	0.818317
	N256	N	0.174384	0.919120	0.459963
	N257	N	0.173679	0.089193	0.534784
	N258	N	0.817379	0.091242	0.460179
	N259	N	0.818177	0.920048	0.535092
	N260	N	0.458818	0.183326	0.911817
	N261	N	0.533261	0.183718	0.082352
	N262	N	0.458413	0.827255	0.082620
	N263	N	0.533480	0.826949	0.911392
	N264	N	0.458637	0.920393	0.174875
	N265	N	0.533391	0.090746	0.175342
	N266	N	0.458936	0.091223	0.819179
	N267	N	0.533905	0.920704	0.819520
	N268	N	0.910574	0.183695	0.460263
	N269	N	0.082046	0.183606	0.534312
	N270	N	0.082238	0.826189	0.460687
	N271	N	0.910561	0.826580	0.534801
	N272	N	0.174485	0.467920	0.911533
	N273	N	0.174327	0.542375	0.082341
	N274	N	0.817711	0.467840	0.082211
	N275	N	0.817693	0.542334	0.911544
	O276	O	-0.460114	-0.482021	1.466162
	H277	H	-0.453266	-0.481082	1.469751
	H278	H	-0.460562	-0.480269	1.462795
	O279	O	0.570301	0.477347	0.391344
	H280	H	0.581028	0.472186	0.388282
	H281	H	0.568102	0.469381	0.387015
	O282	O	0.547547	0.494102	0.474766
	H283	H	0.543535	0.492791	0.485821
	H284	H	0.548619	0.494002	0.468068
	O285	O	0.558233	0.549969	0.481857
	H286	H	0.565795	0.555371	0.482290
	H287	H	0.556546	0.549009	0.479250
	O288	O	0.505112	0.526147	0.468625
	H289	H	0.511697	0.524449	0.464727
	H290	H	0.500787	0.530409	0.454942
	O291	O	0.478366	1.486932	1.475749
	H292	H	0.487702	1.492277	1.481560
	H293	H	0.474209	1.492107	1.478157
	O294	O	0.511412	0.446564	0.450766
	H295	H	0.510223	0.444763	0.453929
	H296	H	0.504256	0.443308	0.453551
	O297	O	1.539338	-0.476504	-0.463377
	H298	H	1.531720	-0.473746	-0.464146
	H299	H	1.539274	-0.480169	-0.459530
