data_Molecule from HDF5

_cell_length_a		16.236708
_cell_length_b		16.320277
_cell_length_c		16.324603
_cell_angle_alpha	89.935847
_cell_angle_beta	90.091693
_cell_angle_gamma	90.038930
_symmetry_space_group_name_H-M	'P 1'
_symmetry_Int_Tables_number		1

loop_
	_symmetry_equiv_pos_as_xyz
	x,y,z

loop_
	_atom_site_label
	_atom_site_type_symbol
	_atom_site_fract_x
	_atom_site_fract_y
	_atom_site_fract_z
	H0	H	0.401353	0.836377	0.714069
	H1	H	0.599076	0.162908	0.714882
	H2	H	0.598908	0.836884	0.284929
	H3	H	0.401669	0.163766	0.285275
	H4	H	0.712550	0.403809	0.835992
	H5	H	0.712751	0.596611	0.164051
	H6	H	0.286659	0.597048	0.836879
	H7	H	0.286980	0.403166	0.164316
	H8	H	0.835987	0.713646	0.401044
	H9	H	0.164556	0.712365	0.596676
	H10	H	0.835392	0.286749	0.596748
	H11	H	0.164587	0.287499	0.404439
	H12	H	0.835481	0.401948	0.712982
	H13	H	0.163981	0.597596	0.713873
	H14	H	0.835652	0.597322	0.285925
	H15	H	0.164877	0.403166	0.287635
	H16	H	0.401804	0.714671	0.836540
	H17	H	0.599233	0.715351	0.162689
	H18	H	0.599109	0.284972	0.836601
	H19	H	0.401455	0.284963	0.163422
	H20	H	0.713562	0.836163	0.403355
	H21	H	0.713595	0.163443	0.597104
	H22	H	0.287956	0.834981	0.595458
	H23	H	0.286542	0.163371	0.402646
	H24	H	0.902488	0.336247	0.214335
	H25	H	0.099855	0.663371	0.215440
	H26	H	0.098520	0.336286	0.786527
	H27	H	0.901299	0.662700	0.784514
	H28	H	0.212944	0.902855	0.336116
	H29	H	0.214693	0.096457	0.663610
	H30	H	0.786626	0.096404	0.335886
	H31	H	0.786233	0.901953	0.663518
	H32	H	0.335022	0.214208	0.901949
	H33	H	0.664049	0.214035	0.097669
	H34	H	0.335790	0.786210	0.097964
	H35	H	0.663765	0.786542	0.901887
	H36	H	0.335589	0.903159	0.212040
	H37	H	0.664640	0.096416	0.212522
	H38	H	0.335442	0.097758	0.786085
	H39	H	0.664161	0.903425	0.787397
	H40	H	0.901674	0.214082	0.336769
	H41	H	0.098487	0.213570	0.664018
	H42	H	0.097823	0.785650	0.336431
	H43	H	0.900512	0.784141	0.663052
	H44	H	0.214192	0.336342	0.903751
	H45	H	0.214870	0.663720	0.098514
	H46	H	0.785755	0.336713	0.097889
	H47	H	0.787210	0.664159	0.903381
	H48	H	0.400013	0.118033	0.591976
	H49	H	0.595578	0.883158	0.594406
	H50	H	0.595259	0.117432	0.403833
	H51	H	0.406556	0.880752	0.395263
	H52	H	0.585698	0.403743	0.114954
	H53	H	0.597815	0.592117	0.883082
	H54	H	0.410419	0.599318	0.117027
	H55	H	0.413419	0.416418	0.888996
	H56	H	0.120035	0.597461	0.400840
	H57	H	0.880174	0.599024	0.594259
	H58	H	0.121126	0.399703	0.600351
	H59	H	0.881860	0.402931	0.405431
	H60	H	0.114233	0.403723	0.584014
	H61	H	0.885254	0.590970	0.586737
	H62	H	0.115212	0.596609	0.415555
	H63	H	0.883755	0.406525	0.409533
	H64	H	0.401361	0.593867	0.118747
	H65	H	0.589112	0.593532	0.884785
	H66	H	0.599561	0.399783	0.119272
	H67	H	0.412476	0.395409	0.882877
	H68	H	0.591209	0.116718	0.404263
	H69	H	0.591120	0.883299	0.595748
	H70	H	0.409299	0.116698	0.599973
	H71	H	0.415117	0.886753	0.409942
	H72	H	0.890351	0.619990	0.090539
	H73	H	0.093568	0.381863	0.101180
	H74	H	0.095396	0.618443	0.901627
	H75	H	0.902361	0.382141	0.906394
	H76	H	0.092781	0.898046	0.618119
	H77	H	0.099779	0.097260	0.381328
	H78	H	0.907788	0.099021	0.617279
	H79	H	0.913645	0.912379	0.386666
	H80	H	0.613492	0.086747	0.909012
	H81	H	0.382154	0.090805	0.097128
	H82	H	0.619722	0.900464	0.092900
	H83	H	0.379256	0.900405	0.902151
	H84	H	0.613962	0.910149	0.087517
	H85	H	0.381395	0.098751	0.092685
	H86	H	0.619006	0.095238	0.899221
	H87	H	0.384438	0.905829	0.914834
	H88	H	0.901655	0.092022	0.617686
	H89	H	0.092844	0.087179	0.385736
	H90	H	0.100482	0.909042	0.617211
	H91	H	0.908893	0.896836	0.381658
	H92	H	0.087176	0.614325	0.906287
	H93	H	0.087001	0.386558	0.091620
	H94	H	0.913347	0.619602	0.110141
	H95	H	0.907657	0.382538	0.902327
	H96	H	0.411103	0.113226	0.588663
	H97	H	0.592456	0.884976	0.591867
	H98	H	0.593466	0.115722	0.407743
	H99	H	0.397778	0.882654	0.410401
	H100	H	0.596228	0.413754	0.114971
	H101	H	0.593097	0.600196	0.881676
	H102	H	0.410262	0.588816	0.113803
	H103	H	0.394675	0.407888	0.880702
	H104	H	0.114314	0.583975	0.405775
	H105	H	0.882851	0.588042	0.598201
	H106	H	0.115164	0.416597	0.597018
	H107	H	0.882639	0.408446	0.403547
	H108	H	0.917678	0.609664	0.081800
	H109	H	0.098805	0.384243	0.090402
	H110	H	0.095706	0.615305	0.911175
	H111	H	0.908037	0.385304	0.908843
	H112	H	0.087848	0.909652	0.613466
	H113	H	0.087139	0.098077	0.384117
	H114	H	0.910117	0.090288	0.614413
	H115	H	0.897841	0.909501	0.382237
	H116	H	0.616637	0.099677	0.912591
	H117	H	0.385513	0.091568	0.088796
	H118	H	0.617506	0.910662	0.098736
	H119	H	0.384314	0.914597	0.902711
	C120	C	0.378387	0.007765	0.621215
	C121	C	0.621633	0.991473	0.621880
	C122	C	0.621534	0.008261	0.378133
	C123	C	0.378306	0.991559	0.377739
	C124	C	0.621374	0.378686	0.007851
	C125	C	0.621537	0.622580	0.991598
	C126	C	0.378940	0.621977	0.008582
	C127	C	0.378564	0.378441	0.992220
	C128	C	0.008158	0.621293	0.378576
	C129	C	0.991512	0.620871	0.621527
	C130	C	0.008324	0.378098	0.621723
	C131	C	0.991397	0.377889	0.378472
	C132	C	0.878997	0.508250	0.121627
	C133	C	0.121492	0.492157	0.122049
	C134	C	0.121360	0.508113	0.878513
	C135	C	0.878254	0.491433	0.878064
	C136	C	0.121905	0.877873	0.508238
	C137	C	0.121671	0.121551	0.491961
	C138	C	0.878086	0.121628	0.508283
	C139	C	0.878380	0.877951	0.491677
	C140	C	0.507860	0.121996	0.878591
	C141	C	0.491450	0.121471	0.121118
	C142	C	0.508355	0.879083	0.120986
	C143	C	0.491427	0.878969	0.878613
	C144	C	0.380885	0.884968	0.676317
	C145	C	0.619253	0.114503	0.676711
	C146	C	0.619033	0.885294	0.323469
	C147	C	0.380920	0.114697	0.323217
	C148	C	0.675255	0.382808	0.884777
	C149	C	0.675469	0.618345	0.114898
	C150	C	0.324226	0.618236	0.885460
	C151	C	0.324375	0.382056	0.115417
	C152	C	0.884700	0.675980	0.381054
	C153	C	0.115369	0.675131	0.618069
	C154	C	0.884430	0.324262	0.617963
	C155	C	0.115526	0.324086	0.382474
	C156	C	0.884532	0.381350	0.675640
	C157	C	0.114956	0.618255	0.676237
	C158	C	0.884848	0.618182	0.323879
	C159	C	0.115607	0.381670	0.324889
	C160	C	0.381223	0.676664	0.885332
	C161	C	0.619362	0.677595	0.114357
	C162	C	0.618868	0.323704	0.885181
	C163	C	0.381398	0.323525	0.115096
	C164	C	0.676043	0.884940	0.381847
	C165	C	0.676049	0.114679	0.618207
	C166	C	0.324596	0.884307	0.617264
	C167	C	0.323885	0.114738	0.381484
	C168	C	0.881530	0.385220	0.176381
	C169	C	0.119686	0.614866	0.177249
	C170	C	0.118863	0.385091	0.824001
	C171	C	0.881156	0.614313	0.822811
	C172	C	0.175880	0.881946	0.385005
	C173	C	0.176639	0.117640	0.615047
	C174	C	0.823944	0.117820	0.385070
	C175	C	0.823853	0.881202	0.614615
	C176	C	0.384300	0.176655	0.881135
	C177	C	0.615251	0.176006	0.118286
	C178	C	0.384861	0.824045	0.118551
	C179	C	0.614980	0.824661	0.881805
	C180	C	0.384675	0.882180	0.175081
	C181	C	0.615188	0.118145	0.175678
	C182	C	0.384284	0.118776	0.823741
	C183	C	0.615113	0.882228	0.824426
	C184	C	0.881074	0.176134	0.385305
	C185	C	0.118954	0.175772	0.615200
	C186	C	0.118731	0.823606	0.385177
	C187	C	0.880583	0.822571	0.614423
	C188	C	0.175902	0.384968	0.882670
	C189	C	0.176569	0.615133	0.118818
	C190	C	0.823996	0.385180	0.118423
	C191	C	0.824583	0.614982	0.881815
	C192	C	0.400272	0.093802	0.599936
	C193	C	0.599477	0.905685	0.600446
	C194	C	0.599663	0.094228	0.399208
	C195	C	0.400070	0.905532	0.399042
	C196	C	0.600023	0.399687	0.094171
	C197	C	0.599786	0.601438	0.905439
	C198	C	0.400799	0.600473	0.094391
	C199	C	0.400316	0.400238	0.906281
	C200	C	0.094388	0.599302	0.400981
	C201	C	0.905097	0.599058	0.599423
	C202	C	0.094652	0.399985	0.600134
	C203	C	0.905103	0.399427	0.399773
	C204	C	0.900798	0.594149	0.100421
	C205	C	0.099560	0.406347	0.100601
	C206	C	0.099348	0.593986	0.900076
	C207	C	0.899741	0.405567	0.899446
	C208	C	0.100239	0.899270	0.594210
	C209	C	0.099716	0.100358	0.406045
	C210	C	0.900066	0.100052	0.594422
	C211	C	0.900304	0.899649	0.405587
	C212	C	0.594168	0.100219	0.900428
	C213	C	0.405204	0.099923	0.099248
	C214	C	0.594710	0.900607	0.099391
	C215	C	0.404929	0.900576	0.900123
	Zn216	Zn	0.499714	0.000217	0.750224
	Zn217	Zn	0.499841	-0.000252	0.249282
	Zn218	Zn	0.750044	0.500449	0.000118
	Zn219	Zn	0.250195	0.500407	0.000668
	Zn220	Zn	-0.000197	0.749161	0.500038
	Zn221	Zn	-0.000009	0.250315	0.500235
	Zn222	Zn	0.000155	0.499426	0.749555
	Zn223	Zn	0.000304	0.500130	0.250724
	Zn224	Zn	0.499701	0.751087	-0.000120
	Zn225	Zn	0.500252	0.250014	-0.000130
	Zn226	Zn	0.749959	-0.000194	0.499921
	Zn227	Zn	0.250357	-0.000318	0.500091
	N228	N	0.413774	0.962792	0.678853
	N229	N	0.586052	0.037044	0.679129
	N230	N	0.586009	0.962814	0.320925
	N231	N	0.414074	0.037235	0.320664
	N232	N	0.676842	0.416257	0.962109
	N233	N	0.677010	0.584918	0.037661
	N234	N	0.322724	0.585022	0.962783
	N235	N	0.322733	0.415606	0.038091
	N236	N	0.962632	0.677936	0.414469
	N237	N	0.037587	0.676830	0.584689
	N238	N	0.962427	0.321939	0.585273
	N239	N	0.037684	0.321975	0.415330
	N240	N	0.962496	0.414102	0.678007
	N241	N	0.037017	0.585270	0.678329
	N242	N	0.962484	0.585134	0.322359
	N243	N	0.037477	0.414322	0.322122
	N244	N	0.414596	0.679052	0.962776
	N245	N	0.586457	0.680347	0.036691
	N246	N	0.586160	0.321246	0.962730
	N247	N	0.414111	0.321103	0.037502
	N248	N	0.677698	0.962237	0.415175
	N249	N	0.677532	0.037302	0.584817
	N250	N	0.323134	0.961570	0.583897
	N251	N	0.322276	0.037297	0.414663
	N252	N	0.914940	0.462535	0.178504
	N253	N	0.086054	0.537434	0.179271
	N254	N	0.085572	0.462483	0.821645
	N255	N	0.913907	0.536674	0.820553
	N256	N	0.177695	0.915107	0.462496
	N257	N	0.178350	0.084877	0.537558
	N258	N	0.822224	0.084638	0.462413
	N259	N	0.822344	0.914862	0.537355
	N260	N	0.462037	0.178642	0.914464
	N261	N	0.537434	0.178023	0.085037
	N262	N	0.462750	0.821818	0.085524
	N263	N	0.537160	0.822471	0.914486
	N264	N	0.462351	0.915665	0.176546
	N265	N	0.537444	0.084986	0.177494
	N266	N	0.462040	0.085597	0.821870
	N267	N	0.537224	0.915353	0.822449
	N268	N	0.913774	0.178738	0.463139
	N269	N	0.085350	0.178160	0.537811
	N270	N	0.085861	0.820956	0.462633
	N271	N	0.913919	0.820600	0.537042
	N272	N	0.177672	0.462341	0.915813
	N273	N	0.177868	0.538026	0.085203
	N274	N	0.822154	0.462710	0.085196
	N275	N	0.822464	0.537722	0.915293
