data_Molecule from HDF5

_cell_length_a		16.315405
_cell_length_b		16.196391
_cell_length_c		16.282227
_cell_angle_alpha	89.708973
_cell_angle_beta	89.898403
_cell_angle_gamma	90.173636
_symmetry_space_group_name_H-M	'P 1'
_symmetry_Int_Tables_number		1

loop_
	_symmetry_equiv_pos_as_xyz
	x,y,z

loop_
	_atom_site_label
	_atom_site_type_symbol
	_atom_site_fract_x
	_atom_site_fract_y
	_atom_site_fract_z
	H0	H	0.397228	0.838660	0.714618
	H1	H	0.595367	0.168079	0.710460
	H2	H	0.594521	0.837361	0.284958
	H3	H	0.399177	0.166832	0.282614
	H4	H	0.713824	0.404735	0.835491
	H5	H	0.713279	0.600908	0.162519
	H6	H	0.282472	0.604362	0.835400
	H7	H	0.282043	0.401120	0.162060
	H8	H	0.832731	0.715197	0.400567
	H9	H	0.159704	0.717147	0.595903
	H10	H	0.834118	0.286854	0.598050
	H11	H	0.160169	0.288648	0.400547
	H12	H	0.835302	0.400598	0.716294
	H13	H	0.160703	0.600919	0.711724
	H14	H	0.834303	0.601283	0.283026
	H15	H	0.160247	0.402739	0.283719
	H16	H	0.401752	0.718123	0.834850
	H17	H	0.596345	0.715484	0.163565
	H18	H	0.596742	0.290536	0.834238
	H19	H	0.400252	0.287616	0.162229
	H20	H	0.710240	0.837679	0.400374
	H21	H	0.712890	0.166465	0.597763
	H22	H	0.281891	0.838280	0.598316
	H23	H	0.282890	0.166452	0.397503
	H24	H	0.899667	0.337658	0.212800
	H25	H	0.096671	0.666652	0.212682
	H26	H	0.097604	0.338051	0.784864
	H27	H	0.900813	0.666477	0.783898
	H28	H	0.211567	0.902327	0.334683
	H29	H	0.212052	0.101053	0.661429
	H30	H	0.781565	0.101888	0.335592
	H31	H	0.780810	0.901417	0.662066
	H32	H	0.333932	0.218026	0.898736
	H33	H	0.662164	0.217231	0.095199
	H34	H	0.335372	0.786860	0.097967
	H35	H	0.661878	0.791557	0.901185
	H36	H	0.334742	0.901465	0.213617
	H37	H	0.661447	0.102339	0.213136
	H38	H	0.334527	0.103286	0.782652
	H39	H	0.660426	0.905572	0.783387
	H40	H	0.898955	0.216627	0.334904
	H41	H	0.093814	0.214330	0.662557
	H42	H	0.093037	0.789755	0.334379
	H43	H	0.898519	0.787347	0.662670
	H44	H	0.212817	0.338749	0.900130
	H45	H	0.211695	0.667471	0.096339
	H46	H	0.782264	0.338512	0.098889
	H47	H	0.785403	0.667367	0.900008
	H48	H	0.407399	0.117533	0.587378
	H49	H	0.591655	0.884236	0.594523
	H50	H	0.587037	0.116620	0.409701
	H51	H	0.407691	0.886274	0.405561
	H52	H	0.587723	0.410912	0.114175
	H53	H	0.592862	0.593461	0.883626
	H54	H	0.399228	0.586725	0.113911
	H55	H	0.411814	0.418059	0.886765
	H56	H	0.114929	0.603335	0.405519
	H57	H	0.881025	0.590489	0.592474
	H58	H	0.112219	0.412111	0.589173
	H59	H	0.880809	0.402100	0.414154
	H60	H	0.114874	0.409764	0.596595
	H61	H	0.879590	0.595197	0.595765
	H62	H	0.110372	0.592923	0.411486
	H63	H	0.884426	0.420296	0.407790
	H64	H	0.413456	0.593406	0.111697
	H65	H	0.588935	0.599039	0.882482
	H66	H	0.591002	0.407513	0.115504
	H67	H	0.407361	0.400896	0.879988
	H68	H	0.594671	0.120638	0.405645
	H69	H	0.585587	0.886270	0.593948
	H70	H	0.399779	0.120236	0.587465
	H71	H	0.402850	0.886002	0.410123
	H72	H	0.898311	0.623960	0.097391
	H73	H	0.091593	0.387262	0.086545
	H74	H	0.097035	0.622957	0.901414
	H75	H	0.897708	0.382302	0.906616
	H76	H	0.091781	0.901598	0.617873
	H77	H	0.101943	0.090280	0.380382
	H78	H	0.907270	0.091247	0.613062
	H79	H	0.898840	0.914619	0.381876
	H80	H	0.611646	0.095454	0.911217
	H81	H	0.381690	0.099815	0.086865
	H82	H	0.615052	0.913420	0.096095
	H83	H	0.380430	0.913072	0.902340
	H84	H	0.616452	0.906032	0.093875
	H85	H	0.384624	0.090167	0.088491
	H86	H	0.613154	0.091161	0.900776
	H87	H	0.380472	0.905490	0.907492
	H88	H	0.904665	0.098831	0.616631
	H89	H	0.080206	0.087869	0.386394
	H90	H	0.095456	0.914835	0.614720
	H91	H	0.908450	0.909133	0.383524
	H92	H	0.084129	0.618770	0.901322
	H93	H	0.094535	0.383690	0.094857
	H94	H	0.914017	0.618951	0.095505
	H95	H	0.910520	0.386068	0.901960
	H96	H	0.404498	0.121172	0.594210
	H97	H	0.588419	0.886802	0.588969
	H98	H	0.586732	0.119659	0.400920
	H99	H	0.401909	0.883714	0.404082
	H100	H	0.592522	0.411877	0.114955
	H101	H	0.595361	0.599499	0.881307
	H102	H	0.401558	0.602481	0.117994
	H103	H	0.394122	0.415023	0.880653
	H104	H	0.114134	0.592232	0.399000
	H105	H	0.880767	0.595895	0.590011
	H106	H	0.115208	0.404142	0.590676
	H107	H	0.876740	0.406714	0.395858
	H108	H	0.902827	0.617383	0.082556
	H109	H	0.085707	0.386155	0.093228
	H110	H	0.090879	0.617636	0.912705
	H111	H	0.907609	0.388141	0.915847
	H112	H	0.081992	0.910692	0.612064
	H113	H	0.087787	0.107620	0.378290
	H114	H	0.898545	0.091704	0.615914
	H115	H	0.899321	0.903448	0.379274
	H116	H	0.616150	0.102092	0.902660
	H117	H	0.380763	0.095165	0.096397
	H118	H	0.613416	0.911324	0.088866
	H119	H	0.383701	0.912636	0.910856
	C120	C	0.375338	0.011107	0.619445
	C121	C	0.617657	0.994463	0.620178
	C122	C	0.618021	0.010614	0.377062
	C123	C	0.375605	0.993783	0.376561
	C124	C	0.619488	0.381966	0.006840
	C125	C	0.620864	0.625432	0.990556
	C126	C	0.376405	0.624363	0.006780
	C127	C	0.375685	0.381430	0.990319
	C128	C	0.005165	0.624356	0.376754
	C129	C	0.988597	0.622904	0.620529
	C130	C	0.006084	0.379665	0.621032
	C131	C	0.988400	0.380716	0.377201
	C132	C	0.876134	0.511403	0.120645
	C133	C	0.118914	0.494056	0.120085
	C134	C	0.119641	0.511213	0.876782
	C135	C	0.877196	0.494038	0.878353
	C136	C	0.118141	0.880496	0.506681
	C137	C	0.118522	0.123806	0.489869
	C138	C	0.875079	0.123396	0.507264
	C139	C	0.873930	0.879998	0.490071
	C140	C	0.505917	0.125490	0.875961
	C141	C	0.490266	0.124022	0.119270
	C142	C	0.506911	0.880733	0.121423
	C143	C	0.489475	0.882436	0.877901
	C144	C	0.377133	0.887799	0.676184
	C145	C	0.615414	0.118698	0.673633
	C146	C	0.614932	0.886451	0.322646
	C147	C	0.378413	0.117419	0.320261
	C148	C	0.675086	0.384667	0.883800
	C149	C	0.675393	0.621630	0.113869
	C150	C	0.321062	0.623531	0.884097
	C151	C	0.320110	0.381966	0.113167
	C152	C	0.882021	0.678094	0.379876
	C153	C	0.110946	0.679086	0.616956
	C154	C	0.882986	0.324520	0.618587
	C155	C	0.111504	0.326133	0.379860
	C156	C	0.883637	0.380977	0.677406
	C157	C	0.111434	0.621462	0.674721
	C158	C	0.882821	0.621561	0.321274
	C159	C	0.111267	0.382496	0.321450
	C160	C	0.380245	0.680207	0.883739
	C161	C	0.617578	0.678999	0.114149
	C162	C	0.617074	0.327623	0.883374
	C163	C	0.378989	0.325626	0.113349
	C164	C	0.672470	0.886617	0.380130
	C165	C	0.673940	0.117814	0.617454
	C166	C	0.320001	0.887244	0.618195
	C167	C	0.320592	0.117304	0.377475
	C168	C	0.878389	0.387106	0.175400
	C169	C	0.116906	0.617782	0.174935
	C170	C	0.117241	0.387305	0.822620
	C171	C	0.880402	0.617778	0.822276
	C172	C	0.173611	0.882537	0.383598
	C173	C	0.174111	0.121422	0.612575
	C174	C	0.819838	0.121633	0.384207
	C175	C	0.818767	0.881305	0.613222
	C176	C	0.383148	0.180804	0.878361
	C177	C	0.613199	0.179478	0.116343
	C178	C	0.384031	0.824729	0.118583
	C179	C	0.612884	0.828702	0.880587
	C180	C	0.383771	0.881777	0.176059
	C181	C	0.612776	0.122087	0.174869
	C182	C	0.383244	0.123857	0.820371
	C183	C	0.612054	0.885345	0.821864
	C184	C	0.878198	0.178609	0.383800
	C185	C	0.115250	0.177765	0.613152
	C186	C	0.114529	0.826627	0.383477
	C187	C	0.877945	0.825223	0.613668
	C188	C	0.174931	0.387762	0.879628
	C189	C	0.174068	0.618230	0.117322
	C190	C	0.820329	0.387515	0.118667
	C191	C	0.823040	0.618223	0.879926
	C192	C	0.397428	0.097445	0.596386
	C193	C	0.595263	0.908034	0.598688
	C194	C	0.596042	0.096721	0.398965
	C195	C	0.397669	0.907668	0.399835
	C196	C	0.597010	0.403742	0.092742
	C197	C	0.598818	0.603694	0.904467
	C198	C	0.398373	0.601067	0.092643
	C199	C	0.397865	0.404646	0.904679
	C200	C	0.091035	0.602550	0.398639
	C201	C	0.902562	0.600425	0.599025
	C202	C	0.091950	0.401964	0.598591
	C203	C	0.902792	0.403037	0.399436
	C204	C	0.898502	0.597666	0.098309
	C205	C	0.097056	0.408045	0.098097
	C206	C	0.097110	0.597330	0.898741
	C207	C	0.898902	0.407747	0.901359
	C208	C	0.096230	0.902566	0.592784
	C209	C	0.096433	0.101825	0.403812
	C210	C	0.896961	0.100759	0.592972
	C211	C	0.895721	0.902536	0.403882
	C212	C	0.591567	0.102899	0.898235
	C213	C	0.404507	0.101482	0.097241
	C214	C	0.592726	0.903408	0.099307
	C215	C	0.403701	0.904072	0.900344
	Zn216	Zn	0.496782	0.003631	0.748331
	Zn217	Zn	0.497206	0.002362	0.248782
	Zn218	Zn	0.748402	0.502877	-0.001267
	Zn219	Zn	0.246889	0.503023	-0.000892
	Zn220	Zn	-0.003775	0.752061	0.498497
	Zn221	Zn	-0.002770	0.252263	0.498350
	Zn222	Zn	-0.002179	0.501530	0.749281
	Zn223	Zn	-0.002354	0.502279	0.248415
	Zn224	Zn	0.498670	0.753407	-0.000876
	Zn225	Zn	0.498217	0.253747	-0.002201
	Zn226	Zn	0.745914	0.002136	0.498967
	Zn227	Zn	0.246801	0.002431	0.497673
	N228	N	0.410986	0.965769	0.676913
	N229	N	0.581212	0.040920	0.675473
	N230	N	0.581686	0.964371	0.320750
	N231	N	0.411971	0.039551	0.319739
	N232	N	0.676600	0.417730	0.961465
	N233	N	0.677632	0.589248	0.036003
	N234	N	0.318496	0.589702	0.961785
	N235	N	0.318146	0.416113	0.035578
	N236	N	0.959110	0.679731	0.413763
	N237	N	0.033408	0.680052	0.583795
	N238	N	0.960250	0.323646	0.584226
	N239	N	0.034123	0.324700	0.413730
	N240	N	0.961038	0.414585	0.678803
	N241	N	0.034324	0.587157	0.676642
	N242	N	0.960553	0.588713	0.319299
	N243	N	0.033879	0.415916	0.319861
	N244	N	0.414076	0.680578	0.961073
	N245	N	0.584099	0.681356	0.036444
	N246	N	0.582954	0.326231	0.960748
	N247	N	0.412729	0.325051	0.035994
	N248	N	0.674461	0.964775	0.413278
	N249	N	0.675329	0.039619	0.584884
	N250	N	0.318777	0.964818	0.583384
	N251	N	0.318514	0.039448	0.411523
	N252	N	0.912544	0.464768	0.176693
	N253	N	0.083218	0.539722	0.176693
	N254	N	0.083809	0.465114	0.820706
	N255	N	0.913234	0.539503	0.821180
	N256	N	0.175995	0.915470	0.461550
	N257	N	0.176055	0.088509	0.534769
	N258	N	0.817780	0.087985	0.461837
	N259	N	0.816448	0.914738	0.535438
	N260	N	0.460486	0.181955	0.912186
	N261	N	0.536121	0.180715	0.082383
	N262	N	0.461567	0.824033	0.084971
	N263	N	0.535613	0.826826	0.914691
	N264	N	0.461013	0.915961	0.177793
	N265	N	0.535110	0.088524	0.176876
	N266	N	0.460558	0.090286	0.818729
	N267	N	0.534358	0.918036	0.820099
	N268	N	0.911755	0.180071	0.461249
	N269	N	0.081667	0.179362	0.535764
	N270	N	0.080887	0.825120	0.460880
	N271	N	0.911292	0.823957	0.535907
	N272	N	0.176532	0.465780	0.912775
	N273	N	0.175555	0.540509	0.084010
	N274	N	0.819059	0.465681	0.085048
	N275	N	0.821103	0.540389	0.914138
	O276	O	0.506683	0.544394	0.454680
	H277	H	0.498707	0.545615	0.439880
	H278	H	0.510106	0.563611	0.457969
	O279	O	0.541120	0.524931	0.514039
	H280	H	0.544799	0.512752	0.519889
	H281	H	0.548321	0.527449	0.523245
	O282	O	0.446803	0.441460	0.432026
	H283	H	0.439923	0.431807	0.433028
	H284	H	0.440942	0.444576	0.445441
	O285	O	-0.035895	1.054486	0.988787
	H286	H	-0.041120	1.057539	0.989189
	H287	H	-0.037010	1.042776	0.998732
	O288	O	0.480588	0.503025	0.485865
	H289	H	0.482564	0.500644	0.478346
	H290	H	0.481753	0.508897	0.468667
	O291	O	0.030261	-0.008226	0.964474
	H292	H	0.033854	-0.014982	0.956158
	H293	H	0.027107	-0.002931	0.965267
	O294	O	0.446703	0.539959	0.469292
	H295	H	0.445787	0.539967	0.475421
	H296	H	0.447248	0.538738	0.468803
	O297	O	0.474138	0.468278	0.564858
	H298	H	0.473064	0.465642	0.568289
	H299	H	0.470485	0.465933	0.579418
	O300	O	0.413575	0.486135	0.503671
	H301	H	0.413553	0.485433	0.505904
	H302	H	0.409218	0.480714	0.505156
	O303	O	0.443038	0.512377	0.555975
	H304	H	0.452091	0.516228	0.558247
	H305	H	0.437367	0.518480	0.559092
	O306	O	1.079885	0.014299	1.018362
	H307	H	1.078648	0.018590	1.025130
	H308	H	1.082902	0.024802	1.009725
	O309	O	0.461785	0.524971	0.501989
	H310	H	0.472577	0.528618	0.498786
	H311	H	0.460152	0.523254	0.512877
	O312	O	0.516839	0.429823	0.539865
	H313	H	0.513197	0.435932	0.534248
	H314	H	0.517303	0.429567	0.537164
	O315	O	1.049300	-0.012849	1.037441
	H316	H	1.062394	-0.015008	1.039253
	H317	H	1.047941	-0.017310	1.035832
	O318	O	0.029127	0.010909	-0.034909
	H319	H	0.023817	0.013162	-0.030918
	H320	H	0.026796	0.014032	-0.034612
	O321	O	0.541582	0.505564	0.456279
	H322	H	0.540063	0.501967	0.448944
	H323	H	0.545152	0.504663	0.456148
	O324	O	1.051104	0.010476	-0.014998
	H325	H	1.051146	0.007707	-0.014672
	H326	H	1.066144	0.013235	-0.018618
	O327	O	1.071292	1.042463	-0.006083
	H328	H	1.074093	1.035926	-0.008185
	H329	H	1.071839	1.053677	-0.011258
	O330	O	0.453375	0.412218	0.560925
	H331	H	0.467208	0.412290	0.566172
	H332	H	0.456402	0.410076	0.552398
	O333	O	0.454708	0.476578	0.473126
	H334	H	0.446216	0.484020	0.461496
	H335	H	0.455728	0.478854	0.470518
