data_Molecule from HDF5

_cell_length_a		16.307826
_cell_length_b		16.294172
_cell_length_c		16.204106
_cell_angle_alpha	89.761794
_cell_angle_beta	89.989493
_cell_angle_gamma	89.860697
_symmetry_space_group_name_H-M	'P 1'
_symmetry_Int_Tables_number		1

loop_
	_symmetry_equiv_pos_as_xyz
	x,y,z

loop_
	_atom_site_label
	_atom_site_type_symbol
	_atom_site_fract_x
	_atom_site_fract_y
	_atom_site_fract_z
	H0	H	0.400303	0.832314	0.715696
	H1	H	0.593441	0.161118	0.713832
	H2	H	0.595543	0.833149	0.289016
	H3	H	0.399272	0.160586	0.286856
	H4	H	0.711417	0.398330	0.837241
	H5	H	0.710549	0.592415	0.166385
	H6	H	0.283222	0.597504	0.837342
	H7	H	0.282789	0.398032	0.166297
	H8	H	0.833178	0.712541	0.402072
	H9	H	0.160135	0.710817	0.599672
	H10	H	0.833005	0.282479	0.599385
	H11	H	0.160199	0.282383	0.402072
	H12	H	0.832438	0.399017	0.716059
	H13	H	0.160402	0.594570	0.714696
	H14	H	0.832092	0.595080	0.287242
	H15	H	0.160875	0.400427	0.287818
	H16	H	0.399240	0.712534	0.837663
	H17	H	0.596771	0.710540	0.165767
	H18	H	0.595296	0.283177	0.837178
	H19	H	0.398468	0.282505	0.165907
	H20	H	0.713448	0.833987	0.402995
	H21	H	0.711689	0.160158	0.600664
	H22	H	0.281798	0.833491	0.601629
	H23	H	0.282252	0.161178	0.402148
	H24	H	0.901004	0.333005	0.214565
	H25	H	0.093786	0.661522	0.214324
	H26	H	0.095410	0.333535	0.788191
	H27	H	0.898574	0.660735	0.786511
	H28	H	0.212332	0.897785	0.336904
	H29	H	0.209770	0.092991	0.665651
	H30	H	0.781783	0.096331	0.337445
	H31	H	0.783558	0.897927	0.665897
	H32	H	0.334253	0.212867	0.902371
	H33	H	0.660609	0.212188	0.101968
	H34	H	0.334172	0.782196	0.101511
	H35	H	0.660215	0.782584	0.903400
	H36	H	0.333478	0.899135	0.216097
	H37	H	0.660508	0.094193	0.216115
	H38	H	0.333621	0.096473	0.786918
	H39	H	0.661508	0.899876	0.788835
	H40	H	0.898194	0.211050	0.336906
	H41	H	0.095177	0.208805	0.665951
	H42	H	0.095787	0.782651	0.336505
	H43	H	0.898539	0.781661	0.665590
	H44	H	0.212431	0.334070	0.903220
	H45	H	0.210977	0.661108	0.099550
	H46	H	0.782556	0.333785	0.101902
	H47	H	0.780674	0.660337	0.900189
	H48	H	0.415548	0.108576	0.591549
	H49	H	0.593202	0.882746	0.583028
	H50	H	0.597009	0.113931	0.412043
	H51	H	0.409806	0.881661	0.406755
	H52	H	0.582246	0.399883	0.117609
	H53	H	0.589237	0.594933	0.882896
	H54	H	0.405077	0.586508	0.117492
	H55	H	0.410131	0.396229	0.883598
	H56	H	0.109548	0.591785	0.420884
	H57	H	0.876136	0.596171	0.602362
	H58	H	0.114430	0.393461	0.592613
	H59	H	0.884719	0.410570	0.417742
	H60	H	0.109538	0.407821	0.589004
	H61	H	0.881083	0.595137	0.584521
	H62	H	0.110605	0.578097	0.401540
	H63	H	0.878286	0.408668	0.395830
	H64	H	0.406291	0.592763	0.118139
	H65	H	0.593568	0.589465	0.883905
	H66	H	0.597169	0.399845	0.122147
	H67	H	0.394770	0.404264	0.881634
	H68	H	0.588708	0.115510	0.401349
	H69	H	0.600456	0.874750	0.602673
	H70	H	0.393524	0.112449	0.583491
	H71	H	0.402200	0.881502	0.415926
	H72	H	0.904771	0.614003	0.096690
	H73	H	0.090666	0.382895	0.089767
	H74	H	0.095071	0.613418	0.913182
	H75	H	0.912560	0.381663	0.905350
	H76	H	0.090151	0.888245	0.622293
	H77	H	0.096232	0.087350	0.383217
	H78	H	0.900980	0.080621	0.616826
	H79	H	0.912207	0.899747	0.384895
	H80	H	0.613634	0.082744	0.899343
	H81	H	0.379938	0.090470	0.098482
	H82	H	0.614078	0.902557	0.096008
	H83	H	0.380888	0.901157	0.913451
	H84	H	0.614088	0.902657	0.095217
	H85	H	0.380833	0.094474	0.091084
	H86	H	0.617063	0.101373	0.906128
	H87	H	0.382856	0.910748	0.910164
	H88	H	0.912450	0.091712	0.617110
	H89	H	0.084125	0.086595	0.386319
	H90	H	0.101625	0.912358	0.618801
	H91	H	0.896214	0.902183	0.381333
	H92	H	0.091952	0.616373	0.901826
	H93	H	0.095171	0.379065	0.095872
	H94	H	0.904258	0.612827	0.089909
	H95	H	0.901592	0.382912	0.918080
	H96	H	0.398174	0.118394	0.606473
	H97	H	0.580439	0.882309	0.600732
	H98	H	0.583341	0.109927	0.413659
	H99	H	0.398331	0.878383	0.405518
	H100	H	0.590220	0.412307	0.115580
	H101	H	0.586666	0.588106	0.885858
	H102	H	0.400697	0.589656	0.119899
	H103	H	0.407971	0.413208	0.888362
	H104	H	0.117172	0.600128	0.400519
	H105	H	0.882764	0.580104	0.595130
	H106	H	0.114594	0.404546	0.603513
	H107	H	0.876532	0.390944	0.409616
	H108	H	0.898754	0.615343	0.093814
	H109	H	0.087588	0.381612	0.097837
	H110	H	0.083701	0.611322	0.909312
	H111	H	0.896648	0.376741	0.903371
	H112	H	0.075802	0.909353	0.611525
	H113	H	0.089107	0.097029	0.382054
	H114	H	0.898328	0.095652	0.621979
	H115	H	0.905507	0.914448	0.387748
	H116	H	0.609648	0.087042	0.919257
	H117	H	0.382909	0.085981	0.091739
	H118	H	0.614093	0.902735	0.095183
	H119	H	0.378848	0.903662	0.903588
	C120	C	0.374683	0.005118	0.623335
	C121	C	0.618880	0.988221	0.623395
	C122	C	0.618550	0.005108	0.380579
	C123	C	0.374849	0.988935	0.380241
	C124	C	0.618552	0.375276	0.010093
	C125	C	0.618853	0.618520	0.992967
	C126	C	0.375322	0.618981	0.009881
	C127	C	0.375681	0.375885	0.993368
	C128	C	0.004131	0.618981	0.379110
	C129	C	0.988254	0.618292	0.622415
	C130	C	0.005003	0.374203	0.623763
	C131	C	0.988283	0.375083	0.379324
	C132	C	0.875139	0.505476	0.122480
	C133	C	0.118880	0.489242	0.122547
	C134	C	0.118773	0.505834	0.879699
	C135	C	0.875301	0.488712	0.879880
	C136	C	0.118387	0.874747	0.509416
	C137	C	0.118072	0.117968	0.492658
	C138	C	0.875453	0.118084	0.509926
	C139	C	0.875975	0.876143	0.493032
	C140	C	0.505720	0.119442	0.879274
	C141	C	0.489088	0.118629	0.122966
	C142	C	0.505728	0.874540	0.123953
	C143	C	0.488994	0.876380	0.880749
	C144	C	0.378637	0.881490	0.678387
	C145	C	0.614750	0.112061	0.677043
	C146	C	0.616510	0.882140	0.325989
	C147	C	0.378041	0.111932	0.324707
	C148	C	0.673718	0.377626	0.886284
	C149	C	0.673329	0.614055	0.117018
	C150	C	0.320802	0.617405	0.886517
	C151	C	0.320573	0.377833	0.117159
	C152	C	0.881650	0.674297	0.381400
	C153	C	0.111433	0.672614	0.619420
	C154	C	0.881574	0.320083	0.620460
	C155	C	0.111342	0.320134	0.381830
	C156	C	0.881410	0.378229	0.678074
	C157	C	0.111445	0.615039	0.677071
	C158	C	0.881257	0.615950	0.324446
	C159	C	0.111794	0.378906	0.325050
	C160	C	0.378381	0.674673	0.886736
	C161	C	0.616880	0.672655	0.116780
	C162	C	0.615867	0.320665	0.886314
	C163	C	0.377927	0.320318	0.117074
	C164	C	0.674950	0.882576	0.382785
	C165	C	0.673543	0.111630	0.620771
	C166	C	0.319914	0.881945	0.621510
	C167	C	0.319842	0.111964	0.381887
	C168	C	0.879223	0.382113	0.177473
	C169	C	0.114901	0.612732	0.176791
	C170	C	0.116031	0.382575	0.825489
	C171	C	0.877677	0.611677	0.824223
	C172	C	0.174085	0.877613	0.385911
	C173	C	0.172604	0.114196	0.616505
	C174	C	0.820198	0.116225	0.386335
	C175	C	0.821066	0.877580	0.616750
	C176	C	0.382766	0.174501	0.882085
	C177	C	0.611768	0.173849	0.121650
	C178	C	0.382972	0.819732	0.121875
	C179	C	0.611705	0.820715	0.883010
	C180	C	0.382677	0.877880	0.178908
	C181	C	0.611965	0.115125	0.178305
	C182	C	0.382669	0.116747	0.824526
	C183	C	0.612190	0.878841	0.825887
	C184	C	0.877909	0.173216	0.386158
	C185	C	0.115497	0.171645	0.616726
	C186	C	0.116272	0.820323	0.385615
	C187	C	0.878535	0.820070	0.616675
	C188	C	0.174436	0.382758	0.882424
	C189	C	0.173308	0.612472	0.119997
	C190	C	0.820566	0.382500	0.121367
	C191	C	0.819179	0.611492	0.881100
	C192	C	0.396036	0.090753	0.600782
	C193	C	0.597714	0.902211	0.601793
	C194	C	0.596333	0.091065	0.402540
	C195	C	0.396909	0.902812	0.402867
	C196	C	0.596324	0.397494	0.096176
	C197	C	0.596407	0.597196	0.906568
	C198	C	0.397501	0.596225	0.096289
	C199	C	0.397821	0.398062	0.907044
	C200	C	0.090253	0.596674	0.401194
	C201	C	0.902293	0.596810	0.600510
	C202	C	0.090647	0.395531	0.601521
	C203	C	0.902223	0.396849	0.401352
	C204	C	0.896424	0.591660	0.100082
	C205	C	0.097411	0.403418	0.100901
	C206	C	0.096697	0.591536	0.901593
	C207	C	0.897139	0.402617	0.902432
	C208	C	0.095897	0.896718	0.595333
	C209	C	0.096247	0.096743	0.406000
	C210	C	0.897523	0.095821	0.596564
	C211	C	0.898223	0.898746	0.406988
	C212	C	0.591344	0.097064	0.901655
	C213	C	0.403323	0.096833	0.100283
	C214	C	0.591898	0.896206	0.101897
	C215	C	0.402989	0.898675	0.902690
	Zn216	Zn	0.497295	-0.002822	0.751272
	Zn217	Zn	0.497478	-0.003130	0.251826
	Zn218	Zn	0.746480	0.496769	0.001496
	Zn219	Zn	0.247356	0.497312	0.001607
	Zn220	Zn	-0.003456	0.747001	0.500668
	Zn221	Zn	-0.003127	0.245961	0.501435
	Zn222	Zn	-0.003124	0.497220	0.751251
	Zn223	Zn	-0.003433	0.497557	0.250632
	Zn224	Zn	0.497246	0.746786	0.002323
	Zn225	Zn	0.497345	0.247755	0.001750
	Zn226	Zn	0.747472	-0.002813	0.502112
	Zn227	Zn	0.245948	-0.002957	0.501064
	N228	N	0.411855	0.958933	0.679795
	N229	N	0.581636	0.034466	0.678649
	N230	N	0.581797	0.959134	0.324814
	N231	N	0.411466	0.034224	0.323372
	N232	N	0.675480	0.410983	0.964197
	N233	N	0.674502	0.581163	0.039020
	N234	N	0.318942	0.583561	0.964238
	N235	N	0.319099	0.411575	0.039306
	N236	N	0.959260	0.676187	0.414506
	N237	N	0.033861	0.674761	0.586125
	N238	N	0.959170	0.317358	0.587331
	N239	N	0.033482	0.317764	0.414859
	N240	N	0.959028	0.410970	0.680236
	N241	N	0.033880	0.581931	0.678688
	N242	N	0.958577	0.582149	0.323081
	N243	N	0.034438	0.412355	0.323305
	N244	N	0.411657	0.675781	0.964847
	N245	N	0.583627	0.675576	0.038688
	N246	N	0.582538	0.319024	0.964295
	N247	N	0.411519	0.318866	0.039065
	N248	N	0.676285	0.960094	0.416009
	N249	N	0.676229	0.033839	0.588082
	N250	N	0.317172	0.959635	0.588135
	N251	N	0.317954	0.034427	0.415604
	N252	N	0.912274	0.459629	0.178482
	N253	N	0.081554	0.535228	0.178596
	N254	N	0.082280	0.460021	0.823696
	N255	N	0.911897	0.534496	0.823474
	N256	N	0.175668	0.910491	0.463861
	N257	N	0.174181	0.081635	0.538276
	N258	N	0.818728	0.082644	0.464386
	N259	N	0.819442	0.911749	0.539024
	N260	N	0.460222	0.176200	0.915606
	N261	N	0.534352	0.176266	0.088048
	N262	N	0.460504	0.817787	0.088418
	N263	N	0.534060	0.818949	0.916315
	N264	N	0.460054	0.911344	0.180242
	N265	N	0.534593	0.081528	0.179273
	N266	N	0.460073	0.083358	0.822464
	N267	N	0.534907	0.912907	0.824628
	N268	N	0.911411	0.174576	0.464036
	N269	N	0.082343	0.174083	0.538678
	N270	N	0.082418	0.818233	0.463377
	N271	N	0.912147	0.819229	0.538839
	N272	N	0.176256	0.460259	0.915603
	N273	N	0.175703	0.534891	0.087004
	N274	N	0.818208	0.460132	0.087594
	N275	N	0.817676	0.533904	0.915207
	O276	O	1.019956	1.007336	0.007249
	H277	H	1.010547	1.003677	0.003118
	H278	H	1.017582	1.016814	0.011654
	O279	O	-0.035330	0.045229	-0.082708
	H280	H	-0.036935	0.042989	-0.084439
	H281	H	-0.036331	0.051326	-0.082337
	O282	O	-0.007561	-0.001824	0.915499
	H283	H	-0.010361	-0.003255	0.915928
	H284	H	-0.003590	-0.004793	0.913753
	O285	O	1.013774	1.063873	0.993140
	H286	H	1.011473	1.052686	0.991523
	H287	H	1.008373	1.071156	0.990506
	O288	O	0.408136	0.473466	0.499495
	H289	H	0.408917	0.470972	0.500873
	H290	H	0.419015	0.467498	0.495100
	O291	O	0.370254	0.505046	0.556594
	H292	H	0.361377	0.505676	0.569066
	H293	H	0.354793	0.503812	0.558523
	O294	O	0.060301	-0.010302	-0.025339
	H295	H	0.056414	-0.013114	-0.016149
	H296	H	0.060570	-0.013651	-0.025314
	O297	O	0.446643	0.457252	0.468665
	H298	H	0.448445	0.459140	0.463676
	H299	H	0.442515	0.460954	0.476211
	O300	O	0.051283	1.057665	1.005124
	H301	H	0.043335	1.052915	1.000541
	H302	H	0.053242	1.065839	1.012301
	O303	O	0.400572	0.488582	0.522014
	H304	H	0.392153	0.486503	0.514668
	H305	H	0.412839	0.481294	0.511490
	O306	O	0.034698	-0.029961	0.982456
	H307	H	0.029585	-0.045543	0.987120
	H308	H	0.042712	-0.030365	0.972347
	O309	O	0.970292	1.006166	0.981764
	H310	H	0.965980	1.006549	0.975810
	H311	H	0.981591	1.012043	0.981125
	O312	O	1.016321	0.023766	0.003430
	H313	H	1.019460	0.022156	0.002775
	H314	H	1.015731	0.023980	0.015126
	O315	O	0.445268	0.509132	0.474350
	H316	H	0.435950	0.512493	0.481486
	H317	H	0.433186	0.514677	0.482816
	O318	O	-0.048990	0.985023	-0.053293
	H319	H	-0.048239	0.985944	-0.046076
	H320	H	-0.053672	0.997315	-0.067616
	O321	O	0.979749	1.020640	-0.020731
	H322	H	0.991389	1.022433	-0.015185
	H323	H	0.978851	1.018413	-0.026843
