data_Molecule from HDF5

_cell_length_a		16.396214
_cell_length_b		16.563108
_cell_length_c		16.236737
_cell_angle_alpha	90.260339
_cell_angle_beta	90.394542
_cell_angle_gamma	89.993252
_symmetry_space_group_name_H-M	'P 1'
_symmetry_Int_Tables_number		1

loop_
	_symmetry_equiv_pos_as_xyz
	x,y,z

loop_
	_atom_site_label
	_atom_site_type_symbol
	_atom_site_fract_x
	_atom_site_fract_y
	_atom_site_fract_z
	H0	H	0.396467	0.848952	0.709956
	H1	H	0.601205	0.167145	0.715543
	H2	H	0.597840	0.849482	0.273960
	H3	H	0.392843	0.167549	0.272194
	H4	H	0.717805	0.401319	0.831851
	H5	H	0.723339	0.614948	0.151560
	H6	H	0.280041	0.607345	0.833472
	H7	H	0.281352	0.403282	0.154190
	H8	H	0.838785	0.728853	0.385971
	H9	H	0.155896	0.730205	0.600040
	H10	H	0.841335	0.284643	0.602167
	H11	H	0.155033	0.285154	0.386205
	H12	H	0.840163	0.404346	0.714893
	H13	H	0.160020	0.609188	0.710231
	H14	H	0.840972	0.614352	0.269214
	H15	H	0.160042	0.407368	0.279585
	H16	H	0.393108	0.726370	0.833024
	H17	H	0.609524	0.731958	0.151464
	H18	H	0.606196	0.283135	0.835041
	H19	H	0.392713	0.286369	0.152748
	H20	H	0.719951	0.851771	0.385950
	H21	H	0.719646	0.167160	0.600471
	H22	H	0.278622	0.849088	0.593113
	H23	H	0.275276	0.166168	0.388098
	H24	H	0.894606	0.351201	0.216079
	H25	H	0.103542	0.666989	0.214624
	H26	H	0.106693	0.351914	0.769297
	H27	H	0.897456	0.666992	0.774876
	H28	H	0.211281	0.905025	0.330089
	H29	H	0.218923	0.112603	0.652617
	H30	H	0.775362	0.113708	0.332039
	H31	H	0.779713	0.907848	0.654407
	H32	H	0.341386	0.232711	0.882849
	H33	H	0.655021	0.234028	0.106902
	H34	H	0.342480	0.784151	0.097793
	H35	H	0.657679	0.785572	0.884109
	H36	H	0.336980	0.907720	0.205368
	H37	H	0.656465	0.113432	0.216749
	H38	H	0.337174	0.110097	0.773762
	H39	H	0.657535	0.905614	0.772472
	H40	H	0.887992	0.231561	0.333343
	H41	H	0.108179	0.233456	0.650659
	H42	H	0.097736	0.788905	0.332871
	H43	H	0.889232	0.787962	0.652831
	H44	H	0.222758	0.350362	0.887087
	H45	H	0.222408	0.664801	0.099998
	H46	H	0.773834	0.352001	0.102714
	H47	H	0.774393	0.663053	0.883192
	H48	H	0.406048	0.119561	0.576850
	H49	H	0.586476	0.897088	0.583396
	H50	H	0.574714	0.116095	0.408282
	H51	H	0.397253	0.896698	0.409720
	H52	H	0.581751	0.426180	0.102857
	H53	H	0.587645	0.591658	0.879267
	H54	H	0.413266	0.593467	0.107482
	H55	H	0.412156	0.420086	0.879615
	H56	H	0.108624	0.599348	0.415092
	H57	H	0.881429	0.600145	0.588373
	H58	H	0.109369	0.421566	0.577262
	H59	H	0.887904	0.422103	0.410262
	H60	H	0.111636	0.421547	0.583480
	H61	H	0.883554	0.604183	0.580088
	H62	H	0.111971	0.593682	0.401163
	H63	H	0.884756	0.424631	0.401824
	H64	H	0.417820	0.599811	0.108029
	H65	H	0.580802	0.598220	0.879416
	H66	H	0.584192	0.415113	0.107520
	H67	H	0.411630	0.417348	0.878913
	H68	H	0.593586	0.119499	0.414008
	H69	H	0.588288	0.898756	0.579376
	H70	H	0.403624	0.123045	0.585788
	H71	H	0.396378	0.889268	0.388191
	H72	H	0.909820	0.620993	0.083762
	H73	H	0.092676	0.393040	0.092072
	H74	H	0.087033	0.619360	0.903331
	H75	H	0.907402	0.394164	0.903541
	H76	H	0.091404	0.920707	0.609114
	H77	H	0.077247	0.096129	0.381169
	H78	H	0.909024	0.102362	0.607690
	H79	H	0.910220	0.911098	0.376635
	H80	H	0.608757	0.093803	0.908269
	H81	H	0.384646	0.102366	0.078679
	H82	H	0.613106	0.917174	0.079273
	H83	H	0.389376	0.925262	0.904405
	H84	H	0.611129	0.922601	0.081005
	H85	H	0.387177	0.097402	0.076792
	H86	H	0.611259	0.097314	0.905144
	H87	H	0.380356	0.912709	0.894140
	H88	H	0.908743	0.093690	0.605859
	H89	H	0.085492	0.104118	0.374554
	H90	H	0.083908	0.920221	0.606970
	H91	H	0.900912	0.920251	0.376956
	H92	H	0.092997	0.619328	0.910053
	H93	H	0.084511	0.397482	0.082645
	H94	H	0.917331	0.616292	0.079876
	H95	H	0.912915	0.395821	0.902730
	H96	H	0.412224	0.119611	0.583951
	H97	H	0.591060	0.896727	0.581873
	H98	H	0.587143	0.124969	0.395449
	H99	H	0.415322	0.897651	0.397270
	H100	H	0.592827	0.424016	0.107620
	H101	H	0.589818	0.600295	0.875696
	H102	H	0.410392	0.600020	0.110319
	H103	H	0.409917	0.419022	0.878948
	H104	H	0.115200	0.608578	0.404722
	H105	H	0.885229	0.594917	0.581487
	H106	H	0.112480	0.416426	0.579246
	H107	H	0.882958	0.415931	0.405078
	H108	H	0.909496	0.617208	0.074566
	H109	H	0.097244	0.393980	0.079798
	H110	H	0.094945	0.622366	0.902304
	H111	H	0.910427	0.397167	0.907686
	H112	H	0.087569	0.914372	0.610686
	H113	H	0.089425	0.092178	0.378249
	H114	H	0.916052	0.098580	0.604418
	H115	H	0.913446	0.922381	0.381500
	H116	H	0.610066	0.098006	0.910284
	H117	H	0.385085	0.097474	0.082220
	H118	H	0.614753	0.918791	0.084743
	H119	H	0.385761	0.908453	0.912021
	C120	C	0.376217	0.016041	0.613043
	C121	C	0.620581	1.001119	0.615461
	C122	C	0.617586	0.016325	0.372590
	C123	C	0.372274	0.999357	0.367739
	C124	C	0.619885	0.387051	0.001302
	C125	C	0.620863	0.629400	0.983614
	C126	C	0.380470	0.627929	0.002371
	C127	C	0.378863	0.386744	0.984748
	C128	C	0.007171	0.631239	0.372855
	C129	C	0.989020	0.630659	0.615301
	C130	C	0.007010	0.387214	0.614067
	C131	C	0.990231	0.388317	0.373254
	C132	C	0.878420	0.515370	0.113913
	C133	C	0.122888	0.499297	0.116715
	C134	C	0.122975	0.516248	0.872423
	C135	C	0.877710	0.499456	0.871190
	C136	C	0.117381	0.887354	0.501818
	C137	C	0.117791	0.129912	0.483742
	C138	C	0.876894	0.130513	0.500631
	C139	C	0.876077	0.887229	0.484619
	C140	C	0.505447	0.128581	0.873650
	C141	C	0.489889	0.131412	0.114950
	C142	C	0.507444	0.887304	0.112426
	C143	C	0.490151	0.884789	0.870404
	C144	C	0.376815	0.896527	0.670636
	C145	C	0.620880	0.119543	0.676008
	C146	C	0.617919	0.897261	0.313020
	C147	C	0.372810	0.119252	0.310328
	C148	C	0.679484	0.383269	0.880867
	C149	C	0.683059	0.632803	0.103554
	C150	C	0.319823	0.627348	0.881357
	C151	C	0.319744	0.384407	0.105741
	C152	C	0.886964	0.689371	0.368818
	C153	C	0.108666	0.690138	0.618023
	C154	C	0.888505	0.325532	0.619069
	C155	C	0.108435	0.326921	0.369591
	C156	C	0.887946	0.385326	0.675071
	C157	C	0.110850	0.629873	0.672777
	C158	C	0.888017	0.632374	0.310382
	C159	C	0.110803	0.387722	0.316284
	C160	C	0.375949	0.686531	0.881455
	C161	C	0.626538	0.691304	0.103521
	C162	C	0.623539	0.324545	0.882091
	C163	C	0.375401	0.326412	0.104846
	C164	C	0.678556	0.898377	0.369024
	C165	C	0.679732	0.119698	0.618453
	C166	C	0.317971	0.896666	0.612643
	C167	C	0.314350	0.118850	0.368336
	C168	C	0.875958	0.398168	0.175870
	C169	C	0.123189	0.618878	0.175440
	C170	C	0.124499	0.398418	0.810708
	C171	C	0.877176	0.618743	0.812834
	C172	C	0.173425	0.886447	0.379446
	C173	C	0.179190	0.131914	0.604204
	C174	C	0.815366	0.132564	0.380357
	C175	C	0.817644	0.887762	0.605670
	C176	C	0.387518	0.190450	0.867629
	C177	C	0.608084	0.192382	0.121655
	C178	C	0.389071	0.825715	0.114902
	C179	C	0.609585	0.825122	0.866593
	C180	C	0.386293	0.887191	0.168566
	C181	C	0.608675	0.132871	0.177347
	C182	C	0.385528	0.129643	0.812942
	C183	C	0.609913	0.885340	0.811450
	C184	C	0.871437	0.191313	0.381005
	C185	C	0.123659	0.191765	0.603427
	C186	C	0.117056	0.828360	0.380647
	C187	C	0.872626	0.828182	0.605083
	C188	C	0.182532	0.397822	0.869305
	C189	C	0.182508	0.617821	0.118737
	C190	C	0.815876	0.398774	0.118982
	C191	C	0.815911	0.616695	0.866978
	C192	C	0.400206	0.098952	0.589172
	C193	C	0.595714	0.918838	0.589130
	C194	C	0.592582	0.098591	0.398502
	C195	C	0.396170	0.916316	0.391501
	C196	C	0.593839	0.413886	0.084303
	C197	C	0.594004	0.603859	0.899993
	C198	C	0.406371	0.604491	0.086567
	C199	C	0.403890	0.411627	0.901232
	C200	C	0.090345	0.607275	0.399558
	C201	C	0.905395	0.606735	0.590626
	C202	C	0.089522	0.412553	0.587866
	C203	C	0.906792	0.413549	0.398536
	C204	C	0.904744	0.596973	0.087199
	C205	C	0.098462	0.416533	0.091974
	C206	C	0.098612	0.598703	0.897868
	C207	C	0.903078	0.417211	0.897008
	C208	C	0.094414	0.911513	0.586765
	C209	C	0.091382	0.104712	0.399936
	C210	C	0.903580	0.105325	0.584247
	C211	C	0.900963	0.910966	0.400497
	C212	C	0.588377	0.103310	0.900237
	C213	C	0.407036	0.106248	0.087065
	C214	C	0.591093	0.912453	0.088534
	C215	C	0.406872	0.908693	0.896140
	Zn216	Zn	0.497510	0.008027	0.744084
	Zn217	Zn	0.497065	0.008652	0.241167
	Zn218	Zn	0.748072	0.507447	-0.008275
	Zn219	Zn	0.252152	0.507004	-0.004886
	Zn220	Zn	-0.003444	0.759440	0.494869
	Zn221	Zn	-0.002374	0.258754	0.492016
	Zn222	Zn	-0.000065	0.508837	0.743229
	Zn223	Zn	-0.000006	0.508665	0.245312
	Zn224	Zn	0.500553	0.757443	-0.007618
	Zn225	Zn	0.498702	0.259170	-0.006352
	Zn226	Zn	0.749296	0.009610	0.492348
	Zn227	Zn	0.245059	0.007896	0.491485
	N228	N	0.412119	0.971697	0.671185
	N229	N	0.584983	0.044628	0.674458
	N230	N	0.580581	0.971458	0.315195
	N231	N	0.408063	0.043936	0.309709
	N232	N	0.677295	0.421437	0.956065
	N233	N	0.679643	0.595147	0.028002
	N234	N	0.322372	0.591756	0.957668
	N235	N	0.321460	0.421069	0.030036
	N236	N	0.962031	0.688724	0.407131
	N237	N	0.032006	0.690993	0.583379
	N238	N	0.963559	0.326452	0.582031
	N239	N	0.032135	0.327195	0.404092
	N240	N	0.962597	0.422948	0.672134
	N241	N	0.035341	0.593894	0.671723
	N242	N	0.963600	0.596914	0.312855
	N243	N	0.035915	0.425240	0.318328
	N244	N	0.412927	0.686939	0.957585
	N245	N	0.588860	0.689516	0.027739
	N246	N	0.587522	0.326317	0.958190
	N247	N	0.411334	0.327484	0.028676
	N248	N	0.678249	0.973416	0.405494
	N249	N	0.679902	0.044959	0.581613
	N250	N	0.317324	0.972047	0.577722
	N251	N	0.313569	0.043157	0.402772
	N252	N	0.914215	0.471924	0.172843
	N253	N	0.087162	0.544119	0.174710
	N254	N	0.088075	0.472985	0.812528
	N255	N	0.914673	0.544708	0.815079
	N256	N	0.173613	0.922539	0.455932
	N257	N	0.175802	0.094128	0.528816
	N258	N	0.818615	0.095673	0.455973
	N259	N	0.819598	0.923865	0.529760
	N260	N	0.463065	0.189828	0.904778
	N261	N	0.532868	0.191685	0.083807
	N262	N	0.465593	0.825683	0.080991
	N263	N	0.533980	0.824846	0.902775
	N264	N	0.461020	0.924981	0.167201
	N265	N	0.533989	0.095559	0.173146
	N266	N	0.459962	0.091790	0.816749
	N267	N	0.534699	0.921508	0.813675
	N268	N	0.908807	0.190334	0.456965
	N269	N	0.086303	0.190520	0.527467
	N270	N	0.083038	0.828634	0.457752
	N271	N	0.908131	0.827626	0.528737
	N272	N	0.181454	0.471998	0.907218
	N273	N	0.182885	0.542260	0.083436
	N274	N	0.817234	0.472900	0.081419
	N275	N	0.816055	0.541361	0.902430
	O276	O	-0.209978	1.102710	-0.212981
	H277	H	-0.230613	1.088820	-0.228873
	H278	H	-0.216975	1.085506	-0.182398
	O279	O	0.506182	0.443691	0.434249
	H280	H	0.498271	0.434147	0.434154
	H281	H	0.506857	0.449005	0.434471
	O282	O	-0.123391	-0.038344	0.079613
	H283	H	-0.109498	-0.017518	0.071624
	H284	H	-0.124813	-0.038522	0.096530
	O285	O	1.163206	0.995019	-0.015107
	H286	H	1.163083	1.013323	-0.024000
	H287	H	1.169683	1.003755	-0.010054
	O288	O	0.655554	0.387638	0.354312
	H289	H	0.655030	0.371447	0.378692
	H290	H	0.629875	0.378439	0.356346
	O291	O	0.625311	0.437769	0.564396
	H292	H	0.625846	0.440792	0.573065
	H293	H	0.621752	0.459305	0.557206
	O294	O	0.983682	1.223103	0.774953
	H295	H	0.967476	1.235591	0.754604
	H296	H	0.952448	1.226619	0.776837
	O297	O	0.347263	0.554586	0.670823
	H298	H	0.360033	0.561136	0.680860
	H299	H	0.343138	0.556429	0.644557
	O300	O	0.483291	0.550511	0.325100
	H301	H	0.502078	0.550687	0.334123
	H302	H	0.478807	0.541721	0.315408
	O303	O	1.018217	0.212673	1.189802
	H304	H	1.017611	0.230292	1.216594
	H305	H	1.014895	0.206561	1.162985
	O306	O	0.176634	0.209652	0.976633
	H307	H	0.181795	0.233550	0.972268
	H308	H	0.164713	0.213930	0.947021
	O309	O	0.384374	-0.690666	0.448138
	H310	H	0.372851	-0.703375	0.449773
	H311	H	0.384561	-0.674747	0.468020
	O312	O	0.658283	0.543521	0.307333
	H313	H	0.658694	0.511679	0.305249
	H314	H	0.680015	0.532265	0.296378
	O315	O	0.401669	0.691134	0.317198
	H316	H	0.415425	0.706209	0.301802
	H317	H	0.419564	0.681862	0.322472
	O318	O	-0.167415	-0.207748	0.060278
	H319	H	-0.175191	-0.216176	0.080960
	H320	H	-0.165801	-0.213890	0.075832
	O321	O	0.506411	0.665555	0.376867
	H322	H	0.516196	0.672133	0.364365
	H323	H	0.512557	0.638943	0.373223
	O324	O	1.085831	0.030708	0.833404
	H325	H	1.075527	0.023294	0.849237
	H326	H	1.072780	0.055147	0.813921
	O327	O	0.905258	-0.071331	0.939390
	H328	H	0.918308	-0.074615	0.938956
	H329	H	0.892892	-0.068187	0.948738
	O330	O	-0.042966	1.143621	0.916031
	H331	H	-0.046865	1.126393	0.903820
	H332	H	-0.035690	1.132913	0.919102
	O333	O	0.104547	1.162501	-0.107230
	H334	H	0.087907	1.177443	-0.128759
	H335	H	0.101357	1.151636	-0.115558
	O336	O	0.822957	1.150439	0.045774
	H337	H	0.817148	1.166422	0.037815
	H338	H	0.813699	1.149017	0.046708
	O339	O	-0.049789	0.817983	1.024047
	H340	H	-0.040531	0.805537	1.030725
	H341	H	-0.050557	0.811942	1.003716
	O342	O	0.454528	0.378272	0.313050
	H343	H	0.434532	0.373072	0.324962
	H344	H	0.454239	0.372192	0.306728
	O345	O	-0.158134	-0.141343	0.890440
	H346	H	-0.157675	-0.137838	0.908720
	H347	H	-0.163575	-0.136679	0.899566
	O348	O	0.643583	0.674859	0.475820
	H349	H	0.656643	0.670712	0.470271
	H350	H	0.644710	0.663068	0.456972
	O351	O	1.005005	1.001744	-0.143120
	H352	H	1.005604	0.984824	-0.153363
	H353	H	1.009063	0.993300	-0.136549
	O354	O	0.937986	0.812821	1.140067
	H355	H	0.942845	0.792771	1.153780
	H356	H	0.948781	0.815051	1.130698
	O357	O	0.020028	-0.048528	0.168088
	H358	H	0.013538	-0.055452	0.152785
	H359	H	0.041939	-0.038050	0.173422
	O360	O	0.321049	0.636260	0.487138
	H361	H	0.303473	0.627386	0.479010
	H362	H	0.342187	0.640807	0.459700
	O363	O	1.207677	-0.063331	-0.187803
	H364	H	1.229425	-0.067433	-0.201772
	H365	H	1.197108	-0.043631	-0.184521
	O366	O	-0.689639	-0.655008	1.665329
	H367	H	-0.680535	-0.630916	1.664452
	H368	H	-0.689625	-0.644909	1.654629
	O369	O	1.183893	0.143568	1.178430
	H370	H	1.194472	0.145655	1.128714
	H371	H	1.155902	0.144636	1.192421
	O372	O	0.547601	0.406066	0.686199
	H373	H	0.531843	0.414611	0.688391
	H374	H	0.549632	0.409759	0.698619
	O375	O	0.194778	-0.142848	0.887658
	H376	H	0.182532	-0.138324	0.878652
	H377	H	0.211407	-0.141217	0.885883
	O378	O	0.414136	0.683674	0.552625
	H379	H	0.423051	0.677128	0.549643
	H380	H	0.419157	0.689036	0.533524
	O381	O	0.428287	0.572660	0.568227
	H382	H	0.448479	0.558644	0.541385
	H383	H	0.438972	0.601864	0.569612
	O384	O	0.312073	0.414526	0.470388
	H385	H	0.307771	0.413833	0.462061
	H386	H	0.310940	0.419471	0.458079
	O387	O	0.490418	0.332694	0.478065
	H388	H	0.458047	0.323580	0.498296
	H389	H	0.495889	0.343360	0.491132
	O390	O	0.960254	1.078694	0.075449
	H391	H	0.988456	1.071657	0.085276
	H392	H	0.972315	1.072866	0.075787
	O393	O	0.872614	0.116263	1.058454
	H394	H	0.885982	0.122765	1.044141
	H395	H	0.857534	0.123036	1.042743
	O396	O	0.707845	0.534353	0.693318
	H397	H	0.716023	0.544568	0.699475
	H398	H	0.710756	0.539608	0.706923
	O399	O	0.498870	0.484628	0.385604
	H400	H	0.517863	0.465603	0.381289
	H401	H	0.471188	0.492997	0.406926
	O402	O	1.029886	0.852777	-0.166470
	H403	H	1.022683	0.853063	-0.167866
	H404	H	1.034075	0.826528	-0.183483
	O405	O	0.294168	0.627372	0.331695
	H406	H	0.298546	0.660307	0.336280
	H407	H	0.284527	0.635495	0.313743
	O408	O	0.430118	0.518240	0.686760
	H409	H	0.431021	0.520010	0.700404
	H410	H	0.439923	0.540755	0.672301
	O411	O	0.945961	1.009316	1.021013
	H412	H	0.949413	1.004224	1.020100
	H413	H	0.946039	0.998066	1.031859
	O414	O	0.677287	0.694100	0.643726
	H415	H	0.675202	0.710538	0.642288
	H416	H	0.692772	0.686897	0.623958
	O417	O	0.156171	0.797384	0.883466
	H418	H	0.163593	0.773037	0.857767
	H419	H	0.178969	0.808774	0.882975
	O420	O	-0.178461	0.879573	1.137494
	H421	H	-0.173052	0.914162	1.136566
	H422	H	-0.146764	0.879380	1.150885
	O423	O	-0.177489	1.204798	-0.111016
	H424	H	-0.181430	1.212417	-0.082865
	H425	H	-0.176788	1.181538	-0.113906
	O426	O	0.524088	0.618463	0.680823
	H427	H	0.518604	0.616535	0.660286
	H428	H	0.522955	0.634157	0.696914
	O429	O	0.568700	0.385705	0.502194
	H430	H	0.559463	0.384337	0.519398
	H431	H	0.586581	0.385626	0.500854
	O432	O	1.162928	-0.110765	0.126864
	H433	H	1.174862	-0.089251	0.130058
	H434	H	1.154487	-0.095054	0.105036
	O435	O	0.207847	0.089025	0.201178
	H436	H	0.201607	0.108964	0.196431
	H437	H	0.229974	0.094456	0.220743
	O438	O	-0.299955	1.577809	1.409474
	H439	H	-0.292978	1.572445	1.375656
	H440	H	-0.313765	1.557453	1.413514
	O441	O	0.673089	0.311471	0.447804
	H442	H	0.662165	0.325271	0.467973
	H443	H	0.697207	0.301585	0.460355
