data_Molecule from HDF5

_cell_length_a		16.201695
_cell_length_b		16.527457
_cell_length_c		16.252523
_cell_angle_alpha	89.914184
_cell_angle_beta	90.440731
_cell_angle_gamma	90.219771
_symmetry_space_group_name_H-M	'P 1'
_symmetry_Int_Tables_number		1

loop_
	_symmetry_equiv_pos_as_xyz
	x,y,z

loop_
	_atom_site_label
	_atom_site_type_symbol
	_atom_site_fract_x
	_atom_site_fract_y
	_atom_site_fract_z
	H0	H	0.393877	0.841652	0.723247
	H1	H	0.599362	0.161147	0.722529
	H2	H	0.598265	0.839953	0.285227
	H3	H	0.395518	0.160076	0.285565
	H4	H	0.710643	0.403228	0.841068
	H5	H	0.715387	0.601009	0.166882
	H6	H	0.280172	0.599508	0.841438
	H7	H	0.286293	0.402482	0.168320
	H8	H	0.832855	0.716711	0.398998
	H9	H	0.156078	0.720769	0.611430
	H10	H	0.832984	0.280361	0.606805
	H11	H	0.156422	0.281123	0.402204
	H12	H	0.832030	0.398042	0.720534
	H13	H	0.158158	0.600530	0.722378
	H14	H	0.831949	0.596505	0.288659
	H15	H	0.160494	0.403422	0.294914
	H16	H	0.390081	0.720483	0.843136
	H17	H	0.604522	0.721141	0.164965
	H18	H	0.602019	0.280925	0.843832
	H19	H	0.396848	0.281196	0.165225
	H20	H	0.712147	0.838901	0.403824
	H21	H	0.715431	0.160534	0.605156
	H22	H	0.277851	0.840407	0.607142
	H23	H	0.278660	0.160232	0.403403
	H24	H	0.896686	0.339569	0.220851
	H25	H	0.098510	0.660822	0.223242
	H26	H	0.098821	0.340718	0.786145
	H27	H	0.893863	0.658756	0.783603
	H28	H	0.208960	0.902474	0.340794
	H29	H	0.212262	0.099023	0.668109
	H30	H	0.778368	0.098124	0.341106
	H31	H	0.781272	0.900179	0.667519
	H32	H	0.335768	0.219698	0.899186
	H33	H	0.658881	0.219832	0.111783
	H34	H	0.336520	0.778460	0.108507
	H35	H	0.658729	0.781864	0.900591
	H36	H	0.332542	0.901059	0.216088
	H37	H	0.659345	0.099544	0.222277
	H38	H	0.333455	0.099914	0.788456
	H39	H	0.660935	0.902980	0.790654
	H40	H	0.888414	0.218352	0.343388
	H41	H	0.100983	0.220020	0.665186
	H42	H	0.097927	0.781616	0.343177
	H43	H	0.891090	0.778294	0.665200
	H44	H	0.212215	0.339661	0.904943
	H45	H	0.215795	0.661275	0.105736
	H46	H	0.777682	0.341017	0.107441
	H47	H	0.778714	0.660441	0.901590
	H48	H	0.412916	0.113450	0.602186
	H49	H	0.590466	0.885760	0.597321
	H50	H	0.586817	0.114073	0.407091
	H51	H	0.403168	0.885330	0.406528
	H52	H	0.584409	0.409074	0.119191
	H53	H	0.584002	0.587113	0.891888
	H54	H	0.406738	0.586811	0.118249
	H55	H	0.403261	0.407632	0.887436
	H56	H	0.111511	0.594514	0.419747
	H57	H	0.881974	0.586130	0.590413
	H58	H	0.109885	0.415794	0.599375
	H59	H	0.879191	0.411684	0.410904
	H60	H	0.113622	0.401896	0.596734
	H61	H	0.878421	0.588184	0.595954
	H62	H	0.110514	0.589974	0.415084
	H63	H	0.875990	0.402358	0.409584
	H64	H	0.414390	0.592174	0.117666
	H65	H	0.580873	0.596832	0.889116
	H66	H	0.588749	0.404702	0.121680
	H67	H	0.406054	0.409561	0.888294
	H68	H	0.581128	0.109738	0.416755
	H69	H	0.585964	0.886665	0.600671
	H70	H	0.403306	0.111589	0.585463
	H71	H	0.405854	0.888028	0.415130
	H72	H	0.913094	0.611256	0.093717
	H73	H	0.100985	0.384605	0.097342
	H74	H	0.095200	0.614449	0.917336
	H75	H	0.895030	0.384687	0.917957
	H76	H	0.087817	0.909618	0.619477
	H77	H	0.078682	0.097632	0.389443
	H78	H	0.900462	0.083214	0.619354
	H79	H	0.906965	0.896665	0.386990
	H80	H	0.613275	0.090400	0.911835
	H81	H	0.381558	0.084565	0.098192
	H82	H	0.612681	0.909903	0.094547
	H83	H	0.382201	0.908474	0.915529
	H84	H	0.612370	0.909775	0.094177
	H85	H	0.377421	0.100666	0.095601
	H86	H	0.614899	0.096754	0.914281
	H87	H	0.381834	0.909617	0.915146
	H88	H	0.916973	0.088368	0.616018
	H89	H	0.092728	0.094901	0.385696
	H90	H	0.082638	0.909430	0.618710
	H91	H	0.893287	0.909868	0.386613
	H92	H	0.086141	0.615954	0.905146
	H93	H	0.088716	0.383617	0.109418
	H94	H	0.901825	0.615442	0.092489
	H95	H	0.906764	0.384311	0.904424
	H96	H	0.393979	0.119092	0.601706
	H97	H	0.585968	0.888744	0.595505
	H98	H	0.592195	0.113169	0.417685
	H99	H	0.397437	0.884911	0.413673
	H100	H	0.590405	0.411459	0.119816
	H101	H	0.591260	0.593768	0.886911
	H102	H	0.406520	0.595780	0.121168
	H103	H	0.406636	0.406672	0.887472
	H104	H	0.112594	0.595379	0.412844
	H105	H	0.879745	0.592885	0.591474
	H106	H	0.107566	0.409746	0.585787
	H107	H	0.880481	0.405411	0.418385
	H108	H	0.907054	0.615609	0.102629
	H109	H	0.084382	0.389185	0.093360
	H110	H	0.080682	0.609532	0.917731
	H111	H	0.911573	0.391163	0.920052
	H112	H	0.084900	0.905664	0.620655
	H113	H	0.084206	0.084166	0.392003
	H114	H	0.905334	0.099391	0.622806
	H115	H	0.911131	0.913932	0.392885
	H116	H	0.611209	0.091201	0.918737
	H117	H	0.384141	0.091769	0.083130
	H118	H	0.613129	0.910626	0.094266
	H119	H	0.381254	0.908771	0.914116
	C120	C	0.373561	0.009218	0.626793
	C121	C	0.618953	0.992596	0.627306
	C122	C	0.616876	0.007190	0.383198
	C123	C	0.372949	0.991738	0.381524
	C124	C	0.618353	0.378792	0.013255
	C125	C	0.618252	0.622891	0.995835
	C126	C	0.376489	0.622187	0.012574
	C127	C	0.376480	0.378788	0.995339
	C128	C	0.004191	0.621607	0.383879
	C129	C	0.986998	0.620412	0.624960
	C130	C	0.003316	0.378185	0.625063
	C131	C	0.986402	0.377961	0.383705
	C132	C	0.875958	0.508473	0.126575
	C133	C	0.120831	0.492038	0.129373
	C134	C	0.117667	0.508065	0.883176
	C135	C	0.874190	0.491801	0.882463
	C136	C	0.116075	0.878633	0.512653
	C137	C	0.116745	0.121872	0.496055
	C138	C	0.874958	0.120498	0.512637
	C139	C	0.873617	0.877025	0.496073
	C140	C	0.505853	0.122339	0.883480
	C141	C	0.488451	0.121741	0.124465
	C142	C	0.505458	0.878797	0.124900
	C143	C	0.488873	0.879610	0.884053
	C144	C	0.374154	0.889242	0.684383
	C145	C	0.618713	0.113266	0.683637
	C146	C	0.617103	0.887498	0.324890
	C147	C	0.374893	0.112195	0.324449
	C148	C	0.674130	0.381529	0.890506
	C149	C	0.676912	0.621510	0.117978
	C150	C	0.318033	0.620485	0.890424
	C151	C	0.322376	0.381112	0.118601
	C152	C	0.881409	0.677717	0.381333
	C153	C	0.108139	0.680007	0.628117
	C154	C	0.881284	0.319884	0.625610
	C155	C	0.108596	0.320972	0.383900
	C156	C	0.881045	0.378373	0.682282
	C157	C	0.109110	0.620508	0.683852
	C158	C	0.881045	0.618072	0.326368
	C159	C	0.110489	0.381798	0.330426
	C160	C	0.373369	0.680547	0.891313
	C161	C	0.621841	0.681340	0.116955
	C162	C	0.619751	0.321020	0.891723
	C163	C	0.377735	0.321115	0.117215
	C164	C	0.673882	0.886928	0.383995
	C165	C	0.676700	0.112944	0.625498
	C166	C	0.316587	0.888448	0.626148
	C167	C	0.317183	0.112434	0.383358
	C168	C	0.876810	0.387797	0.182894
	C169	C	0.119624	0.612688	0.185534
	C170	C	0.117629	0.388319	0.825268
	C171	C	0.874418	0.611375	0.823217
	C172	C	0.171617	0.881238	0.389938
	C173	C	0.174171	0.119883	0.618788
	C174	C	0.816596	0.118858	0.390188
	C175	C	0.818272	0.879000	0.618513
	C176	C	0.383971	0.179914	0.881558
	C177	C	0.610388	0.180141	0.128353
	C178	C	0.384229	0.819391	0.125903
	C179	C	0.610692	0.821726	0.882601
	C180	C	0.382288	0.880097	0.179761
	C181	C	0.610684	0.120459	0.183667
	C182	C	0.382809	0.120645	0.826137
	C183	C	0.611662	0.881895	0.827859
	C184	C	0.871426	0.178646	0.391328
	C185	C	0.118794	0.179905	0.617504
	C186	C	0.116149	0.821536	0.390988
	C187	C	0.872983	0.818530	0.617262
	C188	C	0.174220	0.387581	0.884497
	C189	C	0.177602	0.612885	0.126840
	C190	C	0.817496	0.388586	0.126204
	C191	C	0.817549	0.612510	0.882185
	C192	C	0.396595	0.093031	0.603281
	C193	C	0.594758	0.908958	0.604442
	C194	C	0.593357	0.090690	0.406916
	C195	C	0.395561	0.907722	0.404919
	C196	C	0.594725	0.401656	0.098291
	C197	C	0.592742	0.599405	0.911247
	C198	C	0.401899	0.598466	0.097225
	C199	C	0.398686	0.401371	0.909839
	C200	C	0.089518	0.599825	0.408862
	C201	C	0.902078	0.596086	0.599952
	C202	C	0.088229	0.402081	0.600926
	C203	C	0.900756	0.399997	0.406373
	C204	C	0.900245	0.592228	0.103245
	C205	C	0.098010	0.407747	0.106721
	C206	C	0.094317	0.591566	0.906647
	C207	C	0.897599	0.408597	0.907182
	C208	C	0.092157	0.901502	0.597567
	C209	C	0.092069	0.099091	0.411114
	C210	C	0.900319	0.097087	0.597456
	C211	C	0.897010	0.900185	0.410693
	C212	C	0.590970	0.099487	0.907823
	C213	C	0.403222	0.098845	0.099557
	C214	C	0.590618	0.903004	0.101258
	C215	C	0.403794	0.902484	0.908041
	Zn216	Zn	0.496612	0.001041	0.755749
	Zn217	Zn	0.495989	-0.000306	0.252472
	Zn218	Zn	0.746010	0.500854	0.004291
	Zn219	Zn	0.247855	0.499819	0.004434
	Zn220	Zn	-0.005229	0.749415	0.504194
	Zn221	Zn	-0.005252	0.249736	0.504249
	Zn222	Zn	-0.004194	0.499116	0.753526
	Zn223	Zn	-0.003000	0.500086	0.257069
	Zn224	Zn	0.497991	0.751043	0.004344
	Zn225	Zn	0.498127	0.250552	0.004075
	Zn226	Zn	0.746858	-0.000342	0.504407
	Zn227	Zn	0.244540	-0.000134	0.504714
	N228	N	0.409010	0.965134	0.684845
	N229	N	0.583386	0.037499	0.684944
	N230	N	0.582147	0.963204	0.324334
	N231	N	0.408682	0.036073	0.323148
	N232	N	0.673228	0.416740	0.967119
	N233	N	0.674934	0.585962	0.041661
	N234	N	0.319886	0.584820	0.966922
	N235	N	0.321247	0.416126	0.041793
	N236	N	0.958965	0.680061	0.416472
	N237	N	0.030877	0.680157	0.592450
	N238	N	0.958405	0.319590	0.590745
	N239	N	0.030432	0.318349	0.416119
	N240	N	0.957888	0.413926	0.682094
	N241	N	0.032819	0.583876	0.681756
	N242	N	0.958278	0.583957	0.327736
	N243	N	0.033329	0.416342	0.329911
	N244	N	0.408852	0.681948	0.968528
	N245	N	0.586304	0.682385	0.039998
	N246	N	0.586131	0.318988	0.969135
	N247	N	0.410258	0.319450	0.039453
	N248	N	0.673928	0.962346	0.419557
	N249	N	0.676941	0.036922	0.591437
	N250	N	0.316061	0.964126	0.590954
	N251	N	0.315798	0.036568	0.418073
	N252	N	0.912490	0.463322	0.183188
	N253	N	0.085464	0.536536	0.187409
	N254	N	0.083079	0.464139	0.824486
	N255	N	0.908597	0.535455	0.822962
	N256	N	0.171780	0.915933	0.466748
	N257	N	0.173054	0.084413	0.542251
	N258	N	0.818681	0.083368	0.466684
	N259	N	0.818426	0.914564	0.542035
	N260	N	0.461441	0.181131	0.916420
	N261	N	0.533397	0.180936	0.092104
	N262	N	0.462125	0.818404	0.092761
	N263	N	0.533370	0.820122	0.916723
	N264	N	0.458696	0.916360	0.179036
	N265	N	0.533968	0.084719	0.181317
	N266	N	0.459564	0.085566	0.827005
	N267	N	0.534858	0.917093	0.828464
	N268	N	0.907132	0.179681	0.468353
	N269	N	0.083770	0.181218	0.540216
	N270	N	0.082389	0.819699	0.468401
	N271	N	0.906602	0.817427	0.539985
	N272	N	0.174305	0.462869	0.919945
	N273	N	0.178734	0.536808	0.092836
	N274	N	0.816717	0.464603	0.091785
	N275	N	0.817175	0.537107	0.918315
	O276	O	0.443522	0.394568	0.439712
	H277	H	0.439158	0.399376	0.441874
	H278	H	0.455382	0.410372	0.437504
	O279	O	0.495953	0.592374	0.431822
	H280	H	0.510981	0.603829	0.411776
	H281	H	0.505227	0.579001	0.435603
	O282	O	0.806287	0.080129	1.015478
	H283	H	0.791492	0.071114	1.006536
	H284	H	0.799289	0.084652	1.009663
	O285	O	0.598452	0.680571	0.650347
	H286	H	0.601437	0.692272	0.644511
	H287	H	0.586356	0.692955	0.657720
	O288	O	0.844383	0.849774	1.132028
	H289	H	0.852633	0.842493	1.138535
	H290	H	0.852314	0.845314	1.124068
	O291	O	0.052441	0.042270	0.956755
	H292	H	0.063034	0.061276	0.951481
	H293	H	0.047002	0.033862	0.958960
	O294	O	0.588521	0.569382	0.417515
	H295	H	0.603547	0.559140	0.423542
	H296	H	0.575520	0.572207	0.440666
	O297	O	0.461205	0.588817	0.363529
	H298	H	0.468078	0.587450	0.367632
	H299	H	0.460197	0.600290	0.357906
	O300	O	0.354202	0.463993	0.604643
	H301	H	0.337258	0.464744	0.599857
	H302	H	0.353828	0.457239	0.614768
	O303	O	0.900028	0.066831	-0.105304
	H304	H	0.910062	0.054367	-0.114392
	H305	H	0.912119	0.059356	-0.120506
	O306	O	0.464013	0.622046	0.319715
	H307	H	0.464590	0.626839	0.302924
	H308	H	0.485513	0.620011	0.333166
	O309	O	0.423029	0.361977	0.670952
	H310	H	0.416608	0.371229	0.673880
	H311	H	0.412894	0.362170	0.676601
	O312	O	-0.052946	-0.153623	-0.012765
	H313	H	-0.051493	-0.154169	-0.017923
	H314	H	-0.052066	-0.151517	-0.003520
	O315	O	0.532331	0.465040	0.675420
	H316	H	0.544380	0.464819	0.677224
	H317	H	0.522813	0.475702	0.676368
	O318	O	0.120572	0.959390	0.914895
	H319	H	0.116419	0.966237	0.921767
	H320	H	0.113426	0.956222	0.919910
	O321	O	0.300387	0.681339	0.434047
	H322	H	0.292121	0.698556	0.433953
	H323	H	0.311156	0.675819	0.411882
	O324	O	-0.042032	0.923816	-0.019179
	H325	H	-0.041824	0.917116	-0.012872
	H326	H	-0.032249	0.925343	-0.025281
	O327	O	1.611584	0.599294	-0.501241
	H328	H	1.613713	0.593608	-0.500991
	H329	H	1.627364	0.590707	-0.494531
	O330	O	0.108030	-0.002616	1.003576
	H331	H	0.094689	0.000843	1.006674
	H332	H	0.098027	0.007605	1.008358
	O333	O	-0.055672	0.039518	1.105812
	H334	H	-0.065032	0.039129	1.119691
	H335	H	-0.055276	0.016416	1.100055
	O336	O	0.682225	0.587623	0.592625
	H337	H	0.674728	0.581604	0.596021
	H338	H	0.702002	0.591572	0.597338
	O339	O	1.188856	0.154763	0.077975
	H340	H	1.199498	0.173012	0.098064
	H341	H	1.175976	0.167691	0.092295
	O342	O	-0.059688	-0.142560	0.097796
	H343	H	-0.042317	-0.137240	0.099477
	H344	H	-0.044600	-0.135774	0.097501
	O345	O	1.110994	0.232754	1.175737
	H346	H	1.097969	0.234588	1.174712
	H347	H	1.117254	0.248933	1.178339
	O348	O	0.964453	0.937206	-0.099284
	H349	H	0.962095	0.944896	-0.101075
	H350	H	0.978448	0.933829	-0.110471
	O351	O	0.434470	0.679955	0.537885
	H352	H	0.421840	0.670480	0.534325
	H353	H	0.430669	0.681375	0.532470
	O354	O	1.154467	-0.177554	1.050361
	H355	H	1.169963	-0.185036	1.036823
	H356	H	1.143337	-0.169175	1.034389
	O357	O	0.463231	0.596964	0.622012
	H358	H	0.448616	0.591795	0.632225
	H359	H	0.451050	0.601289	0.626861
	O360	O	0.477421	0.486880	0.478242
	H361	H	0.475522	0.491177	0.482285
	H362	H	0.479317	0.498268	0.477690
	O363	O	0.050930	0.975195	1.112015
	H364	H	0.057664	0.962431	1.108469
	H365	H	0.057932	0.985807	1.105597
	O366	O	0.645184	0.461543	0.665139
	H367	H	0.644130	0.464587	0.671625
	H368	H	0.642237	0.462966	0.673023
	O369	O	-0.479219	0.512750	0.427413
	H370	H	-0.482592	0.532277	0.415648
	H371	H	-0.461113	0.496247	0.440212
	O372	O	0.329258	0.373087	0.577069
	H373	H	0.309733	0.373007	0.570564
	H374	H	0.345017	0.373907	0.562874
	O375	O	0.440943	0.395186	0.443712
	H376	H	0.448525	0.386618	0.441692
	H377	H	0.444031	0.395725	0.456097
	O378	O	0.964974	1.093421	-0.028958
	H379	H	0.949947	1.085903	-0.026344
	H380	H	0.966754	1.095024	-0.041196
	O381	O	1.089840	0.086808	-0.162764
	H382	H	1.092570	0.097476	-0.146793
	H383	H	1.093015	0.094710	-0.156509
	O384	O	0.406539	1.386178	-0.581491
	H385	H	0.415213	1.401481	-0.590506
	H386	H	0.417290	1.374612	-0.574314
	O387	O	0.154553	0.110815	0.180637
	H388	H	0.154806	0.124378	0.196142
	H389	H	0.152512	0.109930	0.189641
	O390	O	0.050009	1.148357	-0.035506
	H391	H	0.060956	1.150791	-0.020047
	H392	H	0.052699	1.160015	-0.026273
	O393	O	1.614096	0.417695	0.495584
	H394	H	1.613482	0.424484	0.499437
	H395	H	1.616637	0.422876	0.501712
	O396	O	0.418378	0.469404	0.643028
	H397	H	0.412685	0.470624	0.638772
	H398	H	0.410400	0.471425	0.633792
	O399	O	-0.046966	0.886149	1.007027
	H400	H	-0.036224	0.887798	1.013339
	H401	H	-0.055559	0.889886	1.014609
	O402	O	0.657081	0.422452	0.385747
	H403	H	0.663137	0.410233	0.400386
	H404	H	0.655218	0.424004	0.390484
	O405	O	0.896641	1.058578	-0.087148
	H406	H	0.887748	1.065150	-0.080846
	H407	H	0.911103	1.061576	-0.099913
	O408	O	1.066672	1.001486	-0.120702
	H409	H	1.075387	0.997023	-0.096708
	H410	H	1.074099	1.015875	-0.122828
	O411	O	0.915138	0.099310	1.070984
	H412	H	0.911195	0.097030	1.085197
	H413	H	0.904923	0.105310	1.064859
	O414	O	-0.123936	-0.003557	0.950582
	H415	H	-0.108058	-0.007349	0.941403
	H416	H	-0.131557	0.008746	0.938067
	O417	O	0.292326	0.441649	0.464344
	H418	H	0.292713	0.459607	0.455837
	H419	H	0.283605	0.452506	0.447350
