data_Molecule from HDF5

_cell_length_a		16.233205
_cell_length_b		16.251079
_cell_length_c		16.326674
_cell_angle_alpha	89.912012
_cell_angle_beta	89.859384
_cell_angle_gamma	89.990997
_symmetry_space_group_name_H-M	'P 1'
_symmetry_Int_Tables_number		1

loop_
	_symmetry_equiv_pos_as_xyz
	x,y,z

loop_
	_atom_site_label
	_atom_site_type_symbol
	_atom_site_fract_x
	_atom_site_fract_y
	_atom_site_fract_z
	H0	H	0.391150	0.836564	0.714930
	H1	H	0.591863	0.163662	0.712397
	H2	H	0.593044	0.836873	0.281816
	H3	H	0.393376	0.163577	0.282163
	H4	H	0.707771	0.402870	0.834334
	H5	H	0.706225	0.598352	0.161013
	H6	H	0.277638	0.600863	0.834210
	H7	H	0.276605	0.400615	0.160123
	H8	H	0.827061	0.713790	0.398866
	H9	H	0.155621	0.714644	0.595185
	H10	H	0.827275	0.286317	0.597116
	H11	H	0.156085	0.286159	0.399725
	H12	H	0.828608	0.401089	0.713317
	H13	H	0.155789	0.599415	0.710871
	H14	H	0.827877	0.598749	0.282584
	H15	H	0.155338	0.399739	0.281043
	H16	H	0.393067	0.717468	0.835178
	H17	H	0.590710	0.714681	0.160997
	H18	H	0.592131	0.285719	0.834115
	H19	H	0.393747	0.285200	0.160966
	H20	H	0.706166	0.836215	0.398895
	H21	H	0.705490	0.164272	0.594767
	H22	H	0.276797	0.835481	0.596908
	H23	H	0.278318	0.164380	0.398769
	H24	H	0.891570	0.337558	0.212744
	H25	H	0.092350	0.662968	0.213125
	H26	H	0.091780	0.336484	0.782457
	H27	H	0.894046	0.664375	0.782449
	H28	H	0.206517	0.901000	0.333713
	H29	H	0.206849	0.098349	0.660991
	H30	H	0.778832	0.096810	0.334313
	H31	H	0.775967	0.899745	0.661111
	H32	H	0.328228	0.214901	0.899214
	H33	H	0.657396	0.213182	0.093868
	H34	H	0.328370	0.786037	0.097069
	H35	H	0.656697	0.786775	0.899921
	H36	H	0.328722	0.901202	0.213377
	H37	H	0.656894	0.099179	0.211182
	H38	H	0.328498	0.099307	0.783194
	H39	H	0.655993	0.901796	0.783300
	H40	H	0.890925	0.216310	0.335351
	H41	H	0.090129	0.214006	0.661215
	H42	H	0.090022	0.785023	0.333828
	H43	H	0.893503	0.784164	0.660674
	H44	H	0.206949	0.336796	0.898592
	H45	H	0.206848	0.664502	0.094548
	H46	H	0.778767	0.337187	0.094813
	H47	H	0.777997	0.665170	0.898323
	H48	H	0.399335	0.113728	0.582366
	H49	H	0.586969	0.882069	0.592301
	H50	H	0.585480	0.116185	0.407241
	H51	H	0.406845	0.886384	0.405038
	H52	H	0.573075	0.398895	0.112687
	H53	H	0.596200	0.600858	0.876206
	H54	H	0.400715	0.588635	0.112189
	H55	H	0.395288	0.404350	0.878836
	H56	H	0.111403	0.591318	0.393445
	H57	H	0.875059	0.595537	0.584397
	H58	H	0.105826	0.413749	0.587438
	H59	H	0.871921	0.402216	0.400167
	H60	H	0.110847	0.406062	0.597941
	H61	H	0.877401	0.585794	0.591699
	H62	H	0.109497	0.601965	0.409579
	H63	H	0.877409	0.405621	0.412557
	H64	H	0.402726	0.595732	0.112869
	H65	H	0.586833	0.579906	0.885181
	H66	H	0.597258	0.398762	0.119183
	H67	H	0.400240	0.412657	0.882973
	H68	H	0.588743	0.118793	0.402164
	H69	H	0.580775	0.884107	0.592238
	H70	H	0.393961	0.118224	0.593376
	H71	H	0.394689	0.883125	0.410712
	H72	H	0.891029	0.619587	0.088317
	H73	H	0.080267	0.384137	0.093652
	H74	H	0.088633	0.621154	0.894746
	H75	H	0.907210	0.386190	0.903704
	H76	H	0.085305	0.902986	0.615040
	H77	H	0.076572	0.084002	0.387251
	H78	H	0.902688	0.099922	0.615162
	H79	H	0.912478	0.906825	0.386272
	H80	H	0.609533	0.095510	0.906067
	H81	H	0.373115	0.096747	0.093638
	H82	H	0.613694	0.900018	0.096142
	H83	H	0.376864	0.907767	0.909143
	H84	H	0.607335	0.906035	0.080951
	H85	H	0.376747	0.094318	0.086196
	H86	H	0.608962	0.090235	0.903563
	H87	H	0.375906	0.911377	0.903950
	H88	H	0.889570	0.092609	0.616816
	H89	H	0.080858	0.105829	0.379008
	H90	H	0.086850	0.909545	0.612824
	H91	H	0.892796	0.892843	0.376100
	H92	H	0.076709	0.614376	0.904238
	H93	H	0.084223	0.385791	0.084169
	H94	H	0.901153	0.620035	0.099902
	H95	H	0.896836	0.385323	0.911095
	H96	H	0.406401	0.114451	0.593823
	H97	H	0.583666	0.884689	0.586564
	H98	H	0.582380	0.117356	0.402145
	H99	H	0.397333	0.880795	0.397523
	H100	H	0.587204	0.420271	0.109749
	H101	H	0.573267	0.600017	0.883556
	H102	H	0.395425	0.593889	0.114579
	H103	H	0.405279	0.404147	0.882179
	H104	H	0.103721	0.583218	0.409437
	H105	H	0.872557	0.594963	0.595933
	H106	H	0.109609	0.400248	0.584870
	H107	H	0.876412	0.414989	0.402178
	H108	H	0.905583	0.615347	0.085866
	H109	H	0.090198	0.381756	0.091248
	H110	H	0.091669	0.616487	0.910671
	H111	H	0.895394	0.381565	0.899030
	H112	H	0.080566	0.906638	0.611922
	H113	H	0.098342	0.089334	0.378697
	H114	H	0.901432	0.085453	0.610853
	H115	H	0.889904	0.917704	0.381567
	H116	H	0.610713	0.094763	0.900434
	H117	H	0.376964	0.088725	0.092175
	H118	H	0.607725	0.916094	0.094906
	H119	H	0.373140	0.905575	0.903427
	C120	C	0.370455	0.007753	0.619348
	C121	C	0.613315	0.991533	0.619042
	C122	C	0.613855	0.008798	0.375665
	C123	C	0.370988	0.991755	0.376211
	C124	C	0.614886	0.378119	0.005819
	C125	C	0.613839	0.622094	0.989279
	C126	C	0.370909	0.622015	0.005689
	C127	C	0.371205	0.378247	0.989302
	C128	C	-0.000031	0.620929	0.375822
	C129	C	0.983300	0.620846	0.618494
	C130	C	0.000429	0.378634	0.619140
	C131	C	0.983375	0.378555	0.376071
	C132	C	0.870895	0.509626	0.119153
	C133	C	0.114022	0.491831	0.118630
	C134	C	0.114107	0.508940	0.875037
	C135	C	0.870849	0.492612	0.875533
	C136	C	0.113431	0.877581	0.505486
	C137	C	0.113534	0.121664	0.489716
	C138	C	0.869595	0.121370	0.506385
	C139	C	0.869175	0.877350	0.489155
	C140	C	0.501164	0.122177	0.875396
	C141	C	0.484330	0.121470	0.118598
	C142	C	0.500962	0.878653	0.119794
	C143	C	0.483665	0.879469	0.876744
	C144	C	0.371603	0.885047	0.675922
	C145	C	0.611632	0.114783	0.674180
	C146	C	0.612660	0.885728	0.319878
	C147	C	0.373325	0.114877	0.320573
	C148	C	0.670360	0.381563	0.883246
	C149	C	0.668772	0.619361	0.112203
	C150	C	0.315940	0.620445	0.882922
	C151	C	0.315013	0.380443	0.111577
	C152	C	0.876150	0.675852	0.378674
	C153	C	0.106934	0.676155	0.615380
	C154	C	0.876861	0.323688	0.617446
	C155	C	0.106827	0.323362	0.378492
	C156	C	0.877423	0.380737	0.675210
	C157	C	0.106956	0.618911	0.672803
	C158	C	0.876493	0.618895	0.320844
	C159	C	0.106540	0.379987	0.319806
	C160	C	0.372844	0.678761	0.883438
	C161	C	0.611021	0.676766	0.112363
	C162	C	0.612205	0.323763	0.883041
	C163	C	0.373156	0.322915	0.111884
	C164	C	0.668690	0.885300	0.378340
	C165	C	0.668521	0.115082	0.616051
	C166	C	0.314772	0.884496	0.617335
	C167	C	0.315779	0.115126	0.378217
	C168	C	0.872657	0.386146	0.173862
	C169	C	0.112229	0.614646	0.174293
	C170	C	0.111661	0.385511	0.820247
	C171	C	0.873532	0.615599	0.820245
	C172	C	0.168638	0.880464	0.382608
	C173	C	0.168808	0.118884	0.612335
	C174	C	0.815731	0.118309	0.383229
	C175	C	0.814046	0.879738	0.612330
	C176	C	0.377376	0.177326	0.878438
	C177	C	0.608220	0.175980	0.115156
	C178	C	0.377425	0.823584	0.117615
	C179	C	0.607595	0.824646	0.879554
	C180	C	0.377778	0.881033	0.175215
	C181	C	0.607837	0.119323	0.173476
	C182	C	0.377383	0.119760	0.820873
	C183	C	0.607163	0.881478	0.821457
	C184	C	0.871599	0.177665	0.383892
	C185	C	0.110983	0.176737	0.612172
	C186	C	0.110507	0.822896	0.382405
	C187	C	0.871974	0.822014	0.612201
	C188	C	0.169119	0.385511	0.877782
	C189	C	0.168829	0.615439	0.115404
	C190	C	0.816423	0.385930	0.115483
	C191	C	0.816208	0.616147	0.878146
	C192	C	0.393267	0.093362	0.596433
	C193	C	0.590472	0.905700	0.596897
	C194	C	0.591965	0.095002	0.397375
	C195	C	0.393020	0.905797	0.398095
	C196	C	0.592498	0.399781	0.091767
	C197	C	0.591822	0.600182	0.903881
	C198	C	0.393206	0.599466	0.091139
	C199	C	0.393651	0.400443	0.903429
	C200	C	0.085850	0.598687	0.397708
	C201	C	0.897241	0.598682	0.596911
	C202	C	0.086447	0.400296	0.596719
	C203	C	0.897372	0.401153	0.398293
	C204	C	0.892798	0.596081	0.097746
	C205	C	0.091543	0.406034	0.096314
	C206	C	0.092040	0.595038	0.896798
	C207	C	0.893234	0.406579	0.898157
	C208	C	0.090962	0.899695	0.591217
	C209	C	0.091589	0.099581	0.403670
	C210	C	0.891501	0.099149	0.592086
	C211	C	0.891602	0.899325	0.403454
	C212	C	0.587445	0.099973	0.896970
	C213	C	0.397945	0.099561	0.096899
	C214	C	0.587233	0.900783	0.097427
	C215	C	0.397471	0.901566	0.899096
	Zn216	Zn	0.492106	-0.000019	0.747764
	Zn217	Zn	0.493100	0.000585	0.247580
	Zn218	Zn	0.743258	0.501121	-0.002232
	Zn219	Zn	0.242536	0.500308	-0.003348
	Zn220	Zn	-0.008399	0.749100	0.497326
	Zn221	Zn	-0.008995	0.250295	0.497963
	Zn222	Zn	-0.007720	0.500391	0.747184
	Zn223	Zn	-0.008484	0.500259	0.247047
	Zn224	Zn	0.492116	0.750825	-0.002134
	Zn225	Zn	0.492847	0.249185	-0.002683
	Zn226	Zn	0.741129	-0.000395	0.497766
	Zn227	Zn	0.242078	-0.000245	0.497420
	N228	N	0.405325	0.962731	0.677438
	N229	N	0.578075	0.036910	0.676244
	N230	N	0.579217	0.963390	0.318085
	N231	N	0.407037	0.037310	0.319253
	N232	N	0.671876	0.414876	0.960740
	N233	N	0.670446	0.585798	0.035003
	N234	N	0.314537	0.585965	0.959904
	N235	N	0.313526	0.413999	0.034184
	N236	N	0.953949	0.677288	0.412410
	N237	N	0.029144	0.677516	0.582173
	N238	N	0.954258	0.322300	0.583194
	N239	N	0.029372	0.322346	0.412919
	N240	N	0.955172	0.414248	0.676349
	N241	N	0.029266	0.585034	0.674579
	N242	N	0.954197	0.585423	0.319072
	N243	N	0.028794	0.413567	0.318125
	N244	N	0.406532	0.679709	0.960692
	N245	N	0.577679	0.678823	0.034968
	N246	N	0.578620	0.321560	0.960361
	N247	N	0.407556	0.321792	0.034830
	N248	N	0.669510	0.962775	0.412542
	N249	N	0.669589	0.037527	0.582434
	N250	N	0.313970	0.961747	0.582847
	N251	N	0.314138	0.037545	0.412186
	N252	N	0.905967	0.463974	0.175835
	N253	N	0.078628	0.536998	0.176242
	N254	N	0.078411	0.463461	0.818222
	N255	N	0.906805	0.537797	0.818773
	N256	N	0.170367	0.913746	0.460041
	N257	N	0.170462	0.085397	0.535002
	N258	N	0.814658	0.083905	0.460124
	N259	N	0.811998	0.912984	0.534677
	N260	N	0.455362	0.178910	0.911325
	N261	N	0.530529	0.177181	0.081755
	N262	N	0.455196	0.821931	0.083880
	N263	N	0.529779	0.823285	0.913375
	N264	N	0.455609	0.914459	0.176664
	N265	N	0.529680	0.086253	0.175831
	N266	N	0.455235	0.086307	0.818811
	N267	N	0.529147	0.914672	0.819598
	N268	N	0.904388	0.179784	0.461573
	N269	N	0.077665	0.178612	0.534657
	N270	N	0.077026	0.820959	0.459908
	N271	N	0.905674	0.820327	0.534903
	N272	N	0.170930	0.463074	0.911072
	N273	N	0.170028	0.537945	0.081563
	N274	N	0.815248	0.463707	0.082136
	N275	N	0.814272	0.538416	0.911658
	O276	O	0.422979	0.478567	0.437679
	H277	H	0.413411	0.478465	0.438476
	H278	H	0.418434	0.487421	0.435988
	O279	O	0.464564	0.471835	0.471488
	H280	H	0.464392	0.477700	0.470121
	H281	H	0.454279	0.468969	0.470364
	O282	O	0.447567	0.380309	0.550750
	H283	H	0.452789	0.381017	0.542602
	H284	H	0.448892	0.375365	0.542135
	O285	O	0.006023	1.077913	0.994552
	H286	H	-0.004500	1.078413	0.986465
	H287	H	0.007238	1.087464	1.005657
	O288	O	0.478959	0.443596	0.526328
	H289	H	0.472121	0.439259	0.519233
	H290	H	0.479773	0.441324	0.523268
	O291	O	0.511116	0.469676	1.573014
	H292	H	0.510745	0.475740	1.577760
	H293	H	0.504874	0.463175	1.580319
	O294	O	0.537332	0.510300	0.510933
	H295	H	0.546856	0.517855	0.513363
	H296	H	0.533217	0.508297	0.501275
	O297	O	0.545189	0.464429	0.530385
	H298	H	0.545785	0.462698	0.538063
	H299	H	0.545923	0.464463	0.534603
	O300	O	0.488922	0.519418	0.530801
	H301	H	0.489327	0.521523	0.542815
	H302	H	0.479903	0.517311	0.524334
	O303	O	0.480780	0.618588	0.537938
	H304	H	0.477012	0.625928	0.550327
	H305	H	0.477516	0.619444	0.542050
	O306	O	0.998455	0.079793	1.005310
	H307	H	1.005045	0.083016	1.016628
	H308	H	1.005793	0.079414	1.005183
	O309	O	0.384636	0.544179	0.493820
	H310	H	0.385876	0.542330	0.499657
	H311	H	0.387804	0.547177	0.488906
	O312	O	0.449339	0.539384	0.464220
	H313	H	0.456570	0.542721	0.471692
	H314	H	0.438877	0.536104	0.463097
	O315	O	0.971638	0.065895	1.043300
	H316	H	0.968870	0.060176	1.049268
	H317	H	0.968552	0.067420	1.039172
	O318	O	0.511002	-0.451186	-0.542831
	H319	H	0.514383	-0.453478	-0.552269
	H320	H	0.518412	-0.445484	-0.532675
	O321	O	0.521597	0.567165	0.473364
	H322	H	0.510897	0.561219	0.472833
	H323	H	0.524038	0.567703	0.464478
	O324	O	1.037471	0.053894	0.035222
	H325	H	1.033193	0.048934	0.036549
	H326	H	1.041897	0.060066	0.030484
	O327	O	1.002841	1.024499	0.005760
	H328	H	1.006120	1.023868	-0.002742
	H329	H	0.996598	1.028046	0.001072
	O330	O	0.509034	0.506891	0.517916
	H331	H	0.500786	0.505743	0.532844
	H332	H	0.519077	0.506707	0.502711
	O333	O	0.481532	0.490467	0.478535
	H334	H	0.479046	0.485362	0.467045
	H335	H	0.488007	0.496633	0.479318
