data_Molecule from HDF5

_cell_length_a		16.312158
_cell_length_b		16.268423
_cell_length_c		16.129091
_cell_angle_alpha	89.641853
_cell_angle_beta	89.770488
_cell_angle_gamma	90.210657
_symmetry_space_group_name_H-M	'P 1'
_symmetry_Int_Tables_number		1

loop_
	_symmetry_equiv_pos_as_xyz
	x,y,z

loop_
	_atom_site_label
	_atom_site_type_symbol
	_atom_site_fract_x
	_atom_site_fract_y
	_atom_site_fract_z
	H0	H	0.385632	0.832355	0.712148
	H1	H	0.582952	0.160962	0.705294
	H2	H	0.582560	0.831666	0.281756
	H3	H	0.388873	0.160233	0.281174
	H4	H	0.701487	0.398363	0.831515
	H5	H	0.699661	0.595394	0.160538
	H6	H	0.272367	0.595848	0.830516
	H7	H	0.270314	0.394688	0.160239
	H8	H	0.822563	0.711120	0.395971
	H9	H	0.147980	0.710662	0.596169
	H10	H	0.822467	0.277404	0.599233
	H11	H	0.148745	0.279690	0.395350
	H12	H	0.822189	0.395409	0.713550
	H13	H	0.149460	0.591348	0.707846
	H14	H	0.821889	0.593843	0.281627
	H15	H	0.148833	0.398014	0.281694
	H16	H	0.388681	0.710920	0.830341
	H17	H	0.587129	0.711856	0.159572
	H18	H	0.583854	0.285120	0.829430
	H19	H	0.385727	0.280496	0.159723
	H20	H	0.701486	0.832828	0.394354
	H21	H	0.703367	0.158501	0.595176
	H22	H	0.267798	0.832410	0.599333
	H23	H	0.268131	0.157972	0.393158
	H24	H	0.887093	0.330723	0.211038
	H25	H	0.083362	0.659673	0.208524
	H26	H	0.082531	0.331202	0.784085
	H27	H	0.889734	0.659857	0.782823
	H28	H	0.200164	0.895029	0.331573
	H29	H	0.200223	0.093664	0.660688
	H30	H	0.774056	0.095012	0.330419
	H31	H	0.767134	0.893364	0.659293
	H32	H	0.321548	0.212489	0.893772
	H33	H	0.648760	0.211266	0.091706
	H34	H	0.323818	0.777499	0.097772
	H35	H	0.649155	0.782119	0.893054
	H36	H	0.322829	0.895213	0.210876
	H37	H	0.649523	0.093536	0.206238
	H38	H	0.320621	0.094581	0.780205
	H39	H	0.649155	0.901331	0.779764
	H40	H	0.886732	0.211059	0.332023
	H41	H	0.083573	0.207401	0.661715
	H42	H	0.083372	0.782136	0.330894
	H43	H	0.885665	0.780861	0.660897
	H44	H	0.202341	0.333518	0.894880
	H45	H	0.202420	0.658293	0.095610
	H46	H	0.766904	0.332657	0.099955
	H47	H	0.771109	0.659482	0.895363
	H48	H	0.384219	0.114171	0.584726
	H49	H	0.579705	0.876956	0.593887
	H50	H	0.573810	0.111628	0.397480
	H51	H	0.391469	0.880686	0.410867
	H52	H	0.582292	0.398410	0.116948
	H53	H	0.576718	0.586620	0.879386
	H54	H	0.390243	0.585970	0.113015
	H55	H	0.387859	0.396631	0.873051
	H56	H	0.103790	0.589094	0.397195
	H57	H	0.866403	0.597016	0.589392
	H58	H	0.098668	0.405186	0.585101
	H59	H	0.870205	0.401333	0.407126
	H60	H	0.103576	0.402806	0.596359
	H61	H	0.871979	0.584984	0.580601
	H62	H	0.102084	0.593328	0.405794
	H63	H	0.869979	0.402597	0.405580
	H64	H	0.396059	0.583689	0.111365
	H65	H	0.578369	0.594079	0.877332
	H66	H	0.577648	0.410013	0.110920
	H67	H	0.388020	0.414140	0.878169
	H68	H	0.582167	0.111316	0.407219
	H69	H	0.568378	0.882440	0.585523
	H70	H	0.394884	0.112465	0.591886
	H71	H	0.385582	0.876588	0.400404
	H72	H	0.907042	0.609921	0.097344
	H73	H	0.072268	0.381673	0.086628
	H74	H	0.085457	0.612953	0.907139
	H75	H	0.889590	0.377783	0.902703
	H76	H	0.076426	0.898521	0.615126
	H77	H	0.072366	0.086167	0.381516
	H78	H	0.894064	0.085408	0.613068
	H79	H	0.891534	0.907451	0.378878
	H80	H	0.596862	0.084004	0.906213
	H81	H	0.372784	0.083716	0.078901
	H82	H	0.595731	0.910199	0.074160
	H83	H	0.368392	0.898803	0.903997
	H84	H	0.604047	0.911233	0.099904
	H85	H	0.367394	0.084389	0.096968
	H86	H	0.603651	0.089489	0.889462
	H87	H	0.371072	0.904746	0.909430
	H88	H	0.890821	0.086224	0.614675
	H89	H	0.077905	0.092327	0.377349
	H90	H	0.080072	0.903813	0.614964
	H91	H	0.897974	0.902290	0.379147
	H92	H	0.081387	0.615020	0.895513
	H93	H	0.084422	0.378447	0.083289
	H94	H	0.893004	0.606062	0.070641
	H95	H	0.896021	0.380713	0.906637
	H96	H	0.395536	0.108361	0.579230
	H97	H	0.581719	0.880529	0.580017
	H98	H	0.585435	0.115717	0.396337
	H99	H	0.398002	0.879724	0.399472
	H100	H	0.569820	0.398890	0.112051
	H101	H	0.583983	0.588230	0.876851
	H102	H	0.395775	0.590086	0.113187
	H103	H	0.403098	0.404199	0.880458
	H104	H	0.099572	0.584604	0.404349
	H105	H	0.868144	0.582330	0.596666
	H106	H	0.103090	0.394382	0.587454
	H107	H	0.869204	0.400242	0.405464
	H108	H	0.878107	0.618094	0.094311
	H109	H	0.079994	0.376601	0.095358
	H110	H	0.072578	0.610577	0.904260
	H111	H	0.889539	0.379496	0.910823
	H112	H	0.074311	0.903202	0.611888
	H113	H	0.080549	0.084198	0.378663
	H114	H	0.891418	0.083158	0.612857
	H115	H	0.891001	0.899321	0.376392
	H116	H	0.602602	0.101560	0.903464
	H117	H	0.366778	0.099190	0.085754
	H118	H	0.606516	0.889214	0.085601
	H119	H	0.370543	0.906623	0.900813
	C120	C	0.362749	0.003727	0.616608
	C121	C	0.606124	0.988127	0.615058
	C122	C	0.608087	0.004463	0.372187
	C123	C	0.362974	0.986857	0.373466
	C124	C	0.606029	0.375257	0.004092
	C125	C	0.608267	0.618094	0.986845
	C126	C	0.365799	0.616695	0.003720
	C127	C	0.363719	0.374719	0.986326
	C128	C	-0.006057	0.617509	0.373797
	C129	C	0.976754	0.616591	0.617504
	C130	C	-0.006223	0.371867	0.619161
	C131	C	0.977255	0.373014	0.375748
	C132	C	0.862721	0.503761	0.118643
	C133	C	0.107530	0.486580	0.117255
	C134	C	0.107887	0.504606	0.873841
	C135	C	0.863929	0.487493	0.876164
	C136	C	0.105974	0.873773	0.504811
	C137	C	0.106326	0.115953	0.487886
	C138	C	0.864163	0.115654	0.504572
	C139	C	0.863338	0.873419	0.486866
	C140	C	0.493221	0.120097	0.871080
	C141	C	0.477155	0.117591	0.115453
	C142	C	0.494659	0.873626	0.116799
	C143	C	0.477608	0.875290	0.874006
	C144	C	0.365298	0.881176	0.673864
	C145	C	0.603760	0.111600	0.668685
	C146	C	0.604036	0.880899	0.318339
	C147	C	0.366923	0.110621	0.318223
	C148	C	0.662500	0.378401	0.880229
	C149	C	0.662574	0.615761	0.111070
	C150	C	0.310583	0.615579	0.879720
	C151	C	0.308121	0.374958	0.110647
	C152	C	0.871350	0.672932	0.375789
	C153	C	0.099375	0.672557	0.616026
	C154	C	0.871001	0.316008	0.618549
	C155	C	0.100005	0.317805	0.376178
	C156	C	0.870770	0.374671	0.675343
	C157	C	0.100303	0.613032	0.671373
	C158	C	0.870963	0.614643	0.318805
	C159	C	0.100079	0.376673	0.319555
	C160	C	0.368376	0.672767	0.879570
	C161	C	0.606406	0.673768	0.110576
	C162	C	0.604300	0.322064	0.879169
	C163	C	0.365518	0.318079	0.110385
	C164	C	0.663057	0.881399	0.374494
	C165	C	0.663705	0.110309	0.613859
	C166	C	0.306770	0.881016	0.617481
	C167	C	0.307180	0.109690	0.374236
	C168	C	0.865554	0.380108	0.173919
	C169	C	0.104443	0.610392	0.171390
	C170	C	0.104347	0.380834	0.820222
	C171	C	0.867994	0.610538	0.819847
	C172	C	0.161974	0.875386	0.380793
	C173	C	0.162168	0.113608	0.611495
	C174	C	0.810371	0.115219	0.380296
	C175	C	0.806044	0.874084	0.610300
	C176	C	0.370421	0.175075	0.873325
	C177	C	0.600047	0.172910	0.112164
	C178	C	0.372411	0.816253	0.117132
	C179	C	0.600454	0.820353	0.873919
	C180	C	0.371774	0.875078	0.172947
	C181	C	0.600465	0.114632	0.169342
	C182	C	0.369870	0.116204	0.816927
	C183	C	0.600399	0.879492	0.817478
	C184	C	0.866666	0.172645	0.381056
	C185	C	0.104431	0.170369	0.612107
	C186	C	0.103800	0.819280	0.380440
	C187	C	0.864725	0.817767	0.611167
	C188	C	0.163884	0.382045	0.875294
	C189	C	0.163674	0.609757	0.115446
	C190	C	0.805649	0.381236	0.118681
	C191	C	0.809396	0.610527	0.876549
	C192	C	0.385018	0.089561	0.592367
	C193	C	0.583366	0.902341	0.592821
	C194	C	0.586790	0.090516	0.394030
	C195	C	0.385063	0.901209	0.396778
	C196	C	0.583198	0.396308	0.090711
	C197	C	0.586136	0.596265	0.900233
	C198	C	0.387803	0.593545	0.090113
	C199	C	0.386253	0.398035	0.899632
	C200	C	0.079518	0.595451	0.395994
	C201	C	0.891063	0.594439	0.595467
	C202	C	0.079482	0.394267	0.596421
	C203	C	0.891876	0.395021	0.399118
	C204	C	0.886032	0.589227	0.094673
	C205	C	0.085272	0.401105	0.095110
	C206	C	0.086115	0.590491	0.895754
	C207	C	0.885427	0.401385	0.899620
	C208	C	0.083619	0.895513	0.591420
	C209	C	0.083667	0.094013	0.401499
	C210	C	0.885834	0.091975	0.591278
	C211	C	0.886645	0.896342	0.400352
	C212	C	0.578807	0.098209	0.893307
	C213	C	0.391240	0.095592	0.093627
	C214	C	0.580015	0.896801	0.093384
	C215	C	0.392217	0.896897	0.897841
	Zn216	Zn	0.484539	-0.003154	0.744007
	Zn217	Zn	0.485334	-0.004172	0.244824
	Zn218	Zn	0.734556	0.495766	-0.003205
	Zn219	Zn	0.236593	0.496121	-0.004584
	Zn220	Zn	-0.014931	0.745579	0.496024
	Zn221	Zn	-0.014926	0.243500	0.497122
	Zn222	Zn	-0.014438	0.495496	0.746615
	Zn223	Zn	-0.014764	0.495008	0.246292
	Zn224	Zn	0.486364	0.745567	-0.004775
	Zn225	Zn	0.484929	0.247574	-0.006290
	Zn226	Zn	0.735833	-0.004098	0.494717
	Zn227	Zn	0.233957	-0.005595	0.495860
	N228	N	0.399751	0.958404	0.673034
	N229	N	0.568567	0.034688	0.669589
	N230	N	0.570688	0.958335	0.316880
	N231	N	0.400972	0.033369	0.317758
	N232	N	0.663667	0.410619	0.958880
	N233	N	0.663808	0.581699	0.033175
	N234	N	0.309013	0.581261	0.957825
	N235	N	0.306740	0.409255	0.032497
	N236	N	0.948675	0.674883	0.409190
	N237	N	0.021593	0.674675	0.583156
	N238	N	0.948355	0.314276	0.584320
	N239	N	0.022675	0.315485	0.410480
	N240	N	0.948022	0.408834	0.675961
	N241	N	0.023239	0.578869	0.672322
	N242	N	0.948264	0.580928	0.317382
	N243	N	0.022797	0.410281	0.318997
	N244	N	0.402177	0.673300	0.957512
	N245	N	0.573208	0.675329	0.032214
	N246	N	0.570010	0.319933	0.957170
	N247	N	0.399381	0.317747	0.032087
	N248	N	0.665865	0.959334	0.407151
	N249	N	0.665242	0.032424	0.581130
	N250	N	0.305073	0.958386	0.582572
	N251	N	0.304309	0.031666	0.407505
	N252	N	0.900461	0.457154	0.174064
	N253	N	0.069929	0.533081	0.172757
	N254	N	0.070037	0.457969	0.819165
	N255	N	0.901374	0.532945	0.819635
	N256	N	0.163475	0.908383	0.458949
	N257	N	0.163451	0.080428	0.533169
	N258	N	0.808921	0.080212	0.458081
	N259	N	0.805000	0.907719	0.531791
	N260	N	0.448157	0.177664	0.906203
	N261	N	0.522317	0.175168	0.079683
	N262	N	0.449899	0.815004	0.083018
	N263	N	0.523156	0.817580	0.908372
	N264	N	0.448865	0.909748	0.173161
	N265	N	0.522968	0.080868	0.171468
	N266	N	0.447183	0.082834	0.815396
	N267	N	0.522946	0.912626	0.817201
	N268	N	0.899291	0.173117	0.459620
	N269	N	0.070318	0.171878	0.534331
	N270	N	0.069926	0.817847	0.458727
	N271	N	0.899481	0.816980	0.533222
	N272	N	0.166203	0.459849	0.907977
	N273	N	0.165753	0.531935	0.082495
	N274	N	0.803771	0.459294	0.085189
	N275	N	0.806747	0.532929	0.910667
	O276	O	-0.017975	-0.043515	0.061019
	H277	H	-0.019359	-0.047016	0.054048
	H278	H	-0.016001	-0.048524	0.064490
	O279	O	0.961279	0.043993	-0.042775
	H280	H	0.955041	0.031960	-0.035919
	H281	H	0.965831	0.046510	-0.037318
	O282	O	0.597530	0.533974	0.486953
	H283	H	0.598152	0.544315	0.487271
	H284	H	0.604881	0.525534	0.478966
	O285	O	0.507377	1.467711	0.447043
	H286	H	0.498774	1.479457	0.442508
	H287	H	0.520758	1.464056	0.455870
	O288	O	0.408442	0.472458	0.499618
	H289	H	0.412723	0.467938	0.491972
	H290	H	0.405919	0.468514	0.502911
	O291	O	0.858497	0.899775	1.036286
	H292	H	0.850076	0.886950	1.040041
	H293	H	0.866678	0.899644	1.040457
	O294	O	0.929349	1.067316	1.042077
	H295	H	0.930193	1.079147	1.044572
	H296	H	0.923540	1.069277	1.038589
	O297	O	1.498493	0.510465	1.582366
	H298	H	1.509646	0.516317	1.584854
	H299	H	1.500942	0.511305	1.579912
	O300	O	0.494146	0.568585	0.578372
	H301	H	0.491202	0.583895	0.572990
	H302	H	0.504905	0.559871	0.588234
	O303	O	0.885950	-0.039848	0.043381
	H304	H	0.885008	-0.041869	0.045227
	H305	H	0.887022	-0.044036	0.041700
	O306	O	-0.065531	0.954602	1.024606
	H307	H	-0.064543	0.954867	1.034001
	H308	H	-0.066203	0.948739	1.028234
	O309	O	1.072381	0.992409	0.986105
	H310	H	1.080870	0.988301	0.988591
	H311	H	1.074275	1.001917	0.995693
	O312	O	1.016398	0.024331	1.014895
	H313	H	1.003951	0.025678	1.022331
	H314	H	1.015533	0.025913	1.010110
	O315	O	0.412449	0.494643	0.498137
	H316	H	0.415720	0.493812	0.496379
	H317	H	0.411357	0.499021	0.497468
	O318	O	0.497260	0.540500	0.497366
	H319	H	0.506726	0.547332	0.504801
	H320	H	0.490463	0.520655	0.495624
	O321	O	1.047118	1.109332	1.027878
	H322	H	1.037200	1.105440	1.023141
	H323	H	1.034266	1.108923	1.037282
	O324	O	0.516001	0.560854	0.456318
	H325	H	0.505199	0.562779	0.461636
	H326	H	0.527523	0.564519	0.453982
	O327	O	0.550080	0.583143	0.520219
	H328	H	0.550346	0.591001	0.520836
	H329	H	0.552117	0.581747	0.517368
	O330	O	1.008737	-0.081209	1.059132
	H331	H	1.023047	-0.081248	1.050625
	H332	H	1.008752	-0.079736	1.047796
	O333	O	1.011887	0.993571	-0.000919
	H334	H	1.020105	1.001815	-0.006141
	H335	H	1.013474	0.993854	-0.015103
	O336	O	0.513880	0.452582	0.568205
	H337	H	0.509165	0.453756	0.562306
	H338	H	0.506179	0.460876	0.563306
	O339	O	0.476643	0.500237	0.421109
	H340	H	0.459923	0.498007	0.424295
	H341	H	0.482742	0.496320	0.412514
	O342	O	-0.027039	0.984784	0.067091
	H343	H	-0.028142	0.984433	0.071957
	H344	H	-0.018463	0.990564	0.067313
	O345	O	0.072306	-0.028811	-0.022984
	H346	H	0.062105	-0.019835	-0.016566
	H347	H	0.074422	-0.018967	-0.021209
	O348	O	0.512390	0.446790	0.388447
	H349	H	0.508462	0.441771	0.395418
	H350	H	0.503064	0.449043	0.390334
	O351	O	0.458302	0.425407	0.504002
	H352	H	0.465840	0.430177	0.495323
	H353	H	0.461709	0.416454	0.507465
	O354	O	0.485339	0.446999	0.568311
	H355	H	0.468566	0.447914	0.565818
	H356	H	0.493398	0.438066	0.573992
	O357	O	0.564345	0.485412	0.350728
	H358	H	0.555924	0.487183	0.353249
	H359	H	0.566319	0.480091	0.352120
	O360	O	0.108911	-0.000136	-0.030943
	H361	H	0.098695	0.000415	-0.019617
	H362	H	0.096360	-0.007809	-0.034273
	O363	O	0.413176	0.570463	0.466984
	H364	H	0.412722	0.565172	0.469264
	H365	H	0.417969	0.558587	0.472439
	O366	O	0.001412	0.044931	0.973617
	H367	H	-0.000220	0.044596	0.972988
	H368	H	0.010310	0.040090	0.976854
	O369	O	0.420837	0.517238	0.477972
	H370	H	0.414577	0.526984	0.486243
	H371	H	0.422384	0.522423	0.480737
