data_Molecule from HDF5

_cell_length_a		16.493650
_cell_length_b		16.487261
_cell_length_c		16.490293
_cell_angle_alpha	90.215663
_cell_angle_beta	89.935580
_cell_angle_gamma	89.840270
_symmetry_space_group_name_H-M	'P 1'
_symmetry_Int_Tables_number		1

loop_
	_symmetry_equiv_pos_as_xyz
	x,y,z

loop_
	_atom_site_label
	_atom_site_type_symbol
	_atom_site_fract_x
	_atom_site_fract_y
	_atom_site_fract_z
	H0	H	0.387965	0.848183	0.708110
	H1	H	0.597453	0.162238	0.710448
	H2	H	0.596230	0.847075	0.264347
	H3	H	0.381522	0.161802	0.263606
	H4	H	0.714798	0.397673	0.832047
	H5	H	0.716607	0.613404	0.145301
	H6	H	0.273440	0.606517	0.831418
	H7	H	0.269996	0.400370	0.146771
	H8	H	0.834242	0.727371	0.378971
	H9	H	0.149091	0.722101	0.589518
	H10	H	0.833375	0.282749	0.591959
	H11	H	0.149405	0.280445	0.380416
	H12	H	0.833779	0.398194	0.709119
	H13	H	0.149099	0.605123	0.705094
	H14	H	0.836269	0.612465	0.262533
	H15	H	0.149928	0.396131	0.264341
	H16	H	0.391298	0.721782	0.830724
	H17	H	0.599085	0.728075	0.146028
	H18	H	0.597702	0.283174	0.831668
	H19	H	0.384264	0.282935	0.146500
	H20	H	0.714226	0.847596	0.378134
	H21	H	0.713687	0.161791	0.593925
	H22	H	0.272559	0.847168	0.589141
	H23	H	0.265337	0.160833	0.379353
	H24	H	0.883948	0.348383	0.213029
	H25	H	0.102275	0.660226	0.214528
	H26	H	0.095609	0.346432	0.767973
	H27	H	0.883827	0.659952	0.764442
	H28	H	0.216114	0.894093	0.330472
	H29	H	0.213554	0.110443	0.642183
	H30	H	0.765351	0.113590	0.330227
	H31	H	0.770603	0.903174	0.644431
	H32	H	0.335917	0.226708	0.884139
	H33	H	0.647785	0.229517	0.098463
	H34	H	0.334091	0.783684	0.092664
	H35	H	0.649524	0.781075	0.881292
	H36	H	0.333471	0.899114	0.208718
	H37	H	0.647077	0.112790	0.213279
	H38	H	0.335027	0.109835	0.768441
	H39	H	0.648458	0.896684	0.763350
	H40	H	0.882512	0.228588	0.329304
	H41	H	0.098475	0.227447	0.641367
	H42	H	0.099535	0.778630	0.330790
	H43	H	0.885981	0.785432	0.644622
	H44	H	0.212436	0.347227	0.885018
	H45	H	0.214039	0.662157	0.095204
	H46	H	0.767493	0.349220	0.097359
	H47	H	0.767600	0.660035	0.880897
	H48	H	0.397848	0.119156	0.574854
	H49	H	0.584275	0.892335	0.571523
	H50	H	0.576753	0.116101	0.400597
	H51	H	0.401433	0.891341	0.393711
	H52	H	0.577439	0.419607	0.100239
	H53	H	0.576593	0.587863	0.879811
	H54	H	0.400558	0.592336	0.103069
	H55	H	0.405503	0.421812	0.879598
	H56	H	0.099702	0.589331	0.407333
	H57	H	0.876624	0.597587	0.574952
	H58	H	0.103333	0.415344	0.576787
	H59	H	0.878679	0.412993	0.397736
	H60	H	0.105900	0.413271	0.579730
	H61	H	0.877705	0.591410	0.575528
	H62	H	0.103753	0.586572	0.396053
	H63	H	0.883320	0.417521	0.405317
	H64	H	0.405601	0.595133	0.102515
	H65	H	0.579208	0.597136	0.875509
	H66	H	0.579518	0.417193	0.101218
	H67	H	0.407069	0.410231	0.876834
	H68	H	0.577260	0.115772	0.401220
	H69	H	0.580595	0.890922	0.580135
	H70	H	0.401344	0.119967	0.581338
	H71	H	0.408724	0.894791	0.398333
	H72	H	0.906323	0.615785	0.074904
	H73	H	0.076167	0.396258	0.072361
	H74	H	0.080821	0.618094	0.896726
	H75	H	0.904968	0.392078	0.898213
	H76	H	0.080031	0.915706	0.598330
	H77	H	0.080284	0.092608	0.372356
	H78	H	0.903599	0.092051	0.596731
	H79	H	0.909828	0.914668	0.375888
	H80	H	0.605496	0.090304	0.896532
	H81	H	0.382123	0.087486	0.075767
	H82	H	0.605103	0.915134	0.078060
	H83	H	0.375888	0.907441	0.895242
	H84	H	0.603052	0.915230	0.072934
	H85	H	0.377237	0.097366	0.080210
	H86	H	0.607176	0.096278	0.898483
	H87	H	0.382313	0.914278	0.906299
	H88	H	0.903308	0.093806	0.597250
	H89	H	0.079532	0.085317	0.374749
	H90	H	0.080942	0.911471	0.600217
	H91	H	0.900088	0.909827	0.371551
	H92	H	0.083238	0.618590	0.897613
	H93	H	0.087493	0.391075	0.072595
	H94	H	0.909336	0.614373	0.075227
	H95	H	0.905185	0.392695	0.900386
	H96	H	0.404904	0.116546	0.575519
	H97	H	0.574983	0.894996	0.573692
	H98	H	0.578077	0.115311	0.399978
	H99	H	0.400635	0.893909	0.402787
	H100	H	0.580861	0.420598	0.100725
	H101	H	0.585415	0.589163	0.875714
	H102	H	0.400845	0.598253	0.104350
	H103	H	0.396181	0.415213	0.874340
	H104	H	0.105357	0.597192	0.400921
	H105	H	0.875657	0.594997	0.580725
	H106	H	0.104958	0.411276	0.575987
	H107	H	0.881970	0.421805	0.397134
	H108	H	0.907511	0.614158	0.072579
	H109	H	0.080202	0.390393	0.082268
	H110	H	0.083004	0.619447	0.895266
	H111	H	0.902815	0.390858	0.900109
	H112	H	0.084139	0.914503	0.599931
	H113	H	0.073129	0.090571	0.375557
	H114	H	0.901887	0.092849	0.597800
	H115	H	0.899695	0.921867	0.374016
	H116	H	0.603652	0.092263	0.902267
	H117	H	0.381207	0.096991	0.068870
	H118	H	0.601795	0.920384	0.075957
	H119	H	0.380319	0.921311	0.893558
	C120	C	0.370023	0.013966	0.608452
	C121	C	0.612296	0.996833	0.608106
	C122	C	0.611442	0.012497	0.365881
	C123	C	0.369090	0.996222	0.364932
	C124	C	0.613188	0.384474	-0.002662
	C125	C	0.613946	0.625418	0.980558
	C126	C	0.371163	0.625773	-0.001653
	C127	C	0.370656	0.383708	0.981147
	C128	C	-0.000001	0.625297	0.366311
	C129	C	0.981540	0.625249	0.608353
	C130	C	-0.000049	0.381581	0.608953
	C131	C	0.984279	0.383032	0.365839
	C132	C	0.872638	0.512309	0.108826
	C133	C	0.114146	0.496387	0.109539
	C134	C	0.113522	0.513477	0.865877
	C135	C	0.870553	0.495344	0.866509
	C136	C	0.113864	0.881430	0.495322
	C137	C	0.111122	0.123497	0.477478
	C138	C	0.868819	0.126575	0.494227
	C139	C	0.870455	0.884115	0.478092
	C140	C	0.501160	0.125495	0.867496
	C141	C	0.483154	0.127448	0.109853
	C142	C	0.499415	0.884129	0.108314
	C143	C	0.483599	0.882062	0.865575
	C144	C	0.368880	0.895136	0.667883
	C145	C	0.615440	0.114924	0.669687
	C146	C	0.614691	0.894488	0.304150
	C147	C	0.364384	0.114562	0.304034
	C148	C	0.674608	0.380058	0.879293
	C149	C	0.675775	0.630543	0.098341
	C150	C	0.312736	0.625989	0.878725
	C151	C	0.310152	0.381856	0.099543
	C152	C	0.882043	0.686862	0.361526
	C153	C	0.101159	0.683341	0.609187
	C154	C	0.881109	0.322195	0.610489
	C155	C	0.102290	0.320880	0.362368
	C156	C	0.881074	0.379926	0.668825
	C157	C	0.101226	0.625226	0.666548
	C158	C	0.882814	0.629295	0.303508
	C159	C	0.102541	0.378706	0.304711
	C160	C	0.371093	0.683149	0.878468
	C161	C	0.617103	0.687382	0.098824
	C162	C	0.616122	0.323286	0.879027
	C163	C	0.367352	0.323424	0.099321
	C164	C	0.673457	0.894775	0.361120
	C165	C	0.672935	0.115027	0.611234
	C166	C	0.311719	0.894548	0.609104
	C167	C	0.306506	0.114163	0.361659
	C168	C	0.867204	0.395329	0.171733
	C169	C	0.118706	0.613502	0.172695
	C170	C	0.114634	0.394151	0.807466
	C171	C	0.866118	0.612820	0.804908
	C172	C	0.175060	0.877424	0.377422
	C173	C	0.172843	0.128011	0.595206
	C174	C	0.806196	0.131157	0.376983
	C175	C	0.810310	0.883583	0.596912
	C176	C	0.382964	0.186300	0.865592
	C177	C	0.600723	0.188819	0.114958
	C178	C	0.381228	0.823721	0.110704
	C179	C	0.602244	0.821502	0.862990
	C180	C	0.380854	0.881531	0.168301
	C181	C	0.600245	0.130364	0.172084
	C182	C	0.382548	0.128154	0.808074
	C183	C	0.601642	0.879124	0.804581
	C184	C	0.864773	0.188257	0.376607
	C185	C	0.115621	0.186161	0.594872
	C186	C	0.116977	0.819613	0.377619
	C187	C	0.867954	0.825293	0.597084
	C188	C	0.172808	0.394532	0.865412
	C189	C	0.174720	0.614667	0.113328
	C190	C	0.809079	0.395674	0.114081
	C191	C	0.808322	0.612904	0.862898
	C192	C	0.394289	0.096685	0.584221
	C193	C	0.587218	0.914254	0.582287
	C194	C	0.584938	0.094346	0.392834
	C195	C	0.395881	0.914776	0.390752
	C196	C	0.586882	0.411485	0.079279
	C197	C	0.587928	0.598926	0.898460
	C198	C	0.395198	0.602074	0.081521
	C199	C	0.395933	0.408560	0.898440
	C200	C	0.081604	0.598574	0.393533
	C201	C	0.898444	0.601450	0.584093
	C202	C	0.083041	0.406136	0.584531
	C203	C	0.902547	0.409660	0.392363
	C204	C	0.899945	0.593584	0.081980
	C205	C	0.088555	0.414028	0.083102
	C206	C	0.089362	0.597147	0.889679
	C207	C	0.896743	0.413230	0.892464
	C208	C	0.088714	0.906795	0.577992
	C209	C	0.084831	0.096938	0.395603
	C210	C	0.895409	0.100373	0.575792
	C211	C	0.895874	0.908502	0.395538
	C212	C	0.583811	0.100167	0.892183
	C213	C	0.401402	0.101326	0.082704
	C214	C	0.581754	0.909819	0.082949
	C215	C	0.401052	0.907232	0.891170
	Zn216	Zn	0.492216	0.004797	0.737499
	Zn217	Zn	0.490336	0.004730	0.237005
	Zn218	Zn	0.742416	0.504610	-0.011101
	Zn219	Zn	0.242003	0.505086	-0.010993
	Zn220	Zn	-0.009186	0.753662	0.487042
	Zn221	Zn	-0.008692	0.253555	0.485716
	Zn222	Zn	-0.008784	0.503746	0.737166
	Zn223	Zn	-0.006459	0.503966	0.237806
	Zn224	Zn	0.492809	0.754029	-0.011335
	Zn225	Zn	0.492270	0.255636	-0.010759
	Zn226	Zn	0.740624	0.004848	0.485833
	Zn227	Zn	0.241322	0.004175	0.486204
	N228	N	0.404067	0.970483	0.667938
	N229	N	0.578375	0.040403	0.667656
	N230	N	0.577062	0.968923	0.306904
	N231	N	0.402616	0.040412	0.305858
	N232	N	0.673219	0.416949	0.954077
	N233	N	0.674218	0.593109	0.023767
	N234	N	0.312332	0.591584	0.954418
	N235	N	0.311857	0.418325	0.024839
	N236	N	0.955958	0.684573	0.399731
	N237	N	0.025652	0.683842	0.574191
	N238	N	0.956057	0.323116	0.574052
	N239	N	0.027602	0.323163	0.399401
	N240	N	0.956161	0.415771	0.668230
	N241	N	0.025689	0.590209	0.666527
	N242	N	0.957418	0.591969	0.306206
	N243	N	0.028172	0.416348	0.306573
	N244	N	0.406676	0.683163	0.953742
	N245	N	0.579441	0.684366	0.024524
	N246	N	0.579051	0.325481	0.953761
	N247	N	0.404440	0.324544	0.024630
	N248	N	0.671591	0.969339	0.398634
	N249	N	0.671213	0.040381	0.573667
	N250	N	0.312290	0.969424	0.572871
	N251	N	0.308904	0.039511	0.398297
	N252	N	0.906095	0.468841	0.168520
	N253	N	0.081703	0.538869	0.170248
	N254	N	0.078673	0.469309	0.807546
	N255	N	0.904279	0.538834	0.807328
	N256	N	0.173139	0.915236	0.451732
	N257	N	0.170093	0.089724	0.521138
	N258	N	0.808452	0.093713	0.451255
	N259	N	0.811820	0.919385	0.521851
	N260	N	0.457841	0.185126	0.901696
	N261	N	0.526687	0.186991	0.076938
	N262	N	0.455946	0.825152	0.074035
	N263	N	0.527686	0.823191	0.900533
	N264	N	0.455333	0.918598	0.166781
	N265	N	0.525976	0.093125	0.169113
	N266	N	0.457058	0.090938	0.809207
	N267	N	0.527073	0.916283	0.806555
	N268	N	0.902865	0.185632	0.450472
	N269	N	0.077755	0.183207	0.520906
	N270	N	0.079474	0.821968	0.451951
	N271	N	0.904472	0.825341	0.522150
	N272	N	0.172218	0.469922	0.901121
	N273	N	0.171596	0.540850	0.074665
	N274	N	0.812433	0.469389	0.075612
	N275	N	0.810984	0.538711	0.900432
	O276	O	1.174148	0.186299	0.163418
	H277	H	1.183949	0.198515	0.121165
	H278	H	1.175054	0.145413	0.159373
	O279	O	0.498022	0.284236	0.424449
	H280	H	0.507596	0.277577	0.403764
	H281	H	0.494947	0.293827	0.423457
	O282	O	0.493581	1.504893	0.699999
	H283	H	0.492930	1.496651	0.697739
	H284	H	0.481901	1.489410	0.695992
	O285	O	0.373180	0.374670	0.413669
	H286	H	0.363819	0.352628	0.424443
	H287	H	0.387354	0.374859	0.407725
	O288	O	0.001952	0.123922	-0.047591
	H289	H	-0.001406	0.122775	-0.056304
	H290	H	-0.007760	0.116219	-0.041686
	O291	O	1.120142	0.960246	-0.008277
	H292	H	1.126970	0.938954	0.008806
	H293	H	1.104287	0.951295	-0.007636
	O294	O	-0.309993	0.678968	-0.320859
	H295	H	-0.292790	0.688774	-0.302015
	H296	H	-0.335073	0.667674	-0.311567
	O297	O	0.368568	0.451315	0.413263
	H298	H	0.369333	0.452582	0.408788
	H299	H	0.371955	0.470918	0.410343
	O300	O	0.322688	0.625050	0.435290
	H301	H	0.328590	0.612474	0.417028
	H302	H	0.312239	0.621257	0.437182
	O303	O	0.288359	0.300009	0.688369
	H304	H	0.301316	0.298703	0.662821
	H305	H	0.255548	0.266803	0.719425
	O306	O	0.040588	1.034843	0.813806
	H307	H	0.056584	1.024367	0.804107
	H308	H	0.033526	1.027801	0.816279
	O309	O	0.951179	0.949209	0.778908
	H310	H	0.967903	0.923150	0.766506
	H311	H	0.951567	0.956285	0.776268
	O312	O	0.281232	0.476317	0.701174
	H313	H	0.260478	0.452385	0.721256
	H314	H	0.286802	0.457342	0.694037
	O315	O	-0.197617	0.184724	0.799164
	H316	H	-0.179223	0.186834	0.818838
	H317	H	-0.204667	0.165878	0.810618
	O318	O	-0.220228	0.973620	0.200425
	H319	H	-0.224330	0.989500	0.210931
	H320	H	-0.229520	0.990718	0.195870
	O321	O	1.177154	-0.052890	1.026486
	H322	H	1.191049	-0.059625	1.025787
	H323	H	1.168502	-0.067540	1.030045
	O324	O	1.507190	0.516936	0.550153
	H325	H	1.500132	0.517759	0.547230
	H326	H	1.508203	0.512058	0.553094
	O327	O	1.204813	-0.027512	0.771318
	H328	H	1.214302	-0.040794	0.778811
	H329	H	1.224340	-0.033605	0.755195
	O330	O	0.576309	-0.492689	0.454575
	H331	H	0.568105	-0.493667	0.461695
	H332	H	0.579136	-0.499163	0.448458
	O333	O	1.466842	0.717247	0.450995
	H334	H	1.481653	0.733621	0.458902
	H335	H	1.463239	0.711025	0.453102
	O336	O	0.921087	0.201403	1.058777
	H337	H	0.924691	0.203500	1.057220
	H338	H	0.921526	0.205100	1.059655
	O339	O	0.288049	0.511137	0.389660
	H340	H	0.268633	0.495727	0.378932
	H341	H	0.297519	0.507966	0.414011
	O342	O	0.813079	-0.179857	1.133029
	H343	H	0.805174	-0.183032	1.096838
	H344	H	0.799506	-0.141585	1.145108
	O345	O	0.021915	-0.217928	-0.231751
	H346	H	0.062236	-0.223184	-0.237790
	H347	H	0.035305	-0.236356	-0.252288
	O348	O	1.201433	0.025397	1.196315
	H349	H	1.196104	0.016384	1.200615
	H350	H	1.213368	0.023701	1.216691
	O351	O	0.821198	0.961331	-0.020443
	H352	H	0.821566	0.942763	-0.009033
	H353	H	0.812606	0.957884	-0.022843
	O354	O	0.440818	0.637938	0.599148
	H355	H	0.423489	0.642499	0.586599
	H356	H	0.430936	0.637161	0.607791
	O357	O	1.204409	0.786990	0.954478
	H358	H	1.194832	0.782045	0.968056
	H359	H	1.224492	0.772158	0.949449
	O360	O	0.483435	0.549505	0.454875
	H361	H	0.475598	0.560926	0.450176
	H362	H	0.507520	0.543254	0.438660
	O363	O	0.554667	0.331505	0.332752
	H364	H	0.577798	0.339894	0.336838
	H365	H	0.548245	0.307242	0.305270
	O366	O	1.015853	0.222277	1.203762
	H367	H	1.026232	0.239402	1.226418
	H368	H	1.051106	0.221864	1.201803
	O369	O	0.921092	0.017536	1.013513
	H370	H	0.915791	0.026066	1.014519
	H371	H	0.929820	0.024037	1.028971
	O372	O	0.076213	0.917717	0.203790
	H373	H	0.079648	0.926614	0.200871
	H374	H	0.056786	0.896779	0.205841
	O375	O	-0.225514	1.222072	0.962492
	H376	H	-0.240580	1.231813	0.974224
	H377	H	-0.220948	1.234597	0.961892
	O378	O	0.966900	0.036369	0.190464
	H379	H	0.977723	0.071956	0.196506
	H380	H	0.961953	0.021659	0.188587
	O381	O	1.076607	-0.139245	0.032151
	H382	H	1.085092	-0.129244	0.048432
	H383	H	1.064740	-0.150494	0.042860
	O384	O	0.698486	0.485803	1.277545
	H385	H	0.705517	0.481641	1.273981
	H386	H	0.715425	0.497708	1.287067
	O387	O	0.690614	0.307778	0.519047
	H388	H	0.681659	0.288485	0.529895
	H389	H	0.691631	0.299338	0.510676
	O390	O	0.188954	0.204196	0.997592
	H391	H	0.185121	0.202524	0.986765
	H392	H	0.174188	0.204609	0.986221
	O393	O	0.949030	0.796925	0.191048
	H394	H	0.940757	0.776142	0.223085
	H395	H	0.919666	0.806955	0.181030
	O396	O	0.678409	0.320575	1.297823
	H397	H	0.673048	0.349397	1.288257
	H398	H	0.677719	0.314854	1.333693
	O399	O	0.550776	1.530184	1.361637
	H400	H	0.561440	1.523795	1.367075
	H401	H	0.557442	1.553796	1.378705
	O402	O	-0.015655	0.178177	1.036417
	H403	H	-0.017141	0.161793	1.033666
	H404	H	-0.016363	0.180383	1.050383
	O405	O	-1.074018	0.784321	-0.077931
	H406	H	-1.053604	0.785146	-0.095848
	H407	H	-1.064974	0.789556	-0.073344
	O408	O	0.276404	0.415118	0.521725
	H409	H	0.293516	0.407786	0.513510
	H410	H	0.267147	0.411097	0.512489
	O411	O	0.712205	0.727892	0.515080
	H412	H	0.729705	0.744552	0.544239
	H413	H	0.720048	0.734010	0.540418
	O414	O	-0.155145	0.793593	0.015072
	H415	H	-0.180228	0.763131	0.015069
	H416	H	-0.132307	0.786176	-0.013468
	O417	O	1.184138	0.194853	0.795239
	H418	H	1.171152	0.182190	0.828143
	H419	H	1.162068	0.171563	0.802754
	O420	O	0.193078	0.800323	0.784080
	H421	H	0.200578	0.813456	0.814501
	H422	H	0.228164	0.769943	0.753162
	O423	O	-0.192957	1.093674	0.102739
	H424	H	-0.178056	1.110701	0.095574
	H425	H	-0.184499	1.090410	0.090037
	O426	O	0.527316	1.671715	1.324113
	H427	H	0.551213	1.672566	1.311683
	H428	H	0.542596	1.671761	1.334985
	O429	O	0.613837	0.348133	0.520318
	H430	H	0.604847	0.354151	0.535854
	H431	H	0.606218	0.346777	0.513028
	O432	O	0.638766	0.563030	0.586670
	H433	H	0.641531	0.568527	0.597243
	H434	H	0.647226	0.548809	0.586815
	O435	O	0.345890	-0.541724	0.348673
	H436	H	0.335767	-0.553982	0.342315
	H437	H	0.356885	-0.540004	0.359066
	O438	O	1.078996	-0.000844	-0.083177
	H439	H	1.077608	-0.001990	-0.085356
	H440	H	1.073334	-0.013022	-0.087482
	O441	O	0.497031	0.709108	0.644435
	H442	H	0.491831	0.718059	0.644104
	H443	H	0.506554	0.700037	0.643855
	O444	O	0.556994	0.489331	0.595116
	H445	H	0.568346	0.496334	0.592205
	H446	H	0.566367	0.497357	0.592004
	O447	O	0.464658	0.291678	0.702015
	H448	H	0.461295	0.267280	0.733699
	H449	H	0.450199	0.301078	0.686057
	O450	O	0.304606	0.689975	0.311798
	H451	H	0.312678	0.677936	0.309174
	H452	H	0.334078	0.682946	0.304319
	O453	O	-0.197798	0.023348	-0.205314
	H454	H	-0.200250	0.028811	-0.204491
	H455	H	-0.197244	0.011985	-0.197206
	O456	O	0.798750	-0.144906	-0.169092
	H457	H	0.817586	-0.138728	-0.157697
	H458	H	0.807329	-0.115019	-0.153055
	O459	O	0.300394	0.696439	0.681506
	H460	H	0.325181	0.675657	0.667842
	H461	H	0.312821	0.678784	0.657571
	O462	O	0.684023	0.522001	0.467277
	H463	H	0.683375	0.533465	0.491398
	H464	H	0.677909	0.500344	0.469668
	O465	O	0.964583	0.221468	-0.234327
	H466	H	0.938299	0.235320	-0.249095
	H467	H	0.966115	0.223134	-0.243404
