data_Molecule from HDF5

_cell_length_a		16.140001
_cell_length_b		16.242332
_cell_length_c		16.360786
_cell_angle_alpha	89.980535
_cell_angle_beta	90.381469
_cell_angle_gamma	89.393614
_symmetry_space_group_name_H-M	'P 1'
_symmetry_Int_Tables_number		1

loop_
	_symmetry_equiv_pos_as_xyz
	x,y,z

loop_
	_atom_site_label
	_atom_site_type_symbol
	_atom_site_fract_x
	_atom_site_fract_y
	_atom_site_fract_z
	H0	H	0.405729	0.837027	0.721651
	H1	H	0.605973	0.162892	0.724007
	H2	H	0.607900	0.837848	0.288989
	H3	H	0.400372	0.163638	0.288397
	H4	H	0.718643	0.400612	0.842013
	H5	H	0.718792	0.596466	0.168539
	H6	H	0.285703	0.602212	0.842582
	H7	H	0.292284	0.404226	0.168793
	H8	H	0.839657	0.717043	0.404804
	H9	H	0.170617	0.709868	0.602854
	H10	H	0.839662	0.288539	0.601620
	H11	H	0.168309	0.282607	0.406738
	H12	H	0.839930	0.402655	0.718378
	H13	H	0.168721	0.598592	0.721551
	H14	H	0.839818	0.601717	0.288429
	H15	H	0.167848	0.395720	0.289910
	H16	H	0.402309	0.718692	0.842642
	H17	H	0.605098	0.715218	0.168325
	H18	H	0.604735	0.283117	0.843619
	H19	H	0.406093	0.285366	0.168065
	H20	H	0.718442	0.836302	0.409717
	H21	H	0.715361	0.165309	0.603106
	H22	H	0.293952	0.835562	0.601926
	H23	H	0.287085	0.164147	0.406049
	H24	H	0.904704	0.337528	0.222065
	H25	H	0.105383	0.662862	0.224089
	H26	H	0.106837	0.337102	0.789982
	H27	H	0.899911	0.663826	0.788385
	H28	H	0.219563	0.900355	0.341830
	H29	H	0.220258	0.098365	0.667182
	H30	H	0.784930	0.100808	0.342273
	H31	H	0.793629	0.904757	0.669591
	H32	H	0.339621	0.218284	0.904055
	H33	H	0.668859	0.212908	0.106002
	H34	H	0.340584	0.787992	0.103986
	H35	H	0.668996	0.784666	0.908699
	H36	H	0.340428	0.901259	0.219461
	H37	H	0.667005	0.101457	0.223272
	H38	H	0.340536	0.103554	0.786854
	H39	H	0.669542	0.897818	0.791331
	H40	H	0.899581	0.219323	0.342673
	H41	H	0.105423	0.214452	0.667140
	H42	H	0.104708	0.782464	0.342180
	H43	H	0.906887	0.784994	0.667676
	H44	H	0.219888	0.337024	0.908899
	H45	H	0.215998	0.665759	0.104222
	H46	H	0.794391	0.335484	0.102291
	H47	H	0.788225	0.664510	0.908186
	H48	H	0.417067	0.113529	0.592354
	H49	H	0.600392	0.879051	0.610737
	H50	H	0.592312	0.117711	0.410699
	H51	H	0.413989	0.882976	0.406393
	H52	H	0.594926	0.404674	0.120125
	H53	H	0.595382	0.590952	0.889683
	H54	H	0.411358	0.593243	0.120000
	H55	H	0.410054	0.404643	0.888065
	H56	H	0.121523	0.590467	0.414078
	H57	H	0.884811	0.605535	0.592366
	H58	H	0.123386	0.395466	0.592619
	H59	H	0.886710	0.408392	0.412950
	H60	H	0.117939	0.416749	0.593346
	H61	H	0.891315	0.585139	0.589889
	H62	H	0.121087	0.589883	0.413743
	H63	H	0.887833	0.412743	0.414239
	H64	H	0.412935	0.596701	0.120461
	H65	H	0.593431	0.593202	0.890430
	H66	H	0.602373	0.402424	0.123462
	H67	H	0.409838	0.414174	0.890868
	H68	H	0.592789	0.116100	0.413867
	H69	H	0.588893	0.887427	0.597474
	H70	H	0.406118	0.117512	0.595302
	H71	H	0.417639	0.885809	0.413355
	H72	H	0.916077	0.615743	0.097740
	H73	H	0.107045	0.380741	0.101260
	H74	H	0.095350	0.621166	0.902685
	H75	H	0.917846	0.384379	0.906606
	H76	H	0.097003	0.904907	0.620527
	H77	H	0.088640	0.089867	0.391480
	H78	H	0.908601	0.106574	0.624051
	H79	H	0.904151	0.909625	0.386792
	H80	H	0.620305	0.087629	0.911135
	H81	H	0.385419	0.093702	0.100589
	H82	H	0.620750	0.912759	0.097481
	H83	H	0.383841	0.902560	0.907446
	H84	H	0.623974	0.906830	0.104456
	H85	H	0.385788	0.098299	0.094759
	H86	H	0.622904	0.094390	0.913626
	H87	H	0.390403	0.911186	0.921881
	H88	H	0.902616	0.086375	0.621162
	H89	H	0.094233	0.097003	0.388350
	H90	H	0.100507	0.904211	0.621574
	H91	H	0.915258	0.912812	0.391600
	H92	H	0.084174	0.613804	0.914024
	H93	H	0.091059	0.384199	0.104710
	H94	H	0.910566	0.615947	0.094056
	H95	H	0.914597	0.385516	0.915569
	H96	H	0.414660	0.117846	0.603475
	H97	H	0.607424	0.882932	0.593392
	H98	H	0.595171	0.118202	0.412228
	H99	H	0.409728	0.883091	0.413921
	H100	H	0.600993	0.410643	0.121193
	H101	H	0.596263	0.594082	0.889411
	H102	H	0.409876	0.596202	0.121502
	H103	H	0.417598	0.409744	0.891197
	H104	H	0.121868	0.590062	0.413082
	H105	H	0.883578	0.592269	0.609483
	H106	H	0.125271	0.406660	0.610558
	H107	H	0.886359	0.411904	0.409191
	H108	H	0.910639	0.618541	0.100039
	H109	H	0.096769	0.387742	0.089789
	H110	H	0.099536	0.617001	0.918880
	H111	H	0.907649	0.381802	0.907795
	H112	H	0.099831	0.906813	0.619658
	H113	H	0.098104	0.088372	0.389133
	H114	H	0.921963	0.092278	0.615654
	H115	H	0.912648	0.900963	0.388531
	H116	H	0.619238	0.089909	0.918099
	H117	H	0.387505	0.091248	0.094193
	H118	H	0.622569	0.904055	0.094973
	H119	H	0.388742	0.919997	0.906048
	C120	C	0.384146	0.008355	0.626273
	C121	C	0.626885	0.991597	0.628576
	C122	C	0.624373	0.009333	0.384031
	C123	C	0.382527	0.992074	0.382600
	C124	C	0.627569	0.377105	0.014032
	C125	C	0.625176	0.621405	0.997194
	C126	C	0.380966	0.624824	0.013584
	C127	C	0.383896	0.380285	0.997230
	C128	C	0.012979	0.621328	0.383306
	C129	C	0.995836	0.621583	0.626487
	C130	C	0.013205	0.378662	0.626436
	C131	C	0.995496	0.379199	0.383883
	C132	C	0.884098	0.508511	0.126049
	C133	C	0.126820	0.492193	0.127931
	C134	C	0.124492	0.509306	0.883585
	C135	C	0.882107	0.491703	0.881765
	C136	C	0.127675	0.876662	0.513073
	C137	C	0.124550	0.120912	0.496732
	C138	C	0.880176	0.124301	0.513199
	C139	C	0.883159	0.879260	0.496835
	C140	C	0.512625	0.121892	0.883551
	C141	C	0.495117	0.122169	0.126588
	C142	C	0.513710	0.879502	0.127339
	C143	C	0.496212	0.880681	0.884424
	C144	C	0.386173	0.885637	0.682626
	C145	C	0.625139	0.114532	0.684678
	C146	C	0.625280	0.886155	0.328435
	C147	C	0.381386	0.114630	0.326349
	C148	C	0.681741	0.379780	0.891136
	C149	C	0.681065	0.617654	0.119686
	C150	C	0.324339	0.622585	0.891194
	C151	C	0.329443	0.383188	0.119862
	C152	C	0.889106	0.678811	0.384488
	C153	C	0.120497	0.674300	0.623984
	C154	C	0.889103	0.324956	0.623361
	C155	C	0.118980	0.320879	0.386074
	C156	C	0.889304	0.381764	0.681069
	C157	C	0.119711	0.618540	0.682797
	C158	C	0.889128	0.621658	0.326565
	C159	C	0.118910	0.377229	0.328155
	C160	C	0.382181	0.680554	0.891146
	C161	C	0.624422	0.676694	0.119543
	C162	C	0.625262	0.321213	0.891902
	C163	C	0.386002	0.323928	0.119546
	C164	C	0.680616	0.885463	0.388124
	C165	C	0.679740	0.115671	0.624785
	C166	C	0.330387	0.884899	0.623235
	C167	C	0.324979	0.115015	0.384949
	C168	C	0.885483	0.385923	0.182758
	C169	C	0.125014	0.614610	0.184927
	C170	C	0.125705	0.386146	0.828070
	C171	C	0.881219	0.614985	0.826409
	C172	C	0.182339	0.879277	0.390492
	C173	C	0.181860	0.118671	0.618592
	C174	C	0.823356	0.121782	0.390857
	C175	C	0.830144	0.882953	0.620268
	C176	C	0.388842	0.179558	0.884217
	C177	C	0.619068	0.176387	0.125714
	C178	C	0.389886	0.825090	0.124515
	C179	C	0.620140	0.823263	0.887698
	C180	C	0.389813	0.881637	0.181897
	C181	C	0.618125	0.120997	0.184412
	C182	C	0.389553	0.123098	0.825416
	C183	C	0.620353	0.879762	0.829616
	C184	C	0.880684	0.180383	0.391077
	C185	C	0.124859	0.176695	0.618506
	C186	C	0.125185	0.820718	0.390781
	C187	C	0.886573	0.823513	0.619255
	C188	C	0.181912	0.386014	0.887330
	C189	C	0.180154	0.616032	0.125347
	C190	C	0.830623	0.384906	0.123139
	C191	C	0.825726	0.615360	0.886079
	C192	C	0.406334	0.094126	0.603791
	C193	C	0.605161	0.905450	0.606796
	C194	C	0.600424	0.095103	0.405779
	C195	C	0.406740	0.906184	0.404728
	C196	C	0.605713	0.399263	0.099433
	C197	C	0.601807	0.599400	0.911778
	C198	C	0.404362	0.602043	0.098810
	C199	C	0.406067	0.402682	0.912036
	C200	C	0.099186	0.597127	0.406712
	C201	C	0.908932	0.600433	0.603971
	C202	C	0.099773	0.399952	0.605102
	C203	C	0.909546	0.403869	0.405599
	C204	C	0.906138	0.594420	0.103888
	C205	C	0.104790	0.406477	0.105247
	C206	C	0.100204	0.595029	0.905334
	C207	C	0.906281	0.406064	0.903358
	C208	C	0.105721	0.898814	0.598499
	C209	C	0.100498	0.098349	0.411612
	C210	C	0.904048	0.101625	0.598163
	C211	C	0.904496	0.901272	0.411253
	C212	C	0.598689	0.097688	0.907242
	C213	C	0.408498	0.100504	0.103296
	C214	C	0.600031	0.901449	0.105547
	C215	C	0.409978	0.904300	0.905663
	Zn216	Zn	0.504947	0.000311	0.755663
	Zn217	Zn	0.504083	0.000729	0.253931
	Zn218	Zn	0.755267	0.499372	0.005276
	Zn219	Zn	0.253644	0.501734	0.005700
	Zn220	Zn	0.005103	0.748964	0.504879
	Zn221	Zn	0.003948	0.251460	0.504952
	Zn222	Zn	0.004144	0.500570	0.753966
	Zn223	Zn	0.004691	0.499827	0.255436
	Zn224	Zn	0.504318	0.752549	0.005475
	Zn225	Zn	0.504721	0.249514	0.005509
	Zn226	Zn	0.753050	0.000912	0.505902
	Zn227	Zn	0.254767	-0.000158	0.504723
	N228	N	0.418690	0.963469	0.684610
	N229	N	0.593042	0.036468	0.687283
	N230	N	0.590914	0.964089	0.325732
	N231	N	0.416367	0.037130	0.324714
	N232	N	0.683523	0.413758	0.968152
	N233	N	0.681820	0.584126	0.042504
	N234	N	0.323347	0.589035	0.968371
	N235	N	0.328181	0.417722	0.043080
	N236	N	0.966985	0.678564	0.418942
	N237	N	0.042334	0.676419	0.589597
	N238	N	0.967123	0.323015	0.590173
	N239	N	0.041223	0.322068	0.419932
	N240	N	0.967539	0.414347	0.683283
	N241	N	0.041013	0.586834	0.684523
	N242	N	0.967311	0.586531	0.325699
	N243	N	0.041264	0.412809	0.326441
	N244	N	0.416477	0.682255	0.968222
	N245	N	0.590121	0.679019	0.042300
	N246	N	0.592327	0.319420	0.969282
	N247	N	0.419392	0.322102	0.042256
	N248	N	0.680284	0.963020	0.421964
	N249	N	0.680934	0.038274	0.590629
	N250	N	0.329159	0.962170	0.588671
	N251	N	0.325511	0.037591	0.419242
	N252	N	0.918070	0.463817	0.184562
	N253	N	0.092660	0.536685	0.186902
	N254	N	0.090729	0.463714	0.825743
	N255	N	0.915667	0.537077	0.823556
	N256	N	0.183882	0.913370	0.467434
	N257	N	0.181572	0.084501	0.541834
	N258	N	0.822841	0.087667	0.467838
	N259	N	0.827811	0.916851	0.543166
	N260	N	0.466429	0.178939	0.919608
	N261	N	0.541519	0.177171	0.090218
	N262	N	0.467791	0.823590	0.091167
	N263	N	0.542200	0.823733	0.921127
	N264	N	0.467892	0.914731	0.183850
	N265	N	0.539982	0.087905	0.184922
	N266	N	0.467442	0.087826	0.825216
	N267	N	0.542410	0.914776	0.827558
	N268	N	0.915231	0.182111	0.468116
	N269	N	0.089627	0.178219	0.541761
	N270	N	0.091886	0.819039	0.467981
	N271	N	0.918858	0.821186	0.541573
	N272	N	0.181328	0.463511	0.921188
	N273	N	0.181412	0.538921	0.090605
	N274	N	0.829623	0.462118	0.088444
	N275	N	0.826083	0.537796	0.919743
	O276	O	0.534270	0.442691	0.469079
	H277	H	0.541468	0.449768	0.471744
	H278	H	0.529304	0.436292	0.479160
	O279	O	0.575098	0.488798	0.596812
	H280	H	0.567441	0.488034	0.592179
	H281	H	0.573610	0.494996	0.600296
	O282	O	1.015680	1.090685	-0.043591
	H283	H	1.002686	1.097035	-0.058509
	H284	H	1.012091	1.090183	-0.035939
	O285	O	0.969525	0.084021	0.975203
	H286	H	0.963874	0.079321	0.966229
	H287	H	0.961788	0.098298	0.977181
	O288	O	0.512706	0.502843	0.547599
	H289	H	0.522605	0.496844	0.549808
	H290	H	0.505727	0.506543	0.544310
	O291	O	0.478191	0.523718	0.492219
	H292	H	0.480168	0.527841	0.473199
	H293	H	0.486683	0.526247	0.493173
	O294	O	0.381047	0.515139	0.506800
	H295	H	0.385113	0.519260	0.500859
	H296	H	0.374056	0.524823	0.508967
	O297	O	0.011793	-0.030545	0.918910
	H298	H	0.012547	-0.046845	0.904475
	H299	H	0.024551	-0.034839	0.926060
	O300	O	0.020245	0.009584	0.049194
	H301	H	0.017286	0.021046	0.052042
	H302	H	0.020684	0.004306	0.042973
	O303	O	1.042389	0.894279	-0.045080
	H304	H	1.039177	0.901147	-0.045117
	H305	H	1.047721	0.896016	-0.052445
	O306	O	0.071368	1.068481	0.974765
	H307	H	0.067912	1.064810	0.984782
	H308	H	0.076448	1.083373	0.972644
	O309	O	0.486341	0.533207	0.536091
	H310	H	0.488430	0.533170	0.537637
	H311	H	0.489016	0.534147	0.548104
	O312	O	-0.059427	-0.050670	-0.066391
	H313	H	-0.063182	-0.056738	-0.055606
	H314	H	-0.061194	-0.052310	-0.069154
	O315	O	0.922416	0.058090	0.038942
	H316	H	0.935162	0.037937	0.035508
	H317	H	0.932644	0.061510	0.037165
	O318	O	0.976671	0.966121	1.090313
	H319	H	0.964297	0.963004	1.086072
	H320	H	0.987976	0.966553	1.088937
	O321	O	-0.139694	-0.069793	0.997664
	H322	H	-0.131107	-0.092087	0.997973
	H323	H	-0.146249	-0.058671	1.015327
	O324	O	0.571521	0.476255	0.457073
	H325	H	0.568730	0.477813	0.468433
	H326	H	0.575974	0.469332	0.460157
	O327	O	0.142579	0.049805	0.104984
	H328	H	0.142631	0.041087	0.092703
	H329	H	0.152084	0.047527	0.101513
	O330	O	0.627072	0.512708	0.565256
	H331	H	0.621986	0.513311	0.565996
	H332	H	0.634081	0.499054	0.574927
	O333	O	0.077456	0.974588	0.992127
	H334	H	0.082208	0.975658	0.990864
	H335	H	0.067658	0.968582	0.993886
	O336	O	0.028218	-0.097896	-0.066548
	H337	H	0.022007	-0.094839	-0.074800
	H338	H	0.038518	-0.100009	-0.070476
	O339	O	0.487644	0.476599	0.444705
	H340	H	0.501505	0.470218	0.434825
	H341	H	0.483265	0.478353	0.453408
	O342	O	1.018943	1.104076	1.036544
	H343	H	0.996765	1.107767	1.044344
	H344	H	1.025718	1.109059	1.032948
	O345	O	1.007172	0.988168	0.128453
	H346	H	1.008492	0.996246	0.131997
	H347	H	1.014285	0.991262	0.116170
	O348	O	0.535728	0.526126	0.457710
	H349	H	0.518372	0.511809	0.449960
	H350	H	0.530571	0.534086	0.469653
	O351	O	0.408630	0.426303	0.535811
	H352	H	0.400904	0.442602	0.532862
	H353	H	0.409715	0.426937	0.532086
	O354	O	0.535588	0.517357	0.475529
	H355	H	0.546091	0.510735	0.469732
	H356	H	0.531307	0.513829	0.473475
	O357	O	1.017698	0.078419	1.000362
	H358	H	1.029894	0.083460	1.011803
	H359	H	1.027271	0.083598	1.000153
	O360	O	0.459015	0.490435	0.590525
	H361	H	0.454436	0.484666	0.597617
	H362	H	0.458242	0.488897	0.591104
	O363	O	0.471002	0.621238	0.422005
	H364	H	0.464447	0.623037	0.426141
	H365	H	0.481609	0.621987	0.417201
	O366	O	0.774168	1.306139	0.695693
	H367	H	0.776634	1.307580	0.677614
	H368	H	0.791215	1.299100	0.703825
	O369	O	0.919788	0.078238	0.976100
	H370	H	0.912304	0.082905	0.980539
	H371	H	0.924935	0.077643	0.975650
	O372	O	0.004722	-0.072087	0.015314
	H373	H	-0.002259	-0.077126	0.009536
	H374	H	-0.012581	-0.083334	0.020271
	O375	O	1.056625	-0.011530	-0.107841
	H376	H	1.042374	-0.002681	-0.102985
	H377	H	1.073201	-0.010844	-0.109747
	O378	O	0.523507	0.489829	0.448400
	H379	H	0.522620	0.500918	0.440462
	H380	H	0.517824	0.494430	0.440747
	O381	O	0.477095	0.586141	0.422758
	H382	H	0.479348	0.594962	0.419388
	H383	H	0.474822	0.576105	0.416711
