data_Molecule from HDF5

_cell_length_a		16.241977
_cell_length_b		16.267027
_cell_length_c		16.339342
_cell_angle_alpha	90.158547
_cell_angle_beta	89.977264
_cell_angle_gamma	90.035187
_symmetry_space_group_name_H-M	'P 1'
_symmetry_Int_Tables_number		1

loop_
	_symmetry_equiv_pos_as_xyz
	x,y,z

loop_
	_atom_site_label
	_atom_site_type_symbol
	_atom_site_fract_x
	_atom_site_fract_y
	_atom_site_fract_z
	H0	H	0.394366	0.834545	0.715419
	H1	H	0.595313	0.160582	0.715625
	H2	H	0.592110	0.833900	0.284426
	H3	H	0.394264	0.160859	0.284027
	H4	H	0.710112	0.399323	0.837613
	H5	H	0.709818	0.597208	0.163626
	H6	H	0.279310	0.596089	0.837414
	H7	H	0.279538	0.399019	0.163423
	H8	H	0.829848	0.709240	0.405649
	H9	H	0.158377	0.712206	0.600259
	H10	H	0.830649	0.283025	0.598133
	H11	H	0.159103	0.283644	0.403433
	H12	H	0.830664	0.397530	0.715333
	H13	H	0.157950	0.595721	0.715216
	H14	H	0.830566	0.595492	0.287578
	H15	H	0.158299	0.397352	0.285102
	H16	H	0.396506	0.711122	0.836509
	H17	H	0.593447	0.713451	0.162851
	H18	H	0.594781	0.282176	0.837663
	H19	H	0.395432	0.282782	0.163459
	H20	H	0.707130	0.831910	0.401623
	H21	H	0.709720	0.159985	0.598566
	H22	H	0.281109	0.833439	0.597090
	H23	H	0.280428	0.161494	0.401839
	H24	H	0.894780	0.334125	0.215779
	H25	H	0.094325	0.660288	0.217407
	H26	H	0.094446	0.333666	0.785537
	H27	H	0.895241	0.660566	0.785954
	H28	H	0.209089	0.898412	0.336594
	H29	H	0.210145	0.096197	0.663134
	H30	H	0.781999	0.092168	0.336420
	H31	H	0.778512	0.897670	0.663339
	H32	H	0.331080	0.212470	0.901589
	H33	H	0.659415	0.211623	0.097977
	H34	H	0.330335	0.783987	0.097015
	H35	H	0.659118	0.783146	0.900818
	H36	H	0.330601	0.898719	0.214583
	H37	H	0.658151	0.097295	0.215827
	H38	H	0.331657	0.097750	0.784690
	H39	H	0.658354	0.898452	0.784335
	H40	H	0.895627	0.211316	0.337027
	H41	H	0.094379	0.212395	0.663700
	H42	H	0.093077	0.781254	0.337059
	H43	H	0.895748	0.783748	0.664646
	H44	H	0.208783	0.333331	0.902872
	H45	H	0.208127	0.661482	0.098804
	H46	H	0.780409	0.333805	0.098935
	H47	H	0.781176	0.661605	0.903736
	H48	H	0.404552	0.113772	0.594502
	H49	H	0.585482	0.880061	0.594353
	H50	H	0.587500	0.114019	0.408227
	H51	H	0.405581	0.880349	0.397605
	H52	H	0.591274	0.403005	0.117545
	H53	H	0.586233	0.599273	0.882426
	H54	H	0.400451	0.587897	0.115151
	H55	H	0.407379	0.398567	0.884924
	H56	H	0.108075	0.576066	0.407002
	H57	H	0.874344	0.598165	0.597102
	H58	H	0.110482	0.404301	0.590172
	H59	H	0.880702	0.411524	0.409414
	H60	H	0.110997	0.407163	0.595334
	H61	H	0.879511	0.590073	0.586224
	H62	H	0.116773	0.596868	0.398341
	H63	H	0.875512	0.402358	0.400182
	H64	H	0.405334	0.593156	0.116236
	H65	H	0.597598	0.587561	0.882534
	H66	H	0.587154	0.408960	0.115214
	H67	H	0.394353	0.403211	0.881254
	H68	H	0.590265	0.114591	0.407226
	H69	H	0.585622	0.880888	0.592500
	H70	H	0.402213	0.112304	0.589969
	H71	H	0.408048	0.886116	0.413506
	H72	H	0.903753	0.612376	0.090827
	H73	H	0.083231	0.381641	0.094770
	H74	H	0.085421	0.612881	0.908038
	H75	H	0.899814	0.381880	0.913113
	H76	H	0.085316	0.900711	0.616336
	H77	H	0.091157	0.091811	0.382777
	H78	H	0.900262	0.082653	0.614644
	H79	H	0.903560	0.897286	0.383777
	H80	H	0.611749	0.092432	0.906871
	H81	H	0.380051	0.088571	0.088194
	H82	H	0.613285	0.902270	0.096520
	H83	H	0.376428	0.899956	0.906080
	H84	H	0.609581	0.904300	0.086807
	H85	H	0.378204	0.087168	0.096152
	H86	H	0.609452	0.088827	0.909657
	H87	H	0.380382	0.906718	0.910764
	H88	H	0.908282	0.092372	0.614858
	H89	H	0.086615	0.085470	0.385897
	H90	H	0.092150	0.904954	0.617770
	H91	H	0.896034	0.902078	0.382963
	H92	H	0.088757	0.613788	0.909145
	H93	H	0.087642	0.381772	0.089890
	H94	H	0.899009	0.615664	0.095643
	H95	H	0.899584	0.379132	0.903031
	H96	H	0.399607	0.114828	0.593254
	H97	H	0.587164	0.880216	0.593320
	H98	H	0.587259	0.113621	0.405485
	H99	H	0.392848	0.878943	0.408291
	H100	H	0.583727	0.402691	0.116587
	H101	H	0.582216	0.584246	0.887921
	H102	H	0.398486	0.594525	0.118290
	H103	H	0.404306	0.411875	0.887780
	H104	H	0.109050	0.594902	0.421074
	H105	H	0.878002	0.583414	0.599715
	H106	H	0.112288	0.402118	0.595340
	H107	H	0.877775	0.397869	0.413411
	H108	H	0.905532	0.614161	0.098099
	H109	H	0.090227	0.379650	0.096849
	H110	H	0.087855	0.614928	0.905681
	H111	H	0.908408	0.382637	0.907254
	H112	H	0.086114	0.908191	0.614014
	H113	H	0.083315	0.092409	0.385044
	H114	H	0.895557	0.094364	0.619480
	H115	H	0.903102	0.906090	0.385847
	H116	H	0.611704	0.087599	0.904932
	H117	H	0.377010	0.094660	0.093398
	H118	H	0.610176	0.911816	0.094224
	H119	H	0.377951	0.907550	0.902708
	C120	C	0.373094	0.005991	0.621567
	C121	C	0.615745	0.988507	0.621771
	C122	C	0.615969	0.005409	0.378348
	C123	C	0.372881	0.989374	0.377714
	C124	C	0.616570	0.376143	0.008743
	C125	C	0.616990	0.619409	0.992009
	C126	C	0.372723	0.619780	0.008387
	C127	C	0.373088	0.375886	0.992404
	C128	C	0.002903	0.618028	0.380563
	C129	C	0.985602	0.619143	0.622895
	C130	C	0.003089	0.375519	0.622172
	C131	C	0.986347	0.375155	0.378929
	C132	C	0.873586	0.505865	0.122670
	C133	C	0.115728	0.489121	0.122620
	C134	C	0.116337	0.505842	0.879166
	C135	C	0.873415	0.488889	0.879508
	C136	C	0.116585	0.875201	0.508298
	C137	C	0.116138	0.118908	0.492107
	C138	C	0.872846	0.118293	0.508522
	C139	C	0.872664	0.874441	0.492383
	C140	C	0.503439	0.119275	0.878399
	C141	C	0.486740	0.119053	0.121420
	C142	C	0.502770	0.876947	0.121138
	C143	C	0.486714	0.876305	0.878095
	C144	C	0.374595	0.883105	0.677065
	C145	C	0.614688	0.111623	0.677351
	C146	C	0.613097	0.882372	0.322547
	C147	C	0.374568	0.112343	0.322419
	C148	C	0.672213	0.378524	0.886227
	C149	C	0.672084	0.617736	0.114610
	C150	C	0.317580	0.616370	0.885921
	C151	C	0.317513	0.378428	0.114790
	C152	C	0.879038	0.672262	0.383963
	C153	C	0.109375	0.674130	0.620167
	C154	C	0.879667	0.320191	0.619465
	C155	C	0.109862	0.320755	0.382213
	C156	C	0.879533	0.377550	0.677182
	C157	C	0.109200	0.616515	0.677698
	C158	C	0.879489	0.615920	0.325386
	C159	C	0.109496	0.377606	0.323678
	C160	C	0.375519	0.673790	0.885555
	C161	C	0.614200	0.675411	0.114358
	C162	C	0.614632	0.320662	0.886197
	C163	C	0.375470	0.320773	0.114801
	C164	C	0.669769	0.881421	0.380992
	C165	C	0.671720	0.111466	0.619378
	C166	C	0.318306	0.882558	0.618283
	C167	C	0.317856	0.112546	0.380829
	C168	C	0.874778	0.383057	0.177944
	C169	C	0.114156	0.611804	0.178398
	C170	C	0.114225	0.382443	0.823816
	C171	C	0.875199	0.611961	0.824063
	C172	C	0.171766	0.877353	0.385543
	C173	C	0.172042	0.116470	0.614577
	C174	C	0.818845	0.114270	0.385396
	C175	C	0.816773	0.877274	0.614925
	C176	C	0.380032	0.174750	0.880861
	C177	C	0.610187	0.174026	0.118854
	C178	C	0.379407	0.821854	0.118027
	C179	C	0.610006	0.820802	0.880331
	C180	C	0.379528	0.878858	0.176409
	C181	C	0.609682	0.117293	0.177210
	C182	C	0.380223	0.117654	0.822960
	C183	C	0.609794	0.878489	0.822708
	C184	C	0.875647	0.173195	0.385898
	C185	C	0.114449	0.174222	0.614903
	C186	C	0.113887	0.819199	0.385907
	C187	C	0.875366	0.820958	0.615586
	C188	C	0.171154	0.382263	0.882183
	C189	C	0.170682	0.612423	0.119473
	C190	C	0.818069	0.382818	0.119731
	C191	C	0.818466	0.612406	0.882604
	C192	C	0.395795	0.091682	0.599338
	C193	C	0.592958	0.902645	0.599679
	C194	C	0.594648	0.091624	0.400565
	C195	C	0.395528	0.903915	0.399893
	C196	C	0.593946	0.398402	0.094253
	C197	C	0.595006	0.596872	0.906354
	C198	C	0.394840	0.598221	0.094382
	C199	C	0.395444	0.398161	0.906691
	C200	C	0.088961	0.595828	0.402577
	C201	C	0.899514	0.597025	0.600998
	C202	C	0.089032	0.397923	0.600247
	C203	C	0.900112	0.397335	0.401210
	C204	C	0.896208	0.591781	0.101042
	C205	C	0.093543	0.403035	0.100353
	C206	C	0.093845	0.591662	0.901188
	C207	C	0.895999	0.403402	0.901378
	C208	C	0.094316	0.897915	0.593940
	C209	C	0.093615	0.096433	0.406701
	C210	C	0.894919	0.096499	0.594088
	C211	C	0.894361	0.895711	0.406525
	C212	C	0.588878	0.096401	0.900479
	C213	C	0.400698	0.096869	0.099181
	C214	C	0.588878	0.899561	0.099086
	C215	C	0.400516	0.898359	0.900156
	Zn216	Zn	0.494431	-0.002486	0.749793
	Zn217	Zn	0.494525	-0.001762	0.250018
	Zn218	Zn	0.745430	0.497369	0.001097
	Zn219	Zn	0.244327	0.497676	0.000614
	Zn220	Zn	-0.005772	0.746637	0.501430
	Zn221	Zn	-0.005358	0.247229	0.501147
	Zn222	Zn	-0.005475	0.497204	0.750570
	Zn223	Zn	-0.005460	0.497329	0.251583
	Zn224	Zn	0.494666	0.748065	-0.000431
	Zn225	Zn	0.494847	0.247249	0.000431
	Zn226	Zn	0.744084	-0.004255	0.499936
	Zn227	Zn	0.244918	-0.002472	0.499784
	N228	N	0.407965	0.960769	0.679147
	N229	N	0.580700	0.034195	0.678855
	N230	N	0.580404	0.960318	0.320804
	N231	N	0.408081	0.034724	0.320377
	N232	N	0.673293	0.412488	0.963340
	N233	N	0.673577	0.583368	0.037711
	N234	N	0.315620	0.583609	0.963626
	N235	N	0.315871	0.412000	0.037609
	N236	N	0.956558	0.673475	0.417716
	N237	N	0.031565	0.675692	0.586851
	N238	N	0.957258	0.318997	0.585872
	N239	N	0.032285	0.319260	0.416032
	N240	N	0.957222	0.411365	0.678981
	N241	N	0.031510	0.582973	0.679462
	N242	N	0.957675	0.583086	0.322953
	N243	N	0.031571	0.410668	0.321829
	N244	N	0.409319	0.675659	0.962674
	N245	N	0.580662	0.676652	0.036988
	N246	N	0.580768	0.319130	0.963277
	N247	N	0.409168	0.319160	0.037647
	N248	N	0.671676	0.958974	0.414973
	N249	N	0.672670	0.033984	0.585538
	N250	N	0.317185	0.960019	0.584505
	N251	N	0.316498	0.035127	0.414336
	N252	N	0.908709	0.460476	0.179718
	N253	N	0.080721	0.534292	0.180283
	N254	N	0.080840	0.460158	0.821685
	N255	N	0.908647	0.534247	0.821871
	N256	N	0.173533	0.911399	0.462735
	N257	N	0.173093	0.082750	0.537070
	N258	N	0.816944	0.080777	0.462573
	N259	N	0.815097	0.910142	0.537345
	N260	N	0.457511	0.175984	0.914806
	N261	N	0.532763	0.174943	0.084867
	N262	N	0.456931	0.820626	0.084449
	N263	N	0.532464	0.819527	0.914117
	N264	N	0.457392	0.912616	0.178433
	N265	N	0.531722	0.083969	0.179140
	N266	N	0.457652	0.083603	0.821431
	N267	N	0.532034	0.912096	0.821074
	N268	N	0.908489	0.175751	0.463572
	N269	N	0.080377	0.175837	0.537894
	N270	N	0.080423	0.817865	0.463220
	N271	N	0.909480	0.819247	0.538547
	N272	N	0.172567	0.459866	0.915846
	N273	N	0.171863	0.534869	0.085457
	N274	N	0.817044	0.460342	0.086144
	N275	N	0.817296	0.535010	0.916401
	O276	O	1.016951	1.016728	0.031047
	H277	H	1.017276	1.013376	0.019214
	H278	H	1.013591	1.017791	0.024058
	O279	O	0.015944	0.012830	0.006834
	H280	H	0.015588	0.012009	-0.000112
	H281	H	0.018216	0.018110	0.013445
	O282	O	0.010111	0.070712	1.017757
	H283	H	0.011832	0.062097	1.014897
	H284	H	0.009061	0.069101	1.021505
	O285	O	1.027752	1.041642	1.004187
	H286	H	1.026015	1.035522	1.017337
	H287	H	1.041882	1.043633	1.006124
	O288	O	0.453893	0.472882	0.477092
	H289	H	0.458348	0.475422	0.480250
	H290	H	0.455885	0.473039	0.472271
	O291	O	0.480437	0.486086	0.467619
	H292	H	0.475511	0.482927	0.465191
	H293	H	0.480597	0.490115	0.456334
	O294	O	-0.016114	0.014258	-0.011997
	H295	H	-0.023008	0.013406	-0.024396
	H296	H	-0.019646	0.022201	-0.010619
	O297	O	0.474112	0.462854	0.479336
	H298	H	0.471266	0.459740	0.472644
	H299	H	0.475971	0.459955	0.480930
	O300	O	0.023797	1.015166	0.984458
	H301	H	0.023170	1.021955	0.977148
	H302	H	0.018485	1.012194	0.979934
	O303	O	0.473370	0.453541	0.465342
	H304	H	0.470918	0.451736	0.472494
	H305	H	0.473807	0.445372	0.470490
	O306	O	-0.011435	-0.038566	0.970965
	H307	H	-0.017145	-0.040573	0.978434
	H308	H	-0.017928	-0.033141	0.964641
	O309	O	1.043747	1.026838	0.980367
	H310	H	1.046630	1.026803	0.977954
	H311	H	1.044275	1.037367	0.985947
	O312	O	1.011782	-0.048845	-0.029283
	H313	H	1.014935	-0.051144	-0.030553
	H314	H	1.015837	-0.043522	-0.029565
	O315	O	0.435945	0.444823	0.478527
	H316	H	0.426085	0.446889	0.476684
	H317	H	0.446115	0.446227	0.479006
	O318	O	0.059258	1.025607	0.058263
	H319	H	0.055005	1.025734	0.056240
	H320	H	0.063423	1.021102	0.066256
	O321	O	0.974722	1.093253	0.004283
	H322	H	0.983627	1.091666	0.014200
	H323	H	0.984059	1.094230	0.012382
