data_Molecule from HDF5

_cell_length_a		16.400946
_cell_length_b		16.366713
_cell_length_c		16.436384
_cell_angle_alpha	89.868329
_cell_angle_beta	90.212415
_cell_angle_gamma	90.008721
_symmetry_space_group_name_H-M	'P 1'
_symmetry_Int_Tables_number		1

loop_
	_symmetry_equiv_pos_as_xyz
	x,y,z

loop_
	_atom_site_label
	_atom_site_type_symbol
	_atom_site_fract_x
	_atom_site_fract_y
	_atom_site_fract_z
	H0	H	0.389820	0.843147	0.712746
	H1	H	0.604702	0.159252	0.713162
	H2	H	0.603772	0.842632	0.269586
	H3	H	0.388098	0.158381	0.264234
	H4	H	0.717936	0.396874	0.831277
	H5	H	0.721925	0.606479	0.147502
	H6	H	0.274891	0.609719	0.831856
	H7	H	0.275237	0.393134	0.146868
	H8	H	0.837792	0.721129	0.383533
	H9	H	0.156778	0.724213	0.593869
	H10	H	0.837738	0.282338	0.593488
	H11	H	0.156811	0.280761	0.384334
	H12	H	0.838549	0.397715	0.710600
	H13	H	0.155573	0.611696	0.713466
	H14	H	0.840293	0.608207	0.264391
	H15	H	0.157257	0.396891	0.267878
	H16	H	0.390978	0.726151	0.832653
	H17	H	0.604442	0.721084	0.149352
	H18	H	0.607043	0.277108	0.833422
	H19	H	0.393934	0.279673	0.148704
	H20	H	0.719568	0.843495	0.384308
	H21	H	0.719364	0.159889	0.597670
	H22	H	0.275320	0.842838	0.595458
	H23	H	0.273492	0.159539	0.381357
	H24	H	0.891168	0.344781	0.212837
	H25	H	0.106111	0.660950	0.210301
	H26	H	0.104920	0.344750	0.766034
	H27	H	0.889242	0.661006	0.765996
	H28	H	0.218670	0.896654	0.332597
	H29	H	0.221254	0.109911	0.646712
	H30	H	0.772715	0.109292	0.331573
	H31	H	0.776941	0.895886	0.648243
	H32	H	0.340858	0.223582	0.884463
	H33	H	0.655727	0.225092	0.100126
	H34	H	0.340350	0.778333	0.095886
	H35	H	0.657555	0.780508	0.887470
	H36	H	0.340046	0.893290	0.212672
	H37	H	0.654453	0.108558	0.215513
	H38	H	0.339774	0.107720	0.768101
	H39	H	0.655923	0.893183	0.767830
	H40	H	0.891754	0.223283	0.329986
	H41	H	0.103133	0.223869	0.647427
	H42	H	0.101886	0.781695	0.331737
	H43	H	0.890617	0.778188	0.646816
	H44	H	0.221181	0.344202	0.880720
	H45	H	0.221198	0.659841	0.093676
	H46	H	0.776826	0.343300	0.096137
	H47	H	0.772885	0.659936	0.880694
	H48	H	0.408346	0.115466	0.579980
	H49	H	0.595912	0.885512	0.578603
	H50	H	0.576329	0.109975	0.407990
	H51	H	0.402479	0.886056	0.402628
	H52	H	0.584527	0.406142	0.103756
	H53	H	0.582697	0.592515	0.877338
	H54	H	0.408816	0.593873	0.104575
	H55	H	0.408742	0.415426	0.877200
	H56	H	0.113362	0.594115	0.397711
	H57	H	0.884586	0.588370	0.581325
	H58	H	0.111726	0.406845	0.574433
	H59	H	0.884636	0.417372	0.394948
	H60	H	0.106027	0.420758	0.572292
	H61	H	0.883520	0.593940	0.576509
	H62	H	0.111359	0.593350	0.402864
	H63	H	0.883394	0.409453	0.399195
	H64	H	0.405653	0.583785	0.101593
	H65	H	0.588323	0.590604	0.875636
	H66	H	0.594614	0.412885	0.106067
	H67	H	0.412442	0.412372	0.878857
	H68	H	0.590683	0.115767	0.406609
	H69	H	0.583157	0.885813	0.587536
	H70	H	0.412940	0.114165	0.578624
	H71	H	0.410631	0.887612	0.396144
	H72	H	0.911000	0.615668	0.077471
	H73	H	0.085866	0.390128	0.074023
	H74	H	0.084341	0.614077	0.904912
	H75	H	0.908518	0.387735	0.896675
	H76	H	0.086161	0.916157	0.602265
	H77	H	0.086417	0.090133	0.376618
	H78	H	0.909637	0.094704	0.602743
	H79	H	0.899879	0.911468	0.373593
	H80	H	0.611999	0.088024	0.901901
	H81	H	0.386461	0.087263	0.075155
	H82	H	0.608359	0.919946	0.078995
	H83	H	0.386972	0.918652	0.901736
	H84	H	0.614762	0.910765	0.088511
	H85	H	0.384444	0.088544	0.078559
	H86	H	0.611773	0.089354	0.901982
	H87	H	0.383494	0.911577	0.897519
	H88	H	0.905568	0.090717	0.603025
	H89	H	0.084572	0.090666	0.376353
	H90	H	0.083024	0.913654	0.602298
	H91	H	0.908384	0.921949	0.379794
	H92	H	0.088493	0.615446	0.901399
	H93	H	0.090594	0.386192	0.079222
	H94	H	0.913026	0.612929	0.074061
	H95	H	0.912980	0.390523	0.901017
	H96	H	0.409011	0.113658	0.575258
	H97	H	0.582473	0.891114	0.572970
	H98	H	0.581026	0.115882	0.395163
	H99	H	0.411256	0.890958	0.405729
	H100	H	0.584278	0.418083	0.100110
	H101	H	0.584621	0.587537	0.879440
	H102	H	0.415953	0.587098	0.099847
	H103	H	0.409130	0.410916	0.875947
	H104	H	0.110506	0.589089	0.398693
	H105	H	0.887131	0.588461	0.574406
	H106	H	0.112193	0.416990	0.586111
	H107	H	0.887323	0.416091	0.403451
	H108	H	0.908526	0.615063	0.073638
	H109	H	0.083845	0.389159	0.081149
	H110	H	0.083626	0.614898	0.900025
	H111	H	0.906761	0.389240	0.903203
	H112	H	0.086764	0.912723	0.604415
	H113	H	0.086330	0.091950	0.375627
	H114	H	0.910997	0.089372	0.600033
	H115	H	0.913964	0.908660	0.376595
	H116	H	0.611636	0.088286	0.902525
	H117	H	0.385356	0.090964	0.075596
	H118	H	0.611586	0.906269	0.075112
	H119	H	0.385737	0.910694	0.906249
	C120	C	0.377030	0.009602	0.610376
	C121	C	0.619779	0.992523	0.612467
	C122	C	0.616402	0.009297	0.370539
	C123	C	0.374707	0.992529	0.367609
	C124	C	0.620421	0.379296	-0.001013
	C125	C	0.619404	0.622804	0.981556
	C126	C	0.376677	0.622662	-0.001919
	C127	C	0.377592	0.379845	0.981722
	C128	C	0.006727	0.624136	0.366777
	C129	C	0.989273	0.624056	0.610619
	C130	C	0.005360	0.381883	0.610296
	C131	C	0.989813	0.381295	0.367335
	C132	C	0.877995	0.510206	0.109068
	C133	C	0.119968	0.492975	0.110585
	C134	C	0.119092	0.510690	0.868367
	C135	C	0.875888	0.493945	0.867149
	C136	C	0.117748	0.881604	0.498452
	C137	C	0.119141	0.124375	0.480516
	C138	C	0.875236	0.124343	0.497618
	C139	C	0.875465	0.880885	0.481115
	C140	C	0.507362	0.122374	0.868903
	C141	C	0.489387	0.122548	0.111161
	C142	C	0.506764	0.879316	0.112563
	C143	C	0.489726	0.879937	0.869466
	C144	C	0.372968	0.890483	0.671750
	C145	C	0.622713	0.111362	0.673319
	C146	C	0.620588	0.890185	0.309967
	C147	C	0.370228	0.110932	0.304879
	C148	C	0.679276	0.377860	0.879348
	C149	C	0.680958	0.624929	0.100456
	C150	C	0.315597	0.626921	0.879227
	C151	C	0.316206	0.375937	0.099939
	C152	C	0.886275	0.682638	0.364602
	C153	C	0.108822	0.684774	0.613058
	C154	C	0.885801	0.321903	0.612169
	C155	C	0.109186	0.320628	0.365542
	C156	C	0.886298	0.379507	0.670481
	C157	C	0.108220	0.628672	0.672635
	C158	C	0.887532	0.626736	0.304837
	C159	C	0.109341	0.378180	0.307306
	C160	C	0.373139	0.685225	0.879922
	C161	C	0.622461	0.681950	0.101379
	C162	C	0.623841	0.318344	0.880269
	C163	C	0.375451	0.319384	0.100865
	C164	C	0.678504	0.890725	0.367171
	C165	C	0.679874	0.111887	0.615406
	C166	C	0.315706	0.890435	0.613472
	C167	C	0.313396	0.111534	0.363448
	C168	C	0.874498	0.391697	0.171542
	C169	C	0.123788	0.612728	0.170365
	C170	C	0.122608	0.392032	0.806651
	C171	C	0.872089	0.613142	0.806208
	C172	C	0.178687	0.878595	0.379934
	C173	C	0.180887	0.128023	0.599142
	C174	C	0.813655	0.127185	0.378934
	C175	C	0.816213	0.877794	0.600395
	C176	C	0.388306	0.183577	0.865919
	C177	C	0.607804	0.184761	0.116852
	C178	C	0.387539	0.818295	0.114597
	C179	C	0.609602	0.820091	0.868325
	C180	C	0.387458	0.875798	0.172259
	C181	C	0.607531	0.126632	0.174460
	C182	C	0.387727	0.125555	0.808387
	C183	C	0.608679	0.875881	0.808433
	C184	C	0.872715	0.184143	0.378134
	C185	C	0.121681	0.184281	0.599766
	C186	C	0.120407	0.821363	0.379482
	C187	C	0.872759	0.818908	0.599473
	C188	C	0.180342	0.391647	0.864023
	C189	C	0.180854	0.612522	0.112102
	C190	C	0.817163	0.391083	0.113564
	C191	C	0.813984	0.612651	0.863423
	C192	C	0.402763	0.092660	0.585021
	C193	C	0.594503	0.909093	0.586852
	C194	C	0.590199	0.092288	0.396016
	C195	C	0.400525	0.909843	0.393970
	C196	C	0.595132	0.404884	0.081797
	C197	C	0.592980	0.597471	0.899083
	C198	C	0.402773	0.595987	0.080425
	C199	C	0.402948	0.405623	0.899044
	C200	C	0.089581	0.599459	0.392299
	C201	C	0.906653	0.597962	0.584791
	C202	C	0.088451	0.407466	0.584880
	C203	C	0.906800	0.407023	0.392046
	C204	C	0.903578	0.592999	0.082527
	C205	C	0.094058	0.410163	0.085458
	C206	C	0.092901	0.593262	0.894655
	C207	C	0.901978	0.410880	0.892964
	C208	C	0.092465	0.906870	0.581383
	C209	C	0.093285	0.098547	0.397825
	C210	C	0.901209	0.098756	0.580410
	C211	C	0.900372	0.906619	0.398187
	C212	C	0.590084	0.096113	0.894661
	C213	C	0.406948	0.096358	0.084207
	C214	C	0.589865	0.905032	0.087953
	C215	C	0.406907	0.905903	0.894616
	Zn216	Zn	0.497308	0.000747	0.740350
	Zn217	Zn	0.496941	0.001077	0.240279
	Zn218	Zn	0.748064	0.501522	-0.010890
	Zn219	Zn	0.248066	0.500783	-0.011254
	Zn220	Zn	-0.002830	0.752211	0.488785
	Zn221	Zn	-0.002547	0.252753	0.489085
	Zn222	Zn	-0.001933	0.502708	0.739432
	Zn223	Zn	-0.001382	0.502928	0.238544
	Zn224	Zn	0.498753	0.751383	-0.009082
	Zn225	Zn	0.499048	0.250823	-0.010093
	Zn226	Zn	0.746359	0.002176	0.489600
	Zn227	Zn	0.246858	0.001970	0.490278
	N228	N	0.410387	0.965544	0.669894
	N229	N	0.586086	0.035915	0.671694
	N230	N	0.582527	0.965103	0.312029
	N231	N	0.407506	0.035911	0.307321
	N232	N	0.677533	0.414842	0.954123
	N233	N	0.679368	0.589089	0.024941
	N234	N	0.317712	0.588739	0.953767
	N235	N	0.317271	0.412679	0.024675
	N236	N	0.961268	0.681532	0.401978
	N237	N	0.033867	0.682416	0.575646
	N238	N	0.961032	0.323323	0.575486
	N239	N	0.033822	0.322202	0.401845
	N240	N	0.961753	0.416060	0.669426
	N241	N	0.032870	0.591634	0.671244
	N242	N	0.963448	0.591196	0.305812
	N243	N	0.034051	0.415168	0.308134
	N244	N	0.410439	0.682756	0.954862
	N245	N	0.584968	0.680802	0.026418
	N246	N	0.588005	0.318969	0.955834
	N247	N	0.412777	0.321649	0.026235
	N248	N	0.675967	0.965730	0.404201
	N249	N	0.678284	0.036673	0.578448
	N250	N	0.317925	0.965460	0.575852
	N251	N	0.315726	0.036853	0.401697
	N252	N	0.911969	0.466760	0.168715
	N253	N	0.086569	0.537575	0.169358
	N254	N	0.085085	0.466970	0.809143
	N255	N	0.910174	0.538302	0.808564
	N256	N	0.176902	0.915403	0.454949
	N257	N	0.179417	0.091400	0.524015
	N258	N	0.814885	0.091081	0.454502
	N259	N	0.817474	0.915514	0.525685
	N260	N	0.463659	0.181657	0.902719
	N261	N	0.533412	0.182061	0.078218
	N262	N	0.462607	0.820507	0.078107
	N263	N	0.534712	0.822648	0.905538
	N264	N	0.462694	0.912786	0.171457
	N265	N	0.532956	0.088637	0.171050
	N266	N	0.462919	0.088439	0.809824
	N267	N	0.533186	0.912504	0.809016
	N268	N	0.910165	0.182617	0.453045
	N269	N	0.084226	0.182285	0.524832
	N270	N	0.083288	0.823146	0.454235
	N271	N	0.908661	0.820515	0.524205
	N272	N	0.178420	0.466552	0.901459
	N273	N	0.178862	0.536996	0.075738
	N274	N	0.819359	0.465628	0.075138
	N275	N	0.816255	0.537404	0.900702
	O276	O	-0.052563	0.803795	0.122499
	H277	H	-0.039328	0.806663	0.102190
	H278	H	-0.046441	0.773540	0.148728
	O279	O	0.667674	0.510008	0.689765
	H280	H	0.652490	0.525454	0.685970
	H281	H	0.683126	0.506794	0.710390
	O282	O	0.318358	0.584758	0.427583
	H283	H	0.326792	0.588876	0.452270
	H284	H	0.309268	0.574025	0.413068
	O285	O	0.975957	1.217849	-0.095262
	H286	H	0.963447	1.231113	-0.114344
	H287	H	0.954752	1.215339	-0.111513
	O288	O	0.326588	0.553853	0.301042
	H289	H	0.311983	0.562689	0.279163
	H290	H	0.319747	0.594993	0.305193
	O291	O	0.296244	0.298100	0.504419
	H292	H	0.296007	0.277316	0.497025
	H293	H	0.310749	0.277454	0.493888
	O294	O	1.112650	0.939730	1.113419
	H295	H	1.101894	0.941720	1.106215
	H296	H	1.097319	0.953852	1.098173
	O297	O	0.492016	0.476534	0.311194
	H298	H	0.505066	0.491484	0.319622
	H299	H	0.464488	0.481227	0.308605
	O300	O	0.455302	0.626030	0.675774
	H301	H	0.449727	0.640134	0.648497
	H302	H	0.467763	0.619944	0.686327
	O303	O	0.890808	-0.158808	0.960010
	H304	H	0.898740	-0.141424	0.958327
	H305	H	0.901598	-0.158828	0.937167
	O306	O	0.207734	-0.093578	0.930657
	H307	H	0.215090	-0.076334	0.937505
	H308	H	0.201199	-0.079460	0.922576
	O309	O	0.995900	-0.100442	0.094213
	H310	H	0.984858	-0.072370	0.084895
	H311	H	0.996724	-0.111168	0.088666
	O312	O	0.480701	0.288458	0.704114
	H313	H	0.460219	0.275408	0.719135
	H314	H	0.446682	0.284743	0.708007
	O315	O	0.608911	0.312139	0.296209
	H316	H	0.581452	0.308268	0.282541
	H317	H	0.609789	0.312808	0.298158
	O318	O	0.207116	0.012245	0.182059
	H319	H	0.203962	0.003483	0.189941
	H320	H	0.209915	0.000334	0.200154
	O321	O	0.518893	0.585755	0.420301
	H322	H	0.515346	0.583939	0.414731
	H323	H	0.512670	0.574590	0.408294
	O324	O	0.897181	0.166761	1.078846
	H325	H	0.882431	0.175984	1.072588
	H326	H	0.898860	0.157109	1.082060
	O327	O	1.187759	-0.114551	0.908829
	H328	H	1.195329	-0.097117	0.925916
	H329	H	1.194226	-0.099070	0.927259
	O330	O	0.202893	1.198378	1.002376
	H331	H	0.223333	1.217809	1.013210
	H332	H	0.192530	1.197591	1.030424
	O333	O	-0.048621	0.949646	-0.211853
	H334	H	-0.035793	0.947469	-0.224479
	H335	H	-0.049826	0.939234	-0.212386
	O336	O	0.989105	1.001022	0.159360
	H337	H	0.984544	1.014009	0.147202
	H338	H	0.981727	1.018139	0.171330
	O339	O	0.099798	1.071501	0.800714
	H340	H	0.095298	1.099255	0.804964
	H341	H	0.080098	1.075173	0.803506
	O342	O	0.676805	0.394605	0.397796
	H343	H	0.680132	0.394278	0.411189
	H344	H	0.670032	0.386671	0.386306
	O345	O	-0.187221	0.192829	0.921578
	H346	H	-0.193730	0.205214	0.939459
	H347	H	-0.194132	0.167978	0.924703
	O348	O	0.697492	0.476682	0.434282
	H349	H	0.704177	0.473243	0.438421
	H350	H	0.703605	0.453393	0.434805
	O351	O	0.793378	1.026375	-0.220761
	H352	H	0.780504	1.023266	-0.239454
	H353	H	0.792292	1.011416	-0.217393
	O354	O	1.033259	0.891197	1.030211
	H355	H	1.040338	0.896169	1.021203
	H356	H	1.032447	0.895263	1.019701
	O357	O	0.017329	-0.210012	-0.223540
	H358	H	0.060726	-0.208083	-0.217591
	H359	H	0.017048	-0.238013	-0.242077
	O360	O	0.515234	0.411294	0.538792
	H361	H	0.520036	0.423819	0.553458
	H362	H	0.521075	0.400988	0.537729
	O363	O	0.886937	0.194448	-0.189382
	H364	H	0.876959	0.191411	-0.197955
	H365	H	0.864956	0.183279	-0.173732
	O366	O	-0.684660	-0.524580	1.379750
	H367	H	-0.700201	-0.542778	1.381642
	H368	H	-0.688247	-0.507756	1.370136
	O369	O	1.148417	0.173938	1.149967
	H370	H	1.126638	0.163375	1.149863
	H371	H	1.142632	0.147646	1.157442
	O372	O	0.420783	0.305518	0.426124
	H373	H	0.438512	0.315983	0.422191
	H374	H	0.437536	0.311000	0.415371
	O375	O	0.014436	0.052682	0.970844
	H376	H	0.003615	0.079548	0.962413
	H377	H	-0.000449	0.038406	0.971806
	O378	O	0.514538	0.649596	0.469137
	H379	H	0.527760	0.642637	0.472819
	H380	H	0.524367	0.632730	0.459084
	O381	O	0.307752	0.490342	0.688467
	H382	H	0.311206	0.501049	0.696656
	H383	H	0.293850	0.505934	0.690560
	O384	O	0.527097	0.596628	0.320261
	H385	H	0.542929	0.588777	0.326895
	H386	H	0.534315	0.595088	0.312919
	O387	O	0.357398	0.663035	0.407312
	H388	H	0.372683	0.673247	0.421883
	H389	H	0.376732	0.663550	0.407626
	O390	O	0.826625	0.816173	0.021007
	H391	H	0.798418	0.784278	0.024014
	H392	H	0.845824	0.811976	-0.008179
	O393	O	1.193948	-0.176869	0.895484
	H394	H	1.196999	-0.167182	0.896136
	H395	H	1.206936	-0.169149	0.917553
	O396	O	0.581603	0.335917	0.577743
	H397	H	0.573545	0.318555	0.581344
	H398	H	0.573877	0.354776	0.583481
	O399	O	0.302262	0.649748	0.462930
	H400	H	0.308121	0.649033	0.477526
	H401	H	0.295713	0.633791	0.477671
	O402	O	0.836574	1.085721	0.060029
	H403	H	0.840390	1.079320	0.085669
	H404	H	0.851219	1.068466	0.054163
	O405	O	0.322188	0.322283	0.671664
	H406	H	0.304533	0.364436	0.686267
	H407	H	0.309025	0.316726	0.627398
	O408	O	0.522628	0.489405	0.673020
	H409	H	0.521798	0.473984	0.674069
	H410	H	0.532942	0.491009	0.682663
	O411	O	1.021145	1.218490	1.054391
	H412	H	1.003768	1.231746	1.031567
	H413	H	1.009483	1.231976	1.064306
	O414	O	0.679791	0.653218	0.675998
	H415	H	0.682246	0.655596	0.653563
	H416	H	0.647658	0.650575	0.684838
	O417	O	0.119110	1.095022	0.871675
	H418	H	0.120488	1.098261	0.873379
	H419	H	0.120032	1.112262	0.874433
	O420	O	-0.185145	0.978554	1.187569
	H421	H	-0.185654	0.947226	1.182540
	H422	H	-0.174938	0.975851	1.203950
	O423	O	-0.188563	0.956092	-0.031339
	H424	H	-0.194750	0.938312	-0.033894
	H425	H	-0.181024	0.962313	-0.013083
	O426	O	0.710577	0.383574	0.467146
	H427	H	0.722374	0.359719	0.474738
	H428	H	0.691580	0.394037	0.477570
	O429	O	0.699797	0.707842	0.535652
	H430	H	0.715123	0.724892	0.528260
	H431	H	0.696949	0.698402	0.541004
	O432	O	0.553969	0.654409	0.288099
	H433	H	0.555930	0.651675	0.300000
	H434	H	0.557369	0.666150	0.269276
	O435	O	-0.125945	-0.182772	0.153176
	H436	H	-0.095186	-0.198779	0.167194
	H437	H	-0.147834	-0.186129	0.126103
	O438	O	-0.505487	1.709709	1.615715
	H439	H	-0.506625	1.721486	1.605066
	H440	H	-0.511515	1.715987	1.610181
	O441	O	0.495574	0.379531	0.395159
	H442	H	0.488529	0.368694	0.389101
	H443	H	0.475896	0.382424	0.401773
