data_Molecule from HDF5

_cell_length_a		16.622972
_cell_length_b		16.610203
_cell_length_c		16.701713
_cell_angle_alpha	89.975346
_cell_angle_beta	90.001332
_cell_angle_gamma	89.949319
_symmetry_space_group_name_H-M	'P 1'
_symmetry_Int_Tables_number		1

loop_
	_symmetry_equiv_pos_as_xyz
	x,y,z

loop_
	_atom_site_label
	_atom_site_type_symbol
	_atom_site_fract_x
	_atom_site_fract_y
	_atom_site_fract_z
	H0	H	0.396383	0.837653	0.735040
	H1	H	0.602112	0.151328	0.731450
	H2	H	0.607834	0.838906	0.292315
	H3	H	0.390485	0.146372	0.288175
	H4	H	0.723431	0.386619	0.859561
	H5	H	0.720093	0.595728	0.169838
	H6	H	0.280462	0.598182	0.857724
	H7	H	0.275947	0.385148	0.167029
	H8	H	0.847292	0.715846	0.408452
	H9	H	0.157175	0.714030	0.618225
	H10	H	0.848854	0.270349	0.621910
	H11	H	0.157667	0.272157	0.408219
	H12	H	0.848830	0.385449	0.738184
	H13	H	0.156095	0.601437	0.736296
	H14	H	0.847333	0.599687	0.292032
	H15	H	0.157309	0.388018	0.291986
	H16	H	0.397601	0.712613	0.857885
	H17	H	0.603098	0.711399	0.169459
	H18	H	0.604895	0.272550	0.858714
	H19	H	0.391186	0.268531	0.166561
	H20	H	0.722689	0.838584	0.409098
	H21	H	0.718990	0.150876	0.616195
	H22	H	0.281862	0.837247	0.617313
	H23	H	0.277139	0.147563	0.406006
	H24	H	0.896308	0.337673	0.235839
	H25	H	0.104185	0.650772	0.231576
	H26	H	0.109395	0.339361	0.789940
	H27	H	0.897150	0.648493	0.793776
	H28	H	0.221829	0.889966	0.359763
	H29	H	0.222971	0.098888	0.669521
	H30	H	0.779235	0.100762	0.359709
	H31	H	0.783592	0.892314	0.670842
	H32	H	0.342799	0.209863	0.913396
	H33	H	0.656893	0.213061	0.116802
	H34	H	0.344721	0.775763	0.114594
	H35	H	0.658002	0.773652	0.910096
	H36	H	0.345753	0.889799	0.232768
	H37	H	0.656109	0.099214	0.235701
	H38	H	0.342785	0.093839	0.797795
	H39	H	0.657019	0.888413	0.792724
	H40	H	0.895794	0.215900	0.359549
	H41	H	0.108933	0.217274	0.668217
	H42	H	0.103124	0.775588	0.358222
	H43	H	0.899646	0.775201	0.670101
	H44	H	0.224088	0.338772	0.907036
	H45	H	0.221095	0.649938	0.117019
	H46	H	0.784168	0.335237	0.116494
	H47	H	0.782086	0.648875	0.911293
	H48	H	0.412465	0.106867	0.608737
	H49	H	0.591448	0.880769	0.607355
	H50	H	0.587336	0.105335	0.420445
	H51	H	0.413926	0.886300	0.434523
	H52	H	0.584567	0.403840	0.123181
	H53	H	0.594533	0.582445	0.901204
	H54	H	0.409816	0.590120	0.126591
	H55	H	0.408931	0.410060	0.904803
	H56	H	0.116487	0.588667	0.421777
	H57	H	0.890336	0.580646	0.602306
	H58	H	0.112809	0.405084	0.601490
	H59	H	0.892194	0.405840	0.426680
	H60	H	0.111050	0.407712	0.598504
	H61	H	0.888719	0.583143	0.606463
	H62	H	0.111826	0.582254	0.428896
	H63	H	0.890963	0.407782	0.423494
	H64	H	0.405913	0.578210	0.124830
	H65	H	0.591813	0.582809	0.902389
	H66	H	0.593972	0.397200	0.127978
	H67	H	0.419400	0.406333	0.906639
	H68	H	0.584852	0.102708	0.428084
	H69	H	0.590399	0.882149	0.604053
	H70	H	0.414219	0.103446	0.602612
	H71	H	0.407356	0.879572	0.422629
	H72	H	0.913898	0.604588	0.104699
	H73	H	0.091324	0.382188	0.101185
	H74	H	0.093007	0.605908	0.923659
	H75	H	0.911132	0.382151	0.930653
	H76	H	0.088595	0.904188	0.625212
	H77	H	0.089490	0.084118	0.403253
	H78	H	0.914465	0.081930	0.624040
	H79	H	0.911756	0.904335	0.402358
	H80	H	0.614226	0.082651	0.919282
	H81	H	0.392626	0.073795	0.101977
	H82	H	0.615865	0.903831	0.110940
	H83	H	0.387482	0.898679	0.922810
	H84	H	0.614827	0.897482	0.099467
	H85	H	0.388171	0.082926	0.107307
	H86	H	0.614217	0.087066	0.923378
	H87	H	0.390665	0.904652	0.926650
	H88	H	0.911593	0.086399	0.626405
	H89	H	0.091405	0.079315	0.404701
	H90	H	0.092253	0.898952	0.628436
	H91	H	0.910176	0.904138	0.402022
	H92	H	0.086076	0.604495	0.922420
	H93	H	0.089615	0.380626	0.104690
	H94	H	0.908674	0.604185	0.100564
	H95	H	0.910045	0.378157	0.920370
	H96	H	0.407644	0.106091	0.603848
	H97	H	0.593950	0.880826	0.604555
	H98	H	0.592864	0.105632	0.427565
	H99	H	0.421882	0.884748	0.421468
	H100	H	0.596340	0.408748	0.124399
	H101	H	0.593081	0.585184	0.900617
	H102	H	0.417439	0.581936	0.121689
	H103	H	0.411681	0.399519	0.901803
	H104	H	0.113956	0.578619	0.418739
	H105	H	0.889659	0.585413	0.602382
	H106	H	0.112761	0.409719	0.602109
	H107	H	0.890011	0.404158	0.424204
	H108	H	0.908249	0.607103	0.106807
	H109	H	0.087399	0.383068	0.102002
	H110	H	0.088491	0.603656	0.928728
	H111	H	0.919655	0.382662	0.923296
	H112	H	0.095531	0.905345	0.626689
	H113	H	0.086284	0.080519	0.405567
	H114	H	0.908633	0.081454	0.625722
	H115	H	0.910716	0.905592	0.402474
	H116	H	0.611822	0.081439	0.925252
	H117	H	0.390931	0.083665	0.096341
	H118	H	0.610160	0.909793	0.100348
	H119	H	0.389193	0.905512	0.919327
	C120	C	0.380079	0.002065	0.635881
	C121	C	0.622044	0.985137	0.635667
	C122	C	0.621711	0.002052	0.393067
	C123	C	0.380287	0.985234	0.392708
	C124	C	0.622565	0.371550	0.022459
	C125	C	0.623263	0.614262	1.005013
	C126	C	0.379955	0.614481	0.021591
	C127	C	0.379406	0.371984	1.005854
	C128	C	0.010903	0.615037	0.391804
	C129	C	0.992955	0.614840	0.634946
	C130	C	0.010542	0.373402	0.634173
	C131	C	0.993728	0.372994	0.392217
	C132	C	0.879342	0.501792	0.135863
	C133	C	0.121662	0.485312	0.134031
	C134	C	0.122894	0.502443	0.891695
	C135	C	0.881134	0.484262	0.893004
	C136	C	0.122645	0.872332	0.523421
	C137	C	0.122695	0.114699	0.506178
	C138	C	0.879646	0.115907	0.522892
	C139	C	0.879713	0.872635	0.505324
	C140	C	0.509389	0.114405	0.892525
	C141	C	0.492767	0.113808	0.134854
	C142	C	0.510066	0.872320	0.134382
	C143	C	0.492631	0.871433	0.891933
	C144	C	0.378233	0.884405	0.694810
	C145	C	0.621473	0.103977	0.692525
	C146	C	0.625225	0.885496	0.332853
	C147	C	0.374417	0.100474	0.329803
	C148	C	0.682445	0.368922	0.905640
	C149	C	0.680909	0.614521	0.122800
	C150	C	0.320691	0.616006	0.904566
	C151	C	0.316906	0.367708	0.120857
	C152	C	0.893841	0.675409	0.389878
	C153	C	0.110116	0.674587	0.636482
	C154	C	0.894765	0.311348	0.638761
	C155	C	0.110784	0.312655	0.390100
	C156	C	0.894890	0.368500	0.696631
	C157	C	0.109625	0.618223	0.695254
	C158	C	0.893840	0.617882	0.332105
	C159	C	0.110678	0.370047	0.332042
	C160	C	0.378856	0.673192	0.904500
	C161	C	0.622849	0.672117	0.122654
	C162	C	0.623783	0.312095	0.905500
	C163	C	0.374463	0.309806	0.120726
	C164	C	0.682342	0.885348	0.390994
	C165	C	0.679566	0.103791	0.635243
	C166	C	0.321275	0.884171	0.636395
	C167	C	0.318093	0.101052	0.388644
	C168	C	0.878086	0.384340	0.195323
	C169	C	0.123145	0.603400	0.192538
	C170	C	0.127013	0.386021	0.830240
	C171	C	0.878815	0.601727	0.833832
	C172	C	0.181534	0.871312	0.406119
	C173	C	0.183376	0.117625	0.622531
	C174	C	0.819545	0.118638	0.406279
	C175	C	0.822170	0.872441	0.623310
	C176	C	0.390501	0.170955	0.893846
	C177	C	0.610005	0.173651	0.136339
	C178	C	0.392113	0.814197	0.134352
	C179	C	0.610537	0.812550	0.890683
	C180	C	0.392388	0.870981	0.192840
	C181	C	0.609457	0.117279	0.195488
	C182	C	0.390354	0.113415	0.836192
	C183	C	0.610165	0.869856	0.832650
	C184	C	0.877573	0.175975	0.406286
	C185	C	0.126313	0.176144	0.622139
	C186	C	0.122987	0.814375	0.405312
	C187	C	0.879780	0.814227	0.622950
	C188	C	0.183818	0.385559	0.888730
	C189	C	0.181216	0.603028	0.135450
	C190	C	0.822175	0.383044	0.136080
	C191	C	0.821747	0.601870	0.892087
	C192	C	0.404481	0.084156	0.611798
	C193	C	0.598736	0.902726	0.612068
	C194	C	0.595766	0.083498	0.418266
	C195	C	0.406892	0.904491	0.418922
	C196	C	0.598612	0.396367	0.103813
	C197	C	0.599743	0.590454	0.922755
	C198	C	0.404150	0.590346	0.103172
	C199	C	0.405764	0.398018	0.925217
	C200	C	0.092847	0.590244	0.416308
	C201	C	0.911015	0.589810	0.610474
	C202	C	0.091252	0.399992	0.607997
	C203	C	0.912199	0.398703	0.417680
	C204	C	0.903348	0.583995	0.111190
	C205	C	0.096773	0.403343	0.109769
	C206	C	0.096778	0.583497	0.917660
	C207	C	0.906380	0.402519	0.917472
	C208	C	0.099041	0.896069	0.605338
	C209	C	0.096555	0.088740	0.425583
	C210	C	0.904537	0.090462	0.604139
	C211	C	0.903958	0.897438	0.423406
	C212	C	0.591830	0.090715	0.915779
	C213	C	0.411581	0.087768	0.109094
	C214	C	0.592246	0.896691	0.110447
	C215	C	0.410505	0.895940	0.916051
	Zn216	Zn	0.501308	-0.006639	0.764126
	Zn217	Zn	0.501007	-0.006838	0.263157
	Zn218	Zn	0.751792	0.492200	0.014140
	Zn219	Zn	0.250845	0.493295	0.013518
	Zn220	Zn	0.001506	0.743431	0.513799
	Zn221	Zn	0.002113	0.244244	0.513800
	Zn222	Zn	0.001849	0.493814	0.763435
	Zn223	Zn	0.001683	0.493674	0.263298
	Zn224	Zn	0.501508	0.743229	0.013204
	Zn225	Zn	0.500684	0.242826	0.014219
	Zn226	Zn	0.750947	-0.005730	0.514062
	Zn227	Zn	0.251718	-0.006316	0.514341
	N228	N	0.414165	0.958673	0.694485
	N229	N	0.586828	0.029014	0.693281
	N230	N	0.588092	0.959302	0.333904
	N231	N	0.412955	0.027442	0.332267
	N232	N	0.681753	0.405586	0.979209
	N233	N	0.681577	0.579547	0.048338
	N234	N	0.321029	0.580198	0.978449
	N235	N	0.319966	0.405792	0.048223
	N236	N	0.967602	0.673701	0.426527
	N237	N	0.036286	0.672892	0.599707
	N238	N	0.967629	0.314361	0.600438
	N239	N	0.036834	0.314223	0.426674
	N240	N	0.968021	0.406606	0.693980
	N241	N	0.035559	0.581811	0.694531
	N242	N	0.967625	0.580872	0.333217
	N243	N	0.036647	0.406898	0.333243
	N244	N	0.415074	0.672561	0.978333
	N245	N	0.587933	0.672243	0.048223
	N246	N	0.587171	0.313387	0.979100
	N247	N	0.412825	0.312336	0.048009
	N248	N	0.680335	0.959069	0.427878
	N249	N	0.680376	0.028865	0.600594
	N250	N	0.322205	0.958472	0.600296
	N251	N	0.321639	0.028416	0.427268
	N252	N	0.912634	0.459412	0.195602
	N253	N	0.086984	0.529160	0.191993
	N254	N	0.090141	0.459959	0.831621
	N255	N	0.915035	0.527502	0.834110
	N256	N	0.181914	0.906168	0.480569
	N257	N	0.181279	0.080123	0.549428
	N258	N	0.820501	0.081983	0.479899
	N259	N	0.821601	0.907753	0.548829
	N260	N	0.465628	0.172123	0.927803
	N261	N	0.535999	0.171896	0.099790
	N262	N	0.466392	0.814817	0.098602
	N263	N	0.536288	0.813146	0.926608
	N264	N	0.466892	0.906197	0.193201
	N265	N	0.535293	0.080991	0.194841
	N266	N	0.465624	0.079049	0.834825
	N267	N	0.535694	0.905730	0.833160
	N268	N	0.914273	0.174556	0.479926
	N269	N	0.089395	0.174649	0.548613
	N270	N	0.087330	0.814514	0.479381
	N271	N	0.914418	0.813938	0.548248
	N272	N	0.181401	0.459028	0.926365
	N273	N	0.180702	0.528451	0.099780
	N274	N	0.822509	0.457312	0.099908
	N275	N	0.822818	0.527587	0.928144
	O276	O	-0.522625	1.712241	-0.702720
	H277	H	-0.553905	1.708318	-0.684936
	H278	H	-0.523860	1.729611	-0.726834
	O279	O	-0.194300	-0.130741	-0.015068
	H280	H	-0.192763	-0.160690	-0.016153
	H281	H	-0.189227	-0.119508	-0.019274
	O282	O	1.054582	-0.028143	1.220308
	H283	H	1.047609	-0.019239	1.220688
	H284	H	1.054505	-0.032942	1.216383
	O285	O	0.699130	0.686817	0.319138
	H286	H	0.693353	0.669891	0.350763
	H287	H	0.666936	0.668758	0.327474
	O288	O	0.276864	0.718380	0.479950
	H289	H	0.295318	0.711325	0.445442
	H290	H	0.243145	0.755678	0.476063
	O291	O	0.525629	0.274862	0.285191
	H292	H	0.521661	0.251308	0.273697
	H293	H	0.528506	0.268199	0.299815
	O294	O	1.204398	0.199700	1.217708
	H295	H	1.212202	0.204627	1.180088
	H296	H	1.198452	0.155221	1.225828
	O297	O	0.506209	0.718099	0.539921
	H298	H	0.508243	0.718305	0.531684
	H299	H	0.508749	0.709749	0.537968
	O300	O	-0.158665	-0.004141	1.236804
	H301	H	-0.180671	-0.018564	1.241153
	H302	H	-0.158964	-0.025634	1.242804
	O303	O	0.712753	0.284661	0.296541
	H304	H	0.677167	0.285451	0.309996
	H305	H	0.709269	0.329673	0.294365
	O306	O	1.281919	-0.284066	0.298737
	H307	H	1.272098	-0.322574	0.300808
	H308	H	1.249725	-0.255462	0.265472
	O309	O	0.287588	0.411449	0.420175
	H310	H	0.292517	0.391040	0.416084
	H311	H	0.290155	0.411234	0.405769
	O312	O	0.290592	0.288714	0.724033
	H313	H	0.285452	0.338118	0.723917
	H314	H	0.299347	0.274466	0.719787
	O315	O	1.185495	1.177931	0.828862
	H316	H	1.164268	1.172837	0.829260
	H317	H	1.183951	1.190751	0.824229
	O318	O	1.179861	1.211945	0.021859
	H319	H	1.172545	1.219909	0.011220
	H320	H	1.176617	1.219004	0.017127
	O321	O	0.729327	0.718837	0.542971
	H322	H	0.709469	0.707989	0.569416
	H323	H	0.765203	0.756092	0.550445
	O324	O	0.810822	0.837320	0.021305
	H325	H	0.803086	0.835836	0.042234
	H326	H	0.801061	0.827367	0.032843
	O327	O	-0.214753	0.198958	0.794001
	H328	H	-0.195376	0.190043	0.809243
	H329	H	-0.239213	0.215260	0.802997
	O330	O	0.799682	0.187998	-0.027263
	H331	H	0.790722	0.181410	-0.025929
	H332	H	0.795233	0.183782	-0.000420
	O333	O	0.565038	0.372373	0.429036
	H334	H	0.547538	0.362054	0.438870
	H335	H	0.573297	0.387874	0.425202
	O336	O	0.475123	0.496932	0.455936
	H337	H	0.467392	0.497523	0.469084
	H338	H	0.470561	0.492130	0.454602
	O339	O	0.961237	-0.217989	1.226984
	H340	H	0.967958	-0.229686	1.237373
	H341	H	0.962807	-0.212911	1.224631
	O342	O	-0.006609	0.056178	0.178492
	H343	H	-0.026623	0.051918	0.187513
	H344	H	-0.007832	0.082910	0.176821
	O345	O	0.210619	0.781043	0.801999
	H346	H	0.240073	0.764340	0.773814
	H347	H	0.188566	0.807855	0.796792
	O348	O	0.092579	-0.150821	0.029162
	H349	H	0.093627	-0.142424	0.019923
	H350	H	0.109496	-0.159279	0.015159
	O351	O	0.462441	0.469310	0.278953
	H352	H	0.476246	0.438032	0.271663
	H353	H	0.478181	0.462439	0.286453
	O354	O	-0.045459	0.120755	1.041995
	H355	H	-0.047511	0.108957	1.050819
	H356	H	-0.063213	0.116333	1.054507
	O357	O	0.213741	0.951014	0.798666
	H358	H	0.218956	0.959600	0.783040
	H359	H	0.215011	0.958193	0.804996
	O360	O	0.445655	0.390397	0.580094
	H361	H	0.441078	0.386413	0.592046
	H362	H	0.458593	0.384961	0.589554
	O363	O	-0.461326	0.695300	-0.275586
	H364	H	-0.462238	0.714209	-0.263920
	H365	H	-0.454269	0.689950	-0.277584
	O366	O	0.701188	0.453900	0.576542
	H367	H	0.710169	0.440041	0.581002
	H368	H	0.690130	0.445501	0.583932
	O369	O	0.458531	0.267080	0.743741
	H370	H	0.454653	0.262651	0.752986
	H371	H	0.447918	0.253205	0.762095
	O372	O	1.030361	1.215488	0.241665
	H373	H	1.040767	1.244033	0.269602
	H374	H	1.056052	1.205654	0.234693
	O375	O	1.282353	0.530943	0.293440
	H376	H	1.292036	0.521132	0.274289
	H377	H	1.281619	0.523402	0.285217
	O378	O	0.211444	-0.026106	0.133622
	H379	H	0.212246	-0.037830	0.121365
	H380	H	0.209885	-0.024731	0.110364
	O381	O	-0.029590	1.202141	0.801642
	H382	H	-0.042038	1.211637	0.805376
	H383	H	-0.037088	1.208866	0.799679
	O384	O	0.957886	-0.038746	0.795593
	H385	H	0.964969	-0.034013	0.804896
	H386	H	0.936272	-0.044189	0.798038
	O387	O	1.036511	0.777835	-0.194861
	H388	H	1.034957	0.770525	-0.198176
	H389	H	1.040773	0.777327	-0.206577
	O390	O	0.500643	0.641727	0.564552
	H391	H	0.496030	0.647678	0.566457
	H392	H	0.498645	0.634794	0.558493
	O393	O	0.284123	0.274485	0.541413
	H394	H	0.269377	0.271487	0.553042
	H395	H	0.278696	0.271222	0.548585
	O396	O	-0.219982	1.011605	1.121461
	H397	H	-0.231728	0.982365	1.130013
	H398	H	-0.212784	1.008517	1.126474
	O399	O	-0.116518	0.154934	1.068620
	H400	H	-0.121646	0.157761	1.095016
	H401	H	-0.115291	0.140948	1.087792
	O402	O	0.587674	0.592251	0.401161
	H403	H	0.576454	0.592454	0.403199
	H404	H	0.572879	0.600584	0.410279
	O405	O	0.882346	-0.083219	0.939056
	H406	H	0.878047	-0.073289	0.966342
	H407	H	0.878724	-0.070952	0.934627
	O408	O	0.520548	0.529891	-0.610053
	H409	H	0.538837	0.522580	-0.619383
	H410	H	0.512527	0.555983	-0.611521
	O411	O	0.603832	0.524649	0.586000
	H412	H	0.601016	0.533154	0.587208
	H413	H	0.599375	0.512129	0.578204
	O414	O	0.385827	0.420505	0.540424
	H415	H	0.382378	0.419048	0.527067
	H416	H	0.396442	0.425564	0.522248
	O417	O	0.722815	0.520629	0.735717
	H418	H	0.735112	0.518302	0.746685
	H419	H	0.718210	0.510869	0.742351
	O420	O	0.323971	0.679300	0.701059
	H421	H	0.328478	0.670016	0.674215
	H422	H	0.346191	0.666143	0.691747
	O423	O	-0.014575	-0.203845	0.988563
	H424	H	-0.023616	-0.213303	0.988196
	H425	H	-0.021907	-0.204634	0.988884
	O426	O	0.444128	0.257881	0.449953
	H427	H	0.442597	0.257013	0.462454
	H428	H	0.433492	0.260925	0.462701
	O429	O	0.793070	0.788237	1.218423
	H430	H	0.825411	0.781568	1.203563
	H431	H	0.763932	0.753474	1.250974
	O432	O	0.733903	0.727979	0.748942
	H433	H	0.728728	0.731667	0.759842
	H434	H	0.744777	0.706471	0.745128
	O435	O	0.159494	0.949758	0.161299
	H436	H	0.154639	0.938901	0.141756
	H437	H	0.172016	0.942296	0.160911
	O438	O	0.066792	0.009349	0.117892
	H439	H	0.075194	0.034834	0.105716
	H440	H	0.037354	0.009032	0.118856
	O441	O	0.002198	0.221491	-0.043197
	H442	H	-0.003494	0.220057	-0.031483
	H443	H	-0.021349	0.219577	-0.044927
	O444	O	0.281669	0.463312	0.733687
	H445	H	0.271353	0.477196	0.721980
	H446	H	0.256321	0.470652	0.735069
	O447	O	0.219349	1.026552	0.980136
	H448	H	0.211312	1.021822	0.977467
	H449	H	0.220903	1.031725	0.973942
	O450	O	-0.408492	0.289148	1.569509
	H451	H	-0.416927	0.284915	1.567410
	H452	H	-0.390871	0.278027	1.571827
	O453	O	0.725056	0.331832	0.483037
	H454	H	0.738691	0.316437	0.486414
	H455	H	0.725873	0.333840	0.471941
	O456	O	0.279388	0.566331	0.563790
	H457	H	0.275734	0.566426	0.536368
	H458	H	0.281233	0.578526	0.544254
	O459	O	1.048719	1.039275	-0.031339
	H460	H	1.049872	1.048609	-0.035859
	H461	H	1.060064	1.032608	-0.034133
	O462	O	1.216366	-0.224618	-0.028194
	H463	H	1.229311	-0.236958	-0.043139
	H464	H	1.220364	-0.234478	-0.066942
	O465	O	1.072586	0.049612	-0.195283
	H466	H	1.049693	0.054193	-0.197002
	H467	H	1.066455	0.051994	-0.194841
	O468	O	0.533348	0.661342	0.477975
	H469	H	0.527167	0.684060	0.479129
	H470	H	0.528309	0.653850	0.479106
	O471	O	0.439730	0.544380	0.742345
	H472	H	0.434619	0.553216	0.730664
	H473	H	0.418093	0.542604	0.745500
	O474	O	0.349271	0.337967	0.316780
	H475	H	0.333589	0.311366	0.300294
	H476	H	0.365183	0.340837	0.325561
	O477	O	0.569631	0.443277	1.745113
	H478	H	0.559019	0.441788	1.745367
	H479	H	0.556173	0.457855	1.743147
	O480	O	-0.032311	0.943909	0.013136
	H481	H	-0.032369	0.949062	0.014029
	H482	H	-0.038074	0.939622	0.008106
	O483	O	0.723164	0.454668	0.293721
	H484	H	0.733015	0.479341	0.323964
	H485	H	0.749450	0.464083	0.272852
	O486	O	0.697941	0.567377	0.479870
	H487	H	0.682892	0.561484	0.493201
	H488	H	0.700593	0.576777	0.516598
	O489	O	0.852212	0.791060	-0.138359
	H490	H	0.870309	0.792561	-0.127658
	H491	H	0.843588	0.796583	-0.150618
	O492	O	-0.184499	0.178934	0.201397
	H493	H	-0.216970	0.209072	0.231068
	H494	H	-0.169056	0.158907	0.199905
	O495	O	0.191530	0.818247	1.200989
	H496	H	0.175507	0.834723	1.179266
	H497	H	0.176691	0.837395	1.186325
	O498	O	0.785966	1.021905	0.791836
	H499	H	0.766584	1.036330	0.777728
	H500	H	0.783224	1.033276	0.788022
	O501	O	0.686161	0.299375	0.713562
	H502	H	0.681886	0.325076	0.706632
	H503	H	0.684229	0.291868	0.715665
