data_Molecule from HDF5

_cell_length_a		16.486436
_cell_length_b		16.553898
_cell_length_c		16.456865
_cell_angle_alpha	89.908436
_cell_angle_beta	90.039216
_cell_angle_gamma	90.011052
_symmetry_space_group_name_H-M	'P 1'
_symmetry_Int_Tables_number		1

loop_
	_symmetry_equiv_pos_as_xyz
	x,y,z

loop_
	_atom_site_label
	_atom_site_type_symbol
	_atom_site_fract_x
	_atom_site_fract_y
	_atom_site_fract_z
	H0	H	0.382805	0.848961	0.714663
	H1	H	0.593678	0.163385	0.712081
	H2	H	0.593620	0.848166	0.268333
	H3	H	0.380501	0.160851	0.267523
	H4	H	0.709833	0.399319	0.835403
	H5	H	0.710858	0.611466	0.150541
	H6	H	0.269424	0.605568	0.834191
	H7	H	0.266262	0.398976	0.151218
	H8	H	0.831649	0.730439	0.382331
	H9	H	0.144909	0.726316	0.598316
	H10	H	0.831656	0.280630	0.599556
	H11	H	0.144140	0.281759	0.381980
	H12	H	0.829786	0.399174	0.712743
	H13	H	0.145697	0.607643	0.711453
	H14	H	0.831381	0.615859	0.266463
	H15	H	0.144307	0.400825	0.269157
	H16	H	0.381682	0.726262	0.835768
	H17	H	0.595597	0.728056	0.150397
	H18	H	0.593527	0.284426	0.834991
	H19	H	0.380695	0.281375	0.150953
	H20	H	0.712092	0.848164	0.383008
	H21	H	0.710501	0.162323	0.596030
	H22	H	0.265430	0.848801	0.598887
	H23	H	0.264026	0.160947	0.382667
	H24	H	0.875474	0.352118	0.220842
	H25	H	0.094122	0.661624	0.214304
	H26	H	0.094432	0.348756	0.769126
	H27	H	0.881072	0.660736	0.769279
	H28	H	0.211117	0.897409	0.335289
	H29	H	0.209960	0.110850	0.647633
	H30	H	0.763724	0.112953	0.335611
	H31	H	0.765321	0.897247	0.648552
	H32	H	0.331535	0.227578	0.885346
	H33	H	0.644547	0.228562	0.101846
	H34	H	0.331874	0.780534	0.102866
	H35	H	0.644208	0.782306	0.886862
	H36	H	0.331659	0.897919	0.215961
	H37	H	0.643155	0.113513	0.218049
	H38	H	0.331333	0.110169	0.770820
	H39	H	0.645274	0.899354	0.771011
	H40	H	0.876901	0.231180	0.335761
	H41	H	0.097146	0.230207	0.646100
	H42	H	0.096017	0.780431	0.335985
	H43	H	0.881267	0.782046	0.648960
	H44	H	0.209886	0.347989	0.886821
	H45	H	0.211233	0.660856	0.099403
	H46	H	0.761835	0.350048	0.102715
	H47	H	0.763265	0.660448	0.883775
	H48	H	0.396034	0.119494	0.583443
	H49	H	0.576198	0.893825	0.580821
	H50	H	0.570650	0.112155	0.409666
	H51	H	0.402213	0.893236	0.401259
	H52	H	0.571568	0.413455	0.105141
	H53	H	0.575125	0.594084	0.880355
	H54	H	0.401075	0.588448	0.104585
	H55	H	0.396387	0.411838	0.878130
	H56	H	0.098319	0.592891	0.405022
	H57	H	0.876440	0.592945	0.579152
	H58	H	0.102274	0.415003	0.585192
	H59	H	0.877151	0.417318	0.409466
	H60	H	0.099657	0.412562	0.575104
	H61	H	0.873525	0.593645	0.583307
	H62	H	0.098666	0.592542	0.404958
	H63	H	0.877534	0.421464	0.405436
	H64	H	0.402692	0.598498	0.106611
	H65	H	0.575100	0.592903	0.881839
	H66	H	0.578347	0.415635	0.107321
	H67	H	0.395567	0.419304	0.881417
	H68	H	0.580272	0.116314	0.407353
	H69	H	0.578722	0.892953	0.580572
	H70	H	0.401936	0.117199	0.581488
	H71	H	0.402069	0.895727	0.409212
	H72	H	0.899109	0.614996	0.074888
	H73	H	0.076236	0.393908	0.078098
	H74	H	0.082687	0.618487	0.903141
	H75	H	0.904673	0.396179	0.907161
	H76	H	0.076571	0.917760	0.604113
	H77	H	0.065874	0.086454	0.383786
	H78	H	0.905053	0.092596	0.601964
	H79	H	0.907006	0.916947	0.381282
	H80	H	0.600854	0.090538	0.900692
	H81	H	0.378993	0.091115	0.072676
	H82	H	0.599282	0.914944	0.076516
	H83	H	0.375821	0.918045	0.900878
	H84	H	0.598351	0.920426	0.078313
	H85	H	0.376658	0.088142	0.082240
	H86	H	0.603840	0.099758	0.900221
	H87	H	0.374356	0.913323	0.902885
	H88	H	0.900473	0.095078	0.604750
	H89	H	0.072651	0.105224	0.375351
	H90	H	0.074359	0.915299	0.603577
	H91	H	0.898069	0.912009	0.376461
	H92	H	0.076759	0.618466	0.897727
	H93	H	0.076996	0.391844	0.083412
	H94	H	0.898505	0.617552	0.080886
	H95	H	0.893132	0.391931	0.908074
	H96	H	0.396806	0.117433	0.576678
	H97	H	0.577366	0.892519	0.582404
	H98	H	0.572609	0.116280	0.399493
	H99	H	0.395988	0.892876	0.405107
	H100	H	0.574127	0.420650	0.103171
	H101	H	0.573603	0.593806	0.881507
	H102	H	0.393428	0.594631	0.108470
	H103	H	0.402984	0.415378	0.882330
	H104	H	0.098698	0.592968	0.404444
	H105	H	0.873269	0.596783	0.579490
	H106	H	0.097585	0.422280	0.579292
	H107	H	0.875079	0.416597	0.404492
	H108	H	0.904098	0.614843	0.079114
	H109	H	0.071854	0.394422	0.081702
	H110	H	0.075482	0.614191	0.904704
	H111	H	0.899617	0.391146	0.897147
	H112	H	0.077380	0.914703	0.605179
	H113	H	0.085664	0.087688	0.376046
	H114	H	0.899914	0.089613	0.602818
	H115	H	0.897341	0.922922	0.380215
	H116	H	0.600262	0.096257	0.907964
	H117	H	0.375045	0.097607	0.079743
	H118	H	0.600518	0.916754	0.082132
	H119	H	0.375935	0.917532	0.906207
	C120	C	0.365948	0.014343	0.613435
	C121	C	0.609880	0.996945	0.613407
	C122	C	0.608546	0.012059	0.371013
	C123	C	0.366360	0.996709	0.370632
	C124	C	0.608406	0.384049	0.001169
	C125	C	0.608543	0.626340	0.985106
	C126	C	0.366745	0.625700	0.002002
	C127	C	0.365489	0.382283	0.984741
	C128	C	-0.004587	0.626542	0.370712
	C129	C	0.978848	0.625922	0.612969
	C130	C	-0.003847	0.383254	0.613027
	C131	C	0.979476	0.384958	0.371415
	C132	C	0.865692	0.513962	0.114187
	C133	C	0.108157	0.496802	0.113550
	C134	C	0.109844	0.513107	0.870298
	C135	C	0.866056	0.496273	0.870963
	C136	C	0.109649	0.882794	0.500861
	C137	C	0.108775	0.126481	0.481925
	C138	C	0.867229	0.126543	0.500034
	C139	C	0.866698	0.883394	0.483037
	C140	C	0.497291	0.127511	0.870447
	C141	C	0.479674	0.126093	0.113423
	C142	C	0.496401	0.883587	0.113398
	C143	C	0.479343	0.883613	0.870947
	C144	C	0.364174	0.896132	0.674492
	C145	C	0.611850	0.115912	0.672446
	C146	C	0.611312	0.894519	0.309631
	C147	C	0.362702	0.113831	0.308177
	C148	C	0.669568	0.381254	0.882789
	C149	C	0.669925	0.629135	0.103434
	C150	C	0.307904	0.626126	0.882234
	C151	C	0.305681	0.380001	0.103714
	C152	C	0.878244	0.689174	0.365683
	C153	C	0.097560	0.685969	0.616120
	C154	C	0.878499	0.321494	0.616771
	C155	C	0.097042	0.322993	0.366005
	C156	C	0.877590	0.380485	0.673218
	C157	C	0.097862	0.626993	0.672598
	C158	C	0.878203	0.632225	0.307563
	C159	C	0.097413	0.382202	0.309583
	C160	C	0.363958	0.685730	0.882975
	C161	C	0.612475	0.687376	0.103317
	C162	C	0.611769	0.323783	0.882653
	C163	C	0.362988	0.321673	0.103297
	C164	C	0.670675	0.894896	0.366468
	C165	C	0.670160	0.115389	0.614798
	C166	C	0.305758	0.896121	0.616836
	C167	C	0.304207	0.113817	0.365462
	C168	C	0.859124	0.398280	0.179136
	C169	C	0.112017	0.614701	0.174187
	C170	C	0.112157	0.395434	0.809834
	C171	C	0.862827	0.613615	0.809460
	C172	C	0.170714	0.879569	0.382563
	C173	C	0.170149	0.129613	0.600159
	C174	C	0.804528	0.130777	0.382475
	C175	C	0.805466	0.879721	0.601226
	C176	C	0.378826	0.187430	0.867589
	C177	C	0.597069	0.188100	0.118967
	C178	C	0.378975	0.821432	0.119103
	C179	C	0.597287	0.822921	0.868647
	C180	C	0.378694	0.879805	0.175773
	C181	C	0.596462	0.130885	0.177089
	C182	C	0.378643	0.129247	0.810384
	C183	C	0.597929	0.881086	0.810967
	C184	C	0.861082	0.189719	0.382917
	C185	C	0.114068	0.188799	0.599333
	C186	C	0.113617	0.821179	0.383048
	C187	C	0.863410	0.822366	0.601373
	C188	C	0.169721	0.395091	0.868327
	C189	C	0.170530	0.613965	0.117035
	C190	C	0.802519	0.397251	0.120133
	C191	C	0.804045	0.613343	0.866526
	C192	C	0.391069	0.096394	0.587788
	C193	C	0.584694	0.914959	0.588593
	C194	C	0.582207	0.093377	0.397856
	C195	C	0.392749	0.915196	0.397544
	C196	C	0.582318	0.409383	0.083599
	C197	C	0.582307	0.600884	0.902653
	C198	C	0.391890	0.600943	0.084878
	C199	C	0.390841	0.408154	0.902074
	C200	C	0.077213	0.600217	0.397234
	C201	C	0.896152	0.601558	0.587746
	C202	C	0.078464	0.409315	0.587232
	C203	C	0.897854	0.410979	0.398480
	C204	C	0.892863	0.594748	0.086177
	C205	C	0.082111	0.414940	0.088312
	C206	C	0.085285	0.595565	0.894934
	C207	C	0.891750	0.414438	0.896868
	C208	C	0.083507	0.908602	0.582983
	C209	C	0.082125	0.100575	0.399819
	C210	C	0.894097	0.099772	0.581848
	C211	C	0.893127	0.909647	0.400804
	C212	C	0.580084	0.102672	0.895672
	C213	C	0.398102	0.099550	0.086065
	C214	C	0.577901	0.909894	0.086582
	C215	C	0.396787	0.909058	0.895952
	Zn216	Zn	0.488487	0.005573	0.742273
	Zn217	Zn	0.487829	0.004479	0.241505
	Zn218	Zn	0.737216	0.505077	-0.006912
	Zn219	Zn	0.237715	0.504539	-0.006589
	Zn220	Zn	-0.012357	0.754710	0.491940
	Zn221	Zn	-0.012090	0.255297	0.491354
	Zn222	Zn	-0.012685	0.504546	0.741496
	Zn223	Zn	-0.012803	0.506152	0.242459
	Zn224	Zn	0.487314	0.754948	-0.007103
	Zn225	Zn	0.488081	0.255013	-0.007105
	Zn226	Zn	0.738753	0.004608	0.491401
	Zn227	Zn	0.237164	0.005173	0.491310
	N228	N	0.400745	0.970676	0.672887
	N229	N	0.575460	0.041157	0.672158
	N230	N	0.573652	0.968412	0.312214
	N231	N	0.400587	0.039965	0.311143
	N232	N	0.667789	0.417903	0.957770
	N233	N	0.667596	0.592007	0.028830
	N234	N	0.309359	0.589707	0.957319
	N235	N	0.307035	0.416853	0.028894
	N236	N	0.952053	0.685878	0.404274
	N237	N	0.022476	0.685712	0.579957
	N238	N	0.953417	0.323127	0.580120
	N239	N	0.022691	0.324639	0.403770
	N240	N	0.951849	0.418185	0.671083
	N241	N	0.022956	0.590674	0.670882
	N242	N	0.952091	0.593871	0.310748
	N243	N	0.023350	0.419926	0.312777
	N244	N	0.399407	0.685895	0.958562
	N245	N	0.575123	0.685801	0.028611
	N246	N	0.574874	0.325011	0.957414
	N247	N	0.399168	0.322756	0.027975
	N248	N	0.669005	0.969093	0.403970
	N249	N	0.669392	0.040506	0.579073
	N250	N	0.306568	0.970563	0.579817
	N251	N	0.306440	0.039925	0.403582
	N252	N	0.897630	0.471876	0.175610
	N253	N	0.074112	0.540883	0.172322
	N254	N	0.075306	0.469746	0.811036
	N255	N	0.900606	0.539720	0.811958
	N256	N	0.168589	0.916845	0.456969
	N257	N	0.167145	0.091776	0.526047
	N258	N	0.808240	0.091971	0.456303
	N259	N	0.807423	0.916893	0.526504
	N260	N	0.453757	0.186573	0.903984
	N261	N	0.523371	0.185313	0.080137
	N262	N	0.453155	0.823519	0.081005
	N263	N	0.522349	0.824356	0.905143
	N264	N	0.452556	0.917934	0.172204
	N265	N	0.522398	0.093108	0.173759
	N266	N	0.453381	0.092630	0.811978
	N267	N	0.523458	0.918266	0.812324
	N268	N	0.899291	0.187332	0.457158
	N269	N	0.076779	0.187210	0.524681
	N270	N	0.076109	0.823159	0.457584
	N271	N	0.900551	0.824451	0.526771
	N272	N	0.168532	0.469282	0.905219
	N273	N	0.168163	0.539626	0.079943
	N274	N	0.806579	0.470148	0.080399
	N275	N	0.805751	0.539243	0.903975
	O276	O	0.914920	0.169264	0.123349
	H277	H	0.919569	0.166006	0.134112
	H278	H	0.925099	0.166045	0.133676
	O279	O	0.268771	0.285763	0.712391
	H280	H	0.292963	0.279561	0.712126
	H281	H	0.267197	0.313397	0.716526
	O282	O	0.772275	0.993808	0.147831
	H283	H	0.781171	0.986079	0.150883
	H284	H	0.762636	0.993626	0.167383
	O285	O	0.495724	0.377815	0.673370
	H286	H	0.485767	0.373827	0.681991
	H287	H	0.485502	0.379237	0.658554
	O288	O	-0.227832	0.226802	-0.034368
	H289	H	-0.219656	0.225187	-0.014702
	H290	H	-0.245460	0.248897	-0.024238
	O291	O	0.930762	1.000367	0.186479
	H292	H	0.923509	0.989894	0.191386
	H293	H	0.936507	0.986363	0.195317
	O294	O	0.022097	0.789934	-0.220362
	H295	H	0.025135	0.798828	-0.221764
	H296	H	0.018079	0.781868	-0.241621
	O297	O	0.513916	0.715025	0.703035
	H298	H	0.513332	0.735214	0.726626
	H299	H	0.488523	0.722577	0.672594
	O300	O	0.696543	0.493281	0.358700
	H301	H	0.699985	0.500159	0.388687
	H302	H	0.718546	0.498062	0.342123
	O303	O	0.274422	0.449869	0.417390
	H304	H	0.288235	0.438252	0.425742
	H305	H	0.271341	0.452418	0.422177
	O306	O	0.195655	1.020310	1.199345
	H307	H	0.210294	1.012443	1.214292
	H308	H	0.182934	1.022263	1.198262
	O309	O	1.054212	1.092460	1.186551
	H310	H	1.051913	1.106176	1.172318
	H311	H	1.060854	1.087942	1.182546
	O312	O	0.460905	0.708041	0.291878
	H313	H	0.470849	0.732268	0.264315
	H314	H	0.482121	0.678516	0.305230
	O315	O	-0.232475	0.035444	0.769036
	H316	H	-0.245397	0.061212	0.758205
	H317	H	-0.247619	0.061190	0.756909
	O318	O	0.008548	1.224571	0.209265
	H319	H	0.004667	1.246635	0.231099
	H320	H	0.049007	1.216801	0.209451
	O321	O	0.830873	-0.151124	0.879085
	H322	H	0.825056	-0.152640	0.865825
	H323	H	0.811935	-0.138806	0.883939
	O324	O	1.362828	0.682174	0.634718
	H325	H	1.356857	0.686371	0.628018
	H326	H	1.349149	0.686529	0.604692
	O327	O	0.969952	-0.197244	1.202664
	H328	H	0.974021	-0.217674	1.215533
	H329	H	0.990439	-0.191210	1.184530
	O330	O	0.994449	0.230269	-0.021372
	H331	H	0.994904	0.234101	-0.036750
	H332	H	0.986442	0.226008	-0.017811
	O333	O	1.194733	0.798774	0.784053
	H334	H	1.165022	0.788329	0.796350
	H335	H	1.202567	0.818168	0.796499
	O336	O	1.200870	-0.026964	0.778819
	H337	H	1.201050	-0.041364	0.797013
	H338	H	1.228723	-0.025309	0.762378
	O339	O	0.481163	0.534589	0.608445
	H340	H	0.492612	0.545382	0.609210
	H341	H	0.472768	0.528340	0.600872
	O342	O	0.706015	0.495930	0.590200
	H343	H	0.708226	0.489814	0.585982
	H344	H	0.710758	0.496302	0.598311
	O345	O	0.135459	0.221631	-0.002047
	H346	H	0.126991	0.222321	-0.020262
	H347	H	0.153940	0.232445	-0.009736
	O348	O	1.046566	-0.208579	1.047416
	H349	H	1.059228	-0.210954	1.037627
	H350	H	1.035844	-0.202806	1.026088
	O351	O	0.775354	0.791493	0.016324
	H352	H	0.775625	0.800166	0.024189
	H353	H	0.757451	0.774935	0.014516
	O354	O	0.413851	0.489872	0.598334
	H355	H	0.408152	0.488661	0.601719
	H356	H	0.417286	0.513414	0.603571
	O357	O	1.195034	0.993706	0.994001
	H358	H	1.178668	1.000737	0.991222
	H359	H	1.198805	0.992696	1.022995
	O360	O	0.298988	0.694761	0.308325
	H361	H	0.347588	0.701943	0.306584
	H362	H	0.295582	0.647165	0.299578
	O363	O	0.476052	0.732206	0.504353
	H364	H	0.489658	0.724085	0.497235
	H365	H	0.459634	0.740004	0.485492
	O366	O	1.183249	0.198476	1.113821
	H367	H	1.203526	0.187515	1.108138
	H368	H	1.185499	0.189172	1.081865
	O369	O	0.323889	0.490474	0.676545
	H370	H	0.311883	0.495010	0.674855
	H371	H	0.335245	0.503893	0.671949
	O372	O	0.506456	0.310230	0.536809
	H373	H	0.492961	0.308129	0.553050
	H374	H	0.531157	0.308198	0.532442
	O375	O	0.123211	1.119114	0.816686
	H376	H	0.116257	1.109670	0.818872
	H377	H	0.120643	1.099195	0.818910
	O378	O	0.851884	0.071145	0.097218
	H379	H	0.847395	0.052794	0.100829
	H380	H	0.855080	0.062251	0.080867
	O381	O	1.038047	-0.059614	-0.055115
	H382	H	1.040498	-0.060248	-0.054306
	H383	H	1.028362	-0.052341	-0.067743
	O384	O	-0.036603	0.059712	0.961323
	H385	H	-0.032785	0.085452	0.964352
	H386	H	-0.041883	0.049132	0.952095
	O387	O	0.205547	0.792243	0.960601
	H388	H	0.227320	0.792114	0.965916
	H389	H	0.207490	0.785123	0.961434
	O390	O	0.192209	-0.001180	0.994934
	H391	H	0.202763	-0.019194	0.986558
	H392	H	0.177701	0.001099	0.980076
	O393	O	0.964229	1.220429	-0.221493
	H394	H	0.969662	1.210281	-0.225768
	H395	H	0.969011	1.226124	-0.244740
	O396	O	0.797164	0.194827	0.802737
	H397	H	0.799733	0.207469	0.843578
	H398	H	0.819327	0.205540	0.800461
	O399	O	-0.094630	0.785207	0.914763
	H400	H	-0.104133	0.777448	0.916491
	H401	H	-0.097913	0.795255	0.907159
	O402	O	-0.191605	-0.176413	1.174331
	H403	H	-0.173898	-0.173316	1.163054
	H404	H	-0.171982	-0.169879	1.170192
	O405	O	-0.672834	0.564158	0.582025
	H406	H	-0.681032	0.568390	0.565982
	H407	H	-0.669674	0.577114	0.564456
	O408	O	0.469068	0.324279	0.293423
	H409	H	0.446967	0.314562	0.334039
	H410	H	0.461258	0.298561	0.274645
	O411	O	0.418866	0.314678	0.692438
	H412	H	0.436265	0.341258	0.684382
	H413	H	0.428501	0.293132	0.706841
	O414	O	0.677368	0.697597	0.680111
	H415	H	0.676444	0.665161	0.692620
	H416	H	0.646007	0.701815	0.674864
	O417	O	0.272230	0.285159	0.512143
	H418	H	0.231627	0.250814	0.518898
	H419	H	0.278601	0.310609	0.542917
	O420	O	0.462125	0.287644	0.383475
	H421	H	0.447741	0.288309	0.396237
	H422	H	0.443600	0.296582	0.400545
	O423	O	0.002361	1.011491	-0.222534
	H424	H	-0.001741	1.002996	-0.224035
	H425	H	-0.008879	0.988309	-0.216346
	O426	O	0.517579	1.586583	1.451057
	H427	H	0.529013	1.586833	1.445902
	H428	H	0.512787	1.588692	1.462915
	O429	O	0.706629	0.725994	0.514794
	H430	H	0.689797	0.712927	0.539314
	H431	H	0.741032	0.762696	0.517714
	O432	O	0.564575	0.539004	0.427536
	H433	H	0.577296	0.520034	0.443485
	H434	H	0.558901	0.544583	0.424949
	O435	O	0.457284	-0.536045	0.273894
	H436	H	0.468687	-0.531806	0.276964
	H437	H	0.472450	-0.561183	0.271355
	O438	O	0.782702	0.024126	-0.009226
	H439	H	0.785741	0.044127	-0.018996
	H440	H	0.785781	0.024903	-0.014917
	O441	O	0.301901	0.533063	0.286914
	H442	H	0.297221	0.524762	0.260333
	H443	H	0.309899	0.510522	0.305709
	O444	O	0.271106	0.725167	0.469808
	H445	H	0.250699	0.744756	0.450048
	H446	H	0.270163	0.728315	0.441288
	O447	O	0.656963	0.516109	0.428112
	H448	H	0.655697	0.509547	0.443582
	H449	H	0.668288	0.527362	0.437423
	O450	O	0.671866	0.294419	0.483237
	H451	H	0.653748	0.297161	0.443859
	H452	H	0.698336	0.278086	0.477001
	O453	O	0.673717	0.321568	0.314743
	H454	H	0.637684	0.305891	0.295372
	H455	H	0.672537	0.354602	0.299989
	O456	O	0.880570	-0.061248	-0.189560
	H457	H	0.875625	-0.055211	-0.180350
	H458	H	0.866426	-0.051705	-0.195186
	O459	O	0.580100	0.539317	0.373252
	H460	H	0.604543	0.539354	0.370355
	H461	H	0.578354	0.548014	0.395142
	O462	O	0.684675	0.461733	0.693568
	H463	H	0.673898	0.441868	0.678115
	H464	H	0.698658	0.473331	0.712271
	O465	O	1.105542	-0.107238	0.155999
	H466	H	1.107750	-0.112962	0.162007
	H467	H	1.101485	-0.120151	0.147592
