data_Molecule from HDF5

_cell_length_a		16.750521
_cell_length_b		16.576754
_cell_length_c		16.605911
_cell_angle_alpha	89.982351
_cell_angle_beta	90.035031
_cell_angle_gamma	90.058256
_symmetry_space_group_name_H-M	'P 1'
_symmetry_Int_Tables_number		1

loop_
	_symmetry_equiv_pos_as_xyz
	x,y,z

loop_
	_atom_site_label
	_atom_site_type_symbol
	_atom_site_fract_x
	_atom_site_fract_y
	_atom_site_fract_z
	H0	H	0.403683	0.842713	0.728659
	H1	H	0.606202	0.156929	0.731586
	H2	H	0.605603	0.842434	0.295146
	H3	H	0.402999	0.157265	0.293153
	H4	H	0.724623	0.395160	0.857071
	H5	H	0.725287	0.606853	0.167049
	H6	H	0.278260	0.608789	0.860183
	H7	H	0.280008	0.391203	0.166580
	H8	H	0.847655	0.721972	0.407729
	H9	H	0.159689	0.719486	0.615415
	H10	H	0.849112	0.278868	0.617371
	H11	H	0.155458	0.276587	0.404354
	H12	H	0.849051	0.396267	0.733665
	H13	H	0.158320	0.604414	0.734157
	H14	H	0.848464	0.606968	0.290714
	H15	H	0.153525	0.390676	0.286404
	H16	H	0.397042	0.722130	0.858009
	H17	H	0.608428	0.721070	0.168476
	H18	H	0.607477	0.280334	0.856787
	H19	H	0.398911	0.278055	0.167990
	H20	H	0.721554	0.842197	0.410985
	H21	H	0.723526	0.157419	0.617035
	H22	H	0.286777	0.842716	0.612948
	H23	H	0.284289	0.156024	0.406066
	H24	H	0.895090	0.345548	0.235161
	H25	H	0.107699	0.654175	0.235796
	H26	H	0.106824	0.344276	0.794059
	H27	H	0.901227	0.658054	0.795003
	H28	H	0.222735	0.896846	0.355848
	H29	H	0.225732	0.106033	0.666615
	H30	H	0.783809	0.104244	0.356172
	H31	H	0.786118	0.898210	0.670732
	H32	H	0.350211	0.222862	0.906043
	H33	H	0.660467	0.218692	0.113267
	H34	H	0.350069	0.777940	0.118516
	H35	H	0.657079	0.778160	0.906537
	H36	H	0.349527	0.895268	0.234446
	H37	H	0.661012	0.101581	0.229916
	H38	H	0.349187	0.106683	0.790047
	H39	H	0.657407	0.894463	0.789973
	H40	H	0.900675	0.220357	0.356310
	H41	H	0.107879	0.219973	0.668369
	H42	H	0.104655	0.781981	0.355653
	H43	H	0.903048	0.782782	0.670591
	H44	H	0.225619	0.345776	0.906731
	H45	H	0.227490	0.652065	0.122773
	H46	H	0.779001	0.345879	0.120003
	H47	H	0.784871	0.657787	0.910159
	H48	H	0.409430	0.113315	0.599700
	H49	H	0.599189	0.886480	0.601620
	H50	H	0.597487	0.115233	0.417360
	H51	H	0.412444	0.886461	0.421027
	H52	H	0.590978	0.415563	0.122031
	H53	H	0.592026	0.588545	0.901288
	H54	H	0.413483	0.587167	0.124374
	H55	H	0.412843	0.414824	0.902908
	H56	H	0.112037	0.591157	0.427663
	H57	H	0.891486	0.591848	0.606435
	H58	H	0.114099	0.410396	0.601293
	H59	H	0.892423	0.411569	0.426106
	H60	H	0.114107	0.411754	0.604763
	H61	H	0.892273	0.593877	0.603770
	H62	H	0.110112	0.584866	0.425184
	H63	H	0.893349	0.413098	0.427071
	H64	H	0.416505	0.585966	0.123067
	H65	H	0.592852	0.591074	0.900552
	H66	H	0.591189	0.407883	0.125022
	H67	H	0.416889	0.413355	0.903064
	H68	H	0.590950	0.111352	0.421960
	H69	H	0.592552	0.886932	0.605461
	H70	H	0.415742	0.113379	0.605587
	H71	H	0.415837	0.888696	0.422043
	H72	H	0.909049	0.612113	0.096204
	H73	H	0.093108	0.387098	0.100897
	H74	H	0.098794	0.612837	0.929366
	H75	H	0.913952	0.388707	0.921854
	H76	H	0.096433	0.920855	0.622073
	H77	H	0.092578	0.092598	0.398902
	H78	H	0.911441	0.085859	0.623503
	H79	H	0.913544	0.911358	0.401828
	H80	H	0.614372	0.090337	0.922750
	H81	H	0.395190	0.087066	0.099345
	H82	H	0.613849	0.911647	0.101726
	H83	H	0.393580	0.913377	0.923816
	H84	H	0.615215	0.910650	0.103759
	H85	H	0.392686	0.087569	0.107081
	H86	H	0.612995	0.089359	0.923957
	H87	H	0.392919	0.911753	0.921211
	H88	H	0.917346	0.088551	0.623961
	H89	H	0.096327	0.086299	0.400091
	H90	H	0.086431	0.904993	0.623941
	H91	H	0.912708	0.909180	0.400136
	H92	H	0.092090	0.614026	0.918192
	H93	H	0.085982	0.389266	0.100999
	H94	H	0.914106	0.614082	0.106778
	H95	H	0.913481	0.389191	0.926835
	H96	H	0.417515	0.110926	0.597229
	H97	H	0.593521	0.890187	0.598620
	H98	H	0.598946	0.112523	0.426148
	H99	H	0.412784	0.889033	0.424892
	H100	H	0.597914	0.412073	0.125613
	H101	H	0.594880	0.589397	0.900664
	H102	H	0.416419	0.588903	0.124606
	H103	H	0.414050	0.411258	0.900798
	H104	H	0.114101	0.589065	0.421092
	H105	H	0.892213	0.590770	0.603378
	H106	H	0.115622	0.408210	0.604465
	H107	H	0.892850	0.413228	0.425227
	H108	H	0.920682	0.608764	0.098158
	H109	H	0.089882	0.390835	0.094939
	H110	H	0.086346	0.609059	0.928799
	H111	H	0.909712	0.387490	0.923671
	H112	H	0.104380	0.905738	0.629143
	H113	H	0.089584	0.086688	0.401908
	H114	H	0.912889	0.091486	0.625828
	H115	H	0.910763	0.911617	0.400050
	H116	H	0.614309	0.087965	0.922453
	H117	H	0.392363	0.094387	0.102106
	H118	H	0.615283	0.909096	0.101251
	H119	H	0.393110	0.910004	0.923577
	C120	C	0.383460	0.008536	0.631994
	C121	C	0.625555	0.991760	0.633430
	C122	C	0.625514	0.008555	0.391765
	C123	C	0.382922	0.991481	0.390559
	C124	C	0.624927	0.379978	0.021070
	C125	C	0.624655	0.621912	1.003719
	C126	C	0.381780	0.621159	0.022017
	C127	C	0.382306	0.379333	1.004495
	C128	C	0.010764	0.621897	0.391773
	C129	C	0.995047	0.622399	0.635196
	C130	C	0.012470	0.378187	0.635274
	C131	C	0.993969	0.378972	0.391667
	C132	C	0.881034	0.509322	0.133865
	C133	C	0.123210	0.490805	0.133744
	C134	C	0.124460	0.509043	0.893024
	C135	C	0.881688	0.492092	0.892086
	C136	C	0.125361	0.879406	0.520959
	C137	C	0.125138	0.121297	0.503190
	C138	C	0.882306	0.120922	0.521158
	C139	C	0.882216	0.879572	0.504695
	C140	C	0.512040	0.121969	0.890323
	C141	C	0.496186	0.121301	0.133492
	C142	C	0.512352	0.878350	0.134399
	C143	C	0.494941	0.878659	0.890651
	C144	C	0.383915	0.889891	0.689756
	C145	C	0.625522	0.110146	0.691891
	C146	C	0.624710	0.889641	0.334307
	C147	C	0.383084	0.109910	0.332056
	C148	C	0.684482	0.377281	0.903704
	C149	C	0.685115	0.624969	0.120518
	C150	C	0.319895	0.625607	0.906007
	C151	C	0.321146	0.374540	0.120640
	C152	C	0.894527	0.682062	0.389418
	C153	C	0.112730	0.680163	0.634964
	C154	C	0.895711	0.318721	0.636525
	C155	C	0.109131	0.317091	0.386963
	C156	C	0.895583	0.377203	0.694010
	C157	C	0.112150	0.622884	0.693664
	C158	C	0.894658	0.624717	0.331087
	C159	C	0.108129	0.373975	0.328341
	C160	C	0.378745	0.682003	0.905008
	C161	C	0.626647	0.681422	0.121080
	C162	C	0.626447	0.320031	0.903626
	C163	C	0.380019	0.318160	0.121186
	C164	C	0.682740	0.889730	0.391634
	C165	C	0.683929	0.110042	0.635149
	C166	C	0.325949	0.890020	0.632259
	C167	C	0.324107	0.109168	0.388157
	C168	C	0.877402	0.392272	0.194855
	C169	C	0.126460	0.607330	0.195455
	C170	C	0.125956	0.391496	0.833237
	C171	C	0.881563	0.610464	0.833665
	C172	C	0.182955	0.878230	0.402650
	C173	C	0.185397	0.124015	0.620283
	C174	C	0.823459	0.123107	0.403164
	C175	C	0.825456	0.879275	0.623484
	C176	C	0.396355	0.182511	0.887877
	C177	C	0.613660	0.179442	0.133147
	C178	C	0.396062	0.818200	0.136687
	C179	C	0.610812	0.818132	0.888161
	C180	C	0.396088	0.876263	0.194416
	C181	C	0.614062	0.121052	0.190801
	C182	C	0.395831	0.124419	0.830366
	C183	C	0.611016	0.875895	0.830189
	C184	C	0.881487	0.180516	0.403208
	C185	C	0.126657	0.180515	0.620940
	C186	C	0.124263	0.821353	0.402572
	C187	C	0.883343	0.821825	0.623456
	C188	C	0.184608	0.392183	0.889678
	C189	C	0.185624	0.606499	0.139392
	C190	C	0.819827	0.392494	0.137513
	C191	C	0.823837	0.610412	0.890922
	C192	C	0.407262	0.091154	0.607682
	C193	C	0.601952	0.909380	0.608929
	C194	C	0.602482	0.091440	0.415359
	C195	C	0.406990	0.909395	0.415546
	C196	C	0.600475	0.404834	0.102981
	C197	C	0.600105	0.596745	0.921812
	C198	C	0.408002	0.594884	0.102887
	C199	C	0.407528	0.405695	0.923258
	C200	C	0.091119	0.595618	0.417443
	C201	C	0.913235	0.598878	0.611325
	C202	C	0.093689	0.402873	0.610658
	C203	C	0.913740	0.405338	0.418604
	C204	C	0.907171	0.590588	0.107718
	C205	C	0.096995	0.410037	0.106640
	C206	C	0.099519	0.590787	0.918245
	C207	C	0.905545	0.409910	0.916813
	C208	C	0.102456	0.903752	0.603559
	C209	C	0.100187	0.095697	0.421732
	C210	C	0.906838	0.095792	0.603041
	C211	C	0.905591	0.903753	0.422175
	C212	C	0.592786	0.096389	0.915849
	C213	C	0.414616	0.096921	0.109759
	C214	C	0.593661	0.903331	0.109330
	C215	C	0.414363	0.904245	0.915690
	Zn216	Zn	0.503974	0.000378	0.761502
	Zn217	Zn	0.505060	-0.000040	0.262998
	Zn218	Zn	0.753362	0.500913	0.012768
	Zn219	Zn	0.253262	0.500067	0.013762
	Zn220	Zn	0.003578	0.751271	0.513001
	Zn221	Zn	0.003599	0.249582	0.512865
	Zn222	Zn	0.003403	0.500640	0.764422
	Zn223	Zn	0.001583	0.499907	0.262378
	Zn224	Zn	0.503220	0.749791	0.012615
	Zn225	Zn	0.503815	0.251161	0.012147
	Zn226	Zn	0.753988	0.000099	0.512718
	Zn227	Zn	0.254184	0.000808	0.511534
	N228	N	0.418870	0.964828	0.689948
	N229	N	0.589961	0.035481	0.691237
	N230	N	0.590094	0.964594	0.334050
	N231	N	0.418849	0.035574	0.333083
	N232	N	0.683858	0.413802	0.977760
	N233	N	0.684036	0.588348	0.046396
	N234	N	0.321563	0.588549	0.979882
	N235	N	0.322560	0.411967	0.047009
	N236	N	0.967627	0.680538	0.426501
	N237	N	0.038800	0.680220	0.599367
	N238	N	0.969645	0.318997	0.600894
	N239	N	0.037010	0.320112	0.425816
	N240	N	0.969304	0.413299	0.693655
	N241	N	0.037808	0.587896	0.694279
	N242	N	0.968095	0.587802	0.332248
	N243	N	0.035366	0.411814	0.331190
	N244	N	0.416587	0.679581	0.978257
	N245	N	0.589722	0.679673	0.047345
	N246	N	0.590005	0.321526	0.977602
	N247	N	0.417562	0.320961	0.047815
	N248	N	0.683571	0.964740	0.426524
	N249	N	0.684412	0.035185	0.599869
	N250	N	0.325158	0.965141	0.597520
	N251	N	0.323792	0.034548	0.423873
	N252	N	0.914939	0.465950	0.192698
	N253	N	0.088554	0.534233	0.192409
	N254	N	0.089100	0.465379	0.835091
	N255	N	0.916793	0.535647	0.834064
	N256	N	0.184076	0.913400	0.477446
	N257	N	0.184875	0.088046	0.545837
	N258	N	0.823631	0.087084	0.477636
	N259	N	0.824350	0.914174	0.548497
	N260	N	0.469672	0.181155	0.924685
	N261	N	0.539325	0.179965	0.098320
	N262	N	0.469498	0.819256	0.100228
	N263	N	0.537582	0.819476	0.925103
	N264	N	0.469637	0.912829	0.193286
	N265	N	0.539842	0.085934	0.191511
	N266	N	0.468939	0.087276	0.831715
	N267	N	0.537857	0.912546	0.831236
	N268	N	0.917473	0.179374	0.477581
	N269	N	0.090020	0.179129	0.547137
	N270	N	0.089472	0.821722	0.477351
	N271	N	0.917727	0.821624	0.548438
	N272	N	0.184102	0.466384	0.925969
	N273	N	0.183859	0.532917	0.101820
	N274	N	0.821925	0.466312	0.100228
	N275	N	0.823478	0.535602	0.926313
	O276	O	-0.577278	1.521685	-0.521246
	H277	H	-0.574513	1.535484	-0.511212
	H278	H	-0.561294	1.523783	-0.522426
	O279	O	-0.168089	-0.012655	-0.055687
	H280	H	-0.174462	0.006455	-0.026763
	H281	H	-0.164293	0.004213	-0.088990
	O282	O	0.707962	-0.299696	0.714884
	H283	H	0.686050	-0.312354	0.716150
	H284	H	0.731154	-0.284887	0.734937
	O285	O	0.718699	0.470209	0.305055
	H286	H	0.726914	0.465244	0.288378
	H287	H	0.708792	0.460297	0.307005
	O288	O	0.325443	0.597928	0.551561
	H289	H	0.344112	0.582487	0.545232
	H290	H	0.308154	0.619136	0.534559
	O291	O	0.558487	0.720206	0.447665
	H292	H	0.588163	0.723192	0.436580
	H293	H	0.562681	0.718311	0.442201
	O294	O	0.864024	0.033974	1.032335
	H295	H	0.860966	0.041872	1.034112
	H296	H	0.863840	0.042078	1.052679
	O297	O	0.784241	0.220825	0.791508
	H298	H	0.786803	0.216936	0.816505
	H299	H	0.775972	0.244338	0.774963
	O300	O	0.144261	-0.045585	0.791335
	H301	H	0.149917	-0.043854	0.783798
	H302	H	0.157474	-0.058327	0.784685
	O303	O	0.542168	0.581155	0.344480
	H304	H	0.535895	0.574884	0.351775
	H305	H	0.543458	0.574396	0.342204
	O306	O	1.196607	-0.190781	0.201475
	H307	H	1.183887	-0.178333	0.183525
	H308	H	1.178844	-0.175380	0.181839
	O309	O	0.272722	0.441571	0.440197
	H310	H	0.271755	0.460160	0.426479
	H311	H	0.275640	0.447700	0.453240
	O312	O	0.492846	0.288741	0.722588
	H313	H	0.488656	0.292729	0.741752
	H314	H	0.467450	0.287609	0.719017
	O315	O	1.054809	0.834871	1.012539
	H316	H	1.060365	0.836112	0.995997
	H317	H	1.053175	0.838960	1.004097
	O318	O	0.975251	0.792351	0.227421
	H319	H	0.987052	0.782917	0.225176
	H320	H	0.978103	0.787470	0.224928
	O321	O	0.450224	0.571226	0.734895
	H322	H	0.464802	0.585976	0.741420
	H323	H	0.473833	0.559233	0.732729
	O324	O	1.235412	1.012493	-0.014482
	H325	H	1.239351	1.025139	-0.019768
	H326	H	1.221745	1.007251	-0.022672
	O327	O	-0.126092	-0.099150	0.964779
	H328	H	-0.117907	-0.088791	0.964388
	H329	H	-0.122265	-0.084535	0.965354
	O330	O	0.936061	-0.160303	-0.086548
	H331	H	0.940934	-0.160396	-0.074466
	H332	H	0.945391	-0.151209	-0.108935
	O333	O	0.416778	0.345416	0.591365
	H334	H	0.412428	0.352051	0.577134
	H335	H	0.416642	0.364374	0.582563
	O336	O	0.338712	0.472303	0.547379
	H337	H	0.347012	0.482422	0.558520
	H338	H	0.343939	0.473701	0.545043
	O339	O	0.935839	0.035385	1.187109
	H340	H	0.935843	0.014124	1.193564
	H341	H	0.943421	0.048765	1.190555
	O342	O	0.023336	-0.216506	-0.201742
	H343	H	0.036646	-0.241958	-0.228115
	H344	H	0.039275	-0.193853	-0.197519
	O345	O	0.076621	0.952160	0.818556
	H346	H	0.079154	0.958595	0.811964
	H347	H	0.077468	0.960441	0.819281
	O348	O	0.120257	0.053292	-0.009712
	H349	H	0.107686	0.053893	0.001635
	H350	H	0.113375	0.057854	-0.020556
	O351	O	0.449281	0.328115	0.380038
	H352	H	0.457255	0.320193	0.372141
	H353	H	0.455999	0.348338	0.355969
	O354	O	-0.078157	0.229275	1.079242
	H355	H	-0.066707	0.231347	1.080504
	H356	H	-0.070420	0.229301	1.085364
	O357	O	-0.207916	0.800487	1.048148
	H358	H	-0.220305	0.810110	1.032714
	H359	H	-0.213978	0.799888	1.032762
	O360	O	0.281778	0.285595	0.726339
	H361	H	0.286329	0.281108	0.695193
	H362	H	0.296954	0.323244	0.728863
	O363	O	-0.462252	0.717921	-0.270304
	H364	H	-0.454535	0.719777	-0.292403
	H365	H	-0.456554	0.742793	-0.246204
	O366	O	0.545589	0.443585	0.726986
	H367	H	0.561255	0.449615	0.707694
	H368	H	0.547333	0.448001	0.731717
	O369	O	0.566254	0.468857	0.567832
	H370	H	0.583529	0.462658	0.564413
	H371	H	0.558385	0.479911	0.562659
	O372	O	1.066073	1.079563	0.041436
	H373	H	1.057829	1.078124	0.035942
	H374	H	1.071611	1.091340	0.034339
	O375	O	1.309720	0.309510	0.322685
	H376	H	1.320425	0.326848	0.349029
	H377	H	1.327452	0.334953	0.333288
	O378	O	0.037932	0.166692	0.105241
	H379	H	0.034621	0.167204	0.119745
	H380	H	0.043717	0.158802	0.096306
	O381	O	0.022835	1.058674	0.803021
	H382	H	0.014693	1.075277	0.815117
	H383	H	0.050584	1.062059	0.807542
	O384	O	1.318903	-0.326657	0.701226
	H385	H	1.341547	-0.349718	0.697272
	H386	H	1.336447	-0.337618	0.673998
	O387	O	0.724337	0.718422	0.297211
	H388	H	0.732037	0.711707	0.283917
	H389	H	0.722746	0.703774	0.280034
	O390	O	0.273514	0.524421	0.293059
	H391	H	0.257686	0.541340	0.286129
	H392	H	0.266363	0.552783	0.282004
	O393	O	0.276529	0.278752	0.540004
	H394	H	0.274199	0.280891	0.536933
	H395	H	0.257005	0.268592	0.535178
	O396	O	-0.192898	0.788818	1.183277
	H397	H	-0.185679	0.782753	1.160994
	H398	H	-0.177294	0.800799	1.165988
	O399	O	-0.186661	0.171827	1.204238
	H400	H	-0.175338	0.158379	1.174600
	H401	H	-0.161061	0.156621	1.207006
	O402	O	0.669214	0.577036	0.497645
	H403	H	0.684103	0.599469	0.504623
	H404	H	0.677268	0.577886	0.469777
	O405	O	1.187044	0.151013	1.021647
	H406	H	1.200304	0.165203	1.011446
	H407	H	1.183797	0.150237	1.030299
	O408	O	0.473870	0.482801	-0.712595
	H409	H	0.450867	0.482929	-0.709818
	H410	H	0.474776	0.484129	-0.700467
	O411	O	0.569619	0.279589	0.534016
	H412	H	0.546212	0.277636	0.524944
	H413	H	0.569341	0.276220	0.550805
	O414	O	0.649358	0.534522	0.387257
	H415	H	0.650498	0.536073	0.383902
	H416	H	0.632872	0.513775	0.390465
	O417	O	0.726171	0.281037	0.472662
	H418	H	0.701095	0.277865	0.472219
	H419	H	0.751264	0.252627	0.475723
	O420	O	0.728282	0.533899	0.735950
	H421	H	0.738837	0.546458	0.750406
	H422	H	0.744568	0.526787	0.733927
	O423	O	0.057122	0.186175	0.904424
	H424	H	0.063754	0.177743	0.889208
	H425	H	0.063518	0.190160	0.906121
	O426	O	0.544810	0.277567	0.287378
	H427	H	0.549946	0.250513	0.258842
	H428	H	0.579174	0.286447	0.289030
	O429	O	0.783084	0.943757	1.232949
	H430	H	0.772246	0.925691	1.244296
	H431	H	0.779529	0.929898	1.238107
	O432	O	0.779929	1.034982	0.793909
	H433	H	0.796827	1.058178	0.792937
	H434	H	0.759660	1.041999	0.761133
	O435	O	0.054596	0.948378	0.245899
	H436	H	0.057017	0.948545	0.246991
	H437	H	0.066070	0.953749	0.244681
	O438	O	0.039944	0.153298	0.195865
	H439	H	0.051930	0.178233	0.200972
	H440	H	0.055766	0.155734	0.201242
	O441	O	0.224828	0.032678	0.233342
	H442	H	0.244079	0.038402	0.248692
	H443	H	0.228933	0.049771	0.224425
	O444	O	0.471646	0.716244	0.568273
	H445	H	0.455373	0.708138	0.549543
	H446	H	0.497730	0.720906	0.567778
	O447	O	0.089671	0.793711	0.991271
	H448	H	0.089027	0.792244	0.981991
	H449	H	0.095306	0.808904	0.981416
	O450	O	-0.265674	0.438853	1.578578
	H451	H	-0.266971	0.432695	1.565659
	H452	H	-0.259953	0.444481	1.567745
	O453	O	0.292619	0.710245	0.304774
	H454	H	0.267952	0.739294	0.274768
	H455	H	0.323546	0.711893	0.316754
	O456	O	0.279034	0.722929	0.475218
	H457	H	0.249785	0.757212	0.477508
	H458	H	0.290721	0.716309	0.446550
	O459	O	0.788626	1.213100	-0.047763
	H460	H	0.799477	1.211749	-0.045547
	H461	H	0.778326	1.224360	-0.039853
	O462	O	1.222874	-0.218025	-0.012635
	H463	H	1.246177	-0.230884	-0.020685
	H464	H	1.223630	-0.209622	-0.009356
	O465	O	1.188503	0.186002	-0.167881
	H466	H	1.214295	0.212743	-0.188897
	H467	H	1.173132	0.171611	-0.153500
	O468	O	0.287281	0.465589	0.730575
	H469	H	0.281334	0.483536	0.725583
	H470	H	0.283415	0.468963	0.747416
	O471	O	0.586111	0.503139	0.517362
	H472	H	0.585580	0.504839	0.516524
	H473	H	0.594895	0.490632	0.517152
	O474	O	0.212455	0.208465	0.223548
	H475	H	0.215024	0.189778	0.198664
	H476	H	0.245540	0.240725	0.253382
	O477	O	0.731661	0.722539	1.551991
	H478	H	0.732240	0.724847	1.583239
	H479	H	0.754018	0.739571	1.555652
	O480	O	0.224794	0.787348	-0.211483
	H481	H	0.214254	0.798330	-0.188618
	H482	H	0.254149	0.751148	-0.236536
	O483	O	0.677056	0.311456	0.688058
	H484	H	0.668131	0.328315	0.671263
	H485	H	0.657871	0.313586	0.687329
	O486	O	0.465557	0.715170	0.296022
	H487	H	0.461964	0.712696	0.283060
	H488	H	0.479415	0.720759	0.294679
	O489	O	0.966358	1.222064	-0.208684
	H490	H	0.955043	1.244613	-0.230066
	H491	H	0.960040	1.218638	-0.210775
	O492	O	-0.287192	0.291693	0.302005
	H493	H	-0.277373	0.311029	0.332702
	H494	H	-0.263879	0.264079	0.275793
	O495	O	0.178865	0.963710	1.082099
	H496	H	0.186901	0.967815	1.075095
	H497	H	0.165671	0.983697	1.078468
	O498	O	0.817823	1.085485	1.039118
	H499	H	0.819415	1.082166	1.044255
	H500	H	0.820039	1.075435	1.050093
	O501	O	0.867766	-0.132000	0.953122
	H502	H	0.876263	-0.125920	0.959663
	H503	H	0.884540	-0.128675	0.965407
