data_Molecule from HDF5

_cell_length_a		16.537965
_cell_length_b		16.473845
_cell_length_c		16.445687
_cell_angle_alpha	90.024483
_cell_angle_beta	90.108586
_cell_angle_gamma	90.158535
_symmetry_space_group_name_H-M	'P 1'
_symmetry_Int_Tables_number		1

loop_
	_symmetry_equiv_pos_as_xyz
	x,y,z

loop_
	_atom_site_label
	_atom_site_type_symbol
	_atom_site_fract_x
	_atom_site_fract_y
	_atom_site_fract_z
	H0	H	0.379352	0.848919	0.713216
	H1	H	0.587747	0.165802	0.710882
	H2	H	0.588886	0.850594	0.270894
	H3	H	0.378652	0.165039	0.269580
	H4	H	0.703396	0.405489	0.835336
	H5	H	0.706810	0.612804	0.150522
	H6	H	0.264406	0.611896	0.835525
	H7	H	0.261738	0.398708	0.149731
	H8	H	0.826977	0.724031	0.389982
	H9	H	0.142727	0.730258	0.598662
	H10	H	0.828782	0.285464	0.596347
	H11	H	0.141485	0.282435	0.383799
	H12	H	0.828235	0.403702	0.712526
	H13	H	0.144036	0.612196	0.713739
	H14	H	0.827413	0.608388	0.272809
	H15	H	0.140617	0.397958	0.267319
	H16	H	0.381940	0.726989	0.834289
	H17	H	0.589629	0.727598	0.151527
	H18	H	0.588670	0.287464	0.835369
	H19	H	0.377803	0.282297	0.149600
	H20	H	0.703622	0.849581	0.387980
	H21	H	0.706695	0.164427	0.596999
	H22	H	0.261240	0.849851	0.598719
	H23	H	0.261535	0.163677	0.383664
	H24	H	0.878353	0.348866	0.214506
	H25	H	0.092848	0.664079	0.215822
	H26	H	0.088955	0.349318	0.773013
	H27	H	0.883503	0.665136	0.774657
	H28	H	0.206734	0.899304	0.333493
	H29	H	0.208143	0.113454	0.648701
	H30	H	0.763295	0.111558	0.334129
	H31	H	0.766320	0.904150	0.650723
	H32	H	0.328208	0.229654	0.887179
	H33	H	0.642553	0.228580	0.098565
	H34	H	0.328045	0.782902	0.100638
	H35	H	0.643188	0.791402	0.893260
	H36	H	0.327264	0.900725	0.215520
	H37	H	0.642213	0.112606	0.214248
	H38	H	0.327666	0.113106	0.769820
	H39	H	0.642534	0.906033	0.774886
	H40	H	0.879472	0.227440	0.333635
	H41	H	0.091642	0.229036	0.648656
	H42	H	0.088806	0.785550	0.332992
	H43	H	0.884720	0.789969	0.651748
	H44	H	0.207200	0.349791	0.887778
	H45	H	0.211220	0.662873	0.103115
	H46	H	0.759450	0.351229	0.101182
	H47	H	0.765401	0.664189	0.889036
	H48	H	0.393581	0.118962	0.576393
	H49	H	0.576486	0.889931	0.590542
	H50	H	0.571092	0.121008	0.400148
	H51	H	0.393878	0.894974	0.405253
	H52	H	0.577795	0.419509	0.107390
	H53	H	0.576411	0.601028	0.877374
	H54	H	0.398138	0.604865	0.108772
	H55	H	0.397096	0.421414	0.881993
	H56	H	0.099740	0.599869	0.404772
	H57	H	0.869652	0.598759	0.592236
	H58	H	0.097787	0.416523	0.580266
	H59	H	0.873292	0.422721	0.397053
	H60	H	0.096957	0.420383	0.580320
	H61	H	0.872545	0.604615	0.578077
	H62	H	0.096067	0.593298	0.408418
	H63	H	0.870806	0.409551	0.402361
	H64	H	0.389791	0.590183	0.107127
	H65	H	0.577388	0.596787	0.878827
	H66	H	0.570903	0.423076	0.104832
	H67	H	0.397693	0.418127	0.881363
	H68	H	0.573028	0.118506	0.409068
	H69	H	0.569209	0.895554	0.581382
	H70	H	0.394690	0.120629	0.583700
	H71	H	0.397938	0.895858	0.401821
	H72	H	0.898046	0.617631	0.079102
	H73	H	0.073880	0.396639	0.075703
	H74	H	0.075444	0.621941	0.900138
	H75	H	0.895508	0.392697	0.901535
	H76	H	0.075797	0.914324	0.606303
	H77	H	0.076623	0.092415	0.378663
	H78	H	0.903354	0.098893	0.603601
	H79	H	0.898075	0.914781	0.378599
	H80	H	0.597883	0.094983	0.897536
	H81	H	0.374803	0.091065	0.079177
	H82	H	0.597472	0.913346	0.080920
	H83	H	0.370854	0.913442	0.906609
	H84	H	0.594129	0.921961	0.078978
	H85	H	0.373481	0.096492	0.081628
	H86	H	0.599363	0.102460	0.901841
	H87	H	0.373386	0.922367	0.904164
	H88	H	0.890747	0.098244	0.607447
	H89	H	0.070399	0.090976	0.381493
	H90	H	0.076001	0.924848	0.602459
	H91	H	0.890259	0.910180	0.374533
	H92	H	0.071406	0.617970	0.906883
	H93	H	0.075253	0.393373	0.081783
	H94	H	0.894564	0.619443	0.080753
	H95	H	0.893498	0.393241	0.904785
	H96	H	0.400192	0.117412	0.580275
	H97	H	0.581894	0.893305	0.578823
	H98	H	0.579065	0.122752	0.404322
	H99	H	0.398107	0.896703	0.407168
	H100	H	0.570803	0.414891	0.107200
	H101	H	0.573606	0.598740	0.880003
	H102	H	0.405306	0.591415	0.101703
	H103	H	0.394977	0.419481	0.880297
	H104	H	0.097918	0.593016	0.399808
	H105	H	0.876802	0.590488	0.581455
	H106	H	0.098770	0.418954	0.583593
	H107	H	0.876693	0.419741	0.410537
	H108	H	0.898172	0.619204	0.083249
	H109	H	0.068965	0.397071	0.080775
	H110	H	0.079944	0.620202	0.907238
	H111	H	0.891618	0.392371	0.901687
	H112	H	0.067190	0.919136	0.601050
	H113	H	0.071566	0.097758	0.378002
	H114	H	0.896810	0.087503	0.602258
	H115	H	0.889559	0.919748	0.377557
	H116	H	0.596009	0.095761	0.906308
	H117	H	0.374505	0.095512	0.075580
	H118	H	0.597957	0.920145	0.087546
	H119	H	0.369348	0.916673	0.897176
	C120	C	0.363470	0.015232	0.612897
	C121	C	0.606984	0.998146	0.614159
	C122	C	0.605830	0.016700	0.371787
	C123	C	0.363593	0.999405	0.370997
	C124	C	0.604987	0.387522	0.001748
	C125	C	0.607364	0.629958	0.983733
	C126	C	0.364958	0.627759	0.001384
	C127	C	0.363652	0.385855	0.984887
	C128	C	-0.006205	0.626720	0.372273
	C129	C	0.977045	0.629966	0.615446
	C130	C	-0.006125	0.386412	0.613165
	C131	C	0.976851	0.384296	0.369856
	C132	C	0.863718	0.514954	0.113819
	C133	C	0.106843	0.498551	0.114252
	C134	C	0.107422	0.515866	0.872172
	C135	C	0.863443	0.497697	0.871562
	C136	C	0.105835	0.885900	0.499257
	C137	C	0.106292	0.127660	0.483021
	C138	C	0.864264	0.127435	0.499996
	C139	C	0.862791	0.884657	0.482754
	C140	C	0.493726	0.129824	0.869991
	C141	C	0.476945	0.127986	0.113071
	C142	C	0.492964	0.885497	0.115299
	C143	C	0.475850	0.886950	0.872325
	C144	C	0.360757	0.896526	0.673525
	C145	C	0.607247	0.117900	0.672078
	C146	C	0.607295	0.897917	0.311152
	C147	C	0.360396	0.117541	0.309528
	C148	C	0.664053	0.386063	0.882519
	C149	C	0.666497	0.631376	0.103267
	C150	C	0.304464	0.630254	0.882700
	C151	C	0.302100	0.381129	0.102820
	C152	C	0.874522	0.685156	0.370953
	C153	C	0.095714	0.689804	0.616927
	C154	C	0.875817	0.326004	0.614988
	C155	C	0.094385	0.323129	0.366214
	C156	C	0.875592	0.384586	0.672668
	C157	C	0.096205	0.631381	0.674584
	C158	C	0.874805	0.627448	0.312875
	C159	C	0.094008	0.380517	0.307855
	C160	C	0.362767	0.687413	0.882034
	C161	C	0.608284	0.688606	0.103590
	C162	C	0.606980	0.327887	0.882640
	C163	C	0.359887	0.323498	0.102694
	C164	C	0.664803	0.897584	0.369200
	C165	C	0.666330	0.117357	0.615480
	C166	C	0.302197	0.896879	0.616286
	C167	C	0.302272	0.117040	0.366588
	C168	C	0.860276	0.396504	0.174607
	C169	C	0.110462	0.616560	0.176000
	C170	C	0.108350	0.396711	0.812524
	C171	C	0.863718	0.617427	0.813583
	C172	C	0.166283	0.882228	0.380735
	C173	C	0.167741	0.131464	0.601166
	C174	C	0.803853	0.129666	0.381326
	C175	C	0.805660	0.884856	0.602967
	C176	C	0.375257	0.189608	0.868360
	C177	C	0.595157	0.188602	0.116360
	C178	C	0.374948	0.824022	0.118227
	C179	C	0.595399	0.829783	0.872877
	C180	C	0.374549	0.882581	0.175594
	C181	C	0.595119	0.130692	0.173932
	C182	C	0.374988	0.131797	0.809837
	C183	C	0.595248	0.887220	0.814541
	C184	C	0.861752	0.187390	0.381136
	C185	C	0.109884	0.189077	0.601310
	C186	C	0.107669	0.825272	0.380613
	C187	C	0.864373	0.828181	0.603581
	C188	C	0.166839	0.397224	0.869670
	C189	C	0.169549	0.615980	0.119589
	C190	C	0.801221	0.397450	0.118019
	C191	C	0.805231	0.616924	0.870545
	C192	C	0.388823	0.097488	0.587260
	C193	C	0.582843	0.914532	0.590316
	C194	C	0.581285	0.099329	0.397287
	C195	C	0.389307	0.917299	0.397190
	C196	C	0.580248	0.412189	0.084915
	C197	C	0.582988	0.605779	0.900436
	C198	C	0.390280	0.602722	0.084254
	C199	C	0.389529	0.412134	0.902690
	C200	C	0.076357	0.602432	0.397087
	C201	C	0.894524	0.605003	0.591127
	C202	C	0.076399	0.411495	0.588376
	C203	C	0.895031	0.409976	0.395893
	C204	C	0.889530	0.597373	0.088235
	C205	C	0.080350	0.416751	0.087135
	C206	C	0.082556	0.598657	0.897526
	C207	C	0.886881	0.414521	0.895713
	C208	C	0.080484	0.911995	0.581772
	C209	C	0.080263	0.101487	0.400746
	C210	C	0.889788	0.102016	0.582812
	C211	C	0.885872	0.907952	0.398815
	C212	C	0.576191	0.104992	0.894766
	C213	C	0.395450	0.101838	0.086419
	C214	C	0.575027	0.911300	0.089840
	C215	C	0.392718	0.910706	0.895951
	Zn216	Zn	0.484511	0.007013	0.741831
	Zn217	Zn	0.484121	0.008286	0.242672
	Zn218	Zn	0.734279	0.507412	-0.006746
	Zn219	Zn	0.235582	0.507430	-0.006170
	Zn220	Zn	-0.014747	0.757348	0.491983
	Zn221	Zn	-0.014580	0.256427	0.491658
	Zn222	Zn	-0.014125	0.507626	0.743740
	Zn223	Zn	-0.014749	0.506521	0.242035
	Zn224	Zn	0.484591	0.757163	-0.006863
	Zn225	Zn	0.485331	0.257976	-0.006907
	Zn226	Zn	0.735323	0.006992	0.492093
	Zn227	Zn	0.234782	0.006368	0.491055
	N228	N	0.398234	0.971032	0.671596
	N229	N	0.571293	0.042659	0.671573
	N230	N	0.571194	0.972896	0.312559
	N231	N	0.397834	0.043227	0.312098
	N232	N	0.662927	0.422227	0.957763
	N233	N	0.666180	0.595708	0.027735
	N234	N	0.305665	0.594013	0.958033
	N235	N	0.304384	0.419197	0.028595
	N236	N	0.949622	0.685123	0.407132
	N237	N	0.020651	0.689217	0.580976
	N238	N	0.950514	0.326964	0.578789
	N239	N	0.020480	0.325295	0.403911
	N240	N	0.950141	0.421407	0.671795
	N241	N	0.021483	0.594863	0.673751
	N242	N	0.949885	0.592218	0.313353
	N243	N	0.019809	0.417618	0.309815
	N244	N	0.399294	0.686220	0.957026
	N245	N	0.572274	0.687892	0.028264
	N246	N	0.571028	0.328661	0.957846
	N247	N	0.397268	0.326121	0.028293
	N248	N	0.664047	0.972329	0.406137
	N249	N	0.666259	0.041629	0.580294
	N250	N	0.303529	0.971733	0.579632
	N251	N	0.303845	0.042448	0.403687
	N252	N	0.898893	0.470272	0.171672
	N253	N	0.072083	0.542477	0.172639
	N254	N	0.072308	0.471771	0.813719
	N255	N	0.899387	0.542387	0.814138
	N256	N	0.165168	0.919109	0.455658
	N257	N	0.165630	0.093887	0.526640
	N258	N	0.805570	0.092985	0.456156
	N259	N	0.804274	0.918911	0.526706
	N260	N	0.449982	0.188655	0.904812
	N261	N	0.520805	0.187103	0.079077
	N262	N	0.449494	0.825586	0.081437
	N263	N	0.520024	0.829363	0.907918
	N264	N	0.448894	0.920065	0.173942
	N265	N	0.520506	0.093939	0.172168
	N266	N	0.449668	0.095524	0.810486
	N267	N	0.519765	0.921826	0.813682
	N268	N	0.898727	0.186112	0.456096
	N269	N	0.072461	0.186923	0.526762
	N270	N	0.070826	0.827320	0.455339
	N271	N	0.899062	0.827729	0.527716
	N272	N	0.166435	0.472386	0.905923
	N273	N	0.167521	0.541557	0.082054
	N274	N	0.803446	0.472038	0.080700
	N275	N	0.804830	0.541468	0.905862
	O276	O	0.792679	-0.103430	0.191838
	H277	H	0.785791	-0.099757	0.205988
	H278	H	0.812340	-0.101278	0.193566
	O279	O	0.294632	0.319632	0.684546
	H280	H	0.283822	0.323250	0.645733
	H281	H	0.277164	0.317507	0.694253
	O282	O	0.789478	1.223751	0.200549
	H283	H	0.787120	1.246396	0.210330
	H284	H	0.787918	1.217886	0.228830
	O285	O	0.447324	0.299483	0.690043
	H286	H	0.417734	0.296179	0.699625
	H287	H	0.425801	0.286785	0.705020
	O288	O	-0.219723	0.157394	0.047957
	H289	H	-0.226363	0.155819	0.044077
	H290	H	-0.223355	0.151362	0.064630
	O291	O	1.148210	0.977543	0.031605
	H292	H	1.145205	0.980126	0.031880
	H293	H	1.148073	0.965764	0.043669
	O294	O	-0.193232	0.806022	-0.205490
	H295	H	-0.174733	0.818867	-0.182381
	H296	H	-0.186087	0.821064	-0.198745
	O297	O	0.508307	0.697899	0.698125
	H298	H	0.508529	0.709430	0.699249
	H299	H	0.501535	0.693688	0.700271
	O300	O	0.647180	0.595571	0.308449
	H301	H	0.638851	0.589584	0.320592
	H302	H	0.632715	0.604066	0.321596
	O303	O	0.369032	0.518685	0.492998
	H304	H	0.371206	0.516517	0.495965
	H305	H	0.386902	0.525687	0.503980
	O306	O	0.195253	1.090135	1.189834
	H307	H	0.207088	1.112705	1.190593
	H308	H	0.190633	1.104976	1.204842
	O309	O	1.166482	1.195949	1.046931
	H310	H	1.166842	1.176932	1.028696
	H311	H	1.154253	1.214830	1.052457
	O312	O	0.458740	0.716863	0.283590
	H313	H	0.472896	0.724466	0.284806
	H314	H	0.466477	0.723219	0.266173
	O315	O	-0.197382	0.051799	0.801620
	H316	H	-0.196379	0.058522	0.819792
	H317	H	-0.215189	0.063333	0.777155
	O318	O	0.075477	1.210023	0.186431
	H319	H	0.053898	1.224768	0.155114
	H320	H	0.061492	1.228726	0.199658
	O321	O	0.919308	-0.185528	0.934679
	H322	H	0.923390	-0.186671	0.939171
	H323	H	0.916871	-0.172149	0.937922
	O324	O	1.476266	0.688119	0.542789
	H325	H	1.458895	0.695016	0.530308
	H326	H	1.451025	0.685699	0.538536
	O327	O	1.035755	-0.211143	1.074872
	H328	H	1.045444	-0.216586	1.060809
	H329	H	1.033979	-0.200483	1.077503
	O330	O	0.827289	0.189659	0.027303
	H331	H	0.840523	0.192575	0.032526
	H332	H	0.805971	0.190521	0.027317
	O333	O	1.366955	0.565337	0.674163
	H334	H	1.355556	0.570027	0.683557
	H335	H	1.372490	0.570249	0.658872
	O336	O	1.194599	-0.018678	0.784969
	H337	H	1.204884	-0.007114	0.779577
	H338	H	1.181911	-0.006200	0.778169
	O339	O	0.599953	0.502368	0.555694
	H340	H	0.601145	0.502279	0.564817
	H341	H	0.596888	0.519186	0.560413
	O342	O	0.727620	0.272597	0.727572
	H343	H	0.719410	0.281634	0.728214
	H344	H	0.708709	0.294393	0.712955
	O345	O	0.131781	0.150816	-0.187881
	H346	H	0.112119	0.147191	-0.182040
	H347	H	0.130332	0.147922	-0.171532
	O348	O	1.181894	-0.208477	0.977360
	H349	H	1.169244	-0.203453	0.967818
	H350	H	1.207947	-0.225725	0.981063
	O351	O	0.779039	0.798852	0.017282
	H352	H	0.768227	0.788788	0.024022
	H353	H	0.783331	0.799525	0.042531
	O354	O	0.424576	0.496656	0.658439
	H355	H	0.396006	0.487728	0.668667
	H356	H	0.415899	0.505828	0.639747
	O357	O	1.135444	0.963705	1.056396
	H358	H	1.121225	0.977445	1.066987
	H359	H	1.152208	0.967432	1.057786
	O360	O	0.298245	0.687556	0.311935
	H361	H	0.310866	0.678235	0.307167
	H362	H	0.316694	0.688897	0.324739
	O363	O	0.519328	0.669231	0.506858
	H364	H	0.528471	0.669776	0.519559
	H365	H	0.520678	0.665052	0.508894
	O366	O	1.049852	0.209002	1.018584
	H367	H	1.060505	0.220531	1.016159
	H368	H	1.056841	0.199534	1.011549
	O369	O	0.676011	0.393910	0.619574
	H370	H	0.655327	0.402430	0.615609
	H371	H	0.681402	0.413512	0.618433
	O372	O	0.490223	0.346072	0.544257
	H373	H	0.481675	0.334628	0.533419
	H374	H	0.475134	0.344216	0.567282
	O375	O	-0.043773	0.954755	0.796002
	H376	H	-0.054121	0.964964	0.795977
	H377	H	-0.039627	0.934143	0.796898
	O378	O	0.957375	-0.003733	0.099260
	H379	H	0.952409	0.006979	0.092056
	H380	H	0.969202	0.013939	0.097390
	O381	O	1.035509	-0.208827	-0.220148
	H382	H	1.030488	-0.232105	-0.234550
	H383	H	1.053299	-0.203871	-0.211357
	O384	O	-0.009958	0.201157	1.072783
	H385	H	-0.013585	0.189180	1.060048
	H386	H	-0.009578	0.199157	1.076594
	O387	O	0.182241	0.812610	0.822289
	H388	H	0.174139	0.829394	0.811641
	H389	H	0.188841	0.837419	0.845256
	O390	O	0.085943	0.026181	0.978767
	H391	H	0.077632	0.014581	0.970950
	H392	H	0.089193	0.020167	0.993565
	O393	O	0.960998	1.216709	-0.155359
	H394	H	0.958261	1.222068	-0.154034
	H395	H	0.951835	1.230427	-0.156311
	O396	O	0.827703	0.184748	0.802437
	H397	H	0.802293	0.207976	0.783553
	H398	H	0.820178	0.185266	0.808730
	O399	O	-0.217136	0.968742	0.935688
	H400	H	-0.222286	0.976190	0.930062
	H401	H	-0.212896	0.964306	0.950864
	O402	O	-0.121256	-0.201703	1.197062
	H403	H	-0.105053	-0.196976	1.192041
	H404	H	-0.114879	-0.191310	1.197350
	O405	O	-0.726025	0.515472	0.653250
	H406	H	-0.740021	0.515532	0.662764
	H407	H	-0.713653	0.506487	0.645116
	O408	O	0.369628	0.358684	0.349660
	H409	H	0.384970	0.371467	0.350897
	H410	H	0.381473	0.357856	0.337513
	O411	O	0.492692	0.466479	0.551286
	H412	H	0.493967	0.464365	0.549095
	H413	H	0.478213	0.461298	0.557678
	O414	O	0.668994	0.711498	0.699462
	H415	H	0.694783	0.731083	0.729320
	H416	H	0.643886	0.706158	0.698302
	O417	O	0.267988	0.293860	0.519557
	H418	H	0.251267	0.298077	0.503955
	H419	H	0.267116	0.283588	0.508645
	O420	O	0.433877	0.290798	0.436214
	H421	H	0.424913	0.305275	0.436190
	H422	H	0.438528	0.281431	0.420824
	O423	O	-0.156018	1.016331	0.107606
	H424	H	-0.155853	1.010059	0.107526
	H425	H	-0.154688	1.007757	0.108936
	O426	O	0.678940	1.578245	1.309242
	H427	H	0.688908	1.587870	1.301019
	H428	H	0.689153	1.578221	1.319095
	O429	O	0.706278	0.725064	0.528122
	H430	H	0.708621	0.731590	0.560902
	H431	H	0.721344	0.748013	0.529074
	O432	O	0.509571	0.416261	0.334203
	H433	H	0.506927	0.403619	0.318895
	H434	H	0.533172	0.424448	0.340945
	O435	O	0.344789	-0.434425	0.451808
	H436	H	0.342947	-0.452457	0.457439
	H437	H	0.358863	-0.438136	0.461828
	O438	O	0.959954	0.000061	0.202075
	H439	H	0.957917	-0.006470	0.207149
	H440	H	0.967567	0.012483	0.203057
	O441	O	0.295448	0.509285	0.338929
	H442	H	0.295137	0.515531	0.322324
	H443	H	0.299629	0.526001	0.332795
	O444	O	0.275178	0.714226	0.471815
	H445	H	0.273833	0.687045	0.469009
	H446	H	0.252164	0.740645	0.467618
	O447	O	0.697462	0.545184	0.465566
	H448	H	0.700987	0.567803	0.488890
	H449	H	0.695317	0.556271	0.476674
	O450	O	0.682415	0.307195	0.463015
	H451	H	0.681962	0.299535	0.469054
	H452	H	0.681245	0.319685	0.482610
	O453	O	0.496987	0.356549	0.286610
	H454	H	0.494736	0.354282	0.302578
	H455	H	0.501109	0.363352	0.277491
	O456	O	1.057847	-0.123832	0.128522
	H457	H	1.062286	-0.123292	0.137285
	H458	H	1.058179	-0.141015	0.131432
	O459	O	0.479816	0.536200	0.276768
	H460	H	0.484323	0.531309	0.285189
	H461	H	0.466194	0.526018	0.273223
	O462	O	0.667706	0.530224	0.702964
	H463	H	0.670630	0.550180	0.713267
	H464	H	0.664367	0.519980	0.710432
	O465	O	1.016927	0.044489	-0.156243
	H466	H	0.998701	0.027894	-0.161978
	H467	H	0.991689	0.059219	-0.155820
