data_Molecule from HDF5

_cell_length_a		16.767675
_cell_length_b		16.724223
_cell_length_c		16.675451
_cell_angle_alpha	90.253442
_cell_angle_beta	90.105584
_cell_angle_gamma	90.082517
_symmetry_space_group_name_H-M	'P 1'
_symmetry_Int_Tables_number		1

loop_
	_symmetry_equiv_pos_as_xyz
	x,y,z

loop_
	_atom_site_label
	_atom_site_type_symbol
	_atom_site_fract_x
	_atom_site_fract_y
	_atom_site_fract_z
	H0	H	0.388771	0.853431	0.725388
	H1	H	0.611238	0.153631	0.722801
	H2	H	0.605798	0.846913	0.276995
	H3	H	0.399454	0.157481	0.279339
	H4	H	0.718221	0.399830	0.842710
	H5	H	0.727916	0.612615	0.148936
	H6	H	0.285392	0.601878	0.841722
	H7	H	0.288032	0.402039	0.155839
	H8	H	0.846946	0.720544	0.396091
	H9	H	0.158100	0.722420	0.601876
	H10	H	0.849497	0.282761	0.602602
	H11	H	0.153686	0.279263	0.391278
	H12	H	0.849384	0.400294	0.717329
	H13	H	0.158313	0.607263	0.717678
	H14	H	0.847428	0.604295	0.279555
	H15	H	0.156577	0.399481	0.280137
	H16	H	0.401369	0.717283	0.841371
	H17	H	0.609411	0.725530	0.150880
	H18	H	0.605392	0.281782	0.844098
	H19	H	0.402692	0.286066	0.155403
	H20	H	0.724553	0.847617	0.391238
	H21	H	0.727026	0.153351	0.607726
	H22	H	0.275991	0.852548	0.607452
	H23	H	0.281200	0.156470	0.391941
	H24	H	0.894892	0.350377	0.220639
	H25	H	0.102186	0.657643	0.214468
	H26	H	0.103989	0.347649	0.779324
	H27	H	0.898909	0.656557	0.779280
	H28	H	0.223083	0.897116	0.344144
	H29	H	0.225288	0.110938	0.650702
	H30	H	0.777195	0.111517	0.345829
	H31	H	0.781850	0.898008	0.652797
	H32	H	0.349898	0.223701	0.892830
	H33	H	0.658297	0.220380	0.102763
	H34	H	0.348705	0.779664	0.103950
	H35	H	0.651148	0.774571	0.885694
	H36	H	0.350110	0.895076	0.220474
	H37	H	0.658397	0.103099	0.216052
	H38	H	0.351824	0.111315	0.773158
	H39	H	0.651043	0.890029	0.770577
	H40	H	0.893623	0.225663	0.345217
	H41	H	0.108006	0.224831	0.651921
	H42	H	0.108198	0.781235	0.344394
	H43	H	0.898764	0.783626	0.653195
	H44	H	0.217970	0.345800	0.897244
	H45	H	0.220657	0.657062	0.100922
	H46	H	0.779615	0.350004	0.104552
	H47	H	0.778547	0.653859	0.889569
	H48	H	0.413525	0.113889	0.585844
	H49	H	0.595272	0.888745	0.584582
	H50	H	0.596257	0.113563	0.410847
	H51	H	0.411510	0.890938	0.406733
	H52	H	0.592856	0.412952	0.110585
	H53	H	0.586488	0.593997	0.885890
	H54	H	0.412746	0.592199	0.109786
	H55	H	0.411355	0.415681	0.888975
	H56	H	0.113605	0.593775	0.407424
	H57	H	0.891816	0.594823	0.587829
	H58	H	0.114758	0.410019	0.584276
	H59	H	0.891506	0.413352	0.410245
	H60	H	0.113065	0.417308	0.588122
	H61	H	0.893916	0.592471	0.587587
	H62	H	0.114278	0.594383	0.406630
	H63	H	0.892118	0.415240	0.409821
	H64	H	0.411621	0.596173	0.110945
	H65	H	0.594702	0.585090	0.887039
	H66	H	0.594308	0.411666	0.109873
	H67	H	0.414712	0.406209	0.886316
	H68	H	0.593097	0.113565	0.405025
	H69	H	0.584373	0.892077	0.588604
	H70	H	0.418967	0.111652	0.585938
	H71	H	0.415519	0.893853	0.409857
	H72	H	0.914461	0.612858	0.086075
	H73	H	0.107742	0.386572	0.095927
	H74	H	0.102438	0.616905	0.907371
	H75	H	0.904165	0.390305	0.898512
	H76	H	0.086303	0.916813	0.606718
	H77	H	0.094163	0.082388	0.389230
	H78	H	0.914105	0.092071	0.608354
	H79	H	0.906320	0.909316	0.383770
	H80	H	0.613607	0.091823	0.909640
	H81	H	0.388846	0.094739	0.094567
	H82	H	0.612501	0.911169	0.085116
	H83	H	0.395480	0.914719	0.917440
	H84	H	0.609440	0.914929	0.084102
	H85	H	0.390564	0.098418	0.085483
	H86	H	0.612705	0.090879	0.911709
	H87	H	0.393994	0.920277	0.908504
	H88	H	0.913920	0.090483	0.607794
	H89	H	0.081334	0.093494	0.390095
	H90	H	0.092465	0.909843	0.611174
	H91	H	0.912662	0.919404	0.388116
	H92	H	0.092545	0.616098	0.903678
	H93	H	0.090164	0.387293	0.099373
	H94	H	0.915457	0.612634	0.085716
	H95	H	0.918344	0.392725	0.903037
	H96	H	0.415324	0.110054	0.581291
	H97	H	0.587790	0.895363	0.577228
	H98	H	0.589755	0.111282	0.410102
	H99	H	0.410067	0.893357	0.411720
	H100	H	0.594262	0.413564	0.110468
	H101	H	0.583614	0.583366	0.891570
	H102	H	0.409422	0.592723	0.111808
	H103	H	0.405058	0.408262	0.884093
	H104	H	0.114437	0.594205	0.407711
	H105	H	0.891945	0.592951	0.590387
	H106	H	0.116467	0.411059	0.592033
	H107	H	0.891552	0.413484	0.408344
	H108	H	0.914386	0.612604	0.084858
	H109	H	0.096767	0.390676	0.082547
	H110	H	0.094374	0.613666	0.913121
	H111	H	0.907481	0.391537	0.913333
	H112	H	0.095277	0.919467	0.609783
	H113	H	0.096206	0.097505	0.382951
	H114	H	0.915999	0.090920	0.607600
	H115	H	0.918876	0.907786	0.387469
	H116	H	0.612729	0.089268	0.909747
	H117	H	0.393205	0.089273	0.088058
	H118	H	0.612225	0.914987	0.088260
	H119	H	0.391143	0.909780	0.909078
	C120	C	0.380902	0.011810	0.618916
	C121	C	0.623016	0.992995	0.618245
	C122	C	0.624439	0.010195	0.376747
	C123	C	0.380947	0.994421	0.376886
	C124	C	0.624198	0.381205	0.007424
	C125	C	0.622561	0.622815	0.989063
	C126	C	0.380913	0.623080	0.007008
	C127	C	0.381489	0.380371	0.990241
	C128	C	0.011119	0.624318	0.377199
	C129	C	0.994828	0.624708	0.620113
	C130	C	0.012289	0.381885	0.619382
	C131	C	0.993364	0.381498	0.377208
	C132	C	0.881516	0.511245	0.118607
	C133	C	0.125905	0.492111	0.121265
	C134	C	0.125140	0.511765	0.877100
	C135	C	0.879863	0.493597	0.875054
	C136	C	0.123625	0.882455	0.507040
	C137	C	0.123191	0.124092	0.489377
	C138	C	0.881031	0.123861	0.506532
	C139	C	0.881286	0.881119	0.489411
	C140	C	0.511850	0.123396	0.877542
	C141	C	0.493960	0.124018	0.120401
	C142	C	0.510226	0.880868	0.118576
	C143	C	0.492997	0.880130	0.875951
	C144	C	0.373745	0.898559	0.682889
	C145	C	0.628028	0.107744	0.681314
	C146	C	0.625187	0.893467	0.316995
	C147	C	0.380263	0.110802	0.318202
	C148	C	0.680654	0.380277	0.889822
	C149	C	0.685946	0.629231	0.103526
	C150	C	0.324016	0.621448	0.888895
	C151	C	0.326010	0.382036	0.108585
	C152	C	0.893729	0.681290	0.377321
	C153	C	0.111363	0.682987	0.620691
	C154	C	0.895810	0.322786	0.620916
	C155	C	0.108362	0.320632	0.374090
	C156	C	0.895765	0.381293	0.677656
	C157	C	0.111578	0.625697	0.678381
	C158	C	0.893909	0.623788	0.319269
	C159	C	0.109517	0.380075	0.318567
	C160	C	0.381942	0.678618	0.888566
	C161	C	0.627266	0.685352	0.104321
	C162	C	0.624360	0.321792	0.890525
	C163	C	0.383155	0.324483	0.108353
	C164	C	0.683871	0.893841	0.373920
	C165	C	0.685768	0.107583	0.624226
	C166	C	0.317356	0.898183	0.624248
	C167	C	0.321424	0.110396	0.374214
	C168	C	0.877712	0.396240	0.179758
	C169	C	0.123110	0.610396	0.176684
	C170	C	0.123512	0.394382	0.818857
	C171	C	0.879121	0.609694	0.817305
	C172	C	0.183199	0.879170	0.390677
	C173	C	0.184523	0.128318	0.604768
	C174	C	0.818482	0.128200	0.391841
	C175	C	0.822092	0.879597	0.606206
	C176	C	0.396427	0.184188	0.874320
	C177	C	0.611190	0.181331	0.121238
	C178	C	0.395152	0.820031	0.121896
	C179	C	0.605865	0.816225	0.869322
	C180	C	0.395615	0.877480	0.179818
	C181	C	0.611343	0.122725	0.177610
	C182	C	0.397000	0.127660	0.815387
	C183	C	0.605891	0.873850	0.812139
	C184	C	0.876409	0.185203	0.391415
	C185	C	0.126314	0.185001	0.605398
	C186	C	0.125925	0.821600	0.390978
	C187	C	0.880190	0.822810	0.606439
	C188	C	0.180319	0.393391	0.877268
	C189	C	0.181620	0.610196	0.120237
	C190	C	0.820220	0.396162	0.122125
	C191	C	0.819586	0.608341	0.872503
	C192	C	0.408300	0.091305	0.591855
	C193	C	0.596526	0.913043	0.591080
	C194	C	0.600088	0.091491	0.401723
	C195	C	0.405369	0.913669	0.402074
	C196	C	0.600696	0.405725	0.089023
	C197	C	0.596012	0.595394	0.908940
	C198	C	0.404430	0.600451	0.089390
	C199	C	0.404016	0.403355	0.907791
	C200	C	0.092809	0.600903	0.400611
	C201	C	0.913491	0.600247	0.595629
	C202	C	0.093611	0.405762	0.595098
	C203	C	0.912484	0.406760	0.402478
	C204	C	0.907538	0.591647	0.092881
	C205	C	0.104350	0.409723	0.099127
	C206	C	0.102901	0.593988	0.901148
	C207	C	0.903346	0.412590	0.898316
	C208	C	0.098610	0.908242	0.588101
	C209	C	0.097826	0.098306	0.408465
	C210	C	0.907329	0.098387	0.587149
	C211	C	0.905466	0.905369	0.407781
	C212	C	0.592125	0.097762	0.903007
	C213	C	0.412281	0.100814	0.096428
	C214	C	0.590432	0.906420	0.092971
	C215	C	0.413975	0.907415	0.903633
	Zn216	Zn	0.502492	0.001851	0.747971
	Zn217	Zn	0.501992	0.002009	0.248185
	Zn218	Zn	0.752329	0.502605	-0.002518
	Zn219	Zn	0.253238	0.501160	-0.000775
	Zn220	Zn	0.003012	0.753239	0.498604
	Zn221	Zn	0.001887	0.252690	0.498106
	Zn222	Zn	0.003360	0.503614	0.748536
	Zn223	Zn	0.002137	0.502125	0.247851
	Zn224	Zn	0.502179	0.751728	-0.002610
	Zn225	Zn	0.503516	0.252525	-0.000630
	Zn226	Zn	0.753169	0.002161	0.498113
	Zn227	Zn	0.252044	0.003544	0.497188
	N228	N	0.412907	0.970318	0.679672
	N229	N	0.589811	0.035205	0.678274
	N230	N	0.588975	0.967036	0.318367
	N231	N	0.416610	0.037661	0.319461
	N232	N	0.680923	0.416577	0.963618
	N233	N	0.683323	0.590863	0.030716
	N234	N	0.322941	0.587713	0.963803
	N235	N	0.324313	0.415812	0.033737
	N236	N	0.967743	0.682065	0.412299
	N237	N	0.037567	0.682992	0.585413
	N238	N	0.969329	0.322898	0.585314
	N239	N	0.034909	0.321369	0.409929
	N240	N	0.969304	0.417219	0.677237
	N241	N	0.037811	0.590204	0.678439
	N242	N	0.967990	0.588960	0.318653
	N243	N	0.036658	0.417155	0.320045
	N244	N	0.416292	0.680205	0.963269
	N245	N	0.588445	0.681619	0.032020
	N246	N	0.590019	0.321951	0.964678
	N247	N	0.416792	0.322846	0.033515
	N248	N	0.683691	0.967644	0.410149
	N249	N	0.682913	0.035131	0.585594
	N250	N	0.321392	0.969896	0.585061
	N251	N	0.321617	0.036970	0.410141
	N252	N	0.915350	0.468831	0.177641
	N253	N	0.089424	0.535959	0.177993
	N254	N	0.090156	0.469260	0.818283
	N255	N	0.915959	0.537206	0.818483
	N256	N	0.182228	0.916256	0.464151
	N257	N	0.182800	0.091037	0.531425
	N258	N	0.821164	0.090609	0.464592
	N259	N	0.822299	0.914929	0.532081
	N260	N	0.468841	0.181862	0.912283
	N261	N	0.537072	0.182467	0.086437
	N262	N	0.467658	0.821628	0.084639
	N263	N	0.534536	0.820024	0.908621
	N264	N	0.468232	0.914809	0.178102
	N265	N	0.537205	0.087829	0.177536
	N266	N	0.469803	0.090405	0.817075
	N267	N	0.534533	0.913104	0.816143
	N268	N	0.914976	0.182634	0.463887
	N269	N	0.088922	0.182870	0.532440
	N270	N	0.089559	0.823258	0.464495
	N271	N	0.916118	0.823255	0.532591
	N272	N	0.181942	0.467704	0.912531
	N273	N	0.183871	0.535517	0.086489
	N274	N	0.822428	0.468940	0.084455
	N275	N	0.819647	0.534989	0.907694
	O276	O	-0.201070	0.792514	0.204910
	H277	H	-0.194946	0.812134	0.187643
	H278	H	-0.233011	0.762581	0.225104
	O279	O	0.297671	0.698725	0.302014
	H280	H	0.266609	0.732294	0.274454
	H281	H	0.300373	0.688683	0.318715
	O282	O	0.966844	0.224956	0.777756
	H283	H	0.985419	0.220640	0.781908
	H284	H	0.964844	0.237745	0.754922
	O285	O	0.586980	0.421430	0.682742
	H286	H	0.581977	0.398999	0.668877
	H287	H	0.553912	0.418879	0.678589
	O288	O	0.292883	0.609454	0.629447
	H289	H	0.309012	0.610213	0.616371
	H290	H	0.294511	0.618439	0.622033
	O291	O	0.283939	0.278135	0.530062
	H292	H	0.261949	0.265451	0.526049
	H293	H	0.281215	0.289794	0.511554
	O294	O	0.778708	0.230000	0.963136
	H295	H	0.784718	0.228965	0.948734
	H296	H	0.758235	0.254751	0.948002
	O297	O	0.636628	0.537694	0.436760
	H298	H	0.637524	0.543600	0.450710
	H299	H	0.633656	0.532582	0.431362
	O300	O	-0.012010	-0.084239	0.859201
	H301	H	-0.019197	-0.084693	0.847124
	H302	H	-0.010773	-0.067964	0.859340
	O303	O	0.650089	0.656202	0.533498
	H304	H	0.653740	0.666643	0.526002
	H305	H	0.662434	0.650443	0.539570
	O306	O	0.684721	0.285888	0.488443
	H307	H	0.686616	0.289430	0.485751
	H308	H	0.674821	0.274251	0.493709
	O309	O	0.482921	0.444003	0.515813
	H310	H	0.479020	0.440871	0.507771
	H311	H	0.488691	0.440535	0.504308
	O312	O	0.520227	0.735588	0.708348
	H313	H	0.520759	0.743613	0.728625
	H314	H	0.524143	0.731530	0.713517
	O315	O	0.882056	0.812898	1.030887
	H316	H	0.891484	0.803520	1.024792
	H317	H	0.890950	0.814976	1.029546
	O318	O	0.566695	0.646149	0.349693
	H319	H	0.547946	0.649802	0.345415
	H320	H	0.555798	0.646540	0.347525
	O321	O	0.221986	0.789979	0.789860
	H322	H	0.226491	0.783351	0.797171
	H323	H	0.185960	0.797475	0.791197
	O324	O	0.967180	0.776316	0.229766
	H325	H	0.957703	0.747775	0.253412
	H326	H	0.937659	0.773116	0.218781
	O327	O	-0.036091	0.114018	0.947315
	H328	H	-0.046500	0.118811	0.964692
	H329	H	-0.020537	0.113607	0.950469
	O330	O	0.632081	0.574021	0.599869
	H331	H	0.609334	0.557918	0.604778
	H332	H	0.640696	0.577960	0.581341
	O333	O	0.475958	0.275395	0.723827
	H334	H	0.447165	0.262118	0.731619
	H335	H	0.471423	0.253597	0.728142
	O336	O	0.713797	0.291233	0.285066
	H337	H	0.739420	0.271110	0.264736
	H338	H	0.716904	0.297306	0.323635
	O339	O	0.777226	0.030549	0.777227
	H340	H	0.781221	0.049398	0.782010
	H341	H	0.751879	0.030623	0.761263
	O342	O	0.025763	-0.039611	0.234357
	H343	H	0.028863	-0.060875	0.233591
	H344	H	0.031911	-0.059407	0.228728
	O345	O	0.006061	0.772102	0.990234
	H346	H	-0.003128	0.793097	0.981066
	H347	H	0.007938	0.771202	0.977022
	O348	O	0.240799	0.241417	0.229110
	H349	H	0.217702	0.232489	0.222566
	H350	H	0.233238	0.234000	0.191220
	O351	O	0.469411	0.721016	0.282394
	H352	H	0.452909	0.725597	0.265896
	H353	H	0.455099	0.719793	0.267760
	O354	O	0.239943	-0.053899	1.048369
	H355	H	0.237327	-0.063705	1.058718
	H356	H	0.245927	-0.058979	1.061678
	O357	O	0.481243	0.519916	0.390891
	H358	H	0.470464	0.509487	0.384977
	H359	H	0.479844	0.512335	0.398970
	O360	O	0.293341	0.291841	0.709150
	H361	H	0.286187	0.340596	0.710438
	H362	H	0.307272	0.286138	0.667325
	O363	O	0.034809	-0.009205	-0.083861
	H364	H	0.027751	-0.003905	-0.078902
	H365	H	0.027170	-0.007131	-0.077520
	O366	O	0.485434	0.711282	0.472016
	H367	H	0.488722	0.708221	0.505220
	H368	H	0.467307	0.714669	0.456341
	O369	O	0.815777	0.193906	0.189679
	H370	H	0.833756	0.188339	0.177348
	H371	H	0.824462	0.172561	0.179476
	O372	O	0.820916	0.816395	0.028024
	H373	H	0.817111	0.804316	0.032157
	H374	H	0.812151	0.827796	0.030950
	O375	O	0.986714	0.075316	0.164160
	H376	H	0.974099	0.068025	0.160030
	H377	H	0.987333	0.079482	0.154698
	O378	O	0.717622	0.605964	0.516354
	H379	H	0.701195	0.611607	0.504434
	H380	H	0.730974	0.626585	0.513718
	O381	O	-0.107005	0.884130	0.922276
	H382	H	-0.120567	0.910109	0.914069
	H383	H	-0.103841	0.866956	0.907817
	O384	O	0.975848	-0.061455	0.785585
	H385	H	0.963008	-0.064413	0.777924
	H386	H	0.954382	-0.058752	0.794946
	O387	O	0.821071	0.992495	-0.058618
	H388	H	0.821122	1.009164	-0.050691
	H389	H	0.810722	0.996975	-0.061362
	O390	O	0.509209	0.319883	0.410707
	H391	H	0.512744	0.318705	0.404332
	H392	H	0.511346	0.314214	0.406278
	O393	O	0.391157	0.652557	0.686015
	H394	H	0.399999	0.653123	0.698302
	H395	H	0.391381	0.662876	0.684090
	O396	O	0.218381	0.982583	0.786399
	H397	H	0.235282	0.954921	0.776532
	H398	H	0.220133	0.967464	0.786161
	O399	O	0.032623	-0.069336	0.912670
	H400	H	0.031840	-0.056377	0.901396
	H401	H	0.045215	-0.070777	0.926207
	O402	O	0.451555	0.600131	0.537481
	H403	H	0.453535	0.605496	0.520194
	H404	H	0.454608	0.610712	0.533732
	O405	O	1.194348	0.023649	0.943868
	H406	H	1.192976	0.009550	0.955247
	H407	H	1.196796	0.025917	0.926090
	O408	O	0.227943	0.222906	0.037577
	H409	H	0.231517	0.193546	0.009768
	H410	H	0.247701	0.251554	0.025306
	O411	O	0.712784	0.714568	0.700988
	H412	H	0.710942	0.681028	0.688633
	H413	H	0.675250	0.708978	0.692028
	O414	O	0.696867	0.308475	0.689858
	H415	H	0.687082	0.326023	0.675333
	H416	H	0.698564	0.309614	0.679773
	O417	O	0.540279	0.274827	0.273736
	H418	H	0.567284	0.267505	0.262151
	H419	H	0.550446	0.264650	0.256068
	O420	O	0.357018	0.552180	0.420578
	H421	H	0.364704	0.554498	0.407626
	H422	H	0.364495	0.546205	0.419483
	O423	O	0.188289	0.193813	0.826172
	H424	H	0.189898	0.185210	0.813327
	H425	H	0.202910	0.191801	0.805594
	O426	O	0.281546	0.730706	0.468678
	H427	H	0.264040	0.745806	0.462688
	H428	H	0.287467	0.737217	0.469530
	O429	O	0.805011	0.809379	0.807761
	H430	H	0.806805	0.818616	0.814331
	H431	H	0.779082	0.783366	0.784969
	O432	O	0.306816	0.519304	0.493256
	H433	H	0.306180	0.508564	0.463982
	H434	H	0.316353	0.538622	0.476018
	O435	O	0.095382	0.802530	0.092103
	H436	H	0.079491	0.810561	0.082943
	H437	H	0.061024	0.801583	0.084881
	O438	O	0.233422	0.024886	0.220425
	H439	H	0.253540	0.037072	0.244729
	H440	H	0.225066	0.057754	0.221263
	O441	O	0.029739	0.221287	0.216710
	H442	H	0.030305	0.227204	0.234131
	H443	H	0.018442	0.215570	0.216197
	O444	O	0.331823	0.306689	0.345066
	H445	H	0.362152	0.304377	0.357842
	H446	H	0.307183	0.282761	0.309958
	O447	O	0.132404	1.123607	0.886964
	H448	H	0.129654	1.126530	0.874249
	H449	H	0.140983	1.119194	0.885596
	O450	O	0.236344	0.776886	0.960754
	H451	H	0.255919	0.753567	0.952590
	H452	H	0.223385	0.765526	0.965202
	O453	O	0.464010	0.481404	0.724704
	H454	H	0.461069	0.470004	0.707478
	H455	H	0.443774	0.459905	0.725594
	O456	O	0.029992	-0.022532	0.812734
	H457	H	0.041496	-0.027472	0.806190
	H458	H	0.013108	-0.035651	0.817731
	O459	O	0.779628	0.971449	0.223050
	H460	H	0.756875	0.965811	0.237169
	H461	H	0.778070	0.954634	0.221241
	O462	O	0.729541	0.435511	0.467865
	H463	H	0.742366	0.439098	0.476220
	H464	H	0.712700	0.445347	0.470067
	O465	O	0.786043	0.094174	0.042872
	H466	H	0.782208	0.094975	0.039420
	H467	H	0.784997	0.099733	0.033737
	O468	O	0.275943	0.542746	0.275262
	H469	H	0.261156	0.559697	0.255315
	H470	H	0.273719	0.545299	0.269053
	O471	O	0.435050	0.372326	0.542323
	H472	H	0.426659	0.387314	0.540024
	H473	H	0.422937	0.361681	0.533037
	O474	O	0.206507	0.799660	0.200199
	H475	H	0.197485	0.815715	0.177559
	H476	H	0.176064	0.816854	0.187055
	O477	O	0.524209	0.490201	1.325563
	H478	H	0.529034	0.495380	1.317206
	H479	H	0.523613	0.478849	1.319555
	O480	O	0.549597	0.278456	0.536034
	H481	H	0.537365	0.287221	0.524897
	H482	H	0.551035	0.270542	0.551899
	O483	O	0.729201	0.527309	0.716908
	H484	H	0.741178	0.530958	0.748760
	H485	H	0.707392	0.523344	0.720954
	O486	O	0.795180	0.211816	0.788226
	H487	H	0.773023	0.213192	0.767094
	H488	H	0.831256	0.220151	0.801401
	O489	O	0.952962	1.027533	0.160244
	H490	H	0.963752	1.014174	0.156055
	H491	H	0.929061	1.020747	0.164514
	O492	O	0.147309	0.061223	0.168320
	H493	H	0.120473	0.065686	0.163061
	H494	H	0.154099	0.079920	0.152087
	O495	O	0.048423	0.156278	0.966903
	H496	H	0.060869	0.162466	0.978065
	H497	H	0.036445	0.158801	0.957560
	O498	O	0.888376	1.057751	0.922558
	H499	H	0.879394	1.049611	0.927018
	H500	H	0.902481	1.048116	0.901456
	O501	O	0.580408	0.561900	0.370626
	H502	H	0.587228	0.565388	0.370939
	H503	H	0.590608	0.562468	0.372552
	O504	O	0.276650	0.458758	0.727098
	H505	H	0.262256	0.473338	0.736310
	H506	H	0.266744	0.471788	0.727195
	O507	O	0.549103	0.464302	0.338817
	H508	H	0.553485	0.456642	0.330578
	H509	H	0.555930	0.442750	0.331886
	O510	O	-0.000517	0.184300	0.063673
	H511	H	-0.001960	0.190231	0.059900
	H512	H	0.005083	0.181400	0.054966
	O513	O	0.691268	0.682060	0.307909
	H514	H	0.668309	0.666895	0.318668
	H515	H	0.682284	0.658985	0.327706
