data_Molecule from HDF5

_cell_length_a		16.158803
_cell_length_b		16.331904
_cell_length_c		16.469082
_cell_angle_alpha	89.998214
_cell_angle_beta	89.858560
_cell_angle_gamma	90.053788
_symmetry_space_group_name_H-M	'P 1'
_symmetry_Int_Tables_number		1

loop_
	_symmetry_equiv_pos_as_xyz
	x,y,z

loop_
	_atom_site_label
	_atom_site_type_symbol
	_atom_site_fract_x
	_atom_site_fract_y
	_atom_site_fract_z
	H0	H	0.382064	0.840325	0.723543
	H1	H	0.598797	0.157827	0.722162
	H2	H	0.594839	0.837032	0.282115
	H3	H	0.389371	0.160036	0.282071
	H4	H	0.713070	0.394970	0.841727
	H5	H	0.708550	0.596352	0.162958
	H6	H	0.275216	0.598112	0.841811
	H7	H	0.275826	0.395764	0.163628
	H8	H	0.828025	0.711996	0.401192
	H9	H	0.154869	0.714786	0.601656
	H10	H	0.828080	0.281196	0.602437
	H11	H	0.156109	0.281258	0.403136
	H12	H	0.829728	0.393018	0.721092
	H13	H	0.154348	0.602833	0.720301
	H14	H	0.829105	0.597306	0.285432
	H15	H	0.155770	0.392397	0.284784
	H16	H	0.386378	0.718845	0.843153
	H17	H	0.597983	0.718331	0.160848
	H18	H	0.598589	0.277754	0.841697
	H19	H	0.391816	0.278655	0.162527
	H20	H	0.708270	0.835852	0.399342
	H21	H	0.707238	0.160022	0.598869
	H22	H	0.275510	0.837007	0.600517
	H23	H	0.277520	0.163056	0.402761
	H24	H	0.889734	0.335829	0.220874
	H25	H	0.097615	0.657433	0.221494
	H26	H	0.099178	0.336908	0.780141
	H27	H	0.885131	0.656730	0.780940
	H28	H	0.207800	0.900451	0.340305
	H29	H	0.210837	0.103246	0.661017
	H30	H	0.776936	0.097415	0.339840
	H31	H	0.768768	0.894666	0.660265
	H32	H	0.329040	0.215840	0.902187
	H33	H	0.656635	0.214460	0.102056
	H34	H	0.330101	0.780690	0.103953
	H35	H	0.654848	0.780747	0.898264
	H36	H	0.329281	0.896675	0.217290
	H37	H	0.655782	0.100804	0.218255
	H38	H	0.329207	0.103265	0.783928
	H39	H	0.652458	0.892684	0.778923
	H40	H	0.888956	0.217267	0.341745
	H41	H	0.095335	0.217935	0.660714
	H42	H	0.094538	0.779397	0.341667
	H43	H	0.882637	0.775571	0.660348
	H44	H	0.207972	0.334334	0.902509
	H45	H	0.208884	0.659067	0.101071
	H46	H	0.775365	0.335226	0.103054
	H47	H	0.776100	0.659291	0.902076
	H48	H	0.402895	0.115382	0.597144
	H49	H	0.571339	0.885460	0.594440
	H50	H	0.581857	0.112877	0.407350
	H51	H	0.396758	0.881641	0.406004
	H52	H	0.584583	0.397412	0.118213
	H53	H	0.583148	0.591272	0.887297
	H54	H	0.405629	0.591049	0.114713
	H55	H	0.398599	0.405085	0.886845
	H56	H	0.108615	0.591808	0.414935
	H57	H	0.876036	0.590206	0.589405
	H58	H	0.111023	0.399088	0.594122
	H59	H	0.878269	0.418496	0.404448
	H60	H	0.103980	0.410062	0.581990
	H61	H	0.878833	0.581346	0.590747
	H62	H	0.106215	0.582359	0.412327
	H63	H	0.870790	0.396578	0.405090
	H64	H	0.399751	0.590636	0.117050
	H65	H	0.585431	0.587645	0.887559
	H66	H	0.590263	0.410809	0.116348
	H67	H	0.402760	0.409757	0.890034
	H68	H	0.583652	0.113283	0.408024
	H69	H	0.577631	0.886402	0.584121
	H70	H	0.406131	0.112137	0.590874
	H71	H	0.404374	0.883860	0.406026
	H72	H	0.899463	0.613324	0.096393
	H73	H	0.083482	0.383485	0.087713
	H74	H	0.074580	0.608926	0.910214
	H75	H	0.899597	0.382986	0.916973
	H76	H	0.079594	0.906831	0.614258
	H77	H	0.078336	0.091825	0.388723
	H78	H	0.900823	0.089423	0.616561
	H79	H	0.901749	0.901282	0.386160
	H80	H	0.611976	0.093313	0.905598
	H81	H	0.377180	0.088477	0.091003
	H82	H	0.606738	0.911978	0.086641
	H83	H	0.377159	0.914034	0.909744
	H84	H	0.610244	0.910992	0.099383
	H85	H	0.376618	0.086733	0.094020
	H86	H	0.605874	0.088758	0.919374
	H87	H	0.374818	0.904056	0.911549
	H88	H	0.899452	0.088696	0.614798
	H89	H	0.086668	0.091088	0.385911
	H90	H	0.081850	0.903667	0.616713
	H91	H	0.898653	0.906582	0.387470
	H92	H	0.088553	0.610876	0.916415
	H93	H	0.089568	0.378149	0.097324
	H94	H	0.905726	0.611751	0.097678
	H95	H	0.902702	0.380941	0.904909
	H96	H	0.399584	0.114371	0.591111
	H97	H	0.583206	0.881210	0.593233
	H98	H	0.583011	0.114006	0.406227
	H99	H	0.399313	0.886185	0.412351
	H100	H	0.576553	0.408097	0.112281
	H101	H	0.581246	0.587597	0.889657
	H102	H	0.402608	0.584872	0.114745
	H103	H	0.404976	0.403313	0.887935
	H104	H	0.109758	0.588371	0.405605
	H105	H	0.874456	0.586108	0.597480
	H106	H	0.107306	0.415572	0.597859
	H107	H	0.880112	0.406643	0.424002
	H108	H	0.903658	0.610749	0.091598
	H109	H	0.077552	0.381861	0.099518
	H110	H	0.086544	0.615179	0.902495
	H111	H	0.911797	0.385295	0.912131
	H112	H	0.083968	0.907927	0.616233
	H113	H	0.082892	0.084948	0.389656
	H114	H	0.900943	0.088416	0.614565
	H115	H	0.904495	0.906284	0.389108
	H116	H	0.605729	0.078458	0.907320
	H117	H	0.375399	0.090421	0.094473
	H118	H	0.611221	0.900759	0.091754
	H119	H	0.378616	0.910150	0.918806
	C120	C	0.369524	0.008007	0.623799
	C121	C	0.610438	0.990285	0.620993
	C122	C	0.613577	0.006666	0.377827
	C123	C	0.370163	0.990949	0.378853
	C124	C	0.615400	0.374955	0.009892
	C125	C	0.614533	0.619578	0.993363
	C126	C	0.371334	0.619295	0.010042
	C127	C	0.371470	0.375474	0.994048
	C128	C	0.000645	0.618053	0.380572
	C129	C	0.983517	0.618276	0.623049
	C130	C	0.000378	0.376454	0.622704
	C131	C	0.984193	0.376240	0.381136
	C132	C	0.871948	0.504985	0.124554
	C133	C	0.114463	0.488015	0.124390
	C134	C	0.114321	0.505193	0.879379
	C135	C	0.872371	0.489086	0.881171
	C136	C	0.113320	0.876215	0.509899
	C137	C	0.113536	0.120626	0.493193
	C138	C	0.870088	0.119399	0.509268
	C139	C	0.868598	0.874424	0.492849
	C140	C	0.500509	0.118820	0.880551
	C141	C	0.484308	0.119042	0.122753
	C142	C	0.501456	0.876909	0.122954
	C143	C	0.483625	0.877542	0.880906
	C144	C	0.365748	0.887786	0.682951
	C145	C	0.615009	0.110112	0.681166
	C146	C	0.614066	0.885181	0.320784
	C147	C	0.370314	0.112265	0.321593
	C148	C	0.673852	0.375334	0.889516
	C149	C	0.671375	0.617867	0.114392
	C150	C	0.313482	0.618362	0.889839
	C151	C	0.313936	0.375829	0.115031
	C152	C	0.877356	0.673926	0.381574
	C153	C	0.105972	0.676626	0.622004
	C154	C	0.877283	0.319096	0.622442
	C155	C	0.107001	0.318968	0.382637
	C156	C	0.878165	0.374979	0.681460
	C157	C	0.105598	0.620677	0.680930
	C158	C	0.877760	0.616788	0.323852
	C159	C	0.106911	0.374508	0.323852
	C160	C	0.369087	0.678450	0.890583
	C161	C	0.615939	0.678039	0.113462
	C162	C	0.616994	0.316743	0.889679
	C163	C	0.371764	0.317725	0.114706
	C164	C	0.670582	0.884870	0.379212
	C165	C	0.669571	0.111304	0.620203
	C166	C	0.312468	0.886235	0.621755
	C167	C	0.314822	0.113562	0.381859
	C168	C	0.870741	0.383927	0.182045
	C169	C	0.115829	0.609317	0.181983
	C170	C	0.116325	0.384671	0.820444
	C171	C	0.868558	0.609252	0.821640
	C172	C	0.170210	0.878695	0.388852
	C173	C	0.171836	0.121842	0.613159
	C174	C	0.814186	0.117994	0.388249
	C175	C	0.808534	0.874807	0.612615
	C176	C	0.378062	0.177454	0.881749
	C177	C	0.607420	0.175957	0.121800
	C178	C	0.378900	0.819329	0.123003
	C179	C	0.605740	0.819356	0.879282
	C180	C	0.378430	0.877162	0.179484
	C181	C	0.607020	0.119424	0.179728
	C182	C	0.377917	0.121263	0.823072
	C183	C	0.604582	0.875203	0.819999
	C184	C	0.870334	0.177422	0.389167
	C185	C	0.114294	0.178931	0.613041
	C186	C	0.113653	0.818781	0.389439
	C187	C	0.865573	0.815663	0.612764
	C188	C	0.170835	0.383253	0.881236
	C189	C	0.171306	0.610139	0.122186
	C190	C	0.814050	0.383792	0.123124
	C191	C	0.814171	0.610564	0.882008
	C192	C	0.395313	0.092203	0.600006
	C193	C	0.584768	0.906290	0.597313
	C194	C	0.589949	0.091401	0.400636
	C195	C	0.393474	0.905933	0.401570
	C196	C	0.590879	0.398540	0.093665
	C197	C	0.590270	0.595749	0.910009
	C198	C	0.395616	0.595667	0.093830
	C199	C	0.395154	0.399127	0.910091
	C200	C	0.086113	0.594594	0.404063
	C201	C	0.898489	0.593203	0.599453
	C202	C	0.085303	0.400858	0.598235
	C203	C	0.898633	0.400340	0.404330
	C204	C	0.896100	0.589759	0.101785
	C205	C	0.090545	0.403215	0.101518
	C206	C	0.090282	0.589660	0.902831
	C207	C	0.897378	0.404943	0.904737
	C208	C	0.088852	0.899406	0.593867
	C209	C	0.089557	0.096488	0.409616
	C210	C	0.893475	0.095665	0.593420
	C211	C	0.894295	0.897884	0.409182
	C212	C	0.585568	0.094029	0.903926
	C213	C	0.398588	0.095477	0.099748
	C214	C	0.587322	0.900960	0.099478
	C215	C	0.398722	0.902438	0.906153
	Zn216	Zn	0.490650	-0.001529	0.752404
	Zn217	Zn	0.492036	-0.001668	0.250057
	Zn218	Zn	0.743736	0.497148	0.001700
	Zn219	Zn	0.241905	0.496910	0.002110
	Zn220	Zn	-0.008947	0.745978	0.501860
	Zn221	Zn	-0.008345	0.248535	0.501835
	Zn222	Zn	-0.007704	0.497140	0.751268
	Zn223	Zn	-0.006482	0.496242	0.253211
	Zn224	Zn	0.492601	0.749350	0.001811
	Zn225	Zn	0.493464	0.246334	0.001815
	Zn226	Zn	0.740762	-0.002281	0.500360
	Zn227	Zn	0.242373	-0.000244	0.501923
	N228	N	0.400595	0.964720	0.684354
	N229	N	0.579161	0.033696	0.681958
	N230	N	0.579306	0.961963	0.319802
	N231	N	0.404007	0.034913	0.319621
	N232	N	0.673060	0.410702	0.965153
	N233	N	0.670794	0.582167	0.038800
	N234	N	0.314593	0.582234	0.965101
	N235	N	0.313428	0.410796	0.038936
	N236	N	0.954715	0.674815	0.416170
	N237	N	0.028812	0.675390	0.586933
	N238	N	0.954260	0.319804	0.586797
	N239	N	0.029628	0.319895	0.417418
	N240	N	0.955673	0.409799	0.681882
	N241	N	0.028362	0.585097	0.681675
	N242	N	0.955613	0.582791	0.322956
	N243	N	0.029425	0.409401	0.322867
	N244	N	0.404499	0.678996	0.966395
	N245	N	0.581291	0.679364	0.037315
	N246	N	0.581440	0.316303	0.965649
	N247	N	0.406679	0.317322	0.038555
	N248	N	0.670294	0.961428	0.413955
	N249	N	0.666812	0.035845	0.583372
	N250	N	0.314741	0.962066	0.585684
	N251	N	0.314594	0.037097	0.416701
	N252	N	0.905817	0.460541	0.183167
	N253	N	0.081406	0.532207	0.183545
	N254	N	0.082163	0.461729	0.818927
	N255	N	0.904174	0.532856	0.820963
	N256	N	0.170273	0.913577	0.464813
	N257	N	0.171265	0.085956	0.537859
	N258	N	0.814006	0.082633	0.464087
	N259	N	0.810146	0.910545	0.537041
	N260	N	0.455348	0.176151	0.916762
	N261	N	0.530162	0.175783	0.087035
	N262	N	0.456588	0.819016	0.088840
	N263	N	0.529365	0.820746	0.916295
	N264	N	0.455875	0.912242	0.179587
	N265	N	0.529377	0.084756	0.180340
	N266	N	0.455068	0.085704	0.822254
	N267	N	0.527290	0.910432	0.820830
	N268	N	0.904215	0.178437	0.465581
	N269	N	0.078429	0.178174	0.537502
	N270	N	0.078917	0.817175	0.465811
	N271	N	0.902135	0.815382	0.537221
	N272	N	0.169950	0.459226	0.917086
	N273	N	0.170296	0.533802	0.087029
	N274	N	0.814784	0.460091	0.088034
	N275	N	0.816457	0.534737	0.918256
	O276	O	0.966903	0.844600	0.814974
	H277	H	0.957590	0.844919	0.817284
	H278	H	0.968511	0.837715	0.810253
	O279	O	0.645397	0.662304	0.648829
	H280	H	0.655403	0.647130	0.632225
	H281	H	0.634567	0.637733	0.653803
	O282	O	1.103896	0.033445	0.996153
	H283	H	1.104058	0.029977	1.001692
	H284	H	1.096278	0.032706	1.007586
	O285	O	0.431042	0.586913	0.687227
	H286	H	0.441891	0.585763	0.698596
	H287	H	0.440013	0.591048	0.676663
	O288	O	0.851102	0.834646	1.106025
	H289	H	0.853090	0.833682	1.117202
	H290	H	0.847784	0.833256	1.116577
	O291	O	0.118913	-0.146672	1.031490
	H292	H	0.114540	-0.134123	1.031438
	H293	H	0.110086	-0.151376	1.025932
	O294	O	0.507267	0.453895	0.367092
	H295	H	0.503104	0.446308	0.376757
	H296	H	0.516545	0.452846	0.366011
	O297	O	0.511913	0.372718	0.579070
	H298	H	0.493669	0.369052	0.566450
	H299	H	0.498274	0.369586	0.573763
	O300	O	0.272726	0.264786	0.461160
	H301	H	0.274849	0.263736	0.439521
	H302	H	0.266788	0.269244	0.444728
	O303	O	0.806354	-0.013145	0.085307
	H304	H	0.805217	-0.029649	0.082090
	H305	H	0.800453	-0.010013	0.095071
	O306	O	0.396474	0.388004	0.657472
	H307	H	0.389847	0.371756	0.668730
	H308	H	0.389505	0.401248	0.655621
	O309	O	0.534580	0.696830	0.679742
	H310	H	0.558819	0.678161	0.678949
	H311	H	0.538258	0.710311	0.696630
	O312	O	0.133006	0.153072	0.094965
	H313	H	0.128415	0.146149	0.101450
	H314	H	0.119549	0.147765	0.084922
	O315	O	0.455651	0.567047	0.358381
	H316	H	0.458513	0.550457	0.366612
	H317	H	0.448018	0.582293	0.340049
	O318	O	-0.207492	1.071450	0.861899
	H319	H	-0.197443	1.096683	0.871753
	H320	H	-0.233757	1.073482	0.852782
	O321	O	0.442185	0.468966	0.396753
	H322	H	0.436340	0.471874	0.400705
	H323	H	0.427044	0.479827	0.397595
	O324	O	-0.074333	0.902806	-0.016563
	H325	H	-0.084758	0.913762	-0.016967
	H326	H	-0.081025	0.895009	-0.008486
	O327	O	1.391191	0.604687	-0.525609
	H328	H	1.402878	0.602961	-0.526241
	H329	H	1.385477	0.608397	-0.507612
	O330	O	0.116190	0.048858	0.926543
	H331	H	0.119147	0.050291	0.931050
	H332	H	0.131313	0.038192	0.922494
	O333	O	-0.097143	-0.035735	0.981502
	H334	H	-0.103182	-0.025595	0.984534
	H335	H	-0.094531	-0.041938	0.993005
	O336	O	0.348794	0.514632	0.540123
	H337	H	0.334956	0.521900	0.556727
	H338	H	0.356731	0.524818	0.546631
	O339	O	1.138294	-0.181534	-0.009594
	H340	H	1.139820	-0.198608	-0.022700
	H341	H	1.126358	-0.183426	-0.023947
	O342	O	-0.087464	-0.052042	0.073853
	H343	H	-0.079332	-0.053089	0.061552
	H344	H	-0.084353	-0.065008	0.087359
	O345	O	1.636603	0.518918	1.368426
	H346	H	1.619728	0.519375	1.375452
	H347	H	1.630599	0.520235	1.369271
	O348	O	1.137791	0.983492	0.094942
	H349	H	1.126878	0.978847	0.085946
	H350	H	1.140837	0.985676	0.089949
	O351	O	0.516945	0.516981	0.455630
	H352	H	0.523508	0.517451	0.459263
	H353	H	0.520293	0.523443	0.460049
	O354	O	0.952668	0.037042	0.946761
	H355	H	0.953548	0.034341	0.944749
	H356	H	0.958597	0.040939	0.927044
	O357	O	0.536988	0.500804	0.384791
	H358	H	0.551337	0.489152	0.378511
	H359	H	0.536211	0.505800	0.380286
	O360	O	0.631671	0.467303	0.679173
	H361	H	0.623457	0.448833	0.672629
	H362	H	0.633973	0.455285	0.677859
	O363	O	-0.068102	1.158832	0.899214
	H364	H	-0.076511	1.176698	0.890053
	H365	H	-0.069650	1.142253	0.916822
	O366	O	0.566030	0.458262	0.485729
	H367	H	0.569122	0.451539	0.483989
	H368	H	0.575297	0.445651	0.484524
	O369	O	-0.471915	0.559109	0.458136
	H370	H	-0.470336	0.562353	0.469992
	H371	H	-0.471903	0.548423	0.463680
	O372	O	0.360919	0.637092	0.389832
	H373	H	0.347999	0.647170	0.385229
	H374	H	0.371891	0.651981	0.406984
	O375	O	0.313543	0.547390	0.392699
	H376	H	0.292471	0.556492	0.380366
	H377	H	0.316639	0.563806	0.406598
	O378	O	1.045050	0.908582	-0.162530
	H379	H	1.031239	0.903351	-0.166576
	H380	H	1.028175	0.921604	-0.160393
	O381	O	0.853806	0.155577	-0.153934
	H382	H	0.852574	0.169072	-0.134818
	H383	H	0.879516	0.158297	-0.154169
	O384	O	0.334753	1.389587	-0.455408
	H385	H	0.336139	1.393547	-0.465225
	H386	H	0.329369	1.405382	-0.455688
	O387	O	-0.065534	-0.047814	0.122798
	H388	H	-0.066530	-0.044156	0.118556
	H389	H	-0.068351	-0.046304	0.124680
	O390	O	0.020686	1.121587	0.169021
	H391	H	0.024266	1.114091	0.170479
	H392	H	0.019444	1.121177	0.170008
	O393	O	1.633488	0.629030	0.530241
	H394	H	1.641788	0.640507	0.536634
	H395	H	1.627106	0.636188	0.527230
	O396	O	0.540238	0.536453	0.380721
	H397	H	0.522157	0.541675	0.366214
	H398	H	0.531679	0.534501	0.389067
	O399	O	0.030507	1.054277	1.094729
	H400	H	0.040100	1.066004	1.086777
	H401	H	0.025875	1.043326	1.108405
	O402	O	0.578688	0.428905	0.568230
	H403	H	0.585600	0.422283	0.560428
	H404	H	0.580556	0.427984	0.562359
	O405	O	0.883389	1.014527	-0.066123
	H406	H	0.876238	1.024557	-0.063910
	H407	H	0.876216	1.006602	-0.058907
	O408	O	0.970028	1.022925	0.021539
	H409	H	0.972794	1.015925	0.011409
	H410	H	0.975792	1.013085	0.025194
	O411	O	1.165918	-0.062259	0.858698
	H412	H	1.141238	-0.056791	0.861488
	H413	H	1.179397	-0.052672	0.841437
	O414	O	0.046826	-0.066686	1.126337
	H415	H	0.058012	-0.061586	1.128942
	H416	H	0.046939	-0.058363	1.111242
	O417	O	0.498184	0.390146	0.497530
	H418	H	0.491786	0.392462	0.495623
	H419	H	0.499637	0.393196	0.476056
