data_Molecule from HDF5

_cell_length_a		16.259123
_cell_length_b		16.228023
_cell_length_c		16.370311
_cell_angle_alpha	89.969023
_cell_angle_beta	90.119074
_cell_angle_gamma	89.790899
_symmetry_space_group_name_H-M	'P 1'
_symmetry_Int_Tables_number		1

loop_
	_symmetry_equiv_pos_as_xyz
	x,y,z

loop_
	_atom_site_label
	_atom_site_type_symbol
	_atom_site_fract_x
	_atom_site_fract_y
	_atom_site_fract_z
	H0	H	0.400609	0.838486	0.713989
	H1	H	0.599797	0.165672	0.712218
	H2	H	0.600726	0.838346	0.281216
	H3	H	0.398362	0.166222	0.281740
	H4	H	0.713088	0.403473	0.833035
	H5	H	0.715416	0.599863	0.159869
	H6	H	0.283468	0.601309	0.833655
	H7	H	0.286251	0.404079	0.159675
	H8	H	0.835487	0.714919	0.398299
	H9	H	0.163843	0.712691	0.595038
	H10	H	0.834400	0.288987	0.591939
	H11	H	0.163878	0.286440	0.399714
	H12	H	0.835972	0.401378	0.711158
	H13	H	0.162672	0.598704	0.711446
	H14	H	0.836418	0.601255	0.280138
	H15	H	0.162940	0.399597	0.280418
	H16	H	0.402350	0.715410	0.832735
	H17	H	0.599395	0.716405	0.159657
	H18	H	0.596355	0.287455	0.833654
	H19	H	0.403305	0.289094	0.159779
	H20	H	0.712925	0.836962	0.400208
	H21	H	0.713530	0.165866	0.594574
	H22	H	0.286301	0.837302	0.597158
	H23	H	0.284590	0.165931	0.400397
	H24	H	0.903086	0.336873	0.208895
	H25	H	0.099071	0.665471	0.211990
	H26	H	0.097842	0.336779	0.783072
	H27	H	0.900008	0.665372	0.781218
	H28	H	0.215470	0.901751	0.334549
	H29	H	0.213827	0.098311	0.660588
	H30	H	0.782936	0.100778	0.334858
	H31	H	0.786076	0.902988	0.660450
	H32	H	0.334851	0.214754	0.900073
	H33	H	0.664451	0.214765	0.093890
	H34	H	0.334967	0.788110	0.093813
	H35	H	0.664112	0.787407	0.900082
	H36	H	0.335775	0.901876	0.212986
	H37	H	0.663404	0.099628	0.211075
	H38	H	0.336291	0.101311	0.781732
	H39	H	0.663286	0.902021	0.782706
	H40	H	0.901545	0.214827	0.333724
	H41	H	0.097355	0.215480	0.659907
	H42	H	0.098698	0.785603	0.333969
	H43	H	0.903285	0.786594	0.660321
	H44	H	0.212409	0.336585	0.900969
	H45	H	0.212537	0.666476	0.093041
	H46	H	0.788896	0.336526	0.091699
	H47	H	0.785551	0.665783	0.899218
	H48	H	0.398058	0.122695	0.596652
	H49	H	0.597646	0.885005	0.585194
	H50	H	0.599725	0.118931	0.409686
	H51	H	0.409544	0.885876	0.404504
	H52	H	0.595718	0.406541	0.113712
	H53	H	0.591246	0.597803	0.880375
	H54	H	0.412817	0.588236	0.108208
	H55	H	0.402355	0.414442	0.880618
	H56	H	0.112751	0.586803	0.408550
	H57	H	0.882457	0.598460	0.585514
	H58	H	0.113429	0.413062	0.587053
	H59	H	0.879167	0.407639	0.390203
	H60	H	0.118150	0.408652	0.596185
	H61	H	0.885024	0.587922	0.585321
	H62	H	0.117522	0.590287	0.396810
	H63	H	0.882336	0.398470	0.409141
	H64	H	0.409605	0.603397	0.114067
	H65	H	0.595862	0.594128	0.880442
	H66	H	0.596129	0.407951	0.112900
	H67	H	0.412105	0.408312	0.882109
	H68	H	0.592355	0.121471	0.394762
	H69	H	0.592830	0.883272	0.597499
	H70	H	0.416246	0.116333	0.595152
	H71	H	0.406700	0.885415	0.404292
	H72	H	0.904630	0.619953	0.091231
	H73	H	0.086589	0.386530	0.090777
	H74	H	0.094109	0.619092	0.903157
	H75	H	0.911160	0.386666	0.905571
	H76	H	0.090503	0.890277	0.615899
	H77	H	0.088084	0.080964	0.386214
	H78	H	0.905120	0.094496	0.613606
	H79	H	0.902319	0.903738	0.378453
	H80	H	0.617590	0.094670	0.901314
	H81	H	0.385035	0.093848	0.084224
	H82	H	0.615470	0.908614	0.092368
	H83	H	0.388148	0.921733	0.908022
	H84	H	0.616022	0.907536	0.089539
	H85	H	0.382608	0.090816	0.095597
	H86	H	0.616643	0.097159	0.904694
	H87	H	0.379446	0.907993	0.891843
	H88	H	0.906677	0.094366	0.612765
	H89	H	0.083596	0.104884	0.380263
	H90	H	0.109302	0.911841	0.616036
	H91	H	0.904017	0.913378	0.382600
	H92	H	0.089447	0.618214	0.899700
	H93	H	0.096231	0.385520	0.084224
	H94	H	0.909968	0.618217	0.091166
	H95	H	0.900199	0.382967	0.904729
	H96	H	0.404117	0.116021	0.579820
	H97	H	0.585686	0.888149	0.588135
	H98	H	0.583290	0.115105	0.407303
	H99	H	0.408322	0.885304	0.402525
	H100	H	0.594091	0.407781	0.112879
	H101	H	0.590875	0.592127	0.883035
	H102	H	0.397542	0.592152	0.113822
	H103	H	0.402620	0.402727	0.878098
	H104	H	0.117548	0.599240	0.406403
	H105	H	0.881477	0.592296	0.595031
	H106	H	0.116872	0.402629	0.587264
	H107	H	0.887336	0.419139	0.406287
	H108	H	0.905936	0.617490	0.086112
	H109	H	0.096904	0.381915	0.095474
	H110	H	0.089044	0.616325	0.904960
	H111	H	0.907173	0.382169	0.895035
	H112	H	0.082769	0.916523	0.606846
	H113	H	0.106452	0.095113	0.377238
	H114	H	0.906060	0.096148	0.613209
	H115	H	0.911540	0.906331	0.383167
	H116	H	0.615044	0.092635	0.905063
	H117	H	0.380265	0.102022	0.091557
	H118	H	0.615303	0.910339	0.089858
	H119	H	0.382672	0.899770	0.912844
	C120	C	0.378331	0.009678	0.619078
	C121	C	0.621115	0.993758	0.618509
	C122	C	0.621054	0.010257	0.375650
	C123	C	0.378901	0.993984	0.375839
	C124	C	0.622201	0.379439	0.004958
	C125	C	0.621685	0.623237	0.988830
	C126	C	0.377816	0.623521	0.004361
	C127	C	0.378232	0.380626	0.988095
	C128	C	0.007882	0.621810	0.375267
	C129	C	0.991021	0.621515	0.617668
	C130	C	0.007678	0.379678	0.617976
	C131	C	0.991324	0.379081	0.373888
	C132	C	0.879106	0.509657	0.117161
	C133	C	0.121428	0.493287	0.118600
	C134	C	0.120081	0.509451	0.875104
	C135	C	0.877332	0.492590	0.873929
	C136	C	0.122502	0.878111	0.505437
	C137	C	0.121007	0.122107	0.488984
	C138	C	0.877545	0.123142	0.505420
	C139	C	0.877998	0.879309	0.489041
	C140	C	0.507969	0.123707	0.875305
	C141	C	0.491278	0.123911	0.118834
	C142	C	0.507608	0.880260	0.118787
	C143	C	0.491570	0.880645	0.876049
	C144	C	0.380944	0.886960	0.675200
	C145	C	0.619224	0.116999	0.673760
	C146	C	0.619947	0.886881	0.319980
	C147	C	0.379496	0.117369	0.320613
	C148	C	0.676029	0.382387	0.882092
	C149	C	0.677392	0.620393	0.111113
	C150	C	0.322031	0.621743	0.882062
	C151	C	0.323871	0.383475	0.110946
	C152	C	0.884690	0.677480	0.377638
	C153	C	0.114517	0.675668	0.615305
	C154	C	0.883756	0.325670	0.613484
	C155	C	0.114804	0.323904	0.378154
	C156	C	0.884446	0.381447	0.672671
	C157	C	0.114126	0.618989	0.673246
	C158	C	0.884975	0.620761	0.319218
	C159	C	0.114414	0.380397	0.319096
	C160	C	0.380908	0.678613	0.881811
	C161	C	0.619856	0.678455	0.111230
	C162	C	0.617698	0.325163	0.882066
	C163	C	0.381812	0.326346	0.111179
	C164	C	0.676213	0.886410	0.378719
	C165	C	0.675723	0.117140	0.615470
	C166	C	0.323788	0.886592	0.617160
	C167	C	0.322668	0.117270	0.378994
	C168	C	0.882361	0.385905	0.171542
	C169	C	0.119400	0.616455	0.173920
	C170	C	0.118030	0.385753	0.820818
	C171	C	0.879508	0.616224	0.818928
	C172	C	0.177411	0.881090	0.382792
	C173	C	0.176063	0.119111	0.611750
	C174	C	0.821781	0.120587	0.383172
	C175	C	0.823643	0.882038	0.611883
	C176	C	0.384206	0.177883	0.878790
	C177	C	0.615114	0.177444	0.114759
	C178	C	0.383920	0.825824	0.115103
	C179	C	0.615049	0.825441	0.879376
	C180	C	0.384240	0.882358	0.174113
	C181	C	0.614743	0.120695	0.173374
	C182	C	0.384968	0.121475	0.819977
	C183	C	0.614694	0.882065	0.821015
	C184	C	0.880722	0.177007	0.382371
	C185	C	0.118220	0.177267	0.611518
	C186	C	0.119205	0.823647	0.382446
	C187	C	0.881687	0.824272	0.611662
	C188	C	0.174988	0.385547	0.879214
	C189	C	0.175678	0.617086	0.114909
	C190	C	0.826243	0.385405	0.112852
	C191	C	0.822701	0.616575	0.877275
	C192	C	0.399780	0.096111	0.596851
	C193	C	0.598663	0.907503	0.596748
	C194	C	0.598399	0.096155	0.397443
	C195	C	0.401532	0.907958	0.397526
	C196	C	0.601388	0.400930	0.090990
	C197	C	0.599127	0.601341	0.903412
	C198	C	0.400045	0.601161	0.089793
	C199	C	0.399463	0.402117	0.902525
	C200	C	0.093840	0.598989	0.397576
	C201	C	0.905234	0.599520	0.595193
	C202	C	0.093916	0.401658	0.596400
	C203	C	0.905057	0.401909	0.395357
	C204	C	0.900515	0.596216	0.095874
	C205	C	0.099598	0.406929	0.096716
	C206	C	0.097560	0.595716	0.896393
	C207	C	0.899547	0.406341	0.895510
	C208	C	0.100657	0.899731	0.590808
	C209	C	0.099195	0.100031	0.403310
	C210	C	0.899592	0.101478	0.591216
	C211	C	0.899688	0.901267	0.403475
	C212	C	0.594239	0.101347	0.897087
	C213	C	0.404961	0.101968	0.097079
	C214	C	0.593437	0.902301	0.097148
	C215	C	0.405694	0.903211	0.897729
	Zn216	Zn	0.500419	0.002051	0.747222
	Zn217	Zn	0.499765	0.002190	0.247220
	Zn218	Zn	0.750468	0.501271	-0.003270
	Zn219	Zn	0.248907	0.501926	-0.003859
	Zn220	Zn	-0.000016	0.750041	0.496509
	Zn221	Zn	-0.000833	0.251568	0.496608
	Zn222	Zn	-0.000881	0.500650	0.746224
	Zn223	Zn	-0.000205	0.501409	0.246359
	Zn224	Zn	0.499714	0.752130	-0.002931
	Zn225	Zn	0.499443	0.251737	-0.003246
	Zn226	Zn	0.749132	0.001307	0.497694
	Zn227	Zn	0.250560	0.000632	0.497087
	N228	N	0.414086	0.964749	0.676421
	N229	N	0.585918	0.039046	0.675895
	N230	N	0.586391	0.964843	0.317591
	N231	N	0.413715	0.039584	0.318423
	N232	N	0.678524	0.415675	0.959431
	N233	N	0.678407	0.586602	0.033993
	N234	N	0.319881	0.588253	0.959219
	N235	N	0.321282	0.416484	0.033535
	N236	N	0.962275	0.678308	0.411668
	N237	N	0.037079	0.677218	0.581180
	N238	N	0.961514	0.324334	0.580183
	N239	N	0.037241	0.323222	0.411713
	N240	N	0.962296	0.414080	0.675582
	N241	N	0.036235	0.586060	0.675013
	N242	N	0.962477	0.586738	0.317820
	N243	N	0.036614	0.414024	0.316656
	N244	N	0.414814	0.679868	0.958903
	N245	N	0.585953	0.680473	0.034231
	N246	N	0.585200	0.323103	0.959599
	N247	N	0.414948	0.324415	0.033993
	N248	N	0.676877	0.963858	0.412754
	N249	N	0.676979	0.039467	0.582015
	N250	N	0.322400	0.963901	0.582687
	N251	N	0.322337	0.039666	0.412753
	N252	N	0.914679	0.464184	0.174264
	N253	N	0.086556	0.538474	0.176264
	N254	N	0.084375	0.463642	0.818458
	N255	N	0.912687	0.538104	0.816731
	N256	N	0.179862	0.913954	0.460201
	N257	N	0.177853	0.085482	0.534457
	N258	N	0.820098	0.087559	0.460501
	N259	N	0.821345	0.915537	0.534744
	N260	N	0.461873	0.179291	0.912545
	N261	N	0.537270	0.179432	0.081684
	N262	N	0.461410	0.824304	0.081620
	N263	N	0.537586	0.824584	0.912948
	N264	N	0.462058	0.915513	0.176467
	N265	N	0.536765	0.087810	0.175737
	N266	N	0.462857	0.088383	0.818009
	N267	N	0.537026	0.915901	0.818995
	N268	N	0.914655	0.178723	0.459347
	N269	N	0.084761	0.179137	0.534358
	N270	N	0.086093	0.821526	0.459649
	N271	N	0.914814	0.822482	0.534301
	N272	N	0.176469	0.463469	0.912152
	N273	N	0.177029	0.539422	0.081193
	N274	N	0.823983	0.463344	0.079940
	N275	N	0.821130	0.538780	0.910660
	O276	O	-0.477018	-0.361812	1.449768
	H277	H	-0.488584	-0.367777	1.458963
	H278	H	-0.470183	-0.349971	1.442441
	O279	O	0.452474	0.572453	0.484961
	H280	H	0.453228	0.579459	0.482666
	H281	H	0.466001	0.572168	0.491918
	O282	O	0.473642	0.540866	0.468139
	H283	H	0.466803	0.539653	0.457003
	H284	H	0.476970	0.548842	0.469421
	O285	O	0.410514	0.572513	0.491350
	H286	H	0.408749	0.552769	0.479790
	H287	H	0.398459	0.578230	0.511289
	O288	O	0.436901	0.556705	0.421091
	H289	H	0.450158	0.551669	0.433984
	H290	H	0.443822	0.557597	0.419989
	O291	O	0.458468	1.570894	1.449621
	H292	H	0.471379	1.576541	1.451792
	H293	H	0.460495	1.569588	1.435330
	O294	O	0.382713	0.608144	0.492296
	H295	H	0.373889	0.609530	0.480121
	H296	H	0.371710	0.613645	0.493434
	O297	O	1.570852	-0.453894	-0.474089
	H298	H	1.558072	-0.444677	-0.471912
	H299	H	1.573903	-0.454277	-0.466201
